data_functionalizedCrystal
_audit_creation_method	'MofGen! by Chris Wilmer'
_symmetry_space_group_name_H-M	'P1'
_symmetry_Int_Tables_number	1
_symmetry_cell_setting	triclinic
loop_
_symmetry_equiv_pos_as_xyz
  x,y,z
_cell_length_a	21.295417
_cell_length_b	21.295420
_cell_length_c	12.759387
_cell_angle_alpha	90.023927
_cell_angle_beta	89.961464
_cell_angle_gamma	89.972078
loop_
_atom_site_label
_atom_site_type_symbol
_atom_site_fract_x
_atom_site_fract_y
_atom_site_fract_z
Zn1	Zn	-0.250619	-0.962345	-0.594044
Zn2	Zn	-0.355902	-0.962251	-0.418341
Zn3	Zn	-0.250646	-0.857071	-0.418371
Zn4	Zn	-0.355850	-0.857038	-0.593970
O5	O	-0.303254	-0.909676	-0.506181
O6	O	-0.264596	-1.050422	-0.570756
O7	O	-0.341973	-0.948273	-0.271324
O8	O	-0.162553	-0.871090	-0.441718
O9	O	-0.341947	-1.050352	-0.441667
O10	O	-0.162534	-0.948434	-0.570785
O11	O	-0.264642	-0.870998	-0.271346
O12	O	-0.264591	-0.768978	-0.441645
O13	O	-0.341858	-0.871033	-0.741001
O14	O	-0.341884	-0.768953	-0.570657
O15	O	-0.264545	-0.948401	-0.741056
O16	O	-0.443985	-0.948240	-0.441595
O17	O	-0.443946	-0.870941	-0.570628
C18	C	-0.303235	-0.746125	-0.506147
C19	C	-0.303242	-0.676157	-0.506157
C20	C	-0.466806	-0.909594	-0.506123
C21	C	-0.536774	-0.909616	-0.506134
C22	C	-0.343564	-0.176702	-0.573274
C23	C	-0.343565	-0.242445	-0.573265
C24	C	-0.303259	-0.275317	-0.506198
C25	C	-0.262961	-0.242442	-0.439117
C26	C	-0.262965	-0.176700	-0.439121
N27	N	-0.248145	-0.378558	-0.498302
N28	N	-0.248143	-0.441009	-0.498305
C29	C	-0.303245	-0.473392	-0.506181
N30	N	-0.358351	-0.440963	-0.514075
N31	N	-0.358352	-0.378506	-0.514078
C32	C	-0.303250	-0.346602	-0.506186
C33	C	-0.343545	-0.577545	-0.573242
C34	C	-0.343547	-0.643289	-0.573226
C35	C	-0.262937	-0.643284	-0.439084
C36	C	-0.262941	-0.577542	-0.439095
C37	C	-0.303244	-0.544676	-0.506180
C38	C	-0.569640	-0.949902	-0.439015
C39	C	-0.635382	-0.949931	-0.439038
C40	C	-0.668257	-0.909664	-0.506170
C41	C	-0.635383	-0.869375	-0.573302
C42	C	-0.569642	-0.869351	-0.573284
N43	N	-0.771519	-0.854597	-0.514168
N44	N	-0.833971	-0.854621	-0.514179
C45	C	-0.866331	-0.909734	-0.506230
N46	N	-0.833881	-0.964823	-0.498249
N47	N	-0.771424	-0.964798	-0.498233
C48	C	-0.739542	-0.909685	-0.506197
C49	C	-0.970483	-0.950055	-0.439133
C50	C	-1.036226	-0.950086	-0.439164
C51	C	-1.036226	-0.869524	-0.573422
C52	C	-0.970483	-0.869500	-0.573397
C53	C	-0.937616	-0.909764	-0.506246
C54	C	-0.139064	-0.909776	-0.506263
C55	C	-0.069096	-0.909819	-0.506298
C56	C	-0.303193	-0.909724	-0.780215
C57	C	-0.303166	-0.909744	-0.896992
C58	C	-0.303271	-0.073866	-0.506210
C59	C	-0.303268	-0.143835	-0.506206
C60	C	-0.222666	-0.990314	-0.897069
C61	C	-0.182407	-1.030607	-0.951968
C62	C	-0.182384	-1.030623	-1.061690
C63	C	-0.222623	-0.990339	-1.116515
C64	C	-0.262883	-0.950045	-1.061615
C65	C	-0.262903	-0.950035	-0.951891
C66	C	-0.343379	-0.869473	-1.061539
C67	C	-0.343406	-0.869460	-0.951817
C68	C	-0.383618	-0.829189	-1.116363
C69	C	-0.423882	-0.788898	-1.061464
C70	C	-0.423904	-0.788885	-0.951736
C71	C	-0.383666	-0.829166	-0.896918
C72	C	-0.303270	-0.909665	-0.233214
C73	C	-0.303119	-0.909767	-0.116438
H74	H	-0.376384	-0.149947	-0.627896
H75	H	-0.222596	-0.990349	-1.205856
H76	H	-0.383595	-0.829202	-1.205705
O77	O	-1.068057	-0.989334	-0.374016
C78	C	-1.088041	-1.096461	-0.323274
C79	C	-1.051961	-1.052067	-0.397102
H80	H	-1.075051	-1.147191	-0.341926
H81	H	-1.075145	-1.085486	-0.238522
H82	H	-1.140679	-1.089569	-0.334765
H83	H	-0.999315	-1.058935	-0.385704
H84	H	-1.064909	-1.063054	-0.481826
O85	O	-0.667286	-0.830326	-0.638663
C86	C	-0.687311	-0.799699	-0.817331
C87	C	-0.651154	-0.843969	-0.743422
H88	H	-0.674272	-0.810704	-0.902043
H89	H	-0.739952	-0.806637	-0.805904
H90	H	-0.674444	-0.748945	-0.798747
H91	H	-0.663969	-0.894739	-0.761960
H92	H	-0.598523	-0.836976	-0.754863
O93	O	-0.223848	-0.144844	-0.373819
C94	C	-0.193203	-0.124675	-0.195191
C95	C	-0.237533	-0.160800	-0.269029
H96	H	-0.204260	-0.137552	-0.110452
H97	H	-0.142446	-0.137644	-0.213701
H98	H	-0.200112	-0.072044	-0.206761
H99	H	-0.230680	-0.213439	-0.257500
H100	H	-0.288274	-0.147779	-0.250501
H101	H	-0.230144	-0.269210	-0.384510
H102	H	-0.542882	-0.836546	-0.627941
H103	H	-0.230125	-0.550781	-0.384484
H104	H	-0.149644	-1.063405	-0.907318
O105	O	-0.462946	-0.749829	-1.114881
C106	C	-0.498552	-0.714112	-1.283886
C107	C	-0.454290	-0.758399	-1.223518
H108	H	-0.491559	-0.721015	-1.371729
H109	H	-0.549333	-0.725130	-1.262376
H110	H	-0.487501	-0.663365	-1.262234
H111	H	-0.465284	-0.809160	-1.245138
H112	H	-0.403522	-0.747326	-1.245033
H113	H	-0.149597	-1.063429	-1.106389
H114	H	-0.542881	-0.982689	-0.384340
H115	H	-1.062991	-0.836741	-0.628087
H116	H	-0.456681	-0.756066	-0.907043
H117	H	-0.943722	-0.836693	-0.628047
O118	O	-0.382727	-0.274284	-0.638523
C119	C	-0.462693	-0.267355	-0.771550
C120	C	-0.418367	-0.231222	-0.697715
H121	H	-0.491529	-0.232556	-0.819410
H122	H	-0.433849	-0.298141	-0.826633
H123	H	-0.495548	-0.298127	-0.723206
H124	H	-0.385503	-0.200416	-0.745974
H125	H	-0.447250	-0.200476	-0.642629
H126	H	-0.376363	-0.550784	-0.627866
H127	H	-0.383682	-0.829162	-0.807576
H128	H	-0.376366	-0.670048	-0.627838
H129	H	-0.230121	-0.670048	-0.384473
H130	H	-0.662147	-0.982739	-0.384382
O131	O	-0.938618	-0.989138	-0.373768
C132	C	-0.918538	-1.019715	-0.195094
C133	C	-0.954673	-0.975426	-0.269001
H134	H	-0.931495	-1.008637	-0.110373
H135	H	-0.931419	-1.070485	-0.213540
H136	H	-0.865908	-1.012783	-0.206660
H137	H	-1.007311	-0.982302	-0.257476
H138	H	-0.941740	-0.924673	-0.250536
H139	H	-0.222687	-0.990311	-0.807728
