data_functionalizedCrystal
_audit_creation_method	'MofGen! by Chris Wilmer'
_symmetry_space_group_name_H-M	'P1'
_symmetry_Int_Tables_number	1
_symmetry_cell_setting	triclinic
loop_
_symmetry_equiv_pos_as_xyz
  x,y,z
_cell_length_a	17.640112
_cell_length_b	17.640280
_cell_length_c	17.640968
_cell_angle_alpha	114.317439
_cell_angle_beta	87.860920
_cell_angle_gamma	92.184069
loop_
_atom_site_label
_atom_site_type_symbol
_atom_site_fract_x
_atom_site_fract_y
_atom_site_fract_z
Zn1	Zn	1.251359	-0.023073	0.189698
Zn2	Zn	1.251298	-0.188752	0.024069
Zn3	Zn	1.106797	-0.075311	0.076159
Zn4	Zn	1.148399	-0.178182	0.179117
O5	O	1.189463	-0.116329	0.117261
O6	O	1.354914	-0.027613	0.150355
O7	O	1.214694	-0.199989	-0.081425
O8	O	1.108588	0.044008	0.117448
O9	O	1.354870	-0.149337	0.028669
O10	O	1.214797	0.082386	0.200865
O11	O	1.108529	-0.116644	-0.043155
O12	O	1.008752	-0.106394	0.107188
O13	O	1.179493	-0.131321	0.292925
O14	O	1.039317	-0.181973	0.182831
O15	O	1.255137	-0.017364	0.300699
O16	O	1.255033	-0.299739	0.018409
O17	O	1.179434	-0.291973	0.132322
C18	C	1.221764	-0.324990	0.068579
C19	C	1.235655	-0.414238	0.047768
C20	C	0.997182	-0.148705	0.149514
C21	C	0.914929	-0.162571	0.163327
C22	C	1.084287	-0.687787	0.275600
C23	C	1.097337	-0.771655	0.256019
C24	C	1.176134	-0.779643	0.137496
C25	C	1.163094	-0.695773	0.157069
C26	C	1.117169	-0.649852	0.226122
C27	C	1.195976	-0.657837	0.107591
C28	C	1.182933	-0.573976	0.127160
C29	C	1.137009	-0.528050	0.196208
C30	C	1.104127	-0.565990	0.245691
C31	C	1.241896	-0.703761	0.038535
C32	C	1.274778	-0.665825	-0.010944
C33	C	1.261740	-0.581961	0.008629
C34	C	1.215815	-0.536035	0.077677
C35	C	1.294622	-0.544020	-0.040854
C36	C	1.281579	-0.460159	-0.021285
C37	C	1.202773	-0.452173	0.097246
C38	C	0.564743	-0.010979	0.012337
C39	C	0.487458	-0.024022	0.025323
C40	C	0.519334	-0.102905	0.103880
C41	C	0.596623	-0.089865	0.090904
C42	C	0.619321	-0.043903	0.045131
C43	C	0.651201	-0.122789	0.123697
C44	C	0.728483	-0.109754	0.110718
C45	C	0.751188	-0.063796	0.064946
C46	C	0.696603	-0.030868	0.032152
C47	C	0.628502	-0.168756	0.169465
C48	C	0.683080	-0.201680	0.202259
C49	C	0.760364	-0.188640	0.189285
C50	C	0.783068	-0.142682	0.143512
C51	C	0.814949	-0.221568	0.222079
C52	C	0.892231	-0.208534	0.209100
C53	C	0.860351	-0.129647	0.130533
C54	C	1.382495	-0.083827	0.084882
C55	C	1.464754	-0.069977	0.071084
C56	C	1.221962	-0.067336	0.326772
C57	C	1.235811	-0.046458	0.416053
C58	C	1.157059	0.093153	0.166147
C59	C	1.143250	0.182422	0.186980
C60	C	1.157124	-0.165067	-0.091429
C61	C	1.143383	-0.185695	-0.180681
C62	C	1.084469	-0.274453	0.689444
C63	C	1.097496	-0.254822	0.773337
C64	C	1.176258	-0.136168	0.781421
C65	C	1.163234	-0.155787	0.697528
C66	C	1.117340	-0.224930	0.651546
C67	C	1.196105	-0.106264	0.659630
C68	C	1.183085	-0.125884	0.575743
C69	C	1.137195	-0.195026	0.529754
C70	C	1.104320	-0.244550	0.567659
C71	C	1.242004	-0.037124	0.705612
C72	C	1.274874	0.012398	0.667713
C73	C	1.261851	-0.007218	0.583827
C74	C	1.215960	-0.076360	0.537838
C75	C	1.294725	0.042306	0.545922
C76	C	1.281706	0.022686	0.462035
C77	C	1.202940	-0.095980	0.453951
H78	H	1.165383	-0.414780	0.153481
C79	C	0.589354	0.038784	-0.037512
C80	C	0.560915	-0.000357	-0.117915
C81	C	0.583584	0.045447	-0.163863
H82	H	0.570186	0.093371	-0.011065
H83	H	0.643198	0.041805	-0.040601
H84	H	0.507083	-0.003369	-0.114823
H85	H	0.580080	-0.054941	-0.144385
H86	H	0.637427	0.048469	-0.166951
H87	H	0.564414	0.100033	-0.137409
H88	H	0.564297	0.018893	-0.218423
C89	C	0.544631	-0.183053	0.183597
C90	C	0.536435	-0.230382	0.230669
C91	C	0.459185	-0.243585	0.243686
H92	H	0.521196	-0.130995	0.212630
H93	H	0.521227	-0.211978	0.131457
H94	H	0.559829	-0.201456	0.282800
H95	H	0.559853	-0.282448	0.201651
H96	H	0.435780	-0.272510	0.191546
H97	H	0.435757	-0.191523	0.272717
H98	H	0.453613	-0.275705	0.275619
H99	H	1.066737	-0.528597	0.301926
H100	H	1.070726	-0.295154	0.804190
C101	C	0.835120	-0.049816	0.050801
C102	C	0.869336	-0.126752	0.008074
C103	C	0.946654	-0.113908	-0.004964
H104	H	0.840923	-0.017774	0.018816
H105	H	0.858558	-0.020967	0.102933
H106	H	0.845905	-0.155589	-0.044050
H107	H	0.863554	-0.158806	0.040045
H108	H	0.970092	-0.085059	0.047168
H109	H	0.952449	-0.081864	-0.036947
H110	H	0.969881	-0.166107	-0.033949
H111	H	1.047076	-0.330740	0.652010
C112	C	1.324567	0.087555	0.717728
C113	C	1.282168	0.143246	0.784921
C114	C	1.327916	0.212497	0.831005
H115	H	1.366657	0.070028	0.737955
H116	H	1.342262	0.114291	0.683180
H117	H	1.264485	0.116514	0.819464
H118	H	1.240081	0.160795	0.764718
H119	H	1.345610	0.239233	0.796458
H120	H	1.370003	0.194962	0.851227
H121	H	1.299153	0.250295	0.876597
C122	C	1.344589	-0.593886	-0.115721
C123	C	1.406538	-0.623349	-0.089380
C124	C	1.452585	-0.669280	-0.158325
H125	H	1.316048	-0.639634	-0.153681
H126	H	1.362355	-0.559300	-0.142390
H127	H	1.388772	-0.657933	-0.062724
H128	H	1.435097	-0.577618	-0.051429
H129	H	1.470352	-0.634694	-0.184995
H130	H	1.424039	-0.715024	-0.196281
H131	H	1.494627	-0.689270	-0.140462
C132	C	0.721406	0.019053	-0.017482
C133	C	0.800769	0.023434	-0.021810
C134	C	0.823646	0.069421	-0.067514
H135	H	0.702240	-0.007317	-0.072101
H136	H	0.702264	0.073655	0.009083
H137	H	0.819903	-0.031158	-0.048377
H138	H	0.819954	0.049811	0.032796
H139	H	0.804504	0.124023	-0.040948
H140	H	0.804475	0.043047	-0.122130
H141	H	0.877495	0.072406	-0.070450
C142	C	1.226102	-0.829377	0.062578
C143	C	1.298850	-0.792472	0.072618
C144	C	1.344898	-0.838258	0.003616
H145	H	1.229250	-0.884761	0.057942
H146	H	1.204846	-0.830072	0.013592
H147	H	1.320101	-0.791786	0.121590
H148	H	1.295726	-0.737092	0.077243
H149	H	1.323642	-0.838953	-0.045370
H150	H	1.348040	-0.893641	-0.001014
H151	H	1.394261	-0.813220	0.010415
C152	C	1.317360	0.076321	0.420720
C153	C	1.296153	0.044322	0.337407
C154	C	1.328998	0.093699	0.299316
H155	H	1.300345	0.131695	0.448774
H156	H	1.371046	0.076135	0.423330
H157	H	1.242479	0.044518	0.334802
H158	H	1.313168	-0.011046	0.309330
H159	H	1.382684	0.093513	0.301926
H160	H	1.311981	0.149071	0.327377
H161	H	1.314620	0.071991	0.242783
C162	C	1.317375	-0.419104	-0.075082
C163	C	1.360400	-0.477262	-0.139730
C164	C	1.393390	-0.439472	-0.189303
H165	H	1.278643	-0.399377	-0.097817
H166	H	1.349313	-0.373749	-0.042118
H167	H	1.328465	-0.522602	-0.172690
H168	H	1.399144	-0.496994	-0.117019
H169	H	1.425328	-0.394117	-0.156339
H170	H	1.354653	-0.419746	-0.212032
H171	H	1.422592	-0.478924	-0.233168
H172	H	1.046897	-0.650394	0.331835
H173	H	1.126385	-0.459767	0.212135
H174	H	0.443020	0.002799	-0.001378
H175	H	0.664588	-0.239106	0.239524
C176	C	1.061602	-0.812681	0.309875
C177	C	1.018610	-0.754506	0.374546
C178	C	0.985689	-0.792266	0.424178
H179	H	1.029651	-0.858043	0.276984
H180	H	1.100391	-0.832383	0.332578
H181	H	0.979826	-0.734816	0.351843
H182	H	1.050543	-0.709142	0.407457
H183	H	1.024477	-0.811968	0.446882
H184	H	0.953742	-0.837627	0.391280
H185	H	0.956520	-0.752799	0.468068
C186	C	1.123214	-0.216310	0.438648
C187	C	1.192534	-0.231408	0.394286
C188	C	1.179685	-0.251006	0.310361
H189	H	1.091214	-0.264592	0.416580
H190	H	1.099486	-0.171068	0.433879
H191	H	1.216250	-0.276646	0.399051
H192	H	1.224544	-0.183136	0.416329
H193	H	1.155957	-0.205764	0.305591
H194	H	1.147684	-0.299286	0.288301
H195	H	1.226716	-0.261245	0.280252
C196	C	0.790147	-0.271415	0.271781
C197	C	0.710785	-0.275771	0.276140
C198	C	0.687912	-0.321675	0.321928
H199	H	0.809260	-0.326024	0.245283
H200	H	0.809345	-0.244977	0.326393
H201	H	0.691595	-0.302211	0.221539
H202	H	0.691652	-0.221176	0.302645
H203	H	0.707110	-0.295237	0.376540
H204	H	0.707030	-0.376281	0.295425
H205	H	0.634063	-0.324630	0.324898
C206	C	0.951378	-0.244306	0.244811
C207	C	0.914960	-0.287326	0.287696
C208	C	0.969421	-0.320283	0.320612
H209	H	0.982189	-0.281414	0.200885
H210	H	0.982209	-0.200364	0.281991
H211	H	0.884141	-0.331262	0.250519
H212	H	0.884153	-0.250235	0.331634
H213	H	1.000253	-0.276341	0.357792
H214	H	1.000229	-0.357388	0.276681
H215	H	0.944720	-0.349469	0.349720
H216	H	0.878832	-0.092205	0.093275
H217	H	0.500842	-0.140330	0.141145
H218	H	1.165548	-0.152268	0.416517
H219	H	1.252515	-0.772045	0.022606
H220	H	1.066927	-0.300838	0.530225
H221	H	1.213628	-0.079873	0.818870
H222	H	1.312167	-0.703226	-0.067168
C223	C	1.256173	-0.015990	0.796649
C224	C	1.291167	-0.082791	0.803398
C225	C	1.304223	-0.063356	0.887249
H226	H	1.288239	0.032240	0.818694
H227	H	1.209217	-0.005735	0.826906
H228	H	1.338116	-0.093035	0.773154
H229	H	1.259113	-0.131028	0.781372
H230	H	1.257267	-0.053102	0.917506
H231	H	1.336287	-0.015125	0.909287
H232	H	1.327961	-0.108680	0.891840
C233	C	1.344424	0.117458	0.595936
C234	C	1.302031	0.173152	0.663134
C235	C	1.347786	0.242397	0.709217
H236	H	1.386511	0.099925	0.616159
H237	H	1.362120	0.144194	0.561389
H238	H	1.284346	0.146420	0.697675
H239	H	1.259945	0.190708	0.642935
H240	H	1.365482	0.269133	0.674671
H241	H	1.389872	0.224855	0.729434
H242	H	1.319028	0.280197	0.754812
