data_functionalizedCrystal
_audit_creation_method	'MofGen! by Chris Wilmer'
_symmetry_space_group_name_H-M	'P1'
_symmetry_Int_Tables_number	1
_symmetry_cell_setting	triclinic
loop_
_symmetry_equiv_pos_as_xyz
  x,y,z
_cell_length_a	15.944551
_cell_length_b	15.944493
_cell_length_c	15.021413
_cell_angle_alpha	89.995554
_cell_angle_beta	89.990496
_cell_angle_gamma	83.486891
loop_
_atom_site_label
_atom_site_type_symbol
_atom_site_fract_x
_atom_site_fract_y
_atom_site_fract_z
O1	O	0.108105	1.114555	-0.074022
O2	O	0.121512	0.869998	-0.074027
O3	O	-0.007468	0.998955	-0.074016
O4	O	0.237084	0.985598	-0.074033
O5	O	-0.007481	0.998943	0.074048
O6	O	0.121499	0.869987	0.074037
O7	O	0.108092	1.114543	0.074042
Zn8	Zn	0.114793	0.992263	0.097548
Zn9	Zn	0.114810	0.992278	-0.097533
O10	O	0.237071	0.985587	0.074032
C11	C	0.120957	0.838698	0.000005
C12	C	0.119314	0.745449	0.000003
C13	C	0.195235	0.509689	-0.000002
C14	C	0.154287	0.459125	0.073008
C15	C	0.116270	0.574728	0.000005
C16	C	0.154282	0.459141	-0.072972
C17	C	0.113336	0.409819	0.000003
C18	C	0.075344	0.525393	0.073075
C19	C	0.075350	0.525412	-0.072970
C20	C	0.034345	0.474880	0.000058
C21	C	0.117963	0.669728	0.000007
C22	C	0.111637	0.314821	0.000008
C23	C	-0.038768	0.998395	0.000016
C24	C	-0.132014	0.996732	0.000016
C25	C	-0.346853	0.912826	0.000003
C26	C	-0.407885	0.951783	0.073008
C27	C	-0.302739	0.993725	0.000010
C28	C	-0.407856	0.951814	-0.072972
C29	C	-0.467651	0.990814	-0.000001
C30	C	-0.362543	1.032705	0.073075
C31	C	-0.362507	1.032724	-0.072970
C32	C	-0.423521	1.071741	0.000053
C33	C	-0.207737	0.995399	0.000016
C34	C	-0.562652	0.989146	-0.000001
C35	C	0.268372	0.986147	-0.000003
C36	C	0.361617	0.987809	-0.000009
C37	C	0.108646	1.145844	0.000009
C38	C	0.110289	1.239092	0.000004
N39	N	0.114781	0.992259	0.230686
N40	N	0.114816	0.992289	-0.230670
C41	C	0.054667	1.051442	0.529682
C42	C	0.130334	1.068430	0.470310
C43	C	0.114806	0.992279	0.587723
C44	C	0.039129	0.975321	0.470352
C45	C	0.114789	0.992272	0.412299
C46	C	0.190511	1.009305	0.529658
C47	C	0.099256	0.916163	0.529705
C48	C	0.174978	0.933119	0.470360
C49	C	0.114814	0.992286	0.688780
C50	C	0.114790	0.992265	0.311243
H51	H	0.187651	0.430207	-0.134688
H52	H	-0.033726	0.459415	0.000105
C53	C	-0.467779	1.161346	-0.000097
C54	C	-0.517702	1.174018	-0.076643
C55	C	-0.558465	1.256558	-0.076822
H56	H	-0.502508	1.169858	0.051228
H57	H	-0.426829	1.200231	0.000364
H58	H	-0.558647	1.135145	-0.077097
H59	H	-0.482993	1.165524	-0.127981
H60	H	-0.517515	1.295444	-0.076360
H61	H	-0.593190	1.265063	-0.025493
H62	H	-0.592336	1.265170	-0.128761
H63	H	0.143485	1.132796	0.444221
H64	H	0.254519	1.023714	0.555599
H65	H	-0.342378	1.066916	-0.134692
H66	H	-0.342565	1.066889	0.134863
H67	H	-0.427920	0.917591	-0.134696
C68	C	0.081746	0.830410	0.564701
C69	C	0.082779	0.831344	0.657897
C70	C	0.066654	0.752361	0.690167
H71	H	0.027939	0.818360	0.544529
H72	H	0.123929	0.788246	0.543557
H73	H	0.040599	0.873495	0.679033
H74	H	0.136580	0.843379	0.678093
H75	H	0.108837	0.710197	0.669023
H76	H	0.012846	0.740317	0.669989
H77	H	0.067360	0.752982	0.753403
C78	C	0.242977	0.866503	0.435888
C79	C	0.322009	0.884652	0.466083
C80	C	0.384672	0.823316	0.434333
H81	H	0.232507	0.812539	0.457105
H82	H	0.242351	0.866560	0.372645
H83	H	0.322634	0.884587	0.529313
H84	H	0.332506	0.938605	0.444868
H85	H	0.384045	0.823372	0.371090
H86	H	0.374194	0.769356	0.455552
H87	H	0.438303	0.835626	0.454809
C88	C	0.031076	0.563971	-0.155373
C89	C	0.072728	0.530255	-0.231610
C90	C	0.031982	0.565767	-0.307543
H91	H	-0.025769	0.551473	-0.156021
H92	H	0.032042	0.623433	-0.154526
H93	H	0.071753	0.470806	-0.232457
H94	H	0.129571	0.542751	-0.230992
H95	H	0.032948	0.625230	-0.306696
H96	H	-0.024862	0.553267	-0.308182
H97	H	0.060242	0.542902	-0.359279
C98	C	-0.302460	0.823274	0.000276
C99	C	-0.325312	0.781299	0.076894
C100	C	-0.284424	0.698810	0.077186
H101	H	-0.318589	0.794148	-0.051000
H102	H	-0.243086	0.824920	-0.000206
H103	H	-0.384673	0.779648	0.077368
H104	H	-0.309182	0.810400	0.128182
H105	H	-0.225050	0.700456	0.076704
H106	H	-0.300557	0.669692	0.025907
H107	H	-0.299917	0.670322	0.129174
C108	C	0.030745	0.563788	0.155392
C109	C	-0.053196	0.545823	0.155477
C110	C	-0.094306	0.581189	0.231286
H111	H	0.058488	0.540551	0.207235
H112	H	0.032044	0.623210	0.154906
H113	H	-0.054491	0.486413	0.155971
H114	H	-0.080962	0.569061	0.103651
H115	H	-0.093007	0.640612	0.230800
H116	H	-0.066557	0.557949	0.283123
H117	H	-0.151266	0.569012	0.231350
C118	C	0.285941	0.530490	0.000266
C119	C	0.326901	0.496793	0.076884
C120	C	0.410453	0.515949	0.077172
H121	H	0.314371	0.506821	-0.051010
H122	H	0.286401	0.590020	-0.000219
H123	H	0.326446	0.437275	0.077361
H124	H	0.298496	0.520456	0.128172
H125	H	0.410913	0.575479	0.076687
H126	H	0.438875	0.492279	0.025893
H127	H	0.438253	0.493095	0.129160
C128	C	0.198678	0.420365	0.155262
C129	C	0.195831	0.332924	0.154571
C130	C	0.236714	0.297191	0.230327
H131	H	0.255826	0.431919	0.155253
H132	H	0.171180	0.443881	0.207135
H133	H	0.223332	0.309416	0.102712
H134	H	0.138694	0.321347	0.154593
H135	H	0.209215	0.320707	0.282200
H136	H	0.293859	0.308751	0.230311
H137	H	0.234781	0.237860	0.229873
C138	C	-0.434876	0.906220	0.155268
C139	C	-0.522656	0.905961	0.154581
C140	C	-0.547548	0.864000	0.230346
H141	H	-0.408451	0.849745	0.155268
H142	H	-0.418653	0.934420	0.207135
H143	H	-0.538871	0.877759	0.102728
H144	H	-0.549103	0.962424	0.154595
H145	H	-0.531325	0.892200	0.282213
H146	H	-0.521117	0.807528	0.230339
H147	H	-0.607109	0.863825	0.229894
C148	C	-0.012958	1.118327	0.564372
C149	C	0.003721	1.197884	0.534293
C150	C	-0.058546	1.259520	0.566242
H151	H	-0.066649	1.106929	0.543216
H152	H	-0.012807	1.117579	0.627614
H153	H	0.003562	1.198631	0.471064
H154	H	0.057400	1.209309	0.555447
H155	H	-0.058395	1.258772	0.629484
H156	H	-0.112232	1.248114	0.545083
H157	H	-0.047233	1.313507	0.545845
C158	C	-0.046278	0.956313	0.435738
C159	C	-0.108982	1.018445	0.465816
C160	C	-0.187671	1.000964	0.433959
H161	H	-0.045627	0.955957	0.372507
H162	H	-0.057778	0.902665	0.456974
H163	H	-0.097485	1.072080	0.444575
H164	H	-0.109660	1.018811	0.529043
H165	H	-0.199171	0.947316	0.455195
H166	H	-0.187012	1.000608	0.370729
H167	H	-0.230226	1.043113	0.454369
