data_functionalizedCrystal
_audit_creation_method	'MofGen! by Chris Wilmer'
_symmetry_space_group_name_H-M	'P1'
_symmetry_Int_Tables_number	1
_symmetry_cell_setting	triclinic
loop_
_symmetry_equiv_pos_as_xyz
  x,y,z
_cell_length_a	15.944551
_cell_length_b	8.559649
_cell_length_c	14.421503
_cell_angle_alpha	90.006501
_cell_angle_beta	89.996660
_cell_angle_gamma	76.638701
loop_
_atom_site_label
_atom_site_type_symbol
_atom_site_fract_x
_atom_site_fract_y
_atom_site_fract_z
O1	O	-0.028507	2.120135	0.077101
O2	O	0.014872	1.654935	0.077106
O3	O	-0.129913	1.900239	0.077095
O4	O	0.116277	1.874832	0.077112
O5	O	-0.129891	1.900198	-0.077128
O6	O	0.014893	1.654895	-0.077118
O7	O	-0.028486	2.120094	-0.077122
Cu8	Cu	-0.006794	1.887491	-0.091202
Cu9	Cu	-0.006820	1.887539	0.091185
O10	O	0.116299	1.874791	-0.077112
C11	C	-0.161128	1.899164	-0.000017
C12	C	-0.254170	1.896001	-0.000017
C13	C	0.018170	1.595386	-0.000005
C14	C	0.027955	1.418007	-0.000004
C15	C	-0.031784	2.179644	-0.000009
C16	C	-0.041569	2.357023	-0.000005
C17	C	-0.458726	1.736393	-0.000003
C18	C	-0.524515	1.810490	-0.076045
C19	C	-0.424526	1.890281	-0.000010
C20	C	-0.524523	1.810566	0.076007
C21	C	-0.589082	1.884744	0.000001
C22	C	-0.489091	1.964420	-0.076115
C23	C	-0.489090	1.964475	0.076005
C24	C	-0.554870	2.038684	-0.000056
C25	C	-0.329730	1.893466	-0.000017
C26	C	-0.683878	1.881570	0.000001
C27	C	0.147514	1.875866	0.000002
C28	C	0.240555	1.879028	0.000009
N29	N	-0.006777	1.887468	-0.219483
C30	C	0.060145	1.774020	-0.469132
C31	C	0.067135	1.918403	-0.530935
C32	C	-0.006800	1.887507	-0.408644
C33	C	-0.013772	1.743162	-0.530936
C34	C	-0.006819	1.887532	-0.591366
C35	C	0.000222	2.031963	-0.469087
C36	C	-0.080711	1.856627	-0.469082
C37	C	-0.073761	2.001114	-0.530857
C38	C	-0.006787	1.887491	-0.303383
C39	C	-0.006834	1.887565	-0.696625
N40	N	-0.006844	1.887574	0.219467
H41	H	-0.417174	1.608659	-0.000078
H42	H	-0.473288	2.029437	-0.140474
N43	N	-0.544481	1.728934	0.156655
N44	N	-0.619793	1.714485	0.169913
H45	H	-0.633887	1.656825	0.226868
N46	N	-0.021176	1.590013	-0.565000
N47	N	-0.085330	1.536620	-0.544065
H48	H	-0.090553	1.428453	-0.568119
N49	N	0.112015	2.313260	-0.000007
N50	N	0.134436	2.215963	-0.065012
H51	H	0.193805	2.141975	-0.065016
H52	H	-0.540414	1.745384	-0.140332
H53	H	-0.596279	2.166530	-0.000100
N54	N	-0.125633	2.461779	-0.000005
N55	N	-0.133734	2.610558	-0.000009
H56	H	-0.193103	2.684545	-0.000008
N57	N	0.131213	1.653750	-0.435140
N58	N	0.206646	1.660232	-0.454991
H59	H	0.256838	1.575296	-0.430985
H60	H	-0.473166	2.029524	0.140295
H61	H	0.129630	1.944545	-0.558103
H62	H	-0.143183	1.830440	-0.441892
N63	N	0.007699	2.185143	-0.435142
N64	N	0.008942	2.209836	-0.349780
H65	H	0.014223	2.318017	-0.325803
H66	H	-0.130392	2.097202	-0.557789
