data_functionalizedCrystal
_audit_creation_method	'MofGen! by Chris Wilmer'
_symmetry_space_group_name_H-M	'P1'
_symmetry_Int_Tables_number	1
_symmetry_cell_setting	triclinic
loop_
_symmetry_equiv_pos_as_xyz
  x,y,z
_cell_length_a	17.699104
_cell_length_b	17.699092
_cell_length_c	9.730223
_cell_angle_alpha	90.000361
_cell_angle_beta	89.998915
_cell_angle_gamma	83.288943
loop_
_atom_site_label
_atom_site_type_symbol
_atom_site_fract_x
_atom_site_fract_y
_atom_site_fract_z
O1	O	1.004064	0.095783	-0.114313
O2	O	1.504064	0.595783	0.385687
O3	O	0.783688	0.108219	-0.114309
O4	O	1.283688	0.608219	0.385691
O5	O	0.900099	-0.008188	-0.114308
O6	O	1.400099	0.491812	0.385692
O7	O	0.887654	0.212189	-0.114314
O8	O	1.387654	0.712189	0.385686
O9	O	0.900098	-0.008185	0.114272
O10	O	1.400098	0.491815	0.614272
O11	O	0.783687	0.108221	0.114271
O12	O	1.283687	0.608221	0.614271
O13	O	1.004063	0.095786	0.114267
O14	O	1.504063	0.595786	0.614267
Zn15	Zn	0.893875	0.102004	0.150561
Zn16	Zn	1.393875	0.602004	0.650561
Zn17	Zn	0.893877	0.102000	-0.150603
Zn18	Zn	1.393877	0.602000	0.349397
O19	O	0.887652	0.212192	0.114266
O20	O	1.387652	0.712192	0.614266
C21	C	0.755491	0.107772	-0.000018
C22	C	1.255491	0.607772	0.499982
C23	C	0.671474	0.106427	-0.000017
C24	C	1.171474	0.606427	0.499983
C25	C	0.899652	-0.036383	-0.000020
C26	C	1.399652	0.463617	0.499980
C27	C	0.898311	-0.120401	-0.000026
C28	C	1.398311	0.379599	0.499974
C29	C	0.146605	0.167170	-0.000033
C30	C	0.646605	0.667170	0.499967
C31	C	0.225548	0.168430	-0.000037
C32	C	0.725548	0.668430	0.499963
C33	C	0.274164	0.100095	-0.000035
C34	C	0.774164	0.600095	0.499965
C35	C	0.243832	0.030496	-0.000042
C36	C	0.743832	0.530496	0.499958
C37	C	0.164890	0.029238	-0.000048
C38	C	0.664890	0.529238	0.499952
C39	C	0.562198	0.035569	-0.000021
C40	C	1.062198	0.535569	0.499979
C41	C	0.641145	0.036833	-0.000011
C42	C	1.141145	0.536833	0.499989
C43	C	0.622857	0.174761	-0.000009
C44	C	1.122857	0.674761	0.499991
C45	C	0.543915	0.173503	-0.000015
C46	C	1.043915	0.673503	0.499985
C47	C	0.513590	0.103905	-0.000030
C48	C	1.013590	0.603905	0.499970
C49	C	0.427990	0.102540	-0.000028
C50	C	0.927990	0.602540	0.499972
C51	C	0.359762	0.101458	-0.000026
C52	C	0.859762	0.601458	0.499974
C53	C	0.897683	-0.159870	-0.124626
C54	C	1.397683	0.340130	0.375374
C55	C	0.896418	-0.238813	-0.124628
C56	C	1.396418	0.261187	0.375372
C57	C	0.895786	-0.278286	-0.000028
C58	C	1.395786	0.221714	0.499972
C59	C	0.896412	-0.238812	0.124582
C60	C	1.396412	0.261188	0.624582
C61	C	0.897671	-0.159869	0.124583
C62	C	1.397671	0.340131	0.624583
C63	C	0.891331	-0.557177	0.124584
C64	C	1.391331	-0.057177	0.624584
C65	C	0.890074	-0.636125	0.124575
C66	C	1.390074	-0.136125	0.624575
C67	C	0.890078	-0.636121	-0.124626
C68	C	1.390078	-0.136121	0.375374
C69	C	0.891338	-0.557179	-0.124626
C70	C	1.391338	-0.057179	0.375374
C71	C	0.891959	-0.517710	-0.000017
C72	C	1.391959	-0.017710	0.499983
C73	C	0.893329	-0.432111	-0.000017
C74	C	1.393329	0.067889	0.499983
C75	C	0.894421	-0.363885	-0.000027
C76	C	1.394421	0.136115	0.499973
C77	C	1.032260	0.096232	-0.000026
C78	C	1.532260	0.596232	0.499974
C79	C	1.116278	0.097577	-0.000036
C80	C	1.616278	0.597577	0.499964
C81	C	0.888100	0.240387	-0.000025
C82	C	1.388100	0.740387	0.499975
C83	C	0.889441	0.324405	-0.000027
C84	C	1.389441	0.824405	0.499973
N85	N	0.893879	0.102006	0.356098
N86	N	1.393879	0.602006	0.856098
N87	N	0.893878	0.101992	-0.356139
N88	N	1.393878	0.601992	0.143861
C89	C	0.945439	0.050479	0.428024
C90	C	1.445439	0.550479	0.928024
C91	C	0.945437	0.050470	0.571907
C92	C	1.445437	0.550470	1.071907
C93	C	0.842313	0.153522	0.571925
C94	C	1.342313	0.653522	1.071925
C95	C	0.842312	0.153527	0.428044
C96	C	1.342312	0.653527	0.928044
C97	C	1.004979	-0.009016	0.428015
C98	C	1.504979	0.490984	0.928015
C99	C	1.004977	-0.009025	0.571898
C100	C	1.504977	0.490975	1.071898
H101	H	0.250236	0.225099	-0.000047
H102	H	0.750236	0.725099	0.499953
N103	N	1.077513	0.014640	0.368884
N104	N	1.577513	0.514640	0.868884
H105	H	1.112560	0.026065	0.446140
H106	H	1.612560	0.526065	0.946140
H107	H	1.103330	-0.027949	0.310425
H108	H	1.603330	0.472051	0.810425
N109	N	0.981409	-0.081601	0.631017
N110	N	1.481409	0.418399	1.131017
H111	H	0.970020	-0.116661	0.553755
H112	H	1.470020	0.383339	1.053755
H113	H	1.024029	-0.107374	0.689452
H114	H	1.524029	0.392626	1.189452
N115	N	0.655559	0.249833	-0.000009
N116	N	1.155559	0.749833	0.499991
H117	H	0.687904	0.253432	0.084725
H118	H	1.187904	0.753432	0.584725
H119	H	0.687866	0.253389	-0.084800
H120	H	1.187866	0.753389	0.415200
N121	N	0.529494	-0.039493	-0.000021
N122	N	1.029494	0.460507	0.499979
H123	H	0.547237	-0.069427	-0.084749
H124	H	1.047237	0.430573	0.415251
H125	H	0.547237	-0.069358	0.084776
H126	H	1.047237	0.430642	0.584776
H127	H	0.992668	-0.067060	0.388963
H128	H	1.492668	0.432940	0.888963
H129	H	1.063007	0.003335	0.610948
H130	H	1.563007	0.503335	1.110948
H131	H	0.504335	0.229148	-0.000010
H132	H	1.004335	0.729148	0.499990
N133	N	0.892010	-0.514614	0.258978
N134	N	1.392010	-0.014614	0.758978
H135	H	0.891425	-0.551602	0.337907
H136	H	1.391425	-0.051602	0.837907
H137	H	0.939435	-0.488080	0.264399
H138	H	1.439435	0.011920	0.764399
H139	H	0.107027	0.222817	-0.000024
H140	H	0.607027	0.722817	0.499976
H141	H	0.283421	-0.025143	-0.000049
H142	H	0.783421	0.474857	0.499951
H143	H	0.891856	-0.525044	-0.226088
H144	H	1.391856	-0.025044	0.273912
H145	H	0.680728	-0.018817	-0.000012
H146	H	1.180728	0.481183	0.499988
N147	N	0.889415	-0.678694	-0.259029
N148	N	1.389415	-0.178694	0.240971
H149	H	0.890017	-0.641709	-0.337960
H150	H	1.390017	-0.141709	0.162040
H151	H	0.935799	-0.717659	-0.264431
H152	H	1.435799	-0.217659	0.235569
H153	H	0.140199	-0.027432	-0.000054
H154	H	0.640199	0.472568	0.499946
N155	N	0.898371	-0.117299	-0.259018
N156	N	1.398371	0.382701	0.240982
H157	H	0.897781	-0.154284	-0.337951
H158	H	1.397781	0.345716	0.162049
H159	H	0.851994	-0.078327	-0.264448
H160	H	1.351994	0.421673	0.235552
H161	H	0.895910	-0.270946	-0.226090
H162	H	1.395910	0.229054	0.273910
N163	N	0.889393	-0.678703	0.258971
N164	N	1.389393	-0.178703	0.758971
H165	H	0.889976	-0.641721	0.337911
H166	H	1.389976	-0.141721	0.837911
H167	H	0.841972	-0.705242	0.264388
H168	H	1.341972	-0.205242	0.764388
H169	H	0.895892	-0.270956	0.226034
H170	H	1.395892	0.229044	0.726034
N171	N	0.898344	-0.117294	0.258972
N172	N	1.398344	0.382706	0.758972
H173	H	0.897754	-0.154278	0.337907
H174	H	1.397754	0.345722	0.837907
H175	H	0.945766	-0.090756	0.264403
H176	H	1.445766	0.409244	0.764403
H177	H	0.800322	0.195478	0.369483
H178	H	1.300322	0.695478	0.869483
N179	N	0.786695	0.209086	0.649524
N180	N	1.286695	0.709086	1.149524
H181	H	0.794516	0.201264	0.751586
H182	H	1.294516	0.701264	1.251586
H183	H	0.795333	0.262772	0.624386
H184	H	1.295333	0.762772	1.124386
