data_functionalizedCrystal
_audit_creation_method	'MofGen! by Chris Wilmer'
_symmetry_space_group_name_H-M	'P1'
_symmetry_Int_Tables_number	1
_symmetry_cell_setting	triclinic
loop_
_symmetry_equiv_pos_as_xyz
  x,y,z
_cell_length_a	10.489711
_cell_length_b	10.489741
_cell_length_c	7.681187
_cell_angle_alpha	84.210436
_cell_angle_beta	95.791241
_cell_angle_gamma	84.533091
loop_
_atom_site_label
_atom_site_type_symbol
_atom_site_fract_x
_atom_site_fract_y
_atom_site_fract_z
O1	O	1.706029	0.167819	0.146497
O2	O	1.334828	0.184752	0.146487
O3	O	1.528874	-0.009312	0.146482
O4	O	1.511983	0.361884	0.146502
O5	O	1.504960	0.014608	-0.146388
O6	O	1.310914	0.208672	-0.146383
O7	O	1.682116	0.191739	-0.146372
Zn8	Zn	1.492718	0.204004	-0.192877
Zn9	Zn	1.524225	0.172488	0.192992
O10	O	1.488069	0.385804	-0.146367
C11	C	1.275339	0.195442	0.000051
C12	C	1.133707	0.191640	0.000046
C13	C	0.951323	0.308342	0.000073
C14	C	1.055258	0.238253	0.144467
C15	C	1.031654	0.261806	-0.144279
C16	C	0.985318	0.114700	0.144597
C17	C	0.961694	0.138280	-0.144279
C18	C	1.065605	0.068098	0.000150
C19	C	1.515642	-0.044884	0.000048
C20	C	1.511825	-0.186513	0.000051
C21	C	1.388359	-0.254641	0.000061
C22	C	1.434893	-0.334976	-0.144338
C23	C	1.458499	-0.358534	0.144409
C24	C	1.558399	-0.264973	-0.144466
C25	C	1.581999	-0.288532	0.144410
C26	C	1.628620	-0.368837	-0.000024
C27	C	1.741605	0.181049	0.000068
C28	C	1.883238	0.184850	0.000084
C29	C	1.501302	0.421375	0.000070
C30	C	1.505120	0.563003	0.000079
N31	N	1.471224	0.225512	-0.456222
N32	N	1.545729	0.150970	0.456337
H33	H	1.115068	-0.033502	0.000217
H34	H	1.052642	0.324049	-0.266355
N35	N	1.375839	0.320945	-0.550565
N36	N	1.259566	0.316474	-0.530141
H37	H	1.192195	0.383874	-0.596779
H38	H	1.286834	-0.204967	-0.000088
H39	H	1.372683	-0.356011	-0.266419
H40	H	1.621749	0.074886	-0.468420
H41	H	1.600616	-0.224165	-0.266681
H42	H	1.730218	-0.418265	-0.000101
H43	H	0.901644	0.409831	0.000222
N44	N	1.106626	0.291303	0.297616
N45	N	1.067559	0.403454	0.323356
H46	H	1.103830	0.440929	0.431513
N47	N	0.910278	0.085300	-0.297447
N48	N	0.920087	0.139615	-0.447274
H49	H	0.883772	0.102208	-0.555464
H50	H	1.416211	-0.399464	0.266498
N51	N	0.959179	0.036678	0.297900
N52	N	0.845456	0.021151	0.322684
H53	H	0.826990	-0.033951	0.430953
N54	N	1.659981	-0.262113	0.297578
N55	N	1.630144	-0.296408	0.447405
H56	H	1.685212	-0.277749	0.555596
