data_functionalizedCrystal
_audit_creation_method	'MofGen! by Chris Wilmer'
_symmetry_space_group_name_H-M	'P1'
_symmetry_Int_Tables_number	1
_symmetry_cell_setting	triclinic
loop_
_symmetry_equiv_pos_as_xyz
  x,y,z
_cell_length_a	17.038272
_cell_length_b	17.038272
_cell_length_c	15.500235
_cell_angle_alpha	93.045329
_cell_angle_beta	86.969189
_cell_angle_gamma	91.111556
loop_
_atom_site_label
_atom_site_type_symbol
_atom_site_fract_x
_atom_site_fract_y
_atom_site_fract_z
O1	O	1.052145	0.167125	-0.071836
O2	O	0.824335	0.164416	-0.071862
O3	O	0.936886	0.051865	-0.071842
O4	O	0.939594	0.279676	-0.071856
O5	O	0.930084	0.058694	0.072045
O6	O	0.817533	0.171245	0.072026
O7	O	1.045343	0.173954	0.072051
Cu8	Cu	0.930817	0.173223	0.085177
Cu9	Cu	0.938861	0.165147	-0.084987
O10	O	0.932792	0.286505	0.072032
C11	C	0.791641	0.165368	0.000079
C12	C	0.704358	0.158019	0.000069
C13	C	0.658749	0.225483	0.000066
C14	C	0.576737	0.218574	0.000078
C15	C	0.540335	0.144201	0.000088
C16	C	0.585950	0.076733	0.000094
C17	C	0.667961	0.083642	0.000088
C18	C	0.292946	0.119792	0.000112
C19	C	0.210929	0.112887	0.000116
C20	C	0.201721	0.254729	0.000102
C21	C	0.283734	0.261632	0.000091
C22	C	0.329342	0.194164	0.000101
C23	C	0.456505	0.137138	0.000098
C24	C	0.413170	0.201228	0.000098
C25	C	0.931022	0.025987	0.000101
C26	C	0.923674	-0.061297	0.000100
C27	C	0.991137	-0.106906	0.000108
C28	C	0.984229	-0.188918	0.000100
C29	C	0.909856	-0.225320	0.000088
C30	C	0.842388	-0.179705	0.000077
C31	C	0.849297	-0.097694	0.000080
C32	C	0.885446	-0.472708	0.000074
C33	C	0.878541	-0.554725	0.000074
C34	C	1.020383	-0.563932	0.000094
C35	C	1.027286	-0.481919	0.000102
C36	C	0.959818	-0.436312	0.000087
C37	C	0.902792	-0.309149	0.000082
C38	C	0.966882	-0.352484	0.000087
C39	C	1.078037	0.173003	0.000109
C40	C	1.165320	0.180351	0.000113
C41	C	0.938656	0.312383	0.000087
C42	C	0.946004	0.399667	0.000082
N43	N	0.925165	0.178904	0.204860
N44	N	0.944519	0.159461	-0.204671
C45	C	0.896814	0.207138	0.750043
C46	C	0.901107	0.202859	0.659471
C47	C	0.953109	0.150905	0.614187
C48	C	1.000815	0.103222	0.659479
C49	C	0.996518	0.107498	0.750050
C50	C	0.968574	0.135497	0.340723
C51	C	0.972869	0.131226	0.250146
C52	C	0.873160	0.230862	0.250144
C53	C	0.868871	0.235138	0.340717
C54	C	0.916574	0.187452	0.386001
C55	C	0.957500	0.146531	0.521608
C56	C	0.912179	0.191822	0.478579
H57	H	0.164579	0.309658	0.000096
H58	H	0.826527	0.277442	0.377585
O59	O	1.020041	0.084086	0.389562
H60	H	1.056933	0.047254	0.342854
H61	H	0.556305	0.016177	0.000114
H62	H	0.781832	-0.209350	0.000063
O63	O	0.342126	0.047022	0.000122
H64	H	0.382482	0.043989	-0.058520
O65	O	0.417240	0.056923	0.000101
H66	H	0.432420	0.027026	0.058750
H67	H	1.015218	0.088917	0.213280
O68	O	1.093146	-0.613127	0.000108
H69	H	1.146022	-0.574036	0.000123
H70	H	1.051699	-0.077273	0.000123
O71	O	1.107500	-0.442654	0.000114
H72	H	1.116807	-0.408283	-0.058527
H73	H	0.705095	0.028706	0.000090
O74	O	1.056881	0.047160	0.610644
H75	H	1.051853	0.052192	0.540056
H76	H	0.862262	0.241681	0.622600
H77	H	0.842237	-0.338796	0.000075
O78	O	0.698010	0.305700	0.000064
H79	H	0.652513	0.351450	0.000076
H80	H	0.817974	-0.584359	0.000078
H81	H	0.869836	0.234120	0.515452
O82	O	0.821709	0.282287	0.201297
H83	H	0.784832	0.319135	0.248003
O84	O	0.812680	-0.423520	0.000079
H85	H	0.759805	-0.462613	0.000086
H86	H	0.442811	0.261782	0.000095
H87	H	1.039164	-0.226049	0.000108
O88	O	1.047980	0.056081	0.798895
H89	H	1.034741	-0.006635	0.781487
O90	O	0.776530	-0.048502	0.000075
H91	H	0.793829	0.014640	0.000070
O92	O	1.047099	-0.313231	0.000095
H93	H	1.050864	-0.273311	0.058746
H94	H	0.999842	0.104230	0.484730
O95	O	0.840740	0.263188	0.798885
H96	H	0.808289	0.295621	0.752174
H97	H	0.539605	0.273510	0.000075
H98	H	0.181294	0.052321	0.000123
O99	O	0.322996	0.341849	0.000103
H100	H	0.277501	0.387603	0.000116
