data_functionalizedCrystal
_audit_creation_method	'MofGen! by Chris Wilmer'
_symmetry_space_group_name_H-M	'P1'
_symmetry_Int_Tables_number	1
_symmetry_cell_setting	triclinic
loop_
_symmetry_equiv_pos_as_xyz
  x,y,z
_cell_length_a	12.759395
_cell_length_b	17.077402
_cell_length_c	17.077396
_cell_angle_alpha	90.029784
_cell_angle_beta	89.983868
_cell_angle_gamma	89.977272
loop_
_atom_site_label
_atom_site_type_symbol
_atom_site_fract_x
_atom_site_fract_y
_atom_site_fract_z
Zn1	Zn	1.606175	0.312511	-0.443765
Zn2	Zn	1.606050	0.443786	-0.312496
Zn3	Zn	1.430483	0.312538	-0.312521
Zn4	Zn	1.430440	0.443739	-0.443727
O5	O	1.518287	0.378144	-0.378127
O6	O	1.753179	0.329934	-0.426357
O7	O	1.582727	0.426407	-0.202652
O8	O	1.453859	0.202688	-0.329957
O9	O	1.753088	0.426381	-0.329915
O10	O	1.582939	0.202668	-0.426381
O11	O	1.453738	0.329979	-0.202670
O12	O	1.283456	0.329933	-0.329920
O13	O	1.453786	0.426300	-0.553579
O14	O	1.283425	0.426326	-0.426317
O15	O	1.582897	0.329888	-0.553607
O16	O	1.582685	0.553627	-0.329878
O17	O	1.453665	0.553592	-0.426293
C18	C	1.245320	0.378128	-0.378118
C19	C	1.128543	0.378140	-0.378132
C20	C	1.128619	0.277872	-0.478720
C21	C	1.073796	0.227748	-0.529021
C22	C	0.964074	0.227762	-0.529030
C23	C	0.909173	0.277904	-0.478733
C24	C	0.963996	0.328028	-0.428432
C25	C	1.073720	0.328011	-0.428430
C26	C	0.963920	0.428291	-0.327841
C27	C	1.073642	0.428282	-0.327834
C28	C	0.909019	0.478433	-0.277544
C29	C	0.963842	0.528563	-0.227246
C30	C	1.073570	0.528548	-0.227239
C31	C	1.128465	0.478407	-0.277534
C32	C	1.518186	0.582092	-0.378096
C33	C	1.518238	0.669341	-0.378109
C34	C	1.518351	0.378086	-0.582872
C35	C	1.518378	0.378061	-0.670121
C36	C	1.792320	0.378160	-0.378137
C37	C	1.909097	0.378167	-0.378142
C38	C	1.518417	0.173399	-0.378176
C39	C	1.518473	0.086150	-0.378197
C40	C	1.585488	0.710324	-0.327959
C41	C	1.585539	0.792304	-0.327979
C42	C	1.518335	0.833301	-0.378145
C43	C	1.451083	0.792313	-0.428300
C44	C	1.451037	0.710334	-0.428284
C45	C	1.451180	0.963183	-0.428330
C46	C	1.451224	1.045167	-0.428346
C47	C	1.585682	1.045153	-0.328026
C48	C	1.585636	0.963174	-0.328009
C49	C	1.518382	0.922192	-0.378163
C50	C	1.585608	0.327855	-0.711127
C51	C	1.585621	0.327829	-0.793108
C52	C	1.518408	0.378013	-0.834081
C53	C	1.451169	0.428222	-0.793069
C54	C	1.451152	0.428243	-0.711090
C55	C	1.451212	0.428174	-0.963940
C56	C	1.451230	0.428154	-1.045924
C57	C	1.585681	0.327760	-1.045957
C58	C	1.585663	0.327782	-0.963978
C59	C	1.518426	0.377991	-0.922972
C60	C	1.518284	0.378145	-0.174179
C61	C	1.518461	0.377948	-0.086930
H62	H	0.919132	0.569381	-0.186295
H63	H	1.640345	0.286992	-0.677773
O64	O	1.658126	0.918957	-0.273904
H65	H	1.611114	0.881668	-0.233926
H66	H	1.396496	0.469017	-1.079282
O67	O	1.658165	0.273662	-0.919782
H68	H	1.640190	0.212046	-0.935520
O69	O	1.658194	0.273596	-1.090177
H70	H	1.646906	0.282001	-1.154066
H71	H	1.640370	0.286948	-0.826491
H72	H	1.640208	0.676949	-0.287105
O73	O	1.378664	0.482344	-0.837258
H74	H	1.425664	0.522281	-0.874598
H75	H	1.396395	0.469118	-0.677704
O76	O	1.378687	0.482322	-0.919707
H77	H	1.331956	0.517219	-0.961969
O78	O	1.658233	1.089348	-0.273936
H79	H	1.646989	1.153240	-0.282381
H80	H	1.217960	0.277852	-0.478714
H81	H	1.118200	0.569363	-0.186276
H82	H	1.640300	0.825668	-0.287142
H83	H	1.396520	1.078545	-0.469210
H84	H	1.118508	0.186922	-0.569970
H85	H	1.396418	0.929818	-0.469174
H86	H	1.217806	0.478386	-0.277529
O87	O	0.790676	0.478444	-0.277551
H88	H	0.761713	0.521725	-0.234122
H89	H	0.919438	0.186941	-0.569985
H90	H	1.396369	0.825699	-0.469150
O91	O	0.790830	0.277915	-0.478733
H92	H	0.761932	0.234637	-0.522159
H93	H	1.396278	0.676967	-0.469122
