data_functionalizedCrystal
_audit_creation_method	'MofGen! by Chris Wilmer'
_symmetry_space_group_name_H-M	'P1'
_symmetry_Int_Tables_number	1
_symmetry_cell_setting	triclinic
loop_
_symmetry_equiv_pos_as_xyz
  x,y,z
_cell_length_a	19.077105
_cell_length_b	19.077068
_cell_length_c	18.215399
_cell_angle_alpha	92.268164
_cell_angle_beta	87.683200
_cell_angle_gamma	90.115316
loop_
_atom_site_label
_atom_site_type_symbol
_atom_site_fract_x
_atom_site_fract_y
_atom_site_fract_z
Zn1	Zn	1.062993	-0.322984	-0.474261
Zn2	Zn	1.058179	-0.440492	-0.355921
Zn3	Zn	0.945484	-0.318278	-0.346081
Zn4	Zn	0.940728	-0.435726	-0.473819
O5	O	1.001846	-0.379370	-0.412520
O6	O	1.160686	-0.342536	-0.462866
O7	O	1.043206	-0.424305	-0.251632
O8	O	0.965077	-0.220572	-0.359151
O9	O	1.157149	-0.428869	-0.375923
O10	O	1.051410	-0.224030	-0.453324
O11	O	0.960409	-0.334515	-0.244402
O12	O	0.846522	-0.329893	-0.358722
O13	O	0.956970	-0.420745	-0.576862
O14	O	0.843027	-0.416182	-0.452571
O15	O	1.046798	-0.337914	-0.577186
O16	O	1.038594	-0.538190	-0.375494
O17	O	0.952303	-0.534688	-0.462113
C18	C	0.819278	-0.372010	-0.404531
C19	C	0.741174	-0.368878	-0.401131
C20	C	0.702677	-0.412400	-0.448325
C21	C	0.629291	-0.409448	-0.445133
C22	C	0.594402	-0.362977	-0.394744
C23	C	0.632905	-0.319450	-0.347549
C24	C	0.706290	-0.322399	-0.350744
C25	C	0.375117	-0.349330	-0.379959
C26	C	0.301727	-0.346386	-0.376766
C27	C	0.298118	-0.436383	-0.474352
C28	C	0.371504	-0.439331	-0.477539
C29	C	0.410001	-0.395801	-0.430347
N30	N	0.519390	-0.359960	-0.391480
N31	N	0.485012	-0.398815	-0.433616
C32	C	0.994429	-0.561935	-0.419840
C33	C	0.991320	-0.640040	-0.422999
C34	C	1.034821	-0.678535	-0.379426
C35	C	1.031901	-0.751923	-0.382401
C36	C	0.985476	-0.786815	-0.428946
C37	C	0.941973	-0.748314	-0.472524
C38	C	0.944897	-0.674928	-0.469552
C39	C	0.971913	-1.006103	-0.442671
C40	C	0.968991	-1.079495	-0.445638
C41	C	1.058921	-1.083099	-0.355515
C42	C	1.061838	-1.009711	-0.352544
C43	C	1.018337	-0.971217	-0.396125
N44	N	0.982489	-0.861829	-0.431987
N45	N	1.021328	-0.896205	-0.393087
C46	C	1.185126	-0.386759	-0.420541
C47	C	1.263230	-0.389908	-0.423959
C48	C	1.001891	-0.379323	-0.604473
C49	C	1.001910	-0.379303	-0.686272
C50	C	1.009311	-0.196092	-0.405189
C51	C	1.012493	-0.117990	-0.402065
C52	C	1.048701	-0.336132	-0.874635
C53	C	1.048710	-0.336112	-0.951494
C54	C	0.955173	-0.422368	-0.951144
C55	C	0.955161	-0.422384	-0.874287
C56	C	1.001929	-0.379267	-0.836035
C57	C	1.001950	-0.379231	-0.989751
C58	C	1.001960	-0.379209	-1.073084
C59	C	1.001918	-0.379287	-0.752696
C60	C	1.001844	-0.379367	-0.221314
C61	C	1.001969	-0.379195	-0.139513
H62	H	0.731078	-0.450245	-0.489354
C63	C	1.106772	-1.125440	-0.307584
H64	H	1.134836	-1.094149	-0.279435
H65	H	1.136235	-1.155257	-0.338257
H66	H	1.078764	-1.153029	-0.275477
H67	H	0.597949	-0.444890	-0.483563
C68	C	0.890905	-0.786693	-0.523721
H69	H	0.895387	-0.835912	-0.519246
H70	H	0.901639	-0.775039	-0.573138
H71	H	0.844173	-0.772809	-0.510353
C72	C	0.903713	-0.469840	-0.831824
H73	H	0.875869	-0.495525	-0.865613
H74	H	0.874186	-0.441736	-0.799423
H75	H	0.929351	-0.501546	-0.804247
H76	H	0.399905	-0.477174	-0.518570
H77	H	1.067324	-0.783263	-0.346919
C78	C	0.903738	-0.469799	-0.993225
H79	H	0.910449	-0.463618	-1.044527
H80	H	0.856941	-0.457619	-0.978150
H81	H	0.912105	-0.517430	-0.982965
H82	H	1.086796	-0.300986	-0.982919
H83	H	0.266766	-0.471822	-0.512774
C84	C	0.263351	-0.295261	-0.321340
H85	H	0.296788	-0.269753	-0.293696
H86	H	0.233621	-0.320948	-0.289056
H87	H	0.235977	-0.263532	-0.347082
H88	H	0.406452	-0.313890	-0.341526
H89	H	0.737634	-0.286955	-0.312318
C90	C	0.594530	-0.268335	-0.292120
H91	H	0.545310	-0.272817	-0.296970
H92	H	0.608475	-0.221619	-0.301599
H93	H	0.606123	-0.279048	-0.243587
C94	C	1.085884	-0.640158	-0.328221
H95	H	1.081390	-0.590938	-0.332684
H96	H	1.132614	-0.654037	-0.341578
H97	H	1.075137	-0.651817	-0.278805
C98	C	1.112910	-0.971336	-0.301349
H99	H	1.138405	-1.004774	-0.275829
H100	H	1.087188	-0.941669	-0.266928
H101	H	1.144655	-0.943897	-0.329712
H102	H	0.931195	-1.107902	-0.483554
C103	C	1.100135	-0.288697	-0.832559
H104	H	1.127986	-0.262998	-0.866559
H105	H	1.129655	-0.316810	-0.804991
H106	H	1.074487	-0.257002	-0.800178
H107	H	0.936492	-0.974767	-0.478154
H108	H	0.909474	-0.643586	-0.505035
