data_functionalizedCrystal
_audit_creation_method	'MofGen! by Chris Wilmer'
_symmetry_space_group_name_H-M	'P1'
_symmetry_Int_Tables_number	1
_symmetry_cell_setting	triclinic
loop_
_symmetry_equiv_pos_as_xyz
  x,y,z
_cell_length_a	16.120530
_cell_length_b	18.050589
_cell_length_c	16.120297
_cell_angle_alpha	92.875657
_cell_angle_beta	90.128140
_cell_angle_gamma	87.123928
loop_
_atom_site_label
_atom_site_type_symbol
_atom_site_fract_x
_atom_site_fract_y
_atom_site_fract_z
Zn1	Zn	1.247404	-0.376248	-0.534587
Zn2	Zn	1.580738	-0.042915	-0.201254
Zn3	Zn	1.914071	0.290419	0.132080
Zn4	Zn	1.254344	-0.494473	-0.395537
Zn5	Zn	1.587677	-0.161139	-0.062203
Zn6	Zn	1.921011	0.172194	0.271130
Zn7	Zn	1.115396	-0.363698	-0.388504
Zn8	Zn	1.448729	-0.030365	-0.055171
Zn9	Zn	1.782063	0.302968	0.278162
Zn10	Zn	1.108300	-0.493789	-0.527506
Zn11	Zn	1.441634	-0.160455	-0.194173
Zn12	Zn	1.774967	0.172878	0.139161
O13	O	1.181361	-0.432052	-0.461533
O14	O	1.514694	-0.098719	-0.128200
O15	O	1.848028	0.234615	0.205133
O16	O	1.364691	-0.397469	-0.522048
O17	O	1.698024	-0.064136	-0.188715
O18	O	2.031357	0.269198	0.144618
O19	O	1.241786	-0.472159	-0.278238
O20	O	1.575119	-0.138826	0.055095
O21	O	1.908452	0.194507	0.388429
O22	O	1.132972	-0.261442	-0.407903
O23	O	1.466306	0.071891	-0.074570
O24	O	1.799639	0.405224	0.258764
O25	O	1.369789	-0.484328	-0.419888
O26	O	1.703122	-0.150995	-0.086555
O27	O	2.036456	0.182339	0.246778
O28	O	1.229959	-0.270662	-0.515230
O29	O	1.563292	0.062671	-0.181896
O30	O	1.896625	0.396004	0.151437
O31	O	1.139701	-0.376080	-0.273071
O32	O	1.473035	-0.042747	0.060262
O33	O	1.806368	0.290586	0.393595
O34	O	0.998089	-0.375417	-0.401037
O35	O	1.331422	-0.042084	-0.067703
O36	O	1.664756	0.291250	0.265630
O37	O	1.120879	-0.483162	-0.644811
O38	O	1.454212	-0.149829	-0.311478
O39	O	1.787546	0.183504	0.021856
O40	O	0.992876	-0.470994	-0.503160
O41	O	1.326209	-0.137660	-0.169827
O42	O	1.659542	0.195673	0.163506
O43	O	1.223078	-0.396806	-0.650014
O44	O	1.556412	-0.063472	-0.316680
O45	O	1.889745	0.269861	0.016653
O46	O	1.234906	-0.598303	-0.413022
O47	O	1.568239	-0.264969	-0.079689
O48	O	1.901572	0.068364	0.253645
O49	O	1.127608	-0.597800	-0.509979
O50	O	1.460941	-0.264467	-0.176646
O51	O	1.794275	0.068866	0.156687
C52	C	0.965310	-0.421770	-0.450568
C53	C	1.298643	-0.088437	-0.117234
C54	C	1.631977	0.244897	0.216099
C55	C	0.872881	-0.417390	-0.445896
C56	C	1.206215	-0.084057	-0.112563
C57	C	1.539548	0.249277	0.220771
C58	C	1.181261	-0.624999	-0.461515
C59	C	1.514595	-0.291665	-0.128181
C60	C	1.847928	0.041668	0.205152
C61	C	1.181293	-0.707547	-0.461538
C62	C	1.514627	-0.374214	-0.128205
C63	C	1.847960	-0.040880	0.205128
C64	C	0.703653	-0.409376	-0.437374
C65	C	1.036986	-0.076043	-0.104041
C66	C	1.370319	0.257290	0.229293
C67	C	0.659907	-0.454785	-0.485754
C68	C	0.993240	-0.121452	-0.152420
C69	C	1.326574	0.211882	0.180913
C70	C	0.565742	-0.450326	-0.481012
C71	C	0.899076	-0.116993	-0.147679
C72	C	1.232409	0.216341	0.185655
C73	C	0.797826	-0.413834	-0.442115
C74	C	1.131159	-0.080501	-0.108781
C75	C	1.464493	0.252832	0.224552
C76	C	1.123001	-0.906753	-0.514247
C77	C	1.456334	-0.573420	-0.180914
C78	C	1.789667	-0.240086	0.152420
C79	C	1.106578	-0.951975	-0.437341
C80	C	1.439911	-0.618642	-0.104008
C81	C	1.773244	-0.285308	0.229325
C82	C	1.181375	-0.858682	-0.461553
C83	C	1.514708	-0.525348	-0.128220
C84	C	1.848041	-0.192015	0.205114
C85	C	1.197838	-0.960544	-0.538470
C86	C	1.531171	-0.627210	-0.205136
C87	C	1.864505	-0.293877	0.128197
C88	C	1.181451	-1.004671	-0.461574
C89	C	1.514784	-0.671338	-0.128241
C90	C	1.848118	-0.338005	0.205092
C91	C	1.164914	-0.902813	-0.384605
C92	C	1.498247	-0.569479	-0.051272
C93	C	1.831580	-0.236146	0.282061
C94	C	1.256207	-0.911381	-0.485787
C95	C	1.589540	-0.578048	-0.152453
C96	C	1.922873	-0.244714	0.180880
C97	C	1.239815	-0.956580	-0.408830
C98	C	1.573149	-0.623246	-0.075497
C99	C	1.906482	-0.289913	0.257837
C100	C	1.181328	-0.774581	-0.461542
C101	C	1.514662	-0.441248	-0.128209
C102	C	1.847995	-0.107914	0.205125
C103	C	1.181498	-1.088770	-0.461577
C104	C	1.514831	-0.755437	-0.128244
C105	C	1.848165	-0.422103	0.205090
C106	C	1.398256	-0.442375	-0.472543
C107	C	1.731589	-0.109041	-0.139209
C108	C	2.064922	0.224292	0.194124
C109	C	1.490683	-0.446774	-0.477234
C110	C	1.824017	-0.113440	-0.143901
C111	C	2.157350	0.219893	0.189432
C112	C	1.170413	-0.441308	-0.678428
C113	C	1.503746	-0.107974	-0.345095
C114	C	1.837080	0.225359	-0.011762
C115	C	1.165748	-0.445252	-0.770856
C116	C	1.499081	-0.111919	-0.437522
C117	C	1.832414	0.221415	-0.104189
C118	C	1.181483	-0.238354	-0.461572
C119	C	1.514816	0.094980	-0.128238
C120	C	1.848150	0.428313	0.205095
C121	C	1.181535	-0.155811	-0.461588
C122	C	1.514868	0.177522	-0.128255
C123	C	1.848201	0.510856	0.205079
C124	C	1.157199	-0.452435	-0.940081
C125	C	1.490533	-0.119102	-0.606748
C126	C	1.823866	0.214232	-0.273414
C127	C	1.205687	-0.411454	-0.983846
C128	C	1.539020	-0.078121	-0.650513
C129	C	1.872353	0.255213	-0.317180
C130	C	1.200930	-0.415451	-1.078009
C131	C	1.534264	-0.082118	-0.744675
C132	C	1.867597	0.251216	-0.411342
C133	C	1.161955	-0.448439	-0.845910
C134	C	1.495288	-0.115106	-0.512576
C135	C	1.828621	0.218227	-0.179243
C136	C	1.192314	-0.422781	-0.245485
C137	C	1.525648	-0.089448	0.087848
C138	C	1.858981	0.243886	0.421182
C139	C	1.197141	-0.418635	-0.153066
C140	C	1.530474	-0.085302	0.180267
C141	C	1.863808	0.248031	0.513601
H142	H	0.693175	-0.497008	-0.530735
H143	H	1.026509	-0.163675	-0.197401
H144	H	1.359842	0.169658	0.135932
H145	H	0.670386	-0.367156	-0.392397
H146	H	1.003720	-0.033823	-0.059064
H147	H	1.337053	0.299511	0.274269
Cl148	Cl	1.046688	-0.872975	-0.582939
Cl149	Cl	1.380021	-0.539642	-0.249606
Cl150	Cl	1.713354	-0.206309	0.083727
H151	H	1.150946	-0.877680	-0.319545
H152	H	1.484279	-0.544346	0.013789
H153	H	1.817612	-0.211013	0.347122
H154	H	1.112120	-0.490519	-0.973329
H155	H	1.445453	-0.157186	-0.639995
H156	H	1.778787	0.176147	-0.306662
H157	H	1.289216	-0.978312	-0.364224
H158	H	1.622549	-0.644979	-0.030890
H159	H	1.955882	-0.311645	0.302443
Cl160	Cl	1.008925	-0.979731	-0.405700
Cl161	Cl	1.342258	-0.646397	-0.072367
Cl162	Cl	1.675592	-0.313064	0.260967
Cl163	Cl	1.353832	-0.883598	-0.517460
Cl164	Cl	1.687165	-0.550265	-0.184126
Cl165	Cl	2.020498	-0.216931	0.149207
H166	H	1.211733	-0.985762	-0.603509
H167	H	1.545066	-0.652429	-0.270175
H168	H	1.878399	-0.319095	0.063158
Cl169	Cl	1.275312	-0.352668	-0.932516
Cl170	Cl	1.608646	-0.019335	-0.599183
Cl171	Cl	1.941979	0.313998	-0.265849
