data_functionalizedCrystal
_audit_creation_method	'MofGen! by Chris Wilmer'
_symmetry_space_group_name_H-M	'P1'
_symmetry_Int_Tables_number	1
_symmetry_cell_setting	triclinic
loop_
_symmetry_equiv_pos_as_xyz
  x,y,z
_cell_length_a	19.188933
_cell_length_b	18.266242
_cell_length_c	11.792241
_cell_angle_alpha	89.993537
_cell_angle_beta	96.330508
_cell_angle_gamma	90.007623
loop_
_atom_site_label
_atom_site_type_symbol
_atom_site_fract_x
_atom_site_fract_y
_atom_site_fract_z
O1	O	0.926951	0.060857	-0.141706
O2	O	1.260284	0.394190	0.191628
O3	O	1.593618	0.727523	0.524961
O4	O	0.723748	0.060864	-0.160778
O5	O	1.057081	0.394197	0.172555
O6	O	1.390415	0.727530	0.505889
O7	O	0.830281	0.060855	0.014002
O8	O	1.163614	0.394188	0.347336
O9	O	1.496947	0.727522	0.680669
O10	O	0.820418	0.060866	-0.316486
O11	O	1.153752	0.394199	0.016847
O12	O	1.487085	0.727532	0.350181
O13	O	0.830262	-0.060907	0.014011
O14	O	1.163596	0.272426	0.347345
O15	O	1.496929	0.605760	0.680678
O16	O	0.723730	-0.060898	-0.160769
O17	O	1.057063	0.272435	0.172564
O18	O	1.390396	0.605768	0.505898
O19	O	0.926933	-0.060905	-0.141697
O20	O	1.260266	0.272428	0.191636
O21	O	1.593599	0.605762	0.524970
Zn22	Zn	0.825328	-0.080234	-0.151232
Zn23	Zn	1.158662	0.253099	0.182102
Zn24	Zn	1.491995	0.586433	0.515435
Zn25	Zn	0.825352	0.080193	-0.151243
Zn26	Zn	1.158686	0.413526	0.182090
Zn27	Zn	1.492019	0.746859	0.515423
O28	O	0.820400	-0.060896	-0.316477
O29	O	1.153733	0.272437	0.016856
O30	O	1.487067	0.605770	0.350189
C31	C	0.697724	-0.000016	-0.160155
C32	C	1.031058	0.333317	0.173178
C33	C	1.364391	0.666650	0.506511
C34	C	0.620209	-0.000014	-0.158300
C35	C	0.953543	0.333319	0.175033
C36	C	1.286876	0.666653	0.508366
C37	C	0.066889	0.066350	-0.145065
C38	C	0.400222	0.399684	0.188268
C39	C	0.733556	0.733017	0.521602
C40	C	0.139723	0.066353	-0.146801
C41	C	0.473056	0.399686	0.186532
C42	C	0.806390	0.733020	0.519866
C43	C	0.176135	-0.000019	-0.147670
C44	C	0.509468	0.333314	0.185664
C45	C	0.842802	0.666648	0.518997
C46	C	0.139709	-0.066399	-0.146773
C47	C	0.473042	0.266934	0.186561
C48	C	0.806376	0.600268	0.519894
C49	C	0.066877	-0.066400	-0.145025
C50	C	0.400211	0.266933	0.188308
C51	C	0.733544	0.600267	0.521642
N52	N	0.285529	-0.049421	-0.214993
N53	N	0.618862	0.283913	0.118340
N54	N	0.952196	0.617246	0.451674
N55	N	0.354716	-0.049415	-0.216656
N56	N	0.688049	0.283918	0.116678
N57	N	1.021383	0.617251	0.450011
C58	C	0.395573	-0.000020	-0.152933
C59	C	0.728907	0.333313	0.180400
C60	C	1.062240	0.666646	0.513734
N61	N	0.364629	0.049381	-0.087499
N62	N	0.697962	0.382714	0.245834
N63	N	1.031296	0.716047	0.579168
N64	N	0.295435	0.049377	-0.085841
N65	N	0.628769	0.382711	0.247492
N66	N	0.962102	0.716044	0.580825
C67	C	0.255109	-0.000025	-0.149564
C68	C	0.588442	0.333308	0.183769
C69	C	0.921776	0.666641	0.517103
C70	C	0.510966	0.066359	-0.155704
C71	C	0.844300	0.399692	0.177629
C72	C	1.177633	0.733025	0.510962
C73	C	0.583802	0.066359	-0.157434
C74	C	0.917136	0.399692	0.175900
C75	C	1.250469	0.733026	0.509233
C76	C	0.583786	-0.066395	-0.157417
C77	C	0.917119	0.266938	0.175917
C78	C	1.250453	0.600271	0.509250
C79	C	0.510952	-0.066393	-0.155676
C80	C	0.844286	0.266940	0.177657
C81	C	1.177619	0.600273	0.510991
C82	C	0.474546	-0.000014	-0.154825
C83	C	0.807880	0.333319	0.178508
C84	C	1.141213	0.666652	0.511841
N85	N	0.825317	-0.189721	-0.151223
N86	N	1.158650	0.143612	0.182111
N87	N	1.491984	0.476946	0.515444
C88	C	0.872505	-0.228034	-0.073868
C89	C	1.205839	0.105300	0.259465
C90	C	1.539172	0.438633	0.592799
C91	C	0.872510	-0.304679	-0.073863
C92	C	1.205843	0.028655	0.259471
C93	C	1.539177	0.361988	0.592804
C94	C	0.825333	-0.343008	-0.151232
C95	C	1.158666	-0.009675	0.182102
C96	C	1.491999	0.323659	0.515435
C97	C	0.778135	-0.304686	-0.228593
C98	C	1.111469	0.028647	0.104741
C99	C	1.444802	0.361981	0.438074
C100	C	0.778128	-0.228042	-0.228588
C101	C	1.111461	0.105291	0.104745
C102	C	1.444794	0.438624	0.438079
N103	N	0.816826	-0.463337	-0.251702
N104	N	1.150159	-0.130004	0.081632
N105	N	1.483493	0.203330	0.414965
N106	N	0.816838	-0.536145	-0.251702
N107	N	1.150171	-0.202812	0.081631
N108	N	1.483504	0.130522	0.414964
C109	C	0.825352	-0.573930	-0.151248
C110	C	1.158686	-0.240597	0.182085
C111	C	1.492019	0.092736	0.515418
N112	N	0.833869	-0.536157	-0.050790
N113	N	1.167202	-0.202824	0.282543
N114	N	1.500535	0.130510	0.615877
N115	N	0.833861	-0.463342	-0.050790
N116	N	1.167194	-0.130009	0.282543
N117	N	1.500527	0.203324	0.615876
C118	C	0.825336	-0.426115	-0.151245
C119	C	1.158669	-0.092782	0.182089
C120	C	1.492002	0.240552	0.515422
C121	C	0.872548	-0.695350	-0.073881
C122	C	1.205881	-0.362017	0.259452
C123	C	1.539215	-0.028684	0.592786
C124	C	0.872548	-0.771997	-0.073874
C125	C	1.205881	-0.438663	0.259459
C126	C	1.539214	-0.105330	0.592792
C127	C	0.778176	-0.772002	-0.228614
C128	C	1.111510	-0.438669	0.104719
C129	C	1.444843	-0.105336	0.438053
C130	C	0.778174	-0.695357	-0.228611
C131	C	1.111507	-0.362024	0.104722
C132	C	1.444840	-0.028691	0.438056
C133	C	0.825363	-0.657036	-0.151246
C134	C	1.158696	-0.323703	0.182088
C135	C	1.492030	0.009631	0.515421
C136	C	0.952956	-0.000023	-0.142319
C137	C	1.286290	0.333310	0.191014
C138	C	1.619623	0.666643	0.524347
C139	C	1.030471	-0.000021	-0.144174
C140	C	1.363805	0.333312	0.189159
C141	C	1.697138	0.666646	0.522492
C142	C	0.829652	-0.000026	0.056289
C143	C	1.162985	0.333308	0.389622
C144	C	1.496319	0.666641	0.722955
C145	C	0.827798	-0.000025	0.182275
C146	C	1.161131	0.333308	0.515608
C147	C	1.494464	0.666642	0.848941
N148	N	0.825369	0.189680	-0.151243
N149	N	1.158702	0.523013	0.182090
N150	N	1.492036	0.856346	0.515424
C151	C	0.821029	-0.000014	-0.358763
C152	C	1.154362	0.333319	-0.025430
C153	C	1.487695	0.666653	0.307903
C154	C	0.822883	-0.000010	-0.484749
C155	C	1.156216	0.333323	-0.151416
C156	C	1.489550	0.666657	0.181917
C157	C	0.824388	-0.000013	0.412936
C158	C	1.157721	0.333321	0.746269
C159	C	1.491055	0.666654	1.079602
C160	C	0.826283	-0.000019	0.284579
C161	C	1.159616	0.333314	0.617912
C162	C	1.492949	0.666647	0.951246
H163	H	0.481301	-0.120440	-0.154955
H164	H	0.814634	0.212893	0.178378
H165	H	1.147967	0.546226	0.511712
H166	H	0.169380	0.120402	-0.147533
H167	H	0.502713	0.453736	0.185801
H168	H	0.836046	0.787069	0.519134
H169	H	0.481323	0.120409	-0.155008
H170	H	0.814657	0.453742	0.178325
H171	H	1.147990	0.787075	0.511658
N172	N	0.923398	-0.186701	0.009576
N173	N	1.256731	0.146632	0.342909
N174	N	1.590065	0.479965	0.676242
H175	H	0.953292	-0.222607	0.058582
H176	H	1.286625	0.110726	0.391916
H177	H	1.619959	0.444059	0.725249
H178	H	0.896479	-0.154915	0.059649
H179	H	1.229813	0.178418	0.392983
H180	H	1.563146	0.511752	0.726316
N181	N	0.623087	0.137949	-0.158376
N182	N	0.956420	0.471282	0.174958
N183	N	1.289753	0.804615	0.508291
H184	H	0.588969	0.179996	-0.157571
H185	H	0.922302	0.513329	0.175762
H186	H	1.255636	0.846662	0.509096
H187	H	0.647916	0.140841	-0.229437
H188	H	0.981249	0.474174	0.103896
H189	H	1.314582	0.807507	0.437230
H190	H	0.613432	-0.120437	-0.158120
H191	H	0.946766	0.212897	0.175214
H192	H	1.280099	0.546230	0.508547
N193	N	0.027594	-0.137989	-0.144063
N194	N	0.360927	0.195344	0.189270
N195	N	0.694261	0.528677	0.522604
H196	H	0.061769	-0.180036	-0.144088
H197	H	0.395102	0.153297	0.189245
H198	H	0.728436	0.486631	0.522579
H199	H	-0.007688	-0.141101	-0.214079
H200	H	0.325645	0.192233	0.119254
H201	H	0.658979	0.525566	0.452588
N202	N	0.178977	-0.137987	-0.147706
N203	N	0.512310	0.195346	0.185627
N204	N	0.845644	0.528679	0.518960
H205	H	0.230642	-0.127916	-0.148953
H206	H	0.563975	0.205417	0.184380
H207	H	0.897309	0.538750	0.517714
H208	H	0.160846	-0.166972	-0.217737
H209	H	0.494179	0.166361	0.115596
H210	H	0.827513	0.499695	0.448930
H211	H	0.739700	-0.196848	-0.291581
H212	H	1.073034	0.136486	0.041752
H213	H	1.406367	0.469819	0.375086
N214	N	0.923406	-0.346014	0.009576
N215	N	1.256739	-0.012681	0.342909
N216	N	1.590073	0.320652	0.676242
H217	H	0.953297	-0.310108	0.058588
H218	H	1.286631	0.023226	0.391921
H219	H	1.619964	0.356559	0.725254
H220	H	0.954432	-0.377801	-0.033763
H221	H	1.287766	-0.044468	0.299571
H222	H	1.621099	0.288865	0.632904
H223	H	0.739722	-0.335897	-0.291586
H224	H	1.073055	-0.002564	0.041747
H225	H	1.406388	0.330769	0.375081
N226	N	0.923440	-0.654011	0.009560
N227	N	1.256773	-0.320677	0.342893
N228	N	1.590107	0.012656	0.676227
H229	H	0.953332	-0.689915	0.058573
H230	H	1.286665	-0.356582	0.391907
H231	H	1.619998	-0.023249	0.725240
H232	H	0.896522	-0.622220	0.059628
H233	H	1.229855	-0.288886	0.392961
H234	H	1.563188	0.044447	0.726294
H235	H	0.910972	-0.803191	-0.010877
H236	H	1.244305	-0.469858	0.322457
H237	H	1.577639	-0.136525	0.655790
H238	H	0.037252	0.120401	-0.144368
H239	H	0.370585	0.453735	0.188966
H240	H	0.703919	0.787068	0.522299
N241	N	0.727286	-0.813332	-0.312056
N242	N	1.060619	-0.479998	0.021277
N243	N	1.393952	-0.146665	0.354610
H244	H	0.734448	-0.867699	-0.300320
H245	H	1.067782	-0.534366	0.033013
H246	H	1.401115	-0.201033	0.366346
H247	H	0.735649	-0.799926	-0.392540
H248	H	1.068983	-0.466593	-0.059207
H249	H	1.402316	-0.133260	0.274126
H250	H	0.739751	-0.664161	-0.291605
H251	H	1.073084	-0.330828	0.041728
H252	H	1.406418	0.002506	0.375061
