data_functionalizedCrystal
_audit_creation_method	'MofGen! by Chris Wilmer'
_symmetry_space_group_name_H-M	'P1'
_symmetry_Int_Tables_number	1
_symmetry_cell_setting	triclinic
loop_
_symmetry_equiv_pos_as_xyz
  x,y,z
_cell_length_a	12.837943
_cell_length_b	12.837942
_cell_length_c	7.681481
_cell_angle_alpha	83.650030
_cell_angle_beta	96.334007
_cell_angle_gamma	94.828940
loop_
_atom_site_label
_atom_site_type_symbol
_atom_site_fract_x
_atom_site_fract_y
_atom_site_fract_z
O1	O	1.393419	0.281072	-0.146397
O2	O	1.893419	0.781072	0.353603
O3	O	1.090285	0.267629	-0.146407
O4	O	1.590285	0.767629	0.353593
O5	O	1.235131	0.122783	-0.146391
O6	O	1.735131	0.622783	0.353609
O7	O	1.248573	0.425918	-0.146413
O8	O	1.748573	0.925918	0.353587
O9	O	1.252954	0.104910	0.146468
O10	O	1.752954	0.604910	0.646468
O11	O	1.108108	0.249756	0.146453
O12	O	1.608108	0.749756	0.646453
O13	O	1.411242	0.263199	0.146463
O14	O	1.911242	0.763199	0.646463
Zn15	Zn	1.262505	0.253640	0.192956
Zn16	Zn	1.762505	0.753640	0.692956
Zn17	Zn	1.239022	0.277188	-0.192900
Zn18	Zn	1.739022	0.777188	0.307100
O19	O	1.266396	0.408045	0.146447
O20	O	1.766396	0.908045	0.646447
C21	C	1.060127	0.254151	0.000021
C22	C	1.560127	0.754151	0.500021
C23	C	0.943712	0.240607	0.000018
C24	C	1.443712	0.740607	0.500018
C25	C	0.718839	0.403435	0.000031
C26	C	1.218839	0.903435	0.500031
C27	C	0.609456	0.390714	0.000029
C28	C	1.109456	0.890714	0.500029
C29	C	0.615563	0.202444	0.000024
C30	C	1.115563	0.702444	0.500024
C31	C	0.724946	0.215165	0.000026
C32	C	1.224946	0.715165	0.500026
C33	C	0.776579	0.315664	0.000027
C34	C	1.276579	0.815664	0.500027
C35	C	0.885963	0.328385	0.000017
C36	C	1.385963	0.828385	0.500017
C37	C	0.892069	0.140114	0.000024
C38	C	1.392069	0.640114	0.500024
C39	C	0.782686	0.127393	0.000022
C40	C	1.282686	0.627393	0.500022
C41	C	1.239501	0.074777	0.000037
C42	C	1.739501	0.574777	0.500037
C43	C	1.225956	-0.041637	0.000034
C44	C	1.725956	0.458363	0.500034
C45	C	1.388784	-0.266510	0.000003
C46	C	1.888784	0.233490	0.500003
C47	C	1.376062	-0.375892	-0.000001
C48	C	1.876062	0.124108	0.499999
C49	C	1.187792	-0.369785	0.000011
C50	C	1.687792	0.130215	0.500011
C51	C	1.200513	-0.260403	0.000015
C52	C	1.700513	0.239597	0.500015
C53	C	1.301013	-0.208769	0.000013
C54	C	1.801013	0.291231	0.500013
C55	C	1.313734	-0.099386	0.000029
C56	C	1.813734	0.400614	0.500029
C57	C	1.125464	-0.093281	0.000028
C58	C	1.625464	0.406719	0.500028
C59	C	1.112742	-0.202663	0.000025
C60	C	1.612742	0.297337	0.500025
C61	C	1.441400	0.276677	0.000030
C62	C	1.941400	0.776677	0.500030
C63	C	1.557814	0.290222	0.000023
C64	C	2.057814	0.790222	0.500023
C65	C	1.262026	0.456051	0.000015
C66	C	1.762026	0.956051	0.500015
C67	C	1.275570	0.572466	0.000006
C68	C	1.775570	1.072466	0.500006
N69	N	1.278540	0.237569	0.456292
N70	N	1.778540	0.737569	0.956292
N71	N	1.222995	0.293252	-0.456236
N72	N	1.722995	0.793252	0.043764
H73	H	0.573513	0.120612	0.000168
H74	H	1.073513	0.620612	0.500168
H75	H	1.166294	0.350086	0.468561
H76	H	1.666294	0.850086	0.968561
H77	H	0.562448	0.462187	0.000038
H78	H	1.062448	0.962187	0.500038
O79	O	0.941652	0.436778	0.000034
O80	O	1.441652	0.936778	0.500034
H81	H	0.984068	0.454381	-0.119335
H82	H	1.484068	0.954381	0.380665
H83	H	1.105969	-0.411844	-0.000006
H84	H	1.605969	0.088156	0.499994
H85	H	1.030918	-0.244718	0.000019
H86	H	1.530918	0.255282	0.500019
H87	H	1.335253	0.180738	0.531504
H88	H	1.835253	0.680738	1.031504
H89	H	0.760879	0.485266	0.000030
H90	H	1.260879	0.985266	0.500030
O91	O	1.030783	-0.031011	0.000047
O92	O	1.530783	0.468989	0.500047
H93	H	1.024794	0.026257	-0.119317
H94	H	1.524794	0.526257	0.380683
O95	O	0.726995	0.019001	0.000021
O96	O	1.226995	0.519001	0.500021
H97	H	0.641233	0.024899	0.000012
H98	H	1.141233	0.524899	0.500012
H99	H	1.470615	-0.224470	0.000019
H100	H	1.970615	0.275530	0.500019
O101	O	0.954344	0.045435	0.000029
O102	O	1.454344	0.545435	0.500029
H103	H	1.039081	0.071160	0.000041
H104	H	1.539081	0.571160	0.500041
H105	H	1.447535	-0.422900	-0.000014
H106	H	1.947535	0.077100	0.499986
O107	O	1.422122	-0.043686	0.000005
O108	O	1.922122	0.456314	0.500005
H109	H	1.481015	-0.102216	-0.000028
H110	H	1.981015	0.397784	0.499972
