data_functionalizedCrystal
_audit_creation_method	'MofGen! by Chris Wilmer'
_symmetry_space_group_name_H-M	'P1'
_symmetry_Int_Tables_number	1
_symmetry_cell_setting	triclinic
loop_
_symmetry_equiv_pos_as_xyz
  x,y,z
_cell_length_a	12.759401
_cell_length_b	19.120786
_cell_length_c	12.759393
_cell_angle_alpha	87.523425
_cell_angle_beta	89.980869
_cell_angle_gamma	92.465531
loop_
_atom_site_label
_atom_site_type_symbol
_atom_site_fract_x
_atom_site_fract_y
_atom_site_fract_z
Zn1	Zn	1.588341	-0.279589	-0.576099
Zn2	Zn	1.580704	-0.397064	-0.392904
Zn3	Zn	1.412639	-0.279625	-0.400436
Zn4	Zn	1.405105	-0.397012	-0.568549
O5	O	1.496697	-0.338322	-0.484497
O6	O	1.734348	-0.295179	-0.551805
O7	O	1.558366	-0.381523	-0.246880
O8	O	1.442295	-0.181329	-0.430049
O9	O	1.728737	-0.381488	-0.417213
O10	O	1.571383	-0.181303	-0.559108
O11	O	1.434890	-0.295240	-0.252413
O12	O	1.264619	-0.295189	-0.422728
O13	O	1.429455	-0.381398	-0.716574
O14	O	1.259084	-0.381433	-0.546241
O15	O	1.564078	-0.295128	-0.722121
O16	O	1.551061	-0.495348	-0.409893
O17	O	1.422050	-0.495309	-0.538938
C18	C	1.223731	-0.338310	-0.484483
C19	C	1.106953	-0.338321	-0.484501
C20	C	0.939501	-0.383307	-0.548710
C21	C	1.049225	-0.383299	-0.548700
C22	C	1.054951	-0.293353	-0.420301
C23	C	0.945228	-0.293365	-0.420306
C24	C	1.484938	-0.520814	-0.472802
C25	C	1.480003	-0.598885	-0.467834
C26	C	1.544844	-0.635489	-0.532748
C27	C	1.540203	-0.708845	-0.528082
C28	C	1.470726	-0.745596	-0.458495
C29	C	1.405878	-0.708987	-0.393578
C30	C	1.410515	-0.635632	-0.398250
C31	C	1.453363	-0.967083	-0.441029
C32	C	1.448734	-1.040443	-0.436359
C33	C	1.583057	-1.040296	-0.570865
C34	C	1.587692	-0.966940	-0.575527
C35	C	1.522840	-0.930337	-0.510613
C36	C	1.465983	-0.820577	-0.453722
C37	C	1.527579	-0.855357	-0.515393
C38	C	1.770730	-0.338335	-0.484511
C39	C	1.887506	-0.338341	-0.484517
C40	C	1.496778	-0.338253	-0.758535
C41	C	1.496812	-0.338224	-0.875313
C42	C	1.508531	-0.155117	-0.496261
C43	C	1.513574	-0.077047	-0.501274
C44	C	1.566939	-0.293269	-1.042799
C45	C	1.566917	-0.293296	-0.933073
C46	C	1.426732	-0.383132	-0.927285
C47	C	1.426760	-0.383107	-1.037009
C48	C	1.496680	-0.338341	-0.211528
C49	C	1.496862	-0.338172	-0.094763
H50	H	1.593011	-0.738645	-0.580934
C51	C	1.663162	-0.927167	-0.651181
C52	C	1.718940	-0.974925	-0.707049
C53	C	1.788470	-0.938312	-0.776754
H54	H	1.710859	-0.898545	-0.612962
H55	H	1.624787	-0.898564	-0.698804
H56	H	1.757314	-1.003516	-0.659433
H57	H	1.671272	-1.003548	-0.745290
H58	H	1.750095	-0.909709	-0.824377
H59	H	1.836159	-0.909692	-0.738527
H60	H	1.826317	-0.970710	-0.814676
C61	C	1.350758	-0.432035	-0.864615
C62	C	1.369186	-0.501525	-0.886819
C63	C	1.299232	-0.546596	-0.829095
H64	H	1.280785	-0.421851	-0.883188
H65	H	1.360792	-0.425663	-0.791814
H66	H	1.359142	-0.507894	-0.959604
H67	H	1.439145	-0.511730	-0.868242
H68	H	1.309267	-0.540224	-0.756294
H69	H	1.229264	-0.536406	-0.847673
H70	H	1.311733	-0.593750	-0.844145
C71	C	0.877014	-0.432215	-0.618455
C72	C	0.946039	-0.471605	-0.674651
C73	C	0.888517	-0.516673	-0.738902
H74	H	0.835947	-0.405464	-0.666108
H75	H	0.832248	-0.462831	-0.576258
H76	H	0.990786	-0.440993	-0.716845
H77	H	0.987107	-0.498370	-0.627025
H78	H	0.843752	-0.547289	-0.696704
H79	H	0.847453	-0.489916	-0.786548
H80	H	0.935341	-0.543409	-0.777031
C81	C	1.105817	-0.432004	-0.618471
C82	C	1.171409	-0.392280	-0.688428
C83	C	1.223567	-0.437125	-0.752710
H84	H	1.055840	-0.458805	-0.656809
H85	H	1.146699	-0.462564	-0.576277
H86	H	1.130530	-0.361732	-0.730617
H87	H	1.221405	-0.365480	-0.650119
H88	H	1.264449	-0.467685	-0.710517
H89	H	1.173583	-0.463924	-0.791042
H90	H	1.268084	-0.410179	-0.800177
C91	C	1.643044	-0.244465	-0.876849
C92	C	1.704421	-0.205098	-0.950917
C93	C	1.774555	-0.160099	-0.899164
H94	H	1.687176	-0.271266	-0.832326
H95	H	1.604846	-0.213832	-0.836032
H96	H	1.742616	-0.235727	-0.991716
H97	H	1.660317	-0.178283	-0.995443
H98	H	1.736357	-0.129466	-0.858347
H99	H	1.818679	-0.186906	-0.854643
H100	H	1.816200	-0.133379	-0.949412
H101	H	0.902893	-0.256747	-0.368028
C102	C	1.642885	-0.244401	-1.105564
C103	C	1.586325	-0.199350	-1.171424
C104	C	1.656254	-0.154317	-1.229244
H105	H	1.686963	-0.271180	-1.146736
H106	H	1.684602	-0.217622	-1.058932
H107	H	1.544626	-0.226125	-1.218050
H108	H	1.542251	-0.172555	-1.130278
H109	H	1.697970	-0.127538	-1.182612
H110	H	1.700328	-0.181102	-1.270410
H111	H	1.617888	-0.123740	-1.273929
C112	C	1.350844	-0.431954	-1.093481
C113	C	1.407450	-0.476974	-1.153556
C114	C	1.337561	-0.521989	-1.205579
H115	H	1.306785	-0.405161	-1.138092
H116	H	1.309105	-0.458757	-1.043398
H117	H	1.449171	-0.450173	-1.203633
H118	H	1.451505	-0.503783	-1.108970
H119	H	1.295822	-0.548792	-1.155497
H120	H	1.293506	-0.495189	-1.250185
H121	H	1.375958	-0.552544	-1.246339
H122	H	1.635854	-1.070105	-0.623715
H123	H	1.601424	-0.605571	-0.589409
C124	C	1.373184	-1.080219	-0.360777
C125	C	1.317360	-1.032465	-0.304948
C126	C	1.247751	-1.069081	-0.235327
H127	H	1.411471	-1.108835	-0.313116
H128	H	1.325529	-1.108828	-0.399088
H129	H	1.365009	-1.003868	-0.266639
H130	H	1.279052	-1.003847	-0.352581
H131	H	1.200096	-1.097690	-0.273638
H132	H	1.286046	-1.097696	-0.187673
H133	H	1.209859	-1.036685	-0.197446
H134	H	1.101962	-0.256734	-0.368024
H135	H	1.400560	-0.937287	-0.388172
H136	H	1.349304	-0.738915	-0.336923
C137	C	1.602844	-0.815368	-0.591008
C138	C	1.545982	-0.773244	-0.660960
C139	C	1.615285	-0.736382	-0.730619
H140	H	1.640834	-0.847589	-0.629109
H141	H	1.650430	-0.786704	-0.552705
H142	H	1.498416	-0.801905	-0.699259
H143	H	1.507995	-0.741009	-0.622889
H144	H	1.662870	-0.707717	-0.692315
H145	H	1.653271	-0.768608	-0.768712
H146	H	1.576715	-0.707791	-0.778082
C147	C	1.339939	-0.595977	-0.327827
C148	C	1.234849	-0.613884	-0.349461
C149	C	1.169799	-0.577375	-0.284603
H150	H	1.352506	-0.547016	-0.340513
H151	H	1.354523	-0.608036	-0.256462
H152	H	1.220270	-0.601820	-0.420810
H153	H	1.222249	-0.662839	-0.336770
H154	H	1.184383	-0.589434	-0.213237
H155	H	1.182375	-0.528416	-0.297294
H156	H	1.098489	-0.589525	-0.299266
C157	C	1.390451	-0.860354	-0.378133
C158	C	1.334638	-0.812602	-0.322290
C159	C	1.265037	-0.849220	-0.252662
H160	H	1.428743	-0.888974	-0.330482
H161	H	1.342788	-0.888960	-0.416441
H162	H	1.382294	-0.784008	-0.283985
H163	H	1.296324	-0.783981	-0.369914
H164	H	1.217375	-0.877826	-0.290970
H165	H	1.303338	-0.877838	-0.205018
H166	H	1.227153	-0.816826	-0.214771
