data_functionalizedCrystal
_audit_creation_method	'MofGen! by Chris Wilmer'
_symmetry_space_group_name_H-M	'P1'
_symmetry_Int_Tables_number	1
_symmetry_cell_setting	triclinic
loop_
_symmetry_equiv_pos_as_xyz
  x,y,z
_cell_length_a	21.395362
_cell_length_b	16.120484
_cell_length_c	16.120728
_cell_angle_alpha	84.367400
_cell_angle_beta	87.131132
_cell_angle_gamma	92.942400
loop_
_atom_site_label
_atom_site_type_symbol
_atom_site_fract_x
_atom_site_fract_y
_atom_site_fract_z
Zn1	Zn	0.925525	-0.356589	0.489864
Zn2	Zn	1.425525	0.143411	0.989864
Zn3	Zn	0.925467	-0.489235	0.357173
Zn4	Zn	1.425467	0.010765	0.857173
Zn5	Zn	0.826366	-0.349513	0.350065
Zn6	Zn	1.326366	0.150487	0.850065
Zn7	Zn	0.815125	-0.496360	0.496849
Zn8	Zn	1.315125	0.003640	0.996849
O9	O	0.873121	-0.422924	0.423488
O10	O	1.373121	0.077076	0.923488
O11	O	1.013194	-0.374164	0.472314
O12	O	1.513194	0.125836	0.972314
O13	O	0.917001	-0.464757	0.239268
O14	O	1.417001	0.035243	0.739268
O15	O	0.844249	-0.233483	0.362712
O16	O	1.344249	0.266517	0.862712
O17	O	1.013151	-0.471618	0.374826
O18	O	1.513151	0.028382	0.874826
O19	O	0.917100	-0.238681	0.465422
O20	O	1.417100	0.261319	0.965422
O21	O	0.844192	-0.362104	0.234046
O22	O	1.344192	0.137896	0.734046
O23	O	0.737198	-0.369013	0.369485
O24	O	1.237198	0.130987	0.869485
O25	O	0.825090	-0.483763	0.612884
O26	O	1.325090	0.016237	1.112884
O27	O	0.728940	-0.476901	0.477327
O28	O	1.228940	0.023099	0.977327
O29	O	0.906200	-0.381073	0.607753
O30	O	1.406200	0.118927	1.107753
O31	O	0.906101	-0.607149	0.381599
O32	O	1.406101	-0.107149	0.881599
O33	O	0.825034	-0.612384	0.484219
O34	O	1.325034	-0.112384	0.984219
C35	C	0.710335	-0.422963	0.423393
C36	C	1.210335	0.077037	0.923393
C37	C	0.640693	-0.423001	0.423373
C38	C	1.140693	0.076999	0.923373
C39	C	0.864358	-0.640096	0.434456
C40	C	1.364358	-0.140096	0.934456
C41	C	0.860665	-0.733004	0.439177
C42	C	1.360665	-0.233004	0.939177
C43	C	0.603697	-0.479245	0.479450
C44	C	1.103697	0.020755	0.979450
C45	C	0.538261	-0.479227	0.479486
C46	C	1.038261	0.020773	0.979486
C47	C	0.509824	-0.422972	0.423431
C48	C	1.009824	0.077028	0.923431
C49	C	0.546829	-0.366718	0.367350
C50	C	1.046829	0.133282	0.867350
C51	C	0.612264	-0.366732	0.367321
C52	C	1.112264	0.133268	0.867321
C53	C	0.409397	-0.412409	0.347846
C54	C	0.909397	0.087591	0.847846
C55	C	0.343964	-0.412400	0.347874
C56	C	0.843964	0.087600	0.847874
C57	C	0.308002	-0.422922	0.423521
C58	C	0.808002	0.077078	0.923521
C59	C	0.337481	-0.433471	0.499144
C60	C	0.837481	0.066529	0.999144
C61	C	0.402915	-0.433485	0.499115
C62	C	0.902915	0.066515	0.999115
C63	C	0.438872	-0.422950	0.423457
C64	C	0.938872	0.077050	0.923457
C65	C	0.200052	-0.479149	0.479642
C66	C	0.700052	0.020851	0.979642
C67	C	0.134615	-0.479125	0.479679
C68	C	0.634615	0.020875	0.979679
C69	C	0.143184	-0.366620	0.367535
C70	C	0.643184	0.133380	0.867535
C71	C	0.208620	-0.366640	0.367505
C72	C	0.708620	0.133360	0.867505
C73	C	0.237050	-0.422909	0.423558
C74	C	0.737050	0.077091	0.923558
C75	C	0.853926	-0.903109	0.447812
C76	C	1.353926	-0.403109	0.947812
C77	C	0.892428	-0.941899	0.399177
C78	C	1.392428	-0.441899	0.899177
C79	C	0.888678	-1.036551	0.403982
C80	C	1.388678	-0.536551	0.903982
C81	C	0.857674	-0.808449	0.443008
C82	C	1.357674	-0.308449	0.943008
C83	C	1.036542	-0.422885	0.423583
C84	C	1.536542	0.077115	0.923583
C85	C	1.106182	-0.422869	0.423624
C86	C	1.606182	0.077131	0.923624
C87	C	0.864398	-0.434002	0.641493
C88	C	1.364398	0.065998	1.141493
C89	C	0.860681	-0.438723	0.734394
C90	C	1.360681	0.061277	1.234394
C91	C	0.881935	-0.204905	0.412495
C92	C	1.381935	0.295095	0.912495
C93	C	0.885691	-0.111999	0.407810
C94	C	1.385691	0.388001	0.907810
C95	C	0.853872	-0.447323	0.904484
C96	C	1.353872	0.052677	1.404484
C97	C	0.892348	-0.398606	0.943347
C98	C	1.392348	0.101394	1.443347
C99	C	0.888559	-0.403391	1.037990
C100	C	1.388559	0.096609	1.537990
C101	C	0.857659	-0.442539	0.809832
C102	C	1.357659	0.057461	1.309832
C103	C	0.881809	-0.411912	1.206331
C104	C	1.381809	0.088088	1.706331
C105	C	0.885541	-0.407203	1.113431
C106	C	1.385541	0.092797	1.613431
H107	H	0.626840	-0.525063	0.525093
H108	H	1.126840	-0.025063	1.025093
H109	H	0.642387	-0.320929	0.321657
H110	H	1.142387	0.179071	0.821657
F111	F	0.095240	-0.538987	0.539371
F112	F	0.595240	-0.038987	1.039371
H113	H	0.818089	-0.492622	0.942291
H114	H	1.318089	0.007378	1.442291
F115	F	0.807162	-0.952615	0.506947
F116	F	1.307162	-0.452615	1.006947
H117	H	0.120032	-0.320812	0.321898
H118	H	0.620032	0.179188	0.821898
H119	H	0.928133	-0.353302	0.905538
H120	H	1.428133	0.146698	1.405538
H121	H	0.928207	-0.904021	0.353931
H122	H	1.428207	-0.404021	0.853931
H123	H	0.426915	-0.442072	0.560689
H124	H	0.926915	0.057928	1.060689
F125	F	0.498879	-0.539092	0.539174
F126	F	0.998879	-0.039092	1.039174
F127	F	0.299213	-0.444666	0.579660
F128	F	0.799213	0.055334	1.079660
H129	H	0.223200	-0.524963	0.525287
H130	H	0.723200	-0.024963	1.025287
H131	H	0.238743	-0.320844	0.321838
H132	H	0.738743	0.179156	0.821838
H133	H	0.319967	-0.403816	0.286297
H134	H	0.819967	0.096184	0.786297
H135	H	0.438673	-0.403837	0.286240
H136	H	0.938673	0.096163	0.786240
H137	H	0.523672	-0.320913	0.321711
H138	H	1.023672	0.179087	0.821711
