data_functionalizedCrystal
_audit_creation_method	'MofGen! by Chris Wilmer'
_symmetry_space_group_name_H-M	'P1'
_symmetry_Int_Tables_number	1
_symmetry_cell_setting	triclinic
loop_
_symmetry_equiv_pos_as_xyz
  x,y,z
_cell_length_a	15.297327
_cell_length_b	17.077404
_cell_length_c	17.077396
_cell_angle_alpha	89.980499
_cell_angle_beta	80.352732
_cell_angle_gamma	80.292864
loop_
_atom_site_label
_atom_site_type_symbol
_atom_site_fract_x
_atom_site_fract_y
_atom_site_fract_z
Zn1	Zn	-0.359161	-1.145953	0.497895
Zn2	Zn	-0.510035	-1.123133	0.389335
Zn3	Zn	-0.359192	-1.014680	0.366647
Zn4	Zn	-0.509981	-0.991934	0.520550
O5	O	-0.434592	-1.068925	0.443607
O6	O	-0.379184	-1.252771	0.483507
O7	O	-0.490061	-1.108715	0.276484
O8	O	-0.232941	-1.051163	0.365082
O9	O	-0.490030	-1.236005	0.403749
O10	O	-0.232918	-1.147608	0.461508
O11	O	-0.379238	-1.029035	0.259815
O12	O	-0.379186	-0.901817	0.387050
O13	O	-0.489939	-1.012395	0.627386
O14	O	-0.489970	-0.885105	0.500121
O15	O	-0.379132	-1.125553	0.610742
O16	O	-0.636275	-1.086659	0.425717
O17	O	-0.636236	-0.990268	0.522120
C18	C	-0.434576	-0.864979	0.443583
C19	C	-0.434591	-0.777727	0.443594
C20	C	-0.668990	-1.033541	0.478856
C21	C	-0.769266	-1.018475	0.493962
C22	C	-0.434526	-1.068982	0.648341
C23	C	-0.434498	-1.069007	0.735587
C24	C	-1.051885	-1.176925	0.335910
C25	C	-0.957670	-1.191079	0.321713
C26	C	-0.910565	-1.147930	0.364774
C27	C	-0.957683	-1.090623	0.422034
C28	C	-1.051907	-1.076462	0.436228
C29	C	-0.910586	-1.047467	0.465092
C30	C	-0.957705	-0.990160	0.522352
C31	C	-1.051919	-0.976003	0.536544
C32	C	-1.099025	-1.019152	0.493483
C33	C	-0.816363	-1.061628	0.450898
C34	C	-0.816384	-0.961165	0.551217
C35	C	-0.910599	-0.947010	0.565413
C36	C	-0.199279	-1.104468	0.408237
C37	C	-0.099003	-1.119615	0.393165
C38	C	-0.434609	-1.273666	0.443632
C39	C	-0.434617	-1.360915	0.443642
C40	C	-0.492363	-0.728043	0.502403
C41	C	-0.492365	-0.646062	0.502416
C42	C	-0.434599	-0.613767	0.443616
C43	C	-0.376820	-0.663458	0.384804
C44	C	-0.376814	-0.745438	0.384795
C45	C	-0.376838	-0.492585	0.384825
C46	C	-0.376844	-0.410599	0.384833
C47	C	-0.492389	-0.393210	0.502446
C48	C	-0.492383	-0.475189	0.502438
C49	C	-0.434605	-0.524875	0.443624
C50	C	-0.434593	-1.068922	0.239659
C51	C	-0.434368	-1.069088	0.152376
C52	C	-0.376795	-1.127930	0.767910
C53	C	-0.376765	-1.127944	0.849886
C54	C	-0.434443	-1.069037	0.899538
C55	C	-0.492147	-1.010108	0.867209
C56	C	-0.492172	-1.010091	0.785234
C57	C	-0.492093	-1.010148	1.038071
C58	C	-0.492070	-1.010165	1.120052
C59	C	-0.376686	-1.128000	1.102724
C60	C	-0.376711	-1.127984	1.020748
C61	C	-0.434417	-1.069055	0.988425
H62	H	-0.833851	-1.159457	0.353211
H63	H	-0.329830	-1.175901	0.727489
H64	H	-0.539410	-0.605612	0.550304
H65	H	-0.539034	-0.962196	1.160477
O66	O	-0.320601	-1.185244	0.972624
C67	C	-0.206190	-1.302149	0.964088
C68	C	-0.269676	-1.237340	1.018677
H69	H	-0.165015	-1.344296	1.001302
H70	H	-0.158967	-1.273273	0.918625
H71	H	-0.247643	-1.336890	0.931924
H72	H	-0.228296	-1.202578	1.050895
H73	H	-0.316902	-1.266265	1.064091
O74	O	-0.320646	-1.185158	1.134242
C75	C	-0.269484	-1.237422	1.252852
C76	C	-0.332978	-1.172639	1.217256
H77	H	-0.279446	-1.227332	1.319975
H78	H	-0.196726	-1.234618	1.225845
H79	H	-0.285321	-1.298318	1.239085
H80	H	-0.317222	-1.111712	1.231011
H81	H	-0.405717	-1.175513	1.244263
O82	O	-0.548449	-0.759537	0.559445
C83	C	-0.599608	-0.878126	0.611590
C84	C	-0.536062	-0.842565	0.546929
H85	H	-0.589602	-0.945260	0.601504
H86	H	-0.672356	-0.851080	0.608644
H87	H	-0.583866	-0.864363	0.672533
H88	H	-0.551723	-0.856316	0.485956
H89	H	-0.463334	-0.869612	0.549946
O90	O	-0.548471	-0.345045	0.559683
C91	C	-0.592446	-0.313357	0.699760
C92	C	-0.528887	-0.367975	0.635029
H93	H	-0.576622	-0.331866	0.760691
H94	H	-0.665183	-0.318509	0.696864
H95	H	-0.582546	-0.249217	0.689635
H96	H	-0.538707	-0.432137	0.645112
H97	H	-0.456174	-0.362755	0.637942
H98	H	-0.329795	-0.384309	0.336961
H99	H	-0.539150	-0.962103	0.758916
O100	O	-0.320620	-0.632223	0.327647
C101	C	-0.206058	-0.658124	0.210959
C102	C	-0.269641	-0.693602	0.275657
H103	H	-0.164839	-0.707729	0.168899
H104	H	-0.158880	-0.626899	0.239935
H105	H	-0.247437	-0.613461	0.176115
H106	H	-0.228335	-0.738296	0.310523
H107	H	-0.316822	-0.724776	0.246632
H108	H	-0.329765	-0.785891	0.336910
H109	H	-0.778032	-0.926027	0.586279
H110	H	-0.539426	-0.501481	0.550314
O111	O	-1.097557	-1.218944	0.294109
C112	C	-1.126391	-1.348144	0.260479
C113	C	-1.074586	-1.300662	0.307849
H114	H	-1.107853	-1.414220	0.271584
H115	H	-1.107916	-1.337230	0.194375
H116	H	-1.201815	-1.328121	0.280455
H117	H	-0.999150	-1.320655	0.287942
H118	H	-1.093137	-1.311578	0.373944
O119	O	-0.548249	-0.952878	1.006807
C120	C	-0.662693	-0.836005	1.032641
C121	C	-0.599147	-0.900813	1.068152
H122	H	-0.703847	-0.793884	1.082219
H123	H	-0.709933	-0.864884	1.001399
H124	H	-0.621288	-0.801234	0.987998
H125	H	-0.640479	-0.935605	1.112826
H126	H	-0.551905	-0.871886	1.099344
H127	H	-1.175742	-1.007633	0.505041
H128	H	-0.778007	-1.108287	0.404277
H129	H	-0.919310	-1.237738	0.275092
H130	H	-1.090280	-0.929330	0.583160
H131	H	-0.329781	-1.175927	0.876200
O132	O	-0.956514	-0.891345	0.620978
C133	C	-1.101676	-0.825050	0.687331
C134	C	-1.049790	-0.888100	0.624371
H135	H	-1.177099	-0.822417	0.690107
H136	H	-1.083292	-0.764506	0.670721
H137	H	-1.083037	-0.841591	0.747824
H138	H	-1.068400	-0.871634	0.563855
H139	H	-1.068178	-0.948627	0.641049
H140	H	-0.329781	-0.533038	0.336939
H141	H	-0.539106	-0.962142	0.907641
