data_functionalizedCrystal
_audit_creation_method	'MofGen! by Chris Wilmer'
_symmetry_space_group_name_H-M	'P1'
_symmetry_Int_Tables_number	1
_symmetry_cell_setting	triclinic
loop_
_symmetry_equiv_pos_as_xyz
  x,y,z
_cell_length_a	12.759401
_cell_length_b	12.759400
_cell_length_c	18.215384
_cell_angle_alpha	89.913814
_cell_angle_beta	89.942889
_cell_angle_gamma	90.007718
loop_
_atom_site_label
_atom_site_type_symbol
_atom_site_fract_x
_atom_site_fract_y
_atom_site_fract_z
Zn1	Zn	1.606758	-0.417450	-0.416064
Zn2	Zn	1.606563	-0.593356	-0.293019
Zn3	Zn	1.430936	-0.417705	-0.293023
Zn4	Zn	1.431083	-0.593100	-0.416056
O5	O	1.518835	-0.505403	-0.354541
O6	O	1.753753	-0.440784	-0.399744
O7	O	1.583122	-0.570270	-0.190035
O8	O	1.454279	-0.270650	-0.309350
O9	O	1.753610	-0.570022	-0.309344
O10	O	1.583455	-0.270463	-0.399748
O11	O	1.454089	-0.441220	-0.190038
O12	O	1.283934	-0.440971	-0.309341
O13	O	1.454530	-0.569586	-0.519042
O14	O	1.284043	-0.569833	-0.399733
O15	O	1.583598	-0.440536	-0.519048
O16	O	1.583265	-0.740343	-0.309335
O17	O	1.454341	-0.740155	-0.399730
C18	C	1.245868	-0.505403	-0.354537
C19	C	1.129091	-0.505428	-0.354553
C20	C	1.518826	-0.778370	-0.354547
C21	C	1.518919	-0.895147	-0.354575
C22	C	1.519103	-0.505004	-0.546494
C23	C	1.519217	-0.504834	-0.628293
C24	C	1.792868	-0.505403	-0.354545
C25	C	1.909645	-0.505404	-0.354546
C26	C	1.964583	-0.438121	-0.401612
C27	C	2.074307	-0.438135	-0.401618
C28	C	2.074145	-0.572719	-0.307485
C29	C	1.964423	-0.572709	-0.307484
C30	C	1.518872	-0.231370	-0.354550
C31	C	1.518888	-0.114593	-0.354554
C32	C	1.451644	-0.059827	-0.307492
C33	C	1.451656	0.049897	-0.307504
C34	C	1.586165	0.050080	-0.401642
C35	C	1.586147	-0.059642	-0.401633
C36	C	1.518629	-0.505724	-0.163334
C37	C	1.518718	-0.505598	-0.081535
C38	C	1.452215	-0.572954	0.106864
C39	C	1.452297	-0.572823	0.183722
C40	C	1.585723	-0.437471	0.183302
C41	C	1.585635	-0.437598	0.106445
C42	C	1.518882	-0.505345	0.068228
C43	C	1.519052	-0.505087	0.221944
C44	C	1.519142	-0.504945	0.305277
C45	C	1.518791	-0.505486	-0.015111
H46	H	2.119033	-0.383348	-0.439944
O47	O	1.380204	-0.646007	0.065645
H48	H	1.427556	-0.699188	0.030671
H49	H	1.639924	-0.382536	0.074987
H50	H	1.919986	-0.383316	-0.439933
H51	H	1.640928	0.094831	-0.439971
O52	O	2.133225	-0.645296	-0.256715
H53	H	2.218752	-0.633991	-0.264615
O54	O	1.905161	-0.645274	-0.256709
H55	H	1.926223	-0.727708	-0.269323
H56	H	1.396875	-0.104564	-0.269160
H57	H	1.396899	0.094485	-0.269184
H58	H	1.398007	-0.627874	0.215176
H59	H	1.640905	-0.104234	-0.439961
O60	O	1.657734	-0.364418	0.224521
H61	H	1.646607	-0.375697	0.284456
