data_functionalizedCrystal
_audit_creation_method	'MofGen! by Chris Wilmer'
_symmetry_space_group_name_H-M	'P1'
_symmetry_Int_Tables_number	1
_symmetry_cell_setting	triclinic
loop_
_symmetry_equiv_pos_as_xyz
  x,y,z
_cell_length_a	12.759395
_cell_length_b	12.759394
_cell_length_c	12.759387
_cell_angle_alpha	90.032817
_cell_angle_beta	89.981185
_cell_angle_gamma	89.983626
loop_
_atom_site_label
_atom_site_type_symbol
_atom_site_fract_x
_atom_site_fract_y
_atom_site_fract_z
Zn1	Zn	1.606250	0.418156	-0.593999
Zn2	Zn	1.606146	0.593877	-0.418317
Zn3	Zn	1.430554	0.418217	-0.418336
Zn4	Zn	1.430540	0.593798	-0.593956
O5	O	1.518372	0.506012	-0.506152
O6	O	1.753257	0.441473	-0.570704
O7	O	1.582815	0.570633	-0.271298
O8	O	1.453909	0.271188	-0.441664
O9	O	1.753180	0.570574	-0.441631
O10	O	1.582993	0.271143	-0.570723
O11	O	1.453808	0.441577	-0.271312
O12	O	1.283531	0.441501	-0.441622
O13	O	1.453887	0.570441	-0.740983
O14	O	1.283521	0.570500	-0.570649
O15	O	1.582980	0.441397	-0.741014
O16	O	1.582802	0.740887	-0.441590
O17	O	1.453785	0.740830	-0.570631
C18	C	1.518309	0.778979	-0.506126
C19	C	1.518378	0.895756	-0.506151
C20	C	1.245405	0.505999	-0.506134
C21	C	1.128628	0.506019	-0.506151
C22	C	1.518444	0.505903	-0.780185
C23	C	1.518474	0.505857	-0.896962
C24	C	1.128657	0.640563	-0.640290
C25	C	1.073810	0.707843	-0.707362
C26	C	0.964088	0.707856	-0.707375
C27	C	0.909211	0.640579	-0.640310
C28	C	0.964057	0.573299	-0.573238
C29	C	1.073782	0.573296	-0.573230
C30	C	0.964029	0.438751	-0.439106
C31	C	1.073751	0.438742	-0.439086
C32	C	0.909151	0.371474	-0.372042
C33	C	0.963998	0.304198	-0.304962
C34	C	1.073726	0.304189	-0.304951
C35	C	1.128597	0.371462	-0.372014
C36	C	1.792406	0.506026	-0.506170
C37	C	1.909182	0.506031	-0.506178
C38	C	1.518464	0.231979	-0.506200
C39	C	1.518503	0.115202	-0.506221
C40	C	1.652824	0.895763	-0.371881
C41	C	1.720074	0.950627	-0.304758
C42	C	1.720136	1.060348	-0.304786
C43	C	1.652942	1.115208	-0.371947
C44	C	1.585692	1.060344	-0.439070
C45	C	1.585636	0.950620	-0.439032
C46	C	1.451253	1.060338	-0.573343
C47	C	1.451185	0.950616	-0.573311
C48	C	1.384060	1.115198	-0.640504
C49	C	1.316803	1.060334	-0.707623
C50	C	1.316743	0.950606	-0.707591
C51	C	1.383935	0.895752	-0.640434
C52	C	1.384148	0.371462	-0.896996
C53	C	1.317004	0.304243	-0.951873
C54	C	1.317036	0.304205	-1.061595
C55	C	1.384216	0.371395	-1.116441
C56	C	1.451360	0.438614	-1.061564
C57	C	1.451323	0.438642	-0.951840
C58	C	1.585679	0.573013	-1.061530
C59	C	1.585654	0.573047	-0.951809
C60	C	1.652859	0.640203	-1.116377
C61	C	1.720010	0.707418	-1.061500
C62	C	1.719976	0.707453	-0.951771
C63	C	1.652798	0.640266	-0.896931
C64	C	1.518362	0.506044	-0.233184
C65	C	1.518535	0.505794	-0.116408
H66	H	1.217998	0.640567	-0.640278
H67	H	1.774656	0.762187	-0.907096
H68	H	1.774902	1.105018	-0.250135
O69	O	1.246940	0.371461	-0.371997
H70	H	1.275901	0.292243	-0.393368
H71	H	1.262360	0.249471	-1.106276
O72	O	1.383851	0.777409	-0.640406
H73	H	1.463064	0.748385	-0.661700
O74	O	1.653003	1.233551	-0.371982
H75	H	1.711051	1.262485	-0.314022
H76	H	1.118376	0.249393	-0.250340
O77	O	1.792449	0.779888	-1.120659
H78	H	1.839131	0.826641	-1.064069
O79	O	1.652911	0.640104	-1.234720
H80	H	1.732183	0.618861	-1.263619
O81	O	0.904806	0.231640	-0.232642
H82	H	0.961374	0.184851	-0.186000
O83	O	1.652765	0.640305	-0.778588
H84	H	1.594767	0.582298	-0.749674
H85	H	1.384226	0.371368	-1.205783
O86	O	1.384123	0.371499	-0.778653
H87	H	1.326129	0.313491	-0.749734
H88	H	1.652767	0.806422	-0.371837
H89	H	1.262104	1.105009	-0.762305
O90	O	1.792567	0.891460	-0.232341
H91	H	1.781231	0.805946	-0.243595
H92	H	1.118503	0.762617	-0.761966
H93	H	1.384119	1.204539	-0.640527
H94	H	0.919433	0.762636	-0.761996
H95	H	1.262305	0.249541	-0.907205
H96	H	0.819870	0.640586	-0.640336
H97	H	0.819810	0.371485	-0.372061
H98	H	1.261984	0.905941	-0.762254
