data_functionalizedCrystal
_audit_creation_method	'MofGen! by Chris Wilmer'
_symmetry_space_group_name_H-M	'P1'
_symmetry_Int_Tables_number	1
_symmetry_cell_setting	triclinic
loop_
_symmetry_equiv_pos_as_xyz
  x,y,z
_cell_length_a	21.395362
_cell_length_b	19.121063
_cell_length_c	21.395355
_cell_angle_alpha	87.579260
_cell_angle_beta	90.043940
_cell_angle_gamma	92.485681
loop_
_atom_site_label
_atom_site_type_symbol
_atom_site_fract_x
_atom_site_fract_y
_atom_site_fract_z
Zn1	Zn	0.947241	-0.279403	0.365205
Zn2	Zn	1.447241	0.220597	0.865205
Zn3	Zn	0.942680	-0.396839	0.264891
Zn4	Zn	1.442680	0.103161	0.764891
Zn5	Zn	0.842454	-0.279436	0.260407
Zn6	Zn	1.342454	0.220564	0.760407
Zn7	Zn	0.837961	-0.396853	0.369596
Zn8	Zn	1.337961	0.103147	0.869596
O9	O	0.892584	-0.338133	0.315025
O10	O	1.392584	0.161867	0.815025
O11	O	1.034314	-0.294962	0.351936
O12	O	1.534314	0.205038	0.851936
O13	O	0.929357	-0.381273	0.176618
O14	O	1.429357	0.118727	0.676618
O15	O	0.860144	-0.181145	0.270595
O16	O	1.360144	0.318855	0.770595
O17	O	1.030964	-0.381241	0.278236
O18	O	1.530964	0.118759	0.778236
O19	O	0.937130	-0.181121	0.347589
O20	O	1.437130	0.318879	0.847589
O21	O	0.855721	-0.295017	0.173324
O22	O	1.355721	0.204983	0.673324
O23	O	0.754180	-0.295031	0.274853
O24	O	1.254180	0.204969	0.774853
O25	O	0.852486	-0.381266	0.456691
O26	O	1.352486	0.118734	0.956691
O27	O	0.750879	-0.381297	0.355073
O28	O	1.250879	0.118703	0.855073
O29	O	0.932773	-0.294976	0.453465
O30	O	1.432773	0.205024	0.953465
O31	O	0.925000	-0.495127	0.282494
O32	O	1.425000	0.004873	0.782494
O33	O	0.848063	-0.495138	0.359420
O34	O	1.348063	0.004862	0.859420
C35	C	0.729795	-0.338170	0.314953
C36	C	1.229795	0.161830	0.814953
C37	C	0.660152	-0.338203	0.314938
C38	C	1.160152	0.161797	0.814938
C39	C	0.625735	-0.383181	0.356651
C40	C	1.125735	0.116819	0.856651
C41	C	0.560300	-0.383164	0.356679
C42	C	1.060300	0.116836	0.856679
C43	C	0.529285	-0.338176	0.314982
C44	C	1.029285	0.161824	0.814982
C45	C	0.563711	-0.293189	0.273266
C46	C	1.063711	0.206811	0.773266
C47	C	0.629145	-0.293202	0.273244
C48	C	1.129145	0.206798	0.773244
C49	C	0.425776	-0.332517	0.258362
C50	C	0.925776	0.167483	0.758362
C51	C	0.360343	-0.332509	0.258383
C52	C	0.860343	0.167491	0.758383
C53	C	0.327466	-0.338130	0.315049
C54	C	0.827466	0.161870	0.815049
C55	C	0.360030	-0.343774	0.371698
C56	C	0.860030	0.156226	0.871698
C57	C	0.425463	-0.343788	0.371676
C58	C	0.925463	0.156212	0.871676
C59	C	0.458334	-0.338156	0.315001
C60	C	0.958334	0.161844	0.815001
C61	C	0.222096	-0.383092	0.356795
C62	C	0.722096	0.116908	0.856795
C63	C	0.156661	-0.383070	0.356824
C64	C	0.656661	0.116930	0.856824
C65	C	0.160073	-0.293098	0.273405
C66	C	0.660073	0.206902	0.773405
C67	C	0.225508	-0.293117	0.273383
C68	C	0.725508	0.206883	0.773383
C69	C	0.256516	-0.338117	0.315077
C70	C	0.756516	0.161883	0.815077
C71	C	0.885566	-0.520617	0.321934
C72	C	1.385566	-0.020617	0.821934
C73	C	0.882621	-0.598685	0.324911
C74	C	1.382621	-0.098685	0.824911
C75	C	0.921325	-0.635332	0.286291
C76	C	1.421325	-0.135332	0.786291
C77	C	0.918559	-0.708685	0.289094
C78	C	1.418559	-0.208685	0.789094
C79	C	0.877085	-0.745389	0.330515
C80	C	1.377085	-0.245389	0.830515
C81	C	0.838379	-0.708736	0.369139
C82	C	1.338379	-0.208736	0.869139
C83	C	0.841149	-0.635385	0.366338
C84	C	1.341149	-0.135385	0.866338
C85	C	0.866720	-0.966864	0.340976
C86	C	1.366720	-0.466864	0.840976
C87	C	0.863952	-1.040221	0.343772
C88	C	1.363952	-0.540221	0.843772
C89	C	0.944133	-1.040164	0.263728
C90	C	1.444133	-0.540164	0.763728
C91	C	0.946896	-0.966812	0.260928
C92	C	1.446896	-0.466812	0.760928
C93	C	0.908193	-0.930165	0.299555
C94	C	1.408193	-0.430165	0.799555
C95	C	0.874256	-0.820367	0.333380
C96	C	1.374256	-0.320367	0.833380
C97	C	0.911026	-0.855188	0.296692
C98	C	1.411026	-0.355188	0.796692
C99	C	1.056009	-0.338096	0.315097
C100	C	1.556009	0.161904	0.815097
C101	C	1.125651	-0.338080	0.315127
C102	C	1.625651	0.161920	0.815127
C103	C	0.892637	-0.338119	0.478447
C104	C	1.392637	0.161881	0.978447
C105	C	0.892659	-0.338112	0.548089
C106	C	1.392659	0.161888	1.048089
C107	C	0.899647	-0.154936	0.308102
C108	C	1.399647	0.345064	0.808102
C109	C	0.902656	-0.076868	0.305152
C110	C	1.402656	0.423132	0.805152
C111	C	0.892570	-0.338096	0.152236
C112	C	1.392570	0.161904	0.652236
C113	C	0.892676	-0.337904	0.082588
C114	C	1.392676	0.162096	0.582588
C115	C	0.934463	-0.293179	0.579123
C116	C	1.434463	0.206821	1.079123
C117	C	0.934463	-0.293149	0.644557
C118	C	1.434463	0.206851	1.144557
C119	C	0.892666	-0.338065	0.678955
C120	C	1.392666	0.161935	1.178955
C121	C	0.850854	-0.383001	0.647913
C122	C	1.350854	0.116999	1.147913
C123	C	0.850851	-0.383025	0.582480
C124	C	1.350851	0.116975	1.082480
C125	C	0.885286	-0.401308	0.785023
C126	C	1.385286	0.098692	1.285023
C127	C	0.885294	-0.401285	0.850455
C128	C	1.385294	0.098715	1.350455
C129	C	0.892672	-0.337990	0.880773
C130	C	1.392672	0.162010	1.380773
C131	C	0.900056	-0.274717	0.845651
C132	C	1.400056	0.225283	1.345651
C133	C	0.900053	-0.274741	0.780218
C134	C	1.400053	0.225259	1.280218
C135	C	0.892664	-0.338043	0.749907
C136	C	1.392664	0.161957	1.249907
C137	C	0.934479	-0.293021	0.982759
C138	C	1.434479	0.206979	1.482759
C139	C	0.934475	-0.292989	1.048194
C140	C	1.434475	0.207011	1.548194
C141	C	0.850869	-0.382847	1.051549
C142	C	1.350869	0.117153	1.551549
C143	C	0.850870	-0.382872	0.986115
C144	C	1.350870	0.117128	1.486115
C145	C	0.892678	-0.337960	0.951723
C146	C	1.392678	0.162040	1.451723
H147	H	0.538455	-0.256558	0.239317
H148	H	1.038455	0.243442	0.739317
N149	N	0.977152	-0.247295	0.543984
N150	N	1.477152	0.252705	1.043984
N151	N	0.977141	-0.247315	0.485562
N152	N	1.477141	0.252685	0.985562
H153	H	1.007288	-0.214907	0.460743
H154	H	1.507288	0.285093	0.960743
H155	H	0.840486	-0.850260	0.367103
H156	H	1.340486	-0.350260	0.867103
H157	H	0.944797	-0.825302	0.262970
H158	H	1.444797	-0.325302	0.762970
H159	H	0.955095	-0.605453	0.252559
H160	H	1.455095	-0.105453	0.752559
N161	N	0.327093	-0.326754	0.200515
N162	N	0.827093	0.173246	0.700515
N163	N	0.356452	-0.321728	0.149924
N164	N	0.856452	0.178272	0.649924
H165	H	0.332971	-0.317665	0.109053
H166	H	0.832971	0.182335	0.609053
H167	H	0.980668	-0.936929	0.227201
H168	H	1.480668	-0.436929	0.727201
H169	H	0.950076	-0.738520	0.257645
H170	H	1.450076	-0.238520	0.757645
N171	N	0.983658	-1.077600	0.224269
N172	N	1.483658	-0.577600	0.724269
N173	N	0.960085	-1.118578	0.185879
N174	N	1.460085	-0.618578	0.685879
H175	H	0.988001	-1.145018	0.158010
H176	H	1.488001	-0.645018	0.658010
H177	H	0.816820	-0.419569	0.675924
H178	H	1.316820	0.080431	1.175924
N179	N	0.977170	-0.247078	1.079896
N180	N	1.477170	0.252922	1.579896
N181	N	0.975517	-0.182271	1.070119
N182	N	1.475517	0.317729	1.570119
H183	H	1.005671	-0.149844	1.092509
H184	H	1.505671	0.350156	1.592509
H185	H	0.830186	-1.070103	0.377512
H186	H	1.330186	-0.570103	0.877512
N187	N	0.907596	-0.210108	0.744351
N188	N	1.407596	0.289892	1.244351
N189	N	0.914186	-0.153597	0.771422
N190	N	1.414186	0.346403	1.271422
H191	H	0.919512	-0.107948	0.746092
H192	H	1.419512	0.392052	1.246092
H193	H	0.968519	-0.256447	0.954755
H194	H	1.468519	0.243553	1.454755
N195	N	0.827182	-0.929448	0.380434
N196	N	1.327182	-0.429448	0.880434
N197	N	0.790154	-0.962231	0.417411
N198	N	1.290154	-0.462231	0.917411
H199	H	0.762228	-0.935804	0.445281
H200	H	1.262228	-0.435804	0.945281
N201	N	0.808141	-0.428927	0.550786
N202	N	1.308141	0.071073	1.050786
N203	N	0.770819	-0.469024	0.581501
N204	N	1.270819	0.030976	1.081501
H205	H	0.740655	-0.501444	0.559117
H206	H	1.240655	-0.001444	1.059117
N207	N	0.260669	-0.247189	0.230759
N208	N	0.760669	0.252811	0.730759
N209	N	0.296176	-0.271846	0.191718
N210	N	0.796176	0.228154	0.691718
H211	H	0.321008	-0.239407	0.161613
H212	H	0.821008	0.260593	0.661613
N213	N	0.801603	-0.597949	0.405777
N214	N	1.301603	-0.097949	0.905777
N215	N	0.763230	-0.557080	0.382122
N216	N	1.263230	-0.057080	0.882122
H217	H	0.735300	-0.530641	0.409978
H218	H	1.235300	-0.030641	0.909978
N219	N	0.796023	-0.746237	0.411451
N220	N	1.296023	-0.246237	0.911451
N221	N	0.793556	-0.811728	0.413947
N222	N	1.293556	-0.311728	0.913947
H223	H	0.763640	-0.838213	0.443831
H224	H	1.263640	-0.338213	0.943831
H225	H	0.968504	-0.256556	0.669830
H226	H	1.468504	0.243444	1.169830
H227	H	0.816830	-0.419411	1.079555
H228	H	1.316830	0.080589	1.579555
N229	N	0.877711	-0.465916	0.886318
N230	N	1.377711	0.034084	1.386318
N231	N	0.871084	-0.522420	0.859243
N232	N	1.371084	-0.022420	1.359243
H233	H	0.865710	-0.568066	0.884569
H234	H	1.365710	-0.068066	1.384569
N235	N	0.907593	-0.210063	0.876621
N236	N	1.407593	0.289937	1.376621
N237	N	0.907589	-0.210047	0.935043
N238	N	1.407589	0.289953	1.435043
H239	H	0.912912	-0.164388	0.956919
H240	H	1.412912	0.335612	1.456919
H241	H	0.816832	-0.419466	0.960847
H242	H	1.316832	0.080534	1.460847
N243	N	0.326451	-0.349502	0.429584
N244	N	0.826451	0.150498	0.929584
N245	N	0.335558	-0.304347	0.469557
N246	N	0.835558	0.195653	0.969557
H247	H	0.311839	-0.308394	0.510437
H248	H	0.811839	0.191606	1.010437
H249	H	0.650977	-0.419823	0.390603
H250	H	1.150977	0.080177	0.890603
N251	N	0.253765	-0.429061	0.399387
N252	N	0.753765	0.070939	0.899387
N253	N	0.223023	-0.469214	0.436632
N254	N	0.723023	0.030786	0.936632
H255	H	0.245387	-0.501681	0.466713
H256	H	0.745387	-0.001681	0.966713
H257	H	0.879111	-0.452836	0.760343
H258	H	1.379111	0.047164	1.260343
H259	H	0.657168	-0.256574	0.239276
H260	H	1.157168	0.243426	0.739276
N261	N	0.121511	-0.429014	0.399445
N262	N	0.621511	0.070986	0.899445
N263	N	0.149208	-0.469185	0.436667
N264	N	0.649208	0.030815	0.936667
H265	H	0.124383	-0.501634	0.466770
H266	H	0.624383	-0.001634	0.966770
H267	H	0.451974	-0.348381	0.417801
H268	H	0.951974	0.151619	0.917801
N269	N	0.525142	-0.429123	0.399286
N270	N	1.025142	0.070877	0.899286
N271	N	0.529926	-0.493927	0.397478
N272	N	1.029926	0.006073	0.897478
H273	H	0.505098	-0.526387	0.427569
H274	H	1.005098	-0.026387	0.927569
N275	N	0.128392	-0.247140	0.230824
N276	N	0.628392	0.252860	0.730824
N277	N	0.069969	-0.247128	0.230851
N278	N	0.569969	0.252872	0.730851
H279	H	0.047590	-0.214666	0.200780
H280	H	0.547590	0.285334	0.700780
H281	H	0.452538	-0.327937	0.212214
H282	H	0.952538	0.172063	0.712214
