data_functionalizedCrystal
_audit_creation_method	'MofGen! by Chris Wilmer'
_symmetry_space_group_name_H-M	'P1'
_symmetry_Int_Tables_number	1
_symmetry_cell_setting	triclinic
loop_
_symmetry_equiv_pos_as_xyz
  x,y,z
_cell_length_a	29.839134
_cell_length_b	29.839131
_cell_length_c	29.839104
_cell_angle_alpha	89.871467
_cell_angle_beta	89.921457
_cell_angle_gamma	90.021992
loop_
_atom_site_label
_atom_site_type_symbol
_atom_site_fract_x
_atom_site_fract_y
_atom_site_fract_z
Zn1	Zn	0.687014	-0.178658	-0.254009
Zn2	Zn	0.686859	-0.253915	-0.178878
Zn3	Zn	0.611810	-0.178774	-0.178891
Zn4	Zn	0.611844	-0.253736	-0.253980
O5	O	0.649382	-0.216271	-0.216439
O6	O	0.749860	-0.188667	-0.244049
O7	O	0.676824	-0.244071	-0.116013
O8	O	0.621836	-0.115892	-0.188873
O9	O	0.749747	-0.243958	-0.188851
O10	O	0.677088	-0.115806	-0.244061
O11	O	0.621686	-0.188866	-0.116022
O12	O	0.548947	-0.188692	-0.188845
O13	O	0.621895	-0.243653	-0.316851
O14	O	0.548973	-0.243766	-0.244012
O15	O	0.677122	-0.188493	-0.316872
O16	O	0.676858	-0.316759	-0.188823
O17	O	0.621745	-0.316627	-0.244000
C18	C	0.532659	-0.216223	-0.216427
C19	C	0.482725	-0.216213	-0.216432
C20	C	0.126193	-0.187540	-0.245238
C21	C	0.313866	-0.187504	-0.245227
O22	O	0.338177	-0.163069	-0.269716
N23	N	0.337280	-0.216242	-0.216443
C24	C	0.313772	-0.244993	-0.187661
O25	O	0.337993	-0.269439	-0.163181
C26	C	0.126100	-0.245031	-0.187674
C27	C	0.102689	-0.216288	-0.216457
C28	C	0.102781	-0.158800	-0.274019
C29	C	0.055866	-0.158808	-0.274019
C30	C	0.032362	-0.187556	-0.245239
C31	C	0.055773	-0.216296	-0.216458
C32	C	0.102594	-0.273785	-0.158895
C33	C	0.055672	-0.273792	-0.158902
C34	C	0.032261	-0.245049	-0.187685
C35	C	-0.014646	-0.245052	-0.187678
N36	N	-0.038060	-0.216314	-0.216462
C37	C	-0.014556	-0.187566	-0.245243
C38	C	0.412303	-0.244971	-0.187656
C39	C	0.459221	-0.244961	-0.187652
C40	C	0.459311	-0.187472	-0.245219
C41	C	0.412392	-0.187480	-0.245220
C42	C	0.388889	-0.216233	-0.216440
C43	C	-0.113082	-0.187583	-0.245241
C44	C	-0.160002	-0.187592	-0.245238
C45	C	-0.160088	-0.245082	-0.187673
C46	C	-0.113172	-0.245072	-0.187675
C47	C	-0.089670	-0.216321	-0.216462
O48	O	-0.038987	-0.269478	-0.163205
O49	O	-0.038785	-0.163131	-0.269726
C50	C	0.173108	-0.187533	-0.245237
C51	C	0.196520	-0.216273	-0.216456
C52	C	0.173016	-0.245021	-0.187675
C53	C	0.243437	-0.216263	-0.216452
C54	C	0.266941	-0.187515	-0.245232
C55	C	0.243528	-0.158777	-0.274017
C56	C	0.196612	-0.158785	-0.274017
C57	C	0.196429	-0.273759	-0.158891
C58	C	0.243345	-0.273749	-0.158893
C59	C	0.266849	-0.245001	-0.187673
C60	C	0.649301	-0.332993	-0.216417
C61	C	0.649307	-0.382928	-0.216423
C62	C	0.678131	-0.692627	-0.187751
C63	C	0.678187	-0.880300	-0.187768
O64	O	0.702630	-0.904612	-0.163373
N65	N	0.649475	-0.903713	-0.216473
C66	C	0.620749	-0.880205	-0.245178
O67	O	0.596333	-0.904425	-0.269597
C68	C	0.620696	-0.692532	-0.245163
C69	C	0.649407	-0.669122	-0.216452
C70	C	0.706840	-0.669217	-0.159043
C71	C	0.706824	-0.622301	-0.159038
C72	C	0.678099	-0.598796	-0.187739
C73	C	0.649391	-0.622207	-0.216447
C74	C	0.591973	-0.669025	-0.273869
C75	C	0.591963	-0.622104	-0.273864
C76	C	0.620674	-0.598693	-0.245154
C77	C	0.620651	-0.551786	-0.245142
N78	N	0.649362	-0.528373	-0.216437
C79	C	0.678087	-0.551878	-0.187736
C80	C	0.620778	-0.978735	-0.245184
C81	C	0.620791	-1.025653	-0.245187
C82	C	0.678229	-1.025745	-0.187778
C83	C	0.678214	-0.978827	-0.187772
C84	C	0.649490	-0.955322	-0.216479
C85	C	0.678051	-0.453353	-0.187726
C86	C	0.678031	-0.406433	-0.187721
C87	C	0.620595	-0.406345	-0.245132
C88	C	0.620613	-0.453260	-0.245135
C89	C	0.649345	-0.476763	-0.216430
O90	O	0.596224	-0.527445	-0.269528
O91	O	0.702507	-0.527650	-0.163327
C92	C	0.678147	-0.739542	-0.187757
C93	C	0.649439	-0.762953	-0.216464
C94	C	0.620714	-0.739448	-0.245166
C95	C	0.649451	-0.809871	-0.216467
C96	C	0.678176	-0.833376	-0.187766
C97	C	0.706887	-0.809963	-0.159061
C98	C	0.706872	-0.763048	-0.159055
C99	C	0.592002	-0.762861	-0.273871
C100	C	0.592020	-0.809776	-0.273874
C101	C	0.620745	-0.833281	-0.245172
C102	C	0.766560	-0.216320	-0.216452
C103	C	0.816494	-0.216340	-0.216458
C104	C	0.649530	-0.216040	-0.333618
C105	C	0.649593	-0.215942	-0.383553
C106	C	0.649475	-0.099092	-0.216472
C107	C	0.649515	-0.049158	-0.216485
C108	C	0.649260	-0.216468	-0.099716
C109	C	0.649284	-0.216440	-0.049782
C110	C	0.620515	-0.187666	0.259837
C111	C	0.620602	-0.187528	0.447510
O112	O	0.596036	-0.163232	0.471755
N113	N	0.649527	-0.216046	0.471002
C114	C	0.678435	-0.244597	0.447573
O115	O	0.703042	-0.268846	0.471861
C116	C	0.678350	-0.244731	0.259901
C117	C	0.649420	-0.216216	0.236412
C118	C	0.591588	-0.159152	0.236347
C119	C	0.591564	-0.159188	0.189432
C120	C	0.620469	-0.187738	0.166006
C121	C	0.649396	-0.216252	0.189496
C122	C	0.707259	-0.273280	0.236473
C123	C	0.707236	-0.273310	0.189552
C124	C	0.678306	-0.244795	0.166063
C125	C	0.678278	-0.244838	0.119155
N126	N	0.649353	-0.216321	0.095663
C127	C	0.620448	-0.187771	0.119089
C128	C	0.678476	-0.244525	0.546104
C129	C	0.678497	-0.244492	0.593022
C130	C	0.620665	-0.187423	0.592955
C131	C	0.620642	-0.187458	0.546036
C132	C	0.649551	-0.216008	0.522612
C133	C	0.620402	-0.187850	0.020563
C134	C	0.620380	-0.187890	-0.026356
C135	C	0.678214	-0.244957	-0.026286
C136	C	0.678234	-0.244919	0.020630
C137	C	0.649326	-0.216362	0.044053
O138	O	0.702834	-0.269119	0.094882
O139	O	0.595851	-0.163519	0.094793
C140	C	0.620538	-0.187629	0.306753
C141	C	0.649466	-0.216143	0.330242
C142	C	0.678370	-0.244693	0.306817
C143	C	0.649486	-0.216110	0.377160
C144	C	0.620582	-0.187560	0.400586
C145	C	0.591657	-0.159043	0.377094
C146	C	0.591634	-0.159079	0.330178
C147	C	0.707295	-0.273210	0.330309
C148	C	0.707316	-0.273172	0.377224
C149	C	0.678411	-0.244622	0.400650
H150	H	-0.179233	-0.268486	-0.164239
C151	C	0.738439	-0.695066	-0.127467
C152	C	0.734743	-0.688727	-0.076393
C153	C	0.766343	-0.714572	-0.044811
C154	C	0.801638	-0.746757	-0.064303
C155	C	0.805335	-0.753098	-0.115380
C156	C	0.773736	-0.727252	-0.146962
H157	H	0.708614	-0.664901	-0.061961
H158	H	0.763605	-0.709878	-0.007000
H159	H	0.825030	-0.765889	-0.040925
H160	H	0.831464	-0.776924	-0.129812
H161	H	0.776473	-0.731946	-0.184772
C162	C	0.560392	-0.694766	-0.305455
C163	C	0.509318	-0.688350	-0.301748
C164	C	0.477735	-0.714089	-0.333337
C165	C	0.497227	-0.746244	-0.368634
C166	C	0.548304	-0.752661	-0.372342
C167	C	0.579887	-0.726922	-0.340753
H168	H	0.494886	-0.664546	-0.275619
H169	H	0.439924	-0.709339	-0.330592
H170	H	0.473848	-0.765298	-0.392018
H171	H	0.562736	-0.776465	-0.398471
H172	H	0.617698	-0.731673	-0.343498
H173	H	0.701448	-0.472483	-0.164353
C174	C	0.560436	-0.835524	-0.305458
C175	C	0.509360	-0.829115	-0.301749
C176	C	0.477780	-0.854860	-0.333336
C177	C	0.497275	-0.887014	-0.368631
C178	C	0.548353	-0.893424	-0.372341
C179	C	0.579933	-0.867679	-0.340755
H180	H	0.494926	-0.805311	-0.275621
H181	H	0.439968	-0.850115	-0.330589
H182	H	0.473897	-0.906072	-0.392013
H183	H	0.562787	-0.917228	-0.398470
H184	H	0.617745	-0.872424	-0.343501
C185	C	-0.087418	-0.276687	-0.156011
C186	C	-0.055148	-0.311947	-0.175415
C187	C	-0.029399	-0.343567	-0.143755
C188	C	-0.035920	-0.339927	-0.092689
C189	C	-0.068191	-0.304665	-0.073282
C190	C	-0.093941	-0.273046	-0.104943
H191	H	-0.050320	-0.314643	-0.213219
H192	H	-0.005510	-0.369670	-0.158121
H193	H	-0.016859	-0.363334	-0.069252
H194	H	-0.073020	-0.301970	-0.035478
H195	H	-0.117830	-0.246943	-0.090576
C196	C	0.739099	-0.304639	0.262297
C197	C	0.774264	-0.284894	0.294415
C198	C	0.806112	-0.316251	0.320234
C199	C	0.802797	-0.367352	0.313936
C200	C	0.767630	-0.387099	0.281816
C201	C	0.735782	-0.355743	0.255997
H202	H	0.776720	-0.247064	0.299078
H203	H	0.832145	-0.301632	0.344011
H204	H	0.826373	-0.390564	0.333049
H205	H	0.765175	-0.424930	0.277153
H206	H	0.709749	-0.370361	0.232220
H207	H	0.036808	-0.135404	-0.297459
C208	C	0.170865	-0.127169	-0.305683
C209	C	0.177395	-0.130815	-0.356747
C210	C	0.151652	-0.099198	-0.388416
C211	C	0.119378	-0.063936	-0.369021
C212	C	0.112847	-0.060289	-0.317954
C213	C	0.138590	-0.091906	-0.286286
H214	H	0.201287	-0.156919	-0.371106
H215	H	0.156487	-0.101898	-0.426218
H216	H	0.100322	-0.040532	-0.392464
H217	H	0.088955	-0.034185	-0.303595
H218	H	0.133755	-0.089206	-0.248483
H219	H	0.702051	-0.267716	0.612143
C220	C	0.560364	-0.596250	-0.305441
C221	C	0.579835	-0.563900	-0.340728
C222	C	0.548235	-0.538048	-0.372304
C223	C	0.497165	-0.544546	-0.368592
C224	C	0.477691	-0.576898	-0.333304
C225	C	0.509291	-0.602750	-0.301728
H226	H	0.617643	-0.559088	-0.343477
H227	H	0.562652	-0.514099	-0.398426
H228	H	0.473772	-0.525409	-0.391966
H229	H	0.439883	-0.581710	-0.330555
H230	H	0.494874	-0.626699	-0.275605
C231	C	0.709799	-0.953078	-0.156194
C232	C	0.745073	-0.920757	-0.175690
C233	C	0.776660	-0.895011	-0.144111
C234	C	0.772974	-0.901586	-0.093037
C235	C	0.737698	-0.933908	-0.073538
C236	C	0.706111	-0.959654	-0.105117
H237	H	0.747803	-0.915889	-0.213500
H238	H	0.802774	-0.871084	-0.158545
H239	H	0.796357	-0.882527	-0.069660
H240	H	0.734968	-0.938776	-0.035728
H241	H	0.679998	-0.983580	-0.090683
C242	C	0.589001	-0.380482	-0.276703
C243	C	0.553715	-0.348293	-0.257201
C244	C	0.522124	-0.322428	-0.288775
C245	C	0.525819	-0.328753	-0.339851
C246	C	0.561106	-0.360943	-0.359356
C247	C	0.592697	-0.386808	-0.327782
H248	H	0.550978	-0.343610	-0.219389
H249	H	0.496002	-0.298599	-0.274336
H250	H	0.502433	-0.309606	-0.363224
H251	H	0.563843	-0.365626	-0.397168
H252	H	0.618820	-0.410637	-0.342221
H253	H	0.597236	-0.472322	-0.268514
C254	C	-0.087235	-0.155954	-0.276905
C255	C	-0.055003	-0.120684	-0.257499
C256	C	-0.029157	-0.089052	-0.289159
C257	C	-0.035543	-0.092690	-0.340224
C258	C	-0.067776	-0.127962	-0.359632
C259	C	-0.093623	-0.159594	-0.327972
H260	H	-0.050275	-0.117990	-0.219696
H261	H	-0.005296	-0.062942	-0.274792
H262	H	-0.016410	-0.069274	-0.363661
H263	H	-0.072505	-0.130656	-0.397436
H264	H	-0.117484	-0.185704	-0.342339
H265	H	0.568120	-0.135798	0.396175
H266	H	0.730250	-0.743990	-0.135677
C267	C	0.269388	-0.127155	-0.305676
C268	C	0.301689	-0.146606	-0.340907
C269	C	0.327552	-0.114987	-0.372567
C270	C	0.321115	-0.063917	-0.368995
C271	C	0.288812	-0.044463	-0.333762
C272	C	0.262949	-0.076082	-0.302103
H273	H	0.306456	-0.184413	-0.343553
H274	H	0.351465	-0.129388	-0.398648
H275	H	0.340260	-0.040511	-0.392431
H276	H	0.284045	-0.006656	-0.331117
H277	H	0.239037	-0.061680	-0.276022
C278	C	0.588556	-0.156519	-0.052194
C279	C	0.537513	-0.160528	-0.045633
C280	C	0.505691	-0.129157	-0.071469
C281	C	0.524913	-0.093777	-0.103865
C282	C	0.575959	-0.089767	-0.110428
C283	C	0.607781	-0.121138	-0.084592
H284	H	0.523281	-0.186719	-0.021650
H285	H	0.467903	-0.132126	-0.066610
H286	H	0.501357	-0.070555	-0.122991
H287	H	0.590191	-0.063576	-0.134411
H288	H	0.645569	-0.118169	-0.089451
H289	H	0.597130	-0.164176	0.612036
H290	H	0.478456	-0.164063	-0.268652
H291	H	0.730874	-0.296397	0.396346
C292	C	-0.185753	-0.155975	-0.276903
C293	C	-0.179229	-0.159619	-0.327968
C294	C	-0.204978	-0.128003	-0.359633
C295	C	-0.237250	-0.092743	-0.340233
C296	C	-0.243775	-0.089097	-0.289166
C297	C	-0.218027	-0.120713	-0.257501
H298	H	-0.155338	-0.185722	-0.342331
H299	H	-0.200147	-0.130702	-0.397436
H300	H	-0.256311	-0.069339	-0.363673
H301	H	-0.267667	-0.062994	-0.274803
H302	H	-0.222857	-0.118014	-0.219698
H303	H	0.701618	-1.044891	-0.164408
H304	H	0.596864	-0.164595	0.039629
H305	H	0.701795	-0.268135	0.039756
H306	H	0.568007	-0.135967	0.170311
H307	H	0.262402	-0.297154	-0.135450
C308	C	0.170580	-0.305383	-0.127228
C309	C	0.176968	-0.301734	-0.076164
C310	C	0.151121	-0.333359	-0.044497
C311	C	0.118887	-0.368632	-0.063893
C312	C	0.112498	-0.372282	-0.114960
C313	C	0.138345	-0.340657	-0.146627
H314	H	0.200831	-0.275622	-0.061803
H315	H	0.155851	-0.330656	-0.006694
H316	H	0.099754	-0.392042	-0.040451
H317	H	0.088635	-0.398394	-0.129321
H318	H	0.133615	-0.343360	-0.184431
H319	H	0.121913	-0.135390	-0.297457
H320	H	0.393334	-0.164075	-0.268657
H321	H	0.702019	-0.267775	0.527036
C322	C	0.709616	-0.380683	-0.156139
C323	C	0.705931	-0.387261	-0.105065
C324	C	0.737515	-0.361512	-0.073485
C325	C	0.772785	-0.329186	-0.092979
C326	C	0.776472	-0.322607	-0.144056
C327	C	0.744887	-0.348355	-0.175636
H328	H	0.679821	-0.411192	-0.090632
H329	H	0.734786	-0.366383	-0.035675
H330	H	0.796166	-0.310126	-0.069602
H331	H	0.802582	-0.298676	-0.158489
H332	H	0.747617	-0.343484	-0.213446
H333	H	0.730275	-0.829109	-0.135690
C334	C	0.738411	-0.596556	-0.127459
C335	C	0.734728	-0.603136	-0.076385
C336	C	0.766320	-0.577395	-0.044806
C337	C	0.801594	-0.545074	-0.064301
C338	C	0.805278	-0.538493	-0.115377
C339	C	0.773687	-0.564233	-0.146957
H340	H	0.708615	-0.627063	-0.061952
H341	H	0.763592	-0.582267	-0.006996
H342	H	0.824980	-0.526019	-0.040924
H343	H	0.831392	-0.514565	-0.129811
H344	H	0.776415	-0.559361	-0.184767
C345	C	0.559787	-0.127745	0.262110
C346	C	0.563115	-0.076654	0.255496
C347	C	0.531309	-0.045248	0.281254
C348	C	0.496175	-0.064933	0.313626
C349	C	0.492845	-0.116026	0.320242
C350	C	0.524651	-0.147432	0.294484
H351	H	0.589125	-0.062080	0.231530
H352	H	0.533774	-0.007426	0.276356
H353	H	0.472630	-0.041684	0.332694
H354	H	0.466835	-0.130600	0.344207
H355	H	0.522186	-0.185255	0.299381
H356	H	0.597408	-1.044710	-0.268561
H357	H	0.597387	-0.959601	-0.268560
H358	H	0.478278	-0.268361	-0.164209
H359	H	0.568612	-0.743726	-0.297244
H360	H	0.730779	-0.296558	0.170482
C361	C	0.588822	-0.156088	0.520200
C362	C	0.537778	-0.160099	0.526758
C363	C	0.505957	-0.128727	0.500924
C364	C	0.525179	-0.093343	0.468532
C365	C	0.576225	-0.089330	0.461973
C366	C	0.608047	-0.120703	0.487806
H367	H	0.523546	-0.186293	0.550738
H368	H	0.468169	-0.131697	0.505780
H369	H	0.501623	-0.070119	0.449408
H370	H	0.590457	-0.063136	0.437993
H371	H	0.645835	-0.117732	0.482950
H372	H	0.393171	-0.268386	-0.164218
H373	H	0.121647	-0.297190	-0.135457
H374	H	0.701745	-0.268204	-0.045367
H375	H	0.568076	-0.135858	0.311057
H376	H	0.036539	-0.297208	-0.135466
H377	H	0.730834	-0.296459	0.311241
