data_functionalizedCrystal
_audit_creation_method	'MofGen! by Chris Wilmer'
_symmetry_space_group_name_H-M	'P1'
_symmetry_Int_Tables_number	1
_symmetry_cell_setting	triclinic
loop_
_symmetry_equiv_pos_as_xyz
  x,y,z
_cell_length_a	17.077404
_cell_length_b	13.033915
_cell_length_c	13.032268
_cell_angle_alpha	90.870492
_cell_angle_beta	97.162375
_cell_angle_gamma	82.826268
loop_
_atom_site_label
_atom_site_type_symbol
_atom_site_fract_x
_atom_site_fract_y
_atom_site_fract_z
Zn1	Zn	1.195699	-0.483230	-0.529562
Zn2	Zn	1.228454	-0.633389	-0.335775
Zn3	Zn	1.078761	-0.461440	-0.357601
Zn4	Zn	1.082918	-0.655150	-0.507702
O5	O	1.146458	-0.558302	-0.432660
O6	O	1.309891	-0.503161	-0.503870
O7	O	1.220566	-0.592353	-0.194752
O8	O	1.078825	-0.320420	-0.398696
O9	O	1.333956	-0.613482	-0.361496
O10	O	1.164740	-0.336429	-0.525034
O11	O	1.110586	-0.466023	-0.210788
O12	O	0.969466	-0.487123	-0.377498
O13	O	1.085910	-0.650570	-0.654520
O14	O	0.972520	-0.629441	-0.487776
O15	O	1.168770	-0.524261	-0.670581
O16	O	1.224597	-0.780186	-0.340298
O17	O	1.117672	-0.796173	-0.466612
C18	C	0.942511	-0.558280	-0.432634
C19	C	0.855262	-0.558298	-0.432644
C20	C	0.815902	-0.632489	-0.489948
C21	C	0.733920	-0.632493	-0.489964
C22	C	0.691301	-0.558310	-0.432670
C23	C	0.730666	-0.484112	-0.375364
C24	C	0.812645	-0.484104	-0.375355
C25	C	0.559796	-0.484135	-0.375387
C26	C	0.477812	-0.484144	-0.375394
C27	C	0.481071	-0.632524	-0.489996
C28	C	0.563050	-0.632517	-0.489986
C29	C	0.602410	-0.558319	-0.432679
C30	C	1.175159	-0.825497	-0.398737
C31	C	1.187506	-0.939808	-0.384259
C32	C	1.152826	-1.116857	-0.425277
C33	C	1.140068	-0.998711	-0.440250
C34	C	1.351202	-0.558325	-0.432687
C35	C	1.438452	-0.558335	-0.432698
C36	C	1.124150	-0.592274	-0.700910
C37	C	1.114644	-0.606750	-0.815222
C38	C	1.117665	-0.290066	-0.466738
C39	C	1.105395	-0.175760	-0.481260
C40	C	1.151403	-0.550709	-0.874132
C41	C	1.141579	-0.565671	-0.992280
C42	C	1.168716	-0.524388	-0.165463
C43	C	1.178344	-0.509622	-0.051189
H44	H	0.591838	-0.423708	-0.328731
Br45	Br	1.236253	-1.178575	-0.326911
H46	H	1.075894	-0.665798	-0.852255
Br47	Br	1.021961	-1.114040	-0.579615
Br48	Br	1.076990	-0.664099	-1.053988
Br49	Br	0.672825	-0.383425	-0.297618
H50	H	1.217086	-0.450557	-1.014163
Br51	Br	0.866062	-0.383408	-0.297589
Br52	Br	1.056631	-0.936995	-0.538609
Br53	Br	0.680506	-0.733183	-0.567740
Br54	Br	0.873736	-0.733178	-0.567700
H55	H	0.449020	-0.692936	-0.536661
Br56	Br	0.620893	-0.733203	-0.567732
Br57	Br	0.419972	-0.383473	-0.297629
Br58	Br	1.215956	-0.452246	-0.812424
H59	H	1.237562	-0.976839	-0.325240
