data_functionalizedCrystal
_audit_creation_method	'MofGen! by Chris Wilmer'
_symmetry_space_group_name_H-M	'P1'
_symmetry_Int_Tables_number	1
_symmetry_cell_setting	triclinic
loop_
_symmetry_equiv_pos_as_xyz
  x,y,z
_cell_length_a	16.959455
_cell_length_b	13.897441
_cell_length_c	16.959454
_cell_angle_alpha	89.973005
_cell_angle_beta	90.017022
_cell_angle_gamma	89.981373
loop_
_atom_site_label
_atom_site_type_symbol
_atom_site_fract_x
_atom_site_fract_y
_atom_site_fract_z
Zn1	Zn	1.208417	-0.545400	-0.314728
Zn2	Zn	1.208330	-0.384108	-0.446921
Zn3	Zn	1.076236	-0.384118	-0.314754
Zn4	Zn	1.076210	-0.545361	-0.446862
O5	O	1.142298	-0.464747	-0.380816
O6	O	1.319017	-0.524016	-0.332278
O7	O	1.190781	-0.249128	-0.429425
O8	O	1.093817	-0.405532	-0.204139
O9	O	1.318952	-0.405516	-0.429400
O10	O	1.190930	-0.524025	-0.204121
O11	O	1.093732	-0.249135	-0.332322
O12	O	0.965622	-0.405495	-0.332264
O13	O	1.093774	-0.680348	-0.429298
O14	O	0.965603	-0.523959	-0.429323
O15	O	1.190906	-0.680376	-0.332220
O16	O	1.190757	-0.405479	-0.557524
O17	O	1.093689	-0.523950	-0.557480
C18	C	0.936932	-0.464725	-0.380790
C19	C	0.849076	-0.464738	-0.380798
C20	C	0.477585	-0.403191	-0.330236
C21	C	0.477615	-0.526357	-0.431461
C22	C	0.560161	-0.526352	-0.431450
C23	C	0.601423	-0.464763	-0.380832
C24	C	0.560139	-0.403181	-0.330225
C25	C	0.601450	-0.587926	-0.482062
C26	C	0.684001	-0.587922	-0.482053
C27	C	0.725265	-0.526338	-0.431430
C28	C	0.683976	-0.464754	-0.380821
C29	C	0.725238	-0.403165	-0.330202
C30	C	0.683951	-0.341586	-0.279588
C31	C	0.601402	-0.341597	-0.279602
C32	C	0.807813	-0.526326	-0.431416
C33	C	0.807792	-0.403156	-0.330191
C34	C	1.142347	-0.716340	-0.380750
C35	C	1.142367	-0.823554	-0.380722
C36	C	1.142384	-0.910624	-0.380699
C37	C	1.142406	-1.019856	-0.380664
C38	C	1.348467	-0.464769	-0.380843
C39	C	1.436323	-0.464779	-0.380854
C40	C	1.142232	-0.464730	-0.586183
C41	C	1.142276	-0.464755	-0.674039
C42	C	1.142296	-0.214132	-0.380825
C43	C	1.142428	-0.106919	-0.380631
C44	C	1.091829	-0.526428	-1.045522
C45	C	1.192988	-0.403163	-1.045508
C46	C	1.192961	-0.403154	-0.962962
C47	C	1.142365	-0.464782	-0.921692
C48	C	1.091798	-0.526419	-0.962968
C49	C	1.243522	-0.341512	-0.921679
C50	C	1.243496	-0.341500	-0.839128
C51	C	1.192904	-0.403133	-0.797857
C52	C	1.142335	-0.464773	-0.839138
C53	C	1.091739	-0.526401	-0.797869
C54	C	1.041174	-0.588047	-0.839149
C55	C	1.041206	-0.588053	-0.921697
C56	C	1.192871	-0.403128	-0.715309
C57	C	1.091709	-0.526392	-0.715315
C58	C	1.142386	-0.464784	-0.174648
C59	C	1.142424	-0.464800	-0.086791
H60	H	0.567779	-0.291461	-0.238396
H61	H	1.284669	-0.291306	-0.805523
H62	H	0.443965	-0.353057	-0.289025
H63	H	0.444014	-0.576494	-0.472677
C64	C	0.556060	-0.655669	-0.537736
C65	C	0.499274	-0.613749	-0.599748
C66	C	0.453877	-0.681497	-0.655422
C67	C	0.465265	-0.791165	-0.649082
C68	C	0.522053	-0.833091	-0.587067
C69	C	0.567450	-0.765343	-0.531393
H70	H	0.490842	-0.532562	-0.604444
H71	H	0.411839	-0.650461	-0.701329
H72	H	0.431659	-0.841316	-0.690295
H73	H	0.530485	-0.914278	-0.582371
H74	H	0.609488	-0.796379	-0.485486
H75	H	0.717611	-0.638064	-0.523266
H76	H	0.841426	-0.576461	-0.472628
C77	C	0.853177	-0.335406	-0.274509
C78	C	0.909893	-0.259595	-0.308675
C79	C	0.955279	-0.191845	-0.252993
C80	C	0.943948	-0.199907	-0.163145
C81	C	0.887229	-0.275721	-0.128974
C82	C	0.841844	-0.343471	-0.184656
H83	H	0.918283	-0.253624	-0.375190
H84	H	0.997265	-0.135723	-0.278289
H85	H	0.977545	-0.149755	-0.121926
H86	H	0.878840	-0.281692	-0.062459
H87	H	0.799857	-0.399593	-0.159360
C88	C	1.036051	-0.594186	-0.669922
C89	C	0.946202	-0.586219	-0.681339
C90	C	0.890546	-0.654013	-0.635945
C91	C	0.924738	-0.729772	-0.579135
C92	C	1.014592	-0.737742	-0.567715
C93	C	1.070249	-0.669948	-0.613109
H94	H	0.920887	-0.530135	-0.723396
H95	H	0.824030	-0.648113	-0.644399
H96	H	0.883538	-0.779957	-0.545532
H97	H	1.039907	-0.793826	-0.525658
H98	H	1.136764	-0.675848	-0.604655
H99	H	0.999975	-0.638221	-0.805537
H100	H	1.234176	-0.352983	-1.079114
C101	C	0.985584	-0.655850	-0.967108
C102	C	0.895726	-0.647877	-0.955823
C103	C	0.840103	-0.715670	-1.001239
C104	C	0.874338	-0.791435	-1.057940
C105	C	0.964200	-0.799411	-1.069228
C106	C	1.019823	-0.731618	-1.023812
H107	H	0.870379	-0.591788	-0.913847
H108	H	0.773580	-0.709765	-0.992883
H109	H	0.833162	-0.841619	-1.091559
H110	H	0.989547	-0.855499	-1.111203
H111	H	1.086346	-0.737523	-1.032168
C112	C	1.036208	-0.594234	-1.090925
C113	C	0.946350	-0.586265	-1.079641
C114	C	0.890729	-0.654071	-1.125046
C115	C	0.924967	-0.729847	-1.181735
C116	C	1.014829	-0.737820	-1.193023
C117	C	1.070450	-0.670014	-1.147618
H118	H	0.921001	-0.530168	-1.037673
H119	H	0.824207	-0.648169	-1.116690
H120	H	0.883793	-0.780041	-1.215347
H121	H	1.040178	-0.793917	-1.234990
H122	H	1.136973	-0.675916	-1.155974
H123	H	1.284708	-0.291331	-0.955287
C124	C	1.248486	-0.335326	-0.669899
C125	C	1.242087	-0.225664	-0.681300
C126	C	1.297706	-0.157860	-0.635890
C127	C	1.359723	-0.199718	-0.579080
C128	C	1.366125	-0.309385	-0.567677
C129	C	1.310506	-0.377189	-0.613086
H130	H	1.196176	-0.194674	-0.723357
H131	H	1.292967	-0.076677	-0.644332
H132	H	1.400896	-0.149525	-0.545465
H133	H	1.412036	-0.340376	-0.525620
H134	H	1.315245	-0.458372	-0.604645
H135	H	0.717557	-0.291436	-0.238378
