data_functionalizedCrystal
_audit_creation_method	'MofGen! by Chris Wilmer'
_symmetry_space_group_name_H-M	'P1'
_symmetry_Int_Tables_number	1
_symmetry_cell_setting	triclinic
loop_
_symmetry_equiv_pos_as_xyz
  x,y,z
_cell_length_a	14.519709
_cell_length_b	13.596369
_cell_length_c	14.519731
_cell_angle_alpha	90.006971
_cell_angle_beta	83.684499
_cell_angle_gamma	89.999709
loop_
_atom_site_label
_atom_site_type_symbol
_atom_site_fract_x
_atom_site_fract_y
_atom_site_fract_z
O1	O	1.223878	0.081666	0.120892
O2	O	1.723878	0.581666	0.620892
O3	O	0.955402	0.081696	0.135128
O4	O	1.455402	0.581696	0.635128
O5	O	1.096748	0.081671	-0.006227
O6	O	1.596748	0.581671	0.493773
O7	O	1.082532	0.081690	0.262247
O8	O	1.582532	0.581690	0.762247
O9	O	1.096734	-0.081912	-0.006235
O10	O	1.596734	0.418088	0.493765
O11	O	0.955388	-0.081887	0.135120
O12	O	1.455388	0.418113	0.635120
O13	O	1.223864	-0.081917	0.120884
O14	O	1.723864	0.418083	0.620884
Zn15	Zn	1.089623	-0.107874	0.128001
Zn16	Zn	1.589623	0.392126	0.628001
Zn17	Zn	1.089642	0.107653	0.128011
Zn18	Zn	1.589642	0.607653	0.628011
O19	O	1.082518	-0.081892	0.262239
O20	O	1.582518	0.418108	0.762239
C21	C	0.921035	-0.000092	0.134461
C22	C	1.421035	0.499908	0.634461
C23	C	0.818654	-0.000080	0.132473
C24	C	1.318654	0.499920	0.632473
N25	N	1.089617	-0.254966	0.127994
N26	N	1.589617	0.245034	0.627994
C27	C	0.443757	-0.000126	0.125153
C28	C	0.943757	0.499874	0.625153
C29	C	0.548065	-0.000113	0.127186
C30	C	1.048065	0.499887	0.627186
C31	C	0.631202	-0.000102	0.128813
C32	C	1.131202	0.499898	0.628813
C33	C	0.735517	-0.000091	0.130846
C34	C	1.235517	0.499909	0.630846
C35	C	1.089641	-0.656257	0.128012
C36	C	1.589641	-0.156257	0.628012
C37	C	1.089632	-0.544606	0.128010
C38	C	1.589632	-0.044606	0.628010
C39	C	1.089630	-0.455615	0.128004
C40	C	1.589630	0.044385	0.628004
C41	C	1.089619	-0.343957	0.128000
C42	C	1.589619	0.156043	0.628000
C43	C	1.258230	-0.000128	0.121551
C44	C	1.758230	0.499872	0.621551
C45	C	1.360612	-0.000132	0.123539
C46	C	1.860612	0.499868	0.623539
N47	N	1.089655	0.254745	0.128011
N48	N	1.589655	0.754745	0.628011
C49	C	1.096075	-0.000121	-0.040591
C50	C	1.596075	0.499879	0.459409
C51	C	1.094079	-0.000121	-0.142971
C52	C	1.594079	0.499879	0.357029
C53	C	1.092457	-0.000119	-0.226115
C54	C	1.592457	0.499881	0.273885
C55	C	1.090430	-0.000111	-0.330424
C56	C	1.590430	0.499889	0.169576
C57	C	1.088822	-0.000104	-0.413563
C58	C	1.588822	0.499896	0.086437
C59	C	1.086795	-0.000098	-0.517878
C60	C	1.586795	0.499902	-0.017878
C61	C	1.083191	-0.000099	0.296603
C62	C	1.583191	0.499901	0.796603
C63	C	1.085187	-0.000092	0.398983
C64	C	1.585187	0.499908	0.898983
