data_functionalizedCrystal
_audit_creation_method	'MofGen! by Chris Wilmer'
_symmetry_space_group_name_H-M	'P1'
_symmetry_Int_Tables_number	1
_symmetry_cell_setting	triclinic
loop_
_symmetry_equiv_pos_as_xyz
  x,y,z
_cell_length_a	31.640172
_cell_length_b	31.640171
_cell_length_c	19.902436
_cell_angle_alpha	59.986956
_cell_angle_beta	90.007369
_cell_angle_gamma	59.992468
loop_
_atom_site_label
_atom_site_type_symbol
_atom_site_fract_x
_atom_site_fract_y
_atom_site_fract_z
Zr1	Zr	0.407056	0.462735	-0.088430
O2	O	0.339543	0.550941	-0.195790
O3	O	0.427769	0.374528	-0.055473
O4	O	0.427746	0.462724	-0.195705
O5	O	0.339567	0.462754	0.055008
O6	O	0.497303	0.462715	-0.195690
O7	O	0.339567	0.462745	-0.055557
O8	O	0.497345	0.304949	0.055160
O9	O	0.339524	0.620520	-0.195842
O10	O	0.488493	0.410802	-0.041461
O11	O	0.436583	0.410815	0.041042
O12	O	0.436555	0.514654	-0.124064
O13	O	0.384645	0.514666	-0.041561
Zr14	Zr	0.517992	0.462734	0.087933
Zr15	Zr	0.517992	0.462721	-0.088407
Zr16	Zr	0.407056	0.462748	0.087910
Zr17	Zr	0.407026	0.573704	-0.088513
Zr18	Zr	0.518022	0.351764	0.088016
O19	O	0.497279	0.550940	0.054976
O20	O	0.497279	0.550921	-0.195756
O21	O	0.339543	0.550960	0.054942
O22	O	0.585505	0.374527	0.195293
O23	O	0.585505	0.374508	-0.055439
O24	O	0.427769	0.374547	0.195260
O25	O	0.585481	0.462714	-0.055505
O26	O	0.497302	0.462744	0.195208
O27	O	0.427745	0.462753	0.195194
O28	O	0.585481	0.462723	0.055060
O29	O	0.427703	0.620509	-0.195823
O30	O	0.497345	0.304960	0.195326
O31	O	0.585524	0.304949	0.195345
O32	O	0.585524	0.304938	0.055179
O33	O	0.339524	0.620530	-0.055676
O34	O	0.427703	0.620519	-0.055657
O35	O	0.488493	0.410814	0.123567
O36	O	0.540403	0.410802	0.041064
O37	O	0.488465	0.514653	-0.041539
O38	O	0.436555	0.514666	0.040964
C39	C	0.462562	0.323928	-0.000145
C40	C	0.462574	0.276818	-0.000109
C41	C	0.435428	-0.059398	0.042825
C42	C	0.435455	0.117556	0.042897
O43	O	0.412432	0.140423	0.079558
N44	N	0.462555	0.139678	-0.000160
C45	C	0.489653	0.117556	-0.043235
O46	O	0.512708	0.140428	-0.079849
C47	C	0.489628	-0.059400	-0.043302
C48	C	0.462522	-0.081515	-0.000248
C49	C	0.408324	-0.081514	0.085875
C50	C	0.408315	-0.125747	0.085853
C51	C	0.435410	-0.147865	0.042780
C52	C	0.462513	-0.125749	-0.000271
C53	C	0.516729	-0.081524	-0.086371
C54	C	0.516721	-0.125767	-0.086382
C55	C	0.489615	-0.147882	-0.043329
C56	C	0.489599	-0.192100	-0.043366
N57	N	0.462499	-0.214222	-0.000308
C58	C	0.435404	-0.192104	0.042765
C59	C	0.489663	0.210461	-0.043198
C60	C	0.489669	0.254701	-0.043182
C61	C	0.435472	0.254697	0.042951
C62	C	0.435463	0.210460	0.042930
C63	C	0.462563	0.188339	-0.000140
C64	C	0.435387	-0.284997	0.042714
C65	C	0.435379	-0.329233	0.042685
C66	C	0.489578	-0.329227	-0.043444
C67	C	0.489585	-0.284993	-0.043419
C68	C	0.462488	-0.262881	-0.000334
O69	O	0.512615	-0.214999	-0.080000
O70	O	0.412362	-0.214993	0.079389
C71	C	0.435437	-0.015164	0.042847
C72	C	0.462540	0.006952	-0.000204
C73	C	0.489635	-0.015166	-0.043277
C74	C	0.462546	0.051191	-0.000188
C75	C	0.435451	0.073309	0.042885
C76	C	0.408351	0.051187	0.085942
C77	C	0.408342	0.006953	0.085920
C78	C	0.516735	0.006956	-0.086334
C79	C	0.516741	0.051190	-0.086309
C80	C	0.489646	0.073308	-0.043236
C81	C	0.323761	0.462752	-0.000278
C82	C	0.276666	0.462758	-0.000288
C83	C	0.011771	0.408519	0.042886
C84	C	-0.165214	0.408509	0.042902
O85	O	-0.165043	0.362405	0.079602
N86	N	-0.214455	0.462718	-0.000217
C87	C	-0.219449	0.516933	-0.043338
O88	O	-0.265392	0.563041	-0.080006
C89	C	-0.042464	0.516943	-0.043349
C90	C	0.006776	0.462730	-0.000234
C91	C	0.061009	0.354311	0.085998
C92	C	0.105252	0.354314	0.085990
C93	C	0.100257	0.408525	0.042870
C94	C	0.051019	0.462733	-0.000242
C95	C	-0.047458	0.571158	-0.086465
C96	C	-0.003207	0.571156	-0.086463
C97	C	0.046033	0.516943	-0.043348
C98	C	0.090268	0.516948	-0.043371
N99	N	0.139509	0.462739	-0.000252
C100	C	0.144503	0.408527	0.042868
C101	C	-0.312366	0.516924	-0.043331
C102	C	-0.356612	0.516922	-0.043329
C103	C	-0.302375	0.408497	0.042913
C104	C	-0.258128	0.408500	0.042906
C105	C	-0.263126	0.462715	-0.000212
C106	C	0.237415	0.408538	0.042847
C107	C	0.281660	0.408546	0.042832
C108	C	0.227419	0.516971	-0.043406
C109	C	0.183178	0.516963	-0.043395
C110	C	0.188180	0.462742	-0.000262
O111	O	0.090136	0.563027	-0.080044
O112	O	0.190451	0.362426	0.079546
C113	C	-0.032473	0.408516	0.042894
C114	C	-0.081711	0.462724	-0.000218
C115	C	-0.086705	0.516935	-0.043338
C116	C	-0.125957	0.462722	-0.000217
C117	C	-0.120962	0.408510	0.042904
C118	C	-0.071721	0.354301	0.086023
C119	C	-0.027478	0.354304	0.086014
C120	C	-0.135946	0.571145	-0.086457
C121	C	-0.180187	0.571137	-0.086446
C122	C	-0.175193	0.516926	-0.043326
C123	C	0.601287	0.462717	-0.000219
C124	C	0.648382	0.462711	-0.000209
C125	C	0.462524	0.462718	-0.220822
C126	C	0.462524	0.462712	-0.295683
C127	C	0.462486	0.601540	-0.000352
C128	C	0.462473	0.648650	-0.000388
C129	C	0.462524	0.462742	-0.567732
C130	C	0.495443	0.397230	-0.487134
C131	C	0.495301	0.397189	-0.409231
C132	C	0.462524	0.462727	-0.432765
C133	C	0.406112	0.495266	-0.486921
C134	C	0.406292	0.494847	-0.564483
C135	C	0.485562	0.496183	-0.565606
C136	C	0.486704	0.494951	-0.486727
C137	C	0.462522	0.462722	-0.356490
C138	C	0.462523	0.462748	-0.644008
C139	C	0.462524	0.462750	0.220326
C140	C	0.462524	0.462756	0.295186
C141	C	0.601325	0.323910	-0.000115
C142	C	0.648433	0.276795	-0.000070
C143	C	0.462562	0.323944	0.220429
C144	C	0.462574	0.276840	0.295326
C145	C	0.601325	0.323927	0.220459
C146	C	0.648433	0.276817	0.295365
C147	C	0.323723	0.601541	-0.220956
C148	C	0.276615	0.648651	-0.295862
C149	C	0.323723	0.601558	-0.000382
C150	C	0.276615	0.648673	-0.000427
C151	C	0.462486	0.601524	-0.220926
C152	C	0.462474	0.648628	-0.295822
C153	C	0.643459	0.254669	-0.043133
C154	C	0.687717	0.210405	-0.043107
C155	C	0.736949	0.188265	-0.000012
C156	C	0.741922	0.210395	0.043052
C157	C	0.697664	0.254661	0.043021
C158	C	0.489677	0.254720	0.373582
C159	C	0.489687	0.210467	0.443962
C160	C	0.462597	0.188332	0.436083
C161	C	0.435492	0.210457	0.357818
C162	C	0.435479	0.254712	0.287440
C163	C	0.697656	0.254687	0.287476
C164	C	0.741923	0.210428	0.357851
C165	C	0.736966	0.188297	0.436115
C166	C	0.687737	0.210432	0.444002
C167	C	0.643471	0.254693	0.373628
C168	C	0.227392	0.670787	-0.287973
C169	C	0.183125	0.715059	-0.358348
C170	C	0.188082	0.737192	-0.436612
C171	C	0.237311	0.715055	-0.444499
C172	C	0.281577	0.670786	-0.374125
C173	C	0.281589	0.670804	0.042629
C174	C	0.237331	0.715080	0.042583
C175	C	0.188099	0.737222	-0.000514
C176	C	0.183126	0.715089	-0.043575
C177	C	0.227384	0.670817	-0.043534
C178	C	0.489568	0.670748	-0.287917
C179	C	0.489566	0.715002	-0.358283
C180	C	0.462466	0.737137	-0.436554
C181	C	0.435371	0.715012	-0.444457
C182	C	0.435376	0.670756	-0.374092
H183	H	0.413391	0.192456	0.077988
F184	F	0.518539	0.186926	0.527249
H185	H	0.143083	0.561107	-0.078513
H186	H	0.683708	0.192406	0.507734
H187	H	0.536842	0.371659	-0.369808
H188	H	0.241390	0.733092	0.077652
H189	H	0.223327	0.652800	-0.078593
H190	H	0.413436	0.192429	0.351415
H191	H	0.603393	0.272705	0.380063
H192	H	0.603376	0.272696	-0.078236
F193	F	0.462616	0.141231	0.510993
H194	H	0.413411	0.272717	0.223723
H195	H	0.526475	0.475212	-0.568569
F196	F	0.462464	0.784239	-0.511436
H197	H	-0.087545	0.615304	-0.121573
H198	H	0.152065	0.773271	-0.000540
F199	F	0.702944	0.278235	0.204188
H200	H	0.479323	0.371502	-0.370176
F201	F	0.130725	0.738659	-0.089437
F202	F	0.222104	0.647238	-0.204685
F203	F	0.130737	0.738609	-0.349937
F204	F	0.794310	0.186877	0.349440
H205	H	0.511736	0.272737	0.380013
F206	F	0.784082	0.141190	0.511008
F207	F	0.140966	0.784307	-0.511505
F208	F	0.518414	0.647198	-0.204622
F209	F	0.406635	0.278244	0.088792
H210	H	0.241341	0.733082	-0.508230
F211	F	0.382184	0.464632	-0.564213
F212	F	0.372659	0.558251	-0.512810
H213	H	0.772983	0.152220	0.000007
F214	F	-0.317694	0.574632	-0.089227
F215	F	0.518404	0.738543	-0.349854
F216	F	0.333963	0.647230	-0.382534
H217	H	0.321672	0.652779	0.077729
H218	H	0.380430	0.542912	-0.621560
F219	F	-0.409014	0.574623	-0.089229
H220	H	0.413307	0.733041	-0.508195
F221	F	0.406532	0.647223	-0.382518
H222	H	0.413321	-0.266997	0.077796
F223	F	0.379468	-0.149282	0.131682
F224	F	0.406526	-0.352766	0.088509
H225	H	0.511735	0.272711	-0.078251
F226	F	0.518503	0.186931	-0.089052
F227	F	0.379485	-0.057983	0.131726
H228	H	0.538801	-0.063524	-0.121428
F229	F	0.702966	0.278201	0.088863
F230	F	0.545569	-0.149309	-0.132220
F231	F	0.518428	-0.261450	-0.089250
F232	F	0.794323	0.186824	0.088916
F233	F	0.379492	-0.016579	0.131745
F234	F	0.379513	0.074736	0.131780
F235	F	0.518411	-0.352772	-0.089285
H236	H	0.538812	0.069197	-0.121376
H237	H	0.387536	0.472675	-0.449454
H238	H	0.538799	-0.011049	-0.121409
H239	H	0.321754	0.364398	0.077944
H240	H	0.145342	0.310168	0.121095
F241	F	0.242746	0.350830	0.088753
F242	F	0.682414	0.186859	-0.088941
H243	H	0.065085	0.310163	0.121116
H244	H	-0.298315	0.364356	0.078018
F245	F	-0.205726	0.350800	0.088795
H246	H	-0.140021	0.615291	-0.121573
H247	H	0.223361	0.561108	-0.078516
F248	F	-0.008531	0.628861	-0.132354
H249	H	0.012612	0.310159	0.121125
H250	H	-0.067661	0.310160	0.121128
F251	F	-0.232592	0.628842	-0.132342
H252	H	0.479611	0.371649	-0.486369
F253	F	0.549881	0.363611	-0.484878
H254	H	0.528267	0.471221	-0.449379
H255	H	0.465218	0.542764	-0.505288
H256	H	0.461690	0.544448	-0.622407
