data_functionalizedCrystal
_audit_creation_method	'MofGen! by Chris Wilmer'
_symmetry_space_group_name_H-M	'P1'
_symmetry_Int_Tables_number	1
_symmetry_cell_setting	triclinic
loop_
_symmetry_equiv_pos_as_xyz
  x,y,z
_cell_length_a	16.120490
_cell_length_b	25.639239
_cell_length_c	16.120256
_cell_angle_alpha	92.870449
_cell_angle_beta	90.129807
_cell_angle_gamma	87.130891
loop_
_atom_site_label
_atom_site_type_symbol
_atom_site_fract_x
_atom_site_fract_y
_atom_site_fract_z
Zn1	Zn	1.247336	-0.264936	-0.534508
Zn2	Zn	1.747336	0.235064	-0.034508
Zn3	Zn	1.254252	-0.348165	-0.395440
Zn4	Zn	1.754252	0.151835	0.104560
Zn5	Zn	1.115329	-0.256093	-0.388429
Zn6	Zn	1.615329	0.243907	0.111571
Zn7	Zn	1.108208	-0.347681	-0.527414
Zn8	Zn	1.608208	0.152319	-0.027414
O9	O	1.181281	-0.304219	-0.461448
O10	O	1.681281	0.195781	0.038552
O11	O	1.364619	-0.279879	-0.521963
O12	O	1.864619	0.220121	-0.021963
O13	O	1.241699	-0.332453	-0.278145
O14	O	1.741699	0.167547	0.221855
O15	O	1.132926	-0.184105	-0.407842
O16	O	1.632926	0.315895	0.092158
O17	O	1.369700	-0.341027	-0.419791
O18	O	1.869700	0.158973	0.080209
O19	O	1.229911	-0.190601	-0.515165
O20	O	1.729911	0.309399	-0.015165
O21	O	1.139633	-0.264809	-0.272994
O22	O	1.639633	0.235191	0.227006
O23	O	0.998020	-0.264340	-0.400963
O24	O	1.498020	0.235660	0.099037
O25	O	1.120789	-0.340202	-0.644721
O26	O	1.620789	0.159798	-0.144721
O27	O	0.992787	-0.331628	-0.503074
O28	O	1.492787	0.168372	-0.003074
O29	O	1.223006	-0.279410	-0.649933
O30	O	1.723006	0.220590	-0.149933
O31	O	1.234793	-0.421262	-0.412912
O32	O	1.734793	0.078738	0.087088
O33	O	1.127495	-0.420906	-0.509873
O34	O	1.627495	0.079094	-0.009873
C35	C	0.965231	-0.296972	-0.450489
C36	C	1.465231	0.203028	0.049511
C37	C	0.872803	-0.293886	-0.445820
C38	C	1.372803	0.206114	0.054180
C39	C	0.659830	-0.320226	-0.485667
C40	C	1.159830	0.179774	0.014333
C41	C	0.703581	-0.288255	-0.437295
C42	C	1.203581	0.211745	0.062705
C43	C	0.797745	-0.291389	-0.442040
C44	C	1.297745	0.208611	0.057960
C45	C	0.565657	-0.317093	-0.480923
C46	C	1.065657	0.182907	0.019077
C47	C	1.181144	-0.440055	-0.461403
C48	C	1.681144	0.059945	0.038597
C49	C	1.181159	-0.498170	-0.461415
C50	C	1.681159	0.001830	0.038585
C51	C	1.237286	-0.858718	-0.411058
C52	C	1.737286	-0.358718	0.088942
C53	C	1.237317	-0.913324	-0.411071
C54	C	1.737317	-0.413324	0.088929
O55	O	1.284895	-0.941712	-0.368207
O56	O	1.784895	-0.441712	0.131793
N57	N	1.181425	-0.940464	-0.461510
N58	N	1.681425	-0.440464	0.038490
C59	C	1.125503	-0.912996	-0.511947
C60	C	1.625503	-0.412996	-0.011947
O61	O	1.077965	-0.941095	-0.554851
O62	O	1.577965	-0.441095	-0.054851
C63	C	1.125476	-0.858392	-0.511938
C64	C	1.625476	-0.358392	-0.011938
C65	C	1.181366	-0.831254	-0.461489
C66	C	1.681366	-0.331254	0.038511
C67	C	1.293172	-0.831580	-0.360614
C68	C	1.793172	-0.331580	0.139386
C69	C	1.293139	-0.776978	-0.360601
C70	C	1.793139	-0.276978	0.139399
C71	C	1.237220	-0.749514	-0.411031
C72	C	1.737220	-0.249514	0.088969
C73	C	1.181333	-0.776652	-0.461475
C74	C	1.681333	-0.276652	0.038525
C75	C	1.069558	-0.830925	-0.562378
C76	C	1.569558	-0.330925	-0.062378
C77	C	1.069536	-0.776317	-0.562365
C78	C	1.569536	-0.276317	-0.062365
C79	C	1.125427	-0.749179	-0.511916
C80	C	1.625427	-0.249179	-0.011916
C81	C	1.125381	-0.694586	-0.511892
C82	C	1.625381	-0.194586	-0.011892
N83	N	1.181273	-0.667445	-0.461452
N84	N	1.681273	-0.167445	0.038548
C85	C	1.237193	-0.694910	-0.411022
C86	C	1.737193	-0.194910	0.088978
C87	C	1.125565	-1.027669	-0.511963
C88	C	1.625565	-0.527669	-0.011963
C89	C	1.125587	-1.082273	-0.511968
C90	C	1.625587	-0.582273	-0.011968
C91	C	1.237403	-1.082596	-0.411093
C92	C	1.737403	-0.582596	0.088907
C93	C	1.237376	-1.027992	-0.411084
C94	C	1.737376	-0.527992	0.088916
C95	C	1.181457	-1.000529	-0.461523
C96	C	1.681457	-0.500529	0.038477
C97	C	1.237119	-0.580241	-0.410997
C98	C	1.737119	-0.080241	0.089003
C99	C	1.237079	-0.525634	-0.410985
C100	C	1.737079	-0.025634	0.089015
C101	C	1.125266	-0.525315	-0.511862
C102	C	1.625266	-0.025315	-0.011862
C103	C	1.125303	-0.579918	-0.511871
C104	C	1.625303	-0.079918	-0.011871
C105	C	1.181236	-0.607379	-0.461436
C106	C	1.681236	-0.107379	0.038564
O107	O	1.077829	-0.666164	-0.554737
O108	O	1.577829	-0.166164	-0.054737
O109	O	1.284730	-0.666804	-0.368133
O110	O	1.784730	-0.166804	0.131867
C111	C	1.398175	-0.311493	-0.472451
C112	C	1.898175	0.188507	0.027549
C113	C	1.490602	-0.314594	-0.477139
C114	C	1.990602	0.185406	0.022861
C115	C	1.170331	-0.310738	-0.678343
C116	C	1.670331	0.189262	-0.178343
C117	C	1.165665	-0.313517	-0.770770
C118	C	1.665665	0.186483	-0.270770
C119	C	1.181442	-0.167853	-0.461513
C120	C	1.681442	0.332147	0.038487
C121	C	1.181510	-0.109742	-0.461540
C122	C	1.681510	0.390258	0.038460
C123	C	1.205614	-0.289716	-0.983756
C124	C	1.705614	0.210284	-0.483756
C125	C	1.157118	-0.318567	-0.939990
C126	C	1.657118	0.181433	-0.439990
C127	C	1.161875	-0.315756	-0.845827
C128	C	1.661875	0.184244	-0.345827
C129	C	1.200858	-0.292526	-1.077927
C130	C	1.700858	0.207474	-0.577927
C131	C	1.192237	-0.297688	-0.245400
C132	C	1.692237	0.202312	0.254600
C133	C	1.197064	-0.294768	-0.152981
C134	C	1.697064	0.205232	0.347019
H135	H	0.693091	-0.349949	-0.530639
H136	H	1.193091	0.150051	-0.030639
Br137	Br	1.312934	-0.488808	-0.342512
Br138	Br	1.812934	0.011192	0.157488
H139	H	0.670317	-0.258529	-0.392319
H140	H	1.170317	0.241471	0.107681
Br141	Br	1.049662	-0.990403	-0.580417
Br142	Br	1.549662	-0.490403	-0.080417
H143	H	1.282667	-0.602594	-0.369929
H144	H	1.782667	-0.102594	0.130071
H145	H	1.112022	-0.345375	-0.973239
H146	H	1.612022	0.154625	-0.473239
Br147	Br	1.369007	-0.740158	-0.292143
Br148	Br	1.869007	-0.240158	0.207857
H149	H	1.338713	-0.853936	-0.319548
H150	H	1.838713	-0.353936	0.180452
H151	H	1.282887	-1.005900	-0.370005
H152	H	1.782887	-0.505900	0.129995
H153	H	1.080068	-1.104363	-0.553040
H154	H	1.580068	-0.604363	-0.053040
Br155	Br	1.313291	-1.119879	-0.342647
Br156	Br	1.813291	-0.619879	0.157353
Br157	Br	0.993710	-0.867742	-0.630858
Br158	Br	1.493710	-0.367742	-0.130858
H159	H	1.024001	-0.753959	-0.603441
H160	H	1.524001	-0.253959	-0.103441
Br161	Br	1.049432	-0.616747	-0.580316
Br162	Br	1.549432	-0.116747	-0.080316
Br163	Br	1.280753	-0.245023	-0.928340
Br164	Br	1.780753	0.254977	-0.428340
H165	H	1.079734	-0.502945	-0.552919
H166	H	1.579734	-0.002945	-0.052919
