data_functionalizedCrystal
_audit_creation_method	'MofGen! by Chris Wilmer'
_symmetry_space_group_name_H-M	'P1'
_symmetry_Int_Tables_number	1
_symmetry_cell_setting	triclinic
loop_
_symmetry_equiv_pos_as_xyz
  x,y,z
_cell_length_a	21.395364
_cell_length_b	16.625545
_cell_length_c	21.395355
_cell_angle_alpha	89.983814
_cell_angle_beta	89.975448
_cell_angle_gamma	90.040509
loop_
_atom_site_label
_atom_site_type_symbol
_atom_site_fract_x
_atom_site_fract_y
_atom_site_fract_z
Zn1	Zn	0.957882	-0.320773	-0.354272
Zn2	Zn	1.291215	0.012560	-0.020938
Zn3	Zn	1.624548	0.345893	0.312395
Zn4	Zn	0.957794	-0.455588	-0.249498
Zn5	Zn	1.291127	-0.122255	0.083835
Zn6	Zn	1.624460	0.211078	0.417168
Zn7	Zn	0.853097	-0.320809	-0.249508
Zn8	Zn	1.186430	0.012525	0.083825
Zn9	Zn	1.519763	0.345858	0.417158
Zn10	Zn	0.853075	-0.455603	-0.354239
Zn11	Zn	1.186409	-0.122270	-0.020905
Zn12	Zn	1.519742	0.211064	0.312428
O13	O	0.905462	-0.388193	-0.301879
O14	O	1.238795	-0.054860	0.031454
O15	O	1.572128	0.278473	0.364787
O16	O	1.045548	-0.338636	-0.340383
O17	O	1.378881	-0.005303	-0.007050
O18	O	1.712214	0.328031	0.326284
O19	O	0.943877	-0.437718	-0.161822
O20	O	1.277211	-0.104385	0.171512
O21	O	1.610544	0.228948	0.504845
O22	O	0.867042	-0.207972	-0.263423
O23	O	1.200376	0.125362	0.069910
O24	O	1.533709	0.458695	0.403243
O25	O	1.045483	-0.437684	-0.263406
O26	O	1.378816	-0.104351	0.069927
O27	O	1.712150	0.228983	0.403260
O28	O	0.944027	-0.207946	-0.340393
O29	O	1.277361	0.125388	-0.007059
O30	O	1.610694	0.458721	0.326274
O31	O	0.866957	-0.338696	-0.161829
O32	O	1.200290	-0.005363	0.171504
O33	O	1.533624	0.327970	0.504838
O34	O	0.765416	-0.338710	-0.263391
O35	O	1.098749	-0.005377	0.069942
O36	O	1.432083	0.327956	0.403275
O37	O	0.867006	-0.437709	-0.441921
O38	O	1.200339	-0.104375	-0.108588
O39	O	1.533673	0.228958	0.224746
O40	O	0.765400	-0.437743	-0.340336
O41	O	1.098733	-0.104410	-0.007003
O42	O	1.432067	0.228924	0.326330
O43	O	0.944007	-0.338650	-0.441945
O44	O	1.277340	-0.005317	-0.108612
O45	O	1.610673	0.328017	0.224722
O46	O	0.943857	-0.568423	-0.263374
O47	O	1.277190	-0.235089	0.069959
O48	O	1.610523	0.098244	0.403292
O49	O	0.866920	-0.568433	-0.340327
O50	O	1.200254	-0.235100	-0.006993
O51	O	1.533587	0.098233	0.326340
C52	C	0.742674	-0.388233	-0.301862
C53	C	1.076007	-0.054899	0.031472
C54	C	1.409341	0.278434	0.364805
C55	C	0.673033	-0.388269	-0.301869
C56	C	1.006366	-0.054935	0.031464
C57	C	1.339700	0.278398	0.364798
C58	C	0.640376	-0.336779	-0.342013
C59	C	0.973709	-0.003446	-0.008679
C60	C	1.307042	0.329888	0.324654
C61	C	0.574940	-0.336757	-0.342015
C62	C	0.908274	-0.003424	-0.008682
C63	C	1.241607	0.329909	0.324652
C64	C	0.542165	-0.388240	-0.301880
C65	C	0.875498	-0.054907	0.031453
C66	C	1.208831	0.278426	0.364786
C67	C	0.574829	-0.439734	-0.261729
C68	C	0.908163	-0.106400	0.071604
C69	C	1.241496	0.226933	0.404938
C70	C	0.640264	-0.439748	-0.261723
C71	C	0.973597	-0.106415	0.071610
C72	C	1.306930	0.226919	0.404943
C73	C	0.438445	-0.460853	-0.296845
C74	C	0.771779	-0.127520	0.036488
C75	C	1.105112	0.205814	0.369822
C76	C	0.373012	-0.460840	-0.296855
C77	C	0.706346	-0.127507	0.036478
C78	C	1.039679	0.205827	0.369811
C79	C	0.340344	-0.388196	-0.301894
C80	C	0.673677	-0.054863	0.031439
C81	C	1.007010	0.278471	0.364772
C82	C	0.373116	-0.315562	-0.306936
C83	C	0.706450	0.017771	0.026397
C84	C	1.039783	0.351104	0.359730
C85	C	0.438550	-0.315577	-0.306931
C86	C	0.771884	0.017757	0.026403
C87	C	1.105217	0.351090	0.359736
C88	C	0.471212	-0.388230	-0.301882
C89	C	0.804546	-0.054897	0.031452
C90	C	1.137879	0.278436	0.364785
C91	C	0.236734	-0.336678	-0.342043
C92	C	0.570068	-0.003345	-0.008709
C93	C	0.903401	0.329988	0.324624
C94	C	0.171298	-0.336656	-0.342041
C95	C	0.504631	-0.003322	-0.008707
C96	C	0.837964	0.330011	0.324626
C97	C	0.171188	-0.439639	-0.261758
C98	C	0.504521	-0.106306	0.071575
C99	C	0.837855	0.227028	0.404909
C100	C	0.236623	-0.439655	-0.261757
C101	C	0.569957	-0.106321	0.071577
C102	C	0.903290	0.227012	0.404910
C103	C	0.269393	-0.388176	-0.301902
C104	C	0.602726	-0.054842	0.031431
C105	C	0.936059	0.278491	0.364764
C106	C	0.905394	-0.597684	-0.301860
C107	C	1.238727	-0.264351	0.031474
C108	C	1.572060	0.068982	0.364807
C109	C	0.905422	-0.687305	-0.301872
C110	C	1.238755	-0.353972	0.031461
C111	C	1.572089	-0.020639	0.364795
C112	C	0.905446	-0.760088	-0.301884
C113	C	1.238780	-0.426754	0.031449
C114	C	1.572113	-0.093421	0.364782
C115	C	0.905483	-0.851396	-0.301898
C116	C	1.238816	-0.518063	0.031435
C117	C	1.572149	-0.184730	0.364768
C118	C	0.905515	-0.924173	-0.301906
C119	C	1.238849	-0.590839	0.031427
C120	C	1.572182	-0.257506	0.364760
C121	C	0.905551	-1.015487	-0.301919
C122	C	1.238884	-0.682153	0.031414
C123	C	1.572218	-0.348820	0.364748
C124	C	1.068885	-0.388155	-0.301897
C125	C	1.402218	-0.054821	0.031436
C126	C	1.735552	0.278512	0.364769
C127	C	1.138526	-0.388138	-0.301905
C128	C	1.471860	-0.054805	0.031428
C129	C	1.805193	0.278529	0.364762
C130	C	0.905514	-0.388177	-0.465303
C131	C	1.238847	-0.054844	-0.131969
C132	C	1.572180	0.278490	0.201364
C133	C	0.905536	-0.388170	-0.534944
C134	C	1.238869	-0.054837	-0.201611
C135	C	1.572203	0.278497	0.131723
C136	C	0.905547	-0.177884	-0.301913
C137	C	1.238880	0.155449	0.031421
C138	C	1.572214	0.488782	0.364754
C139	C	0.905584	-0.088263	-0.301927
C140	C	1.238917	0.245070	0.031406
C141	C	1.572250	0.578403	0.364740
C142	C	0.945629	-0.336588	-0.567671
C143	C	1.278962	-0.003255	-0.234337
C144	C	1.612295	0.330079	0.098996
C145	C	0.945628	-0.336553	-0.633106
C146	C	1.278961	-0.003220	-0.299773
C147	C	1.612294	0.330113	0.033561
C148	C	0.905541	-0.388115	-0.665812
C149	C	1.238874	-0.054782	-0.332479
C150	C	1.572207	0.278552	0.000854
C151	C	0.865440	-0.439701	-0.633078
C152	C	1.198774	-0.106367	-0.299744
C153	C	1.532107	0.226966	0.033589
C154	C	0.865438	-0.439728	-0.567643
C155	C	1.198771	-0.106395	-0.234310
C156	C	1.532105	0.226938	0.099023
C157	C	0.900570	-0.460717	-0.769480
C158	C	1.233903	-0.127384	-0.436147
C159	C	1.567237	0.205949	-0.102813
C160	C	0.900577	-0.460691	-0.834913
C161	C	1.233910	-0.127358	-0.501580
C162	C	1.567243	0.205975	-0.168246
C163	C	0.905545	-0.388030	-0.867633
C164	C	1.238878	-0.054697	-0.534300
C165	C	1.572211	0.278637	-0.200966
C166	C	0.910519	-0.315392	-0.834912
C167	C	1.243852	0.017941	-0.501579
C168	C	1.577186	0.351274	-0.168245
C169	C	0.910516	-0.315420	-0.769478
C170	C	1.243850	0.017914	-0.436145
C171	C	1.577183	0.351247	-0.102811
C172	C	0.905539	-0.388091	-0.736765
C173	C	1.238872	-0.054757	-0.403431
C174	C	1.572205	0.278576	-0.070098
C175	C	0.945638	-0.336406	-0.971312
C176	C	1.278972	-0.003073	-0.637979
C177	C	1.612305	0.330261	-0.304646
C178	C	0.945633	-0.336370	-1.036749
C179	C	1.278967	-0.003037	-0.703416
C180	C	1.612300	0.330297	-0.370082
C181	C	0.865449	-0.439524	-1.036719
C182	C	1.198783	-0.106191	-0.703386
C183	C	1.532116	0.227142	-0.370053
C184	C	0.865451	-0.439553	-0.971284
C185	C	1.198785	-0.106220	-0.637951
C186	C	1.532118	0.227113	-0.304617
C187	C	0.905549	-0.387995	-0.938584
C188	C	1.238883	-0.054662	-0.605251
C189	C	1.572216	0.278672	-0.271918
C190	C	0.905446	-0.388151	-0.139092
C191	C	1.238779	-0.054818	0.194242
C192	C	1.572113	0.278515	0.527575
C193	C	0.905545	-0.387931	-0.069451
C194	C	1.238879	-0.054598	0.263883
C195	C	1.572212	0.278735	0.597216
H196	H	0.465231	-0.256436	-0.311034
H197	H	0.798565	0.076897	0.022299
H198	H	1.131898	0.410231	0.355632
Cl199	Cl	0.681568	-0.272060	-0.392480
Cl200	Cl	1.014901	0.061273	-0.059147
Cl201	Cl	1.348235	0.394606	0.274187
H202	H	0.978285	-0.294420	-0.944687
H203	H	1.311618	0.038914	-0.611354
H204	H	1.644952	0.372247	-0.278020
Cl205	Cl	0.815049	-0.504407	-0.930139
Cl206	Cl	1.148382	-0.171073	-0.596806
Cl207	Cl	1.481715	0.162260	-0.263473
Cl208	Cl	0.332055	-0.224231	-0.313271
Cl209	Cl	0.665388	0.109102	0.020062
Cl210	Cl	0.998722	0.442435	0.353396
H211	H	0.978279	-0.294604	-0.541051
H212	H	1.311612	0.038729	-0.207717
H213	H	1.644945	0.372062	0.125616
H214	H	0.263416	-0.294756	-0.374728
H215	H	0.596750	0.038578	-0.041394
H216	H	0.930083	0.371911	0.291939
Cl217	Cl	0.130242	-0.271916	-0.392509
Cl218	Cl	0.463576	0.061418	-0.059176
Cl219	Cl	0.796909	0.394751	0.274158
Cl220	Cl	0.815048	-0.504339	-1.077830
Cl221	Cl	1.148381	-0.171005	-0.744496
Cl222	Cl	1.481715	0.162328	-0.411163
Cl223	Cl	0.277680	-0.504385	-0.211285
Cl224	Cl	0.611014	-0.171052	0.122049
Cl225	Cl	0.944347	0.162281	0.455382
H226	H	0.144503	-0.481557	-0.229079
H227	H	0.477836	-0.148224	0.104254
H228	H	0.811169	0.185109	0.437587
Cl229	Cl	0.331819	-0.552151	-0.290527
Cl230	Cl	0.665153	-0.218817	0.042806
Cl231	Cl	0.998486	0.114516	0.376140
Cl232	Cl	0.479507	-0.552185	-0.290501
Cl233	Cl	0.812841	-0.218852	0.042832
Cl234	Cl	1.146174	0.114481	0.376166
H235	H	0.666853	-0.481679	-0.229033
H236	H	1.000186	-0.148345	0.104301
H237	H	1.333519	0.184988	0.437634
H238	H	0.548139	-0.481651	-0.229051
H239	H	0.881473	-0.148318	0.104283
H240	H	1.214806	0.185016	0.437616
H241	H	0.896530	-0.519837	-0.861549
H242	H	1.229864	-0.186504	-0.528216
H243	H	1.563197	0.146829	-0.194883
Cl244	Cl	0.815043	-0.504518	-0.674193
Cl245	Cl	1.148376	-0.171185	-0.340860
Cl246	Cl	1.481710	0.162148	-0.007526
H247	H	0.978275	-0.294545	-0.659757
H248	H	1.311608	0.038789	-0.326424
H249	H	1.644941	0.372122	0.006909
Cl250	Cl	0.916765	-0.224109	-0.728345
Cl251	Cl	1.250098	0.109225	-0.395012
Cl252	Cl	1.583431	0.442558	-0.061678
H253	H	0.978281	-0.294361	-1.063394
H254	H	1.311614	0.038972	-0.730061
H255	H	1.644947	0.372306	-0.396727
Cl256	Cl	0.916767	-0.224040	-0.876038
Cl257	Cl	1.250101	0.109293	-0.542705
Cl258	Cl	1.583434	0.442627	-0.209372
Cl259	Cl	0.815032	-0.504580	-0.526499
Cl260	Cl	1.148365	-0.171247	-0.193166
Cl261	Cl	1.481699	0.162086	0.140168
Cl262	Cl	0.533877	-0.272021	-0.392484
Cl263	Cl	0.867210	0.061312	-0.059151
Cl264	Cl	1.200544	0.394645	0.274182
Cl265	Cl	0.894343	-0.552075	-0.728353
Cl266	Cl	1.227676	-0.218741	-0.395020
Cl267	Cl	1.561010	0.114592	-0.061687
