data_functionalizedCrystal
_audit_creation_method	'MofGen! by Chris Wilmer'
_symmetry_space_group_name_H-M	'P1'
_symmetry_Int_Tables_number	1
_symmetry_cell_setting	triclinic
loop_
_symmetry_equiv_pos_as_xyz
  x,y,z
_cell_length_a	12.594516
_cell_length_b	11.169417
_cell_length_c	11.169409
_cell_angle_alpha	89.980176
_cell_angle_beta	90.033030
_cell_angle_gamma	89.987306
loop_
_atom_site_label
_atom_site_type_symbol
_atom_site_fract_x
_atom_site_fract_y
_atom_site_fract_z
Zn1	Zn	-0.423631	-1.834950	0.678537
Zn2	Zn	-0.601657	-1.834834	0.477851
Zn3	Zn	-0.423696	-1.634236	0.477871
Zn4	Zn	-0.601571	-1.634238	0.678496
O5	O	-0.512639	-1.734565	0.578189
O6	O	-0.447256	-2.002884	0.651924
O7	O	-0.578114	-1.808175	0.309904
O8	O	-0.274741	-1.660909	0.504515
O9	O	-0.578051	-2.002799	0.504482
O10	O	-0.274694	-1.808372	0.651944
O11	O	-0.447366	-1.660796	0.309919
O12	O	-0.447282	-1.466287	0.504476
O13	O	-0.577903	-1.660912	0.846452
O14	O	-0.577966	-1.466288	0.651874
O15	O	-0.447172	-1.808375	0.846481
O16	O	-0.750591	-1.808177	0.504442
O17	O	-0.750528	-1.660800	0.651855
C18	C	-0.512623	-1.422740	0.578174
C19	C	-0.512641	-1.289340	0.578195
C20	C	-0.789180	-1.734509	0.578168
C21	C	-0.907485	-1.734595	0.578199
C22	C	-0.512520	-1.734657	0.891232
C23	C	-0.512470	-1.734696	1.024632
C24	C	-0.976734	-1.814846	0.498107
C25	C	-1.047421	-1.844180	0.607650
C26	C	-1.047597	-1.705412	0.468726
C27	C	-0.976614	-1.763984	0.687800
C28	C	-0.976783	-1.625165	0.548802
C29	C	-1.047438	-1.654457	0.658421
C30	C	-0.235018	-1.734653	0.578236
C31	C	-0.116712	-1.734691	0.578256
C32	C	-0.512656	-2.047607	0.578205
C33	C	-0.512663	-2.181007	0.578212
C34	C	-0.512680	-1.734542	0.266364
C35	C	-0.512430	-1.734735	0.132965
H36	H	-0.945688	-1.882723	0.430437
H37	H	-1.078453	-1.936763	0.632546
H38	H	-0.945568	-1.788616	0.780483
H39	H	-1.078288	-1.586632	0.726255
C40	C	-0.934815	-1.500131	0.515117
N41	N	-0.903200	-1.405956	0.489730
H42	H	-1.078774	-1.680689	0.376123
