data_functionalizedCrystal
_audit_creation_method	'MofGen! by Chris Wilmer'
_symmetry_space_group_name_H-M	'P1'
_symmetry_Int_Tables_number	1
_symmetry_cell_setting	triclinic
loop_
_symmetry_equiv_pos_as_xyz
  x,y,z
_cell_length_a	18.050591
_cell_length_b	18.050589
_cell_length_c	18.050571
_cell_angle_alpha	89.916021
_cell_angle_beta	89.932189
_cell_angle_gamma	90.024669
loop_
_atom_site_label
_atom_site_type_symbol
_atom_site_fract_x
_atom_site_fract_y
_atom_site_fract_z
Zn1	Zn	1.135645	-0.295295	-0.420032
Zn2	Zn	1.135451	-0.419621	-0.295851
Zn3	Zn	1.011360	-0.295441	-0.295845
Zn4	Zn	1.011412	-0.419440	-0.419989
O5	O	1.073467	-0.357449	-0.357929
O6	O	1.239544	-0.311801	-0.403579
O7	O	1.118888	-0.403285	-0.191925
O8	O	1.027906	-0.191497	-0.312334
O9	O	1.239402	-0.403143	-0.312344
O10	O	1.119217	-0.191389	-0.403574
O11	O	1.027718	-0.312051	-0.191921
O12	O	0.907442	-0.311876	-0.312293
O13	O	1.027995	-0.402835	-0.523920
O14	O	0.907481	-0.402977	-0.403501
O15	O	1.119268	-0.311626	-0.523951
O16	O	1.118938	-0.523521	-0.312303
O17	O	1.027807	-0.523388	-0.403507
C18	C	0.880515	-0.357423	-0.357892
C19	C	0.797969	-0.357430	-0.357894
C20	C	0.549101	-0.307837	-0.308412
C21	C	0.598590	-0.289678	-0.376187
C22	C	0.500849	-0.357467	-0.357955
C23	C	0.598442	-0.375573	-0.290154
C24	C	0.646834	-0.357447	-0.357921
C25	C	0.549251	-0.339274	-0.425766
C26	C	0.549098	-0.425199	-0.339687
C27	C	0.598564	-0.407066	-0.407508
C28	C	0.416751	-0.357477	-0.357973
C29	C	0.730930	-0.357437	-0.357911
C30	C	1.073377	-0.550401	-0.357917
C31	C	1.073407	-0.632947	-0.357937
C32	C	1.023899	-0.832352	-0.407516
C33	C	1.005744	-0.881863	-0.339747
C34	C	1.073480	-0.784077	-0.357946
C35	C	1.091671	-0.881648	-0.425723
C36	C	1.073549	-0.930062	-0.357962
C37	C	1.055290	-0.832501	-0.290141
C38	C	1.141249	-0.832282	-0.376163
C39	C	1.123119	-0.881770	-0.308348
C40	C	1.073438	-0.699979	-0.357938
C41	C	1.073591	-1.014159	-0.357962
C42	C	1.267173	-0.357476	-0.357967
C43	C	1.349719	-0.357487	-0.357983
C44	C	1.073659	-0.357194	-0.551635
C45	C	1.073740	-0.357085	-0.634182
C46	C	1.073577	-0.163743	-0.357958
C47	C	1.073624	-0.081198	-0.357970
C48	C	1.073319	-0.357650	-0.164977
C49	C	1.073381	-0.357549	-0.082431
C50	C	1.023637	-0.308031	0.166358
C51	C	1.005883	-0.375963	0.117174
C52	C	1.073619	-0.357243	0.214688
C53	C	1.091220	-0.289466	0.116792
C54	C	1.073500	-0.357390	0.068704
C55	C	1.055831	-0.425211	0.166591
C56	C	1.141200	-0.338668	0.166213
C57	C	1.123472	-0.406647	0.117051
C58	C	1.073686	-0.357157	0.298787
C59	C	1.073434	-0.357483	-0.015393
H60	H	0.527343	-0.482471	-0.324225
O61	O	1.111018	-0.213462	0.087831
H62	H	1.064942	-0.192122	0.053186
H63	H	1.039865	-0.810999	-0.232814
H64	H	0.620054	-0.390894	-0.232829
O65	O	1.035948	-0.501240	0.195427
H66	H	1.036124	-0.500572	0.256913
H67	H	0.620316	-0.232388	-0.391638
H68	H	1.165078	-0.903331	-0.266386
O69	O	0.967684	-0.252887	0.195049
H70	H	0.968604	-0.252942	0.256532
H71	H	0.527731	-0.323885	-0.483106
O72	O	1.179392	-0.461914	0.088538
H73	H	1.164555	-0.518159	0.108594
H74	H	0.948467	-0.903657	-0.324353
H75	H	0.981908	-0.810655	-0.449376
H76	H	0.620143	-0.449028	-0.449439
H77	H	1.107030	-0.903239	-0.483035
H78	H	1.198386	-0.322870	0.187777
O79	O	0.520325	-0.252219	-0.253003
H80	H	0.540149	-0.196030	-0.268335
O81	O	1.217187	-0.803576	-0.396509
H82	H	1.232167	-0.823282	-0.452784
O83	O	0.930118	-0.396868	0.088622
H84	H	0.888773	-0.355878	0.108361
