data_functionalizedCrystal
_audit_creation_method	'MofGen! by Chris Wilmer'
_symmetry_space_group_name_H-M	'P1'
_symmetry_Int_Tables_number	1
_symmetry_cell_setting	triclinic
loop_
_symmetry_equiv_pos_as_xyz
  x,y,z
_cell_length_a	19.121102
_cell_length_b	16.994747
_cell_length_c	19.120904
_cell_angle_alpha	87.563235
_cell_angle_beta	89.911827
_cell_angle_gamma	87.566366
loop_
_atom_site_label
_atom_site_type_symbol
_atom_site_fract_x
_atom_site_fract_y
_atom_site_fract_z
Zn1	Zn	1.054924	-0.385856	0.442202
Zn2	Zn	1.059869	-0.512387	0.325011
Zn3	Zn	0.942690	-0.374637	0.319982
Zn4	Zn	0.937680	-0.511857	0.437213
O5	O	0.998791	-0.446184	0.381102
O6	O	1.153686	-0.407558	0.430849
O7	O	1.048491	-0.489641	0.226237
O8	O	0.957606	-0.265744	0.336177
O9	O	1.157319	-0.500520	0.344749
O10	O	1.040063	-0.273987	0.425972
O11	O	0.962401	-0.388436	0.222542
O12	O	0.843919	-0.387922	0.331340
O13	O	0.949066	-0.499616	0.535981
O14	O	0.840238	-0.488737	0.417470
O15	O	1.035205	-0.407044	0.539647
O16	O	1.043633	-0.622697	0.339912
O17	O	0.953862	-0.622308	0.422346
C18	C	0.816641	-0.437055	0.373318
C19	C	0.738716	-0.433169	0.370005
C20	C	0.998749	-0.651123	0.381132
C21	C	0.998754	-0.740446	0.381130
Zn22	Zn	0.942711	-1.005723	0.319963
Zn23	Zn	1.054956	-1.016921	0.442172
Zn24	Zn	0.937705	-0.879250	0.437202
Zn25	Zn	1.059883	-0.879642	0.324989
O26	O	0.998814	-0.945384	0.381082
O27	O	0.957635	-1.117590	0.336151
O28	O	1.035246	-1.003181	0.539620
O29	O	0.840262	-0.891176	0.417467
O30	O	1.040100	-1.125817	0.425938
O31	O	0.843940	-0.984096	0.331332
O32	O	0.949101	-0.902034	0.535969
O33	O	0.953878	-0.768920	0.422340
O34	O	1.048497	-0.891844	0.226215
O35	O	1.043642	-0.769208	0.339898
O36	O	0.962411	-0.984476	0.222523
O37	O	1.153717	-1.003561	0.430811
O38	O	1.157336	-0.902703	0.344717
C39	C	0.700211	-0.483905	0.413221
C40	C	0.626992	-0.480244	0.410111
C41	C	0.592279	-0.425850	0.363781
C42	C	0.630789	-0.375108	0.320563
C43	C	0.704006	-0.378766	0.323677
C44	C	0.371304	-0.412172	0.352143
C45	C	0.298081	-0.408519	0.349031
C46	C	0.294289	-0.513655	0.438580
C47	C	0.367509	-0.517311	0.441686
C48	C	0.406012	-0.466567	0.398471
C49	C	0.517437	-0.422108	0.360600
C50	C	0.480852	-0.470305	0.401657
C51	C	1.181652	-0.455350	0.388917
C52	C	1.259576	-0.459255	0.392247
C53	C	0.991025	-0.454522	0.563963
C54	C	0.987716	-0.458076	0.641888
C55	C	0.998836	-0.240445	0.381068
C56	C	0.998859	-0.151123	0.381054
C57	C	1.006567	-0.437823	0.198954
C58	C	1.010012	-0.434055	0.121035
C59	C	1.031006	-0.411550	0.680406
C60	C	1.027888	-0.414885	0.753624
C61	C	0.981483	-0.464751	0.788323
C62	C	0.938188	-0.511278	0.749799
C63	C	0.941303	-0.507938	0.676582
C64	C	0.969831	-0.477242	1.009295
C65	C	0.966721	-0.480581	1.082517
C66	C	1.056421	-0.384186	1.086337
C67	C	1.059535	-0.380854	1.013119
C68	C	1.016237	-0.427378	0.974601
C69	C	0.978296	-0.468163	0.863163
C70	C	1.019421	-0.423961	0.899762
C71	C	1.180964	-0.954392	0.388850
C72	C	1.258888	-0.958269	0.392194
C73	C	1.006562	-0.936955	0.198220
C74	C	1.009864	-0.933363	0.120295
C75	C	0.815952	-0.936343	0.373284
C76	C	0.738027	-0.932490	0.369962
C77	C	0.991046	-0.953823	0.563230
C78	C	0.987548	-0.957556	0.641146
C79	C	1.293579	-1.012646	0.438552
C80	C	1.366796	-1.016305	0.441694
C81	C	1.405322	-0.965583	0.398482
C82	C	1.370627	-0.911203	0.352119
C83	C	1.297410	-0.907548	0.348973
C84	C	0.966589	-0.979904	0.081774
C85	C	0.969678	-0.976528	0.008554
C86	C	1.016045	-0.926615	-0.026142
C87	C	1.059321	-0.880068	0.012384
C88	C	1.056229	-0.883440	0.085601
C89	C	0.699514	-0.882297	0.413248
C90	C	0.626295	-0.878661	0.410126
C91	C	0.591591	-0.925224	0.363721
C92	C	0.630110	-0.975420	0.320430
C93	C	0.703327	-0.979051	0.323549
C94	C	0.941378	-0.906296	0.675819
C95	C	0.938078	-0.909802	0.749029
C96	C	0.980953	-0.964565	0.787565
C97	C	1.027125	-1.015830	0.752887
C98	C	1.030421	-1.012327	0.679678
H99	H	0.728469	-0.528202	0.450945
F100	F	1.072752	-1.074109	0.793910
F101	F	1.079568	-1.066884	0.642785
H102	H	1.018557	-0.923878	-0.085761
F103	F	0.895740	-0.848007	0.634819
H104	H	0.489166	-0.377821	0.322876
H105	H	1.057201	-0.383358	0.871507
H106	H	0.928930	-0.521189	1.110766
H107	H	0.595645	-0.521560	0.445301
F108	F	0.404448	-0.575207	0.490995
H109	H	1.464939	-0.968566	0.401050
H110	H	0.594943	-0.837786	0.445381
H111	H	1.269171	-0.863264	0.311226
H112	H	0.928831	-1.020551	0.110014
F113	F	0.923616	-1.026074	-0.032435
H114	H	0.900480	-0.868052	0.777253
F115	F	1.108654	-0.826936	-0.024554
F116	F	1.102301	-0.833913	0.126591
F117	F	0.977437	-0.968284	0.865481
H118	H	0.531972	-0.922257	0.361186
F119	F	0.253306	-0.567658	0.484568
H120	H	1.262220	-1.053952	0.473745
H121	H	0.727760	-0.844376	0.451036
H122	H	1.402006	-0.869907	0.316936
H123	H	0.601842	-1.013329	0.282648
F124	F	0.261138	-0.350627	0.299714
H125	H	0.734679	-1.019929	0.288302
H126	H	0.602519	-0.330816	0.282844
F127	F	0.744985	-0.324764	0.277682
F128	F	0.412272	-0.358162	0.306151
H129	H	1.068797	-0.370946	0.652160
F130	F	0.517797	-0.528193	0.450964
H131	H	1.097325	-0.340250	0.984873
F132	F	1.073989	-0.365394	0.794616
F133	F	0.923749	-0.526758	0.968311
F134	F	0.888796	-0.564346	0.786729
F135	F	1.102497	-0.334673	1.127335
H136	H	0.940516	-0.508767	0.891423
F137	F	0.895225	-0.557456	0.635588
H138	H	1.395035	-1.060587	0.479451
