data_functionalizedCrystal
_audit_creation_method	'MofGen! by Chris Wilmer'
_symmetry_space_group_name_H-M	'P1'
_symmetry_Int_Tables_number	1
_symmetry_cell_setting	triclinic
loop_
_symmetry_equiv_pos_as_xyz
  x,y,z
_cell_length_a	19.805407
_cell_length_b	19.805405
_cell_length_c	19.805399
_cell_angle_alpha	89.972514
_cell_angle_beta	89.978936
_cell_angle_gamma	90.026712
loop_
_atom_site_label
_atom_site_type_symbol
_atom_site_fract_x
_atom_site_fract_y
_atom_site_fract_z
Zn1	Zn	-1.034729	0.269497	0.382747
Zn2	Zn	-1.034642	0.382686	0.269559
Zn3	Zn	-0.921544	0.269514	0.269569
Zn4	Zn	-0.921505	0.382648	0.382703
O5	O	-0.978105	0.326086	0.326144
O6	O	-1.129434	0.284521	0.367747
O7	O	-1.019619	0.367696	0.174844
O8	O	-0.936611	0.174795	0.284605
O9	O	-1.129370	0.367680	0.284588
O10	O	-1.019768	0.174783	0.367756
O11	O	-0.936526	0.284549	0.174851
O12	O	-0.826822	0.284512	0.284562
O13	O	-0.936545	0.367615	0.477425
O14	O	-0.826794	0.367631	0.367681
O15	O	-1.019730	0.284484	0.477458
O16	O	-1.019581	0.477397	0.284545
O17	O	-0.936460	0.477369	0.367671
C18	C	-0.802249	0.326070	0.326118
C19	C	-0.727017	0.326079	0.326123
C20	C	-0.978025	0.501942	0.326117
C21	C	-0.978053	0.577174	0.326128
C22	C	-0.691676	0.369424	0.369332
C23	C	-0.620987	0.369424	0.369339
C24	C	-0.585642	0.326082	0.326134
C25	C	-0.620988	0.282733	0.282923
C26	C	-0.691675	0.282730	0.282919
C27	C	-0.335915	0.282743	0.282938
C28	C	-0.265222	0.282750	0.282944
C29	C	-0.265227	0.369437	0.369358
C30	C	-0.335914	0.369434	0.369354
C31	C	-0.371254	0.326082	0.326146
C32	C	-0.447903	0.326082	0.326139
C33	C	-0.508994	0.326085	0.326137
C34	C	-0.154648	0.326098	0.326165
C35	C	-0.229880	0.326092	0.326157
C36	C	-1.021375	0.612510	0.282891
C37	C	-1.021402	0.683199	0.282908
C38	C	-0.978103	0.718550	0.326160
C39	C	-0.934779	0.683208	0.369402
C40	C	-0.934755	0.612521	0.369388
C41	C	-0.934872	0.968282	0.369461
C42	C	-0.934897	1.038974	0.369471
C43	C	-1.021518	1.038959	0.282981
C44	C	-1.021495	0.968272	0.282967
C45	C	-0.978174	0.932937	0.326212
C46	C	-0.978146	0.856289	0.326193
C47	C	-0.978127	0.795197	0.326175
C48	C	-0.978143	0.326043	0.502687
C49	C	-0.978159	0.326025	0.577919
C50	C	-0.978198	1.149543	0.326194
C51	C	-0.978223	1.074311	0.326236
C52	C	-0.978106	0.326080	0.150288
C53	C	-0.978221	0.325907	0.075057
C54	C	-1.021475	0.282737	0.613281
C55	C	-1.021482	0.282717	0.683970
C56	C	-0.978176	0.325990	0.719295
C57	C	-0.934856	0.369280	0.683928
C58	C	-0.934846	0.369296	0.613241
C59	C	-0.934894	0.369217	0.969001
C60	C	-0.934908	0.369200	1.039693
C61	C	-1.021530	0.282638	1.039730
C62	C	-1.021520	0.282654	0.969043
C63	C	-0.978197	0.325942	0.933682
C64	C	-0.978189	0.325961	0.857034
C65	C	-0.978187	0.325974	0.795942
H66	H	-0.720449	0.404720	0.404512
C67	C	-1.068459	0.574254	0.235903
C68	C	-1.106417	0.620334	0.198054
C69	C	-1.149806	0.585120	0.154768
H70	H	-1.042651	0.546718	0.206321
H71	H	-1.097963	0.546652	0.261801
H72	H	-1.076917	0.647925	0.172158
H73	H	-1.132239	0.647872	0.227619
H74	H	-1.179310	0.557518	0.180667
H75	H	-1.123993	0.557585	0.125191
H76	H	-1.175570	0.616379	0.129087
C77	C	-0.730015	0.235758	0.235890
C78	C	-0.712800	0.250422	0.168895
C79	C	-0.748112	0.207169	0.125553
H80	H	-0.718484	0.190269	0.245786
H81	H	-0.777181	0.241970	0.242031
H82	H	-0.665644	0.244205	0.162757
H83	H	-0.724332	0.295903	0.158978
H84	H	-0.795278	0.213381	0.131694
H85	H	-0.736578	0.161683	0.135455
H86	H	-0.736442	0.217117	0.080092
H87	H	-0.236444	0.404733	0.404543
C88	C	-1.068523	0.721685	0.236149
C89	C	-1.059344	0.791156	0.245482
C90	C	-1.102800	0.826630	0.202476
H91	H	-1.058790	0.710283	0.190594
H92	H	-1.113966	0.710034	0.246209
H93	H	-1.013912	0.802803	0.235417
H94	H	-1.069082	0.802579	0.291028
H95	H	-1.148243	0.814979	0.212536
H96	H	-1.093064	0.815222	0.156923
H97	H	-1.096583	0.873770	0.208807
C98	C	-1.068674	0.235716	1.078089
C99	C	-1.135632	0.250479	1.060920
C100	C	-1.179080	0.207277	1.096247
H101	H	-1.058884	0.190216	1.066540
H102	H	-1.062524	0.241906	1.125253
H103	H	-1.141780	0.244284	1.013766
H104	H	-1.145444	0.295971	1.072471
H105	H	-1.172930	0.213467	1.143411
H106	H	-1.169284	0.161780	1.084695
H107	H	-1.224516	0.217292	1.084607
C108	C	-1.068581	0.930014	0.235983
C109	C	-1.106542	0.976090	0.198133
C110	C	-1.149933	0.940873	0.154853
H111	H	-1.042775	0.902476	0.206401
H112	H	-1.098083	0.902413	0.261885
H113	H	-1.077043	1.003679	0.172233
H114	H	-1.132362	1.003630	0.227697
H115	H	-1.179435	0.913272	0.180755
H116	H	-1.124122	0.913336	0.125275
H117	H	-1.175699	0.972130	0.129171
C118	C	-0.374325	0.416572	0.416153
C119	C	-0.414861	0.459914	0.377751
C120	C	-0.450248	0.503350	0.420841
H121	H	-0.401978	0.390792	0.445700
H122	H	-0.343175	0.442426	0.441879
H123	H	-0.446008	0.434063	0.352037
H124	H	-0.387226	0.485709	0.348206
H125	H	-0.419097	0.529204	0.446567
H126	H	-0.477896	0.477566	0.450386
H127	H	-0.477751	0.532768	0.394792
C128	C	-1.068422	0.235621	0.930611
C129	C	-1.030106	0.192258	0.890026
C130	C	-1.073285	0.148920	0.854610
H131	H	-1.094230	0.209771	0.961723
H132	H	-1.097889	0.261492	0.902992
H133	H	-1.000650	0.166389	0.917643
H134	H	-1.004299	0.218089	0.858902
H135	H	-1.102753	0.174791	0.826991
H136	H	-1.099091	0.123075	0.885726
H137	H	-1.047295	0.119497	0.827064
H138	H	-0.899641	0.404439	1.068453
C139	C	-0.887832	0.574116	0.416414
C140	C	-0.926123	0.533490	0.459835
C141	C	-0.882923	0.498108	0.503175
H142	H	-0.858334	0.546525	0.390569
H143	H	-0.862058	0.605269	0.442216
H144	H	-0.951885	0.502340	0.434036
H145	H	-0.955619	0.561064	0.485696
H146	H	-0.857149	0.529261	0.528977
H147	H	-0.853427	0.470521	0.477324
H148	H	-0.908897	0.470544	0.532645
C149	C	-0.887934	0.416324	0.930659
C150	C	-0.902639	0.483294	0.947826
C151	C	-0.859392	0.526707	0.912513
H152	H	-0.842445	0.406491	0.942220
H153	H	-0.894122	0.410187	0.883493
H154	H	-0.896445	0.489428	0.994982
H155	H	-0.948119	0.493148	0.936263
H156	H	-0.865579	0.520569	0.865346
H157	H	-0.813905	0.516867	0.924076
H158	H	-0.869367	0.572151	0.924151
H159	H	-1.056795	1.067737	0.247772
H160	H	-0.592204	0.247440	0.247747
H161	H	-0.899593	0.404511	0.712695
C162	C	-0.887795	0.929834	0.416293
C163	C	-0.844436	0.889299	0.377918
C164	C	-0.801064	0.853859	0.421037
H165	H	-0.861943	0.960932	0.442068
H166	H	-0.913641	0.902179	0.445795
H167	H	-0.818593	0.916951	0.348428
H168	H	-0.870269	0.858188	0.352144
H169	H	-0.826910	0.826205	0.450538
H170	H	-0.775217	0.884962	0.446810
H171	H	-0.771644	0.826348	0.395006
H172	H	-1.056755	0.247469	0.712759
H173	H	-0.899638	1.067755	0.404696
H174	H	-0.592215	0.404720	0.404524
C175	C	-0.226967	0.235613	0.236010
C176	C	-0.273045	0.197632	0.198183
C177	C	-0.237830	0.154199	0.154950
H178	H	-0.199367	0.261390	0.206413
H179	H	-0.199429	0.206125	0.261946
H180	H	-0.300572	0.227116	0.172249
H181	H	-0.300647	0.171841	0.227763
H182	H	-0.210291	0.124712	0.180886
H183	H	-0.210231	0.179982	0.125357
H184	H	-0.269088	0.128420	0.129283
H185	H	-0.899527	0.711997	0.404621
C186	C	-1.068520	0.235679	0.575054
C187	C	-1.106441	0.197752	0.621156
C188	C	-1.149779	0.154386	0.585968
H189	H	-1.098054	0.261503	0.547476
H190	H	-1.042655	0.206155	0.547495
H191	H	-1.132304	0.227272	0.648703
H192	H	-1.076925	0.171914	0.648735
H193	H	-1.123914	0.124862	0.558409
H194	H	-1.179308	0.180215	0.558392
H195	H	-1.175509	0.128643	0.617243
H196	H	-0.364680	0.247448	0.247750
H197	H	-0.899567	0.404539	0.584450
