data_functionalizedCrystal
_audit_creation_method	'MofGen! by Chris Wilmer'
_symmetry_space_group_name_H-M	'P1'
_symmetry_Int_Tables_number	1
_symmetry_cell_setting	triclinic
loop_
_symmetry_equiv_pos_as_xyz
  x,y,z
_cell_length_a	10.268362
_cell_length_b	11.792241
_cell_length_c	11.792241
_cell_angle_alpha	84.193416
_cell_angle_beta	89.994572
_cell_angle_gamma	89.999626
loop_
_atom_site_label
_atom_site_type_symbol
_atom_site_fract_x
_atom_site_fract_y
_atom_site_fract_z
O1	O	0.108174	-1.506909	-0.155569
O2	O	0.441508	-1.173575	0.177765
O3	O	0.774841	-0.840242	0.511098
O4	O	0.108205	-1.176568	-0.171602
O5	O	0.441538	-0.843234	0.161732
O6	O	0.774871	-0.509901	0.495065
O7	O	0.108180	-1.349755	0.001585
O8	O	0.441513	-1.016421	0.334919
O9	O	0.774846	-0.683088	0.668252
O10	O	0.108199	-1.333722	-0.328756
O11	O	0.441533	-1.000388	0.004578
O12	O	0.774866	-0.667055	0.337911
O13	O	-0.108421	-1.349740	0.001593
O14	O	0.224912	-1.016406	0.334926
O15	O	0.558246	-0.683073	0.668259
O16	O	-0.108396	-1.176553	-0.171594
O17	O	0.224937	-0.843219	0.161739
O18	O	0.558271	-0.509886	0.495072
O19	O	-0.108426	-1.506894	-0.155561
O20	O	0.224907	-1.173560	0.177772
O21	O	0.558240	-0.840227	0.511105
Cu22	Cu	-0.128188	-1.341722	-0.163577
Cu23	Cu	0.205145	-1.008388	0.169756
Cu24	Cu	0.538478	-0.675055	0.503089
Cu25	Cu	0.127967	-1.341740	-0.163586
Cu26	Cu	0.461300	-1.008406	0.169748
Cu27	Cu	0.794634	-0.675073	0.503081
O28	O	-0.108401	-1.333707	-0.328748
O29	O	0.224932	-1.000373	0.004585
O30	O	0.558265	-0.667040	0.337918
C31	C	-0.000092	-1.134269	-0.170591
C32	C	0.333242	-0.800936	0.162742
C33	C	0.666575	-0.467603	0.496076
C34	C	-0.000080	-1.008255	-0.167576
C35	C	0.333253	-0.674922	0.165757
C36	C	0.666586	-0.341589	0.499090
N37	N	-0.308354	-1.341717	-0.163571
N38	N	0.024979	-1.008384	0.169763
N39	N	0.358312	-0.675051	0.503096
C40	C	-0.000120	-1.348740	0.043880
C41	C	0.333213	-1.015407	0.377213
C42	C	0.666546	-0.682073	0.710547
C43	C	-0.000119	-1.345726	0.169894
C44	C	0.333215	-1.012392	0.503227
C45	C	0.666548	-0.679059	0.836560
C46	C	-0.574025	-1.341734	-0.163583
C47	C	-0.240692	-1.008401	0.169750
C48	C	0.092642	-0.675067	0.503083
C49	C	-0.426187	-1.341721	-0.163580
C50	C	-0.092854	-1.008388	0.169754
C51	C	0.240480	-0.675054	0.503087
N52	N	0.308133	-1.341753	-0.163584
N53	N	0.641466	-1.008420	0.169750
N54	N	0.974799	-0.675086	0.503083
C55	C	-0.000127	-1.549192	-0.156572
C56	C	0.333206	-1.215859	0.176761
C57	C	0.666540	-0.882525	0.510095
C58	C	-0.000130	-1.675206	-0.159587
C59	C	0.333204	-1.341873	0.173747
C60	C	0.666537	-1.008539	0.507080
C61	C	-0.000118	-0.777543	-0.162034
C62	C	0.333215	-0.444210	0.171300
C63	C	0.666549	-0.110877	0.504633
C64	C	-0.000097	-0.905928	-0.165113
C65	C	0.333236	-0.572595	0.168220
C66	C	0.666569	-0.239262	0.501553
C67	C	-0.000099	-1.334721	-0.371043
C68	C	0.333235	-1.001388	-0.037710
C69	C	0.666568	-0.668055	0.295624
C70	C	-0.000092	-1.337736	-0.497057
C71	C	0.333242	-1.004402	-0.163723
C72	C	0.666575	-0.671069	0.169610
C73	C	-0.000096	-1.340183	0.400606
C74	C	0.333237	-1.006849	0.733939
C75	C	0.666570	-0.673516	1.067272
C76	C	-0.000108	-1.343262	0.272221
C77	C	0.333225	-1.009929	0.605554
C78	C	0.666558	-0.676596	0.938887
