data_functionalizedCrystal
_audit_creation_method	'MofGen! by Chris Wilmer'
_symmetry_space_group_name_H-M	'P1'
_symmetry_Int_Tables_number	1
_symmetry_cell_setting	triclinic
loop_
_symmetry_equiv_pos_as_xyz
  x,y,z
_cell_length_a	19.288864
_cell_length_b	15.944551
_cell_length_c	18.366186
_cell_angle_alpha	90.006079
_cell_angle_beta	90.022929
_cell_angle_gamma	83.317492
loop_
_atom_site_label
_atom_site_type_symbol
_atom_site_fract_x
_atom_site_fract_y
_atom_site_fract_z
O1	O	0.921629	0.104782	0.060785
O2	O	0.719405	0.118917	0.060735
O3	O	0.826039	-0.010446	0.060755
O4	O	0.814995	0.234146	0.060765
O5	O	0.826021	-0.010450	-0.060345
O6	O	0.719387	0.118914	-0.060364
O7	O	0.921610	0.104779	-0.060315
Zn8	Zn	0.820496	0.111846	-0.079567
Zn9	Zn	0.820520	0.111850	0.079987
O10	O	0.814976	0.234142	-0.060334
C11	C	0.693519	0.118461	0.000179
C12	C	0.616411	0.117095	0.000160
C13	C	0.571915	0.193000	0.000175
C14	C	0.499465	0.191717	0.000183
C15	C	0.471514	0.114526	0.000191
C16	C	0.516020	0.038611	0.000172
C17	C	0.588469	0.039896	0.000156
C18	C	0.363098	0.053846	0.042639
C19	C	0.290651	0.052564	0.042659
C20	C	0.248058	0.110560	0.000234
C21	C	0.277920	0.169851	-0.042200
C22	C	0.350369	0.171136	-0.042216
C23	C	0.392956	0.113124	0.000207
C24	C	0.125002	0.185079	0.000257
C25	C	0.052550	0.183793	0.000260
C26	C	0.069107	0.030684	0.000257
C27	C	0.141557	0.031972	0.000246
C28	C	0.169500	0.109172	0.000249
C29	C	0.825572	-0.041740	0.000205
C30	C	0.824197	-0.134981	0.000204
C31	C	0.754815	-0.349571	0.000197
C32	C	0.787025	-0.410714	-0.059504
C33	C	0.821710	-0.305697	0.000209
C34	C	0.787059	-0.410694	0.059890
C35	C	0.819303	-0.470601	0.000217
C36	C	0.853938	-0.365612	-0.059542
C37	C	0.853963	-0.365586	0.059906
C38	C	0.886222	-0.426712	0.000190
C39	C	0.823095	-0.210700	0.000204
C40	C	0.817924	-0.565597	0.000217
C41	C	0.947497	0.105235	0.000243
C42	C	1.024605	0.106600	0.000267
C43	C	0.815444	0.265436	0.000217
C44	C	0.816819	0.358677	0.000223
N45	N	0.820484	0.111842	-0.188458
C46	C	0.862606	0.162661	-0.226539
C47	C	0.862617	0.162659	-0.302767
C48	C	0.820494	0.111847	-0.340910
C49	C	0.778370	0.061017	-0.302820
C50	C	0.778365	0.061015	-0.226594
C51	C	0.757877	0.109722	-0.461707
C52	C	0.757880	0.109731	-0.537932
C53	C	0.820510	0.111850	-0.576018
C54	C	0.883137	0.113978	-0.537870
C55	C	0.883132	0.113975	-0.461643
C56	C	0.820495	0.111844	-0.423565
C57	C	0.862647	0.162669	-0.696754
C58	C	0.862660	0.162661	-0.772983
C59	C	0.778406	0.061024	-0.773035
C60	C	0.778400	0.061028	-0.696808
C61	C	0.820519	0.111855	-0.658671
N62	N	0.820537	0.111847	0.188878
H63	H	0.177787	-0.029838	0.000238
H64	H	0.266342	0.004289	0.077214
Br65	Br	0.919835	0.231629	-0.824667
H66	H	0.941797	-0.460084	0.000170
Br67	Br	0.739893	-0.443998	0.144007
H68	H	0.882201	-0.345732	-0.110070
H69	H	0.706872	0.108003	-0.430704
H70	H	0.463229	0.253530	0.000193
Br71	Br	0.739856	-0.444049	-0.143654
Br72	Br	0.901097	-0.332211	0.144059
H73	H	0.374680	0.219411	-0.076770
Br74	Br	0.220124	0.248568	-0.099778
H75	H	0.699288	-0.316049	0.000124
Br76	Br	0.031182	-0.074078	0.000255
Br77	Br	0.919750	0.231660	-0.174786
Br78	Br	0.721207	-0.007947	-0.354584
H79	H	0.397772	0.006617	0.077190
H80	H	0.896918	0.204044	-0.333778
Br81	Br	0.162929	0.289847	0.000256
H82	H	0.934125	0.115705	-0.430586
H83	H	0.594661	0.255862	0.000179
Br84	Br	0.968140	0.116856	-0.589547
H85	H	0.016321	0.245606	0.000268
Br86	Br	0.919823	0.231627	-0.644993
Br87	Br	0.478089	-0.066150	0.000175
Br88	Br	0.648861	-0.063126	0.000135
H89	H	0.744110	0.019652	-0.804091
Br90	Br	0.721192	-0.007956	-0.174908
Br91	Br	0.672886	0.106856	-0.589697
Br92	Br	0.721218	-0.007929	-0.645122
