data_functionalizedCrystal
_audit_creation_method	'MofGen! by Chris Wilmer'
_symmetry_space_group_name_H-M	'P1'
_symmetry_Int_Tables_number	1
_symmetry_cell_setting	triclinic
loop_
_symmetry_equiv_pos_as_xyz
  x,y,z
_cell_length_a	15.297475
_cell_length_b	12.594516
_cell_length_c	15.296720
_cell_angle_alpha	99.650531
_cell_angle_beta	91.617114
_cell_angle_gamma	80.319586
loop_
_atom_site_label
_atom_site_type_symbol
_atom_site_fract_x
_atom_site_fract_y
_atom_site_fract_z
Zn1	Zn	1.253466	-0.828402	-0.726662
Zn2	Zn	1.753466	-0.328402	-0.226662
Zn3	Zn	1.278741	-0.981670	-0.580189
Zn4	Zn	1.778741	-0.481670	-0.080189
Zn5	Zn	1.132339	-0.768606	-0.554898
Zn6	Zn	1.632339	-0.268606	-0.054898
Zn7	Zn	1.106966	-0.971207	-0.701317
Zn8	Zn	1.606966	-0.471207	-0.201317
O9	O	1.192878	-0.887471	-0.640767
O10	O	1.692878	-0.387471	-0.140767
O11	O	1.379399	-0.878137	-0.728424
O12	O	1.879399	-0.378137	-0.228424
O13	O	1.280516	-0.932761	-0.454258
O14	O	1.780516	-0.432761	0.045742
O15	O	1.148448	-0.627605	-0.577705
O16	O	1.648448	-0.127605	-0.077705
O17	O	1.397968	-0.990742	-0.620811
O18	O	1.897968	-0.490742	-0.120811
O19	O	1.237439	-0.671537	-0.703900
O20	O	1.737439	-0.171537	-0.203900
O21	O	1.172956	-0.776223	-0.435677
O22	O	1.672956	-0.276223	0.064323
O23	O	1.006393	-0.766078	-0.553130
O24	O	1.506393	-0.266078	-0.053130
O25	O	1.105203	-0.972910	-0.827255
O26	O	1.605203	-0.472910	-0.327255
O27	O	0.987752	-0.914928	-0.660703
O28	O	1.487752	-0.414928	-0.160703
O29	O	1.212836	-0.867992	-0.845876
O30	O	1.712836	-0.367992	-0.345876
O31	O	1.255913	-1.129215	-0.596235
O32	O	1.755913	-0.629215	-0.096235
O33	O	1.129711	-1.121528	-0.685227
O34	O	1.629711	-0.621528	-0.185227
C35	C	0.965289	-0.832880	-0.601422
C36	C	1.465289	-0.332880	-0.101422
C37	C	0.867921	-0.809554	-0.584611
C38	C	1.367921	-0.309554	-0.084611
C39	C	0.554794	-1.054189	-0.760920
C40	C	1.054794	-0.554189	-0.260920
C41	C	0.646276	-1.076112	-0.776712
C42	C	1.146276	-0.576112	-0.276712
C43	C	0.701692	-1.009475	-0.728689
C44	C	1.201692	-0.509475	-0.228689
C45	C	0.665617	-0.920910	-0.664869
C46	C	1.165617	-0.420910	-0.164869
C47	C	0.574127	-0.898991	-0.649070
C48	C	1.074127	-0.398991	-0.149070
C49	C	0.721024	-0.854276	-0.616839
C50	C	1.221024	-0.354276	-0.116839
C51	C	0.684949	-0.765712	-0.553020
C52	C	1.184949	-0.265712	-0.053020
C53	C	0.593468	-0.743795	-0.537225
C54	C	1.093468	-0.243795	-0.037225
C55	C	0.538052	-0.810433	-0.585248
C56	C	1.038052	-0.310433	-0.085248
C57	C	0.812514	-0.876196	-0.632638
C58	C	1.312514	-0.376196	-0.132638
C59	C	0.831847	-0.720997	-0.520789
C60	C	1.331847	-0.220997	-0.020789
C61	C	0.740365	-0.699074	-0.504996
C62	C	1.240365	-0.199074	-0.004996
C63	C	1.192822	-1.163997	-0.640748
C64	C	1.692822	-0.663997	-0.140748
C65	C	1.192873	-1.282320	-0.640783
C66	C	1.692873	-0.782320	-0.140783
C67	C	1.124233	-1.347423	-0.689144
C68	C	1.624233	-0.847423	-0.189144
C69	C	1.116732	-1.399680	-0.605532
C70	C	1.616732	-0.899680	-0.105532
C71	C	1.200452	-1.440883	-0.724423
C72	C	1.700452	-0.940883	-0.224423
C73	C	1.185337	-1.333002	-0.557122
C74	C	1.685337	-0.833002	-0.057122
C75	C	1.269085	-1.374217	-0.676073
C76	C	1.769085	-0.874217	-0.176073
C77	C	1.261623	-1.426440	-0.592411
C78	C	1.761623	-0.926440	-0.092411
C79	C	1.421356	-0.942277	-0.680265
C80	C	1.921356	-0.442277	-0.180265
C81	C	1.518720	-0.965632	-0.697097
C82	C	2.018720	-0.465632	-0.197097
C83	C	1.153370	-0.925954	-0.869237
C84	C	1.653370	-0.425954	-0.369237
C85	C	1.136534	-0.942353	-0.966597
C86	C	1.636534	-0.442353	-0.466597
C87	C	1.192955	-0.609875	-0.640809
C88	C	1.692955	-0.109875	-0.140809
C89	C	1.192987	-0.491580	-0.640826
C90	C	1.692987	0.008420	-0.140826
C91	C	1.313239	-0.770087	-1.279821
C92	C	1.813239	-0.270087	-0.779821
C93	C	1.329063	-0.754682	-1.188347
C94	C	1.829063	-0.254682	-0.688347
C95	C	1.280932	-0.801598	-1.132905
C96	C	1.780932	-0.301598	-0.632905
C97	C	1.216975	-0.863922	-1.168946
C98	C	1.716975	-0.363922	-0.668946
C99	C	1.201155	-0.879335	-1.260430
C100	C	1.701155	-0.379335	-0.760430
C101	C	1.168847	-0.910847	-1.113514
C102	C	1.668847	-0.410847	-0.613514
C103	C	1.104891	-0.973170	-1.149555
C104	C	1.604891	-0.473170	-0.649555
C105	C	1.089073	-0.988580	-1.241030
C106	C	1.589073	-0.488580	-0.741030
C107	C	1.137203	-0.941664	-1.296472
C108	C	1.637203	-0.441664	-0.796472
C109	C	1.184668	-0.895433	-1.022030
C110	C	1.684668	-0.395433	-0.522030
C111	C	1.072583	-1.004682	-1.002639
C112	C	1.572583	-0.504682	-0.502639
C113	C	1.056760	-1.020086	-1.094113
C114	C	1.556760	-0.520086	-0.594113
C115	C	1.232282	-0.849074	-0.413194
C116	C	1.732282	-0.349074	0.086806
C117	C	1.249288	-0.832416	-0.315863
C118	C	1.749288	-0.332416	0.184137
H119	H	0.463559	-0.792586	-0.572395
H120	H	0.963559	-0.292586	-0.072395
H121	H	1.236741	-0.844688	-0.992695
H122	H	1.736741	-0.344688	-0.492695
H123	H	0.509668	-1.108442	-0.800008
H124	H	1.009668	-0.608442	-0.300008
O125	O	1.398040	-0.687469	-1.149473
O126	O	1.898040	-0.187469	-0.649473
H127	H	1.428847	-0.657429	-1.203390
H128	H	1.928847	-0.157429	-0.703390
H129	H	1.033393	-1.042887	-0.957499
H130	H	1.533393	-0.542887	-0.457499
H131	H	1.333461	-1.362260	-0.705927
H132	H	1.833461	-0.862260	-0.205927
O133	O	1.020090	-1.055799	-1.279902
O134	O	1.520090	-0.555799	-0.779902
H135	H	1.038116	-1.139971	-1.264920
H136	H	1.538116	-0.639971	-0.764920
H137	H	1.293819	-0.789052	-1.058424
H138	H	1.793819	-0.289052	-0.558424
H139	H	0.710979	-0.626964	-0.453034
H140	H	1.210979	-0.126964	0.046966
O141	O	1.031429	-1.415489	-0.566012
O142	O	1.531429	-0.915489	-0.066012
H143	H	1.046646	-1.454939	-0.506453
H144	H	1.546646	-0.954939	-0.006453
O145	O	1.176799	-1.271210	-0.463405
O146	O	1.676799	-0.771210	0.036595
H147	H	1.176782	-1.183229	-0.464126
H148	H	1.676782	-0.683229	0.035874
H149	H	1.319729	-1.460800	-0.551475
H150	H	1.819729	-0.960800	-0.051475
O151	O	1.208893	-1.502829	-0.818093
O152	O	1.708893	-1.002829	-0.318093
H153	H	1.151786	-1.471006	-0.858068
H154	H	1.651786	-0.971006	-0.358068
H155	H	1.352425	-0.731902	-1.324970
H156	H	1.852425	-0.231902	-0.824970
H157	H	0.876967	-0.666736	-0.481682
H158	H	1.376967	-0.166736	0.018318
H159	H	1.124323	-0.954203	-1.370959
H160	H	1.624323	-0.454203	-0.870959
H161	H	0.564100	-0.671690	-0.485250
H162	H	1.064100	-0.171690	0.014750
O163	O	0.987777	-1.087303	-1.132990
O164	O	1.487777	-0.587303	-0.632990
H165	H	1.019757	-1.157881	-1.181434
H166	H	1.519757	-0.657881	-0.681434
O167	O	0.851423	-0.971696	-0.701479
O168	O	1.351423	-0.471696	-0.201479
H169	H	0.836468	-1.048450	-0.683317
H170	H	1.336468	-0.548450	-0.183317
O171	O	0.800363	-1.033113	-0.745717
O172	O	1.300363	-0.533113	-0.245717
H173	H	0.816138	-1.105887	-0.798166
H174	H	1.316138	-0.605887	-0.298166
H175	H	0.675642	-1.148223	-0.828672
H176	H	1.175642	-0.648223	-0.328672
O177	O	1.047252	-1.301590	-0.743201
O178	O	1.547252	-0.801590	-0.243201
H179	H	0.984124	-1.311107	-0.713718
H180	H	1.484124	-0.811107	-0.213718
