data_functionalizedCrystal
_audit_creation_method	'MofGen! by Chris Wilmer'
_symmetry_space_group_name_H-M	'P1'
_symmetry_Int_Tables_number	1
_symmetry_cell_setting	triclinic
loop_
_symmetry_equiv_pos_as_xyz
  x,y,z
_cell_length_a	15.995350
_cell_length_b	11.792241
_cell_length_c	10.868271
_cell_angle_alpha	90.005281
_cell_angle_beta	89.999330
_cell_angle_gamma	96.157105
loop_
_atom_site_label
_atom_site_type_symbol
_atom_site_fract_x
_atom_site_fract_y
_atom_site_fract_z
O1	O	1.111649	-0.146296	-0.102218
O2	O	1.444983	0.187037	0.231115
O3	O	1.778316	0.520370	0.564448
O4	O	0.867956	-0.164362	-0.102244
O5	O	1.201289	0.168972	0.231090
O6	O	1.534623	0.502305	0.564423
O7	O	0.995716	0.009891	-0.102222
O8	O	1.329050	0.343224	0.231111
O9	O	1.662383	0.676558	0.564445
O10	O	0.983889	-0.320549	-0.102240
O11	O	1.317222	0.012785	0.231093
O12	O	1.650556	0.346118	0.564426
O13	O	0.995706	0.009898	0.102423
O14	O	1.329039	0.343231	0.435756
O15	O	1.662373	0.676564	0.769089
O16	O	0.867946	-0.164355	0.102401
O17	O	1.201279	0.168978	0.435734
O18	O	1.534612	0.502312	0.769067
O19	O	1.111639	-0.146289	0.102426
O20	O	1.444972	0.187044	0.435760
O21	O	1.778305	0.520377	0.769093
Zn22	Zn	0.989790	-0.155321	0.134905
Zn23	Zn	1.323124	0.178012	0.468239
Zn24	Zn	1.656457	0.511345	0.801572
Zn25	Zn	0.989804	-0.155330	-0.134723
Zn26	Zn	1.323138	0.178003	0.198610
Zn27	Zn	1.656471	0.511337	0.531944
O28	O	0.983878	-0.320542	0.102404
O29	O	1.317212	0.012791	0.435738
O30	O	1.650545	0.346125	0.769071
C31	C	0.836753	-0.163612	0.000075
C32	C	1.170086	0.169722	0.333409
C33	C	1.503419	0.503055	0.666742
C34	C	0.743792	-0.161372	0.000066
C35	C	1.077125	0.171961	0.333399
C36	C	1.410459	0.505294	0.666733
C37	C	0.406008	-0.153331	0.000092
C38	C	0.739341	0.180002	0.333425
C39	C	1.072675	0.513335	0.666759
C40	C	0.452879	-0.029232	0.000555
C41	C	0.786212	0.304102	0.333889
C42	C	1.119545	0.637435	0.667222
C43	C	0.549579	-0.031471	0.000085
C44	C	0.882913	0.301862	0.333419
C45	C	1.216246	0.635195	0.666752
C46	C	0.573587	-0.157320	0.000080
C47	C	0.906920	0.176013	0.333413
C48	C	1.240253	0.509347	0.666746
C49	C	0.532784	-0.218534	-0.116781
C50	C	0.866117	0.114800	0.216552
C51	C	1.199450	0.448133	0.549886
C52	C	0.436134	-0.215416	-0.116870
C53	C	0.769467	0.117917	0.216463
C54	C	1.102800	0.451250	0.549797
C55	C	0.435794	-0.217973	0.115849
C56	C	0.769128	0.115361	0.449182
C57	C	1.102461	0.448694	0.782516
C58	C	0.532740	-0.217943	0.117385
C59	C	0.866073	0.115390	0.450718
C60	C	1.199406	0.448723	0.784052
C61	C	0.668295	-0.159581	0.000069
C62	C	1.001628	0.173753	0.333402
C63	C	1.334961	0.507086	0.666735
C64	C	0.311300	-0.151074	0.000095
C65	C	0.644633	0.182259	0.333428
C66	C	0.977967	0.515592	0.666761
C67	C	0.994968	0.052179	0.000100
C68	C	1.328302	0.385512	0.333433
C69	C	1.661635	0.718846	0.666767
C70	C	0.992745	0.178174	0.000099
C71	C	1.326078	0.511507	0.333432
C72	C	1.659411	0.844841	0.666765
C73	C	1.142842	-0.147040	0.000104
C74	C	1.476176	0.186294	0.333438
C75	C	1.809509	0.519627	0.666771
C76	C	1.235803	-0.149279	0.000106
C77	C	1.569136	0.184055	0.333439
C78	C	1.902469	0.517388	0.666772
C79	C	0.984627	-0.362830	0.000080
C80	C	1.317960	-0.029497	0.333413
C81	C	1.651293	0.303836	0.666746
C82	C	0.986850	-0.488825	0.000073
C83	C	1.320184	-0.155492	0.333406
C84	C	1.653517	0.177841	0.666740
N85	N	0.989787	-0.155314	0.318919
N86	N	1.323120	0.178019	0.652253
N87	N	1.656454	0.511352	0.985586
C88	C	0.988655	0.408852	0.000078
C89	C	1.321989	0.742186	0.333411
C90	C	1.655322	1.075519	0.666744
C91	C	0.990927	0.280486	0.000089
C92	C	1.324261	0.613819	0.333422
C93	C	1.657594	0.947153	0.666756
N94	N	0.989814	-0.155328	-0.318737
N95	N	1.323148	0.178006	0.014596
N96	N	1.656481	0.511339	0.347930
C97	C	0.989800	-0.155328	0.569925
C98	C	1.323133	0.178006	0.903259
C99	C	1.656467	0.511339	1.236592
C100	C	0.989790	-0.155324	0.430248
C101	C	1.323123	0.178010	0.763581
C102	C	1.656457	0.511343	1.096915
H103	H	0.433065	0.020143	-0.082783
H104	H	0.766399	0.353476	0.250551
H105	H	1.099732	0.686809	0.583884
Cl106	Cl	0.574490	-0.148838	0.250862
Cl107	Cl	0.907823	0.184495	0.584196
Cl108	Cl	1.241156	0.517829	0.917529
Cl109	Cl	0.423923	0.047362	0.129945
Cl110	Cl	0.757256	0.380696	0.463279
Cl111	Cl	1.090589	0.714029	0.796612
H112	H	0.560969	-0.176023	-0.203747
H113	H	0.894303	0.157310	0.129586
H114	H	1.227636	0.490644	0.462920
H115	H	0.404448	-0.309470	0.116635
H116	H	0.737782	0.023863	0.449969
H117	H	1.071115	0.357196	0.783302
Cl118	Cl	0.557096	-0.359640	0.128275
Cl119	Cl	0.890430	-0.026306	0.461608
Cl120	Cl	1.223763	0.307027	0.794942
H121	H	0.577785	0.016646	0.083857
H122	H	0.911119	0.349979	0.417190
H123	H	1.244452	0.683312	0.750523
H124	H	0.547328	-0.310992	-0.121130
H125	H	0.880662	0.022342	0.212203
H126	H	1.213995	0.355675	0.545536
Cl127	Cl	0.592232	0.042984	-0.129690
Cl128	Cl	0.925566	0.376317	0.203643
Cl129	Cl	1.258899	0.709650	0.536977
H130	H	0.417627	-0.170782	-0.204222
H131	H	0.750960	0.162551	0.129111
H132	H	1.084294	0.495885	0.462445
Cl133	Cl	0.386980	-0.356082	-0.125067
Cl134	Cl	0.720313	-0.022748	0.208266
Cl135	Cl	1.053646	0.310585	0.541599
H136	H	0.415070	-0.177399	0.204427
H137	H	0.748403	0.155935	0.537760
H138	H	1.081737	0.489268	0.871093
