data_functionalizedCrystal
_audit_creation_method	'MofGen! by Chris Wilmer'
_symmetry_space_group_name_H-M	'P1'
_symmetry_Int_Tables_number	1
_symmetry_cell_setting	triclinic
loop_
_symmetry_equiv_pos_as_xyz
  x,y,z
_cell_length_a	19.188930
_cell_length_b	17.038272
_cell_length_c	15.500227
_cell_angle_alpha	93.043705
_cell_angle_beta	92.813384
_cell_angle_gamma	92.871831
loop_
_atom_site_label
_atom_site_type_symbol
_atom_site_fract_x
_atom_site_fract_y
_atom_site_fract_z
O1	O	0.148564	-1.040536	-0.071852
O2	O	0.481898	-0.707202	0.261481
O3	O	0.815231	-0.373869	0.594814
O4	O	0.146156	-0.812914	-0.071877
O5	O	0.479490	-0.479580	0.261456
O6	O	0.812823	-0.146247	0.594789
O7	O	0.046114	-0.933292	-0.071847
O8	O	0.379447	-0.599959	0.261486
O9	O	0.712780	-0.266626	0.594819
O10	O	0.248607	-0.920157	-0.071882
O11	O	0.581941	-0.586823	0.261451
O12	O	0.915274	-0.253490	0.594784
O13	O	0.052159	-0.925988	0.072040
O14	O	0.385492	-0.592654	0.405373
O15	O	0.718826	-0.259321	0.738706
O16	O	0.152202	-0.805609	0.072009
O17	O	0.485535	-0.472275	0.405343
O18	O	0.818868	-0.138942	0.738676
O19	O	0.154610	-1.033231	0.072035
O20	O	0.487943	-0.699897	0.405368
O21	O	0.821276	-0.366564	0.738701
Cu22	Cu	0.153958	-0.918753	0.085160
Cu23	Cu	0.487291	-0.585419	0.418493
Cu24	Cu	0.820624	-0.252086	0.751827
Cu25	Cu	0.146808	-0.927392	-0.085003
Cu26	Cu	0.480142	-0.594058	0.248330
Cu27	Cu	0.813475	-0.260725	0.581664
O28	O	0.254653	-0.912852	0.072004
O29	O	0.587986	-0.579519	0.405338
O30	O	0.921319	-0.246185	0.738671
C31	C	0.146990	-0.780140	0.000063
C32	C	0.480323	-0.446807	0.333396
C33	C	0.813656	-0.113473	0.666730
C34	C	0.140458	-0.693368	0.000054
C35	C	0.473791	-0.360035	0.333388
C36	C	0.807125	-0.026701	0.666721
C37	C	0.023099	-0.929214	0.000099
C38	C	0.356432	-0.595881	0.333432
C39	C	0.689766	-0.262548	0.666765
C40	C	-0.054485	-0.927937	0.000106
C41	C	0.278849	-0.594604	0.333439
C42	C	0.612182	-0.261270	0.666773
C43	C	0.153776	-1.066004	0.000092
C44	C	0.487110	-0.732671	0.333426
C45	C	0.820443	-0.399338	0.666759
C46	C	0.160308	-1.152777	0.000095
C47	C	0.493641	-0.819444	0.333429
C48	C	0.826975	-0.486110	0.666762
C49	C	-0.095020	-0.998572	0.000118
C50	C	0.238314	-0.665238	0.333451
C51	C	0.571647	-0.331905	0.666785
C52	C	-0.167919	-0.997373	0.000104
C53	C	0.165415	-0.664039	0.333437
C54	C	0.498748	-0.330706	0.666771
C55	C	-0.200279	-0.925534	0.000095
C56	C	0.133055	-0.592201	0.333429
C57	C	0.466388	-0.258867	0.666762
C58	C	-0.159734	-0.854890	0.000079
C59	C	0.173599	-0.521557	0.333412
C60	C	0.506932	-0.188224	0.666745
C61	C	-0.086837	-0.856092	0.000084
C62	C	0.246496	-0.522758	0.333417
C63	C	0.579829	-0.189425	0.666750
N64	N	-0.309638	-0.868136	0.049057
N65	N	0.023695	-0.534802	0.382390
N66	N	0.357029	-0.201469	0.715723
N67	N	-0.378887	-0.866999	0.049053
N68	N	-0.045554	-0.533666	0.382387
N69	N	0.287779	-0.200332	0.715720
C70	C	-0.419913	-0.921909	0.000077
C71	C	-0.086580	-0.588576	0.333411
C72	C	0.246753	-0.255243	0.666744
N73	N	-0.389074	-0.978011	-0.048884
N74	N	-0.055741	-0.644677	0.284449
N75	N	0.277593	-0.311344	0.617782
N76	N	-0.319818	-0.979150	-0.048877
N77	N	0.013515	-0.645816	0.284456
N78	N	0.346848	-0.312483	0.617789
C79	C	-0.279323	-0.924223	0.000089
C80	C	0.054010	-0.590890	0.333422
C81	C	0.387344	-0.257556	0.666756
C82	C	-0.539494	-0.991249	0.000073
C83	C	-0.206161	-0.657915	0.333406
C84	C	0.127172	-0.324582	0.666740
C85	C	-0.612395	-0.990047	0.000054
C86	C	-0.279061	-0.656714	0.333387
C87	C	0.054272	-0.323380	0.666720
C88	C	-0.604208	-0.847562	0.000037
C89	C	-0.270875	-0.514229	0.333370
C90	C	0.062458	-0.180896	0.666704
C91	C	-0.531310	-0.848767	0.000048
C92	C	-0.197977	-0.515433	0.333381
C93	C	0.135357	-0.182100	0.666714
C94	C	-0.498957	-0.920612	0.000070
C95	C	-0.165624	-0.587278	0.333403
C96	C	0.167710	-0.253945	0.666736
C97	C	0.277667	-0.916930	0.000057
C98	C	0.611000	-0.583597	0.333390
C99	C	0.944334	-0.250263	0.666723
C100	C	0.355250	-0.918208	0.000044
C101	C	0.688584	-0.584874	0.333377
C102	C	1.021917	-0.251541	0.666710
N103	N	0.158986	-0.912682	0.204843
N104	N	0.492319	-0.579349	0.538177
N105	N	0.825653	-0.246016	0.871510
C106	C	0.200424	-0.643067	0.000044
C107	C	0.533757	-0.309733	0.333378
C108	C	0.867091	0.023600	0.666711
C109	C	0.194283	-0.561535	0.000057
C110	C	0.527617	-0.228201	0.333391
C111	C	0.860950	0.105132	0.666724
C112	C	0.128176	-0.530306	0.000074
C113	C	0.461509	-0.196972	0.333407
C114	C	0.794842	0.136361	0.666741
C115	C	0.068205	-0.580613	0.000086
C116	C	0.401539	-0.247280	0.333420
C117	C	0.734872	0.086053	0.666753
C118	C	0.074347	-0.662143	0.000080
C119	C	0.407680	-0.328810	0.333413
C120	C	0.741014	0.004523	0.666746
C121	C	0.106479	-0.284614	0.000101
C122	C	0.439812	0.048719	0.333434
C123	C	0.773146	0.382052	0.666768
C124	C	0.100342	-0.203078	0.000105
C125	C	0.433675	0.130255	0.333438
C126	C	0.767009	0.463589	0.666772
C127	C	0.226421	-0.184005	0.000078
C128	C	0.559754	0.149328	0.333411
C129	C	0.893087	0.482662	0.666744
C130	C	0.232556	-0.265538	0.000066
C131	C	0.565889	0.067796	0.333399
C132	C	0.899223	0.401129	0.666732
C133	C	0.172586	-0.315838	0.000083
C134	C	0.505919	0.017496	0.333416
C135	C	0.839253	0.350829	0.666749
C136	C	0.121897	-0.446967	0.000085
C137	C	0.455231	-0.113634	0.333418
C138	C	0.788564	0.219699	0.666751
C139	C	0.178865	-0.399174	0.000078
C140	C	0.512198	-0.065841	0.333412
C141	C	0.845532	0.267492	0.666745
N142	N	0.141775	-0.933468	-0.204686
N143	N	0.475108	-0.600135	0.128647
N144	N	0.808442	-0.266801	0.461980
C145	C	0.116612	-0.963709	0.250133
C146	C	0.449946	-0.630375	0.583466
C147	C	0.783279	-0.297042	0.916800
C148	C	0.120422	-0.959125	0.340705
C149	C	0.453755	-0.625792	0.674038
C150	C	0.787089	-0.292458	1.007371
C151	C	0.166610	-0.903518	0.385985
C152	C	0.499943	-0.570185	0.719318
C153	C	0.833276	-0.236851	1.052652
C154	C	0.208985	-0.852486	0.340689
C155	C	0.542318	-0.519153	0.674023
C156	C	0.875652	-0.185820	1.007356
C157	C	0.205171	-0.857067	0.250119
C158	C	0.538505	-0.523734	0.583453
C159	C	0.871838	-0.190400	0.916786
C160	C	0.180337	-0.887017	0.659448
C161	C	0.513670	-0.553684	0.992781
C162	C	0.847003	-0.220350	1.326115
C163	C	0.184149	-0.882442	0.750024
C164	C	0.517482	-0.549109	1.083358
C165	C	0.850815	-0.215775	1.416691
C166	C	0.095584	-0.989080	0.750033
C167	C	0.428918	-0.655747	1.083367
C168	C	0.762251	-0.322413	1.416700
C169	C	0.091778	-0.993659	0.659461
C170	C	0.425111	-0.660325	0.992795
C171	C	0.758444	-0.326992	1.326128
C172	C	0.134150	-0.942624	0.614174
C173	C	0.467484	-0.609291	0.947507
C174	C	0.800817	-0.275958	1.280840
C175	C	0.170506	-0.898833	0.478564
C176	C	0.503840	-0.565500	0.811897
C177	C	0.837173	-0.232166	1.145231
C178	C	0.130250	-0.947306	0.521596
C179	C	0.463583	-0.613973	0.854930
C180	C	0.796916	-0.280640	1.188263
H181	H	-0.200929	-1.054894	0.000110
H182	H	0.132404	-0.721560	0.333443
H183	H	0.465738	-0.388227	0.666777
H184	H	0.239676	-0.815515	0.213246
H185	H	0.573009	-0.482182	0.546579
H186	H	0.906342	-0.148848	0.879912
C187	C	-0.194993	-0.776970	0.000114
C188	C	0.138340	-0.443637	0.333447
C189	C	0.471673	-0.110304	0.666781
C190	C	-0.267509	-0.791034	0.000137
C191	C	0.065824	-0.457701	0.333470
C192	C	0.399157	-0.124367	0.666804
C193	C	-0.300011	-0.719271	0.000177
C194	C	0.033323	-0.385937	0.333510
C195	C	0.366656	-0.052604	0.666843
H196	H	-0.183548	-0.750384	-0.050053
H197	H	0.149786	-0.417051	0.283281
H198	H	0.483119	-0.083717	0.616614
H199	H	-0.179302	-0.745339	0.050307
H200	H	0.154031	-0.412006	0.383640
H201	H	0.487364	-0.078673	0.716973
H202	H	-0.283194	-0.822652	-0.050051
H203	H	0.050139	-0.489319	0.283283
H204	H	0.383472	-0.155986	0.616616
H205	H	-0.278975	-0.817609	0.050300
H206	H	0.054358	-0.484275	0.383633
H207	H	0.387692	-0.150942	0.716967
H208	H	-0.284320	-0.687640	0.050370
H209	H	0.049013	-0.354306	0.383703
H210	H	0.382347	-0.020973	0.717036
H211	H	-0.288560	-0.692690	-0.049991
H212	H	0.044773	-0.359357	0.283342
H213	H	0.378107	-0.026023	0.616676
H214	H	-0.349215	-0.728803	0.000200
H215	H	-0.015882	-0.395469	0.333534
H216	H	0.317451	-0.062136	0.666867
H217	H	0.092641	-0.992579	0.484726
H218	H	0.425974	-0.659245	0.818060
H219	H	0.759307	-0.325912	1.151393
H220	H	0.068073	-0.421530	0.000123
H221	H	0.401407	-0.088197	0.333456
H222	H	0.734740	0.245136	0.666789
H223	H	0.014379	-0.555180	0.000112
H224	H	0.347713	-0.221846	0.333446
H225	H	0.681046	0.111487	0.666779
H226	H	0.025516	-0.703099	0.000087
H227	H	0.358849	-0.369765	0.333420
H228	H	0.692183	-0.036432	0.666754
H229	H	-0.513151	-1.049750	0.000087
H230	H	-0.179818	-0.716416	0.333420
H231	H	0.153515	-0.383083	0.666754
H232	H	0.079004	-1.008993	0.213271
H233	H	0.412338	-0.675660	0.546605
H234	H	0.745671	-0.342326	0.879938
H235	H	-0.053833	-0.798571	0.000074
H236	H	0.279500	-0.465237	0.333408
H237	H	0.612833	-0.131904	0.666741
C238	C	0.226428	-0.831571	0.610442
C239	C	0.559761	-0.498238	0.943776
C240	C	0.893094	-0.164904	1.277109
C241	C	0.267706	-0.781911	0.669486
C242	C	0.601040	-0.448578	1.002819
C243	C	0.934373	-0.115245	1.336152
C244	C	0.310183	-0.730830	0.624370
C245	C	0.643516	-0.397496	0.957703
C246	C	0.976850	-0.064163	1.291036
H247	H	0.197958	-0.800829	0.575122
H248	H	0.531291	-0.467496	0.908456
H249	H	0.864625	-0.134162	1.241789
H250	H	0.255722	-0.861353	0.575115
H251	H	0.589055	-0.528020	0.908448
H252	H	0.922389	-0.194686	1.241781
H253	H	0.238415	-0.752132	0.704798
H254	H	0.571749	-0.418799	1.038132
H255	H	0.905082	-0.085466	1.371465
H256	H	0.296190	-0.812632	0.704808
H257	H	0.629524	-0.479298	1.038141
H258	H	0.962857	-0.145965	1.371474
H259	H	0.339477	-0.760611	0.589042
H260	H	0.672810	-0.427278	0.922375
H261	H	1.006144	-0.093945	1.255709
H262	H	0.281708	-0.700093	0.589051
H263	H	0.615041	-0.366760	0.922385
H264	H	0.948374	-0.033426	1.255718
H265	H	0.338200	-0.697134	0.664423
H266	H	0.671533	-0.363801	0.997757
H267	H	1.004867	-0.030468	1.331090
H268	H	0.246590	-0.807206	0.377562
H269	H	0.579923	-0.473873	0.710895
H270	H	0.913256	-0.140539	1.044229
H271	H	0.085917	-1.000674	0.377579
H272	H	0.419251	-0.667341	0.710912
H273	H	0.752584	-0.334007	1.044245
H274	H	-0.630555	-0.789070	0.000026
H275	H	-0.297222	-0.455737	0.333359
H276	H	0.036111	-0.122403	0.666692
C277	C	-0.656285	-1.066823	0.000110
C278	C	-0.322951	-0.733490	0.333443
C279	C	0.010382	-0.400157	0.666777
C280	C	-0.612344	-1.129993	0.000155
C281	C	-0.279010	-0.796660	0.333488
C282	C	0.054323	-0.463327	0.666821
C283	C	-0.652750	-1.200731	0.000219
C284	C	-0.319417	-0.867398	0.333552
C285	C	0.013916	-0.534065	0.666886
H286	H	-0.686999	-1.071980	-0.050056
H287	H	-0.353666	-0.738647	0.283277
H288	H	-0.020333	-0.405313	0.616611
H289	H	-0.682780	-1.066805	0.050304
H290	H	-0.349446	-0.733472	0.383637
H291	H	-0.016113	-0.400139	0.716970
H292	H	-0.585860	-1.130012	-0.050034
H293	H	-0.252527	-0.796679	0.283299
H294	H	0.080806	-0.463346	0.616633
H295	H	-0.581629	-1.124863	0.050317
H296	H	-0.248296	-0.791529	0.383650
H297	H	0.085038	-0.458196	0.716984
H298	H	-0.679245	-1.200713	0.050413
H299	H	-0.345912	-0.867380	0.383746
H300	H	-0.012579	-0.534046	0.717079
H301	H	-0.683463	-1.205880	-0.049948
H302	H	-0.350130	-0.872547	0.283386
H303	H	-0.016797	-0.539213	0.616719
H304	H	-0.622942	-1.243600	0.000257
H305	H	-0.289609	-0.910267	0.333591
H306	H	0.043724	-0.576933	0.666924
H307	H	0.054168	-1.038938	0.622596
H308	H	0.387501	-0.705605	0.955929
H309	H	0.720835	-0.372272	1.289262
H310	H	-0.068683	-1.057074	0.000133
H311	H	0.264650	-0.723740	0.333466
H312	H	0.597984	-0.390407	0.666800
H313	H	-0.498305	-0.791248	0.000043
H314	H	-0.164972	-0.457914	0.333376
H315	H	0.168361	-0.124581	0.666709
H316	H	0.254256	-0.668486	0.000030
H317	H	0.587589	-0.335153	0.333364
H318	H	0.920922	-0.001820	0.666697
H319	H	0.046506	-0.177655	0.000118
H320	H	0.379840	0.155678	0.333451
H321	H	0.713173	0.489011	0.666784
H322	H	0.286387	-0.290958	0.000042
H323	H	0.619721	0.042375	0.333376
H324	H	0.953054	0.375708	0.666709
H325	H	0.061085	-1.030629	0.786915
H326	H	0.394419	-0.697296	1.120248
H327	H	0.727752	-0.363962	1.453582
C328	C	0.041285	-0.339091	0.000071
C329	C	0.374618	-0.005758	0.333405
C330	C	0.707951	0.327575	0.666738
C331	C	-0.017922	-0.294290	0.000062
C332	C	0.315411	0.039044	0.333395
C333	C	0.648745	0.372377	0.666729
C334	C	-0.077995	-0.344451	0.000024
C335	C	0.255339	-0.011118	0.333357
C336	C	0.588672	0.322215	0.666690
H337	H	0.043068	-0.368769	0.050234
H338	H	0.376401	-0.035436	0.383567
H339	H	0.709735	0.297898	0.716901
H340	H	0.038908	-0.373825	-0.050126
H341	H	0.372241	-0.040492	0.283208
H342	H	0.705575	0.292841	0.616541
H343	H	-0.015546	-0.259570	0.050254
H344	H	0.317787	0.073764	0.383587
H345	H	0.651121	0.407097	0.716920
H346	H	-0.019729	-0.264614	-0.050097
H347	H	0.313605	0.068720	0.283236
H348	H	0.646938	0.402053	0.616570
H349	H	-0.080371	-0.379185	-0.050173
H350	H	0.252962	-0.045852	0.283160
H351	H	0.586295	0.287482	0.616493
H352	H	-0.076204	-0.374126	0.050187
H353	H	0.257129	-0.040793	0.383521
H354	H	0.590463	0.292540	0.716854
H355	H	-0.118174	-0.314061	0.000009
H356	H	0.215160	0.019272	0.333343
H357	H	0.548493	0.352605	0.666676
H358	H	0.243114	-0.520582	0.000048
H359	H	0.576448	-0.187249	0.333382
H360	H	0.909781	0.146084	0.666715
C361	C	0.250612	-0.433129	-0.000122
C362	C	0.583946	-0.099796	0.333211
C363	C	0.917279	0.233537	0.666545
C364	C	0.254705	-0.483111	-0.074165
C365	C	0.588038	-0.149778	0.259168
C366	C	0.921372	0.183555	0.592501
C367	C	0.320791	-0.514404	-0.074390
C368	C	0.654124	-0.181070	0.258943
C369	C	0.987457	0.152263	0.592276
H370	H	0.257810	-0.462055	0.049992
H371	H	0.591143	-0.128722	0.383325
H372	H	0.924476	0.204611	0.716658
H373	H	0.285470	-0.391521	-0.000177
H374	H	0.618804	-0.058187	0.333156
H375	H	0.952137	0.275146	0.666489
H376	H	0.219857	-0.524714	-0.074102
H377	H	0.553191	-0.191380	0.259231
H378	H	0.886524	0.141953	0.592564
H379	H	0.247521	-0.454204	-0.124291
H380	H	0.580854	-0.120870	0.209042
H381	H	0.914187	0.212463	0.542376
H382	H	0.355649	-0.472795	-0.074446
H383	H	0.688982	-0.139462	0.258888
H384	H	1.022315	0.193872	0.592221
H385	H	0.327982	-0.543326	-0.024274
H386	H	0.661316	-0.209992	0.309060
H387	H	0.994649	0.123341	0.642393
H388	H	0.323579	-0.548314	-0.124631
H389	H	0.656912	-0.214981	0.208702
H390	H	0.990245	0.118353	0.542035
H391	H	0.275245	-0.143042	0.000066
H392	H	0.608578	0.190291	0.333399
H393	H	0.941911	0.523624	0.666732
H394	H	0.221763	-0.837158	0.786888
H395	H	0.555096	-0.503824	1.120221
H396	H	0.888430	-0.170491	1.453554
H397	H	0.208115	-0.853558	0.515439
H398	H	0.541448	-0.520225	0.848772
H399	H	0.874781	-0.186891	1.182106
