data_functionalizedCrystal
_audit_creation_method	'MofGen! by Chris Wilmer'
_symmetry_space_group_name_H-M	'P1'
_symmetry_Int_Tables_number	1
_symmetry_cell_setting	triclinic
loop_
_symmetry_equiv_pos_as_xyz
  x,y,z
_cell_length_a	19.288864
_cell_length_b	14.044190
_cell_length_c	17.766277
_cell_angle_alpha	90.009221
_cell_angle_beta	90.019566
_cell_angle_gamma	88.164010
loop_
_atom_site_label
_atom_site_type_symbol
_atom_site_fract_x
_atom_site_fract_y
_atom_site_fract_z
O1	O	0.928947	0.118213	0.062846
O2	O	0.727711	0.134160	0.062796
O3	O	0.825306	-0.011786	0.062805
O4	O	0.831352	0.264158	0.062836
O5	O	0.825294	-0.011789	-0.062383
O6	O	0.727699	0.134156	-0.062393
O7	O	0.928935	0.118209	-0.062343
Cu8	Cu	0.828316	0.126182	-0.073798
Cu9	Cu	0.828330	0.126187	0.074252
O10	O	0.831340	0.264155	-0.062352
C11	C	0.701796	0.133645	0.000195
C12	C	0.624593	0.132105	0.000175
C13	C	0.585401	0.217739	0.000197
C14	C	0.512861	0.216292	0.000205
C15	C	0.479516	0.129205	0.000207
C16	C	0.518718	0.043560	0.000181
C17	C	0.591256	0.045010	0.000165
C18	C	0.366858	0.060747	0.044083
C19	C	0.294321	0.059301	0.044104
C20	C	0.255783	0.124731	0.000252
C21	C	0.289791	0.191623	-0.043611
C22	C	0.362329	0.193072	-0.043627
C23	C	0.400861	0.127624	0.000223
C24	C	0.137934	0.208802	0.000281
C25	C	0.065393	0.207351	0.000284
C26	C	0.071251	0.034617	0.000268
C27	C	0.143791	0.036071	0.000257
C28	C	0.177128	0.123165	0.000267
C29	C	0.822655	-0.047091	0.000208
C30	C	0.814765	-0.152283	0.000200
C31	C	0.856297	-0.402747	0.000240
C32	C	0.800352	-0.344879	0.000220
C33	C	0.808374	-0.237709	0.000209
C34	C	0.848277	-0.509927	0.000251
C35	C	0.954851	0.118724	0.000260
C36	C	1.032053	0.120264	0.000285
C37	C	0.833991	0.299460	0.000247
C38	C	0.841881	0.404652	0.000260
N39	N	0.828311	0.126179	-0.177929
C40	C	0.871557	0.061576	-0.782213
C41	C	0.871559	0.061578	-0.703411
C42	C	0.828330	0.126178	-0.664017
C43	C	0.785110	0.190797	-0.703432
C44	C	0.785115	0.190799	-0.782232
C45	C	0.765851	0.138825	-0.539200
C46	C	0.765844	0.138816	-0.460402
C47	C	0.828315	0.126176	-0.420971
C48	C	0.890793	0.113525	-0.460349
C49	C	0.890798	0.113528	-0.539150
C50	C	0.828320	0.126183	-0.578572
C51	C	0.871537	0.061568	-0.296120
C52	C	0.871539	0.061577	-0.217317
C53	C	0.785084	0.190792	-0.217339
C54	C	0.785088	0.190787	-0.296141
C55	C	0.828313	0.126171	-0.335527
N56	N	0.828340	0.126183	0.178382
H57	H	0.491564	-0.027346	0.000193
H58	H	0.746433	-0.375824	0.000211
H59	H	0.714976	0.149122	-0.571298
Cl60	Cl	0.939541	-0.354972	0.000248
Cl61	Cl	0.730768	0.272013	-0.653910
H62	H	0.175702	-0.033662	0.000243
Cl63	Cl	0.029339	-0.074864	0.000261
Cl64	Cl	0.251576	-0.024781	0.099252
H65	H	0.398230	0.007465	0.079797
Cl66	Cl	0.925900	-0.019650	-0.831726
Cl67	Cl	0.925893	-0.019651	-0.653866
H68	H	0.906736	0.008969	-0.185233
Cl69	Cl	0.969339	0.097635	-0.588651
Cl70	Cl	0.640530	-0.062654	0.000139
Cl71	Cl	0.969333	0.097628	-0.410789
H72	H	0.906736	0.008956	-0.328190
H73	H	0.749890	0.243394	-0.185265
H74	H	0.749894	0.243393	-0.328226
H75	H	0.714970	0.149106	-0.428346
H76	H	0.612539	0.288658	0.000206
Cl77	Cl	0.463580	0.323954	0.000230
H78	H	0.390016	0.247535	-0.079344
Cl79	Cl	0.241351	0.273884	-0.098743
Cl80	Cl	0.730780	0.272025	-0.831773
H81	H	0.165078	0.279720	0.000278
H82	H	0.033483	0.277088	0.000297
