data_functionalizedCrystal
_audit_creation_method	'MofGen! by Chris Wilmer'
_symmetry_space_group_name_H-M	'P1'
_symmetry_Int_Tables_number	1
_symmetry_cell_setting	triclinic
loop_
_symmetry_equiv_pos_as_xyz
  x,y,z
_cell_length_a	21.606444
_cell_length_b	21.606444
_cell_length_c	21.606444
_cell_angle_alpha	119.998975
_cell_angle_beta	90.003914
_cell_angle_gamma	59.999875
loop_
_atom_site_label
_atom_site_type_symbol
_atom_site_fract_x
_atom_site_fract_y
_atom_site_fract_z
Zr1	Zr	0.596220	0.677471	0.081219
O2	O	0.497402	0.806582	0.180035
O3	O	0.626513	0.548355	0.050930
O4	O	0.626521	0.677469	0.180044
O5	O	0.497388	0.677470	-0.050929
O6	O	0.728371	0.677473	0.180047
O7	O	0.497395	0.677467	0.050921
O8	O	0.728357	0.446511	-0.050913
O9	O	0.497401	0.908433	0.180032
O10	O	0.715441	0.601467	0.038011
O11	O	0.639427	0.601466	-0.038001
O12	O	0.639436	0.753482	0.114013
O13	O	0.563421	0.753481	0.038001
Zr14	Zr	0.758647	0.677483	-0.081214
Zr15	Zr	0.758658	0.677478	0.081225
Zr16	Zr	0.596208	0.677476	-0.081220
Zr17	Zr	0.596218	0.839911	0.081214
Zr18	Zr	0.758649	0.515042	-0.081209
O19	O	0.728353	0.806599	-0.050925
O20	O	0.728369	0.806592	0.180043
O21	O	0.497387	0.806589	-0.050933
O22	O	0.857464	0.548372	-0.180030
O23	O	0.857480	0.548364	0.050938
O24	O	0.626497	0.548362	-0.180038
O25	O	0.857479	0.677483	0.050934
O26	O	0.728346	0.677484	-0.180039
O27	O	0.626496	0.677480	-0.180042
O28	O	0.857472	0.677486	-0.050916
O29	O	0.626518	0.908438	0.180036
O30	O	0.728348	0.446515	-0.180031
O31	O	0.857465	0.446521	-0.180026
O32	O	0.857474	0.446517	-0.050909
O33	O	0.497392	0.908437	0.050914
O34	O	0.626509	0.908442	0.050918
O35	O	0.715431	0.601472	-0.114008
O36	O	0.791445	0.601473	-0.037996
O37	O	0.715440	0.753487	0.038006
O38	O	0.639425	0.753486	-0.038006
C39	C	0.677435	0.474289	0.000009
C40	C	0.677436	0.405329	0.000011
C41	C	0.717113	0.372931	0.039690
C42	C	0.717116	0.308131	0.039685
C43	C	0.677437	0.275734	0.000005
C44	C	0.637758	0.308134	-0.039679
C45	C	0.637761	0.372928	-0.039678
C46	C	0.637749	0.046825	-0.039685
C47	C	0.637748	-0.017972	-0.039681
C48	C	0.717105	-0.017972	0.039678
C49	C	0.717107	0.046822	0.039679
C50	C	0.677432	0.079213	-0.000008
C51	C	0.677431	0.149475	-0.000003
C52	C	0.677433	0.205477	0.000004
C53	C	0.474247	0.677468	-0.000005
C54	C	0.405288	0.677465	-0.000007
C55	C	0.412563	0.598116	-0.039677
C56	C	0.347766	0.598118	-0.039678
C57	C	0.275694	0.677471	-0.000004
C58	C	0.268421	0.756826	0.039667
C59	C	0.333217	0.756823	0.039663
C60	C	0.007102	0.756842	0.039684
C61	C	-0.057696	0.756839	0.039687
C62	C	0.021651	0.598136	-0.039657
C63	C	0.086447	0.598133	-0.039661
C64	C	0.079169	0.677488	0.000007
C65	C	0.149430	0.677485	0.000006
C66	C	0.205434	0.677475	0.000002
C67	C	0.880619	0.677485	0.000010
C68	C	0.949579	0.677488	0.000012
C69	C	0.677447	0.677470	0.203190
C70	C	0.677452	0.677468	0.272150
C71	C	0.677431	0.880665	-0.000004
C72	C	0.677430	0.949625	-0.000006
C73	C	0.621308	0.677482	0.695452
C74	C	0.621314	0.677475	0.630652
C75	C	0.677428	0.677476	0.598260
C76	C	0.733544	0.677474	0.630666
C77	C	0.733540	0.677474	0.695461
C78	C	0.733561	0.677473	0.369355
C79	C	0.733560	0.677475	0.304557
C80	C	0.621336	0.677474	0.304546
C81	C	0.621332	0.677474	0.369341
C82	C	0.677449	0.677468	0.401739
C83	C	0.677442	0.677473	0.472001
C84	C	0.677432	0.677477	0.528003
C85	C	0.677420	0.677482	0.796815
C86	C	0.677418	0.677483	0.727854
C87	C	0.880621	0.474297	0.000017
C88	C	0.949581	0.405340	0.000021
C89	C	0.677421	0.474295	-0.203178
C90	C	0.677417	0.405337	-0.272136
C91	C	0.880607	0.474304	-0.203171
C92	C	0.949563	0.405349	-0.272126
C93	C	0.474259	0.880650	0.203176
C94	C	0.405304	0.949605	0.272131
C95	C	0.474245	0.880656	-0.000011
C96	C	0.405285	0.949613	-0.000016
C97	C	0.677445	0.880658	0.203183
C98	C	0.677449	0.949617	0.272141
C99	C	0.942293	0.372954	0.039705
C100	C	1.007082	0.308171	0.039725
C101	C	1.079159	0.275770	0.000056
C102	C	1.086447	0.308162	-0.039630
C103	C	1.021658	0.372949	-0.039644
C104	C	0.717089	0.372956	-0.344201
C105	C	0.717082	0.308172	-0.409000
C106	C	0.677408	0.275765	-0.401732
C107	C	0.637732	0.308152	-0.329660
C108	C	0.637734	0.372939	-0.264862
C109	C	1.021631	0.372967	-0.264830
C110	C	1.086428	0.308185	-0.329614
C111	C	1.079155	0.275782	-0.401694
C112	C	1.007080	0.308170	-0.408988
C113	C	0.942284	0.372955	-0.344204
C114	C	0.333236	0.981994	0.264835
C115	C	0.268439	1.046796	0.329620
C116	C	0.275711	1.079203	0.401699
C117	C	0.347787	1.046811	0.408993
C118	C	0.412582	0.982014	0.344210
C119	C	0.412574	0.982006	-0.039693
C120	C	0.347785	1.046807	-0.039695
C121	C	0.275707	1.079211	-0.000024
C122	C	0.268420	1.046815	0.039658
C123	C	0.333208	0.982019	0.039664
C124	C	0.717131	0.982003	0.264849
C125	C	0.717150	1.046788	0.329636
C126	C	0.677481	1.079189	0.401714
C127	C	0.637798	1.046796	0.409004
C128	C	0.637785	0.982008	0.344218
H129	H	0.605435	-0.044349	-0.071996
H130	H	0.605447	0.073186	-0.072003
H131	H	0.883609	0.399334	0.072018
H132	H	1.145141	0.281772	-0.071927
C133	C	1.029683	0.408561	-0.083309
C134	C	0.958429	0.479820	-0.083338
C135	C	0.966461	0.515428	-0.127005
C136	C	1.045747	0.479777	-0.170643
C137	C	1.117008	0.408513	-0.170614
C138	C	1.108976	0.372905	-0.126947
H139	H	0.899731	0.506216	-0.051034
H140	H	0.913709	0.568183	-0.127026
H141	H	1.051693	0.506136	-0.202967
H142	H	1.175705	0.382118	-0.202919
H143	H	1.161728	0.320151	-0.126927
C144	C	0.594102	0.408544	-0.185591
C145	C	0.594099	0.479804	-0.114307
C146	C	0.550464	0.515405	-0.035037
C147	C	0.506832	0.479746	-0.027053
C148	C	0.506833	0.408482	-0.098340
C149	C	0.550468	0.372881	-0.177609
H150	H	0.626399	0.506205	-0.120215
H151	H	0.550463	0.568159	0.017734
H152	H	0.474531	0.506100	0.031627
H153	H	0.474533	0.382081	-0.092432
H154	H	0.550469	0.320127	-0.230381
H155	H	0.575626	0.677474	0.604270
H156	H	0.327300	0.955612	0.206150
C157	C	0.594122	0.946397	0.352246
C158	C	0.550485	0.982050	0.431533
C159	C	0.506819	0.946442	0.439568
C160	C	0.506790	0.875182	0.368316
C161	C	0.550428	0.839525	0.289023
C162	C	0.594094	0.875132	0.280988
H163	H	0.550505	1.034804	0.484283
H164	H	0.474516	0.972838	0.498266
H165	H	0.474466	0.848823	0.374264
H166	H	0.550408	0.786770	0.236273
H167	H	0.626398	0.848736	0.222290
C168	C	0.760730	0.408599	-0.352208
C169	C	0.804357	0.372976	-0.431486
C170	C	0.847997	0.408618	-0.439501
C171	C	0.848010	0.479883	-0.368238
C172	C	0.804381	0.515510	-0.288953
C173	C	0.760742	0.479868	-0.280939
H174	H	0.804349	0.320218	-0.484245
H175	H	0.880294	0.382244	-0.498193
H176	H	0.880315	0.506267	-0.374171
H177	H	0.804390	0.568268	-0.236195
H178	H	0.728445	0.506242	-0.222247
H179	H	-0.116381	0.821461	0.071995
C180	C	0.594110	0.272498	-0.083327
C181	C	0.636642	0.174505	-0.147686
C182	C	0.592991	0.138873	-0.191333
C183	C	0.506807	0.201234	-0.170620
C184	C	0.464269	0.299233	-0.106258
C185	C	0.507921	0.334865	-0.062611
H186	H	0.700445	0.128336	-0.163021
H187	H	0.624480	0.066327	-0.238978
H188	H	0.474493	0.174857	-0.202930
H189	H	0.400467	0.345402	-0.090923
H190	H	0.476432	0.407411	-0.014966
H191	H	0.575643	0.677475	0.278159
H192	H	0.575611	0.677487	0.721824
C193	C	0.760760	0.408567	0.083341
C194	C	0.804407	0.372925	0.126985
C195	C	0.848057	0.408557	0.170636
C196	C	0.848060	0.479832	0.170644
C197	C	0.804412	0.515478	0.126999
C198	C	0.760762	0.479845	0.083348
H199	H	0.804406	0.320160	0.126980
H200	H	0.880368	0.382170	0.202945
H201	H	0.880372	0.506209	0.202957
H202	H	0.804412	0.568243	0.127003
H203	H	0.728450	0.506233	0.051039
C204	C	0.355781	0.510825	-0.083320
C205	C	0.322157	0.488986	-0.040789
C206	C	0.330181	0.401686	-0.084438
C207	C	0.371827	0.336224	-0.170619
C208	C	0.405454	0.358061	-0.213155
C209	C	0.397430	0.445361	-0.169506
H210	H	0.291325	0.537447	0.023012
H211	H	0.305288	0.385521	-0.052949
H212	H	0.377767	0.271599	-0.202931
H213	H	0.436286	0.309600	-0.276956
H214	H	0.422323	0.461526	-0.200995
C215	C	0.760774	0.946366	0.185569
C216	C	0.760771	0.875101	0.114295
C217	C	0.804421	0.839465	0.035018
C218	C	0.848074	0.875095	0.027013
C219	C	0.848078	0.946364	0.098289
C220	C	0.804428	0.982000	0.177566
H221	H	0.728456	0.848722	0.120219
H222	H	0.804418	0.786707	-0.017745
H223	H	0.880386	0.848715	-0.031673
H224	H	0.880394	0.972743	0.092365
H225	H	0.804432	1.034759	0.230329
C226	C	0.189163	1.082411	0.321584
C227	C	0.133704	1.180396	0.355184
C228	C	0.054431	1.216007	0.347145
C229	C	0.030617	1.153632	0.305507
C230	C	0.086077	1.055641	0.271904
C231	C	0.165350	1.020030	0.279942
H232	H	0.151332	1.226575	0.386009
H233	H	0.013376	1.288547	0.372021
H234	H	-0.028066	1.179994	0.299557
H235	H	0.068449	1.009462	0.241078
H236	H	0.206405	0.947490	0.255067
H237	H	0.145129	0.533516	-0.071965
H238	H	0.749463	1.073155	0.323685
C239	C	0.795293	0.677469	0.268920
C240	C	0.879378	0.601880	0.240046
C241	C	0.941107	0.601874	0.204410
C242	C	0.918750	0.677457	0.197646
C243	C	0.834660	0.753051	0.226520
C244	C	0.772931	0.753057	0.262157
H245	H	0.895932	0.545924	0.245053
H246	H	1.003356	0.545914	0.183035
H247	H	0.964445	0.677453	0.171265
H248	H	0.818106	0.809007	0.221514
H249	H	0.710682	0.809017	0.283531
H250	H	0.779231	0.677474	0.721842
H251	H	1.131922	0.223030	-0.454439
C252	C	0.355777	1.082460	0.488285
C253	C	0.322128	1.073554	0.543732
C254	C	0.330115	1.109202	0.623026
C255	C	0.371750	1.153757	0.646873
C256	C	0.405401	1.162665	0.591425
C257	C	0.397414	1.127017	0.512131
H258	H	0.291305	1.040570	0.526081
H259	H	0.305204	1.102607	0.664073
H260	H	0.377662	1.180146	0.705571
H261	H	0.436224	1.195649	0.609076
H262	H	0.422325	1.133612	0.471084
H263	H	1.001133	0.281805	0.072041
H264	H	0.327289	0.821438	0.071956
H265	H	0.353733	1.073173	-0.072012
C266	C	0.491854	0.946374	-0.083334
C267	C	0.563130	0.875100	-0.083339
C268	C	0.642407	0.839476	-0.126979
C269	C	0.650409	0.875125	-0.170614
C270	C	0.579131	0.946403	-0.170610
C271	C	0.499853	0.982027	-0.126970
H272	H	0.557209	0.848707	-0.051037
H273	H	0.695172	0.786712	-0.126982
H274	H	0.709095	0.848754	-0.202919
H275	H	0.585052	0.972796	-0.202913
H276	H	0.447088	1.034791	-0.126968
H277	H	0.027571	0.533522	-0.071957
H278	H	1.131908	0.223015	0.000073
C279	C	0.760735	0.272550	-0.488272
C280	C	0.846920	0.228009	-0.512079
C281	C	0.890573	0.192389	-0.591349
C282	C	0.848041	0.201311	-0.646812
C283	C	0.761852	0.245854	-0.623006
C284	C	0.718198	0.281473	-0.543736
H285	H	0.878409	0.221403	-0.471022
H286	H	0.954377	0.159416	-0.608972
H287	H	0.880356	0.174943	-0.705492
H288	H	0.730363	0.252459	-0.664064
H289	H	0.654395	0.314447	-0.526114
H290	H	0.471244	0.533497	-0.071987
C291	C	-0.000913	0.844132	0.083325
C292	C	-0.042547	0.909591	0.169508
C293	C	-0.050564	0.996888	0.213154
C294	C	-0.016947	1.018726	0.170616
C295	C	0.024690	0.953266	0.084428
C296	C	0.032707	0.865969	0.040783
H297	H	-0.067435	0.893427	0.201002
H298	H	-0.081387	1.045346	0.276956
H299	H	-0.022882	1.083348	0.202925
H300	H	0.049577	0.969430	0.052935
H301	H	0.063529	0.817511	-0.023020
C302	C	0.559607	0.677471	0.404972
C303	C	0.497887	0.677464	0.369328
C304	C	0.436164	0.677457	0.404956
C305	C	0.436160	0.677457	0.476228
C306	C	0.497882	0.677464	0.511875
C307	C	0.559606	0.677471	0.476247
H308	H	0.497888	0.677464	0.316564
H309	H	0.390473	0.677452	0.378566
H310	H	0.390469	0.677452	0.502602
H311	H	0.497881	0.677464	0.564639
H312	H	0.605296	0.677476	0.502637
H313	H	0.677412	0.223011	-0.454501
H314	H	0.605430	0.281756	-0.323754
H315	H	0.779253	0.677470	0.395729
C316	C	0.760760	0.272500	0.083337
C317	C	0.740039	0.334860	0.169521
C318	C	0.783687	0.299230	0.213174
C319	C	0.848055	0.201239	0.170643
C320	C	0.868779	0.138873	0.084454
C321	C	0.825132	0.174504	0.040801
H322	H	0.692387	0.407404	0.201010
H323	H	0.768345	0.345398	0.276978
H324	H	0.880366	0.174863	0.202958
H325	H	0.916432	0.066329	0.052965
H326	H	0.840473	0.128336	-0.023003
H327	H	0.605449	0.399307	-0.071986
C328	C	0.189131	1.082454	0.083285
C329	C	0.117873	1.153716	0.083261
C330	C	0.038583	1.189349	0.126879
C331	C	0.030550	1.153720	0.170521
C332	C	0.101811	1.082454	0.170547
C333	C	0.181101	1.046821	0.126928
H334	H	0.123817	1.180094	0.050953
H335	H	-0.014169	1.242105	0.126860
H336	H	-0.028145	1.180098	0.202810
H337	H	0.095867	1.056076	0.202855
H338	H	0.233853	0.994065	0.126948
H339	H	0.749414	0.073201	0.071993
C340	C	0.594163	1.082449	0.488294
C341	C	0.614875	1.020108	0.512144
C342	C	0.571236	1.055767	0.591437
C343	C	0.506887	1.153766	0.646879
C344	C	0.486173	1.216113	0.623030
C345	C	0.529811	1.180454	0.543737
H346	H	0.662513	0.947558	0.471101
H347	H	0.586571	1.009614	0.609091
H348	H	0.474584	1.180163	0.705576
H349	H	0.438534	1.288663	0.664073
H350	H	0.514476	1.226607	0.526083
H351	H	0.749413	-0.044355	0.071990
H352	H	0.209734	0.821437	0.071966
H353	H	0.779236	0.677470	0.604286
H354	H	1.027566	0.399340	-0.206145
H355	H	1.145109	0.281822	-0.323662
H356	H	1.001170	0.281778	-0.467684
H357	H	0.883606	0.399312	-0.350155
H358	H	0.471261	0.955643	0.350159
H359	H	0.222944	1.131963	0.454444
H360	H	0.222959	1.131972	-0.000034
H361	H	0.327263	0.955647	0.071972
H362	H	0.677499	1.131944	0.454460
