data_functionalizedCrystal
_audit_creation_method	'MofGen! by Chris Wilmer'
_symmetry_space_group_name_H-M	'P1'
_symmetry_Int_Tables_number	1
_symmetry_cell_setting	triclinic
loop_
_symmetry_equiv_pos_as_xyz
  x,y,z
_cell_length_a	8.559649
_cell_length_b	9.482900
_cell_length_c	8.634740
_cell_angle_alpha	79.204674
_cell_angle_beta	85.174486
_cell_angle_gamma	97.965061
loop_
_atom_site_label
_atom_site_type_symbol
_atom_site_fract_x
_atom_site_fract_y
_atom_site_fract_z
O1	O	2.133022	0.120872	-0.077979
O2	O	1.679860	0.120878	0.000230
O3	O	1.884989	0.120872	-0.260810
O4	O	1.927893	0.120879	0.183060
O5	O	1.843352	-0.120919	-0.207597
O6	O	1.638223	-0.120913	0.053443
O7	O	2.091385	-0.120919	-0.024767
Cu8	Cu	1.861002	-0.142993	0.019197
Cu9	Cu	1.910243	0.142953	-0.043733
O10	O	1.886256	-0.120913	0.236273
C11	C	1.600424	-0.000016	0.032763
C12	C	1.425761	-0.000014	0.050405
N13	N	1.826380	-0.344112	0.063456
C14	C	1.900019	-0.416314	-0.030686
C15	C	1.871226	-0.583730	0.006149
C16	C	2.170821	-0.000021	-0.057301
C17	C	2.345487	-0.000014	-0.074945
C18	C	1.854452	-0.000021	-0.290503
C19	C	1.825475	-0.000014	-0.458256
N20	N	1.944876	0.344072	-0.088006
C21	C	1.916793	-0.000016	0.265965
C22	C	1.945772	-0.000014	0.433716
H23	H	1.360858	-0.000004	0.171226
H24	H	1.984374	-0.354188	-0.138559
C25	C	1.757250	-0.667641	0.151884
C26	C	1.790471	-0.646853	0.319360
C27	C	1.676498	-0.730765	0.465091
C28	C	1.529304	-0.835464	0.443347
C29	C	1.496076	-0.856257	0.275864
C30	C	1.610049	-0.772345	0.130132
H31	H	1.899439	-0.569344	0.335462
H32	H	1.701096	-0.715372	0.589073
H33	H	1.444934	-0.897581	0.551226
H34	H	1.387108	-0.933766	0.259761
H35	H	1.585451	-0.787738	0.006151
C36	C	1.712410	-0.428028	0.209184
C37	C	1.745631	-0.407240	0.376659
C38	C	1.631657	-0.491152	0.522391
C39	C	1.484463	-0.595852	0.500646
C40	C	1.451236	-0.616644	0.333163
C41	C	1.565209	-0.532733	0.187432
H42	H	1.854598	-0.329731	0.392762
H43	H	1.656256	-0.475759	0.646372
H44	H	1.400094	-0.657968	0.608525
H45	H	1.342268	-0.694154	0.317061
H46	H	1.540611	-0.548125	0.063450
H47	H	1.410384	-0.000008	-0.195761
H48	H	2.070941	0.000035	-0.530446
H49	H	2.029236	-0.593806	-0.195886
H50	H	1.700308	-0.000003	-0.494113
