data_functionalizedCrystal
_audit_creation_method	'MofGen! by Chris Wilmer'
_symmetry_space_group_name_H-M	'P1'
_symmetry_Int_Tables_number	1
_symmetry_cell_setting	triclinic
loop_
_symmetry_equiv_pos_as_xyz
  x,y,z
_cell_length_a	12.837943
_cell_length_b	14.519709
_cell_length_c	11.295483
_cell_angle_alpha	94.101713
_cell_angle_beta	85.461227
_cell_angle_gamma	89.254542
loop_
_atom_site_label
_atom_site_type_symbol
_atom_site_fract_x
_atom_site_fract_y
_atom_site_fract_z
O1	O	1.382869	0.234188	-0.099009
O2	O	1.882869	0.734188	0.400991
O3	O	1.081042	0.222343	-0.099016
O4	O	1.581042	0.722343	0.400984
O5	O	1.239958	0.094719	-0.099002
O6	O	1.739958	0.594719	0.400998
O7	O	1.223954	0.361812	-0.099023
O8	O	1.723954	0.861812	0.400977
O9	O	1.226000	0.105910	0.099048
O10	O	1.726000	0.605910	0.599048
O11	O	1.067084	0.233533	0.099034
O12	O	1.567084	0.733533	0.599034
O13	O	1.368911	0.245379	0.099040
O14	O	1.868911	0.745379	0.599040
Cu15	Cu	1.216723	0.240478	0.117121
Cu16	Cu	1.716723	0.740478	0.617121
Cu17	Cu	1.233230	0.227244	-0.117096
Cu18	Cu	1.733230	0.727244	0.382904
O19	O	1.209996	0.373002	0.099026
O20	O	1.709996	0.873002	0.599026
C21	C	1.035435	0.223937	0.000008
C22	C	1.535435	0.723937	0.500008
C23	C	0.920336	0.212002	0.000006
C24	C	1.420336	0.712002	0.500006
C25	C	0.679643	0.355473	0.000011
C26	C	1.179643	0.855473	0.500011
C27	C	0.571497	0.344264	0.000010
C28	C	1.071497	0.844264	0.500010
C29	C	0.595894	0.178377	0.000011
C30	C	1.095894	0.678377	0.500011
C31	C	0.704041	0.189586	0.000012
C32	C	1.204041	0.689586	0.500012
C33	C	0.745911	0.278137	0.000011
C34	C	1.245911	0.778137	0.500011
C35	C	0.854060	0.289344	0.000003
C36	C	1.354060	0.789344	0.500003
C37	C	0.878455	0.123458	0.000013
C38	C	1.378455	0.623458	0.500013
C39	C	0.770308	0.112249	0.000011
C40	C	1.270308	0.612249	0.500011
C41	C	1.232233	0.065890	0.000023
C42	C	1.732233	0.565890	0.500023
C43	C	1.229997	-0.036684	0.000024
C44	C	1.729997	0.463316	0.500024
C45	C	1.221771	-0.412293	-0.000007
C46	C	1.721771	0.087707	0.499993
C47	C	1.224055	-0.307787	0.000002
C48	C	1.724055	0.192213	0.500002
C49	C	1.225884	-0.224492	0.000010
C50	C	1.725884	0.275508	0.500010
C51	C	1.228169	-0.119979	0.000016
C52	C	1.728169	0.380021	0.500016
C53	C	1.414518	0.243785	0.000014
C54	C	1.914518	0.743785	0.500014
C55	C	1.529618	0.255719	0.000008
C56	C	2.029618	0.755719	0.500008
C57	C	1.217721	0.401831	-0.000001
C58	C	1.717721	0.901831	0.499999
C59	C	1.219957	0.504405	-0.000010
C60	C	1.719957	1.004405	0.499990
N61	N	1.205121	0.249786	0.281856
N62	N	1.705121	0.749786	0.781856
N63	N	1.244841	0.217929	-0.281831
N64	N	1.744841	0.717929	0.218169
C65	C	1.328362	0.150873	0.531156
C66	C	1.828362	0.650873	1.031156
C67	C	1.319601	0.157915	0.655819
C68	C	1.819601	0.657915	1.155819
C69	C	1.178834	0.270905	0.655847
C70	C	1.678834	0.770905	1.155847
C71	C	1.187595	0.263863	0.531184
C72	C	1.687595	0.763863	1.031184
C73	C	1.262362	0.203847	0.468843
C74	C	1.762362	0.703847	0.968843
C75	C	1.271127	0.196811	0.344178
C76	C	1.771127	0.696811	0.844178
C77	C	1.130356	0.309795	0.344208
C78	C	1.630356	0.809795	0.844208
C79	C	1.121596	0.316837	0.468871
C80	C	1.621596	0.816837	0.968871
H81	H	0.517545	0.407240	0.000014
H82	H	1.017545	0.907240	0.500014
Br83	Br	0.713473	-0.007921	0.000021
Br84	Br	1.213473	0.492079	0.500021
Br85	Br	0.539049	0.058211	0.000034
Br86	Br	1.039049	0.558211	0.500034
H87	H	0.932423	0.060485	0.000004
H88	H	1.432423	0.560485	0.500004
H89	H	1.076618	0.352933	0.293458
H90	H	1.576618	0.852933	0.793458
Br91	Br	0.736475	0.475644	-0.000013
Br92	Br	1.236475	0.975644	0.499987
Br93	Br	0.910885	0.409518	-0.000006
Br94	Br	1.410885	0.909518	0.499994
Br95	Br	1.409171	0.086014	0.740385
Br96	Br	1.909171	0.586014	1.240385
Br97	Br	1.372600	0.115365	0.259574
Br98	Br	1.872600	0.615365	0.759574
H99	H	1.389247	0.102012	0.480398
H100	H	1.889247	0.602012	0.980398
Br101	Br	1.077356	0.352338	0.740463
Br102	Br	1.577356	0.852338	1.240463
Br103	Br	1.020125	0.398280	0.553483
Br104	Br	1.520125	0.898280	1.053483
