data_functionalizedCrystal
_audit_creation_method	'MofGen! by Chris Wilmer'
_symmetry_space_group_name_H-M	'P1'
_symmetry_Int_Tables_number	1
_symmetry_cell_setting	triclinic
loop_
_symmetry_equiv_pos_as_xyz
  x,y,z
_cell_length_a	10.654550
_cell_length_b	10.489741
_cell_length_c	9.130313
_cell_angle_alpha	89.999004
_cell_angle_beta	89.996220
_cell_angle_gamma	84.512038
loop_
_atom_site_label
_atom_site_type_symbol
_atom_site_fract_x
_atom_site_fract_y
_atom_site_fract_z
O1	O	1.667918	0.179156	-0.121919
O2	O	1.302447	0.196226	-0.121895
O3	O	1.493499	0.002089	-0.121899
O4	O	1.476867	0.373293	-0.121915
O5	O	1.493497	0.002094	0.121700
O6	O	1.302445	0.196231	0.121703
O7	O	1.667916	0.179161	0.121680
Cu8	Cu	1.485180	0.187697	0.143934
Cu9	Cu	1.485183	0.187690	-0.144150
O10	O	1.476864	0.373298	0.121683
C11	C	1.255648	0.194975	-0.000093
C12	C	1.116203	0.191225	-0.000084
C13	C	1.036771	0.305530	-0.000110
C14	C	0.905748	0.301999	-0.000135
C15	C	0.933603	0.069849	-0.000114
C16	C	1.064623	0.073381	-0.000078
C17	C	1.020688	0.439560	-0.000129
C18	C	0.889665	0.436029	-0.000154
C19	C	1.492241	-0.045439	-0.000100
C20	C	1.488483	-0.187067	-0.000103
C21	C	1.366923	-0.255148	-0.000106
C22	C	1.424346	-0.347296	0.119997
C23	C	1.424377	-0.347276	-0.120172
C24	C	1.545956	-0.277349	0.120099
C25	C	1.545970	-0.277320	-0.120178
C26	C	1.603481	-0.369440	-0.000045
C27	C	1.714715	0.180412	-0.000126
C28	C	1.854160	0.184162	-0.000145
C29	C	1.478122	0.420826	-0.000118
C30	C	1.481880	0.562454	-0.000126
N31	N	1.485187	0.187700	0.346557
N32	N	1.485186	0.187677	-0.346772
C33	C	1.569807	0.101766	0.423207
C34	C	1.569803	0.101751	0.576544
C35	C	1.400557	0.273615	0.576567
C36	C	1.400555	0.273623	0.423232
C37	C	1.667524	0.002545	0.423195
C38	C	1.667520	0.002530	0.576532
H39	H	0.847957	0.486527	-0.102110
H40	H	1.331641	0.343586	0.360825
C41	C	1.314608	-0.281106	-0.341141
C42	C	1.354929	-0.389066	-0.257251
H43	H	1.271736	-0.306906	-0.425766
H44	H	1.259169	-0.224413	-0.284566
H45	H	1.385581	-0.238795	-0.370002
H46	H	1.283955	-0.431372	-0.228381
H47	H	1.410371	-0.445781	-0.313836
C48	C	1.128737	-0.123417	-0.125257
C49	C	1.151936	-0.052266	-0.000035
H50	H	1.182647	-0.200986	-0.125230
H51	H	1.043333	-0.142379	-0.125267
H52	H	1.144518	-0.075145	-0.210198
H53	H	1.136145	-0.100535	0.084907
H54	H	1.237359	-0.033307	-0.000011
H55	H	1.266977	-0.205449	0.000022
H56	H	1.331651	0.343570	0.639012
C57	C	1.721245	-0.175112	-0.214742
C58	C	1.615350	-0.235433	-0.257261
H59	H	1.764072	-0.149258	-0.299382
H60	H	1.695246	-0.102099	-0.156846
H61	H	1.776245	-0.233084	-0.159180
H62	H	1.560346	-0.177458	-0.312815
H63	H	1.641348	-0.308456	-0.315181
H64	H	0.891590	-0.026096	-0.000132
C65	C	1.620896	-0.210081	0.486288
C66	C	1.638504	-0.129802	0.367003
H67	H	1.602972	-0.291780	0.451593
H68	H	1.695345	-0.219090	0.544070
H69	H	1.552414	-0.173824	0.544086
H70	H	1.706993	-0.166055	0.309211
H71	H	1.564047	-0.120797	0.309197
H72	H	1.050043	0.491981	0.101820
H73	H	1.372910	-0.378281	0.221542
C74	C	1.801847	-0.400952	0.125889
C75	C	1.738519	-0.436243	0.000032
H76	H	1.885209	-0.442203	0.125943
H77	H	1.804959	-0.310764	0.126687
H78	H	1.758330	-0.425976	0.210393
H79	H	1.782032	-0.411210	-0.084472
H80	H	1.735414	-0.526450	-0.000779
H81	H	1.056364	0.482235	-0.105303
H82	H	0.844012	0.476537	0.105012
H83	H	1.764042	0.024385	0.618141
H84	H	1.597345	-0.246540	0.221751
C85	C	1.871494	0.072003	0.473179
C86	C	1.790638	0.044474	0.358968
H87	H	1.947500	0.097882	0.433523
H88	H	1.831866	0.139071	0.531729
H89	H	1.889967	-0.002284	0.531727
H90	H	1.772157	0.118764	0.300426
H91	H	1.830273	-0.022600	0.300393
H92	H	1.636964	-0.090122	0.624085
