data_functionalizedCrystal
_audit_creation_method	'MofGen! by Chris Wilmer'
_symmetry_space_group_name_H-M	'P1'
_symmetry_Int_Tables_number	1
_symmetry_cell_setting	triclinic
loop_
_symmetry_equiv_pos_as_xyz
  x,y,z
_cell_length_a	16.625547
_cell_length_b	16.625545
_cell_length_c	12.759393
_cell_angle_alpha	90.033904
_cell_angle_beta	90.025922
_cell_angle_gamma	90.025495
loop_
_atom_site_label
_atom_site_type_symbol
_atom_site_fract_x
_atom_site_fract_y
_atom_site_fract_z
Zn1	Zn	1.232672	-0.320955	0.594172
Zn2	Zn	1.232565	-0.455812	0.418485
Zn3	Zn	1.097831	-0.320997	0.418489
Zn4	Zn	1.097797	-0.455750	0.594104
O5	O	1.165216	-0.388379	0.506313
O6	O	1.345490	-0.338853	0.570894
O7	O	1.214662	-0.437972	0.271465
O8	O	1.115777	-0.208159	0.441824
O9	O	1.345412	-0.437932	0.441818
O10	O	1.214844	-0.208128	0.570898
O11	O	1.115674	-0.338924	0.271467
O12	O	0.984994	-0.338864	0.441758
O13	O	1.115719	-0.437825	0.741134
O14	O	0.984969	-0.437866	0.570781
O15	O	1.214811	-0.338792	0.741184
O16	O	1.214629	-0.568636	0.441751
O17	O	1.115615	-0.568590	0.570778
C18	C	0.955725	-0.388363	0.506263
C19	C	0.866104	-0.388376	0.506267
C20	C	0.793322	-0.388377	0.506280
C21	C	0.702013	-0.388381	0.506306
C22	C	0.629237	-0.388389	0.506333
C23	C	0.537923	-0.388394	0.506358
C24	C	1.165129	-0.597869	0.506280
C25	C	1.165165	-0.687490	0.506301
C26	C	1.165196	-0.760273	0.506321
C27	C	1.165243	-0.851581	0.506345
C28	C	1.165285	-0.924358	0.506358
C29	C	1.165331	-1.015672	0.506380
C30	C	1.375525	-0.388395	0.506363
C31	C	1.465146	-0.388402	0.506385
C32	C	1.165273	-0.388297	0.780346
C33	C	1.165297	-0.388262	0.897123
C34	C	1.165326	-0.178070	0.506369
C35	C	1.165373	-0.088448	0.506393
C36	C	1.165206	-0.388401	0.233345
C37	C	1.165339	-0.388209	0.116569
C38	C	1.216901	-0.336691	0.952013
C39	C	1.216920	-0.336662	1.061737
C40	C	1.113729	-0.439782	1.061672
C41	C	1.113706	-0.439807	0.951949
C42	C	1.268492	-0.285147	0.897186
C43	C	1.320101	-0.233572	0.952076
C44	C	1.320121	-0.233543	1.061800
C45	C	1.268530	-0.285089	1.116635
H46	H	1.268484	-0.285167	0.807843
H47	H	1.071726	-0.481748	1.106326
H48	H	1.268541	-0.285051	1.205979
H49	H	1.362099	-0.191601	0.907423
H50	H	1.362137	-0.191542	1.106489
H51	H	1.071673	-0.481788	0.907257
