data_functionalizedCrystal
_audit_creation_method	'MofGen! by Chris Wilmer'
_symmetry_space_group_name_H-M	'P1'
_symmetry_Int_Tables_number	1
_symmetry_cell_setting	triclinic
loop_
_symmetry_equiv_pos_as_xyz
  x,y,z
_cell_length_a	12.645330
_cell_length_b	18.215407
_cell_length_c	18.215399
_cell_angle_alpha	90.019833
_cell_angle_beta	89.974835
_cell_angle_gamma	89.986906
loop_
_atom_site_label
_atom_site_type_symbol
_atom_site_fract_x
_atom_site_fract_y
_atom_site_fract_z
Zn1	Zn	-0.422038	-1.125135	-0.416130
Zn2	Zn	0.077962	-0.625135	0.083870
Zn3	Zn	-0.599320	-1.125069	-0.293070
Zn4	Zn	-0.099320	-0.625069	0.206930
Zn5	Zn	-0.422072	-1.002067	-0.293077
Zn6	Zn	0.077928	-0.502067	0.206923
Zn7	Zn	-0.599261	-1.002059	-0.416095
Zn8	Zn	-0.099261	-0.502059	0.083905
O9	O	-0.510673	-1.063583	-0.354593
O10	O	-0.010673	-0.563583	0.145407
O11	O	-0.445565	-1.228110	-0.399818
O12	O	0.054435	-0.728110	0.100182
O13	O	-0.575847	-1.108729	-0.190087
O14	O	-0.075847	-0.608729	0.309913
O15	O	-0.273720	-1.018423	-0.309419
O16	O	0.226280	-0.518423	0.190581
O17	O	-0.575813	-1.228062	-0.309406
O18	O	-0.075813	-0.728062	0.190594
O19	O	-0.273695	-1.108840	-0.399825
O20	O	0.226305	-0.608840	0.100175
O21	O	-0.445624	-1.018360	-0.190092
O22	O	0.054376	-0.518360	0.309908
O23	O	-0.445566	-0.899082	-0.309384
O24	O	0.054434	-0.399082	0.190616
O25	O	-0.575713	-1.018410	-0.519084
O26	O	-0.075713	-0.518410	-0.019084
O27	O	-0.575746	-0.899076	-0.399765
O28	O	-0.075746	-0.399076	0.100235
O29	O	-0.445507	-1.108832	-0.519110
O30	O	0.054493	-0.608832	-0.019110
O31	O	-0.747659	-1.108721	-0.309371
O32	O	-0.247659	-0.608721	0.190629
O33	O	-0.747616	-1.018346	-0.399757
O34	O	-0.247616	-0.518346	0.100243
C35	C	-0.510654	-0.872376	-0.354572
C36	C	-0.010654	-0.372376	0.145428
C37	C	-0.510672	-0.790577	-0.354580
C38	C	-0.010672	-0.290577	0.145420
C39	C	-0.786102	-1.063546	-0.354576
C40	C	-0.286102	-0.563546	0.145424
C41	C	-0.903932	-1.063597	-0.354593
C42	C	-0.403932	-0.563597	0.145407
C43	C	-0.510599	-1.063627	-0.546546
C44	C	-0.010599	-0.563627	-0.046546
C45	C	-0.510568	-1.063646	-0.628345
C46	C	-0.010568	-0.563646	-0.128345
C47	C	-1.071479	-1.120361	-0.297616
C48	C	-0.571479	-0.620361	0.202384
C49	C	-0.948919	-1.120546	-0.297755
C50	C	-0.448919	-0.620546	0.202245
C51	C	-0.948318	-1.084628	-0.432167
C52	C	-0.448318	-0.584628	0.067833
C53	C	-1.070916	-1.085079	-0.431865
C54	C	-0.570916	-0.585079	0.068135
C55	C	-1.071260	-0.985781	-0.334760
C56	C	-0.571260	-0.485781	0.165240
C57	C	-0.948655	-0.986153	-0.333020
C58	C	-0.448655	-0.486153	0.166980
C59	C	-0.234167	-1.063640	-0.354627
C60	C	0.265833	-0.563640	0.145373
C61	C	-0.116337	-1.063664	-0.354641
C62	C	0.383663	-0.563664	0.145359
C63	C	-0.510692	-1.255535	-0.354615
C64	C	-0.010692	-0.755535	0.145385
C65	C	-0.510700	-1.337334	-0.354624
C66	C	-0.010700	-0.837334	0.145376
C67	C	-0.578563	-0.602400	-0.401582
C68	C	-0.078563	-0.102400	0.098418
C69	C	-0.578567	-0.525541	-0.401591
C70	C	-0.078567	-0.025541	0.098409
C71	C	-0.442801	-0.525517	-0.307620
C72	C	0.057199	-0.025517	0.192380
C73	C	-0.442793	-0.602375	-0.307615
C74	C	0.057207	-0.102375	0.192385
C75	C	-0.510680	-0.640814	-0.354595
C76	C	-0.010680	-0.140814	0.145405
C77	C	-0.510692	-0.487098	-0.354609
C78	C	-0.010692	0.012902	0.145391
C79	C	-0.510695	-0.403764	-0.354619
C80	C	-0.010695	0.096236	0.145381
C81	C	-0.510676	-0.724153	-0.354587
C82	C	-0.010676	-0.224153	0.145413
C83	C	-0.442707	-1.110747	-0.816554
C84	C	0.057293	-0.610747	-0.316554
C85	C	-0.442676	-1.110755	-0.893413
C86	C	0.057324	-0.610755	-0.393413
C87	C	-0.578266	-1.016598	-0.893374
C88	C	-0.078266	-0.516598	-0.393374
C89	C	-0.578290	-1.016586	-0.816517
C90	C	-0.078290	-0.516586	-0.316517
C91	C	-0.510513	-1.063665	-0.778109
C92	C	-0.010513	-0.563665	-0.278109
C93	C	-0.510457	-1.063685	-0.931825
C94	C	-0.010457	-0.563685	-0.431825
C95	C	-0.510424	-1.063695	-1.015158
C96	C	-0.010424	-0.563695	-0.515158
C97	C	-0.510544	-1.063655	-0.694770
C98	C	-0.010544	-0.563655	-0.194770
C99	C	-0.510669	-1.063580	-0.163387
C100	C	-0.010669	-0.563580	0.336613
C101	C	-0.510401	-1.063704	-0.081588
C102	C	-0.010401	-0.563704	0.418412
H103	H	-1.101030	-1.107367	-0.239927
H104	H	-0.601030	-0.607367	0.260073
H105	H	-0.633450	-0.978271	-0.924656
H106	H	-0.133450	-0.478271	-0.424656
N107	N	-0.373401	-1.158839	-0.932683
N108	N	0.126599	-0.658839	-0.432683
N109	N	-0.275584	-1.153974	-0.924110
N110	N	0.224416	-0.653974	-0.424110
H111	H	-0.226653	-1.187934	-0.951845
H112	H	0.273347	-0.687934	-0.451845
N113	N	-0.647555	-0.968481	-0.777252
N114	N	-0.147555	-0.468481	-0.277252
N115	N	-0.708069	-0.926453	-0.811552
N116	N	-0.208069	-0.426453	-0.311552
H117	H	-0.756983	-0.892477	-0.783822
H118	H	-0.256983	-0.392477	-0.283822
N119	N	-0.912255	-0.966264	-0.261408
N120	N	-0.412255	-0.466264	0.238592
N121	N	-0.815337	-0.960874	-0.249068
N122	N	-0.315337	-0.460874	0.250932
H123	H	-0.789621	-0.946831	-0.198491
H124	H	-0.289621	-0.446831	0.301509
N125	N	-0.911286	-1.104035	-0.225595
N126	N	-0.411286	-0.604035	0.274405
N127	N	-0.975568	-1.092295	-0.174778
N128	N	-0.475568	-0.592295	0.325222
H129	H	-0.948996	-1.080637	-0.123811
H130	H	-0.448996	-0.580637	0.376189
H131	H	-1.102210	-1.177737	-0.310618
H132	H	-0.602210	-0.677737	0.189382
H133	H	-0.387531	-0.494211	-0.269369
H134	H	0.112469	0.005789	0.230631
H135	H	-0.633839	-0.633695	-0.439838
H136	H	-0.133839	-0.133695	0.060162
N137	N	-1.110126	-0.961793	-0.265023
N138	N	-0.610126	-0.461793	0.234977
N139	N	-1.046879	-0.948181	-0.214091
N140	N	-0.546879	-0.448181	0.285909
H141	H	-1.074327	-0.931247	-0.164836
H142	H	-0.574327	-0.431247	0.335164
H143	H	-0.387508	-0.633652	-0.269352
H144	H	0.112492	-0.133652	0.230648
N145	N	-0.373469	-1.158838	-0.777331
N146	N	0.126531	-0.658838	-0.277331
N147	N	-0.312932	-1.200870	-0.811671
N148	N	0.187068	-0.700870	-0.311671
H149	H	-0.264028	-1.234836	-0.783972
H150	H	0.235972	-0.734836	-0.283972
N151	N	-0.912027	-1.192915	-0.314238
N152	N	-0.412027	-0.692915	0.185762
N153	N	-0.936322	-1.245391	-0.273378
N154	N	-0.436322	-0.745391	0.226622
H155	H	-0.910271	-1.296507	-0.285019
H156	H	-0.410271	-0.796507	0.214981
N157	N	-1.106676	-1.156497	-0.452992
N158	N	-0.606676	-0.656497	0.047008
N159	N	-1.041090	-1.205661	-0.467855
N160	N	-0.541090	-0.705661	0.032145
H161	H	-1.066340	-1.256103	-0.482776
H162	H	-0.566340	-0.756103	0.017224
N163	N	-0.647927	-0.486315	-0.449586
N164	N	-0.147927	0.013685	0.050414
N165	N	-0.745736	-0.494890	-0.444584
N166	N	-0.245736	0.005110	0.055416
H167	H	-0.794726	-0.467189	-0.478483
H168	H	-0.294726	0.032811	0.021517
N169	N	-1.108128	-1.035518	-0.486981
N170	N	-0.608128	-0.535518	0.013019
N171	N	-1.043551	-1.000711	-0.525551
N172	N	-0.543551	-0.500711	-0.025551
H173	H	-1.069827	-0.965711	-0.564478
H174	H	-0.569827	-0.465711	-0.064478
N175	N	-0.911758	-1.034396	-0.486892
N176	N	-0.411758	-0.534396	0.013108
N177	N	-0.852439	-0.982412	-0.469287
N178	N	-0.352439	-0.482412	0.030713
H179	H	-0.826617	-0.946933	-0.507935
H180	H	-0.326617	-0.446933	-0.007935
H181	H	-0.917530	-1.140914	-0.449288
H182	H	-0.417530	-0.640914	0.050712
H183	H	-0.918043	-0.941631	-0.371509
H184	H	-0.418043	-0.441631	0.128491
H185	H	-1.100270	-0.943537	-0.376294
H186	H	-0.600270	-0.443537	0.123706
