data_functionalizedCrystal
_audit_creation_method	'MofGen! by Chris Wilmer'
_symmetry_space_group_name_H-M	'P1'
_symmetry_Int_Tables_number	1
_symmetry_cell_setting	triclinic
loop_
_symmetry_equiv_pos_as_xyz
  x,y,z
_cell_length_a	9.065215
_cell_length_b	9.065218
_cell_length_c	8.140239
_cell_angle_alpha	90.010962
_cell_angle_beta	89.997810
_cell_angle_gamma	94.984675
loop_
_atom_site_label
_atom_site_type_symbol
_atom_site_fract_x
_atom_site_fract_y
_atom_site_fract_z
O1	O	1.960400	-0.216334	-0.136626
O2	O	2.293734	0.116999	0.196707
O3	O	2.627067	0.450333	0.530041
O4	O	1.531115	-0.234085	-0.136636
O5	O	1.864448	0.099248	0.196697
O6	O	2.197782	0.432582	0.530031
O7	O	1.754631	-0.010567	-0.136589
O8	O	2.087964	0.322766	0.196744
O9	O	2.421298	0.656100	0.530078
O10	O	1.736885	-0.439852	-0.136673
O11	O	2.070218	-0.106519	0.196660
O12	O	2.403551	0.226815	0.529993
O13	O	1.754618	-0.010564	0.136638
O14	O	2.087952	0.322769	0.469972
O15	O	2.421285	0.656102	0.803305
O16	O	1.531103	-0.234082	0.136591
O17	O	1.864436	0.099251	0.469924
O18	O	2.197769	0.432584	0.803258
O19	O	1.960388	-0.216331	0.136601
O20	O	2.293721	0.117002	0.469934
O21	O	2.627055	0.450335	0.803268
Zn22	Zn	1.745743	-0.225206	0.179977
Zn23	Zn	2.079077	0.108127	0.513310
Zn24	Zn	2.412410	0.441460	0.846643
Zn25	Zn	1.745760	-0.225210	-0.180012
Zn26	Zn	2.079093	0.108123	0.153322
Zn27	Zn	2.412426	0.441457	0.486655
O28	O	1.736872	-0.439849	0.136554
O29	O	2.070206	-0.106516	0.469887
O30	O	2.403539	0.226817	0.803221
C31	C	1.476122	-0.232379	-0.000023
C32	C	1.809456	0.100955	0.333310
C33	C	2.142789	0.434288	0.666644
C34	C	1.312279	-0.227281	-0.000025
C35	C	1.645612	0.106053	0.333308
C36	C	1.978946	0.439386	0.666642
C37	C	1.752919	0.044421	0.000032
C38	C	2.086252	0.377754	0.333365
C39	C	2.419586	0.711087	0.666699
C40	C	1.747819	0.208264	0.000054
C41	C	2.081153	0.541597	0.333387
C42	C	2.414486	0.874930	0.666720
C43	C	2.015381	-0.218038	-0.000015
C44	C	2.348714	0.115296	0.333318
C45	C	2.682048	0.448629	0.666651
C46	C	2.179224	-0.223136	-0.000024
C47	C	2.512557	0.110198	0.333309
C48	C	2.845891	0.443531	0.666642
N49	N	1.745743	-0.225203	0.425659
N50	N	2.079076	0.108130	0.758993
N51	N	2.412410	0.441463	1.092326
C52	C	1.738584	0.505163	-0.000025
C53	C	2.071917	0.838496	0.333308
C54	C	2.405251	1.171829	0.666641
C55	C	1.743683	0.341320	0.000077
C56	C	2.077017	0.674653	0.333411
C57	C	2.410350	1.007986	0.666744
N58	N	1.745772	-0.225202	-0.425694
N59	N	2.079105	0.108132	-0.092361
N60	N	2.412438	0.441465	0.240972
