data_functionalizedCrystal
_audit_creation_method	'MofGen! by Chris Wilmer'
_symmetry_space_group_name_H-M	'P1'
_symmetry_Int_Tables_number	1
_symmetry_cell_setting	triclinic
loop_
_symmetry_equiv_pos_as_xyz
  x,y,z
_cell_length_a	14.519709
_cell_length_b	10.654541
_cell_length_c	9.130307
_cell_angle_alpha	90.003083
_cell_angle_beta	89.995905
_cell_angle_gamma	84.082037
loop_
_atom_site_label
_atom_site_type_symbol
_atom_site_fract_x
_atom_site_fract_y
_atom_site_fract_z
O1	O	-1.224716	-0.164621	-0.121608
O2	O	-0.956340	-0.184008	-0.121653
O3	O	-1.096700	0.008484	-0.121620
O4	O	-1.084356	-0.357113	-0.121640
O5	O	-1.096695	0.008486	0.121979
O6	O	-0.956335	-0.184006	0.121946
O7	O	-1.224712	-0.164619	0.121991
Cu8	Cu	-1.090523	-0.174313	0.144211
Cu9	Cu	-1.090528	-0.174315	-0.143873
O10	O	-1.084352	-0.357112	0.121959
C11	C	-1.095791	0.055275	0.000178
C12	C	-1.093081	0.194692	0.000175
C13	C	-0.921973	-0.183103	0.000141
C14	C	-0.819578	-0.180396	0.000124
C15	C	-1.259078	-0.165524	0.000194
C16	C	-1.361474	-0.168231	0.000201
C17	C	-0.444630	-0.170429	0.000192
C18	C	-0.548952	-0.173197	0.000172
C19	C	-0.632101	-0.175412	0.000157
C20	C	-0.736429	-0.178181	0.000140
C21	C	-1.085260	-0.403902	0.000157
C22	C	-1.087970	-0.543319	0.000150
N23	N	-1.090526	-0.174310	0.346834
C24	C	-1.260920	0.224277	0.000222
C25	C	-1.343562	0.304566	0.000248
C26	C	-1.341010	0.435559	0.000243
C27	C	-1.255806	0.486265	0.000207
C28	C	-1.173164	0.405976	0.000181
C29	C	-1.175725	0.274981	0.000191
C30	C	-1.005328	0.376392	0.000124
C31	C	-1.007878	0.245398	0.000140
C32	C	-0.920124	0.427098	0.000089
C33	C	-0.837480	0.346809	0.000073
C34	C	-0.840036	0.215808	0.000080
C35	C	-0.925236	0.165109	0.000114
N36	N	-1.090533	-0.174307	-0.346496
C37	C	-1.214866	-0.003908	0.346853
C38	C	-1.277042	0.081290	0.423529
C39	C	-1.277051	0.081291	0.576862
C40	C	-1.214876	-0.003913	0.653523
C41	C	-1.152699	-0.089110	0.576847
C42	C	-1.152699	-0.089104	0.423510
C43	C	-1.028357	-0.259505	0.576828
C44	C	-1.028350	-0.259514	0.423495
C45	C	-0.966181	-0.344708	0.653489
C46	C	-0.904008	-0.429914	0.576813
C47	C	-0.904002	-0.429912	0.423471
C48	C	-0.966174	-0.344711	0.346819
H49	H	-1.263006	0.117616	0.000246
H50	H	-0.966187	-0.344699	0.778342
C51	C	-0.743767	0.402595	0.000042
N52	N	-0.673180	0.444618	0.000026
H53	H	-1.214879	-0.003896	0.778375
H54	H	-0.853385	-0.499275	0.639240
C55	C	-1.214867	-0.003909	0.178182
N56	N	-1.214869	-0.003906	0.051137
C57	C	-0.835617	-0.523659	0.339139
N58	N	-0.784115	-0.594280	0.275626
C59	C	-0.966172	-0.344700	0.178148
N60	N	-0.966171	-0.344683	0.051103
C61	C	-1.437281	0.248779	0.000299
N62	N	-1.507871	0.206763	0.000340
C63	C	-1.431919	0.523879	0.000272
N64	N	-1.500393	0.590402	0.000298
H65	H	-1.327677	0.150671	0.639292
H66	H	-1.253736	0.592928	0.000185
H67	H	-0.918052	0.533761	0.000076
H68	H	-0.772738	0.150442	0.000053
H69	H	-0.927325	0.058449	0.000128
H70	H	-1.327663	0.150665	0.361098
