data_functionalizedCrystal
_audit_creation_method	'MofGen! by Chris Wilmer'
_symmetry_space_group_name_H-M	'P1'
_symmetry_Int_Tables_number	1
_symmetry_cell_setting	triclinic
loop_
_symmetry_equiv_pos_as_xyz
  x,y,z
_cell_length_a	8.597213
_cell_length_b	12.837942
_cell_length_c	7.681481
_cell_angle_alpha	83.650030
_cell_angle_beta	88.167023
_cell_angle_gamma	90.034777
loop_
_atom_site_label
_atom_site_type_symbol
_atom_site_fract_x
_atom_site_fract_y
_atom_site_fract_z
O1	O	2.063622	0.185331	-0.459498
O2	O	1.614687	0.192717	-0.391395
O3	O	1.829201	0.037918	-0.423926
O4	O	1.849108	0.340129	-0.426967
O5	O	1.855598	0.018821	-0.135071
O6	O	1.641084	0.173619	-0.102540
O7	O	2.090019	0.166234	-0.170644
Zn8	Zn	1.869742	0.166894	-0.090730
Zn9	Zn	1.834964	0.192056	-0.471308
O10	O	1.875505	0.321032	-0.138113
C11	C	1.570025	0.181311	-0.238190
C12	C	1.397616	0.175765	-0.212035
C13	C	1.835674	-0.010388	-0.278479
C14	C	1.815614	-0.125872	-0.275439
C15	C	2.056758	-0.361932	-0.312057
C16	C	2.037918	-0.470440	-0.309202
C17	C	1.759093	-0.451398	-0.266886
C18	C	1.777934	-0.342889	-0.269741
C19	C	1.926771	-0.298161	-0.292325
C20	C	1.945611	-0.189651	-0.295168
C21	C	1.666787	-0.170610	-0.252864
C22	C	1.647947	-0.279118	-0.250009
C23	C	2.134681	0.177639	-0.323853
C24	C	2.307088	0.183186	-0.350019
C25	C	1.869032	0.369338	-0.283563
C26	C	1.889090	0.484823	-0.286615
N27	N	1.893489	0.149721	0.169003
N28	N	1.811228	0.209221	-0.731043
H29	H	1.343216	0.165173	-0.073889
O30	O	1.711222	0.281812	0.194505
C31	C	1.755786	0.382316	0.232688
H32	H	1.884535	0.381994	0.263927
H33	H	1.683980	0.404241	0.350471
C34	C	1.569415	0.463318	0.034723
C35	C	1.727550	0.462924	0.073078
H36	H	1.551991	0.513042	-0.063727
H37	H	1.539385	0.395606	0.009003
H38	H	1.509595	0.481585	0.132888
H39	H	1.787365	0.444644	-0.025078
H40	H	1.757588	0.530635	0.098778
O41	O	1.993576	0.077135	0.243340
C42	C	1.948958	-0.023375	0.205236
H43	H	1.877228	-0.015767	0.082228
H44	H	1.876270	-0.063754	0.320003
C45	C	2.183402	-0.098241	0.325825
C46	C	2.095314	-0.088898	0.174736
H47	H	2.273679	-0.138661	0.307019
H48	H	2.213461	-0.030526	0.351503
H49	H	2.122812	-0.131887	0.421450
H50	H	2.155897	-0.055241	0.079120
H51	H	2.065268	-0.156608	0.149041
H52	H	2.066802	-0.153236	-0.313550
O53	O	1.371884	0.196015	-0.514854
C54	C	1.319313	0.290703	-0.604082
H55	H	1.280072	0.345828	-0.504791
H56	H	1.217389	0.273915	-0.688302
C57	C	1.500773	0.274646	-0.843857
C58	C	1.452589	0.342354	-0.721906
H59	H	1.582980	0.306505	-0.916544
H60	H	1.536188	0.210850	-0.783747
H61	H	1.415824	0.260660	-0.914023
H62	H	1.537532	0.356327	-0.651729
H63	H	1.417191	0.406153	-0.782008
H64	H	2.177949	-0.325514	-0.330429
O65	O	1.503316	-0.322465	-0.227829
C66	C	1.436808	-0.300079	-0.066032
H67	H	1.494692	-0.227305	-0.024242
H68	H	1.455106	-0.369402	0.037392
C69	C	1.190151	-0.369672	-0.136784
C70	C	1.261237	-0.280284	-0.085463
H71	H	1.081850	-0.357466	-0.148764
H72	H	1.234960	-0.384758	-0.245786
H73	H	1.205416	-0.427432	-0.050589
H74	H	1.245989	-0.222529	-0.171668
H75	H	1.216422	-0.265188	0.023525
H76	H	2.143767	-0.522359	-0.325276
O77	O	1.614584	-0.494967	-0.245202
C78	C	1.581668	-0.547238	-0.391915
H79	H	1.695333	-0.568446	-0.459732
H80	H	1.510546	-0.493793	-0.487324
C81	C	1.348637	-0.621837	-0.248388
C82	C	1.488243	-0.647892	-0.331674
H83	H	1.291002	-0.683922	-0.211233
H84	H	1.370809	-0.586618	-0.149547
H85	H	1.289388	-0.577298	-0.327909
H86	H	1.547498	-0.692419	-0.252147
H87	H	1.466079	-0.683121	-0.430501
H88	H	1.560943	-0.118677	-0.236782
