data_functionalizedCrystal
_audit_creation_method	'MofGen! by Chris Wilmer'
_symmetry_space_group_name_H-M	'P1'
_symmetry_Int_Tables_number	1
_symmetry_cell_setting	triclinic
loop_
_symmetry_equiv_pos_as_xyz
  x,y,z
_cell_length_a	16.959455
_cell_length_b	16.959447
_cell_length_c	13.032721
_cell_angle_alpha	82.848812
_cell_angle_beta	82.796337
_cell_angle_gamma	89.983277
loop_
_atom_site_label
_atom_site_type_symbol
_atom_site_fract_x
_atom_site_fract_y
_atom_site_fract_z
Zn1	Zn	1.168408	-0.486915	0.416047
Zn2	Zn	1.151538	-0.371521	0.590818
Zn3	Zn	1.036233	-0.354751	0.416086
Zn4	Zn	1.019416	-0.503647	0.590746
O5	O	1.093899	-0.429209	0.503424
O6	O	1.276780	-0.471624	0.439245
O7	O	1.136221	-0.258690	0.567686
O8	O	1.067865	-0.358262	0.269843
O9	O	1.264386	-0.386844	0.567648
O10	O	1.164973	-0.455363	0.269814
O11	O	1.051507	-0.246369	0.439311
O12	O	0.923393	-0.374486	0.439241
O13	O	1.039202	-0.612034	0.567526
O14	O	0.911037	-0.483880	0.567563
O15	O	1.148666	-0.599741	0.439175
O16	O	1.119914	-0.403069	0.737047
O17	O	1.022844	-0.500141	0.736994
C18	C	0.888535	-0.429179	0.503400
C19	C	0.800677	-0.429188	0.503414
C20	C	0.765822	-0.372304	0.436507
C21	C	0.752978	-0.486085	0.570328
C22	C	0.670431	-0.486098	0.570340
C23	C	0.635576	-0.429213	0.503434
C24	C	0.683268	-0.372316	0.436515
C25	C	0.622734	-0.542999	0.637250
C26	C	0.540182	-0.543014	0.637264
C27	C	0.505325	-0.486126	0.570362
C28	C	0.553022	-0.429226	0.503442
C29	C	0.518166	-0.372341	0.436535
C30	C	0.565861	-0.315437	0.369619
C31	C	0.648410	-0.315428	0.369613
C32	C	0.422776	-0.486135	0.570368
C33	C	0.435612	-0.372354	0.436543
C34	C	1.093940	-0.635369	0.503338
C35	C	1.093958	-0.723222	0.503301
C36	C	1.037070	-1.101090	0.570017
C37	C	1.151056	-1.088284	0.436365
C38	C	1.151033	-1.005740	0.436387
C39	C	1.094028	-0.970868	0.503226
C40	C	1.037046	-1.018539	0.570043
C41	C	1.208018	-0.958064	0.369578
C42	C	1.207998	-0.875515	0.369599
C43	C	1.150989	-0.840640	0.436434
C44	C	1.094004	-0.888317	0.503253
C45	C	1.037000	-0.853444	0.570092
C46	C	0.980011	-0.901118	0.636907
C47	C	0.980037	-0.983664	0.636878
C48	C	1.150963	-0.758094	0.436462
C49	C	1.036976	-0.770893	0.570118
C50	C	1.300065	-0.429238	0.503450
C51	C	1.387920	-0.429251	0.503461
C52	C	1.067745	-0.455258	0.774938
C53	C	1.056628	-0.466428	0.891093
C54	C	1.093911	-0.223843	0.503435
C55	C	1.094075	-0.135962	0.503178
C56	C	1.120177	-0.403075	0.230851
C57	C	1.131375	-0.391939	0.114696
C58	C	1.099743	-0.423414	0.942870
C59	C	1.088254	-0.434958	1.062922
H60	H	0.537472	-0.269125	0.315138
H61	H	0.651120	-0.589313	0.691719
H62	H	1.254433	-0.986464	0.315168
F63	F	0.997267	-0.525738	0.949317
H64	H	1.042837	-0.480336	1.107467
H65	H	1.176799	-0.346566	1.070151
H66	H	0.407239	-0.326030	0.382060
H67	H	0.687251	-0.269100	0.315133
F68	F	0.816581	-0.311744	0.365297
H69	H	0.990669	-1.139909	0.624413
H70	H	1.197364	-0.719282	0.382065
F71	F	0.790075	-0.546618	0.641536
H72	H	0.501355	-0.589348	0.691753
H73	H	0.383947	-0.532470	0.624843
H74	H	0.990549	-0.742505	0.624538
F75	F	0.919348	-0.863995	0.708045
H76	H	1.197470	-1.116683	0.381953
F77	F	1.159112	-0.364113	0.884646
H78	H	0.933643	-1.022488	0.691279
F79	F	1.268648	-0.824783	0.298487
