data_functionalizedCrystal
_audit_creation_method	'MofGen! by Chris Wilmer'
_symmetry_space_group_name_H-M	'P1'
_symmetry_Int_Tables_number	1
_symmetry_cell_setting	triclinic
loop_
_symmetry_equiv_pos_as_xyz
  x,y,z
_cell_length_a	10.654545
_cell_length_b	11.792241
_cell_length_c	9.730223
_cell_angle_alpha	90.003969
_cell_angle_beta	90.002141
_cell_angle_gamma	84.338247
loop_
_atom_site_label
_atom_site_type_symbol
_atom_site_fract_x
_atom_site_fract_y
_atom_site_fract_z
O1	O	1.667390	0.159394	0.114277
O2	O	1.301868	0.174588	0.114283
O3	O	1.493499	0.001841	0.114270
O4	O	1.475759	0.332141	0.114290
O5	O	1.493489	0.001838	-0.114310
O6	O	1.301858	0.174585	-0.114297
O7	O	1.667380	0.159391	-0.114303
Zn8	Zn	1.484618	0.166988	-0.150592
Zn9	Zn	1.484631	0.166992	0.150572
O10	O	1.475749	0.332138	-0.114290
C11	C	1.255068	0.173472	-0.000007
C12	C	1.115634	0.170138	-0.000005
C13	C	1.050129	0.168566	-0.124604
C14	C	0.919118	0.165414	-0.124605
C15	C	0.919130	0.165410	0.124606
C16	C	1.050139	0.168554	0.124604
C17	C	1.492380	-0.040454	-0.000020
C18	C	1.489045	-0.166475	-0.000018
C19	C	1.482911	-0.397202	0.000005
C20	C	1.486319	-0.268809	-0.000008
C21	C	1.714180	0.160507	-0.000011
C22	C	1.853614	0.163842	-0.000004
C23	C	1.476868	0.374433	0.000002
C24	C	1.480204	0.500455	0.000010
N25	N	1.484618	0.166984	-0.356129
C26	C	1.569507	0.090521	-0.571952
C27	C	1.569499	0.090522	-0.428069
C28	C	1.399747	0.243458	-0.428078
C29	C	1.399762	0.243461	-0.571958
N30	N	1.484641	0.166986	0.356108
H31	H	1.103475	0.169830	0.226075
H32	H	0.865789	0.164135	-0.226066
H33	H	1.638622	0.028252	-0.630517
H34	H	1.330639	0.305721	-0.369496
H35	H	1.638607	0.028259	-0.369500
H36	H	0.865787	0.164122	0.226058
O37	O	1.308256	0.325967	-0.649567
H38	H	1.249231	0.379144	-0.575378
H39	H	1.103451	0.169856	-0.226069
