data_functionalizedCrystal
_audit_creation_method	'MofGen! by Chris Wilmer'
_symmetry_space_group_name_H-M	'P1'
_symmetry_Int_Tables_number	1
_symmetry_cell_setting	triclinic
loop_
_symmetry_equiv_pos_as_xyz
  x,y,z
_cell_length_a	9.065218
_cell_length_b	10.654550
_cell_length_c	9.130313
_cell_angle_alpha	89.995631
_cell_angle_beta	89.994312
_cell_angle_gamma	84.750441
loop_
_atom_site_label
_atom_site_type_symbol
_atom_site_fract_x
_atom_site_fract_y
_atom_site_fract_z
O1	O	-1.959393	-0.184160	0.121874
O2	O	-1.459393	0.315840	0.621874
O3	O	-1.530025	-0.199265	0.121860
O4	O	-1.030025	0.300735	0.621860
O5	O	-1.754581	-0.009013	0.121858
O6	O	-1.254581	0.490987	0.621858
O7	O	-1.734837	-0.374413	0.121876
O8	O	-1.234837	0.125587	0.621876
O9	O	-1.754565	-0.009007	-0.121740
O10	O	-1.254565	0.490993	0.378260
O11	O	-1.530010	-0.199260	-0.121738
O12	O	-1.030010	0.300740	0.378262
O13	O	-1.959377	-0.184154	-0.121725
O14	O	-1.459377	0.315846	0.378275
Cu15	Cu	-1.744692	-0.191707	-0.143974
Cu16	Cu	-1.244692	0.308293	0.356026
Cu17	Cu	-1.744710	-0.191713	0.144110
Cu18	Cu	-1.244710	0.308287	0.644110
O19	O	-1.734822	-0.374407	-0.121723
O20	O	-1.234822	0.125593	0.378277
C21	C	-1.475039	-0.197811	0.000059
C22	C	-0.975039	0.302189	0.500059
C23	C	-1.311220	-0.193470	0.000054
C24	C	-0.811220	0.306530	0.500054
N25	N	-1.744690	-0.191701	-0.346597
N26	N	-1.244690	0.308299	0.153403
C27	C	-1.753123	0.037794	0.000060
C28	C	-1.253123	0.537794	0.500060
C29	C	-1.748786	0.177254	0.000062
C30	C	-1.248786	0.677254	0.500062
C31	C	-1.014364	-0.185609	0.000071
C32	C	-0.514364	0.314391	0.500071
C33	C	-1.178183	-0.189949	0.000058
C34	C	-0.678183	0.310051	0.500058
C35	C	-1.736279	-0.421214	0.000079
C36	C	-1.236279	0.078786	0.500079
C37	C	-1.740616	-0.560674	0.000087
C38	C	-1.240616	-0.060674	0.500087
C39	C	-1.881001	0.256216	0.000067
C40	C	-1.381001	0.756216	0.500067
C41	C	-1.876917	0.387253	0.000084
C42	C	-1.376917	0.887253	0.500084
C43	C	-1.608391	0.360354	0.000086
C44	C	-1.108391	0.860354	0.500086
C45	C	-1.612477	0.229319	0.000079
C46	C	-1.112477	0.729319	0.500079
C47	C	-1.844157	-0.107493	-0.423249
C48	C	-1.344157	0.392507	0.076751
C49	C	-1.844171	-0.107494	-0.576586
C50	C	-1.344171	0.392506	-0.076586
C51	C	-1.645246	-0.275921	-0.576604
C52	C	-1.145246	0.224079	-0.076604
C53	C	-1.645226	-0.275913	-0.423270
C54	C	-1.145226	0.224087	0.076730
N55	N	-1.744724	-0.191709	0.346732
N56	N	-1.244724	0.308291	0.846732
H57	H	-1.984580	0.451540	0.000091
H58	H	-1.484580	0.951540	0.500091
H59	H	-1.925164	-0.038923	-0.638993
H60	H	-1.425164	0.461077	-0.138993
H61	H	-1.991992	0.213830	0.000056
H62	H	-1.491992	0.713830	0.500056
H63	H	-1.497413	0.402761	0.000098
H64	H	-0.997413	0.902761	0.500098
H65	H	-1.504805	0.165025	0.000080
H66	H	-1.004805	0.665025	0.500080
H67	H	-1.564267	-0.344486	-0.639047
H68	H	-1.064267	0.155514	-0.139047
H69	H	-1.925144	-0.038921	-0.360826
H70	H	-1.425144	0.461079	0.139174
H71	H	-1.564221	-0.344486	-0.360855
H72	H	-1.064221	0.155514	0.139145
