data_functionalizedCrystal
_audit_creation_method	'MofGen! by Chris Wilmer'
_symmetry_space_group_name_H-M	'P1'
_symmetry_Int_Tables_number	1
_symmetry_cell_setting	triclinic
loop_
_symmetry_equiv_pos_as_xyz
  x,y,z
_cell_length_a	10.654556
_cell_length_b	11.792241
_cell_length_c	9.130313
_cell_angle_alpha	89.995332
_cell_angle_beta	89.998135
_cell_angle_gamma	84.340476
loop_
_atom_site_label
_atom_site_type_symbol
_atom_site_fract_x
_atom_site_fract_y
_atom_site_fract_z
O1	O	1.667384	0.159454	-0.121745
O2	O	1.301863	0.174635	-0.121760
O3	O	1.493494	0.001895	-0.121742
O4	O	1.475753	0.332195	-0.121763
O5	O	1.493481	0.001890	0.121857
O6	O	1.301850	0.174630	0.121839
O7	O	1.667371	0.159449	0.121854
Cu8	Cu	1.484609	0.167039	0.144089
Cu9	Cu	1.484625	0.167045	-0.143995
O10	O	1.475740	0.332190	0.121836
C11	C	1.255062	0.173516	0.000038
C12	C	1.115629	0.170177	0.000032
C13	C	1.492373	-0.040401	0.000057
C14	C	1.489037	-0.166423	0.000056
C15	C	0.919104	0.165478	-0.132742
C16	C	1.050117	0.168609	-0.132751
C17	C	1.050121	0.168603	0.132834
C18	C	0.919112	0.165464	0.132841
C19	C	1.482904	-0.397149	0.000031
C20	C	1.486312	-0.268756	0.000044
C21	C	1.714172	0.160568	0.000053
C22	C	1.853605	0.163907	0.000049
C23	C	1.476861	0.374486	0.000034
C24	C	1.480197	0.500507	0.000026
N25	N	1.484607	0.167034	0.346712
N26	N	1.484636	0.167041	-0.346617
C27	C	1.569490	0.090577	0.423372
C28	C	1.569502	0.090578	0.576709
C29	C	1.399745	0.243502	0.576712
C30	C	1.399728	0.243495	0.423378
H31	H	0.865773	0.164209	-0.240870
H32	H	1.330639	0.305756	0.639149
H33	H	1.638603	0.028317	0.360954
H34	H	1.638620	0.028318	0.639121
H35	H	1.103440	0.169886	-0.240883
C36	C	1.306403	0.327660	0.339047
N37	N	1.236132	0.391068	0.275529
H38	H	1.103472	0.169873	0.240948
C39	C	0.847058	0.163746	0.278930
N40	N	0.792787	0.162452	0.388959
