data_functionalizedCrystal
_audit_creation_method	'MofGen! by Chris Wilmer'
_symmetry_space_group_name_H-M	'P1'
_symmetry_Int_Tables_number	1
_symmetry_cell_setting	triclinic
loop_
_symmetry_equiv_pos_as_xyz
  x,y,z
_cell_length_a	10.723024
_cell_length_b	13.596369
_cell_length_c	10.723024
_cell_angle_alpha	90.004807
_cell_angle_beta	95.532131
_cell_angle_gamma	89.994365
loop_
_atom_site_label
_atom_site_type_symbol
_atom_site_fract_x
_atom_site_fract_y
_atom_site_fract_z
O1	O	-1.657190	0.081797	0.175029
O2	O	-1.323856	0.415130	0.508363
O3	O	-0.990523	0.748463	0.841696
O4	O	-1.294037	0.081797	0.191783
O5	O	-0.960704	0.415130	0.525116
O6	O	-0.627371	0.748463	0.858449
O7	O	-1.483990	0.081793	0.001830
O8	O	-1.150657	0.415126	0.335163
O9	O	-0.817324	0.748460	0.668496
O10	O	-1.467237	0.081800	0.364982
O11	O	-1.133904	0.415134	0.698316
O12	O	-0.800570	0.748467	1.031649
O13	O	-1.483971	-0.081790	0.001820
O14	O	-1.150638	0.251543	0.335153
O15	O	-0.817304	0.584877	0.668486
O16	O	-1.294018	-0.081786	0.191772
O17	O	-0.960685	0.251547	0.525106
O18	O	-0.627352	0.584880	0.858439
O19	O	-1.657171	-0.081786	0.175019
O20	O	-1.323837	0.251547	0.508352
O21	O	-0.990504	0.584880	0.841686
Zn22	Zn	-1.475591	-0.107759	0.183394
Zn23	Zn	-1.142258	0.225575	0.516727
Zn24	Zn	-0.808925	0.558908	0.850061
Zn25	Zn	-1.475617	0.107769	0.183408
Zn26	Zn	-1.142283	0.441102	0.516741
Zn27	Zn	-0.808950	0.774436	0.850074
O28	O	-1.467218	-0.081783	0.364972
O29	O	-1.133884	0.251551	0.698305
O30	O	-0.800551	0.584884	1.031639
C31	C	-1.247528	0.000005	0.190558
C32	C	-0.914195	0.333338	0.523892
C33	C	-0.580862	0.666672	0.857225
C34	C	-1.108974	0.000005	0.186911
C35	C	-0.775641	0.333338	0.520244
C36	C	-0.442307	0.666672	0.853577
N37	N	-1.475583	-0.254850	0.183384
N38	N	-1.142250	0.078483	0.516717
N39	N	-0.808917	0.411816	0.850051
C40	C	-0.917217	0.000003	0.073603
C41	C	-0.583883	0.333336	0.406937
C42	C	-0.250550	0.666670	0.740270
C43	C	-1.060420	0.000003	0.077371
C44	C	-0.727087	0.333336	0.410704
C45	C	-0.393753	0.666670	0.744038
C46	C	-1.475615	-0.656141	0.183409
C47	C	-1.142282	-0.322808	0.516742
C48	C	-0.808948	0.010525	0.850076
C49	C	-1.475602	-0.544490	0.183406
C50	C	-1.142269	-0.211157	0.516740
C51	C	-0.808936	0.122177	0.850073
C52	C	-1.475600	-0.455499	0.183398
C53	C	-1.142266	-0.122166	0.516731
C54	C	-0.808933	0.211167	0.850064
C55	C	-1.475586	-0.343841	0.183393
C56	C	-1.142253	-0.010508	0.516726
C57	C	-0.808919	0.322826	0.850060
C58	C	-0.703680	0.000005	0.176243
C59	C	-0.370346	0.333338	0.509577
C60	C	-0.037013	0.666672	0.842910
C61	C	-0.842234	0.000005	0.179891
C62	C	-0.508901	0.333338	0.513224
C63	C	-0.175567	0.666672	0.846558
C64	C	-1.482762	0.000003	-0.044675
C65	C	-1.149428	0.333336	0.288658
C66	C	-0.816095	0.666669	0.621992
C67	C	-1.479114	0.000006	-0.183229
C68	C	-1.145780	0.333339	0.150104
C69	C	-0.812447	0.666673	0.483437
N70	N	-1.475635	0.254861	0.183408
N71	N	-1.142301	0.588194	0.516741
N72	N	-0.808968	0.921527	0.850074
C73	C	-1.585401	0.000008	-0.258212
C74	C	-1.252068	0.333341	0.075122
C75	C	-0.918735	0.666674	0.408455
C76	C	-1.581634	0.000011	-0.401415
C77	C	-1.248301	0.333344	-0.068082
C78	C	-0.914967	0.666678	0.265251
C79	C	-1.468447	0.000010	0.411477
C80	C	-1.135113	0.333343	0.744810
C81	C	-0.801780	0.666676	1.078143
C82	C	-1.472094	0.000013	0.550031
C83	C	-1.138761	0.333346	0.883364
C84	C	-0.805428	0.666679	1.216698
H85	H	-0.875395	-0.000014	-0.020182
H86	H	-0.542061	0.333319	0.313151
H87	H	-0.208728	0.666653	0.646484
H88	H	-1.672624	0.000008	-0.465848
H89	H	-1.339291	0.333341	-0.132514
H90	H	-1.005958	0.666675	0.200819
H91	H	-1.124853	0.000007	-0.013619
H92	H	-0.791519	0.333341	0.319714
H93	H	-0.458186	0.666674	0.653047
H94	H	-1.381099	0.000005	-0.385544
H95	H	-1.047765	0.333338	-0.052211
H96	H	-0.714432	0.666672	0.281123
H97	H	-1.044549	0.000011	0.277906
H98	H	-0.711216	0.333344	0.611239
H99	H	-0.377882	0.666678	0.944573
N100	N	-0.897606	0.000007	0.304134
N101	N	-0.564272	0.333340	0.637468
N102	N	-0.230939	0.666674	0.970801
H103	H	-0.951007	-0.060633	0.310548
H104	H	-0.617673	0.272700	0.643881
H105	H	-0.284340	0.606034	0.977214
H106	H	-0.950959	0.060688	0.310478
H107	H	-0.617625	0.394021	0.643812
H108	H	-0.284292	0.727354	0.977145
H109	H	-1.679187	0.000001	-0.216390
H110	H	-1.345854	0.333335	0.116944
H111	H	-1.012521	0.666668	0.450277
H112	H	-1.385328	0.000013	-0.225051
H113	H	-1.051995	0.333346	0.108282
H114	H	-0.718661	0.666679	0.441615
