data_functionalizedCrystal
_audit_creation_method	'MofGen! by Chris Wilmer'
_symmetry_space_group_name_H-M	'P1'
_symmetry_Int_Tables_number	1
_symmetry_cell_setting	triclinic
loop_
_symmetry_equiv_pos_as_xyz
  x,y,z
_cell_length_a	16.109302
_cell_length_b	16.109304
_cell_length_c	14.586319
_cell_angle_alpha	89.999019
_cell_angle_beta	89.994552
_cell_angle_gamma	83.462209
loop_
_atom_site_label
_atom_site_type_symbol
_atom_site_fract_x
_atom_site_fract_y
_atom_site_fract_z
O1	O	1.103131	0.106869	-0.076276
O2	O	0.861070	0.120168	-0.076268
O3	O	0.988749	-0.007513	-0.076272
O4	O	0.975452	0.234549	-0.076271
O5	O	0.988740	-0.007514	0.076208
O6	O	0.861061	0.120166	0.076213
O7	O	1.103123	0.106867	0.076205
Cu8	Cu	0.982091	0.113516	0.090132
Cu9	Cu	0.982101	0.113518	-0.090194
O10	O	0.975443	0.234547	0.076210
C11	C	0.830090	0.119628	-0.000026
C12	C	0.737795	0.118012	-0.000024
C13	C	0.525449	0.114276	0.083084
C14	C	0.438729	0.112750	0.083081
C15	C	0.438749	0.112756	-0.083162
C16	C	0.525469	0.114277	-0.083157
C17	C	0.568816	0.115041	-0.000032
C18	C	0.395377	0.111994	-0.000039
C19	C	0.301351	0.110338	-0.000043
C20	C	0.662848	0.116695	-0.000027
C21	C	0.988206	-0.038488	-0.000034
C22	C	0.986590	-0.130784	-0.000040
C23	C	0.982861	-0.343120	-0.083154
C24	C	0.981335	-0.429840	-0.083153
C25	C	0.981329	-0.429839	0.083090
C26	C	0.982849	-0.343120	0.083088
C27	C	0.983619	-0.299763	-0.000037
C28	C	0.980573	-0.473202	-0.000034
C29	C	0.978918	-0.567228	-0.000032
C30	C	0.985272	-0.205731	-0.000039
C31	C	1.134102	0.107407	-0.000038
C32	C	1.226397	0.109022	-0.000047
C33	C	0.975987	0.265523	-0.000031
C34	C	0.977603	0.357818	-0.000030
N35	N	0.982090	0.113514	0.216963
N36	N	0.982109	0.113514	-0.217026
C37	C	1.038645	0.056996	0.451968
C38	C	1.038647	0.056994	0.547949
C39	C	0.925548	0.170034	0.547963
C40	C	0.925542	0.170032	0.451983
C41	C	0.982095	0.113514	0.403988
C42	C	0.982104	0.113514	0.595949
C43	C	0.982106	0.113513	0.700016
C44	C	0.982092	0.113514	0.299915
H45	H	0.403424	0.112127	0.150763
H46	H	1.084694	0.010972	0.587012
H47	H	0.980704	-0.465151	0.150767
C48	C	0.983698	-0.295429	-0.174593
N49	N	0.984326	-0.259511	-0.243468
H50	H	1.084692	0.010975	0.412893
H51	H	0.879505	0.216051	0.587050
H52	H	0.879489	0.216055	0.412916
C53	C	0.980533	-0.477533	-0.174589
N54	N	0.979940	-0.513456	-0.243463
C55	C	0.573175	0.115113	-0.174597
N56	N	0.609108	0.115739	-0.243466
C57	C	0.573129	0.115107	0.174525
N58	N	0.609040	0.115729	0.243401
C59	C	0.983683	-0.295424	0.174528
N60	N	0.984308	-0.259500	0.243398
C61	C	0.391059	0.111922	-0.174595
N62	N	0.355138	0.111296	-0.243465
