data_functionalizedCrystal
_audit_creation_method	'MofGen! by Chris Wilmer'
_symmetry_space_group_name_H-M	'P1'
_symmetry_Int_Tables_number	1
_symmetry_cell_setting	triclinic
loop_
_symmetry_equiv_pos_as_xyz
  x,y,z
_cell_length_a	16.959454
_cell_length_b	19.805407
_cell_length_c	19.805399
_cell_angle_alpha	90.017803
_cell_angle_beta	90.022387
_cell_angle_gamma	90.017392
loop_
_atom_site_label
_atom_site_type_symbol
_atom_site_fract_x
_atom_site_fract_y
_atom_site_fract_z
Zn1	Zn	-0.314756	1.034765	0.382712
Zn2	Zn	0.018577	1.368099	0.716045
Zn3	Zn	0.351910	1.701432	1.049379
Zn4	Zn	-0.446939	1.034693	0.269534
Zn5	Zn	-0.113606	1.368026	0.602867
Zn6	Zn	0.219728	1.701359	0.936201
Zn7	Zn	-0.314772	0.921580	0.269540
Zn8	Zn	0.018561	1.254913	0.602874
Zn9	Zn	0.351895	1.588247	0.936207
Zn10	Zn	-0.446891	0.921556	0.382684
Zn11	Zn	-0.113557	1.254889	0.716018
Zn12	Zn	0.219776	1.588223	1.049351
O13	O	-0.380840	0.978149	0.326118
O14	O	-0.047506	1.311482	0.659451
O15	O	0.285827	1.644815	0.992784
O16	O	-0.332304	1.129472	0.367708
O17	O	0.001029	1.462806	0.701041
O18	O	0.334362	1.796139	1.034375
O19	O	-0.429433	1.019668	0.174818
O20	O	-0.096100	1.353001	0.508152
O21	O	0.237233	1.686334	0.841485
O22	O	-0.204159	0.936635	0.284567
O23	O	0.129174	1.269968	0.617900
O24	O	0.462508	1.603301	0.951233
O25	O	-0.429418	1.129419	0.284556
O26	O	-0.096085	1.462752	0.617890
O27	O	0.237248	1.796086	0.951223
O28	O	-0.204148	1.019792	0.367714
O29	O	0.129186	1.353125	0.701047
O30	O	0.462519	1.686458	1.034380
O31	O	-0.332331	0.936564	0.174823
O32	O	0.001002	1.269898	0.508156
O33	O	0.334336	1.603231	0.841489
O34	O	-0.332284	0.826860	0.284540
O35	O	0.001049	1.160194	0.617873
O36	O	0.334382	1.493527	0.951207
O37	O	-0.429336	0.936594	0.477405
O38	O	-0.096003	1.269927	0.810738
O39	O	0.237331	1.603261	1.144071
O40	O	-0.429351	0.826843	0.367666
O41	O	-0.096018	1.160176	0.701000
O42	O	0.237315	1.493509	1.034333
O43	O	-0.332258	1.019768	0.477425
O44	O	0.001076	1.353102	0.810758
O45	O	0.334409	1.686435	1.144092
O46	O	-0.557543	1.019645	0.284530
O47	O	-0.224210	1.352978	0.617863
O48	O	0.109123	1.686311	0.951196
O49	O	-0.557508	0.936524	0.367661
O50	O	-0.224175	1.269857	0.700994
O51	O	0.109159	1.603190	1.034327
C52	C	-0.380815	0.802293	0.326101
C53	C	-0.047481	1.135626	0.659435
C54	C	0.285852	1.468959	0.992768
C55	C	-0.380823	0.727061	0.326110
C56	C	-0.047490	1.060394	0.659444
C57	C	0.285843	1.393727	0.992777
C58	C	-0.330345	0.691745	0.369473
C59	C	0.002988	1.025078	0.702806
C60	C	0.336321	1.358412	1.036140
C61	C	-0.330350	0.621056	0.369476
C62	C	0.002984	0.954390	0.702809
C63	C	0.336317	1.287723	1.036142
C64	C	-0.380836	0.585685	0.326118
C65	C	-0.047503	0.919018	0.659452
C66	C	0.285831	1.252352	0.992785
C67	C	-0.431316	0.621006	0.282751
C68	C	-0.097983	0.954339	0.616084
C69	C	0.235351	1.287672	0.949418
C70	C	-0.431307	0.691693	0.282745
C71	C	-0.097974	1.025026	0.616079
C72	C	0.235359	1.358360	0.949412
C73	C	-0.431352	0.335932	0.282772
C74	C	-0.098018	0.669266	0.616105
C75	C	0.235315	1.002599	0.949438
C76	C	-0.431358	0.265240	0.282782
C77	C	-0.098025	0.598574	0.616115
C78	C	0.235309	0.931907	0.949449
C79	C	-0.330394	0.265296	0.369502
C80	C	0.002939	0.598629	0.702835
C81	C	0.336273	0.931963	1.036169
C82	C	-0.330385	0.335983	0.369496
C83	C	0.002948	0.669316	0.702830
C84	C	0.336282	1.002650	1.036163
C85	C	-0.380862	0.371298	0.326127
C86	C	-0.047528	0.704631	0.659460
C87	C	0.285805	1.037964	0.992793
C88	C	-0.380856	0.447946	0.326123
C89	C	-0.047522	0.781279	0.659457
C90	C	0.285811	1.114613	0.992790
C91	C	-0.380847	0.509038	0.326125
C92	C	-0.047513	0.842371	0.659458
C93	C	0.285820	1.175705	0.992791
C94	C	-0.586206	0.978092	0.326106
C95	C	-0.252872	1.311425	0.659440
C96	C	0.080461	1.644759	0.992773
C97	C	-0.674062	0.978130	0.326124
C98	C	-0.340729	1.311463	0.659457
C99	C	-0.007396	1.644796	0.992791
C100	C	-1.045549	0.934930	0.369399
C101	C	-0.712216	1.268264	0.702733
C102	C	-0.378883	1.601597	1.036066
C103	C	-1.045526	1.021555	0.282905
C104	C	-0.712193	1.354889	0.616238
C105	C	-0.378860	1.688222	0.949572
C106	C	-0.962981	1.021532	0.282899
C107	C	-0.629647	1.354865	0.616232
C108	C	-0.296314	1.688199	0.949565
C109	C	-0.921715	0.978206	0.326143
C110	C	-0.588382	1.311539	0.659476
C111	C	-0.255049	1.644873	0.992809
C112	C	-0.962996	0.934904	0.369393
C113	C	-0.629663	1.268237	0.702726
C114	C	-0.296329	1.601571	1.036060
C115	C	-0.921694	1.064828	0.239644
C116	C	-0.588360	1.398162	0.572978
C117	C	-0.255027	1.731495	0.906311
C118	C	-0.839143	1.064806	0.239636
C119	C	-0.505809	1.398139	0.572969
C120	C	-0.172476	1.731473	0.906303
C121	C	-0.797876	1.021483	0.282884
C122	C	-0.464543	1.354816	0.616217
C123	C	-0.131209	1.688150	0.949551
C124	C	-0.839162	0.978180	0.326136
C125	C	-0.505828	1.311513	0.659470
C126	C	-0.172495	1.644846	0.992803
C127	C	-0.797897	0.934854	0.369380
C128	C	-0.464563	1.268187	0.702714
C129	C	-0.131230	1.601521	1.036047
C130	C	-0.839181	0.891553	0.412637
C131	C	-0.505847	1.224887	0.745970
C132	C	-0.172514	1.558220	1.079304
C133	C	-0.921729	0.891581	0.412641
C134	C	-0.588396	1.224914	0.745974
C135	C	-0.255063	1.558248	1.079308
C136	C	-0.715328	1.021455	0.282880
C137	C	-0.381994	1.354789	0.616213
C138	C	-0.048661	1.688122	0.949547
C139	C	-0.715343	0.934827	0.369374
C140	C	-0.382010	1.268161	0.702707
C141	C	-0.048676	1.601494	1.036041
C142	C	-0.174671	0.978224	0.326144
C143	C	0.158662	1.311557	0.659477
C144	C	0.491995	1.644891	0.992811
C145	C	-0.086815	0.978256	0.326155
C146	C	0.246519	1.311589	0.659489
C147	C	0.579852	1.644923	0.992822
C148	C	-0.380790	0.978187	0.502660
C149	C	-0.047456	1.311520	0.835994
C150	C	0.285877	1.644853	1.169327
C151	C	-0.380769	0.978203	0.577892
C152	C	-0.047435	1.311536	0.911226
C153	C	0.285898	1.644869	1.244559
C154	C	-0.380865	1.154691	0.326135
C155	C	-0.047532	1.488025	0.659468
C156	C	0.285802	1.821358	0.992801
C157	C	-0.380876	1.229923	0.326142
C158	C	-0.047542	1.563257	0.659475
C159	C	0.285791	1.896590	0.992808
C160	C	-0.380832	0.978150	0.150262
C161	C	-0.047499	1.311483	0.483595
C162	C	0.285835	1.644816	0.816928
C163	C	-0.380631	0.978265	0.075030
C164	C	-0.047297	1.311598	0.408363
C165	C	0.286036	1.644931	0.741697
C166	C	-0.330217	1.021513	0.613248
C167	C	0.003116	1.354846	0.946582
C168	C	0.336449	1.688179	1.279915
C169	C	-0.330194	1.021520	0.683937
C170	C	0.003139	1.354853	1.017270
C171	C	0.336472	1.688186	1.350604
C172	C	-0.380727	0.978220	0.719268
C173	C	-0.047394	1.311553	1.052601
C174	C	0.285939	1.644886	1.385935
C175	C	-0.431281	0.934905	0.683907
C176	C	-0.097947	1.268238	1.017241
C177	C	0.235386	1.601572	1.350574
C178	C	-0.431299	0.934895	0.613220
C179	C	-0.097966	1.268228	0.946553
C180	C	0.235368	1.601562	1.279887
C181	C	-0.431207	0.934943	0.968981
C182	C	-0.097874	1.268276	1.302314
C183	C	0.235460	1.601610	1.635647
C184	C	-0.431186	0.934958	1.039673
C185	C	-0.097853	1.268291	1.373006
C186	C	0.235480	1.601624	1.706340
C187	C	-0.330102	1.021568	1.039697
C188	C	0.003231	1.354901	1.373031
C189	C	0.336564	1.688234	1.706364
C190	C	-0.330121	1.021558	0.969010
C191	C	0.003213	1.354891	1.302344
C192	C	0.336546	1.688224	1.635677
C193	C	-0.380671	0.978241	0.933656
C194	C	-0.047337	1.311574	1.266989
C195	C	0.285996	1.644908	1.600322
C196	C	-0.380694	0.978233	0.857007
C197	C	-0.047361	1.311566	1.190341
C198	C	0.285973	1.644900	1.523674
C199	C	-0.380709	0.978230	0.795915
C200	C	-0.047375	1.311564	1.129249
C201	C	0.285958	1.644897	1.462582
H202	H	-0.289247	0.592306	0.404787
H203	H	0.044086	0.925639	0.738121
H204	H	0.377420	1.258972	1.071454
O205	O	-0.485685	0.888244	1.077780
O206	O	-0.152351	1.221577	1.411113
O207	O	0.180982	1.554910	1.744446
H208	H	-0.525905	0.918523	1.109980
H209	H	-0.192571	1.251856	1.443313
H210	H	0.140762	1.585190	1.776647
O211	O	-0.485766	0.582859	0.235981
O212	O	-0.152433	0.916193	0.569314
O213	O	0.180900	1.249526	0.902648
H214	H	-0.526039	0.550663	0.266216
H215	H	-0.192706	0.883997	0.599550
H216	H	0.140628	1.217330	0.932883
O217	O	-0.794621	1.111516	0.192991
O218	O	-0.461288	1.444850	0.526325
O219	O	-0.127954	1.778183	0.859658
H220	H	-0.757054	1.081238	0.158519
H221	H	-0.423720	1.414571	0.491853
H222	H	-0.090387	1.747904	0.825186
H223	H	-0.472380	0.899682	0.940204
H224	H	-0.139046	1.233015	1.273537
H225	H	0.194287	1.566348	1.606870
O226	O	-0.485804	0.227085	0.236008
O227	O	-0.152471	0.560419	0.569342
O228	O	0.180863	0.893752	0.902675
H229	H	-0.520895	0.263516	0.205843
H230	H	-0.187562	0.596850	0.539176
H231	H	0.145771	0.930183	0.872509
H232	H	-1.079167	0.899678	0.404620
H233	H	-0.745833	1.233011	0.737953
H234	H	-0.412500	1.566345	1.071286
H235	H	-0.472423	0.899647	0.712680
H236	H	-0.139089	1.232980	1.046013
H237	H	0.194244	1.566313	1.379346
H238	H	-0.681718	1.056707	0.247658
H239	H	-0.348384	1.390040	0.580991
H240	H	-0.015051	1.723373	0.914325
O241	O	-0.275887	0.729895	0.416233
O242	O	0.057446	1.063228	0.749566
O243	O	0.390780	1.396562	1.082900
H244	H	-0.240781	0.693459	0.446380
H245	H	0.092553	1.026792	0.779713
H246	H	0.425886	1.360126	1.113047
O247	O	-0.275926	0.374136	0.416253
O248	O	0.057408	0.707469	0.749587
O249	O	0.390741	1.040802	1.082920
H250	H	-0.240817	0.337702	0.446401
H251	H	0.092516	0.671035	0.779735
H252	H	0.425850	1.004369	1.113068
H253	H	-0.289070	1.056775	0.584487
H254	H	0.044263	1.390108	0.917820
H255	H	0.377597	1.723441	1.251153
O256	O	-0.275936	0.227208	0.416272
O257	O	0.057398	0.560542	0.749606
O258	O	0.390731	0.893875	1.082939
H259	H	-0.284412	0.172112	0.408988
H260	H	0.048922	0.505446	0.742321
H261	H	0.382255	0.838779	1.075655
H262	H	-0.472454	0.364677	0.247458
H263	H	-0.139120	0.698010	0.580791
H264	H	0.194213	1.031344	0.914125
H265	H	-0.472411	0.720446	0.247434
H266	H	-0.139078	1.053779	0.580768
H267	H	0.194256	1.387113	0.914101
O268	O	-0.275676	1.068236	0.722073
O269	O	0.057657	1.401569	1.055407
O270	O	0.390990	1.734903	1.388740
H271	H	-0.240550	1.098350	0.685630
H272	H	0.092784	1.431684	1.018963
H273	H	0.426117	1.765017	1.352296
H274	H	-0.681750	0.899549	0.404591
H275	H	-0.348416	1.232882	0.737925
H276	H	-0.015083	1.566215	1.071258
O277	O	-0.485811	0.888174	0.575081
O278	O	-0.152478	1.221507	0.908414
O279	O	0.180856	1.554840	1.241747
H280	H	-0.520948	0.858066	0.611523
H281	H	-0.187614	1.191400	0.944856
H282	H	0.145719	1.524733	1.278190
O283	O	-0.794672	0.844824	0.459280
O284	O	-0.461339	1.178157	0.792613
O285	O	-0.128005	1.511491	1.125946
H286	H	-0.730336	0.852085	0.452006
H287	H	-0.397003	1.185418	0.785339
H288	H	-0.063669	1.518752	1.118673
H289	H	-1.079129	1.056825	0.247694
H290	H	-0.745796	1.390159	0.581027
H291	H	-0.412463	1.723492	0.914360
H292	H	-0.955298	1.100097	0.204432
H293	H	-0.621965	1.433430	0.537766
H294	H	-0.288631	1.766763	0.871099
O295	O	-0.966254	0.844868	0.459280
O296	O	-0.632921	1.178201	0.792614
O297	O	-0.299587	1.511534	1.125947
H298	H	-1.030587	0.852157	0.452009
H299	H	-0.697254	1.185490	0.785342
H300	H	-0.363921	1.518823	1.118676
H301	H	-0.288974	1.056819	0.940247
H302	H	0.044359	1.390153	1.273580
H303	H	0.377692	1.723486	1.606914
H304	H	-0.288939	1.056836	1.068492
H305	H	0.044394	1.390169	1.401825
H306	H	0.377728	1.723503	1.735158
