data_functionalizedCrystal
_audit_creation_method	'MofGen! by Chris Wilmer'
_symmetry_space_group_name_H-M	'P1'
_symmetry_Int_Tables_number	1
_symmetry_cell_setting	triclinic
loop_
_symmetry_equiv_pos_as_xyz
  x,y,z
_cell_length_a	14.044220
_cell_length_b	14.044220
_cell_length_c	13.101039
_cell_angle_alpha	93.659868
_cell_angle_beta	93.667477
_cell_angle_gamma	86.811122
loop_
_atom_site_label
_atom_site_type_symbol
_atom_site_fract_x
_atom_site_fract_y
_atom_site_fract_z
O1	O	0.225348	-1.281968	-0.085109
O2	O	0.558682	-0.948635	0.248224
O3	O	0.892015	-0.615302	0.581558
O4	O	0.217041	-1.005298	-0.085135
O5	O	0.550374	-0.671965	0.248198
O6	O	0.883708	-0.338632	0.581532
O7	O	0.082860	-1.139480	-0.085112
O8	O	0.416193	-0.806147	0.248221
O9	O	0.749526	-0.472813	0.581554
O10	O	0.359530	-1.147787	-0.085132
O11	O	0.692863	-0.814454	0.248202
O12	O	1.026197	-0.481120	0.581535
O13	O	0.092504	-1.129854	0.085316
O14	O	0.425838	-0.796521	0.418649
O15	O	0.759171	-0.463188	0.751983
O16	O	0.226686	-0.995673	0.085293
O17	O	0.560019	-0.662339	0.418627
O18	O	0.893353	-0.329006	0.751960
O19	O	0.234993	-1.272343	0.085319
O20	O	0.568326	-0.939009	0.418652
O21	O	0.901660	-0.605676	0.751986
Zn22	Zn	0.232371	-1.132479	0.112365
Zn23	Zn	0.565704	-0.799146	0.445699
Zn24	Zn	0.899037	-0.465813	0.779032
Zn25	Zn	0.219663	-1.145162	-0.112181
Zn26	Zn	0.552997	-0.811828	0.221152
Zn27	Zn	0.886330	-0.478495	0.554485
O28	O	0.369175	-1.138161	0.085296
O29	O	0.702508	-0.804828	0.418630
O30	O	1.035841	-0.471494	0.751963
C31	C	0.218228	-0.964864	0.000076
C32	C	0.551561	-0.631531	0.333409
C33	C	0.884894	-0.298197	0.666743
C34	C	0.207383	-0.858722	0.000066
C35	C	0.540716	-0.525388	0.333400
C36	C	0.874049	-0.192055	0.666733
C37	C	0.052060	-1.131031	0.000102
C38	C	0.385393	-0.797698	0.333435
C39	C	0.718727	-0.464365	0.666769
C40	C	-0.054083	-1.120187	0.000102
C41	C	0.279251	-0.786854	0.333435
C42	C	0.612584	-0.453520	0.666769
N43	N	0.241043	-1.123831	0.265612
N44	N	0.574377	-0.790497	0.598946
N45	N	0.907710	-0.457164	0.932279
C46	C	-0.248421	-1.100362	0.000086
C47	C	0.084912	-0.767028	0.333419
C48	C	0.418245	-0.433695	0.666752
C49	C	-0.299551	-1.177276	0.000090
C50	C	0.033782	-0.843942	0.333423
C51	C	0.367116	-0.510609	0.666756
C52	C	-0.407688	-1.166245	0.000080
C53	C	-0.074354	-0.832911	0.333414
C54	C	0.258979	-0.499578	0.666747
C55	C	-0.140275	-1.111391	0.000095
C56	C	0.193059	-0.778058	0.333428
C57	C	0.526392	-0.444725	0.666761
C58	C	0.399974	-1.146610	0.000080
C59	C	0.733307	-0.813276	0.333413
C60	C	1.066641	-0.479943	0.666747
C61	C	0.506116	-1.157455	0.000073
C62	C	0.839450	-0.824121	0.333406
C63	C	1.172783	-0.490788	0.666740
C64	C	0.233806	-1.312777	0.000106
C65	C	0.567140	-0.979444	0.333439
C66	C	0.900473	-0.646111	0.666773
C67	C	0.244651	-1.418920	0.000109
C68	C	0.577984	-1.085587	0.333442
C69	C	0.911318	-0.752253	0.666775
C70	C	0.187558	-0.664383	0.000088
C71	C	0.520891	-0.331049	0.333421
C72	C	0.854224	0.002284	0.666755
C73	C	0.264472	-0.613253	0.000087
C74	C	0.597805	-0.279920	0.333420
C75	C	0.931139	0.053414	0.666754
C76	C	0.253441	-0.505116	0.000099
C77	C	0.586774	-0.171783	0.333432
C78	C	0.920108	0.161551	0.666766
C79	C	0.198587	-0.772529	0.000076
C80	C	0.531920	-0.439196	0.333409
C81	C	0.865254	-0.105863	0.666743
N82	N	0.210984	-1.153817	-0.265428
N83	N	0.544317	-0.820484	0.067905
N84	N	0.877651	-0.487151	0.401238
C85	C	0.252851	-1.112065	0.474653
C86	C	0.586185	-0.778731	0.807986
C87	C	0.919518	-0.445398	1.141320
C88	C	0.199179	-1.165580	0.525538
C89	C	0.532512	-0.832247	0.858871
C90	C	0.865846	-0.498914	1.192204
C91	C	0.205749	-1.159034	0.641855
C92	C	0.539082	-0.825700	0.975188
C93	C	0.872416	-0.492367	1.308522
C94	C	0.246282	-1.118610	0.358325
C95	C	0.579616	-0.785277	0.691658
C96	C	0.912949	-0.451944	1.024992
H97	H	-0.262115	-1.251413	0.000028
H98	H	0.071218	-0.918079	0.333361
H99	H	0.404551	-0.584746	0.666694
N100	N	0.320262	-1.044879	0.532655
N101	N	0.653595	-0.711546	0.865988
N102	N	0.986929	-0.378212	1.199321
H103	H	0.355173	-1.010075	0.482492
H104	H	0.688507	-0.676742	0.815826
H105	H	1.021840	-0.343408	1.149159
H106	H	0.282672	-0.997053	0.577178
H107	H	0.616005	-0.663720	0.910511
H108	H	0.949339	-0.330386	1.243844
H109	H	0.148295	-1.216314	0.481744
H110	H	0.481628	-0.882981	0.815077
H111	H	0.814962	-0.549647	1.148411
N112	N	0.089364	-0.614800	0.000107
N113	N	0.422698	-0.281466	0.333440
N114	N	0.756031	0.051867	0.666774
H115	H	0.095305	-0.543459	0.000114
H116	H	0.428638	-0.210126	0.333447
H117	H	0.761972	0.123207	0.666781
H118	H	0.049975	-0.637486	-0.063073
H119	H	0.383309	-0.304153	0.270260
H120	H	0.716642	0.029181	0.603594
H121	H	-0.285859	-1.026235	0.000076
H122	H	0.047475	-0.692901	0.333410
H123	H	0.380808	-0.359568	0.666743
N124	N	0.362672	-0.662836	0.000073
N125	N	0.696006	-0.329502	0.333406
N126	N	1.029339	0.003831	0.666740
H127	H	0.356738	-0.734177	0.000064
H128	H	0.690071	-0.400844	0.333397
H129	H	1.023405	-0.067510	0.666731
H130	H	0.394901	-0.647259	-0.063111
H131	H	0.728235	-0.313926	0.270222
H132	H	1.061568	0.019408	0.603556
