data_functionalizedCrystal
_audit_creation_method	'MofGen! by Chris Wilmer'
_symmetry_space_group_name_H-M	'P1'
_symmetry_Int_Tables_number	1
_symmetry_cell_setting	triclinic
loop_
_symmetry_equiv_pos_as_xyz
  x,y,z
_cell_length_a	14.519709
_cell_length_b	10.967926
_cell_length_c	10.065875
_cell_angle_alpha	93.120479
_cell_angle_beta	98.804604
_cell_angle_gamma	84.207347
loop_
_atom_site_label
_atom_site_type_symbol
_atom_site_fract_x
_atom_site_fract_y
_atom_site_fract_z
O1	O	0.160831	1.613236	0.265926
O2	O	0.660831	2.113236	0.765926
O3	O	0.163464	1.263198	0.183596
O4	O	0.663464	1.763198	0.683596
O5	O	0.028218	1.447496	0.226956
O6	O	0.528218	1.947496	0.726956
O7	O	0.296077	1.428938	0.222566
O8	O	0.796077	1.928938	0.722566
O9	O	0.054116	1.412353	0.445676
O10	O	0.554116	1.912353	0.945676
O11	O	0.189362	1.228055	0.402317
O12	O	0.689362	1.728055	0.902317
O13	O	0.186729	1.578094	0.484646
O14	O	0.686729	2.078094	0.984646
Zn15	Zn	0.192158	1.397495	0.478208
Zn16	Zn	0.692158	1.897495	0.978208
Zn17	Zn	0.158036	1.443797	0.190034
Zn18	Zn	0.658036	1.943797	0.690034
O19	O	0.321975	1.393795	0.441287
O20	O	0.821975	1.893795	0.941287
C21	C	0.174265	1.200829	0.282420
C22	C	0.674265	1.700829	0.782420
C23	C	0.167852	1.067344	0.251025
C24	C	0.667852	1.567344	0.751025
C25	C	0.178409	0.989628	0.350331
C26	C	0.678409	1.489628	0.850331
C27	C	0.171781	0.851665	0.317885
C28	C	0.671781	1.351665	0.817885
C29	C	0.006779	1.429060	0.336113
C30	C	0.506779	1.929060	0.836113
C31	C	-0.095688	1.426467	0.335504
C32	C	0.404312	1.926467	0.835504
C33	C	-0.470904	1.416930	0.333225
C34	C	0.029096	1.916930	0.833225
C35	C	-0.366507	1.419578	0.333858
C36	C	0.133493	1.919578	0.833858
C37	C	-0.283299	1.421698	0.334366
C38	C	0.216701	1.921698	0.834366
C39	C	-0.178896	1.424347	0.334996
C40	C	0.321104	1.924347	0.834996
C41	C	0.343414	1.412233	0.332127
C42	C	0.843414	1.912233	0.832127
C43	C	0.445880	1.414826	0.332727
C44	C	0.945880	1.914826	0.832727
C45	C	0.175928	1.640464	0.385820
C46	C	0.675928	2.140464	0.885820
C47	C	0.182340	1.773949	0.417206
C48	C	0.682340	2.273949	0.917206
N49	N	0.215444	1.365903	0.674881
N50	N	0.715444	1.865903	1.174881
N51	N	0.134742	1.475398	-0.006637
N52	N	0.634742	1.975398	0.493363
C53	C	0.166132	1.432798	0.758398
C54	C	0.666132	1.932798	1.258398
C55	C	0.184062	1.408494	0.909848
C56	C	0.684062	1.908494	1.409848
H57	H	0.192349	1.025231	0.459372
H58	H	0.692349	1.525231	0.959372
H59	H	0.110636	1.508058	0.717780
H60	H	0.610636	2.008058	1.217780
C61	C	0.290412	1.264229	0.729743
C62	C	0.790412	1.764229	1.229743
H63	H	0.292632	1.261238	0.824338
H64	H	0.792632	1.761238	1.324338
H65	H	0.275128	1.187490	0.688363
H66	H	0.775128	1.687490	1.188363
H67	H	0.349734	1.281247	0.710388
H68	H	0.849734	1.781247	1.210388
H69	H	0.239554	1.333220	0.950459
H70	H	0.739554	1.833220	1.450459
H71	H	0.196282	0.809544	0.526255
H72	H	0.696282	1.309544	1.026255
C73	C	0.152945	0.803587	0.170571
C74	C	0.652945	1.303587	0.670571
H75	H	0.150968	0.717167	0.168088
H76	H	0.650968	1.217167	0.668088
H77	H	0.094694	0.841013	0.128502
H78	H	0.594694	1.341013	0.628502
H79	H	0.201569	0.822905	0.124245
H80	H	0.701569	1.322905	0.624245
H81	H	0.153905	1.031743	0.141984
H82	H	0.653905	1.531743	0.641984
H83	H	0.079243	1.550662	0.952750
H84	H	0.579243	2.050662	1.452750
