data_functionalizedCrystal
_audit_creation_method	'MofGen! by Chris Wilmer'
_symmetry_space_group_name_H-M	'P1'
_symmetry_Int_Tables_number	1
_symmetry_cell_setting	triclinic
loop_
_symmetry_equiv_pos_as_xyz
  x,y,z
_cell_length_a	19.805407
_cell_length_b	19.805405
_cell_length_c	12.759393
_cell_angle_alpha	89.964693
_cell_angle_beta	90.024525
_cell_angle_gamma	89.964886
loop_
_atom_site_label
_atom_site_type_symbol
_atom_site_fract_x
_atom_site_fract_y
_atom_site_fract_z
Zn1	Zn	1.034731	0.269395	0.594086
Zn2	Zn	1.534731	0.769395	1.094086
Zn3	Zn	1.034625	0.382598	0.418391
Zn4	Zn	1.534625	0.882598	0.918391
Zn5	Zn	0.921538	0.269432	0.418410
Zn6	Zn	1.421538	0.769432	0.918410
Zn7	Zn	0.921496	0.382552	0.594017
Zn8	Zn	1.421496	0.882552	1.094017
O9	O	0.978098	0.325994	0.506226
O10	O	1.478098	0.825994	1.006226
O11	O	1.129434	0.284416	0.570800
O12	O	1.629434	0.784416	1.070800
O13	O	1.019596	0.367621	0.271372
O14	O	1.519596	0.867621	0.771372
O15	O	0.936615	0.174711	0.441750
O16	O	1.436615	0.674711	0.941750
O17	O	1.129355	0.367586	0.441718
O18	O	1.629355	0.867586	0.941718
O19	O	1.019778	0.174684	0.570818
O20	O	1.519778	0.674684	1.070818
O21	O	0.936512	0.284479	0.271386
O22	O	1.436512	0.784479	0.771386
O23	O	0.826816	0.284434	0.441684
O24	O	1.326816	0.784434	0.941684
O25	O	0.936544	0.367506	0.741047
O26	O	1.436544	0.867506	1.241047
O27	O	0.826785	0.367542	0.570702
O28	O	1.326785	0.867542	1.070702
O29	O	1.019738	0.284371	0.741098
O30	O	1.519738	0.784371	1.241098
O31	O	1.019556	0.477309	0.441652
O32	O	1.519556	0.977309	0.941652
O33	O	0.936441	0.477274	0.570683
O34	O	1.436441	0.977274	1.070683
C35	C	0.802242	0.325987	0.506188
C36	C	1.302242	0.825987	1.006188
C37	C	0.727010	0.326001	0.506197
C38	C	1.227010	0.826001	1.006197
C39	C	0.265263	0.282769	0.573582
C40	C	0.765263	0.782769	1.073582
C41	C	0.335951	0.282770	0.573575
C42	C	0.835951	0.782770	1.073575
C43	C	0.371248	0.326005	0.506260
C44	C	0.871248	0.826005	1.006260
C45	C	0.335852	0.369246	0.438955
C46	C	0.835852	0.869246	0.938955
C47	C	0.265165	0.369247	0.438969
C48	C	0.765165	0.869247	0.938969
C49	C	0.620926	0.369240	0.438900
C50	C	1.120926	0.869240	0.938900
C51	C	0.691618	0.369234	0.438889
C52	C	1.191618	0.869234	0.938889
C53	C	0.691712	0.282763	0.573506
C54	C	1.191712	0.782763	1.073506
C55	C	0.621025	0.282765	0.573519
C56	C	1.121025	0.782765	1.073519
C57	C	0.585635	0.326008	0.506219
C58	C	1.085635	0.826008	1.006219
C59	C	0.508987	0.326007	0.506230
C60	C	1.008987	0.826007	1.006230
C61	C	0.447895	0.326003	0.506243
C62	C	0.947895	0.826003	1.006243
C63	C	0.978001	0.501850	0.506181
C64	C	1.478001	1.001850	1.006181
C65	C	0.978021	0.577082	0.506197
C66	C	1.478021	1.077082	1.006197
C67	C	1.021294	0.612354	0.573454
C68	C	1.521294	1.112354	1.073454
C69	C	1.021311	0.683043	0.573471
C70	C	1.521311	1.183043	1.073471
C71	C	0.978057	0.718458	0.506224
C72	C	1.478057	1.218458	1.006224
C73	C	0.934779	0.683181	0.438964
C74	C	1.434779	1.183181	0.938964
C75	C	0.934760	0.612494	0.438953
C76	C	1.434760	1.112494	0.938953
C77	C	0.934856	0.968254	0.439007
C78	C	1.434856	1.468254	0.939007
C79	C	0.934880	1.038946	0.439021
C80	C	1.434880	1.538946	0.939021
C81	C	1.021407	1.038803	0.573524
C82	C	1.521407	1.538803	1.073524
C83	C	1.021387	0.968116	0.573513
C84	C	1.521387	1.468116	1.073513
C85	C	0.978107	0.932845	0.506258
C86	C	1.478107	1.432845	1.006258
C87	C	0.978089	0.856197	0.506242
C88	C	1.478089	1.356197	1.006242
C89	C	0.978078	0.795105	0.506234
C90	C	1.478078	1.295105	1.006234
C91	C	1.154640	0.326002	0.506265
C92	C	1.654640	0.826002	1.006265
C93	C	1.229872	0.326005	0.506281
C94	C	1.729872	0.826005	1.006281
C95	C	0.978148	0.325929	0.780259
C96	C	1.478148	0.825929	1.280259
C97	C	0.978170	0.325902	0.897036
C98	C	1.478170	0.825902	1.397036
C99	C	0.978185	1.149452	0.506284
C100	C	1.478185	1.649452	1.006284
C101	C	0.978150	1.074220	0.506284
C102	C	1.478150	1.574220	1.006284
C103	C	0.978086	0.326010	0.233258
C104	C	1.478086	0.826010	0.733258
C105	C	0.978196	0.325847	0.116482
C106	C	1.478196	0.825847	0.616482
C107	C	1.021492	0.282606	0.951926
C108	C	1.521492	0.782606	1.451926
C109	C	1.021503	0.282577	1.061650
C110	C	1.521503	0.782577	1.561650
C111	C	0.934869	0.369145	1.061585
C112	C	1.434869	0.869145	1.561585
C113	C	0.934854	0.369170	0.951863
C114	C	1.434854	0.869170	1.451863
H115	H	0.592290	0.247557	0.628330
H116	H	1.092290	0.747557	1.128330
H117	H	0.899605	0.404374	1.106238
H118	H	1.399605	0.904374	1.606238
Br119	Br	0.876026	0.564624	0.347677
Br120	Br	1.376026	1.064624	0.847677
Br121	Br	0.217367	0.224085	0.664935
Br122	Br	0.717367	0.724085	1.164935
Br123	Br	0.383979	0.224095	0.664925
Br124	Br	0.883979	0.724095	1.164925
H125	H	1.056779	0.247320	1.106336
H126	H	1.556779	0.747320	1.606336
H127	H	1.056554	0.711758	0.628230
H128	H	1.556554	1.211758	1.128230
Br129	Br	0.217134	0.427935	0.347640
Br130	Br	0.717134	0.927935	0.847640
H131	H	0.720534	0.247555	0.628308
H132	H	1.220534	0.747555	1.128308
Br133	Br	1.080095	0.920056	0.664774
Br134	Br	1.580095	1.420056	1.164774
Br135	Br	1.080275	0.223884	0.877521
Br136	Br	1.580275	0.723884	1.377521
Br137	Br	0.739520	0.427912	0.347524
Br138	Br	1.239520	0.927912	0.847524
H139	H	0.899558	0.712022	0.384215
H140	H	1.399558	1.212022	0.884215
Br141	Br	1.080145	1.086674	0.664804
Br142	Br	1.580145	1.586674	1.164804
Br143	Br	0.876050	0.427926	0.877362
Br144	Br	1.376050	0.927926	1.377362
H145	H	1.056520	0.583524	0.628209
H146	H	1.556520	1.083524	1.128209
H147	H	0.899617	0.939543	0.384243
H148	H	1.399617	1.439543	0.884243
Br149	Br	0.876175	1.087010	0.347750
Br150	Br	1.376175	1.587010	0.847750
Br151	Br	0.383754	0.427927	0.347605
Br152	Br	0.883754	0.927927	0.847605
Br153	Br	0.572906	0.427907	0.347532
Br154	Br	1.072906	0.927907	0.847532
