data_functionalizedCrystal
_audit_creation_method	'MofGen! by Chris Wilmer'
_symmetry_space_group_name_H-M	'P1'
_symmetry_Int_Tables_number	1
_symmetry_cell_setting	triclinic
loop_
_symmetry_equiv_pos_as_xyz
  x,y,z
_cell_length_a	13.033748
_cell_length_b	12.759400
_cell_length_c	12.759393
_cell_angle_alpha	90.029805
_cell_angle_beta	82.846923
_cell_angle_gamma	97.208992
loop_
_atom_site_label
_atom_site_type_symbol
_atom_site_fract_x
_atom_site_fract_y
_atom_site_fract_z
Zn1	Zn	1.597606	-0.213939	0.390332
Zn2	Zn	2.097606	0.286061	0.890332
Zn3	Zn	1.597498	-0.389669	0.214668
Zn4	Zn	2.097498	0.110331	0.714668
Zn5	Zn	1.422852	-0.236335	0.236948
Zn6	Zn	1.922852	0.263665	0.736948
Zn7	Zn	1.422844	-0.411923	0.412573
Zn8	Zn	1.922844	0.088077	0.912573
O9	O	1.510200	-0.312967	0.313630
O10	O	2.010200	0.187033	0.813630
O11	O	1.743820	-0.218564	0.348397
O12	O	2.243820	0.281436	0.848397
O13	O	1.574289	-0.369388	0.070608
O14	O	2.074289	0.130612	0.570608
O15	O	1.446082	-0.086337	0.257311
O16	O	1.946082	0.413663	0.757311
O17	O	1.743741	-0.347672	0.219338
O18	O	2.243741	0.152328	0.719338
O19	O	1.574473	-0.069883	0.370001
O20	O	2.074473	0.430117	0.870001
O21	O	1.445977	-0.256735	0.086977
O22	O	1.945977	0.243265	0.586977
O23	O	1.276623	-0.278313	0.278877
O24	O	1.776623	0.221687	0.778877
O25	O	1.446069	-0.385600	0.556639
O26	O	1.946069	0.114400	1.056639
O27	O	1.276617	-0.407317	0.407909
O28	O	1.776617	0.092683	0.907909
O29	O	1.574466	-0.240143	0.540298
O30	O	2.074466	0.259857	1.040298
O31	O	1.574281	-0.539648	0.240904
O32	O	2.074281	-0.039648	0.740904
O33	O	1.445964	-0.555998	0.386305
O34	O	1.945964	-0.055998	0.886305
C35	C	1.238705	-0.347661	0.348225
C36	C	1.738705	0.152339	0.848225
C37	C	1.122558	-0.362529	0.363049
C38	C	1.622558	0.137471	0.863049
C39	C	1.070751	-0.305233	0.305919
C40	C	1.570751	0.194767	0.805919
C41	C	0.950707	-0.320598	0.321240
C42	C	1.450707	0.179402	0.821240
C43	C	1.510138	-0.585942	0.313619
C44	C	2.010138	-0.085942	0.813619
C45	C	1.510208	-0.702710	0.313638
C46	C	2.010208	-0.202710	0.813638
C47	C	1.577032	-0.748918	0.372377
C48	C	2.077032	-0.248918	0.872377
C49	C	1.577090	-0.858634	0.372398
C50	C	2.077090	-0.358634	0.872398
C51	C	1.443498	-0.875925	0.254932
C52	C	1.943498	-0.375925	0.754932
C53	C	1.443435	-0.766211	0.254918
C54	C	1.943435	-0.266211	0.754918
C55	C	1.782756	-0.278137	0.278901
C56	C	2.282756	0.221863	0.778901
C57	C	1.898903	-0.263295	0.264102
C58	C	2.398903	0.236705	0.764102
C59	C	1.510278	-0.312856	0.587654
C60	C	2.010278	0.187144	1.087654
C61	C	1.510312	-0.312808	0.704426
C62	C	2.010312	0.187192	1.204426
C63	C	1.510291	-0.038922	0.313660
C64	C	2.010291	0.461078	0.813660
C65	C	1.510329	0.077860	0.313673
C66	C	2.010329	0.577860	0.813673
C67	C	1.510182	-0.312993	0.040665
C68	C	2.010182	0.187007	0.540665
C69	C	1.510352	-0.312719	-0.076133
C70	C	2.010352	0.187281	0.423867
C71	C	1.577173	-0.237057	0.750781
C72	C	2.077173	0.262943	1.250781
C73	C	1.577191	-0.237010	0.860503
C74	C	2.077191	0.262990	1.360503
C75	C	1.443483	-0.388474	0.877506
C76	C	1.943483	0.111526	1.377506
C77	C	1.443461	-0.388516	0.767787
C78	C	1.943461	0.111484	1.267787
H79	H	0.943416	-0.202866	0.203840
H80	H	1.443416	0.297134	0.703840
C81	C	1.130888	-0.223588	0.224525
C82	C	1.630888	0.276412	0.724525
N83	N	1.176182	-0.162087	0.163222
N84	N	1.676182	0.337913	0.663222
H85	H	0.906192	-0.381033	0.381494
H86	H	1.406192	0.118967	0.881494
H87	H	1.631503	-0.896251	0.420231
H88	H	2.131503	-0.396251	0.920231
H89	H	1.631634	-0.175324	0.898239
H90	H	2.131634	0.324676	1.398239
C91	C	1.062420	-0.444166	0.444451
C92	C	1.562420	0.055834	0.944451
N93	N	1.017126	-0.505656	0.505767
N94	N	1.517126	-0.005656	1.005767
C95	C	1.650477	-0.679070	0.436977
C96	C	2.150477	-0.179070	0.936977
N97	N	1.705796	-0.626464	0.485640
N98	N	2.205796	-0.126464	0.985640
C99	C	1.370123	-0.945778	0.190263
C100	C	1.870123	-0.445778	0.690263
N101	N	1.314882	-0.998386	0.141523
N102	N	1.814882	-0.498386	0.641523
C103	C	1.369909	-0.715381	0.190309
C104	C	1.869909	-0.215381	0.690309
N105	N	1.314525	-0.677097	0.141655
N106	N	1.814525	-0.177097	0.641655
C107	C	1.650701	-0.153769	0.681089
C108	C	2.150701	0.346231	1.181089
N109	N	1.706082	-0.091030	0.628600
N110	N	2.206082	0.408970	1.128600
H111	H	1.389058	-0.450114	0.929107
H112	H	1.889058	0.049886	1.429107
H113	H	1.389007	-0.450202	0.730046
H114	H	1.889007	0.049798	1.230046
