data_functionalizedCrystal
_audit_creation_method	'MofGen! by Chris Wilmer'
_symmetry_space_group_name_H-M	'P1'
_symmetry_Int_Tables_number	1
_symmetry_cell_setting	triclinic
loop_
_symmetry_equiv_pos_as_xyz
  x,y,z
_cell_length_a	14.908520
_cell_length_b	19.077142
_cell_length_c	19.076919
_cell_angle_alpha	89.925643
_cell_angle_beta	95.429006
_cell_angle_gamma	88.850506
loop_
_atom_site_label
_atom_site_type_symbol
_atom_site_fract_x
_atom_site_fract_y
_atom_site_fract_z
Zn1	Zn	-0.436385	-1.037878	-0.459269
Zn2	Zn	-0.581412	-1.035741	-0.348016
Zn3	Zn	-0.424300	-0.925661	-0.336538
Zn4	Zn	-0.580865	-0.913589	-0.460741
O5	O	-0.505740	-0.978217	-0.401141
O6	O	-0.460910	-1.135679	-0.448699
O7	O	-0.555741	-1.025297	-0.247954
O8	O	-0.299685	-0.946493	-0.347399
O9	O	-0.567460	-1.134110	-0.366961
O10	O	-0.308564	-1.028939	-0.437569
O11	O	-0.440312	-0.944421	-0.239521
O12	O	-0.439782	-0.825975	-0.348826
O13	O	-0.566529	-0.925918	-0.559085
O14	O	-0.554810	-0.817106	-0.440077
O15	O	-0.460380	-1.017233	-0.558004
O16	O	-0.707557	-1.013591	-0.368388
O17	O	-0.707155	-0.923846	-0.451207
C18	C	-0.495926	-0.796108	-0.393366
C19	C	-0.491750	-0.718199	-0.390058
C20	C	-0.740084	-0.967195	-0.411219
C21	C	-0.840342	-0.962543	-0.415557
C22	C	-0.549760	-0.676997	-0.435946
C23	C	-0.545825	-0.603794	-0.432840
C24	C	-0.483882	-0.571794	-0.383842
C25	C	-0.425866	-0.613001	-0.337952
C26	C	-0.429797	-0.686203	-0.341061
C27	C	-0.465687	-0.353357	-0.369458
C28	C	-0.461762	-0.280149	-0.366350
C29	C	-0.581720	-0.270947	-0.461240
C30	C	-0.585650	-0.344150	-0.464342
C31	C	-0.527630	-0.385352	-0.418454
N32	N	-0.479860	-0.496968	-0.380665
N33	N	-0.531649	-0.460176	-0.421636
C34	C	-1.029103	-1.047342	-0.337546
C35	C	-1.123305	-1.042973	-0.341619
C36	C	-1.122948	-0.949441	-0.427781
C37	C	-1.028747	-0.953810	-0.423707
C38	C	-0.981828	-1.002761	-0.378587
C39	C	-0.887624	-1.007126	-0.374511
C40	C	-0.887270	-0.913598	-0.460676
C41	C	-0.981472	-0.909229	-0.464749
C42	C	-0.270483	-0.989301	-0.391039
C43	C	-0.170230	-0.994024	-0.386735
C44	C	-0.514741	-0.970467	-0.584809
C45	C	-0.518577	-0.967165	-0.663077
C46	C	-0.515589	-0.161038	-0.408938
C47	C	-0.519772	-0.238947	-0.412239
C48	C	-0.465115	-1.013153	-0.699286
C49	C	-0.468715	-1.010042	-0.772827
C50	C	-0.525783	-0.960944	-0.810158
C51	C	-0.579246	-0.914951	-0.773944
C52	C	-0.575641	-0.918060	-0.700404
C53	C	-0.542487	-0.946546	-1.030159
C54	C	-0.546091	-0.943442	-1.103704
C55	C	-0.435558	-1.038533	-1.102582
C56	C	-0.431962	-1.041640	-1.029041
C57	C	-0.485422	-0.995644	-0.992833
N58	N	-0.529466	-0.957764	-0.885329
N59	N	-0.481733	-0.998821	-0.917663
C60	C	-0.496712	-0.985981	-0.218186
C61	C	-0.492629	-0.989431	-0.139913
H62	H	-0.600203	-0.703045	-0.475843
H63	H	-0.418450	-0.386894	-0.332087
H64	H	-0.848768	-0.877295	-0.494092
H65	H	-0.990900	-1.087195	-0.300802
C66	C	-0.366573	-0.504876	-0.291052
C67	C	-0.357773	-0.577829	-0.284094
H68	H	-0.324538	-0.483165	-0.257798
H69	H	-0.355145	-0.491512	-0.337304
H70	H	-0.426003	-0.490474	-0.282760
H71	H	-0.298344	-0.592231	-0.292391
H72	H	-0.369195	-0.591198	-0.237831
C73	C	-0.692377	-0.906112	-0.622484
C74	C	-0.634408	-0.867514	-0.660593
H75	H	-0.728652	-0.874904	-0.597903
H76	H	-0.729931	-0.933803	-0.653960
H77	H	-0.657859	-0.935797	-0.589735
H78	H	-0.668926	-0.837833	-0.693347
H79	H	-0.596850	-0.839811	-0.629114
C80	C	-0.557577	-0.845072	-1.182914
C81	C	-0.608815	-0.889462	-1.144737
H82	H	-0.596300	-0.811752	-1.208248
H83	H	-0.515432	-0.821332	-1.151391
H84	H	-0.526263	-0.872029	-1.215003
H85	H	-0.640124	-0.862506	-1.112645
H86	H	-0.650976	-0.913204	-1.176263
C87	C	-0.343566	-0.296595	-0.272872
C88	C	-0.393665	-0.244974	-0.312491
H89	H	-0.301526	-0.274877	-0.239626
H90	H	-0.383014	-0.324436	-0.248784
H91	H	-0.312167	-0.325475	-0.303337
H92	H	-0.425069	-0.216097	-0.282026
H93	H	-0.354211	-0.217122	-0.336579
H94	H	-0.849423	-1.046983	-0.337770
C95	C	-0.664816	-0.602050	-0.526926
C96	C	-0.609606	-0.558504	-0.483272
H97	H	-0.704199	-0.574088	-0.558056
H98	H	-0.628434	-0.631307	-0.553445
H99	H	-0.699268	-0.630278	-0.498881
H100	H	-0.575149	-0.530279	-0.511316
H101	H	-0.645991	-0.529234	-0.456751
C102	C	-1.156852	-1.161800	-0.313749
C103	C	-1.175251	-1.091990	-0.296503
H104	H	-1.188913	-1.192066	-0.285891
H105	H	-1.175138	-1.169297	-0.362166
H106	H	-1.094028	-1.171384	-0.304873
H107	H	-1.238075	-1.082404	-0.305383
H108	H	-1.156970	-1.084490	-0.248074
C109	C	-0.703824	-0.327698	-0.557829
C110	C	-0.653737	-0.379322	-0.518205
H111	H	-0.745856	-0.349413	-0.591082
H112	H	-0.735222	-0.298819	-0.527373
H113	H	-0.664360	-0.299858	-0.581914
H114	H	-0.693201	-0.407159	-0.494115
H115	H	-0.622338	-0.408214	-0.548665
H116	H	-1.161167	-0.909592	-0.464520
C117	C	-0.628954	-0.154647	-0.498613
C118	C	-0.645484	-0.225657	-0.511684
H119	H	-0.668316	-0.126689	-0.529762
H120	H	-0.639102	-0.144023	-0.451344
H121	H	-0.568233	-0.145070	-0.505880
H122	H	-0.706203	-0.235235	-0.504412
H123	H	-0.635343	-0.236285	-0.558964
H124	H	-0.418648	-1.053136	-0.668896
C125	C	-0.652084	-0.852229	-1.038664
C126	C	-0.601238	-0.895979	-0.990365
H127	H	-0.688354	-0.821010	-1.014093
H128	H	-0.612742	-0.826073	-1.064521
H129	H	-0.689650	-0.879935	-1.070128
H130	H	-0.563667	-0.868274	-0.958904
H131	H	-0.640585	-0.922137	-0.964496
H132	H	-0.382555	-0.719750	-0.303698
H133	H	-0.625708	-0.874972	-0.804345
C134	C	-1.125718	-0.860998	-0.509248
C135	C	-1.033050	-0.855421	-0.514339
H136	H	-1.157556	-0.827774	-0.539860
H137	H	-1.144133	-0.906927	-0.522276
H138	H	-1.138311	-0.852065	-0.462156
H139	H	-1.020456	-0.864359	-0.561431
H140	H	-1.014629	-0.809481	-0.501316
C141	C	-0.307072	-1.060549	-0.941577
C142	C	-0.369190	-1.095591	-0.988021
H143	H	-0.268313	-1.093854	-0.916255
H144	H	-0.272370	-1.030413	-0.967492
H145	H	-0.338407	-1.033622	-0.909478
H146	H	-0.337855	-1.122513	-1.020124
H147	H	-0.403895	-1.125738	-0.962104
H148	H	-0.425184	-1.047492	-0.802305
H149	H	-0.392033	-1.075979	-1.132070
