data_functionalizedCrystal
_audit_creation_method	'MofGen! by Chris Wilmer'
_symmetry_space_group_name_H-M	'P1'
_symmetry_Int_Tables_number	1
_symmetry_cell_setting	triclinic
loop_
_symmetry_equiv_pos_as_xyz
  x,y,z
_cell_length_a	17.077404
_cell_length_b	18.101397
_cell_length_c	17.077396
_cell_angle_alpha	90.031673
_cell_angle_beta	90.019501
_cell_angle_gamma	90.020691
loop_
_atom_site_label
_atom_site_type_symbol
_atom_site_fract_x
_atom_site_fract_y
_atom_site_fract_z
Zn1	Zn	1.200068	-0.294825	0.443825
Zn2	Zn	1.700068	0.205175	0.943825
Zn3	Zn	1.199980	-0.418674	0.312552
Zn4	Zn	1.699980	0.081326	0.812552
Zn5	Zn	1.068800	-0.294851	0.312573
Zn6	Zn	1.568800	0.205149	0.812573
Zn7	Zn	1.068773	-0.418630	0.443776
Zn8	Zn	1.568773	0.081370	0.943776
O9	O	1.134405	-0.356745	0.378182
O10	O	1.634405	0.143255	0.878182
O11	O	1.309903	-0.311261	0.426424
O12	O	1.809903	0.188739	0.926424
O13	O	1.182554	-0.402278	0.202708
O14	O	1.682554	0.097722	0.702708
O15	O	1.086260	-0.191215	0.330014
O16	O	1.586260	0.308785	0.830014
O17	O	1.309839	-0.402253	0.329978
O18	O	1.809839	0.097747	0.829978
O19	O	1.182702	-0.191196	0.426444
O20	O	1.682702	0.308804	0.926444
O21	O	1.086176	-0.311306	0.202723
O22	O	1.586176	0.188694	0.702723
O23	O	0.958949	-0.311263	0.329966
O24	O	1.458949	0.188737	0.829966
O25	O	1.086215	-0.402178	0.553629
O26	O	1.586215	0.097822	1.053629
O27	O	0.958930	-0.402203	0.426359
O28	O	1.458930	0.097797	0.926359
O29	O	1.182677	-0.311219	0.553666
O30	O	1.682677	0.188781	1.053666
O31	O	1.182528	-0.522301	0.329929
O32	O	1.682528	-0.022301	0.829929
O33	O	1.086130	-0.522269	0.426339
O34	O	1.586130	-0.022269	0.926339
C35	C	0.930457	-0.356732	0.378160
C36	C	1.430457	0.143268	0.878160
C37	C	0.843208	-0.356744	0.378169
C38	C	1.343208	0.143256	0.878169
C39	C	0.802228	-0.404167	0.428281
C40	C	1.302228	0.095833	0.928281
C41	C	0.720247	-0.404169	0.428294
C42	C	1.220247	0.095831	0.928294
C43	C	0.679248	-0.356750	0.378190
C44	C	1.179248	0.143250	0.878190
C45	C	0.720234	-0.309321	0.328076
C46	C	1.220234	0.190679	0.828076
C47	C	0.802213	-0.309316	0.328068
C48	C	1.302213	0.190684	0.828068
C49	C	0.549364	-0.309336	0.328095
C50	C	1.049364	0.190664	0.828095
C51	C	0.467379	-0.309341	0.328101
C52	C	0.967379	0.190659	0.828101
C53	C	0.467398	-0.404188	0.428320
C54	C	0.967398	0.095812	0.928320
C55	C	0.549377	-0.404184	0.428312
C56	C	1.049377	0.095816	0.928312
C57	C	0.590357	-0.356755	0.378197
C58	C	1.090357	0.143245	0.878197
C59	C	1.134338	-0.549156	0.378143
C60	C	1.634338	-0.049156	0.878143
C61	C	1.134381	-0.631470	0.378153
C62	C	1.634381	-0.131470	0.878153
C63	C	1.134481	-0.930561	0.378225
C64	C	1.634481	-0.430561	0.878225
C65	C	1.194963	-0.899225	0.317404
C66	C	1.694963	-0.399225	0.817404
C67	C	1.195172	-0.813606	0.317562
C68	C	1.695172	-0.313606	0.817562
C69	C	1.134432	-0.782178	0.378189
C70	C	1.634432	-0.282178	0.878189
C71	C	1.156857	-0.813184	0.460930
C72	C	1.656857	-0.313184	0.960930
C73	C	1.157325	-0.898829	0.460599
C74	C	1.657325	-0.398829	0.960599
C75	C	1.051413	-0.899070	0.357021
C76	C	1.551413	-0.399070	0.857021
C77	C	1.051823	-0.813421	0.355174
C78	C	1.551823	-0.313421	0.855174
C79	C	1.134402	-0.698319	0.378173
C80	C	1.634402	-0.198319	0.878173
C81	C	1.134513	-1.014420	0.378246
C82	C	1.634513	-0.514420	0.878246
C83	C	1.339150	-0.356759	0.378204
C84	C	1.839150	0.143241	0.878204
C85	C	1.426399	-0.356765	0.378213
C86	C	1.926399	0.143235	0.878213
C87	C	1.134453	-0.356690	0.582926
C88	C	1.634453	0.143310	1.082926
C89	C	1.134473	-0.356667	0.670176
C90	C	1.634473	0.143333	1.170176
C91	C	1.134494	-0.163583	0.378237
C92	C	1.634494	0.336417	0.878237
C93	C	1.134532	-0.081269	0.378261
C94	C	1.634532	0.418731	0.878261
C95	C	1.134403	-0.356746	0.174234
C96	C	1.634403	0.143254	0.674234
C97	C	1.134535	-0.356561	0.086984
C98	C	1.634535	0.143439	0.586984
C99	C	1.184702	-0.309301	0.711186
C100	C	1.684702	0.190699	1.211186
C101	C	1.184712	-0.309276	0.793167
C102	C	1.684712	0.190724	1.293167
C103	C	1.134495	-0.356622	0.834135
C104	C	1.634495	0.143378	1.334135
C105	C	1.084260	-0.403990	0.793119
C106	C	1.584260	0.096010	1.293119
C107	C	1.084248	-0.404011	0.711140
C108	C	1.584248	0.095989	1.211140
C109	C	1.084292	-0.403946	0.963989
C110	C	1.584292	0.096054	1.463989
C111	C	1.084306	-0.403927	1.045974
C112	C	1.584306	0.096073	1.545974
C113	C	1.184756	-0.309211	1.046016
C114	C	1.684756	0.190789	1.546016
C115	C	1.184743	-0.309232	0.964037
C116	C	1.684743	0.190768	1.464037
C117	C	1.134509	-0.356601	0.923026
C118	C	1.634509	0.143399	1.423026
H119	H	0.686846	-0.270709	0.287284
H120	H	1.186846	0.229291	0.787284
H121	H	0.835577	-0.270695	0.287266
H122	H	1.335577	0.229305	0.787266
H123	H	1.181142	-0.792646	0.256211
H124	H	1.681142	-0.292646	0.756211
O125	O	1.236559	-0.784875	0.484789
O126	O	1.736559	-0.284875	0.984789
H127	H	1.276649	-0.832346	0.493932
H128	H	1.776649	-0.332346	0.993932
O129	O	1.030104	-0.455031	0.919755
O130	O	1.530104	0.044969	1.419755
H131	H	1.043543	-0.513152	0.935467
H132	H	1.543543	-0.013152	1.435467
O133	O	1.030062	-0.455096	0.666911
O134	O	1.530062	0.044904	1.166911
H135	H	1.065161	-0.492787	0.629546
H136	H	1.565161	0.007213	1.129546
H137	H	1.181102	-0.919869	0.255869
H138	H	1.681102	-0.419869	0.755869
H139	H	0.582757	-0.442800	0.469107
H140	H	1.082757	0.057200	0.969107
O141	O	1.238872	-0.258239	0.667002
O142	O	1.738872	0.241761	1.167002
H143	H	1.203753	-0.220572	0.629650
H144	H	1.703753	0.279428	1.129650
O145	O	0.593567	-0.258182	0.274044
O146	O	1.093567	0.241818	0.774044
H147	H	0.630893	-0.291281	0.234046
H148	H	1.130893	0.208719	0.734046
O149	O	0.988912	-0.785095	0.409548
O150	O	1.488912	-0.285095	0.909548
H151	H	1.015662	-0.748146	0.454028
H152	H	1.515662	-0.248146	0.954028
H153	H	1.034914	-0.793163	0.294283
H154	H	1.534914	-0.293163	0.794283
O155	O	1.276031	-0.927644	0.335775
O156	O	1.776031	-0.427644	0.835775
H157	H	1.273434	-0.963989	0.388036
H158	H	1.773434	-0.463989	0.888036
O159	O	1.276676	-0.786382	0.336146
O160	O	1.776676	-0.286382	0.836146
H161	H	1.316093	-0.834390	0.345064
H162	H	1.816093	-0.334390	0.845064
O163	O	1.237751	-0.925225	0.484386
O164	O	1.737751	-0.425225	0.984386
H165	H	1.281802	-0.904024	0.442229
H166	H	1.781802	-0.404024	0.942229
H167	H	1.115203	-0.919555	0.507477
H168	H	1.615203	-0.419555	1.007477
H169	H	1.225616	-0.270708	0.826554
H170	H	1.725616	0.229292	1.326554
H171	H	1.114152	-0.792824	0.507465
H172	H	1.614152	-0.292824	1.007465
H173	H	0.835604	-0.442784	0.469079
H174	H	1.335604	0.057216	0.969079
O175	O	1.024388	-0.927748	0.278480
O176	O	1.524388	-0.427748	0.778480
H177	H	1.069867	-0.964770	0.253680
H178	H	1.569867	-0.464770	0.753680
O179	O	0.991680	-0.926061	0.415579
O180	O	1.491680	-0.426061	0.915579
H181	H	1.020966	-0.961712	0.459589
H182	H	1.520966	-0.461712	0.959589
O183	O	1.238907	-0.258172	0.919844
O184	O	1.738907	0.241828	1.419844
H185	H	1.273837	-0.225225	0.962132
H186	H	1.773837	0.274775	1.462132
H187	H	1.225657	-0.270640	1.079411
H188	H	1.725657	0.229360	1.579411
H189	H	1.043413	-0.442478	1.079328
H190	H	1.543413	0.057522	1.579328
O191	O	1.030090	-0.455051	0.837303
O192	O	1.530090	0.044949	1.337303
H193	H	1.065208	-0.492729	0.874644
H194	H	1.565208	0.007271	1.374644
O195	O	0.423141	-0.258221	0.274049
O196	O	0.923141	0.241779	0.774049
H197	H	0.385797	-0.220598	0.309250
H198	H	0.885797	0.279402	0.809250
H199	H	0.686885	-0.442787	0.469099
H200	H	1.186885	0.057213	0.969099
H201	H	0.434029	-0.442804	0.469128
H202	H	0.934029	0.057196	0.969128
