data_functionalizedCrystal
_audit_creation_method	'MofGen! by Chris Wilmer'
_symmetry_space_group_name_H-M	'P1'
_symmetry_Int_Tables_number	1
_symmetry_cell_setting	triclinic
loop_
_symmetry_equiv_pos_as_xyz
  x,y,z
_cell_length_a	27.732048
_cell_length_b	27.731993
_cell_length_c	14.750779
_cell_angle_alpha	102.543346
_cell_angle_beta	102.527950
_cell_angle_gamma	97.368478
loop_
_atom_site_label
_atom_site_type_symbol
_atom_site_fract_x
_atom_site_fract_y
_atom_site_fract_z
O1	O	-0.067924	0.630409	-0.079554
O2	O	-0.076704	0.489604	-0.079610
O3	O	-0.001918	0.564378	-0.079593
O4	O	-0.142710	0.555635	-0.079571
O5	O	0.019221	0.585515	0.080062
O6	O	-0.055565	0.510742	0.080045
O7	O	-0.046785	0.651546	0.080101
Zn8	Zn	-0.047819	0.584500	0.105422
Zn9	Zn	-0.075670	0.556650	-0.104931
O10	O	-0.121571	0.576773	0.080084
C11	C	-0.065956	0.482164	0.000210
C12	C	-0.065416	0.428505	0.000187
C13	C	-0.073002	0.033829	-0.086795
C14	C	-0.075073	0.235483	-0.086820
O15	O	-0.085121	0.251757	-0.160836
N16	N	-0.063809	0.272225	0.000206
C17	C	-0.052023	0.258552	0.087244
O18	O	-0.042485	0.294431	0.161265
C19	C	-0.049949	0.056899	0.087269
C20	C	-0.061219	0.020158	0.000237
C21	C	-0.084270	-0.002911	-0.173819
C22	C	-0.083755	-0.053322	-0.173812
C23	C	-0.071972	-0.066993	-0.086780
C24	C	-0.060704	-0.030253	0.000245
C25	C	-0.038161	0.043227	0.174307
C26	C	-0.037642	-0.007190	0.174305
C27	C	-0.048911	-0.043931	0.087274
C28	C	-0.048406	-0.094334	0.087284
N29	N	-0.059670	-0.131076	0.000258
C30	C	-0.071453	-0.117405	-0.086774
C31	C	-0.053114	0.364421	0.087225
C32	C	-0.053633	0.414834	0.087219
C33	C	-0.076682	0.391762	-0.086846
C34	C	-0.076166	0.341348	-0.086839
C35	C	-0.064378	0.327679	0.000199
C36	C	-0.070371	-0.223271	-0.086752
C37	C	-0.069857	-0.273685	-0.086737
C38	C	-0.046806	-0.250608	0.087327
C39	C	-0.047322	-0.200198	0.087313
C40	C	-0.059104	-0.186532	0.000265
O41	O	-0.038357	-0.110643	0.161261
O42	O	-0.080979	-0.153290	-0.160784
C43	C	-0.073517	0.084240	-0.086802
C44	C	-0.062249	0.120980	0.000223
C45	C	-0.050466	0.107309	0.087255
C46	C	-0.062768	0.171393	0.000217
C47	C	-0.074552	0.185063	-0.086815
C48	C	-0.085816	0.148321	-0.173841
C49	C	-0.085301	0.097910	-0.173834
C50	C	-0.039202	0.144051	0.174281
C51	C	-0.039719	0.194461	0.174266
C52	C	-0.051502	0.208132	0.087234
C53	C	-0.150147	0.566388	0.000260
C54	C	-0.203800	0.566942	0.000269
C55	C	-0.542632	0.526229	0.000207
C56	C	-0.744292	0.528278	0.000196
O57	O	-0.775563	0.491049	0.000139
N58	N	-0.763405	0.572617	0.000215
C59	C	-0.732100	0.616446	0.000231
O60	O	-0.752985	0.654205	0.000237
C61	C	-0.530441	0.614395	0.000234
C62	C	-0.511330	0.570054	0.000225
C63	C	-0.523521	0.481892	0.000196
C64	C	-0.473108	0.481380	0.000204
C65	C	-0.441806	0.525206	0.000222
C66	C	-0.460917	0.569543	0.000233
C67	C	-0.499137	0.658222	0.000243
C68	C	-0.448720	0.657705	0.000241
C69	C	-0.429610	0.613365	0.000232
C70	C	-0.379203	0.612858	0.000259
N71	N	-0.360090	0.568519	0.000240
C72	C	-0.391392	0.524693	0.000222
C73	C	-0.837974	0.617520	0.000231
C74	C	-0.888388	0.618033	0.000231
C75	C	-0.900577	0.529865	0.000195
C76	C	-0.850161	0.529353	0.000201
C77	C	-0.818861	0.573181	0.000211
C78	C	-0.285520	0.523623	0.000239
C79	C	-0.235102	0.523116	0.000251
C80	C	-0.222918	0.611283	0.000282
C81	C	-0.273331	0.611791	0.000275
C82	C	-0.304632	0.567956	0.000251
O83	O	-0.347905	0.650066	0.000305
O84	O	-0.370500	0.486937	0.000194
C85	C	-0.593045	0.526740	0.000199
C86	C	-0.612156	0.571077	0.000209
C87	C	-0.580854	0.614903	0.000228
C88	C	-0.662570	0.571590	0.000210
C89	C	-0.693872	0.527764	0.000192
C90	C	-0.674759	0.483425	0.000173
C91	C	-0.624346	0.482914	0.000180
C92	C	-0.599967	0.659242	0.000247
C93	C	-0.650380	0.659750	0.000240
C94	C	-0.681682	0.615924	0.000222
C95	C	0.026658	0.574762	0.000229
C96	C	0.080311	0.574207	0.000213
C97	C	-0.057533	0.658986	0.000279
C98	C	-0.058074	0.712644	0.000295
N99	N	-0.028810	0.603510	0.248982
N100	N	-0.094674	0.537644	-0.248491
C101	C	-0.147740	0.484551	0.600773
C102	C	-0.134424	0.497876	0.701275
C103	C	-0.068224	0.564101	0.701253
C104	C	-0.081534	0.550781	0.600748
C105	C	-0.121292	0.511006	0.550516
C106	C	-0.055086	0.577235	0.550492
C107	C	-0.068396	0.563917	0.449997
C108	C	-0.108154	0.524144	0.399758
C109	C	-0.134603	0.497687	0.450021
C110	C	-0.015330	0.617012	0.600726
C111	C	0.011118	0.643467	0.550470
C112	C	-0.002190	0.630146	0.449973
C113	C	-0.041948	0.590374	0.399733
C114	C	0.024258	0.656603	0.399709
C115	C	0.010948	0.643285	0.299214
C116	C	-0.055258	0.577056	0.299238
H117	H	-0.094478	0.067999	-0.244704
H118	H	-0.093865	0.008213	-0.244695
H119	H	-0.038155	-0.170283	0.158181
O120	O	-0.088157	0.404958	-0.171476
C121	C	-0.097973	0.361726	-0.248297
H122	H	-0.109539	0.327049	-0.222792
H123	H	-0.129655	0.364983	-0.309166
H124	H	-0.062665	0.358186	-0.275054
H125	H	0.056627	0.688992	0.440621
H126	H	-0.423238	0.693396	0.000245
O127	O	-0.906873	0.661144	0.000208
C128	C	-0.868426	0.699715	0.000246
H129	H	-0.838278	0.682420	-0.029983
H130	H	-0.884859	0.724559	-0.046097
H131	H	-0.851051	0.723356	0.076845
O132	O	-0.186299	0.445857	0.551928
C133	C	-0.168321	0.408536	0.493774
H134	H	-0.126194	0.412022	0.524051
H135	H	-0.188462	0.369815	0.492639
H136	H	-0.175768	0.413591	0.417609
O137	O	-0.097205	0.161553	-0.258447
C138	C	-0.062203	0.148023	-0.311391
H139	H	-0.044591	0.116626	-0.286653
H140	H	-0.082147	0.134449	-0.391008
H141	H	-0.031570	0.182050	-0.299326
O142	O	0.036541	0.668974	0.250240
C143	C	0.016257	0.648698	0.150769
H144	H	-0.024102	0.628485	0.137084
H145	H	0.016782	0.680297	0.112603
H146	H	0.039688	0.620919	0.122185
H147	H	-0.092930	-0.083233	-0.244682
H148	H	-0.079036	-0.303599	-0.157612
H149	H	-0.044464	0.444745	0.158090
H150	H	-0.665934	0.695861	0.000255
O151	O	-0.081852	-0.210089	-0.171395
C152	C	-0.091675	-0.253333	-0.248193
H153	H	-0.103232	-0.288000	-0.222654
H154	H	-0.123366	-0.250087	-0.309058
H155	H	-0.056373	-0.256879	-0.274968
H156	H	-0.288890	0.647898	0.000297
H157	H	-0.812492	0.653212	0.000241
O158	O	-0.121082	0.511294	0.302136
C159	C	-0.135042	0.552649	0.268556
H160	H	-0.117263	0.588878	0.326460
H161	H	-0.121455	0.553798	0.201313
H162	H	-0.177696	0.548711	0.250740
H163	H	-0.030545	0.224373	0.245144
H164	H	-0.085342	0.311436	-0.157708
H165	H	-0.043512	0.353299	0.158106
O166	O	-0.173162	0.458993	0.401176
C167	C	-0.155183	0.421672	0.343022
H168	H	-0.113056	0.425158	0.373299
H169	H	-0.175325	0.382952	0.341887
H170	H	-0.162630	0.426727	0.266858
H171	H	-0.028982	0.073135	0.245178
O172	O	-0.093850	0.538414	0.250285
C173	C	-0.099933	0.532342	0.150810
H174	H	-0.063192	0.548882	0.137078
H175	H	-0.110623	0.490635	0.112616
H176	H	-0.130901	0.552599	0.122296
O177	O	-0.605833	0.439805	-0.000006
C178	C	-0.632817	0.402165	-0.082693
H179	H	-0.650753	0.420452	-0.140475
H180	H	-0.606106	0.378151	-0.110456
H181	H	-0.663412	0.377456	-0.064012
O182	O	-0.026264	-0.020537	0.258796
C183	C	-0.067158	-0.054787	0.264037
H184	H	-0.091052	-0.074287	0.188480
H185	H	-0.052497	-0.084051	0.300878
H186	H	-0.090994	-0.033718	0.306989
O187	O	0.049793	0.682065	0.599167
C188	C	0.094336	0.671297	0.574616
H189	H	0.084477	0.642997	0.501648
H190	H	0.117950	0.707350	0.571175
H191	H	0.116598	0.654837	0.631171
O192	O	-0.192444	0.653804	0.000257
C193	C	-0.143847	0.643841	0.000281
H194	H	-0.146205	0.601882	-0.029952
H195	H	-0.126926	0.665657	-0.046065
H196	H	-0.119114	0.655928	0.076876
H197	H	-0.029604	0.132927	0.245154
H198	H	-0.037214	-0.261749	0.158187
O199	O	-0.216625	0.479993	0.000196
C200	C	-0.255065	0.441425	0.000198
H201	H	-0.293214	0.450714	-0.030027
H202	H	-0.250898	0.404308	-0.046165
H203	H	-0.252167	0.438065	0.076786
O204	O	-0.315953	0.481092	0.000347
C205	C	-0.334527	0.489690	0.083043
H206	H	-0.333147	0.531690	0.110619
H207	H	-0.375017	0.468924	0.064439
H208	H	-0.310438	0.475411	0.140940
H209	H	-0.700253	0.447742	0.000164
H210	H	-0.457554	0.445273	0.000188
H211	H	-0.549002	0.446201	0.000178
H212	H	-0.834604	0.493248	0.000197
O213	O	-0.160078	0.472241	0.750243
C214	C	-0.139798	0.492515	0.849715
H215	H	-0.119640	0.532899	0.863434
H216	H	-0.171384	0.491926	0.887919
H217	H	-0.111972	0.469115	0.878229
O218	O	-0.569497	0.701802	0.000394
C219	C	-0.529036	0.715100	0.083099
H220	H	-0.523124	0.680399	0.110650
H221	H	-0.493466	0.730941	0.064518
H222	H	-0.537800	0.744714	0.141007
H223	H	-0.514688	0.694329	0.000250
O224	O	-0.931064	0.487329	0.000127
C225	C	-0.979653	0.497299	0.000153
H226	H	-0.985292	0.531259	-0.030045
H227	H	-1.008845	0.463209	-0.046222
H228	H	-0.984115	0.505491	0.076745
H229	H	-0.035854	0.596488	0.742163
O230	O	-0.002309	0.629956	0.698348
C231	C	0.047950	0.624917	0.731909
H232	H	0.068827	0.627361	0.673984
H233	H	0.066907	0.656326	0.799134
H234	H	0.048757	0.586990	0.749747
