data_functionalizedCrystal
_audit_creation_method	'MofGen! by Chris Wilmer'
_symmetry_space_group_name_H-M	'P1'
_symmetry_Int_Tables_number	1
_symmetry_cell_setting	triclinic
loop_
_symmetry_equiv_pos_as_xyz
  x,y,z
_cell_length_a	17.038272
_cell_length_b	15.072220
_cell_length_c	15.995350
_cell_angle_alpha	89.991130
_cell_angle_beta	87.301965
_cell_angle_gamma	90.012145
loop_
_atom_site_label
_atom_site_type_symbol
_atom_site_fract_x
_atom_site_fract_y
_atom_site_fract_z
O1	O	-1.037399	0.073664	-0.181832
O2	O	-0.537399	0.573664	0.318168
O3	O	-0.809767	0.073691	-0.178945
O4	O	-0.309767	0.573691	0.321055
O5	O	-0.929805	0.073676	-0.058944
O6	O	-0.429805	0.573676	0.441056
O7	O	-0.917360	0.073679	-0.301833
O8	O	-0.417360	0.573679	0.198167
O9	O	-0.929821	-0.073889	-0.058922
O10	O	-0.429821	0.426111	0.441078
O11	O	-0.809782	-0.073875	-0.178923
O12	O	-0.309782	0.426125	0.321077
O13	O	-1.037414	-0.073901	-0.181810
O14	O	-0.537414	0.426099	0.318190
Zn15	Zn	-0.923601	-0.097317	-0.180363
Zn16	Zn	-0.423601	0.402683	0.319637
Zn17	Zn	-0.923580	0.097107	-0.180392
Zn18	Zn	-0.423580	0.597107	0.319608
O19	O	-0.917376	-0.073886	-0.301811
O20	O	-0.417376	0.426114	0.198189
C21	C	-0.780646	-0.000089	-0.176308
C22	C	-0.280646	0.499911	0.323692
C23	C	-0.693851	-0.000079	-0.168474
C24	C	-0.193851	0.499921	0.331526
C25	C	-0.929298	-0.000105	-0.027702
C26	C	-0.429298	0.499895	0.472298
C27	C	-0.927756	-0.000100	0.065359
C28	C	-0.427756	0.499900	0.565359
C29	C	-1.066535	-0.000120	-0.184447
C30	C	-0.566535	0.499880	0.315553
C31	C	-1.153330	-0.000124	-0.192281
C32	C	-0.653330	0.499876	0.307719
C33	C	-0.643755	-0.000078	-0.240402
C34	C	-0.143755	0.499922	0.259598
C35	C	-0.562202	-0.000091	-0.233036
C36	C	-0.062202	0.499909	0.266964
C37	C	-0.530748	-0.000097	-0.153741
C38	C	-0.030748	0.499903	0.346259
C39	C	-0.580851	-0.000100	-0.081807
C40	C	-0.080851	0.499900	0.418193
C41	C	-0.662402	-0.000094	-0.089174
C42	C	-0.162402	0.499906	0.410826
C43	C	-0.284984	-0.000121	-0.127714
C44	C	0.215016	0.499879	0.372286
C45	C	-0.203426	-0.000124	-0.120353
C46	C	0.296574	0.499876	0.379647
C47	C	-0.184783	-0.000117	-0.271583
C48	C	0.315217	0.499883	0.228417
C49	C	-0.266336	-0.000105	-0.278943
C50	C	0.233664	0.499895	0.221057
C51	C	-0.316432	-0.000113	-0.207009
C52	C	0.183568	0.499887	0.292991
C53	C	-0.447389	-0.000107	-0.146209
C54	C	0.052611	0.499893	0.353791
C55	C	-0.399790	-0.000110	-0.214541
C56	C	0.100210	0.499890	0.285459
N57	N	-0.923620	-0.230006	-0.180344
N58	N	-0.423620	0.269994	0.319656
N59	N	-0.923567	0.229795	-0.180405
N60	N	-0.423567	0.729795	0.319595
C61	C	-0.923602	0.588997	-0.180364
C62	C	-0.423602	1.088997	0.319636
C63	C	-0.859441	0.551398	-0.244653
C64	C	-0.359441	1.051398	0.255347
C65	C	-0.859203	0.448572	-0.244472
C66	C	-0.359203	0.948572	0.255528
C67	C	-0.923585	0.410793	-0.180385
C68	C	-0.423585	0.910793	0.319615
C69	C	-0.905981	0.448101	-0.091695
C70	C	-0.405981	0.948101	0.408305
C71	C	-0.905530	0.550959	-0.092054
C72	C	-0.405530	1.050959	0.407946
C73	C	-1.005557	0.551073	-0.203997
C74	C	-0.505557	1.051073	0.296003
C75	C	-1.005001	0.448209	-0.205956
C76	C	-0.505001	0.948209	0.294044
C77	C	-0.923577	0.310079	-0.180391
C78	C	-0.423577	0.810079	0.319609
C79	C	-0.923609	0.689710	-0.180351
C80	C	-0.423609	1.189710	0.319649
C81	C	-0.917883	-0.000103	-0.333053
C82	C	-0.417883	0.499897	0.166947
C83	C	-0.919425	-0.000103	-0.426114
C84	C	-0.419425	0.499897	0.073886
C85	C	-0.922217	-0.000102	0.403501
C86	C	-0.422217	0.499898	0.903501
C87	C	-0.836728	0.000239	0.362156
C88	C	-0.336728	0.500239	0.862156
C89	C	-0.838270	-0.000094	0.265356
C90	C	-0.338270	0.499906	0.765356
C91	C	-0.924964	-0.000100	0.235744
C92	C	-0.424964	0.499900	0.735744
C93	C	-0.967139	-0.084371	0.273831
C94	C	-0.467139	0.415629	0.773831
C95	C	-0.964992	-0.084441	0.370619
C96	C	-0.464992	0.415559	0.870619
C97	C	-0.966740	0.083368	0.370827
C98	C	-0.466740	0.583368	0.870827
C99	C	-0.966720	0.084482	0.273883
C100	C	-0.466720	0.584482	0.773883
C101	C	-0.926522	-0.000102	0.140936
C102	C	-0.426522	0.499898	0.640936
C103	C	-0.920662	-0.000106	0.498309
C104	C	-0.420662	0.499894	0.998309
H105	H	-0.669358	-0.000073	-0.304973
H106	H	-0.169358	0.499927	0.195027
H107	H	-0.521416	-0.000089	-0.291608
H108	H	-0.021416	0.499911	0.208392
H109	H	-0.934251	-0.147430	0.391120
H110	H	-0.434251	0.352570	0.891120
H111	H	-0.703190	-0.000093	-0.030601
H112	H	-0.203190	0.499907	0.469399
H113	H	-0.846902	0.422343	-0.071464
H114	H	-0.346902	0.922343	0.428536
H115	H	-0.935884	0.146822	0.248821
H116	H	-0.435884	0.646822	0.748821
H117	H	-0.143987	-0.000112	-0.330147
H118	H	0.356013	0.499888	0.169853
H119	H	-0.555235	-0.000117	-0.017242
H120	H	-0.055235	0.499883	0.482758
H121	H	-1.029771	0.083930	0.398098
H122	H	-0.529771	0.583930	0.898098
H123	H	-0.425404	-0.000109	-0.279103
H124	H	0.074596	0.499891	0.220897
H125	H	-0.421769	-0.000137	-0.081646
H126	H	0.078231	0.499863	0.418354
H127	H	-1.030831	-0.087509	0.255168
H128	H	-0.530831	0.412491	0.755168
H129	H	-0.869657	0.423349	-0.310204
H130	H	-0.369657	0.923349	0.189796
H131	H	-0.937859	-0.147077	0.247544
H132	H	-0.437859	0.352923	0.747544
H133	H	-0.869725	0.576149	-0.310584
H134	H	-0.369725	1.076149	0.189416
H135	H	-1.054965	0.422490	-0.162636
H136	H	-0.554965	0.922490	0.337364
H137	H	-0.798378	0.423976	-0.228752
H138	H	-0.298378	0.923976	0.271248
H139	H	-0.291940	-0.000090	-0.343514
H140	H	0.208060	0.499910	0.156486
H141	H	-0.177820	-0.000128	-0.055778
H142	H	0.322180	0.499872	0.444222
H143	H	-0.845767	0.574959	-0.072149
H144	H	-0.345767	1.074959	0.427851
H145	H	-0.938783	0.147239	0.393349
H146	H	-0.438783	0.647239	0.893349
H147	H	-0.950496	0.575829	-0.042466
H148	H	-0.450496	1.075829	0.457534
H149	H	-0.325762	-0.000128	-0.069140
H150	H	0.174238	0.499872	0.430860
H151	H	-0.798961	0.577255	-0.229115
H152	H	-0.298961	1.077255	0.270885
H153	H	-0.804909	-0.060598	0.239877
H154	H	-0.304909	0.439402	0.739877
H155	H	-0.951476	0.423627	-0.042459
H156	H	-0.451476	0.923627	0.457541
H157	H	-1.022528	0.577028	-0.267607
H158	H	-0.522528	1.077028	0.232393
H159	H	-1.018357	0.423841	-0.271236
H160	H	-0.518357	0.923841	0.228764
H161	H	-1.053302	0.575389	-0.157187
H162	H	-0.553302	1.075389	0.342813
H163	H	-1.029940	0.089565	0.254017
H164	H	-0.529940	0.589565	0.754017
H165	H	-0.805119	0.060314	0.239286
H166	H	-0.305119	0.560314	0.739286
H167	H	-0.802552	0.060671	0.383113
H168	H	-0.302552	0.560671	0.883113
H169	H	-0.802716	-0.059849	0.384182
H170	H	-0.302716	0.440151	0.884182
H171	H	-1.027757	-0.088269	0.398397
H172	H	-0.527757	0.411731	0.898397
