data_functionalizedCrystal
_audit_creation_method	'MofGen! by Chris Wilmer'
_symmetry_space_group_name_H-M	'P1'
_symmetry_Int_Tables_number	1
_symmetry_cell_setting	triclinic
loop_
_symmetry_equiv_pos_as_xyz
  x,y,z
_cell_length_a	25.639242
_cell_length_b	25.639239
_cell_length_c	15.296720
_cell_angle_alpha	99.638856
_cell_angle_beta	99.654082
_cell_angle_gamma	90.033587
loop_
_atom_site_label
_atom_site_type_symbol
_atom_site_fract_x
_atom_site_fract_y
_atom_site_fract_z
Zn1	Zn	0.748034	-0.259382	-0.510230
Zn2	Zn	0.763093	-0.331694	-0.359377
Zn3	Zn	0.675745	-0.244266	-0.359378
Zn4	Zn	0.660563	-0.346773	-0.510153
O5	O	0.711859	-0.295529	-0.434785
O6	O	0.823194	-0.268990	-0.490251
O7	O	0.764161	-0.307460	-0.233145
O8	O	0.685386	-0.173110	-0.379422
O9	O	0.834257	-0.322117	-0.379420
O10	O	0.738497	-0.184215	-0.490252
O11	O	0.699988	-0.243227	-0.233146
O12	O	0.600569	-0.257849	-0.379347
O13	O	0.659511	-0.347817	-0.636395
O14	O	0.589415	-0.333160	-0.490120
O15	O	0.723775	-0.283611	-0.636452
O16	O	0.749440	-0.406856	-0.379345
O17	O	0.674112	-0.417934	-0.490119
C18	C	0.576022	-0.295501	-0.434726
C19	C	0.517909	-0.295503	-0.434722
C20	C	0.272498	-0.256269	-0.377205
C21	C	0.327104	-0.256263	-0.377193
O22	O	0.360262	-0.222868	-0.328239
N23	N	0.348630	-0.295515	-0.434768
C24	C	0.315548	-0.334772	-0.492364
O25	O	0.338872	-0.368158	-0.541334
C26	C	0.260943	-0.334775	-0.492379
C27	C	0.239420	-0.295524	-0.434794
C28	C	0.250975	-0.217020	-0.319626
C29	C	0.196373	-0.217027	-0.319636
C30	C	0.163295	-0.256282	-0.377226
C31	C	0.184818	-0.295531	-0.434805
C32	C	0.227861	-0.374030	-0.549979
C33	C	0.173253	-0.374030	-0.549990
C34	C	0.151730	-0.334778	-0.492405
C35	C	0.097138	-0.334793	-0.492405
N36	N	0.075612	-0.295541	-0.434831
C37	C	0.108690	-0.256285	-0.377241
C38	C	0.430222	-0.334761	-0.492328
C39	C	0.484826	-0.334761	-0.492309
C40	C	0.496378	-0.256251	-0.377140
C41	C	0.441773	-0.256254	-0.377155
C42	C	0.408695	-0.295509	-0.434754
C43	C	-0.005978	-0.256303	-0.377267
C44	C	-0.060584	-0.256314	-0.377280
C45	C	-0.072132	-0.334822	-0.492452
C46	C	-0.017530	-0.334813	-0.492436
C47	C	0.015546	-0.295548	-0.434841
O48	O	0.063948	-0.368169	-0.541337
O49	O	0.085358	-0.222901	-0.328287
C50	C	0.711775	-0.431367	-0.434743
C51	C	0.711784	-0.489482	-0.434756
C52	C	0.751159	-0.844077	-0.377203
C53	C	0.751179	-0.898683	-0.377215
O54	O	0.784570	-0.922010	-0.328236
N55	N	0.711945	-0.931774	-0.434844
C56	C	0.672693	-0.910258	-0.492472
O57	O	0.639323	-0.943418	-0.541492
C58	C	0.672676	-0.855653	-0.492464
C59	C	0.711909	-0.822564	-0.434824
C60	C	0.790390	-0.810988	-0.319569
C61	C	0.790370	-0.756386	-0.319556
C62	C	0.751120	-0.734873	-0.377177
C63	C	0.711890	-0.767962	-0.434811
C64	C	0.633427	-0.834139	-0.550095
C65	C	0.633414	-0.779530	-0.550083
C66	C	0.672647	-0.746441	-0.492443
C67	C	0.672620	-0.691847	-0.492419
N68	N	0.711853	-0.658756	-0.434790
C69	C	0.751104	-0.680269	-0.377169
C70	C	0.672731	-1.024930	-0.492486
C71	C	0.672744	-1.079532	-0.492490
C72	C	0.751231	-1.067954	-0.377234
C73	C	0.751215	-1.013350	-0.377226
C74	C	0.711964	-0.991838	-0.434857
C75	C	0.751059	-0.565602	-0.377145
C76	C	0.751034	-0.510995	-0.377135
C77	C	0.672549	-0.522579	-0.492394
C78	C	0.672572	-0.577180	-0.492401
C79	C	0.711831	-0.598690	-0.434774
O80	O	0.639246	-0.668483	-0.541376
O81	O	0.784471	-0.647104	-0.328165
C82	C	0.848226	-0.295557	-0.434844
C83	C	0.906337	-0.295569	-0.434870
C84	C	0.688270	-0.319082	-0.670069
C85	C	0.678218	-0.329119	-0.770333
C86	C	0.711955	-0.159162	-0.434846
C87	C	0.711996	-0.101050	-0.434872
C88	C	0.783723	-0.223702	-1.053080
C89	C	0.793171	-0.214272	-0.958877
C90	C	0.764433	-0.242983	-0.911736
C91	C	0.726247	-0.281125	-0.958808
C92	C	0.716801	-0.290558	-1.053021
C93	C	0.697511	-0.309839	-0.911677
C94	C	0.659324	-0.347981	-0.958749
C95	C	0.649880	-0.357412	-1.052952
C96	C	0.678617	-0.328702	-1.100093
C97	C	0.706957	-0.300406	-0.817465
C98	C	0.640034	-0.367263	-0.817405
C99	C	0.630587	-0.376692	-0.911608
C100	C	0.735386	-0.272029	-0.200416
C101	C	0.745540	-0.261845	-0.100152
H102	H	0.020947	-0.224328	-0.330371
C103	C	0.172700	-0.173840	-0.256318
H104	H	0.135441	-0.179458	-0.264566
H105	H	0.180343	-0.140061	-0.269647
H106	H	0.187708	-0.175359	-0.195675
C107	C	0.668226	-0.339077	-1.203717
H108	H	0.641368	-0.365905	-1.225002
H109	H	0.699821	-0.350258	-1.225040
H110	H	0.657068	-0.307468	-1.225039
C111	C	0.608423	-0.398850	-0.765565
H112	H	0.584334	-0.422923	-0.807091
H113	H	0.589342	-0.375169	-0.728811
H114	H	0.632097	-0.417955	-0.728816
H115	H	0.502346	-0.366728	-0.539190
C116	C	0.588588	-0.418650	-0.963394
H117	H	0.587083	-0.420156	-1.026250
H118	H	0.555012	-0.409447	-0.947946
H119	H	0.597766	-0.452236	-0.947943
H120	H	0.783028	-0.583108	-0.330222
H121	H	0.807120	-0.200332	-1.091470
C122	C	0.287355	-0.173837	-0.256272
H123	H	0.322961	-0.179447	-0.264502
H124	H	0.284461	-0.175368	-0.195645
H125	H	0.277090	-0.140052	-0.269592
C126	C	-0.084257	-0.213134	-0.313939
H127	H	-0.056734	-0.189751	-0.279648
H128	H	-0.101630	-0.229157	-0.274574
H129	H	-0.109005	-0.193846	-0.348528
C130	C	0.532770	-0.213066	-0.313800
H131	H	0.568371	-0.218685	-0.322050
H132	H	0.529887	-0.214588	-0.253166
H133	H	0.522508	-0.179281	-0.327126
C134	C	0.833532	-0.719996	-0.256163
H135	H	0.856911	-0.740637	-0.221859
H136	H	0.817496	-0.694781	-0.216811
H137	H	0.852829	-0.702129	-0.290716
H138	H	0.618790	-0.388474	-1.091275
H139	H	0.403292	-0.366732	-0.539230
C140	C	0.418102	-0.213074	-0.313821
H141	H	0.445627	-0.189695	-0.279527
H142	H	0.400725	-0.229095	-0.274458
H143	H	0.393358	-0.193784	-0.348411
C144	C	0.251528	-0.417216	-0.613301
H145	H	0.288788	-0.411603	-0.605044
H146	H	0.236520	-0.415698	-0.673940
H147	H	0.243885	-0.450996	-0.599968
C148	C	0.136866	-0.417196	-0.613384
H149	H	0.157508	-0.440566	-0.647679
H150	H	0.111648	-0.401154	-0.652742
H151	H	0.119000	-0.436501	-0.578842
H152	H	0.738049	-0.269350	-0.779148
H153	H	0.783192	-1.085479	-0.330319
H154	H	-0.000005	-0.366778	-0.539319
H155	H	-0.099074	-0.366784	-0.539337
C156	C	0.794194	-0.474600	-0.313733
H157	H	0.817575	-0.495237	-0.279426
H158	H	0.778152	-0.449388	-0.274384
H159	H	0.813490	-0.456730	-0.348283
C160	C	0.833566	-0.834643	-0.256174
H161	H	0.856922	-0.807109	-0.221849
H162	H	0.852880	-0.859376	-0.290712
H163	H	0.817532	-0.852028	-0.216830
H164	H	0.783162	-0.986411	-0.330291
C165	C	0.774821	-0.232607	-0.808115
H166	H	0.801675	-0.205775	-0.786832
H167	H	0.785971	-0.264212	-0.786784
H168	H	0.743223	-0.221418	-0.786800
H169	H	0.640793	-1.106469	-0.539418
H170	H	0.640764	-1.007418	-0.539413
C171	C	0.590273	-0.870526	-0.613507
H172	H	0.566902	-0.849886	-0.647825
H173	H	0.570972	-0.888401	-0.578977
H174	H	0.606322	-0.895735	-0.652856
H175	H	0.601452	-0.762019	-0.597015
H176	H	0.640591	-0.505054	-0.539306
C177	C	0.629417	-0.613579	-0.555801
H178	H	0.606040	-0.592945	-0.590119
H179	H	0.610122	-0.631458	-0.521267
H180	H	0.645468	-0.638786	-0.595152
H181	H	0.824264	-0.183218	-0.920558
