data_functionalizedCrystal
_audit_creation_method	'MofGen! by Chris Wilmer'
_symmetry_space_group_name_H-M	'P1'
_symmetry_Int_Tables_number	1
_symmetry_cell_setting	triclinic
loop_
_symmetry_equiv_pos_as_xyz
  x,y,z
_cell_length_a	19.288840
_cell_length_b	15.538191
_cell_length_c	18.366186
_cell_angle_alpha	89.995484
_cell_angle_beta	89.983729
_cell_angle_gamma	65.199056
loop_
_atom_site_label
_atom_site_type_symbol
_atom_site_fract_x
_atom_site_fract_y
_atom_site_fract_z
O1	O	0.892003	0.117530	-0.060660
O2	O	1.392003	0.617530	0.439340
O3	O	0.685769	0.133424	-0.060634
O4	O	1.185769	0.633424	0.439366
O5	O	0.829031	-0.011828	-0.060656
O6	O	1.329031	0.488172	0.439344
O7	O	0.748741	0.262782	-0.060638
O8	O	1.248741	0.762782	0.439362
O9	O	0.829015	-0.011835	0.060444
O10	O	1.329015	0.488165	0.560444
O11	O	0.685753	0.133417	0.060466
O12	O	1.185753	0.633417	0.560466
O13	O	0.891987	0.117523	0.060439
O14	O	1.391987	0.617523	0.560439
Zn15	Zn	0.788867	0.125469	0.079679
Zn16	Zn	1.288867	0.625469	0.579679
Zn17	Zn	0.788889	0.125478	-0.079874
Zn18	Zn	1.288889	0.625478	0.420126
O19	O	0.748725	0.262775	0.060461
O20	O	1.248725	0.762775	0.560461
C21	C	0.660011	0.132913	-0.000081
C22	C	1.160011	0.632913	0.499919
C23	C	0.583287	0.131390	-0.000071
C24	C	1.083287	0.631390	0.499929
C25	C	0.547276	0.130662	-0.066084
C26	C	1.047276	0.630662	0.433916
C27	C	0.475189	0.129220	-0.066093
C28	C	0.975189	0.629220	0.433907
C29	C	0.439123	0.128487	-0.000085
C30	C	0.939123	0.628487	0.499915
C31	C	0.475142	0.129220	0.065936
C32	C	0.975142	0.629220	0.565936
C33	C	0.547224	0.130672	0.065944
C34	C	1.047224	0.630672	0.565944
C35	C	0.344162	0.070948	0.050472
C36	C	0.844162	0.570948	0.550472
C37	C	0.272084	0.069491	0.050462
C38	C	0.772084	0.569491	0.550462
C39	C	0.216797	0.124015	-0.000105
C40	C	0.716797	0.624015	0.499895
C41	C	0.233602	0.179984	-0.050674
C42	C	0.733602	0.679984	0.449326
C43	C	0.305684	0.181435	-0.050667
C44	C	0.805684	0.681435	0.449333
C45	C	0.360962	0.126914	-0.000086
C46	C	0.860962	0.626914	0.499914
C47	C	0.102620	0.121725	-0.066132
C48	C	0.602620	0.621725	0.433868
C49	C	0.030530	0.120288	-0.066139
C50	C	0.530530	0.620288	0.433861
C51	C	0.030488	0.120279	0.065893
C52	C	0.530488	0.620279	0.565893
C53	C	0.102573	0.121725	0.065898
C54	C	0.602573	0.621725	0.565898
C55	C	0.138637	0.122443	-0.000117
C56	C	0.638637	0.622443	0.499883
C57	C	0.837424	-0.046963	-0.000110
C58	C	1.337424	0.453037	0.499890
C59	C	0.862446	-0.151646	-0.000120
C60	C	1.362446	0.348354	0.499880
C61	C	0.613857	-0.438352	-0.000072
C62	C	1.113857	0.061648	0.499928
C63	C	0.637386	-0.536720	-0.000074
C64	C	1.137386	-0.036720	0.499926
C65	C	0.769736	-0.559741	-0.000091
C66	C	1.269736	-0.059741	0.499909
C67	C	0.746217	-0.461372	-0.000093
C68	C	1.246217	0.038628	0.499907
C69	C	0.668277	-0.400685	-0.000083
C70	C	1.168277	0.099315	0.499917
C71	C	0.800637	-0.423706	-0.000104
C72	C	1.300637	0.076294	0.499896
C73	C	0.777120	-0.325346	-0.000102
C74	C	1.277120	0.174654	0.499898
C75	C	0.699183	-0.264652	-0.000090
C76	C	1.199183	0.235348	0.499910
C77	C	0.644759	-0.302325	-0.000081
C78	C	1.144759	0.197675	0.499919
C79	C	0.878577	-0.484395	-0.000109
C80	C	1.378577	0.015605	0.499891
C81	C	0.932997	-0.446728	-0.000120
C82	C	1.432997	0.053272	0.499880
C83	C	0.909480	-0.348366	-0.000123
C84	C	1.409480	0.151634	0.499877
C85	C	0.831543	-0.287673	-0.000111
C86	C	1.331543	0.212327	0.499889
C87	C	0.963903	-0.310694	-0.000132
C88	C	1.463903	0.189306	0.499868
C89	C	0.940386	-0.212334	-0.000130
C90	C	1.440386	0.287666	0.499870
C91	C	0.808026	-0.189313	-0.000109
C92	C	1.308026	0.310687	0.499891
C93	C	0.917745	0.118034	-0.000116
C94	C	1.417745	0.618034	0.499884
C95	C	0.994469	0.119557	-0.000130
C96	C	1.494469	0.619557	0.499870
C97	C	0.740333	0.297910	-0.000087
C98	C	1.240333	0.797910	0.499913
C99	C	0.715310	0.402593	-0.000081
C100	C	1.215310	0.902593	0.499919
N101	N	0.788858	0.125462	0.188571
N102	N	1.288858	0.625462	0.688571
N103	N	0.788906	0.125478	-0.188765
N104	N	1.288906	0.625478	0.311235
C105	C	0.852302	0.061176	0.226661
C106	C	1.352302	0.561176	0.726661
C107	C	0.852307	0.061172	0.302889
C108	C	1.352307	0.561172	0.802889
C109	C	0.788871	0.125470	0.341023
C110	C	1.288871	0.625470	0.841023
C111	C	0.725417	0.189761	0.302923
C112	C	1.225417	0.689761	0.802923
C113	C	0.725411	0.189757	0.226697
C114	C	1.225411	0.689757	0.726697
C115	C	0.758107	0.211396	0.461790
C116	C	1.258107	0.711396	0.961790
C117	C	0.758119	0.211401	0.538015
C118	C	1.258119	0.711401	1.038015
C119	C	0.788888	0.125481	0.576131
C120	C	1.288888	0.625481	1.076131
C121	C	0.819662	0.039553	0.538013
C122	C	1.319662	0.539553	1.038013
C123	C	0.819655	0.039549	0.461786
C124	C	1.319655	0.539549	0.961786
C125	C	0.788871	0.125481	0.423678
C126	C	1.288871	0.625481	0.923678
C127	C	0.852342	0.061185	0.696876
C128	C	1.352342	0.561185	1.196876
C129	C	0.852343	0.061180	0.773106
C130	C	1.352343	0.561180	1.273106
C131	C	0.725454	0.189777	0.773139
C132	C	1.225454	0.689777	1.273139
C133	C	0.725452	0.189774	0.696911
C134	C	1.225452	0.689774	1.196911
C135	C	0.788899	0.125480	0.658784
C136	C	1.288899	0.625480	1.158784
H137	H	0.389174	0.026545	0.091653
H138	H	0.889174	0.526545	0.591653
O139	O	0.920764	-0.008168	0.655745
O140	O	1.420764	0.491832	1.155745
H141	H	0.964877	-0.052884	0.695042
H142	H	1.464877	0.447116	1.195042
O143	O	0.323811	0.241808	-0.105196
O144	O	0.823811	0.741808	0.394804
H145	H	0.273260	0.279487	-0.140358
H146	H	0.773260	0.779487	0.359642
O147	O	0.724900	0.304076	0.420686
O148	O	1.224900	0.804076	0.920686
H149	H	0.730052	0.289639	0.361278
H150	H	1.230052	0.789639	0.861278
O151	O	0.560694	-0.236861	-0.000075
O152	O	1.060694	0.263139	0.499925
H153	H	0.546809	-0.191495	0.049283
H154	H	1.046809	0.308505	0.549283
H155	H	0.673792	0.242126	0.665895
H156	H	1.173792	0.742126	1.165895
H157	H	0.844717	-0.030412	0.569045
H158	H	1.344717	0.469588	1.069045
O159	O	0.724943	0.304076	0.579127
O160	O	1.224943	0.804076	1.079127
H161	H	0.703536	0.363820	0.539818
H162	H	1.203536	0.863820	1.039818
H163	H	0.904006	0.008826	0.804120
H164	H	1.404006	0.508826	1.304120
O165	O	-0.008373	0.119536	0.137117
O166	O	0.491627	0.619536	0.637117
H167	H	-0.016914	0.184096	0.168731
H168	H	0.483086	0.684096	0.668731
H169	H	0.673766	0.242112	0.333976
H170	H	1.173766	0.742112	0.833976
H171	H	0.445772	0.128626	0.119681
H172	H	0.945772	0.628626	0.619681
O173	O	0.586062	0.131463	0.137151
O174	O	1.086062	0.631463	0.637151
H175	H	0.641306	0.067866	0.140314
H176	H	1.141306	0.567866	0.640314
H177	H	0.550390	-0.388936	-0.000069
H178	H	1.050390	0.111064	0.499931
H179	H	0.673746	0.242107	0.195683
H180	H	1.173746	0.742107	0.695683
O181	O	0.920743	-0.008167	0.343981
O182	O	1.420743	0.491833	0.843981
H183	H	0.910086	0.002637	0.403391
H184	H	1.410086	0.502637	0.903391
O185	O	0.253966	0.009125	0.105005
O186	O	0.753966	0.509125	0.605005
H187	H	0.239230	-0.043419	0.075697
H188	H	0.739230	0.456581	0.575697
O189	O	0.141417	0.122524	0.137098
O190	O	0.641417	0.622524	0.637098
H191	H	0.104230	0.121775	0.182997
H192	H	0.604230	0.621775	0.682997
H193	H	0.673802	0.242126	0.804187
H194	H	1.173802	0.742126	1.304187
H195	H	1.027362	-0.360119	-0.000133
H196	H	1.527362	0.139881	0.499867
O197	O	0.586170	0.131449	-0.137282
O198	O	1.086170	0.631449	0.362718
H199	H	0.549010	0.130709	-0.183188
H200	H	1.049010	0.630709	0.316812
O201	O	0.673810	-0.158562	-0.000080
O202	O	1.173810	0.341438	0.499920
H203	H	0.639040	-0.127655	-0.049429
H204	H	1.139040	0.372345	0.450571
O205	O	0.436340	0.128416	-0.137295
O206	O	0.936340	0.628416	0.362705
H207	H	0.473531	0.129149	-0.183197
H208	H	0.973531	0.629149	0.316803
O209	O	0.173980	0.238805	-0.105217
O210	O	0.673980	0.738805	0.394783
H211	H	0.121029	0.228407	-0.096722
H212	H	0.621029	0.728407	0.403278
O213	O	0.723961	-0.123846	-0.000096
O214	O	1.223961	0.376154	0.499904
H215	H	0.696744	-0.137204	-0.049448
H216	H	1.196744	0.362796	0.450552
O217	O	0.578688	-0.577351	-0.000069
O218	O	1.078688	-0.077351	0.499931
H219	H	0.520542	-0.518623	-0.000067
H220	H	1.020542	-0.018623	0.499933
H221	H	0.897722	-0.564485	-0.000117
H222	H	1.397722	-0.064485	0.499883
H223	H	0.131981	0.122319	-0.119885
H224	H	0.631981	0.622319	0.380115
H225	H	0.903963	0.008821	0.195621
H226	H	1.403963	0.508821	0.695621
H227	H	0.001208	0.119701	-0.119897
H228	H	0.501208	0.619701	0.380103
H229	H	0.833195	-0.609165	-0.000097
H230	H	1.333195	-0.109165	0.499903
H231	H	0.996456	-0.496153	-0.000125
H232	H	1.496456	0.003847	0.499875
H233	H	0.984701	-0.181665	-0.000138
H234	H	1.484701	0.318335	0.499862
O235	O	0.852832	-0.053122	0.420670
O236	O	1.352832	0.446878	0.920670
H237	H	0.874225	-0.112872	0.459974
H238	H	1.374225	0.387128	0.959974
