data_functionalizedCrystal
_audit_creation_method	'MofGen! by Chris Wilmer'
_symmetry_space_group_name_H-M	'P1'
_symmetry_Int_Tables_number	1
_symmetry_cell_setting	triclinic
loop_
_symmetry_equiv_pos_as_xyz
  x,y,z
_cell_length_a	16.109301
_cell_length_b	9.065215
_cell_length_c	8.140239
_cell_angle_alpha	90.000939
_cell_angle_beta	90.004566
_cell_angle_gamma	84.238089
loop_
_atom_site_label
_atom_site_type_symbol
_atom_site_fract_x
_atom_site_fract_y
_atom_site_fract_z
O1	O	0.121893	1.957448	0.136601
O2	O	0.131895	1.527921	0.136609
O3	O	0.005954	1.754484	0.136588
O4	O	0.247835	1.730885	0.136622
O5	O	0.005953	1.754477	-0.136639
O6	O	0.131894	1.527914	-0.136619
O7	O	0.121892	1.957441	-0.136626
Zn8	Zn	0.126893	1.742676	-0.180003
Zn9	Zn	0.126894	1.742686	0.179985
O10	O	0.247834	1.730878	-0.136606
C11	C	0.130934	1.472954	-0.000004
C12	C	0.128061	1.309180	-0.000002
C13	C	-0.025029	1.753525	-0.000027
C14	C	-0.117346	1.750659	-0.000029
C15	C	-0.338638	1.878433	-0.000005
C16	C	-0.425379	1.875729	0.000008
C17	C	-0.407568	1.606919	0.000007
C18	C	-0.320829	1.609625	0.000005
C19	C	-0.286366	1.745386	-0.000009
C20	C	-0.459847	1.739976	0.000006
C21	C	-0.553895	1.737043	0.000021
C22	C	-0.192311	1.748320	-0.000021
C23	C	0.278816	1.731838	0.000012
C24	C	0.371134	1.734703	0.000026
C25	C	0.122853	2.012408	-0.000010
C26	C	0.125726	2.176182	-0.000002
N27	N	0.126892	1.742681	-0.425686
N28	N	0.126889	1.742693	0.425668
H29	H	-0.310581	1.988978	-0.000014
H30	H	-0.435639	1.496387	0.000015
C31	C	-0.482874	2.022091	-0.000002
N32	N	-0.526180	2.132338	-0.000013
H33	H	-0.278267	1.501276	0.000006
