data_functionalizedCrystal
_audit_creation_method	'MofGen! by Chris Wilmer'
_symmetry_space_group_name_H-M	'P1'
_symmetry_Int_Tables_number	1
_symmetry_cell_setting	triclinic
loop_
_symmetry_equiv_pos_as_xyz
  x,y,z
_cell_length_a	12.759401
_cell_length_b	16.120484
_cell_length_c	16.120297
_cell_angle_alpha	95.614431
_cell_angle_beta	92.879989
_cell_angle_gamma	92.926992
loop_
_atom_site_label
_atom_site_type_symbol
_atom_site_fract_x
_atom_site_fract_y
_atom_site_fract_z
Zn1	Zn	1.552087	-0.356713	-0.489415
Zn2	Zn	1.551955	-0.489403	-0.356726
Zn3	Zn	1.385777	-0.349653	-0.349665
Zn4	Zn	1.366966	-0.496448	-0.496453
O5	O	1.464196	-0.423054	-0.423065
O6	O	1.699089	-0.374321	-0.471823
O7	O	1.537728	-0.464962	-0.238827
O8	O	1.415766	-0.233624	-0.362303
O9	O	1.698992	-0.471808	-0.374337
O10	O	1.537953	-0.238811	-0.464977
O11	O	1.415638	-0.362288	-0.233640
O12	O	1.236261	-0.369119	-0.369128
O13	O	1.383705	-0.483815	-0.612481
O14	O	1.222441	-0.476969	-0.476972
O15	O	1.519713	-0.381153	-0.607311
O16	O	1.519488	-0.607303	-0.381161
O17	O	1.383577	-0.612479	-0.483818
C18	C	1.191230	-0.423043	-0.423048
C19	C	1.074452	-0.423060	-0.423061
C20	C	1.012421	-0.479294	-0.479136
C21	C	0.902696	-0.479298	-0.479152
C22	C	0.917042	-0.366831	-0.367013
C23	C	1.026765	-0.366823	-0.367001
C24	C	1.449504	-0.640220	-0.434037
C25	C	1.443313	-0.733125	-0.438759
C26	C	1.432015	-0.903226	-0.447398
C27	C	1.496565	-0.942043	-0.398746
C28	C	1.490278	-1.036693	-0.403552
C29	C	1.438300	-0.808568	-0.442592
C30	C	1.738227	-0.423066	-0.423082
C31	C	1.855003	-0.423071	-0.423090
C32	C	1.449626	-0.434057	-0.641071
C33	C	1.443417	-0.438746	-0.733972
C34	C	1.478973	-0.205042	-0.412068
C35	C	1.485270	-0.112138	-0.407381
C36	C	1.432044	-0.447288	-0.904063
C37	C	1.496572	-0.398570	-0.942906
C38	C	1.490244	-0.403323	-1.037550
C39	C	1.438370	-0.442537	-0.809410
C40	C	1.478774	-0.412034	-0.205904
C41	C	1.485202	-0.407110	-0.112991
H42	H	1.051244	-0.525084	-0.524785
H43	H	1.556548	-0.904191	-0.353483
H44	H	1.556568	-0.353290	-0.905081
H45	H	0.878202	-0.321046	-0.321369
C46	C	0.834467	-0.541168	-0.540831
N47	N	0.783077	-0.587773	-0.587289
C48	C	1.095003	-0.304958	-0.305311
N49	N	1.146400	-0.258362	-0.258850
C50	C	1.350974	-0.954359	-0.508532
N51	N	1.289930	-0.992882	-0.554574
C52	C	1.350994	-0.508453	-0.955160
N53	N	1.289948	-0.554522	-0.993657
