data_functionalizedCrystal
_audit_creation_method	'MofGen! by Chris Wilmer'
_symmetry_space_group_name_H-M	'P1'
_symmetry_Int_Tables_number	1
_symmetry_cell_setting	triclinic
loop_
_symmetry_equiv_pos_as_xyz
  x,y,z
_cell_length_a	18.050589
_cell_length_b	18.215407
_cell_length_c	18.215399
_cell_angle_alpha	89.983140
_cell_angle_beta	90.023603
_cell_angle_gamma	89.975646
loop_
_atom_site_label
_atom_site_type_symbol
_atom_site_fract_x
_atom_site_fract_y
_atom_site_fract_z
Zn1	Zn	-0.295744	-1.125055	0.416080
Zn2	Zn	-0.045744	-0.875055	0.666080
Zn3	Zn	0.204256	-0.625055	0.916080
Zn4	Zn	0.454256	-0.375055	1.166080
Zn5	Zn	-0.419939	-1.124956	0.293023
Zn6	Zn	-0.169939	-0.874956	0.543023
Zn7	Zn	0.080061	-0.624956	0.793023
Zn8	Zn	0.330061	-0.374956	1.043023
Zn9	Zn	-0.295759	-1.001987	0.293033
Zn10	Zn	-0.045759	-0.751987	0.543033
Zn11	Zn	0.204241	-0.501987	0.793033
Zn12	Zn	0.454241	-0.251987	1.043033
Zn13	Zn	-0.419888	-1.001946	0.416054
Zn14	Zn	-0.169888	-0.751946	0.666054
Zn15	Zn	0.080112	-0.501946	0.916054
Zn16	Zn	0.330112	-0.251946	1.166054
O17	O	-0.357832	-1.063486	0.354547
O18	O	-0.107832	-0.813486	0.604547
O19	O	0.142168	-0.563486	0.854547
O20	O	0.392168	-0.313486	1.104547
O21	O	-0.312233	-1.228026	0.399762
O22	O	-0.062233	-0.978026	0.649762
O23	O	0.187767	-0.728026	0.899762
O24	O	0.437767	-0.478026	1.149762
O25	O	-0.403493	-1.108620	0.190040
O26	O	-0.153493	-0.858620	0.440040
O27	O	0.096507	-0.608620	0.690040
O28	O	0.346507	-0.358620	0.940040
O29	O	-0.191832	-1.018371	0.309371
O30	O	0.058168	-0.768371	0.559371
O31	O	0.308168	-0.518371	0.809371
O32	O	0.558168	-0.268371	1.059371
O33	O	-0.403479	-1.227953	0.309353
O34	O	-0.153479	-0.977953	0.559353
O35	O	0.096521	-0.727953	0.809353
O36	O	0.346521	-0.477953	1.059353
O37	O	-0.191821	-1.108788	0.399773
O38	O	0.058179	-0.858788	0.649773
O39	O	0.308179	-0.608788	0.899773
O40	O	0.558179	-0.358788	1.149773
O41	O	-0.312259	-1.018275	0.190048
O42	O	-0.062259	-0.768275	0.440048
O43	O	0.187741	-0.518275	0.690048
O44	O	0.437741	-0.268275	0.940048
O45	O	-0.312210	-0.898998	0.309346
O46	O	-0.062210	-0.648998	0.559346
O47	O	0.187790	-0.398998	0.809346
O48	O	0.437790	-0.148998	1.059346
O49	O	-0.403393	-1.018301	0.519042
O50	O	-0.153393	-0.768301	0.769042
O51	O	0.096607	-0.518301	1.019042
O52	O	0.346607	-0.268301	1.269042
O53	O	-0.403407	-0.898967	0.399729
O54	O	-0.153407	-0.648967	0.649729
O55	O	0.096593	-0.398967	0.899729
O56	O	0.346593	-0.148967	1.149729
O57	O	-0.312184	-1.108748	0.519061
O58	O	-0.062184	-0.858748	0.769061
O59	O	0.187816	-0.608748	1.019061
O60	O	0.437816	-0.358748	1.269061
O61	O	-0.523857	-1.108580	0.309328
O62	O	-0.273857	-0.858580	0.559328
O63	O	-0.023857	-0.608580	0.809328
O64	O	0.226143	-0.358580	1.059328
O65	O	-0.523819	-1.018205	0.399718
O66	O	-0.273819	-0.768205	0.649718
O67	O	-0.023819	-0.518205	0.899718
O68	O	0.226181	-0.268205	1.149718
C69	C	-0.357805	-0.872280	0.354536
C70	C	-0.107805	-0.622280	0.604536
C71	C	0.142195	-0.372280	0.854536
C72	C	0.392195	-0.122280	1.104536
C73	C	-0.357811	-0.790481	0.354549
C74	C	-0.107811	-0.540481	0.604549
C75	C	0.142189	-0.290481	0.854549
C76	C	0.392189	-0.040481	1.104549
C77	C	-0.405384	-0.525427	0.401546
C78	C	-0.155384	-0.275427	0.651546
C79	C	0.094616	-0.025427	0.901546
C80	C	0.344616	0.224573	1.151546
C81	C	-0.405380	-0.602286	0.401542
C82	C	-0.155380	-0.352286	0.651542
C83	C	0.094620	-0.102286	0.901542
C84	C	0.344620	0.147714	1.151542
C85	C	-0.310274	-0.602287	0.307563
C86	C	-0.060274	-0.352287	0.557563
C87	C	0.189726	-0.102287	0.807563
C88	C	0.439726	0.147713	1.057563
C89	C	-0.310283	-0.525429	0.307563
C90	C	-0.060283	-0.275429	0.557563
C91	C	0.189717	-0.025429	0.807563
C92	C	0.439717	0.224571	1.057563
C93	C	-0.357837	-0.487001	0.354559
C94	C	-0.107837	-0.237001	0.604559
C95	C	0.142163	0.012999	0.854559
C96	C	0.392163	0.262999	1.104559
C97	C	-0.357823	-0.640717	0.354555
C98	C	-0.107823	-0.390717	0.604555
C99	C	0.142177	-0.140717	0.854555
C100	C	0.392177	0.109283	1.104555
C101	C	-0.357818	-0.724051	0.354551
C102	C	-0.107818	-0.474051	0.604551
C103	C	0.142182	-0.224051	0.854551
C104	C	0.392182	0.025949	1.104551
C105	C	-0.357843	-0.403662	0.354562
C106	C	-0.107843	-0.153662	0.604562
C107	C	0.142157	0.096338	0.854562
C108	C	0.392157	0.346338	1.104562
C109	C	-0.550784	-1.063397	0.354535
C110	C	-0.300784	-0.813397	0.604535
C111	C	-0.050784	-0.563397	0.854535
C112	C	0.199216	-0.313397	1.104535
C113	C	-0.633330	-1.063427	0.354555
C114	C	-0.383330	-0.813427	0.604555
C115	C	-0.133330	-0.563427	0.854555
C116	C	0.116670	-0.313427	1.104555
C117	C	-0.832788	-1.014329	0.403692
C118	C	-0.582788	-0.764329	0.653692
C119	C	-0.332788	-0.514329	0.903692
C120	C	-0.082788	-0.264329	1.153692
C121	C	-0.882227	-0.996389	0.336539
C122	C	-0.632227	-0.746389	0.586539
C123	C	-0.382227	-0.496389	0.836539
C124	C	-0.132227	-0.246389	1.086539
C125	C	-0.784461	-1.063499	0.354564
C126	C	-0.534461	-0.813499	0.604564
C127	C	-0.284461	-0.563499	0.854564
C128	C	-0.034461	-0.313499	1.104564
C129	C	-0.882103	-1.081475	0.421725
C130	C	-0.632103	-0.831475	0.671725
C131	C	-0.382103	-0.581475	0.921725
C132	C	-0.132103	-0.331475	1.171725
C133	C	-0.930446	-1.063567	0.354579
C134	C	-0.680446	-0.813567	0.604579
C135	C	-0.430446	-0.563567	0.854579
C136	C	-0.180446	-0.313567	1.104579
C137	C	-0.832812	-1.045524	0.287375
C138	C	-0.582812	-0.795524	0.537375
C139	C	-0.332812	-0.545524	0.787375
C140	C	-0.082812	-0.295524	1.037375
C141	C	-0.832684	-1.130641	0.372607
C142	C	-0.582684	-0.880641	0.622607
C143	C	-0.332684	-0.630641	0.872607
C144	C	-0.082684	-0.380641	1.122607
C145	C	-0.882101	-1.112726	0.305408
C146	C	-0.632101	-0.862726	0.555408
C147	C	-0.382101	-0.612726	0.805408
C148	C	-0.132101	-0.362726	1.055408
C149	C	-0.700362	-1.063458	0.354556
C150	C	-0.450362	-0.813458	0.604556
C151	C	-0.200362	-0.563458	0.854556
C152	C	0.049638	-0.313458	1.104556
C153	C	-1.014542	-1.063609	0.354580
C154	C	-0.764542	-0.813609	0.604580
C155	C	-0.514542	-0.563609	0.854580
C156	C	-0.264542	-0.313609	1.104580
C157	C	-0.164127	-1.063595	0.354576
C158	C	0.085873	-0.813595	0.604576
C159	C	0.335873	-0.563595	0.854576
C160	C	0.585873	-0.313595	1.104576
C161	C	-0.081581	-1.063642	0.354588
C162	C	0.168419	-0.813642	0.604588
C163	C	0.418419	-0.563642	0.854588
C164	C	0.668419	-0.313642	1.104588
C165	C	-0.357781	-1.063531	0.546500
C166	C	-0.107781	-0.813531	0.796500
C167	C	0.142219	-0.563531	1.046500
C168	C	0.392219	-0.313531	1.296500
C169	C	-0.357759	-1.063550	0.628299
C170	C	-0.107759	-0.813550	0.878299
C171	C	0.142241	-0.563550	1.128299
C172	C	0.392241	-0.313550	1.378299
C173	C	-0.357854	-0.255439	0.354559
C174	C	-0.107854	-0.005439	0.604559
C175	C	0.142146	0.244561	0.854559
C176	C	0.392146	0.494561	1.104559
C177	C	-0.357849	-0.337238	0.354565
C178	C	-0.107849	-0.087238	0.604565
C179	C	0.142151	0.162762	0.854565
C180	C	0.392151	0.412762	1.104565
C181	C	-0.357830	-1.063484	0.163341
C182	C	-0.107830	-0.813484	0.413341
C183	C	0.142170	-0.563484	0.663341
C184	C	0.392170	-0.313484	0.913341
C185	C	-0.357642	-1.063607	0.081543
C186	C	-0.107642	-0.813607	0.331543
C187	C	0.142358	-0.563607	0.581543
C188	C	0.392358	-0.313607	0.831543
C189	C	-0.310223	-1.110663	0.816504
C190	C	-0.060223	-0.860663	1.066504
C191	C	0.189777	-0.610663	1.316504
C192	C	0.439777	-0.360663	1.566504
C193	C	-0.310201	-1.110672	0.893363
C194	C	-0.060201	-0.860672	1.143363
C195	C	0.189799	-0.610672	1.393363
C196	C	0.439799	-0.360672	1.643363
C197	C	-0.405181	-1.016489	0.893332
C198	C	-0.155181	-0.766489	1.143332
C199	C	0.094819	-0.516489	1.393332
C200	C	0.344819	-0.266489	1.643332
C201	C	-0.405198	-1.016477	0.816475
C202	C	-0.155198	-0.766477	1.066475
C203	C	0.094802	-0.516477	1.316475
C204	C	0.344802	-0.266477	1.566475
C205	C	-0.357720	-1.063568	0.778063
C206	C	-0.107720	-0.813568	1.028063
C207	C	0.142280	-0.563568	1.278063
C208	C	0.392280	-0.313568	1.528063
C209	C	-0.357681	-1.063589	0.931779
C210	C	-0.107681	-0.813589	1.181779
C211	C	0.142319	-0.563589	1.431779
C212	C	0.392319	-0.313589	1.681779
C213	C	-0.357658	-1.063598	1.015113
C214	C	-0.107658	-0.813598	1.265113
C215	C	0.142342	-0.563598	1.515113
C216	C	0.392342	-0.313598	1.765113
C217	C	-0.357742	-1.063558	0.694724
C218	C	-0.107742	-0.813558	0.944724
C219	C	0.142258	-0.563558	1.194724
C220	C	0.392258	-0.313558	1.444724
H221	H	-0.444106	-0.494141	0.439812
H222	H	-0.194106	-0.244141	0.689812
H223	H	0.055894	0.005859	0.939812
H224	H	0.305894	0.255859	1.189812
H225	H	-0.443876	-0.978122	0.785175
H226	H	-0.193876	-0.728122	1.035175
H227	H	0.056124	-0.478122	1.285175
H228	H	0.306124	-0.228122	1.535175
H229	H	-0.444098	-0.633568	0.439802
H230	H	-0.194098	-0.383568	0.689802
H231	H	0.055902	-0.133568	0.939802
H232	H	0.305902	0.116432	1.189802
H233	H	-0.811134	-0.972687	0.445179
H234	H	-0.561134	-0.722687	0.695179
H235	H	-0.311134	-0.472687	0.945179
H236	H	-0.061134	-0.222687	1.195179
H237	H	-0.271556	-0.633584	0.269302
H238	H	-0.021556	-0.383584	0.519302
H239	H	0.228444	-0.133584	0.769302
H240	H	0.478444	0.116416	1.019302
H241	H	-0.271563	-0.494142	0.269298
H242	H	-0.021563	-0.244142	0.519298
H243	H	0.228437	0.005858	0.769298
H244	H	0.478437	0.255858	1.019298
H245	H	-0.443838	-0.978151	0.924617
H246	H	-0.193838	-0.728151	1.174617
H247	H	0.056162	-0.478151	1.424617
H248	H	0.306162	-0.228151	1.674617
H249	H	-0.810909	-1.187375	0.387887
H250	H	-0.560909	-0.937375	0.637887
H251	H	-0.310909	-0.687375	0.887887
H252	H	-0.060909	-0.437375	1.137887
H253	H	-0.904004	-0.939642	0.321291
H254	H	-0.654004	-0.689642	0.571291
H255	H	-0.404004	-0.439642	0.821291
H256	H	-0.154004	-0.189642	1.071291
H257	H	-0.811250	-1.030281	0.230569
H258	H	-0.561250	-0.780281	0.480569
H259	H	-0.311250	-0.530281	0.730569
H260	H	-0.061250	-0.280281	0.980569
H261	H	-0.903618	-1.154337	0.263821
H262	H	-0.653618	-0.904337	0.513821
H263	H	-0.403618	-0.654337	0.763821
H264	H	-0.153618	-0.404337	1.013821
H265	H	-0.903755	-1.096652	0.478516
H266	H	-0.653755	-0.846652	0.728516
H267	H	-0.403755	-0.596652	0.978516
H268	H	-0.153755	-0.346652	1.228516
H269	H	-0.271561	-1.149006	0.785232
H270	H	-0.021561	-0.899006	1.035232
H271	H	0.228439	-0.649006	1.285232
H272	H	0.478439	-0.399006	1.535232
H273	H	-0.271523	-1.149020	0.924659
H274	H	-0.021523	-0.899020	1.174659
H275	H	0.228477	-0.649020	1.424659
H276	H	0.478477	-0.399020	1.674659
