data_functionalizedCrystal
_audit_creation_method	'MofGen! by Chris Wilmer'
_symmetry_space_group_name_H-M	'P1'
_symmetry_Int_Tables_number	1
_symmetry_cell_setting	triclinic
loop_
_symmetry_equiv_pos_as_xyz
  x,y,z
_cell_length_a	12.837932
_cell_length_b	12.837942
_cell_length_c	11.892095
_cell_angle_alpha	94.302569
_cell_angle_beta	85.688545
_cell_angle_gamma	94.829322
loop_
_atom_site_label
_atom_site_type_symbol
_atom_site_fract_x
_atom_site_fract_y
_atom_site_fract_z
O1	O	1.408370	0.266118	-0.094005
O2	O	1.105236	0.252673	-0.094007
O3	O	1.250081	0.107829	-0.093999
O4	O	1.263525	0.410962	-0.094013
O5	O	1.238002	0.119885	0.094008
O6	O	1.093157	0.264729	0.094000
O7	O	1.396291	0.278175	0.094002
Zn8	Zn	1.242807	0.273366	0.123851
Zn9	Zn	1.258721	0.257481	-0.123856
O10	O	1.251446	0.423018	0.093994
C11	C	1.060128	0.254159	-0.000004
C12	C	0.943712	0.240614	-0.000004
C13	C	0.782686	0.127402	0.000003
C14	C	0.892069	0.140122	0.000002
C15	C	0.885965	0.328393	-0.000006
C16	C	0.776583	0.315673	-0.000005
C17	C	0.724947	0.215174	-0.000002
C18	C	0.615563	0.202454	-0.000009
C19	C	0.609461	0.390725	-0.000009
C20	C	0.718844	0.403445	-0.000010
C21	C	1.239500	0.074788	0.000004
C22	C	1.225956	-0.041627	0.000002
C23	C	1.388787	-0.266502	-0.000021
C24	C	1.376066	-0.375884	-0.000023
C25	C	1.187794	-0.369778	-0.000012
C26	C	1.200515	-0.260395	-0.000010
C27	C	1.301015	-0.208761	-0.000013
C28	C	1.313734	-0.099376	-0.000003
C29	C	1.125464	-0.093271	-0.000000
C30	C	1.112743	-0.202654	-0.000002
C31	C	1.441400	0.276688	-0.000004
C32	C	1.557816	0.290233	-0.000011
C33	C	1.262027	0.456059	-0.000011
C34	C	1.275572	0.572474	-0.000017
N35	N	1.231953	0.284207	0.292904
N36	N	1.269582	0.246633	-0.292910
C37	C	1.345101	0.171137	0.529558
C38	C	1.337523	0.178723	0.647900
C39	C	1.209213	0.306959	0.647931
C40	C	1.216791	0.299373	0.529590
C41	C	1.284739	0.231461	0.470407
C42	C	1.292322	0.223881	0.352064
C43	C	1.164008	0.352110	0.352097
C44	C	1.156429	0.359696	0.470439
H45	H	0.928025	0.410215	0.000002
O46	O	0.774537	0.511837	-0.000017
H47	H	0.860299	0.505938	-0.000023
H48	H	0.573523	0.120623	-0.000011
O49	O	1.083160	0.432954	0.534276
H50	H	1.001684	0.410064	0.511592
H51	H	1.114860	0.401233	0.303923
H52	H	1.153885	0.362243	0.696133
O53	O	1.497175	-0.210799	-0.000026
H54	H	1.556074	-0.269328	-0.000036
H55	H	1.447540	-0.422893	-0.000033
O56	O	1.079411	-0.425491	-0.000014
H57	H	1.041635	-0.407952	-0.076645
H58	H	1.400434	0.115849	0.481371
O59	O	1.030783	-0.030995	0.000022
H60	H	0.988110	-0.055436	-0.076596
O61	O	1.365596	0.150631	0.288223
H62	H	1.406286	0.109949	0.349242
H63	H	1.030919	-0.244710	-0.000005
H64	H	0.562438	0.462195	-0.000014
O65	O	1.402643	0.113671	0.711696
H66	H	1.382709	0.029282	0.688981
O67	O	0.726982	0.019015	0.000007
H68	H	0.785509	-0.039884	0.000015
O69	O	1.422128	-0.043684	-0.000022
H70	H	1.459918	-0.061240	0.076593
O71	O	0.954350	0.045456	0.000005
H72	H	0.900064	-0.026561	0.000000
