data_functionalizedCrystal
_audit_creation_method	'MofGen! by Chris Wilmer'
_symmetry_space_group_name_H-M	'P1'
_symmetry_Int_Tables_number	1
_symmetry_cell_setting	triclinic
loop_
_symmetry_equiv_pos_as_xyz
  x,y,z
_cell_length_a	14.853567
_cell_length_b	9.065218
_cell_length_c	7.540329
_cell_angle_alpha	90.001757
_cell_angle_beta	89.999988
_cell_angle_gamma	84.325408
loop_
_atom_site_label
_atom_site_type_symbol
_atom_site_fract_x
_atom_site_fract_y
_atom_site_fract_z
O1	O	-1.197788	-0.192614	-0.147353
O2	O	-0.697788	0.307386	0.352647
O3	O	-0.935499	-0.215559	-0.147382
O4	O	-0.435499	0.284441	0.352618
O5	O	-1.072065	0.010663	-0.147363
O6	O	-0.572065	0.510663	0.352637
O7	O	-1.061222	-0.418836	-0.147372
O8	O	-0.561222	0.081164	0.352628
O9	O	-1.072057	0.010666	0.147602
O10	O	-0.572057	0.510666	0.647602
O11	O	-0.935490	-0.215556	0.147583
O12	O	-0.435490	0.284444	0.647583
O13	O	-1.197780	-0.192611	0.147612
O14	O	-0.697780	0.307389	0.647612
Cu15	Cu	-1.066634	-0.204084	0.174530
Cu16	Cu	-0.566634	0.295916	0.674530
Cu17	Cu	-1.066644	-0.204087	-0.174300
Cu18	Cu	-0.566644	0.295913	0.325700
O19	O	-1.061214	-0.418834	0.147593
O20	O	-0.561214	0.081166	0.647593
C21	C	-0.901898	-0.214518	0.000096
C22	C	-0.401898	0.285482	0.500096
C23	C	-0.801791	-0.211403	0.000085
C24	C	-0.301791	0.288597	0.500085
C25	C	-1.071019	0.065631	0.000116
C26	C	-0.571019	0.565631	0.500116
C27	C	-1.067903	0.229412	0.000107
C28	C	-0.567903	0.729412	0.500107
C29	C	-1.231381	-0.193652	0.000130
C30	C	-0.731381	0.306348	0.500130
C31	C	-1.331487	-0.196768	0.000130
C32	C	-0.831487	0.303232	0.500130
C33	C	-0.388166	-0.063852	0.000128
C34	C	0.111834	0.436148	0.500128
C35	C	-0.368873	-0.332609	0.000121
C36	C	0.131127	0.167391	0.500121
C37	C	-0.462929	-0.335539	0.000115
C38	C	0.037071	0.164461	0.500115
C39	C	-0.519607	-0.202622	0.000113
C40	C	-0.019607	0.297378	0.500113
C41	C	-0.482230	-0.066777	0.000116
C42	C	0.017770	0.433223	0.500116
C43	C	-0.500313	-0.471382	0.000093
C44	C	-0.000313	0.028618	0.500093
C45	C	-0.594374	-0.474316	0.000085
C46	C	-0.094374	0.025684	0.500085
C47	C	-0.651054	-0.341399	0.000096
C48	C	-0.151054	0.158601	0.500096
C49	C	-0.613672	-0.205548	0.000102
C50	C	-0.113672	0.294452	0.500102
C51	C	-0.670350	-0.072632	0.000100
C52	C	-0.170350	0.427368	0.500100
C53	C	-0.632969	0.063221	0.000118
C54	C	-0.132969	0.563221	0.500118
C55	C	-0.538910	0.066141	0.000127
C56	C	-0.038910	0.566141	0.500127
C57	C	-0.745113	-0.344319	0.000087
C58	C	-0.245113	0.155681	0.500087
C59	C	-0.764414	-0.075557	0.000089
C60	C	-0.264414	0.424443	0.500089
C61	C	-1.062260	-0.473801	0.000110
C62	C	-0.562260	0.026199	0.500110
C63	C	-1.065376	-0.637582	0.000107
C64	C	-0.565376	-0.137582	0.500107
N65	N	-1.066634	-0.204080	0.419879
N66	N	-0.566634	0.295920	0.919879
N67	N	-1.066652	-0.204078	-0.419649
N68	N	-0.566652	0.295922	0.080351
H69	H	-0.810556	0.032681	0.000094
H70	H	-0.310556	0.532681	0.500094
H71	H	-0.679129	0.171441	0.000104
H72	H	-0.179129	0.671441	0.500104
H73	H	-0.454159	-0.579594	0.000076
H74	H	0.045841	-0.079594	0.500076
H75	H	-0.624801	-0.584935	0.000070
H76	H	-0.124801	-0.084935	0.500070
H77	H	-0.508466	0.176745	0.000184
H78	H	-0.008466	0.676745	0.500184
C79	C	-0.359249	-0.598558	0.000096
C80	C	0.140751	-0.098558	0.500096
C81	C	-0.306577	-0.478706	0.000107
C82	C	0.193423	0.021294	0.500107
H83	H	-0.320785	-0.688755	0.000076
H84	H	0.179215	-0.188755	0.500076
H85	H	-0.396333	-0.594114	0.102954
H86	H	0.103667	-0.094114	0.602954
H87	H	-0.396342	-0.594098	-0.102769
H88	H	0.103658	-0.094098	0.397231
H89	H	-0.269489	-0.483161	0.102980
H90	H	0.230511	0.016839	0.602980
H91	H	-0.269477	-0.483152	-0.102761
H92	H	0.230523	0.016848	0.397239
H93	H	-0.357726	0.046756	0.000149
H94	H	0.142274	0.546756	0.500149
C95	C	-0.716591	-0.609678	0.000063
C96	C	-0.216591	-0.109678	0.500063
C97	C	-0.786203	-0.493632	0.000068
C98	C	-0.286203	0.006368	0.500068
H99	H	-0.741960	-0.701861	0.000064
H100	H	-0.241960	-0.201861	0.500064
H101	H	-0.680308	-0.602943	-0.102790
H102	H	-0.180308	-0.102943	0.397210
H103	H	-0.680305	-0.602941	0.102932
H104	H	-0.180305	-0.102941	0.602932
H105	H	-0.822485	-0.500363	-0.102808
H106	H	-0.322485	-0.000363	0.397192
H107	H	-0.822501	-0.500370	0.102932
H108	H	-0.322501	-0.000370	0.602932
