data_functionalizedCrystal
_audit_creation_method	'MofGen! by Chris Wilmer'
_symmetry_space_group_name_H-M	'P1'
_symmetry_Int_Tables_number	1
_symmetry_cell_setting	triclinic
loop_
_symmetry_equiv_pos_as_xyz
  x,y,z
_cell_length_a	23.532407
_cell_length_b	22.010155
_cell_length_c	23.532409
_cell_angle_alpha	90.007292
_cell_angle_beta	82.849119
_cell_angle_gamma	89.996931
loop_
_atom_site_label
_atom_site_type_symbol
_atom_site_fract_x
_atom_site_fract_y
_atom_site_fract_z
O1	O	0.755264	-0.050445	0.069127
O2	O	0.589401	-0.050463	0.079130
O3	O	0.677334	-0.050454	-0.008803
O4	O	0.667332	-0.050454	0.157060
O5	O	0.677318	0.050596	-0.008790
O6	O	0.589385	0.050588	0.079143
O7	O	0.755248	0.050605	0.069140
Cu8	Cu	0.672315	0.059823	0.074143
Cu9	Cu	0.672334	-0.059681	0.074127
O10	O	0.667316	0.050596	0.157073
C11	C	0.568177	0.000060	0.078882
C12	C	0.504960	0.000053	0.078116
C13	C	0.105857	0.000081	0.125349
C14	C	0.046457	0.000085	0.124638
O15	O	0.009713	0.000107	0.168424
N16	N	0.023830	0.000084	0.072362
C17	C	0.060608	0.000085	0.020794
O18	O	0.035908	0.000085	-0.023737
C19	C	0.120007	0.000086	0.021506
C20	C	0.142630	0.000081	0.073785
C21	C	0.128481	0.000077	0.177625
C22	C	0.187877	0.000072	0.178336
C23	C	0.224649	0.000071	0.126772
C24	C	0.202026	0.000076	0.074496
C25	C	0.156783	0.000091	-0.030062
C26	C	0.216185	0.000092	-0.029345
C27	C	0.238808	0.000087	0.022934
C28	C	0.298195	0.000070	0.023643
N29	N	0.320821	0.000071	0.075920
C30	C	0.284049	0.000072	0.127484
C31	C	-0.064135	0.000085	0.019302
C32	C	-0.123533	0.000080	0.018589
C33	C	-0.137679	0.000081	0.122434
C34	C	-0.078280	0.000081	0.123146
C35	C	-0.041508	0.000086	0.071578
C36	C	0.408785	0.000061	0.128974
C37	C	0.468187	0.000054	0.129680
C38	C	0.482329	0.000056	0.025836
C39	C	0.422932	0.000060	0.025129
C40	C	0.386161	0.000065	0.076702
O41	O	0.334973	0.000051	-0.020119
O42	O	0.308757	0.000080	0.172007
C43	C	0.677071	0.000069	-0.030013
C44	C	0.676304	0.000065	-0.093230
C45	C	0.776472	0.000081	0.069388
C46	C	0.839689	0.000083	0.070154
N47	N	0.672306	0.143875	0.074153
N48	N	0.672348	-0.143733	0.074112
C49	C	0.711273	0.563659	0.035196
C50	C	0.711276	0.627266	0.035192
O51	O	0.744384	0.660161	0.002076
N52	N	0.672334	0.659083	0.074115
C53	C	0.633383	0.627288	0.113041
O54	O	0.600260	0.660191	0.146148
C55	C	0.633378	0.563682	0.113042
C56	C	0.672326	0.531868	0.074120
C57	C	0.750217	0.531845	-0.003723
C58	C	0.750215	0.468242	-0.003719
C59	C	0.711269	0.436452	0.035205
C60	C	0.672324	0.468265	0.074125
C61	C	0.594425	0.531888	0.151965
C62	C	0.594423	0.468277	0.151962
C63	C	0.633371	0.436464	0.113040
C64	C	0.633375	0.372872	0.113054
N65	N	0.672317	0.341056	0.074130
C66	C	0.711264	0.372846	0.035206
C67	C	0.633396	0.760866	0.113036
C68	C	0.633403	0.824471	0.113038
C69	C	0.711295	0.824445	0.035188
C70	C	0.711290	0.760838	0.035189
C71	C	0.672337	0.729049	0.074113
C72	C	0.711257	0.239274	0.035219
C73	C	0.711253	0.175665	0.035229
C74	C	0.633359	0.175697	0.113077
C75	C	0.633365	0.239301	0.113070
C76	C	0.672316	0.271088	0.074136
O77	O	0.600283	0.339937	0.146151
O78	O	0.744376	0.339935	0.002100
C79	C	0.673054	-0.055021	-0.366482
C80	C	0.673766	-0.055021	-0.307082
O81	O	0.674161	-0.101865	-0.276363
N82	N	0.674109	0.000063	-0.277372
C83	C	0.673747	0.055150	-0.307067
O84	O	0.674105	0.102003	-0.276343
C85	C	0.673039	0.055149	-0.366467
C86	C	0.672690	0.000062	-0.396172
C87	C	0.672705	-0.110103	-0.396187
C88	C	0.671993	-0.110103	-0.455583
C89	C	0.671629	-0.055020	-0.485274
C90	C	0.671977	0.000062	-0.455568
C91	C	0.672681	0.110236	-0.396161
C92	C	0.671974	0.110230	-0.455565
C93	C	0.671625	0.055143	-0.485270
C94	C	0.670901	0.055146	-0.544654
N95	N	0.670557	0.000062	-0.574364
C96	C	0.670921	-0.055021	-0.544673
C97	C	0.675234	0.055147	-0.182324
C98	C	0.675937	0.055148	-0.122925
C99	C	0.675957	-0.055023	-0.122944
C100	C	0.675250	-0.055023	-0.182343
C101	C	0.674890	0.000063	-0.212033
C102	C	0.669424	-0.055016	-0.669409
C103	C	0.668709	-0.055011	-0.728810
C104	C	0.668692	0.055160	-0.728786
C105	C	0.669404	0.055155	-0.669390
C106	C	0.669772	0.000062	-0.639703
O107	O	0.670507	0.101965	-0.575411
O108	O	0.670571	-0.101866	-0.575406
C109	C	0.667579	0.000071	0.178283
C110	C	0.668345	0.000072	0.241500
H111	H	0.378853	0.000067	0.170970
H112	H	0.601655	0.265203	0.144769
H113	H	-0.141947	0.000074	-0.023982
O114	O	0.674988	-0.108498	-0.211266
C115	C	0.723916	-0.111809	-0.252333
H116	H	0.740251	-0.063984	-0.263476
H117	H	0.712326	-0.135134	-0.292590
H118	H	0.758734	-0.138984	-0.234142
O119	O	0.676205	-0.108505	-0.094037
C120	C	0.627261	-0.111789	-0.052988
H121	H	0.610943	-0.063956	-0.041835
H122	H	0.638823	-0.135128	-0.012733
H123	H	0.592440	-0.138939	-0.071203
O124	O	0.671699	-0.163669	-0.484353
C125	C	0.672168	-0.212280	-0.445400
H126	H	0.690688	-0.196114	-0.405508
H127	H	0.699640	-0.250795	-0.466324
H128	H	0.626556	-0.229240	-0.432868
O129	O	0.134886	0.000020	-0.080884
C130	C	0.153701	-0.052318	-0.112302
H131	H	0.194811	-0.069773	-0.097015
H132	H	0.162218	-0.040539	-0.159772
H133	H	0.119289	-0.088963	-0.105524
O134	O	0.251963	0.000013	-0.079403
C135	C	0.286735	-0.052332	-0.082116
H136	H	0.289494	-0.069783	-0.036932
H137	H	0.331498	-0.040564	-0.103591
H138	H	0.267333	-0.088976	-0.108017
H139	H	0.743004	0.734940	0.003495
O140	O	0.556666	0.562810	0.189826
C141	C	0.586952	0.599620	0.224806
H142	H	0.631859	0.580454	0.225548
H143	H	0.563451	0.600345	0.270189
H144	H	0.590037	0.647824	0.206968
O145	O	0.672948	-0.163587	-0.367290
C146	C	0.624001	-0.166877	-0.326247
H147	H	0.607688	-0.119045	-0.315081
H148	H	0.635557	-0.190232	-0.285996
H149	H	0.589179	-0.194015	-0.344472
H150	H	0.743007	0.850340	0.003493
O151	O	0.749070	0.270081	-0.002677
C152	C	0.740124	0.254534	-0.059007
H153	H	0.718166	0.208356	-0.058818
H154	H	0.783091	0.252342	-0.087270
H155	H	0.711882	0.290333	-0.076481
O156	O	-0.056238	0.000160	0.173894
C157	C	-0.022320	0.052503	0.177432
H158	H	-0.007276	0.069954	0.132462
H159	H	0.016454	0.040732	0.199909
H160	H	-0.048709	0.089147	0.202784
H161	H	0.601651	0.149804	0.144770
H162	H	0.668422	-0.099871	-0.752993
O163	O	0.788032	0.562653	-0.041614
C164	C	0.779089	0.547110	-0.097945
H165	H	0.757124	0.500936	-0.097760
H166	H	0.822057	0.544912	-0.126205
H167	H	0.750854	0.582915	-0.115422
H168	H	0.562702	0.442398	0.183658
H169	H	0.404512	0.000055	-0.017441
H170	H	0.669724	-0.099878	-0.645245
H171	H	0.512279	0.000053	-0.016146
O172	O	0.676347	0.108621	-0.094020
C173	C	0.726095	0.111936	-0.066394
H174	H	0.742656	0.064114	-0.059737
H175	H	0.715496	0.135255	-0.023113
H176	H	0.760358	0.139121	-0.093993
O177	O	0.669649	0.108700	-0.640574
C178	C	0.620125	0.142187	-0.648348
H179	H	0.603172	0.126525	-0.689241
H180	H	0.631174	0.192584	-0.651875
H181	H	0.585985	0.134531	-0.610215
H182	H	0.674936	0.100008	-0.206493
H183	H	0.742971	0.149765	0.003534
H184	H	0.601694	0.850369	0.144738
H185	H	-0.034198	0.000083	-0.022693
H186	H	0.781929	0.442344	-0.035414
O187	O	0.490187	-0.000061	0.180454
C188	C	0.524131	-0.052393	0.183961
H189	H	0.510248	-0.088967	0.154272
H190	H	0.518540	-0.069965	0.229887
H191	H	0.571051	-0.040566	0.170560
O192	O	0.595539	0.730083	0.150910
C193	C	0.561164	0.771810	0.185252
H194	H	0.584516	0.817146	0.185769
H195	H	0.552216	0.753447	0.230782
H196	H	0.518964	0.778579	0.166975
H197	H	0.672972	0.155094	-0.371986
O198	O	0.671599	0.163798	-0.484313
C199	C	0.672074	0.212413	-0.445354
H200	H	0.654551	0.196260	-0.400558
H201	H	0.644211	0.250939	-0.458740
H202	H	0.717843	0.229353	-0.445260
O203	O	0.668418	0.108704	-0.757580
C204	C	0.717927	0.142208	-0.749794
H205	H	0.734887	0.126549	-0.708906
H206	H	0.706855	0.192601	-0.746249
H207	H	0.752071	0.134568	-0.787930
O208	O	0.209754	0.000101	0.229171
C209	C	0.164551	0.000090	0.274524
H210	H	0.124285	0.019218	0.258788
H211	H	0.176756	0.029431	0.311047
H212	H	0.156060	-0.048388	0.290410
H213	H	0.098546	0.000079	0.219617
H214	H	-0.167631	0.000084	0.164421
