data_functionalizedCrystal
_audit_creation_method	'MofGen! by Chris Wilmer'
_symmetry_space_group_name_H-M	'P1'
_symmetry_Int_Tables_number	1
_symmetry_cell_setting	triclinic
loop_
_symmetry_equiv_pos_as_xyz
  x,y,z
_cell_length_a	14.519731
_cell_length_b	8.559649
_cell_length_c	7.681481
_cell_angle_alpha	94.913240
_cell_angle_beta	95.754218
_cell_angle_gamma	103.266241
loop_
_atom_site_label
_atom_site_type_symbol
_atom_site_fract_x
_atom_site_fract_y
_atom_site_fract_z
O1	O	-0.021482	-2.104959	0.146399
O2	O	0.026136	-1.639896	0.146411
O3	O	-0.132795	-1.884742	0.146389
O4	O	0.137449	-1.860113	0.146421
O5	O	-0.152396	-1.914878	-0.146472
O6	O	0.006535	-1.670033	-0.146450
O7	O	-0.041083	-2.135095	-0.146461
Zn8	Zn	-0.020386	-1.907349	-0.192953
Zn9	Zn	0.005439	-1.867643	0.192903
O10	O	0.117848	-1.890249	-0.146439
C11	C	0.019944	-1.595445	-0.000018
C12	C	0.030685	-1.418097	-0.000014
N13	N	-0.038013	-1.934459	-0.456290
C14	C	-0.176872	-1.898656	-0.000042
C15	C	-0.279005	-1.895199	-0.000043
C16	C	-0.361947	-1.892389	-0.000039
C17	C	-0.466003	-1.888877	-0.000025
C18	C	-0.548941	-1.886090	-0.000014
C19	C	-0.653004	-1.882578	-0.000003
C20	C	0.161925	-1.876335	-0.000005
C21	C	0.264058	-1.879791	0.000008
C22	C	-0.034891	-2.179546	-0.000028
C23	C	-0.045632	-2.356893	-0.000021
N24	N	0.023057	-1.840545	0.456240
H25	H	0.104247	-1.334809	0.000004
C26	C	0.107267	-1.711023	-0.442173
C27	C	0.116836	-1.531603	-0.466915
C28	C	0.201048	-1.402078	-0.365315
C29	C	0.275690	-1.451974	-0.238974
C30	C	0.266124	-1.631403	-0.214227
C31	C	0.181913	-1.760928	-0.315826
H32	H	0.061579	-1.494660	-0.560445
H33	H	0.208129	-1.269253	-0.383635
H34	H	0.338029	-1.356092	-0.163764
H35	H	0.321381	-1.668346	-0.120696
H36	H	0.174831	-1.893753	-0.297506
C37	C	-0.122227	-2.063988	-0.557884
C38	C	-0.225329	-2.058176	-0.532723
C39	C	-0.309541	-2.187703	-0.634317
C40	C	-0.290653	-2.323040	-0.761072
C41	C	-0.187547	-2.328857	-0.786240
C42	C	-0.103334	-2.199330	-0.684646
H43	H	-0.239315	-1.957987	-0.438885
H44	H	-0.385867	-2.183396	-0.615685
H45	H	-0.352992	-2.418923	-0.836278
H46	H	-0.173561	-2.429046	-0.880077
H47	H	-0.027009	-2.203637	-0.703277
H48	H	-0.119187	-1.440170	-0.000021
