data_functionalizedCrystal
_audit_creation_method	'MofGen! by Chris Wilmer'
_symmetry_space_group_name_H-M	'P1'
_symmetry_Int_Tables_number	1
_symmetry_cell_setting	triclinic
loop_
_symmetry_equiv_pos_as_xyz
  x,y,z
_cell_length_a	11.169417
_cell_length_b	12.594516
_cell_length_c	11.169409
_cell_angle_alpha	90.031296
_cell_angle_beta	90.020564
_cell_angle_gamma	90.016931
loop_
_atom_site_label
_atom_site_type_symbol
_atom_site_fract_x
_atom_site_fract_y
_atom_site_fract_z
Zn1	Zn	1.834923	-0.423632	0.678551
Zn2	Zn	2.334923	0.076368	1.178551
Zn3	Zn	1.834790	-0.601658	0.477871
Zn4	Zn	2.334790	-0.101658	0.977871
Zn5	Zn	1.634207	-0.423696	0.477885
Zn6	Zn	2.134207	0.076304	0.977885
Zn7	Zn	1.634197	-0.601571	0.678516
Zn8	Zn	2.134197	-0.101571	1.178516
O9	O	1.734529	-0.512639	0.578206
O10	O	2.234529	-0.012639	1.078206
O11	O	2.002855	-0.447256	0.651939
O12	O	2.502855	0.052744	1.151939
O13	O	1.808131	-0.578114	0.309923
O14	O	2.308131	-0.078114	0.809923
O15	O	1.660892	-0.274742	0.504524
O16	O	2.160892	0.225258	1.004524
O17	O	2.002758	-0.578051	0.504501
O18	O	2.502758	-0.078051	1.004501
O19	O	1.808358	-0.274694	0.651953
O20	O	2.308358	0.225306	1.151953
O21	O	1.660763	-0.447366	0.309934
O22	O	2.160763	0.052634	0.809934
O23	O	1.466256	-0.447283	0.504491
O24	O	1.966256	0.052717	1.004491
O25	O	1.660875	-0.577904	0.846471
O26	O	2.160875	-0.077904	1.346471
O27	O	1.466248	-0.577967	0.651893
O28	O	1.966248	-0.077967	1.151893
O29	O	1.808348	-0.447172	0.846496
O30	O	2.308348	0.052828	1.346496
O31	O	1.808121	-0.750592	0.504467
O32	O	2.308121	-0.250592	1.004467
O33	O	1.660746	-0.750528	0.651880
O34	O	2.160746	-0.250528	1.151880
C35	C	1.422705	-0.512623	0.578190
C36	C	1.922705	-0.012623	1.078190
C37	C	1.289305	-0.512642	0.578212
C38	C	1.789305	-0.012642	1.078212
C39	C	1.734451	-0.789180	0.578194
C40	C	2.234451	-0.289180	1.078194
C41	C	1.734527	-0.907486	0.578229
C42	C	2.234527	-0.407486	1.078229
C43	C	1.654362	-0.976743	0.658351
C44	C	2.154362	-0.476743	1.158351
C45	C	1.625114	-1.047617	0.548838
C46	C	2.125114	-0.547617	1.048838
C47	C	1.763884	-1.047410	0.687761
C48	C	2.263884	-0.547410	1.187761
C49	C	1.705221	-0.976802	0.468658
C50	C	2.205221	-0.476802	0.968658
C51	C	1.844042	-0.976588	0.607656
C52	C	2.344042	-0.476588	1.107656
C53	C	1.814836	-1.047431	0.498067
C54	C	2.314836	-0.547431	0.998067
C55	C	2.047572	-0.512656	0.578222
C56	C	2.547572	-0.012656	1.078222
C57	C	2.180972	-0.512663	0.578229
C58	C	2.680972	-0.012663	1.078229
C59	C	1.734625	-0.512521	0.891249
C60	C	2.234625	-0.012521	1.391249
C61	C	1.734666	-0.512471	1.024649
C62	C	2.234666	-0.012471	1.524649
C63	C	1.734641	-0.235018	0.578244
C64	C	2.234641	0.264982	1.078244
C65	C	1.734689	-0.116713	0.578260
C66	C	2.234689	0.383287	1.078260
C67	C	1.734503	-0.512680	0.266381
C68	C	2.234503	-0.012680	0.766381
C69	C	1.734694	-0.512430	0.132982
C70	C	2.234694	-0.012430	0.632982
H71	H	1.532574	-1.078840	0.523974
H72	H	2.032574	-0.578840	1.023974
H73	H	1.882698	-1.078273	0.430246
H74	H	2.382698	-0.578273	0.930246
H75	H	1.586447	-0.945704	0.726008
H76	H	2.086447	-0.445704	1.226008
H77	H	1.936561	-0.945369	0.632572
H78	H	2.436561	-0.445369	1.132572
H79	H	1.788649	-1.078426	0.780379
H80	H	2.288649	-0.578426	1.280379
H81	H	1.680349	-0.945914	0.376015
H82	H	2.180349	-0.445914	0.876015
