data_functionalizedCrystal
_audit_creation_method	'MofGen! by Chris Wilmer'
_symmetry_space_group_name_H-M	'P1'
_symmetry_Int_Tables_number	1
_symmetry_cell_setting	triclinic
loop_
_symmetry_equiv_pos_as_xyz
  x,y,z
_cell_length_a	10.540510
_cell_length_b	10.540510
_cell_length_c	16.053802
_cell_angle_alpha	92.593693
_cell_angle_beta	87.392914
_cell_angle_gamma	84.513311
loop_
_atom_site_label
_atom_site_type_symbol
_atom_site_fract_x
_atom_site_fract_y
_atom_site_fract_z
O1	O	1.691198	0.173426	-0.069430
O2	O	1.321778	0.190321	-0.069430
O3	O	1.514936	-0.002836	-0.069429
O4	O	1.498040	0.366583	-0.069430
O5	O	1.504303	0.007751	0.069430
O6	O	1.311146	0.200909	0.069429
O7	O	1.680566	0.184014	0.069429
Zn8	Zn	1.494168	0.194142	0.091476
Zn9	Zn	1.508176	0.180193	-0.091477
O10	O	1.487408	0.377171	0.069429
C11	C	1.269159	0.194356	-0.000000
C12	C	1.128209	0.190589	-0.000000
C13	C	0.910764	0.324751	-0.000320
C14	C	1.057335	0.328793	-0.000002
C15	C	1.077385	0.125888	0.079293
C16	C	0.930620	0.122854	0.079354
C17	C	0.942905	0.107935	-0.078554
C18	C	1.089325	0.114411	-0.079597
C19	C	1.508361	-0.044846	-0.000002
C20	C	1.504594	-0.185796	-0.000007
C21	C	1.638756	-0.403241	0.000311
C22	C	1.642798	-0.256670	-0.000006
C23	C	1.439919	-0.236593	-0.079300
C24	C	1.436884	-0.383358	-0.079362
C25	C	1.421915	-0.371126	0.078546
C26	C	1.428390	-0.224706	0.079590
C27	C	1.733185	0.179979	-0.000002
C28	C	1.874135	0.183745	-0.000007
C29	C	1.493983	0.419181	-0.000001
C30	C	1.497750	0.560130	-0.000001
N31	N	1.484616	0.203662	0.216336
N32	N	1.517737	0.170663	-0.216337
C33	C	1.566836	0.121503	0.260030
C34	C	1.560167	0.128174	0.347437
C35	C	1.471283	0.217012	0.391148
C36	C	1.389055	0.299174	0.347448
C37	C	1.395719	0.292496	0.260043
C38	C	1.442173	0.246147	0.652558
C39	C	1.435518	0.252822	0.739969
C40	C	1.606629	0.081820	0.739952
C41	C	1.613290	0.075154	0.652545
C42	C	1.531057	0.157312	0.608853
N43	N	1.464467	0.223836	0.480492
N44	N	1.537869	0.150481	0.519511
H45	H	0.862921	0.382595	0.056224
Cl46	Cl	1.323770	0.364517	0.794914
H47	H	1.627115	0.061273	0.383013
H48	H	1.375218	0.313046	0.616990
Cl49	Cl	1.292348	0.395782	0.205114
Cl50	Cl	1.725031	-0.036526	0.597594
Cl51	Cl	1.709996	-0.021463	0.794884
Cl52	Cl	1.150204	-0.030855	0.083846
Cl53	Cl	1.094458	0.421456	0.087908
Cl54	Cl	1.165652	-0.041942	-0.086988
Cl55	Cl	1.140494	0.186935	-0.170169
Cl56	Cl	1.109357	0.407562	-0.087759
Cl57	Cl	1.283185	-0.163755	-0.083861
H58	H	0.873159	0.374257	-0.057186
Cl59	Cl	0.861508	0.204484	0.170864
Cl60	Cl	0.894697	-0.036302	0.084965
Cl61	Cl	1.728096	-0.477071	-0.086987
Cl62	Cl	1.118031	0.208690	0.170403
H63	H	1.316678	0.371503	0.383043
Cl64	Cl	1.261650	-0.405246	0.079374
H65	H	1.493569	-0.210241	-0.138310
Cl66	Cl	1.500921	-0.173622	0.170161
Cl67	Cl	1.277723	-0.419275	-0.084925
H68	H	1.327124	-0.175264	0.084378
H69	H	0.920803	0.004131	-0.079090
Cl70	Cl	1.735484	-0.219517	-0.087918
Cl71	Cl	1.482162	-0.429680	0.171338
Cl72	Cl	1.721511	-0.204673	0.087763
Cl73	Cl	1.678587	0.009821	0.205089
Cl74	Cl	1.518547	-0.452440	-0.170871
H75	H	0.904954	0.146936	-0.138655
Cl76	Cl	1.715171	-0.461330	0.088108
