data_functionalizedCrystal
_audit_creation_method	'MofGen! by Chris Wilmer'
_symmetry_space_group_name_H-M	'P1'
_symmetry_Int_Tables_number	1
_symmetry_cell_setting	triclinic
loop_
_symmetry_equiv_pos_as_xyz
  x,y,z
_cell_length_a	8.597340
_cell_length_b	7.088929
_cell_length_c	8.559649
_cell_angle_alpha	95.344185
_cell_angle_beta	77.625043
_cell_angle_gamma	76.045281
loop_
_atom_site_label
_atom_site_type_symbol
_atom_site_fract_x
_atom_site_fract_y
_atom_site_fract_z
O1	O	2.074465	-0.182749	0.219480
O2	O	1.606585	-0.105672	0.245569
O3	O	1.881746	-0.151003	-0.000135
O4	O	1.799304	-0.137418	0.465184
O5	O	1.918527	-0.475038	-0.033046
O6	O	1.643366	-0.429707	0.212659
O7	O	2.111247	-0.506784	0.186570
Cu8	Cu	1.880665	-0.497833	0.196609
Cu9	Cu	1.837167	-0.114624	0.235529
O10	O	1.836086	-0.461453	0.432274
C11	C	1.565631	-0.257914	0.228145
C12	C	1.388806	-0.228784	0.225241
N13	N	1.911271	-0.767363	0.169234
C14	C	2.152200	-0.354539	0.203994
C15	C	2.329024	-0.383656	0.206900
C16	C	1.906384	-0.314046	-0.076129
C17	C	1.924980	-0.317099	-0.253534
N18	N	1.806574	0.154904	0.262892
C19	C	1.811447	-0.298406	0.508268
C20	C	1.792850	-0.295340	0.685674
H21	H	1.413123	-0.538542	0.193407
Cl22	Cl	2.121618	-0.349518	-0.382728
Cl23	Cl	1.639045	-0.691444	0.412743
H24	H	1.304701	-0.073888	0.238722
H25	H	2.019794	-0.866897	0.072183
H26	H	1.665501	-0.274367	-0.230651
