data_functionalizedCrystal
_audit_creation_method	'MofGen! by Chris Wilmer'
_symmetry_space_group_name_H-M	'P1'
_symmetry_Int_Tables_number	1
_symmetry_cell_setting	triclinic
loop_
_symmetry_equiv_pos_as_xyz
  x,y,z
_cell_length_a	10.654550
_cell_length_b	19.288857
_cell_length_c	9.130313
_cell_angle_alpha	89.993335
_cell_angle_beta	89.999724
_cell_angle_gamma	83.809020
loop_
_atom_site_label
_atom_site_type_symbol
_atom_site_fract_x
_atom_site_fract_y
_atom_site_fract_z
O1	O	1.665746	0.097555	-0.121698
O2	O	2.165746	0.597555	0.378302
O3	O	1.300068	0.106849	-0.121726
O4	O	1.800068	0.606849	0.378274
O5	O	1.493479	0.001141	-0.121693
O6	O	1.993479	0.501141	0.378307
O7	O	1.472336	0.203264	-0.121730
O8	O	1.972336	0.703264	0.378270
O9	O	1.493466	0.001138	0.121906
O10	O	1.993466	0.501138	0.621906
O11	O	1.300055	0.106846	0.121873
O12	O	1.800055	0.606846	0.621873
O13	O	1.665733	0.097552	0.121901
O14	O	2.165733	0.597552	0.621901
Cu15	Cu	1.482893	0.102199	0.144130
Cu16	Cu	1.982893	0.602199	0.644130
Cu17	Cu	1.482909	0.102202	-0.143954
Cu18	Cu	1.982909	0.602202	0.356046
O19	O	1.472323	0.203261	0.121869
O20	O	1.972323	0.703261	0.621869
C21	C	1.253279	0.106165	0.000071
C22	C	1.753279	0.606165	0.500071
C23	C	1.113879	0.104124	0.000061
C24	C	1.613879	0.604124	0.500061
C25	C	1.492794	-0.024742	0.000107
C26	C	1.992794	0.475258	0.500107
C27	C	1.490756	-0.101859	0.000111
C28	C	1.990756	0.398141	0.500111
C29	C	1.033058	0.166363	0.000054
C30	C	1.533058	0.666363	0.500054
C31	C	0.902079	0.164441	0.000079
C32	C	1.402079	0.664441	0.500079
C33	C	0.932754	0.038033	0.000113
C34	C	1.432754	0.538033	0.500113
C35	C	1.063731	0.039957	0.000098
C36	C	1.563731	0.539957	0.500098
C37	C	1.489813	-0.138074	-0.132675
C38	C	1.989813	0.361926	0.367325
C39	C	1.487880	-0.210533	-0.132686
C40	C	1.987880	0.289467	0.367314
C41	C	1.486917	-0.246775	0.000097
C42	C	1.986917	0.253225	0.500097
C43	C	1.487854	-0.210551	0.132900
C44	C	1.987854	0.289449	0.632900
C45	C	1.489773	-0.138093	0.132908
C46	C	1.989773	0.361907	0.632908
C47	C	1.557425	-0.366546	0.101822
C48	C	2.057425	0.133454	0.601822
C49	C	1.555513	-0.439004	0.101809
C50	C	2.055513	0.060996	0.601809
C51	C	1.480991	-0.470260	0.000080
C52	C	1.980991	0.029740	0.500080
C53	C	1.408397	-0.429051	-0.101661
C54	C	1.908397	0.070949	0.398339
C55	C	1.410317	-0.356593	-0.101654
C56	C	1.910317	0.143407	0.398346
C57	C	1.484835	-0.325344	0.000104
C58	C	1.984835	0.174656	0.500104
C59	C	1.477951	-0.585043	-0.132727
C60	C	1.977951	-0.085043	0.367273
C61	C	1.476011	-0.657502	-0.132733
C62	C	1.976011	-0.157502	0.367267
C63	C	1.475997	-0.657520	0.132857
C64	C	1.975997	-0.157520	0.632857
C65	C	1.477924	-0.585061	0.132859
C66	C	1.977924	-0.085061	0.632859
C67	C	1.478907	-0.548827	0.000063
C68	C	1.978907	-0.048827	0.500063
C69	C	1.712523	0.098236	0.000102
C70	C	2.212523	0.598236	0.500102
C71	C	1.851923	0.100278	0.000102
C72	C	2.351923	0.600278	0.500102
C73	C	1.473008	0.229143	0.000065
C74	C	1.973008	0.729143	0.500065
C75	C	1.475045	0.306260	0.000051
C76	C	1.975045	0.806260	0.500051
N77	N	1.482891	0.102196	0.346752
N78	N	1.982891	0.602196	0.846752
N79	N	1.482920	0.102200	-0.346577
N80	N	1.982920	0.602200	0.153423
C81	C	1.568562	0.055408	0.423418
C82	C	2.068562	0.555408	0.923418
C83	C	1.568574	0.055408	0.576755
C84	C	2.068574	0.555408	1.076755
C85	C	1.397241	0.148990	0.576746
C86	C	1.897241	0.648990	1.076746
C87	C	1.397224	0.148986	0.423412
C88	C	1.897224	0.648986	0.923412
H89	H	0.836278	0.215122	0.000077
H90	H	1.336278	0.715122	0.500077
H91	H	1.638333	0.017308	0.639173
H92	H	2.138333	0.517308	1.139173
O93	O	1.304866	0.199463	0.659439
O94	O	1.804866	0.699463	1.159439
H95	H	1.245287	0.231995	0.580363
H96	H	1.745287	0.731995	1.080363
O97	O	1.490808	-0.099033	0.276140
O98	O	1.990808	0.400967	0.776140
H99	H	1.406109	-0.060243	0.282500
H100	H	1.906109	0.439757	0.782500
O101	O	1.150909	-0.027179	0.000107
O102	O	1.650909	0.472821	0.500107
H103	H	1.211311	-0.029324	0.099398
H104	H	1.711311	0.470676	0.599398
H105	H	1.638316	0.017307	0.361005
H106	H	2.138316	0.517307	0.861005
O107	O	1.304822	0.199455	0.340705
O108	O	1.804822	0.699455	0.840705
H109	H	1.245269	0.231999	0.419769
H110	H	1.745269	0.731999	0.919769
O111	O	1.474980	-0.696572	-0.275953
O112	O	1.974980	-0.196572	0.224047
H113	H	1.388519	-0.723792	-0.282306
H114	H	1.888519	-0.223792	0.217694
O115	O	1.087154	0.235568	0.000044
O116	O	1.587154	0.735568	0.500044
H117	H	1.008944	0.278523	0.000062
H118	H	1.508944	0.778523	0.500062
H119	H	1.490609	-0.108577	-0.240808
H120	H	1.990609	0.391423	0.259192
O121	O	0.878667	-0.031174	0.000143
O122	O	1.378667	0.468826	0.500143
H123	H	0.774012	-0.022057	0.000139
H124	H	1.274012	0.477943	0.500139
O125	O	1.637820	-0.332841	0.211543
O126	O	2.137820	0.167159	0.711543
H127	H	1.576664	-0.295646	0.280241
H128	H	2.076664	0.204354	0.780241
H129	H	1.487104	-0.240024	-0.240819
H130	H	1.987104	0.259976	0.259181
O131	O	1.486837	-0.249642	0.276114
O132	O	1.986837	0.250358	0.776114
H133	H	1.400401	-0.276885	0.282455
H134	H	1.900401	0.223115	0.782455
O135	O	1.332006	-0.312142	-0.211356
O136	O	1.832006	0.187858	0.288644
H137	H	1.279850	-0.346043	-0.282091
H138	H	1.779850	0.153957	0.217909
O139	O	1.327996	-0.462747	-0.211383
O140	O	1.827996	0.037253	0.288617
H141	H	1.389143	-0.499953	-0.280065
H142	H	1.889143	0.000047	0.219935
O143	O	1.478986	-0.545952	-0.275947
O144	O	1.978986	-0.045952	0.224053
H145	H	1.477981	-0.583310	-0.368287
H146	H	1.977981	-0.083310	0.131713
H147	H	1.475203	-0.687027	0.240971
H148	H	1.975203	-0.187027	0.740971
H149	H	1.478703	-0.555575	0.240988
H150	H	1.978703	-0.055575	0.740988
H151	H	1.614628	-0.472551	0.184647
H152	H	2.114628	0.027449	0.684647
