data_functionalizedCrystal
_audit_creation_method	'MofGen! by Chris Wilmer'
_symmetry_space_group_name_H-M	'P1'
_symmetry_Int_Tables_number	1
_symmetry_cell_setting	triclinic
loop_
_symmetry_equiv_pos_as_xyz
  x,y,z
_cell_length_a	15.297979
_cell_length_b	15.299816
_cell_length_c	12.827885
_cell_angle_alpha	99.651250
_cell_angle_beta	80.289164
_cell_angle_gamma	91.635460
loop_
_atom_site_label
_atom_site_type_symbol
_atom_site_fract_x
_atom_site_fract_y
_atom_site_fract_z
Zn1	Zn	1.399657	-0.117128	-0.895497
Zn2	Zn	1.424897	-0.263607	-0.755215
Zn3	Zn	1.253159	-0.142489	-0.696432
Zn4	Zn	1.278457	-0.288847	-0.905563
O5	O	1.339043	-0.203018	-0.813177
O6	O	1.525601	-0.115382	-0.897276
O7	O	1.402092	-0.247591	-0.601186
O8	O	1.251443	-0.016572	-0.694024
O9	O	1.544145	-0.223000	-0.794212
O10	O	1.359074	0.002061	-0.840277
O11	O	1.275917	-0.158607	-0.557998
O12	O	1.133920	-0.183081	-0.703785
O13	O	1.294559	-0.266018	-1.050459
O14	O	1.152506	-0.290610	-0.857433
O15	O	1.383604	-0.139856	-1.043063
O16	O	1.426622	-0.389509	-0.803972
O17	O	1.319033	-0.408053	-0.914433
C18	C	1.111425	-0.242337	-0.775323
C19	C	1.014053	-0.259179	-0.759160
C20	C	0.977946	-0.323033	-0.697778
C21	C	0.886460	-0.338859	-0.682597
C22	C	0.831072	-0.290827	-0.728789
C23	C	0.867178	-0.226967	-0.790166
C24	C	0.958674	-0.211144	-0.805355
C25	C	0.811800	-0.178938	-0.836366
C26	C	0.847906	-0.115078	-0.897743
C27	C	0.939393	-0.099258	-0.912929
C28	C	0.994781	-0.147290	-0.866737
C29	C	0.720304	-0.194760	-0.821176
C30	C	0.701032	-0.082871	-0.928754
C31	C	0.792518	-0.067046	-0.943935
C32	C	1.378335	-0.430553	-0.866700
C33	C	1.395225	-0.527880	-0.889646
C34	C	1.218905	-0.841292	-0.649628
C35	C	1.203032	-0.749850	-0.628071
C36	C	1.251079	-0.694353	-0.693463
C37	C	1.315001	-0.730307	-0.780416
C38	C	1.330871	-0.821760	-0.801980
C39	C	1.363045	-0.674820	-0.845815
C40	C	1.426968	-0.710775	-0.932768
C41	C	1.442835	-0.802218	-0.954327
C42	C	1.394788	-0.857715	-0.888936
C43	C	1.347175	-0.583368	-0.824250
C44	C	1.459142	-0.563835	-0.976602
C45	C	1.475015	-0.655278	-0.998159
C46	C	1.567549	-0.163546	-0.851178
C47	C	1.664925	-0.146726	-0.867372
C48	C	1.339088	-0.202924	-1.085737
C49	C	1.339107	-0.202883	-1.201886
C50	C	1.299621	0.025410	-0.759470
C51	C	1.282822	0.122752	-0.736584
C52	C	1.383173	-0.140443	-1.250010
C53	C	1.383194	-0.140400	-1.370056
C54	C	1.339037	-0.203040	-0.541670
C55	C	1.339145	-0.202804	-0.425492
H56	H	0.655935	-0.043761	-0.966369
C57	C	1.276869	-0.543824	-0.728603
C58	C	1.197161	-0.492877	-0.747558
C59	C	1.126851	-0.453334	-0.651902
C60	C	1.136249	-0.464737	-0.537291
C61	C	1.215960	-0.515686	-0.518331
C62	C	1.286270	-0.555229	-0.613987
H63	H	1.190201	-0.484433	-0.832404
H64	H	1.067844	-0.415618	-0.665938
H65	H	1.084202	-0.435465	-0.466481
H66	H	1.222920	-0.524130	-0.433485
H67	H	1.345277	-0.592945	-0.599951
C68	C	1.434122	-0.068265	-1.185615
C69	C	1.409803	0.030079	-1.175919
C70	C	1.460753	0.102259	-1.111527
C71	C	1.536021	0.076097	-1.056831
C72	C	1.560344	-0.022251	-1.066526
C73	C	1.509394	-0.094432	-1.130918
H74	H	1.354082	0.049450	-1.216410
H75	H	1.442748	0.175063	-1.104351
H76	H	1.573738	0.129529	-1.009164
H77	H	1.616065	-0.041622	-1.026035
H78	H	1.527399	-0.167236	-1.138094
C79	C	0.680593	-0.264998	-0.753659
C80	C	0.611093	-0.237851	-0.652295
C81	C	0.571382	-0.308092	-0.584771
C82	C	0.601171	-0.405479	-0.618611
C83	C	0.670674	-0.432631	-0.719979
C84	C	0.710385	-0.362390	-0.787504
H85	H	0.589038	-0.165755	-0.627241
H86	H	0.519931	-0.287992	-0.509731
H87	H	0.571774	-0.457476	-0.568625
H88	H	0.692729	-0.504727	-0.745034
H89	H	0.761836	-0.382490	-0.862544
H90	H	1.527061	-0.684565	-1.068958
H91	H	0.756581	-0.303716	-0.716424
C92	C	1.288173	-0.275030	-1.369581
C93	C	1.212877	-0.248922	-1.274158
C94	C	1.161904	-0.321147	-1.218239
C95	C	1.186227	-0.419479	-1.257742
C96	C	1.261527	-0.445592	-1.353170
C97	C	1.312500	-0.373367	-1.409090
H98	H	1.194868	-0.176126	-1.244911
H99	H	1.106162	-0.301816	-1.147596
H100	H	1.148494	-0.472945	-1.216347
H101	H	1.279536	-0.518387	-1.382417
H102	H	1.368242	-0.392697	-1.479732
C103	C	1.512001	-0.502798	-1.048539
C104	C	1.494550	-0.402209	-1.024819
C105	C	1.547402	-0.341166	-1.096752
C106	C	1.617706	-0.380713	-1.192404
C107	C	1.635160	-0.481307	-1.216128
C108	C	1.582308	-0.542350	-1.144196
H109	H	1.442504	-0.372930	-0.954008
H110	H	1.534481	-0.266700	-1.079189
H111	H	1.656830	-0.335525	-1.245653
H112	H	1.687206	-0.510586	-1.286940
H113	H	1.595229	-0.616816	-1.161758
H114	H	0.968789	-0.047267	-0.962918
C115	C	1.434164	-0.068178	-1.425973
C116	C	1.434113	-0.068238	-1.546020
C117	C	1.485085	0.003987	-1.601940
C118	C	1.536108	0.076272	-1.537813
C119	C	1.536162	0.076335	-1.417759
C120	C	1.485190	0.004110	-1.361839
H121	H	1.396340	-0.121750	-1.593498
H122	H	1.485045	0.003940	-1.690812
H123	H	1.573841	0.129738	-1.579208
H124	H	1.573935	0.129847	-1.370282
H125	H	1.485230	0.004157	-1.272967
C126	C	0.832244	0.003196	-1.011450
C127	C	0.901749	-0.023951	-1.112808
C128	C	0.941476	0.046292	-1.180320
C129	C	0.911698	0.143682	-1.146475
C130	C	0.842188	0.170834	-1.045112
C131	C	0.802461	0.100591	-0.977600
H132	H	0.923797	-0.096049	-1.137867
H133	H	0.992932	0.026192	-1.255356
H134	H	0.941106	0.195680	-1.196452
H135	H	0.820141	0.242932	-1.020054
H136	H	0.751006	0.120692	-0.902564
H137	H	1.301389	-0.256304	-1.249557
H138	H	0.857069	-0.390854	-0.632624
H139	H	1.023051	-0.362138	-0.660180
H140	H	1.069277	-0.134405	-0.879091
C141	C	1.132724	-0.710302	-0.532427
C142	C	1.079875	-0.771339	-0.460495
C143	C	1.009563	-0.731790	-0.364844
C144	C	0.992101	-0.631203	-0.341125
C145	C	1.044952	-0.570159	-0.413060
C146	C	1.115264	-0.609708	-0.508711
H147	H	1.092800	-0.845806	-0.478051
H148	H	0.970440	-0.776980	-0.311593
H149	H	0.940053	-0.601927	-0.270319
H150	H	1.032027	-0.495693	-0.395504
H151	H	1.154387	-0.564519	-0.561961
C152	C	1.166059	-0.902340	-0.577710
C153	C	1.214972	-0.958667	-0.516856
C154	C	1.162121	-1.019718	-0.444934
C155	C	1.060357	-1.024443	-0.433865
C156	C	1.011439	-0.968114	-0.494720
C157	C	1.064290	-0.907063	-0.566643
H158	H	1.290308	-0.955172	-0.525049
H159	H	1.198334	-1.061417	-0.399884
H160	H	1.021234	-1.069636	-0.380623
H161	H	0.936102	-0.971609	-0.486528
H162	H	1.028076	-0.865364	-0.611692
H163	H	1.238152	-0.619897	-0.675905
H164	H	1.407711	-0.932176	-0.906480
H165	H	1.494881	-0.831490	-1.025134
