data_functionalizedCrystal
_audit_creation_method	'MofGen! by Chris Wilmer'
_symmetry_space_group_name_H-M	'P1'
_symmetry_Int_Tables_number	1
_symmetry_cell_setting	triclinic
loop_
_symmetry_equiv_pos_as_xyz
  x,y,z
_cell_length_a	16.109301
_cell_length_b	17.038272
_cell_length_c	14.586319
_cell_angle_alpha	89.995924
_cell_angle_beta	89.999213
_cell_angle_gamma	87.286518
loop_
_atom_site_label
_atom_site_type_symbol
_atom_site_fract_x
_atom_site_fract_y
_atom_site_fract_z
O1	O	1.110268	0.100495	-0.076183
O2	O	0.869094	0.113001	-0.076198
O3	O	0.988248	-0.007067	-0.076183
O4	O	0.991114	0.220564	-0.076198
O5	O	0.988239	-0.007069	0.076298
O6	O	0.869085	0.113000	0.076283
O7	O	1.110259	0.100493	0.076298
Cu8	Cu	0.989671	0.106746	0.090213
Cu9	Cu	0.989682	0.106748	-0.090113
O10	O	0.991105	0.220562	0.076283
C11	C	0.838079	0.112494	0.000041
C12	C	0.745676	0.110975	0.000035
C13	C	0.528212	0.178690	0.000042
C14	C	0.441390	0.177257	0.000048
C15	C	0.451147	0.034799	0.000053
C16	C	0.537968	0.036233	0.000054
C17	C	0.576498	0.108181	0.000043
C18	C	0.402855	0.105314	0.000049
C19	C	0.308719	0.103759	0.000055
C20	C	0.670640	0.109736	0.000039
C21	C	0.985636	-0.036196	0.000057
C22	C	0.977857	-0.122989	0.000056
C23	C	1.049277	-0.173104	0.000062
C24	C	1.041963	-0.254654	0.000052
C25	C	0.963228	-0.286089	0.000044
C26	C	0.891802	-0.235967	0.000036
C27	C	0.899116	-0.154418	0.000039
C28	C	0.937385	-0.531846	0.000030
C29	C	0.930076	-0.613402	0.000031
C30	C	1.080238	-0.632083	0.000045
C31	C	1.087546	-0.550532	0.000053
C32	C	1.016120	-0.500418	0.000040
C33	C	0.955749	-0.369446	0.000038
C34	C	1.023599	-0.417062	0.000040
C35	C	1.141274	0.101001	0.000057
C36	C	1.233677	0.102519	0.000057
C37	C	0.993717	0.249691	0.000041
C38	C	1.001496	0.336484	0.000036
N39	N	0.989670	0.106744	0.217045
N40	N	0.989689	0.106744	-0.216945
C41	C	1.042451	0.053596	0.452058
C42	C	1.042453	0.053594	0.548039
C43	C	0.936902	0.159895	0.548036
C44	C	0.936896	0.159893	0.452056
C45	C	0.989675	0.106744	0.404070
C46	C	0.989684	0.106744	0.596030
C47	C	0.989686	0.106743	0.700098
C48	C	0.989672	0.106744	0.299996
H49	H	0.402079	0.234672	0.000048
C50	C	0.432739	-0.087060	-0.078330
C51	C	0.408793	-0.044283	0.000052
H52	H	0.406595	-0.135885	-0.078328
H53	H	0.416504	-0.058026	-0.131494
H54	H	0.491357	-0.096291	-0.078317
H55	H	0.350174	-0.035047	0.000036
H56	H	0.425022	-0.073324	0.053229
C57	C	0.641264	-0.044803	0.078441
C58	C	0.591050	-0.041276	0.000054
H59	H	0.674030	-0.092655	0.078445
H60	H	0.676631	-0.001755	0.078434
H61	H	0.607180	-0.042406	0.131607
H62	H	0.625134	-0.043668	-0.053112
H63	H	0.555679	-0.084337	0.000053
C64	C	1.120867	-0.357183	-0.078337
C65	C	1.120475	-0.309736	0.000055
H66	H	1.169343	-0.391183	-0.078338
H67	H	1.072938	-0.387576	-0.078337
H68	H	1.120600	-0.324964	-0.131500
H69	H	1.120736	-0.341955	0.053218
H70	H	1.168416	-0.279341	0.000064
H71	H	0.893916	0.203173	0.412982
C72	C	1.144620	-0.092249	0.078458
C73	C	1.135828	-0.138558	0.000071
H74	H	1.198057	-0.070928	0.078462
H75	H	1.103140	-0.050731	0.078451
H76	H	1.138640	-0.123686	0.131624
H77	H	1.141802	-0.107119	-0.053096
H78	H	1.177321	-0.180081	0.000070
H79	H	0.559580	0.237274	0.000040
C80	C	1.235241	-0.577192	0.000066
C81	C	1.174095	-0.515982	0.000063
H82	H	1.288672	-0.555861	0.000071
H83	H	1.229258	-0.608615	0.053232
H84	H	1.229267	-0.608606	-0.053115
H85	H	1.180065	-0.484572	0.053247
H86	H	1.180081	-0.484546	-0.053109
H87	H	1.138389	-0.672894	0.000053
C88	C	0.820237	-0.051868	-0.078354
C89	C	0.820609	-0.099329	0.000033
H90	H	0.771765	-0.017863	-0.078362
H91	H	0.868170	-0.021481	-0.078342
H92	H	0.820509	-0.084077	-0.131520
H93	H	0.820342	-0.067121	0.053199
H94	H	0.772663	-0.129719	0.000029
H95	H	0.865956	-0.638991	0.000039
C96	C	0.788224	-0.521584	0.000038
C97	C	0.858874	-0.476768	0.000034
H98	H	0.739753	-0.487576	0.000048
H99	H	0.788495	-0.553772	-0.053135
H100	H	0.788505	-0.553788	0.053213
H101	H	0.858597	-0.444568	-0.053145
H102	H	0.858603	-0.444567	0.053212
C103	C	0.813913	-0.352679	0.000037
C104	C	0.805253	-0.270518	0.000031
H105	H	0.760479	-0.374006	0.000042
H106	H	0.843559	-0.369876	-0.053132
H107	H	0.843562	-0.369877	0.053216
H108	H	0.775609	-0.253320	-0.053151
H109	H	0.775594	-0.253314	0.053205
C110	C	1.146775	-0.051485	0.461705
C111	C	1.100456	-0.004832	0.399310
H112	H	1.182580	-0.087560	0.429141
H113	H	1.178984	-0.018932	0.499131
H114	H	1.110170	-0.079611	0.499150
H115	H	1.137061	0.023299	0.361870
H116	H	1.068244	-0.037389	0.361869
C117	C	1.052981	-0.052810	0.655976
C118	C	1.100467	-0.004828	0.600786
H119	H	1.088798	-0.088882	0.688534
H120	H	1.021561	-0.021158	0.698290
H121	H	1.016388	-0.080940	0.618527
H122	H	1.137056	0.023307	0.638236
H123	H	1.131901	-0.036484	0.558467
C124	C	0.890051	0.207106	0.695165
C125	C	0.878898	0.218322	0.600786
H126	H	0.854246	0.243183	0.727727
H127	H	0.877330	0.154931	0.710899
H128	H	0.946142	0.215611	0.710876
H129	H	0.822808	0.209811	0.585074
H130	H	0.891614	0.270509	0.585045
H131	H	0.891642	-0.395049	0.000034
H132	H	1.087705	-0.391465	0.000026
