data_functionalizedCrystal
_audit_creation_method	'MofGen! by Chris Wilmer'
_symmetry_space_group_name_H-M	'P1'
_symmetry_Int_Tables_number	1
_symmetry_cell_setting	triclinic
loop_
_symmetry_equiv_pos_as_xyz
  x,y,z
_cell_length_a	6.817900
_cell_length_b	15.301126
_cell_length_c	16.418042
_cell_angle_alpha	95.179687
_cell_angle_beta	103.389568
_cell_angle_gamma	104.177575
loop_
_atom_site_label
_atom_site_type_symbol
_atom_site_fract_x
_atom_site_fract_y
_atom_site_fract_z
V1	V	-4.029051	-0.125492	-0.261410
O2	O	-4.012948	0.005276	-0.256172
O3	O	-3.983989	-0.248105	-0.259874
O4	O	-3.980081	-0.123893	-0.375305
O5	O	-4.016883	-0.119796	-0.139942
V6	V	-4.512320	-0.109812	-0.246851
O7	O	-4.290866	-0.159889	-0.293346
O8	O	-4.700703	-0.075415	-0.214914
O9	O	-4.334176	0.012801	-0.248386
O10	O	-4.645821	-0.240581	-0.252089
O11	O	-4.641886	-0.115509	-0.368319
O12	O	-4.338084	-0.111411	-0.132956
C13	C	-3.829821	-0.277985	-0.255815
C14	C	-3.874260	-0.378224	-0.255318
C15	C	-4.077354	-0.429922	-0.259272
C16	C	-4.119101	-0.524108	-0.258811
C17	C	-3.957747	-0.566594	-0.254389
C18	C	-3.754637	-0.514891	-0.250437
C19	C	-3.712897	-0.420707	-0.250905
C20	C	-3.841649	-0.711199	-0.249461
C21	C	-3.883391	-0.805388	-0.248991
C22	C	-4.247853	-0.814599	-0.257366
C23	C	-4.206113	-0.720416	-0.257834
C24	C	-4.003004	-0.668719	-0.253881
C25	C	-3.824834	-0.119539	-0.403057
C26	C	-3.866102	-0.119043	-0.496169
C27	C	-4.143216	-0.122397	-0.714661
C28	C	-4.181971	-0.121923	-0.802148
C29	C	-3.817512	-0.112903	-0.793587
C30	C	-3.778756	-0.113370	-0.706101
C31	C	-3.941617	-0.118122	-0.666641
C32	C	-4.019129	-0.117180	-0.841614
C33	C	-4.061148	-0.116666	-0.936470
C34	C	-3.899595	-0.118635	-0.571778
C35	C	-4.151687	0.042676	-0.252443
C36	C	-4.086485	0.142915	-0.252945
C37	C	-4.156673	-0.115768	-0.105199
C38	C	-4.094644	-0.116260	-0.012086
H39	H	-3.547521	-0.378617	-0.247689
H40	H	-3.676264	-0.669110	-0.246248
H41	H	-4.346129	-0.125402	-0.841242
H42	H	-4.275829	-0.126265	-0.682536
O43	O	-3.659432	-0.108176	-0.832000
C44	C	-3.451248	-0.023876	-0.914236
C45	C	-3.630343	-0.029124	-0.870789
H46	H	-3.427644	0.040042	-0.945593
H47	H	-3.492853	-0.086813	-0.964344
H48	H	-3.300547	-0.020945	-0.864877
H49	H	-3.781116	-0.032027	-0.920086
H50	H	-3.588560	0.033811	-0.820666
O51	O	-4.233947	-0.388585	-0.263416
C52	C	-4.360021	-0.275118	-0.195905
C53	C	-4.182545	-0.321867	-0.191093
H54	H	-4.318506	-0.221153	-0.137448
H55	H	-4.512386	-0.328201	-0.198601
H56	H	-4.380500	-0.241349	-0.255268
H57	H	-4.161876	-0.355634	-0.131735
H58	H	-4.030277	-0.268745	-0.188444
O59	O	-4.316412	-0.574396	-0.262778
C60	C	-4.613283	-0.698578	-0.339968
C61	C	-4.389859	-0.641682	-0.335599
H62	H	-4.672716	-0.753004	-0.398829
H63	H	-4.721581	-0.652095	-0.343251
H64	H	-4.610897	-0.732796	-0.281013
H65	H	-4.392044	-0.607457	-0.394539
H66	H	-4.281655	-0.688209	-0.332273
H67	H	-3.614579	-0.109882	-0.667000
H68	H	-4.337502	-0.685826	-0.261430
O69	O	-4.445013	-0.864882	-0.261083
C70	C	-4.665390	-0.964053	-0.192437
C71	C	-4.442010	-0.907165	-0.188144
H72	H	-4.663044	-0.998239	-0.133466
H73	H	-4.725039	-1.018489	-0.251296
H74	H	-4.773498	-0.917488	-0.195707
H75	H	-4.333744	-0.953657	-0.184842
H76	H	-4.382533	-0.852721	-0.129295
H77	H	-3.752013	-0.839982	-0.245416
H78	H	-3.623266	-0.549491	-0.246842
