data_functionalizedCrystal
_audit_creation_method	'MofGen! by Chris Wilmer'
_symmetry_space_group_name_H-M	'P1'
_symmetry_Int_Tables_number	1
_symmetry_cell_setting	triclinic
loop_
_symmetry_equiv_pos_as_xyz
  x,y,z
_cell_length_a	13.635800
_cell_length_b	23.753023
_cell_length_c	19.551595
_cell_angle_alpha	100.886462
_cell_angle_beta	101.660503
_cell_angle_gamma	79.932472
loop_
_atom_site_label
_atom_site_type_symbol
_atom_site_fract_x
_atom_site_fract_y
_atom_site_fract_z
V1	V	1.933296	-0.178724	-0.097571
O2	O	1.990877	-0.174979	0.003781
O3	O	1.849685	-0.177831	-0.192594
O4	O	1.901504	-0.256522	-0.096469
O5	O	1.938699	-0.095744	-0.093010
V6	V	2.183792	-0.168759	-0.085401
O7	O	2.044765	-0.200583	-0.124267
O8	O	2.297422	-0.146900	-0.058706
O9	O	2.155800	-0.169652	0.009622
O10	O	2.184910	-0.172504	-0.186754
O11	O	2.237088	-0.251739	-0.089963
O12	O	2.103981	-0.090962	-0.086504
V13	V	2.433296	-0.178724	-0.097571
O14	O	2.490877	-0.174979	0.003781
O15	O	2.349685	-0.177831	-0.192594
O16	O	2.401504	-0.256522	-0.096469
O17	O	2.438699	-0.095744	-0.093010
V18	V	2.683792	-0.168759	-0.085401
O19	O	2.544765	-0.200583	-0.124267
O20	O	2.797422	-0.146900	-0.058706
O21	O	2.655800	-0.169652	0.009622
O22	O	2.684910	-0.172504	-0.186754
O23	O	2.737088	-0.251739	-0.089963
O24	O	2.603981	-0.090962	-0.086504
C25	C	1.824079	-0.275473	-0.093128
C26	C	1.838334	-0.339075	-0.092856
C27	C	1.905935	-0.741881	-0.155287
C28	C	1.919340	-0.801644	-0.155041
O29	O	1.908561	-0.839691	-0.209375
N30	N	1.946906	-0.823141	-0.090880
C31	C	1.961078	-0.784872	-0.026959
O32	O	1.985756	-0.808644	0.027638
C33	C	1.947680	-0.725110	-0.027206
C34	C	1.920104	-0.703617	-0.091371
C35	C	1.878362	-0.720387	-0.219447
C36	C	1.864956	-0.660628	-0.219692
C37	C	1.879124	-0.622364	-0.155776
C38	C	1.906698	-0.643858	-0.091616
C39	C	1.961859	-0.686843	0.036714
C40	C	1.948459	-0.627078	0.036462
C41	C	1.920882	-0.605585	-0.027704
C42	C	1.907460	-0.545835	-0.027945
N43	N	1.879895	-0.524338	-0.092107
C44	C	1.865726	-0.562602	-0.156023
C45	C	1.989214	-0.910375	-0.026447
C46	C	2.002605	-0.970135	-0.026200
C47	C	1.960868	-0.986903	-0.154282
C48	C	1.947470	-0.927141	-0.154529
C49	C	1.961648	-0.888878	-0.090609
C50	C	1.837575	-0.437104	-0.156532
C51	C	1.824166	-0.377340	-0.156771
C52	C	1.865909	-0.360577	-0.028689
C53	C	1.879311	-0.420337	-0.028450
C54	C	1.865145	-0.458600	-0.092377
O55	O	1.918227	-0.507754	0.026361
O56	O	1.841062	-0.538822	-0.210611
C57	C	1.757978	-0.175097	-0.215747
C58	C	1.730209	-0.174886	-0.293432
C59	C	2.079176	-0.172385	0.032770
C60	C	2.096563	-0.172600	0.110454
C61	C	2.013077	-0.072007	-0.089847
C62	C	1.988443	-0.008404	-0.090116
C63	C	2.257978	-0.175097	-0.215747
C64	C	2.230209	-0.174886	-0.293432
C65	C	1.805691	-0.177657	-0.333491
C66	C	1.779614	-0.177467	-0.406487
C67	C	1.678055	-0.174502	-0.439421
C68	C	1.602569	-0.171732	-0.399357
C69	C	1.628647	-0.171926	-0.326363
C70	C	2.193582	-0.169877	0.150511
C71	C	2.209944	-0.170153	0.223489
C72	C	2.129286	-0.173163	0.256406
C73	C	2.032252	-0.175883	0.216341
C74	C	2.015891	-0.175601	0.143365
C75	C	2.098612	-0.209503	0.362647
C76	C	2.114979	-0.209788	0.435621
C77	C	2.179746	-0.174029	0.481488
C78	C	2.228164	-0.137992	0.454371
C79	C	2.211802	-0.137710	0.381395
C80	C	2.147017	-0.173468	0.335536
C81	C	2.294512	-0.171604	0.600676
C82	C	2.310870	-0.171877	0.673656
C83	C	2.133177	-0.177612	0.666506
C84	C	2.116820	-0.177334	0.593528
C85	C	2.197492	-0.174333	0.560617
C86	C	2.324079	-0.275473	-0.093128
C87	C	2.338334	-0.339075	-0.092856
C88	C	2.579176	-0.172385	0.032770
C89	C	2.596563	-0.172600	0.110454
C90	C	2.513077	-0.072007	-0.089847
C91	C	2.488443	-0.008404	-0.090116
C92	C	2.433591	-0.371872	-0.096226
C93	C	2.447002	-0.431632	-0.095961
C94	C	2.365153	-0.458595	-0.092330
C95	C	2.269889	-0.425794	-0.088957
C96	C	2.256481	-0.366034	-0.089217
C97	C	2.693575	-0.169830	0.150513
C98	C	2.709923	-0.170022	0.223508
C99	C	2.629259	-0.172989	0.256442
C100	C	2.532238	-0.175758	0.216379
C101	C	2.515890	-0.175561	0.143386
C102	C	2.388065	0.018544	-0.093739
C103	C	2.364907	0.078306	-0.093984
C104	C	2.442127	0.111118	-0.090610
C105	C	2.542514	0.084166	-0.086985
C106	C	2.565672	0.024406	-0.086735
H107	H	1.826036	-0.468252	-0.208588
N108	N	2.309046	-0.167368	0.264426
N109	N	2.324203	-0.126343	0.313931
H110	H	2.394193	-0.124375	0.342843
N111	N	2.517196	-0.344330	-0.099936
N112	N	2.513358	-0.318127	-0.150380
H113	H	2.572411	-0.298678	-0.152997
N114	N	2.418466	0.172163	-0.090855
N115	N	2.377098	0.204013	-0.043008
H116	H	2.360382	0.247126	-0.043182
H117	H	1.984305	-0.704332	0.088965
N118	N	2.668202	-0.003128	-0.083046
N119	N	2.688882	-0.056485	-0.082827
H120	H	2.761298	-0.075930	-0.080220
H121	H	1.656834	-0.174344	-0.498857
N122	N	2.309176	-0.014958	-0.097160
N123	N	2.255775	-0.003747	-0.049993
H124	H	2.200057	-0.027405	-0.052399
H125	H	1.801707	-0.359843	-0.209024
N126	N	2.621374	0.117696	-0.083538
N127	N	2.600670	0.171051	-0.083765
H128	H	2.656363	0.194733	-0.081334
H129	H	2.178910	-0.339336	-0.086474
H130	H	2.283162	0.100242	-0.096936
H131	H	2.759268	-0.167414	0.123708
N132	N	1.836960	-0.638693	-0.285249
N133	N	1.824433	-0.672877	-0.342311
H134	H	1.804727	-0.657392	-0.388618
H135	H	2.788928	-0.167769	0.256118
H136	H	1.567174	-0.169666	-0.293751
N137	N	1.863889	-0.759459	-0.284748
N138	N	1.839272	-0.740248	-0.342023
H139	H	1.829042	-0.767840	-0.388147
N140	N	1.919176	-0.905194	-0.220073
N141	N	1.906442	-0.939369	-0.277128
H142	H	1.886412	-0.923871	-0.323421
H143	H	2.259272	-0.167432	0.123720
N144	N	1.856727	-0.180280	-0.447398
N145	N	1.855632	-0.140264	-0.481006
H146	H	1.910094	-0.142248	-0.509898
N147	N	2.065527	-0.246607	0.463304
N148	N	2.007695	-0.278528	0.422348
H149	H	1.972769	-0.304533	0.441897
N150	N	2.645983	-0.173187	0.331005
N151	N	2.732613	-0.170714	0.366757
H152	H	2.744432	-0.170855	0.419417
H153	H	1.949334	-1.018069	-0.206326
N154	N	2.449851	-0.178802	0.250021
N155	N	2.402361	-0.221248	0.231569
H156	H	2.344176	-0.223401	0.255329
H157	H	2.376085	-0.507256	-0.092119
H158	H	2.436893	-0.177822	0.110774
H159	H	1.519878	-0.169317	-0.426183
N160	N	2.030740	-0.992085	0.039345
N161	N	1.974733	-0.977536	0.084901
H162	H	1.994606	-0.993036	0.131194
N163	N	2.003697	-0.871299	0.038857
N164	N	2.028309	-0.890507	0.096135
H165	H	2.038540	-0.862913	0.142256
H166	H	1.960008	-0.595926	0.088514
H167	H	1.901771	-0.437837	0.023799
H168	H	2.280902	-0.108873	0.491715
N169	N	1.880368	-0.321477	0.036590
N170	N	1.868397	-0.268121	0.036354
H171	H	1.878614	-0.240505	0.082457
H172	H	1.888390	-0.180069	-0.306685
H173	H	2.524576	-0.458331	-0.098710
H174	H	2.251224	-0.108367	0.359320
N175	N	1.949870	-0.178952	0.249973
N176	N	1.964490	-0.179203	0.315130
H177	H	1.906304	-0.181368	0.338884
N178	N	2.032467	-0.246043	0.315801
N179	N	2.065442	-0.283532	0.268651
H180	H	2.018728	-0.309338	0.235568
N181	N	2.376896	-0.168538	0.567039
N182	N	2.401383	-0.208288	0.519132
H183	H	2.459566	-0.206123	0.495375
N184	N	2.409991	-0.169103	0.714558
N185	N	2.481435	-0.207702	0.700808
H186	H	2.551444	-0.205744	0.729693
N187	N	2.050791	-0.180678	0.700133
N188	N	2.065408	-0.180925	0.765290
H189	H	2.007221	-0.183087	0.789044
H190	H	1.936887	-0.177822	0.110751
N191	N	2.017727	-0.180128	0.552594
N192	N	2.003131	-0.179879	0.487438
H193	H	1.933141	-0.181851	0.458527
N194	N	2.186300	-0.453349	-0.085246
N195	N	2.198297	-0.506707	-0.085018
H196	H	2.139263	-0.526171	-0.082401
