data_functionalizedCrystal
_audit_creation_method	'MofGen! by Chris Wilmer'
_symmetry_space_group_name_H-M	'P1'
_symmetry_Int_Tables_number	1
_symmetry_cell_setting	triclinic
loop_
_symmetry_equiv_pos_as_xyz
  x,y,z
_cell_length_a	23.204063
_cell_length_b	23.204065
_cell_length_c	23.204116
_cell_angle_alpha	90.002541
_cell_angle_beta	120.002710
_cell_angle_gamma	60.000253
loop_
_atom_site_label
_atom_site_type_symbol
_atom_site_fract_x
_atom_site_fract_y
_atom_site_fract_z
O1	O	-0.508346	-0.395341	-0.017155
O2	O	-0.390333	-0.311537	0.017054
O3	O	-0.508342	-0.311536	-0.100958
O4	O	-0.390337	-0.395342	0.100857
O5	O	-0.412490	-0.407387	-0.100957
O6	O	-0.294482	-0.407388	0.017055
O7	O	-0.412495	-0.491192	-0.017155
Cu8	Cu	-0.344736	-0.458042	-0.000050
Cu9	Cu	-0.458091	-0.344687	-0.000051
O10	O	-0.294486	-0.491193	0.100857
C11	C	-0.212793	-0.144182	0.035748
C12	C	-0.253251	-0.068163	0.030852
C13	C	-0.142949	-0.179183	0.036234
C14	C	-0.212790	-0.248543	0.035754
C15	C	-0.253244	-0.284107	0.030863
C16	C	-0.142946	-0.283385	0.036239
C17	C	-0.108434	-0.248541	0.035748
C18	C	-0.037311	-0.284103	0.030852
C19	C	-0.247146	-0.179185	0.036239
C20	C	0.020148	-0.312832	0.026895
C21	C	-0.285938	-0.006747	0.026896
C22	C	-0.285928	-0.312839	0.026911
C23	C	0.092234	-0.348875	0.021932
C24	C	-0.326944	0.070302	0.021933
C25	C	-0.326930	-0.348884	0.021954
C26	C	-0.621381	-0.492071	-0.024951
C27	C	-0.692508	-0.456508	-0.020060
C28	C	-0.586869	-0.561428	-0.025441
C29	C	-0.517017	-0.492074	-0.024945
C30	C	-0.476558	-0.456513	-0.020046
C31	C	-0.482663	-0.561430	-0.025434
C32	C	-0.517022	-0.596430	-0.024951
C33	C	-0.476568	-0.672449	-0.020059
C34	C	-0.586864	-0.457230	-0.025435
C35	C	-0.590042	-0.248547	-0.445855
C36	C	-0.549585	-0.284109	-0.481418
C37	C	-0.659886	-0.179190	-0.480698
C38	C	-0.590041	-0.248548	-0.341496
C39	C	-0.549585	-0.284110	-0.265477
C40	C	-0.659886	-0.179191	-0.376497
C41	C	-0.694400	-0.144189	-0.445854
C42	C	-0.765524	-0.068171	-0.481415
C43	C	-0.555686	-0.283390	-0.376498
C44	C	-0.822984	-0.006755	-0.510145
C45	C	-0.516900	-0.312839	-0.510148
C46	C	-0.516899	-0.312840	-0.204061
C47	C	-0.895072	0.070293	-0.546188
C48	C	-0.475895	-0.348883	-0.546192
C49	C	-0.475894	-0.348884	-0.127012
O50	O	0.280999	-0.491187	-0.017170
O51	O	0.113389	-0.407379	0.017033
O52	O	0.113381	-0.407384	-0.100976
O53	O	0.281008	-0.491181	0.100840
O54	O	0.113378	-0.311532	-0.100981
O55	O	0.113387	-0.311527	0.017028
O56	O	0.280997	-0.395334	-0.017174
Cu57	Cu	0.197191	-0.344678	-0.000073
Cu58	Cu	0.197194	-0.458035	-0.000068
O59	O	0.281005	-0.395329	0.100835
O60	O	-0.412509	0.298171	-0.017173
O61	O	-0.294499	0.096358	0.017029
O62	O	-0.412512	0.214358	-0.100980
O63	O	-0.294496	0.180171	0.100836
O64	O	-0.508359	0.214355	-0.100975
O65	O	-0.390346	0.096356	0.017034
O66	O	-0.508356	0.298168	-0.017168
Cu67	Cu	-0.458103	0.197262	-0.000066
Cu68	Cu	-0.344752	0.197265	-0.000072
O69	O	-0.390343	0.180169	0.100841
O70	O	-1.083838	0.298157	-0.592639
O71	O	-0.916225	0.096346	-0.508838
O72	O	-0.916219	0.214349	-0.508829
O73	O	-1.083843	0.180155	-0.592648
O74	O	-0.916222	0.214352	-0.604681
O75	O	-0.916227	0.096349	-0.604691
O76	O	-1.083841	0.298160	-0.688491
Cu77	Cu	-1.000034	0.197255	-0.655343
Cu78	Cu	-1.000031	0.197251	-0.541986
O79	O	-1.083846	0.180157	-0.688500
O80	O	-0.390333	-0.395346	-0.688498
O81	O	-0.508342	-0.311535	-0.604695
O82	O	-0.390331	-0.311539	-0.604686
O83	O	-0.508344	-0.395343	-0.688506
O84	O	-0.294482	-0.407388	-0.508835
O85	O	-0.412493	-0.407385	-0.508844
O86	O	-0.294484	-0.491196	-0.592647
Cu87	Cu	-0.344737	-0.458042	-0.541993
Cu88	Cu	-0.458089	-0.344689	-0.655348
O89	O	-0.412495	-0.491193	-0.592655
C90	C	-0.181460	-0.596437	0.310616
C91	C	-0.110335	-0.672455	0.346176
C92	C	-0.215973	-0.561436	0.345460
C93	C	-0.285819	-0.492078	0.206258
C94	C	-0.326276	-0.456515	0.130239
C95	C	-0.320173	-0.457235	0.241261
C96	C	-0.285817	-0.492079	0.310618
C97	C	-0.326273	-0.456518	0.346181
C98	C	-0.215974	-0.561435	0.241259
C99	C	0.482995	-0.492057	0.310598
C100	C	0.523453	-0.456493	0.346159
C101	C	0.517352	-0.561413	0.345443
C102	C	0.378630	-0.492061	0.206239
C103	C	0.307501	-0.456501	0.130220
C104	C	0.413146	-0.561417	0.241243
C105	C	0.482995	-0.596416	0.310600
C106	C	0.523453	-0.672434	0.346164
C107	C	0.413146	-0.457216	0.241240
C108	C	-0.285829	0.172420	0.310596
C109	C	-0.326285	0.177318	0.346160
C110	C	-0.215987	0.171940	0.345436
C111	C	-0.285829	0.172404	0.206238
C112	C	-0.326284	0.177286	0.130220
C113	C	-0.215987	0.171924	0.241235
C114	C	-0.181475	0.172423	0.310591
C115	C	-0.110353	0.177325	0.346148
C116	C	-0.320183	0.171921	0.241241
C117	C	-0.212826	-0.144199	-0.445881
C118	C	-0.253285	-0.068182	-0.481445
C119	C	-0.247183	-0.179203	-0.480722
C120	C	-0.108461	-0.248554	-0.341519
C121	C	-0.037332	-0.284114	-0.265499
C122	C	-0.142976	-0.283399	-0.376519
C123	C	-0.212825	-0.248559	-0.445877
C124	C	-0.253282	-0.284124	-0.481438
C125	C	-0.142978	-0.179198	-0.376523
C126	C	-0.285969	-0.312855	-0.510167
C127	C	-0.285973	-0.006766	-0.510177
C128	C	0.020132	-0.312841	-0.204083
C129	C	-0.326975	-0.348901	-0.546209
C130	C	-0.326980	0.070281	-0.546223
C131	C	0.092223	-0.348882	-0.127033
O132	O	0.609675	-0.903629	0.395302
O133	O	0.491663	-0.701819	0.311487
O134	O	0.609667	-0.819824	0.311487
O135	O	0.491671	-0.785625	0.395302
O136	O	0.705522	-0.819818	0.407336
O137	O	0.587517	-0.701813	0.407336
O138	O	0.705530	-0.903623	0.491151
Cu139	Cu	0.655276	-0.802718	0.457996
Cu140	Cu	0.541917	-0.802725	0.344643
O141	O	0.587525	-0.785619	0.491151
C142	C	-0.694411	0.233009	-0.445864
C143	C	-0.765533	0.228108	-0.481422
C144	C	-0.659898	0.233492	-0.480709
C145	C	-0.590056	0.233028	-0.341511
C146	C	-0.549601	0.228146	-0.265494
C147	C	-0.555702	0.233511	-0.376514
C148	C	-0.590056	0.233011	-0.445870
C149	C	-0.549600	0.228112	-0.481433
C150	C	-0.659899	0.233508	-0.376509
C151	C	-0.516915	0.224153	-0.510165
C152	C	-0.822991	0.224147	-0.510149
C153	C	-0.516916	0.224201	-0.204079
C154	C	-0.475910	0.219187	-0.546210
C155	C	-0.895075	0.219178	-0.546188
C156	C	-0.475913	0.219252	-0.127032
H157	H	-0.114063	-0.340372	0.037024
O158	O	-0.415531	-0.595024	-0.026246
C159	C	-0.351201	-0.655868	0.034210
H160	H	-0.362120	-0.649493	0.077259
H161	H	-0.348293	-0.703939	0.020282
C162	C	-0.256697	-0.673835	0.008035
C163	C	-0.270105	-0.666003	0.060911
H164	H	-0.206672	-0.680090	0.024505
H165	H	-0.300037	-0.632845	-0.032697
H166	H	-0.254278	-0.713893	-0.003566
H167	H	-0.272533	-0.625941	0.072505
H168	H	-0.226762	-0.706987	0.101646
O169	O	-0.181429	0.170897	0.413456
C170	C	-0.100752	0.109796	0.456373
H171	H	-0.094033	0.067847	0.429699
H172	H	-0.056916	0.123370	0.464383
C173	C	-0.089169	0.132906	0.561223
C174	C	-0.080919	0.081381	0.528465
H175	H	-0.076932	0.115379	0.605695
H176	H	-0.143521	0.174072	0.532310
H177	H	-0.052638	0.144213	0.567892
H178	H	-0.117456	0.070082	0.521789
H179	H	-0.026572	0.040212	0.557379
O180	O	-0.694250	-0.145644	-0.548644
C181	C	-0.637297	-0.142133	-0.552525
H182	H	-0.589699	-0.146678	-0.498555
H183	H	-0.606060	-0.187283	-0.569370
C184	C	-0.740038	-0.065588	-0.673202
C185	C	-0.681582	-0.071163	-0.606916
H186	H	-0.767355	-0.021812	-0.706754
H187	H	-0.778409	-0.067955	-0.670588
H188	H	-0.713998	-0.103217	-0.687229
H189	H	-0.707624	-0.033540	-0.592886
H190	H	-0.643217	-0.068788	-0.609529
H191	H	-0.615759	-0.589525	-0.026228
H192	H	-0.114064	-0.151080	0.037021
O193	O	-0.314166	-0.145575	0.037217
C194	C	-0.337248	-0.076715	0.037513
H195	H	-0.282393	-0.074547	0.059166
H196	H	-0.387744	-0.037889	-0.018631
C197	C	-0.435722	-0.059533	0.057836
C198	C	-0.368346	-0.056872	0.084437
H199	H	-0.454908	-0.047291	0.086778
H200	H	-0.420174	-0.105925	0.057634
H201	H	-0.477793	-0.027179	0.011050
H202	H	-0.326273	-0.089233	0.131219
H203	H	-0.383888	-0.010485	0.084648
O204	O	-0.387295	0.171076	0.207755
C205	C	-0.451646	0.231565	0.204213
H206	H	-0.425642	0.252398	0.247725
H207	H	-0.492785	0.273953	0.150604
C208	C	-0.533433	0.186650	0.160541
C209	C	-0.501494	0.212234	0.213987
H210	H	-0.564184	0.174728	0.166566
H211	H	-0.490080	0.145898	0.162924
H212	H	-0.567711	0.221978	0.115872
H213	H	-0.467209	0.176904	0.258654
H214	H	-0.544842	0.252980	0.211611
H215	H	-0.615748	-0.400245	-0.026213
H216	H	-0.499469	-0.340370	-0.348393
O217	O	-0.694225	0.234408	-0.342864
C218	C	-0.648767	0.234763	-0.274024
H219	H	-0.584064	0.212002	-0.256787
H220	H	-0.678684	0.291251	-0.273436
C221	C	-0.725570	0.217547	-0.244074
C222	C	-0.646098	0.189586	-0.222901
H223	H	-0.723926	0.189683	-0.212539
H224	H	-0.756198	0.217310	-0.290453
H225	H	-0.750492	0.264620	-0.243584
H226	H	-0.621181	0.142518	-0.223400
H227	H	-0.615466	0.189814	-0.176520
H228	H	-0.688762	-0.151089	-0.348389
H229	H	-0.114079	-0.340389	-0.348417
O230	O	-0.181371	-0.594965	0.413488
C231	C	-0.100720	-0.614471	0.456365
H232	H	-0.077268	-0.618252	0.422533
H233	H	-0.099359	-0.573076	0.482395
C234	C	-0.074943	-0.681946	0.555291
C235	C	-0.046137	-0.686596	0.513740
H236	H	-0.041273	-0.726435	0.590685
H237	H	-0.129280	-0.668803	0.526405
H238	H	-0.073807	-0.647447	0.576976
H239	H	-0.047282	-0.721088	0.492048
H240	H	0.008202	-0.699747	0.542623
H241	H	-0.187085	-0.589537	0.213160
O242	O	-0.387140	-0.389213	0.207760
C243	C	-0.368949	-0.346304	0.188185
H244	H	-0.300324	-0.372986	0.223404
H245	H	-0.390550	-0.338286	0.130770
C246	C	-0.496885	-0.241448	0.153527
C247	C	-0.412600	-0.274217	0.196788
H248	H	-0.523813	-0.196980	0.158831
H249	H	-0.509143	-0.270356	0.166713
H250	H	-0.514875	-0.234773	0.105686
H251	H	-0.394610	-0.280899	0.244629
H252	H	-0.400340	-0.245308	0.183611
H253	H	-0.114095	-0.151092	-0.348425
H254	H	0.384257	-0.589517	0.213139
H255	H	-0.499497	0.234295	-0.348412
H256	H	-0.688790	0.234275	-0.537697
H257	H	0.573557	-0.589509	0.402431
O258	O	0.378622	-0.389191	0.207782
C259	C	0.355303	-0.346297	0.245566
H260	H	0.346776	-0.372989	0.278970
H261	H	0.404704	-0.338283	0.281384
C262	C	0.285091	-0.241424	0.152304
C263	C	0.274611	-0.274206	0.193327
H264	H	0.235319	-0.196953	0.120081
H265	H	0.300804	-0.270322	0.126849
H266	H	0.326261	-0.234752	0.182160
H267	H	0.233449	-0.280885	0.163471
H268	H	0.258889	-0.245306	0.218775
O269	O	-0.181660	0.171080	0.207609
C270	C	-0.238615	0.231560	0.146791
H271	H	-0.302957	0.252383	0.129281
H272	H	-0.227410	0.273959	0.159250
C273	C	-0.150025	0.186646	0.108683
C274	C	-0.229052	0.212218	0.087174
H275	H	-0.144125	0.174717	0.071909
H276	H	-0.111652	0.145901	0.149659
H277	H	-0.140697	0.221983	0.119065
H278	H	-0.238375	0.176878	0.076800
H279	H	-0.267427	0.252957	0.046195
H280	H	-0.303395	-0.151098	-0.537707
