data_functionalizedCrystal
_audit_creation_method	'MofGen! by Chris Wilmer'
_symmetry_space_group_name_H-M	'P1'
_symmetry_Int_Tables_number	1
_symmetry_cell_setting	triclinic
loop_
_symmetry_equiv_pos_as_xyz
  x,y,z
_cell_length_a	16.120484
_cell_length_b	16.120566
_cell_length_c	11.169409
_cell_angle_alpha	87.076307
_cell_angle_beta	87.139270
_cell_angle_gamma	89.831930
loop_
_atom_site_label
_atom_site_type_symbol
_atom_site_fract_x
_atom_site_fract_y
_atom_site_fract_z
Zn1	Zn	-0.395513	-1.254511	0.799019
Zn2	Zn	-0.062180	-0.921178	1.132352
Zn3	Zn	0.271153	-0.587844	1.465685
Zn4	Zn	-0.534592	-1.247345	0.607939
Zn5	Zn	-0.201259	-0.914012	0.941273
Zn6	Zn	0.132074	-0.580679	1.274606
Zn7	Zn	-0.388503	-1.115441	0.587680
Zn8	Zn	-0.055170	-0.782107	0.921013
Zn9	Zn	0.278164	-0.448774	1.254346
Zn10	Zn	-0.527468	-1.108363	0.797909
Zn11	Zn	-0.194135	-0.775030	1.131242
Zn12	Zn	0.139199	-0.441696	1.464576
O13	O	-0.461519	-1.181415	0.698137
O14	O	-0.128186	-0.848082	1.031470
O15	O	0.205147	-0.514748	1.364803
O16	O	-0.419878	-1.369927	0.782615
O17	O	-0.086544	-1.036593	1.115948
O18	O	0.246789	-0.703260	1.449281
O19	O	-0.515261	-1.229811	0.437303
O20	O	-0.181928	-0.896478	0.770636
O21	O	0.151406	-0.563145	1.103970
O22	O	-0.273071	-1.139850	0.607700
O23	O	0.060263	-0.806516	0.941033
O24	O	0.393596	-0.473183	1.274367
O25	O	-0.522059	-1.364662	0.642230
O26	O	-0.188725	-1.031329	0.975563
O27	O	0.144608	-0.697995	1.308896
O28	O	-0.278221	-1.242024	0.762970
O29	O	0.055112	-0.908691	1.096303
O30	O	0.388446	-0.575357	1.429636
O31	O	-0.407930	-1.132901	0.422418
O32	O	-0.074597	-0.799568	0.755752
O33	O	0.258737	-0.466235	1.089085
O34	O	-0.401022	-0.998136	0.606624
O35	O	-0.067688	-0.664803	0.939957
O36	O	0.265645	-0.331469	1.273291
O37	O	-0.509916	-1.127787	0.966005
O38	O	-0.176583	-0.794453	1.299339
O39	O	0.156751	-0.461120	1.632672
O40	O	-0.503119	-0.992936	0.761079
O41	O	-0.169785	-0.659603	1.094412
O42	O	0.163548	-0.326269	1.427745
O43	O	-0.412970	-1.235161	0.966820
O44	O	-0.079636	-0.901828	1.300154
O45	O	0.253697	-0.568494	1.633487
O46	O	-0.650010	-1.222948	0.641154
O47	O	-0.316676	-0.889615	0.974487
O48	O	0.016657	-0.556282	1.307820
O49	O	-0.644775	-1.120839	0.780724
O50	O	-0.311442	-0.787505	1.114057
O51	O	0.021891	-0.454172	1.447390
C52	C	-0.450537	-0.965364	0.681533
C53	C	-0.117204	-0.632030	1.014867
C54	C	0.216130	-0.298697	1.348200
C55	C	-0.445859	-0.872935	0.674460
C56	C	-0.112525	-0.539601	1.007793
C57	C	0.220808	-0.206268	1.341127
C58	C	-0.677565	-1.170370	0.713045
C59	C	-0.344232	-0.837037	1.046378
C60	C	-0.010899	-0.503704	1.379711
C61	C	-0.769994	-1.165721	0.719468
C62	C	-0.436661	-0.832388	1.052802
C63	C	-0.103328	-0.499055	1.386135
C64	C	-0.939224	-1.157239	0.731221
C65	C	-0.605891	-0.823905	1.064555
C66	C	-0.272558	-0.490572	1.397888
C67	C	-0.982981	-1.205741	0.665083
C68	C	-0.649648	-0.872407	0.998417
C69	C	-0.316314	-0.539074	1.331750
C70	C	-1.077146	-1.201021	0.671623
C71	C	-0.743813	-0.867687	1.004956
C72	C	-0.410480	-0.534354	1.338289
C73	C	-0.845050	-1.161957	0.724683
C74	C	-0.511717	-0.828624	1.058017
C75	C	-0.178384	-0.495291	1.391350
C76	C	-0.437298	-0.703707	0.661555
C77	C	-0.103965	-0.370374	0.994889
C78	C	0.229368	-0.037040	1.328222
C79	C	-0.485812	-0.659960	0.734733
C80	C	-0.152478	-0.326627	1.068066
C81	C	0.180855	0.006707	1.401399
C82	C	-0.481049	-0.565796	0.727552
C83	C	-0.147715	-0.232463	1.060886
C84	C	0.185618	0.100871	1.394219
C85	C	-0.442060	-0.797880	0.668734
C86	C	-0.108727	-0.464546	1.002067
C87	C	0.224606	-0.131213	1.335401
C88	C	-0.244631	-1.192526	0.683199
C89	C	0.088703	-0.859192	1.016532
C90	C	0.422036	-0.525859	1.349865
C91	C	-0.152206	-1.197260	0.676833
C92	C	0.181128	-0.863927	1.010166
C93	C	0.514461	-0.530594	1.343499
C94	C	-0.461430	-1.181484	1.011178
C95	C	-0.128097	-0.848150	1.344511
C96	C	0.205237	-0.514817	1.677845
C97	C	-0.461392	-1.181513	1.144577
C98	C	-0.128059	-0.848180	1.477911
C99	C	0.205275	-0.514846	1.811244
C100	C	-0.472547	-0.398310	0.714786
C101	C	-0.139214	-0.064977	1.048120
C102	C	0.194119	0.268357	1.381453
C103	C	-0.477254	-0.490738	0.721832
C104	C	-0.143920	-0.157404	1.055165
C105	C	0.189413	0.175929	1.388498
C106	C	-0.461550	-1.181398	0.386313
C107	C	-0.128217	-0.848064	0.719646
C108	C	0.205116	-0.514731	1.052980
C109	C	-0.461362	-1.181542	0.252910
C110	C	-0.128029	-0.848208	0.586244
C111	C	0.205304	-0.514875	0.919577
H112	H	-0.949722	-1.250808	0.603549
H113	H	-0.616388	-0.917475	0.936882
H114	H	-0.283055	-0.584142	1.270216
Br115	Br	-0.994655	-1.082125	0.833775
Br116	Br	-0.661322	-0.748791	1.167109
Br117	Br	-0.327989	-0.415458	1.500442
H118	H	-0.530921	-0.693227	0.802776
H119	H	-0.197588	-0.359894	1.136109
H120	H	0.135745	-0.026560	1.469442
H121	H	-0.392192	-0.670442	0.593519
H122	H	-0.058858	-0.337109	0.926852
H123	H	0.274475	-0.003775	1.260185
