data_functionalizedCrystal
_audit_creation_method	'MofGen! by Chris Wilmer'
_symmetry_space_group_name_H-M	'P1'
_symmetry_Int_Tables_number	1
_symmetry_cell_setting	triclinic
loop_
_symmetry_equiv_pos_as_xyz
  x,y,z
_cell_length_a	14.908520
_cell_length_b	14.908618
_cell_length_c	18.215399
_cell_angle_alpha	93.313798
_cell_angle_beta	93.269364
_cell_angle_gamma	89.795563
loop_
_atom_site_label
_atom_site_type_symbol
_atom_site_fract_x
_atom_site_fract_y
_atom_site_fract_z
Zn1	Zn	-0.437459	-1.353960	-0.500345
Zn2	Zn	0.062541	-0.853960	-0.000345
Zn3	Zn	-0.587820	-1.345177	-0.383942
Zn4	Zn	-0.087820	-0.845177	0.116058
Zn5	Zn	-0.428793	-1.203595	-0.369817
Zn6	Zn	0.071207	-0.703595	0.130183
Zn7	Zn	-0.579079	-1.194888	-0.499491
Zn8	Zn	-0.079079	-0.694888	0.000509
O9	O	-0.508288	-1.274405	-0.438399
O10	O	-0.008288	-0.774405	0.061601
O11	O	-0.464690	-1.478619	-0.491173
O12	O	0.035310	-0.978619	0.008827
O13	O	-0.566756	-1.326365	-0.279084
O14	O	-0.066756	-0.826365	0.220916
O15	O	-0.304121	-1.230861	-0.381578
O16	O	0.195879	-0.730861	0.118422
O17	O	-0.575160	-1.472167	-0.405652
O18	O	-0.075160	-0.972167	0.094348
O19	O	-0.310488	-1.341333	-0.477477
O20	O	0.189512	-0.841333	0.022523
O21	O	-0.449920	-1.222345	-0.268706
O22	O	0.050080	-0.722345	0.231294
O23	O	-0.441443	-1.076616	-0.380750
O24	O	0.058557	-0.576616	0.119250
O25	O	-0.560261	-1.216020	-0.602589
O26	O	-0.060261	-0.716020	-0.102589
O27	O	-0.551858	-1.070218	-0.476021
O28	O	-0.051858	-0.570218	0.023979
O29	O	-0.456214	-1.332890	-0.603216
O30	O	0.043786	-0.832890	-0.103216
O31	O	-0.712482	-1.317921	-0.404824
O32	O	-0.212482	-0.817921	0.095176
O33	O	-0.706060	-1.207504	-0.489717
O34	O	-0.206060	-0.707504	0.010283
C35	C	-0.494762	-1.040792	-0.426760
C36	C	0.005238	-0.540792	0.073240
C37	C	-0.488998	-0.940850	-0.421800
C38	C	0.011002	-0.440850	0.078200
C39	C	-0.741897	-1.260839	-0.448728
C40	C	-0.241897	-0.760839	0.051272
C41	C	-0.841840	-1.255118	-0.453175
C42	C	-0.341840	-0.755118	0.046825
C43	C	-0.593318	-0.746425	-0.511565
C44	C	-0.093318	-0.246425	-0.011565
C45	C	-0.587905	-0.652521	-0.506907
C46	C	-0.087905	-0.152521	-0.006907
C47	C	-0.472753	-0.659135	-0.407829
C48	C	0.027247	-0.159135	0.092171
C49	C	-0.478167	-0.753040	-0.412487
C50	C	0.021833	-0.253040	0.087513
C51	C	-0.538452	-0.796681	-0.464356
C52	C	-0.038452	-0.296681	0.035644
C53	C	-0.543870	-0.890587	-0.469010
C54	C	-0.043870	-0.390587	0.030990
C55	C	-0.428714	-0.897200	-0.369936
C56	C	0.071286	-0.397200	0.130064
C57	C	-0.423301	-0.803296	-0.365278
C58	C	0.076699	-0.303296	0.134722
C59	C	-1.036279	-1.359462	-0.373215
C60	C	-0.536279	-0.859462	0.126785
C61	C	-1.130185	-1.354090	-0.377391
C62	C	-0.630185	-0.854090	0.122609
C63	C	-1.123561	-1.239005	-0.465708
C64	C	-0.623561	-0.739005	0.034292
C65	C	-1.029655	-1.244378	-0.461532
C66	C	-0.529655	-0.744378	0.038468
C67	C	-0.986017	-1.304607	-0.415283
C68	C	-0.486017	-0.804607	0.084717
C69	C	-0.892109	-1.309975	-0.411103
C70	C	-0.392109	-0.809975	0.088897
C71	C	-0.885487	-1.194895	-0.499423
C72	C	-0.385487	-0.694895	0.000577
C73	C	-0.979393	-1.189523	-0.503600
C74	C	-0.479393	-0.689523	-0.003600
C75	C	-0.273768	-1.288048	-0.428047
C76	C	0.226232	-0.788048	0.071953
C77	C	-0.173829	-1.293862	-0.423636
C78	C	0.326171	-0.793862	0.076364
C79	C	-0.508229	-1.274463	-0.630352
C80	C	-0.008229	-0.774463	-0.130352
C81	C	-0.508204	-1.274488	-0.712151
C82	C	-0.008204	-0.774488	-0.212151
C83	C	-0.521860	-0.508930	-0.450078
C84	C	-0.021860	-0.008930	0.049922
C85	C	-0.527625	-0.608872	-0.455040
C86	C	-0.027625	-0.108872	0.044960
C87	C	-0.453974	-1.335366	-0.900671
C88	C	0.046026	-0.835366	-0.400671
C89	C	-0.453948	-1.335378	-0.977530
C90	C	0.046052	-0.835378	-0.477530
C91	C	-0.562298	-1.213682	-0.976865
C92	C	-0.062298	-0.713682	-0.476865
C93	C	-0.562319	-1.213666	-0.900008
C94	C	-0.062319	-0.713666	-0.400008
C95	C	-0.508158	-1.274513	-0.861913
C96	C	-0.008158	-0.774513	-0.361913
C97	C	-0.508112	-1.274541	-1.015629
C98	C	-0.008112	-0.774541	-0.515629
C99	C	-0.508085	-1.274554	-1.098962
C100	C	-0.008085	-0.774554	-0.598962
C101	C	-0.508184	-1.274500	-0.778575
C102	C	-0.008184	-0.774500	-0.278575
C103	C	-0.508284	-1.274402	-0.247192
C104	C	-0.008284	-0.774402	0.252808
C105	C	-0.508066	-1.274566	-0.165391
C106	C	-0.008066	-0.774566	0.334609
H107	H	-0.592959	-0.926118	-0.511244
H108	H	-0.092959	-0.426118	-0.011244
H109	H	-0.844553	-1.150226	-0.533675
H110	H	-0.344553	-0.650226	-0.033675
H111	H	-0.856580	-1.359014	-0.373442
H112	H	-0.356580	-0.859014	0.126558
H113	H	-1.000748	-1.408498	-0.335551
H114	H	-0.500748	-0.908498	0.164449
H115	H	-1.171105	-1.398760	-0.343137
H116	H	-0.671105	-0.898760	0.156863
H117	H	-0.409825	-1.384929	-1.009083
H118	H	0.090175	-0.884929	-0.509083
C119	C	-0.659630	-0.794433	-0.568614
C120	C	-0.159630	-0.294433	-0.068614
H121	H	-0.691530	-0.751052	-0.596066
H122	H	-0.191530	-0.251052	-0.096066
H123	H	-0.700872	-0.828784	-0.543957
H124	H	-0.200872	-0.328784	-0.043957
H125	H	-0.627392	-0.833072	-0.601028
H126	H	-0.127392	-0.333072	-0.101028
C127	C	-0.621930	-1.146731	-0.857372
C128	C	-0.121930	-0.646731	-0.357372
H129	H	-0.654194	-1.110504	-0.891067
H130	H	-0.154194	-0.610504	-0.391067
H131	H	-0.585280	-1.109547	-0.823916
H132	H	-0.085280	-0.609547	-0.323916
H133	H	-0.663106	-1.178853	-0.830837
H134	H	-0.163106	-0.678853	-0.330837
H135	H	-0.374216	-0.767750	-0.323050
H136	H	0.125784	-0.267750	0.176950
H137	H	-0.384040	-0.938129	-0.331494
H138	H	0.115960	-0.438129	0.168506
C139	C	-1.027400	-1.123272	-0.554466
C140	C	-0.527400	-0.623272	-0.054466
H141	H	-1.090525	-1.127923	-0.550925
H142	H	-0.590525	-0.627923	-0.050925
H143	H	-1.012719	-1.137268	-0.603890
H144	H	-0.512719	-0.637268	-0.103890
H145	H	-1.008578	-1.063742	-0.539950
H146	H	-0.508578	-0.563742	-0.039950
H147	H	-0.632580	-0.611605	-0.545351
H148	H	-0.132580	-0.111605	-0.045351
H149	H	-1.159108	-1.189975	-0.503367
H150	H	-0.659108	-0.689975	-0.003367
H151	H	-0.409870	-1.384909	-0.869657
H152	H	0.090130	-0.884909	-0.369657
C153	C	-0.406438	-0.611124	-0.350783
C154	C	0.093562	-0.111124	0.149217
H155	H	-0.374529	-0.654502	-0.323336
H156	H	0.125471	-0.154502	0.176664
H157	H	-0.438667	-0.572476	-0.318376
H158	H	0.061333	-0.072476	0.181624
H159	H	-0.365192	-0.576783	-0.375451
H160	H	0.134808	-0.076783	0.124549
H161	H	-0.606396	-1.164145	-1.007891
H162	H	-0.106396	-0.664145	-0.507891
