data_functionalizedCrystal
_audit_creation_method	'MofGen! by Chris Wilmer'
_symmetry_space_group_name_H-M	'P1'
_symmetry_Int_Tables_number	1
_symmetry_cell_setting	triclinic
loop_
_symmetry_equiv_pos_as_xyz
  x,y,z
_cell_length_a	14.853554
_cell_length_b	8.597213
_cell_length_c	7.681481
_cell_angle_alpha	88.167023
_cell_angle_beta	95.749301
_cell_angle_gamma	95.514244
loop_
_atom_site_label
_atom_site_type_symbol
_atom_site_fract_x
_atom_site_fract_y
_atom_site_fract_z
O1	O	-0.160705	2.036657	-0.455405
O2	O	-0.167109	1.586647	-0.387138
O3	O	-0.032880	1.823684	-0.423088
O4	O	-0.294935	1.799620	-0.419455
O5	O	-0.016320	1.852859	-0.134655
O6	O	-0.150549	1.615822	-0.098705
O7	O	-0.144145	2.065832	-0.166972
Zn8	Zn	-0.144718	1.845459	-0.087044
Zn9	Zn	-0.166536	1.807020	-0.467067
O10	O	-0.278375	1.828795	-0.131023
C11	C	-0.157219	1.543644	-0.234185
C12	C	-0.152411	1.372043	-0.208153
C13	C	-0.320262	1.815294	-0.275406
C14	C	-0.420402	1.818549	-0.275907
C15	C	-0.852841	1.816487	-0.435219
C16	C	-0.834772	1.848295	-0.120758
C17	C	-0.740687	1.845217	-0.120293
C18	C	-0.702675	1.827776	-0.277293
C19	C	-0.758747	1.813413	-0.434759
C20	C	-0.684606	1.859595	0.037168
C21	C	-0.590515	1.856519	0.037640
C22	C	-0.552502	1.839067	-0.119361
C23	C	-0.608581	1.824702	-0.276833
C24	C	-0.570568	1.807260	-0.433833
C25	C	-0.626646	1.792884	-0.591306
C26	C	-0.720734	1.795961	-0.591760
C27	C	-0.458414	1.835990	-0.118907
C28	C	-0.476475	1.804186	-0.433373
C29	C	0.009007	1.837185	-0.278708
C30	C	0.109147	1.833928	-0.278219
C31	C	-0.154036	2.108834	-0.319929
C32	C	-0.158845	2.280435	-0.345973
N33	N	-0.129827	1.871705	0.172310
N34	N	-0.181420	1.780787	-0.726422
H35	H	-0.168039	1.333284	-0.483876
H36	H	-0.143226	1.319184	-0.070241
H37	H	-0.445533	1.789972	-0.561222
F38	F	-0.586179	1.774339	-0.758393
F39	F	-0.780418	1.780719	-0.759346
H40	H	-0.715563	1.873807	0.164987
F41	F	-0.250254	1.659476	0.193690
F42	F	-0.398736	1.851304	0.048671
F43	F	-0.912521	1.801208	-0.602807
H44	H	-0.865727	1.862507	0.007062
H45	H	-0.077169	1.964531	0.233437
H46	H	-0.544864	1.868224	0.165863
