data_functionalizedCrystal
_audit_creation_method	'MofGen! by Chris Wilmer'
_symmetry_space_group_name_H-M	'P1'
_symmetry_Int_Tables_number	1
_symmetry_cell_setting	triclinic
loop_
_symmetry_equiv_pos_as_xyz
  x,y,z
_cell_length_a	6.394989
_cell_length_b	8.559649
_cell_length_c	7.088929
_cell_angle_alpha	84.674985
_cell_angle_beta	96.401883
_cell_angle_gamma	78.138188
loop_
_atom_site_label
_atom_site_type_symbol
_atom_site_fract_x
_atom_site_fract_y
_atom_site_fract_z
O1	O	0.046611	-2.102790	-0.158959
O2	O	0.546611	-1.602790	0.341041
O3	O	-0.060915	-1.639750	-0.158964
O4	O	0.439085	-1.139750	0.341036
O5	O	0.297966	-1.877842	-0.158963
O6	O	0.797966	-1.377842	0.341037
O7	O	-0.312270	-1.864698	-0.158960
O8	O	0.187730	-1.364698	0.341040
O9	O	0.346024	-1.909659	0.159013
O10	O	0.846024	-1.409659	0.659013
O11	O	-0.012857	-1.671567	0.159011
O12	O	0.487143	-1.171567	0.659011
O13	O	0.094668	-2.134606	0.159017
O14	O	0.594668	-1.634606	0.659017
Cu15	Cu	0.045294	-1.905992	0.188048
Cu16	Cu	0.545294	-1.405992	0.688048
Cu17	Cu	-0.011540	-1.868365	-0.187995
Cu18	Cu	0.488460	-1.368365	0.312005
O19	O	-0.264213	-1.896514	0.159015
O20	O	0.235787	-1.396514	0.659015
C21	C	-0.045035	-1.596293	0.000022
C22	C	0.454965	-1.096293	0.500022
C23	C	-0.069290	-1.419401	0.000020
C24	C	0.430710	-0.919401	0.500020
N25	N	0.085270	-1.932468	0.452536
N26	N	0.585270	-1.432468	0.952536
C27	C	0.078788	-2.178063	0.000026
C28	C	0.578788	-1.678063	0.500026
C29	C	0.103041	-2.354954	0.000016
C30	C	0.603041	-1.854954	0.500016
C31	C	0.399399	-1.891151	0.000018
C32	C	0.899399	-1.391151	0.500018
C33	C	0.634359	-1.883208	0.000016
C34	C	1.134359	-1.383208	0.500016
N35	N	-0.051498	-1.841901	-0.452483
N36	N	0.448502	-1.341901	0.047517
H37	H	-0.235400	-1.339239	0.000010
H38	H	0.264600	-0.839239	0.500010
H39	H	0.269137	-1.435105	0.000006
H40	H	0.769137	-0.935105	0.500006
H41	H	0.227000	-2.026349	0.534192
H42	H	0.727000	-1.526349	1.034192
H43	H	-0.193231	-1.748038	0.465870
H44	H	0.306769	-1.248038	0.965870
