data_functionalizedCrystal
_audit_creation_method	'MofGen! by Chris Wilmer'
_symmetry_space_group_name_H-M	'P1'
_symmetry_Int_Tables_number	1
_symmetry_cell_setting	triclinic
loop_
_symmetry_equiv_pos_as_xyz
  x,y,z
_cell_length_a	10.654562
_cell_length_b	15.944551
_cell_length_c	9.730223
_cell_angle_alpha	90.002284
_cell_angle_beta	90.003039
_cell_angle_gamma	83.994421
loop_
_atom_site_label
_atom_site_type_symbol
_atom_site_fract_x
_atom_site_fract_y
_atom_site_fract_z
O1	O	1.666298	0.118024	0.114384
O2	O	1.300676	0.129252	0.114367
O3	O	1.493471	0.001421	0.114363
O4	O	1.473502	0.245855	0.114387
O5	O	1.493469	0.001425	-0.114217
O6	O	1.300674	0.129256	-0.114213
O7	O	1.666295	0.118027	-0.114196
Zn8	Zn	1.483484	0.123642	-0.150497
Zn9	Zn	1.483487	0.123638	0.150667
O10	O	1.473500	0.245858	-0.114193
C11	C	1.253888	0.128427	0.000075
C12	C	1.114477	0.125954	0.000068
C13	C	1.048960	0.124802	-0.124521
C14	C	0.917968	0.122485	-0.124498
C15	C	0.918021	0.122475	0.124713
C16	C	1.049012	0.124786	0.124688
C17	C	1.114426	0.125970	-0.249141
C18	C	1.048909	0.124819	-0.373740
C19	C	0.917916	0.122502	-0.373717
C20	C	0.852441	0.121335	-0.249096
C21	C	1.492641	-0.029876	0.000073
C22	C	1.490156	-0.123136	0.000072
C23	C	1.364712	-0.338723	0.000085
C24	C	1.422963	-0.399400	-0.112616
C25	C	1.485660	-0.293888	0.000082
C26	C	1.422993	-0.399386	0.112746
C27	C	1.481308	-0.458826	0.000098
C28	C	1.543944	-0.353337	-0.112712
C29	C	1.543957	-0.353317	0.112752
C30	C	1.602296	-0.413976	0.000023
C31	C	1.488163	-0.198872	0.000072
C32	C	1.478814	-0.553842	0.000099
C33	C	1.713084	0.118852	0.000099
C34	C	1.852494	0.121325	0.000115
C35	C	1.474330	0.277155	0.000100
C36	C	1.476816	0.370416	0.000110
N37	N	1.483491	0.123644	-0.356033
C38	C	1.568883	0.067060	-0.427961
C39	C	1.568880	0.067050	-0.571844
C40	C	1.398089	0.180215	-0.571859
C41	C	1.398088	0.180221	-0.427978
C42	C	1.654286	0.010483	-0.356015
C43	C	1.739686	-0.046105	-0.427943
C44	C	1.739683	-0.046115	-0.571826
C45	C	1.654280	0.010463	-0.643781
N46	N	1.483490	0.123628	0.356204
H47	H	0.864577	0.121558	-0.475171
F48	F	1.307207	0.240427	-0.648442
H49	H	1.264320	-0.305999	-0.000032
F50	F	1.307200	0.240443	-0.351427
H51	H	1.221086	0.127859	-0.249174
H52	H	1.809211	-0.092174	-0.369350
H53	H	1.102228	0.125762	-0.475201
H54	H	1.702777	-0.446550	-0.000036
F55	F	0.848334	0.121228	0.257333
F56	F	0.713030	0.118848	-0.249078
H57	H	1.595071	-0.332891	0.208041
H58	H	1.371822	-0.419762	0.208033
H59	H	1.654276	0.010444	-0.760941
F60	F	1.118744	0.126010	0.257289
H61	H	1.371806	-0.419804	-0.207900
H62	H	1.595056	-0.333048	-0.208096
F63	F	1.654300	0.010493	-0.202883
H64	H	1.809209	-0.092197	-0.630388
