data_functionalizedCrystal
_audit_creation_method	'MofGen! by Chris Wilmer'
_symmetry_space_group_name_H-M	'P1'
_symmetry_Int_Tables_number	1
_symmetry_cell_setting	triclinic
loop_
_symmetry_equiv_pos_as_xyz
  x,y,z
_cell_length_a	16.109302
_cell_length_b	10.654551
_cell_length_c	14.586319
_cell_angle_alpha	89.999036
_cell_angle_beta	89.994552
_cell_angle_gamma	83.973571
loop_
_atom_site_label
_atom_site_type_symbol
_atom_site_fract_x
_atom_site_fract_y
_atom_site_fract_z
O1	O	1.104091	0.161423	-0.076276
O2	O	1.604091	0.661423	0.423724
O3	O	0.862148	0.181511	-0.076268
O4	O	1.362148	0.681511	0.423732
O5	O	0.988682	-0.011348	-0.076272
O6	O	1.488682	0.488652	0.423728
O7	O	0.977557	0.354282	-0.076271
O8	O	1.477557	0.854282	0.423729
O9	O	0.988673	-0.011350	0.076208
O10	O	1.488673	0.488650	0.576208
O11	O	0.862139	0.181508	0.076213
O12	O	1.362139	0.681508	0.576213
O13	O	1.104082	0.161420	0.076205
O14	O	1.604082	0.661420	0.576205
Cu15	Cu	0.983110	0.171464	0.090132
Cu16	Cu	1.483110	0.671464	0.590132
Cu17	Cu	0.983120	0.171467	-0.090195
Cu18	Cu	1.483120	0.671467	0.409805
O19	O	0.977548	0.354279	0.076210
O20	O	1.477548	0.854279	0.576210
C21	C	0.831164	0.180695	-0.000027
C22	C	1.331164	0.680695	0.499973
C23	C	0.738854	0.178255	-0.000024
C24	C	1.238854	0.678255	0.499976
C25	C	0.526475	0.172612	0.083084
C26	C	1.026475	0.672612	0.583084
C27	C	0.439741	0.170306	0.083081
C28	C	0.939741	0.670306	0.583081
C29	C	0.439761	0.170315	-0.083162
C30	C	0.939761	0.670315	0.416838
C31	C	0.526494	0.172612	-0.083158
C32	C	1.026494	0.672612	0.416842
C33	C	0.569848	0.173767	-0.000032
C34	C	1.069848	0.673767	0.499968
C35	C	0.396382	0.169164	-0.000039
C36	C	0.896382	0.669164	0.499961
C37	C	0.302341	0.166664	-0.000043
C38	C	0.802341	0.666664	0.499957
C39	C	0.663895	0.176265	-0.000027
C40	C	1.163895	0.676265	0.499973
C41	C	0.987860	-0.058136	-0.000034
C42	C	1.487860	0.441864	0.499966
C43	C	0.985416	-0.197546	-0.000040
C44	C	1.485416	0.302454	0.499960
C45	C	0.984274	-0.263041	-0.083156
C46	C	1.484274	0.236959	0.416844
C47	C	0.981970	-0.394030	-0.083152
C48	C	1.481970	0.105970	0.416848
C49	C	0.981954	-0.394018	0.083091
C50	C	1.481954	0.105982	0.583091
C51	C	0.984251	-0.263031	0.083086
C52	C	1.484251	0.236969	0.583086
C53	C	0.985438	-0.197556	-0.166282
C54	C	1.485438	0.302444	0.333718
C55	C	0.984297	-0.263051	-0.249405
C56	C	1.484297	0.236949	0.250595
C57	C	0.981994	-0.394041	-0.249400
C58	C	1.481994	0.105959	0.250600
C59	C	0.980831	-0.459534	-0.166274
C60	C	1.480831	0.040466	0.333726
C61	C	1.135066	0.162236	-0.000038
C62	C	1.635066	0.662236	0.499962
C63	C	1.227376	0.164676	-0.000047
C64	C	1.727376	0.664676	0.499953
C65	C	0.978370	0.401067	-0.000031
C66	C	1.478370	0.901067	0.499969
C67	C	0.980814	0.540477	-0.000031
C68	C	1.480814	1.040477	0.499969
N69	N	0.983108	0.171461	0.216963
N70	N	1.483108	0.671461	0.716963
N71	N	0.983128	0.171460	-0.217026
N72	N	1.483128	0.671460	0.282974
C73	C	1.039156	0.086092	0.451968
C74	C	1.539156	0.586092	0.951968
C75	C	1.039159	0.086089	0.547949
C76	C	1.539159	0.586089	1.047949
C77	C	0.927074	0.256834	0.547963
C78	C	1.427074	0.756834	1.047963
C79	C	0.927068	0.256830	0.451983
C80	C	1.427068	0.756830	0.951983
C81	C	0.983114	0.171460	0.403988
C82	C	1.483114	0.671460	0.903988
C83	C	0.983122	0.171461	0.595949
C84	C	1.483122	0.671461	1.095949
C85	C	0.983124	0.171458	0.700016
C86	C	1.483124	0.671458	1.200016
C87	C	0.983111	0.171461	0.299914
C88	C	1.483111	0.671461	0.799914
H89	H	0.561810	0.173550	-0.150845
H90	H	1.061810	0.673550	0.349155
H91	H	0.985236	-0.209716	-0.317083
H92	H	1.485236	0.290284	0.182917
F93	F	0.980770	-0.463740	-0.337865
F94	F	1.480770	0.036260	0.162135
F95	F	0.393584	0.169078	0.171545
F96	F	0.893584	0.669078	0.671545
F97	F	0.393616	0.169062	-0.171625
F98	F	0.893616	0.669062	0.328375
F99	F	0.980717	-0.463726	0.171554
F100	F	1.480717	0.036274	0.671554
H101	H	1.084792	0.016572	0.587011
H102	H	1.584792	0.516572	1.087011
H103	H	0.978943	-0.566192	-0.166277
H104	H	1.478943	-0.066192	0.333723
F105	F	0.985471	-0.193323	0.171547
F106	F	1.485471	0.306677	0.671547
H107	H	0.987317	-0.090899	-0.166295
H108	H	1.487317	0.409101	0.333705
F109	F	1.098803	-0.004769	0.400892
F110	F	1.598803	0.495231	0.900892
H111	H	0.881444	0.326341	0.587050
H112	H	1.381444	0.826341	1.087050
F113	F	0.867415	0.347690	0.400916
F114	F	1.367415	0.847690	0.900916
H115	H	0.561771	0.173552	0.150771
H116	H	1.061771	0.673552	0.650771
