data_functionalizedCrystal
_audit_creation_method	'MofGen! by Chris Wilmer'
_symmetry_space_group_name_H-M	'P1'
_symmetry_Int_Tables_number	1
_symmetry_cell_setting	triclinic
loop_
_symmetry_equiv_pos_as_xyz
  x,y,z
_cell_length_a	10.723023
_cell_length_b	10.654550
_cell_length_c	9.198806
_cell_angle_alpha	90.002279
_cell_angle_beta	90.003500
_cell_angle_gamma	84.476225
loop_
_atom_site_label
_atom_site_type_symbol
_atom_site_fract_x
_atom_site_fract_y
_atom_site_fract_z
O1	O	1.657214	0.176143	0.120874
O2	O	1.294064	0.193004	0.120879
O3	O	1.483989	0.001833	0.120871
O4	O	1.467290	0.367314	0.120882
O5	O	1.483974	0.001831	-0.120914
O6	O	1.294049	0.193003	-0.120906
O7	O	1.657199	0.176141	-0.120911
Cu8	Cu	1.475623	0.184572	-0.142985
Cu9	Cu	1.475641	0.184574	0.142953
O10	O	1.467275	0.367312	-0.120903
C11	C	1.247557	0.191777	-0.000012
C12	C	1.109002	0.188106	-0.000010
C13	C	1.047222	0.186469	-0.125261
C14	C	0.904018	0.182675	-0.125262
C15	C	1.482755	-0.044966	-0.000020
C16	C	1.479087	-0.184408	-0.000015
C17	C	1.590911	-0.263911	-0.000021
C18	C	1.587457	-0.394931	-0.000011
C19	C	1.360344	-0.366933	0.000006
C20	C	1.363800	-0.235915	0.000006
C21	C	1.706199	-0.212404	-0.000042
C22	C	1.818033	-0.291908	-0.000049
C23	C	1.814578	-0.422928	-0.000039
C24	C	1.699290	-0.474445	-0.000021
C25	C	1.703707	0.177369	-0.000016
C26	C	1.842262	0.181039	-0.000009
C27	C	1.468508	0.414111	-0.000009
C28	C	1.472177	0.553554	-0.000005
N29	N	1.475620	0.184570	-0.344099
C30	C	1.548395	0.257395	-0.416296
C31	C	1.548414	0.257393	-0.583709
N32	N	1.475654	0.184566	0.344067
H33	H	1.055877	0.186696	0.107221
H34	H	0.895382	0.182455	0.107228
H35	H	0.850888	0.181274	-0.232493
Br36	Br	1.694605	-0.652260	-0.000075
H37	H	1.413339	0.122220	-0.593854
H38	H	1.905639	-0.487658	-0.000031
Br39	Br	1.203892	-0.436849	0.000031
H40	H	1.709024	-0.105722	-0.000054
Br41	Br	1.974487	-0.221997	-0.000048
Br42	Br	1.652236	0.361310	-0.312758
H43	H	1.413331	0.122217	-0.406229
Br44	Br	1.652257	0.361329	-0.687181
H45	H	1.100349	0.187869	-0.232492
Br46	Br	1.212036	-0.128010	0.000020
