data_functionalizedCrystal
_audit_creation_method	'MofGen! by Chris Wilmer'
_symmetry_space_group_name_H-M	'P1'
_symmetry_Int_Tables_number	1
_symmetry_cell_setting	triclinic
loop_
_symmetry_equiv_pos_as_xyz
  x,y,z
_cell_length_a	23.532407
_cell_length_b	10.654550
_cell_length_c	9.130313
_cell_angle_alpha	89.996274
_cell_angle_beta	89.994901
_cell_angle_gamma	83.666790
loop_
_atom_site_label
_atom_site_type_symbol
_atom_site_fract_x
_atom_site_fract_y
_atom_site_fract_z
O1	O	0.079982	1.665300	-0.121936
O2	O	0.087602	1.299580	-0.121914
O3	O	0.000932	1.493468	-0.121899
O4	O	0.166652	1.471412	-0.121952
O5	O	0.000936	1.493466	0.121700
O6	O	0.087606	1.299578	0.121684
O7	O	0.079985	1.665298	0.121662
Cu8	Cu	0.083796	1.482437	0.143916
Cu9	Cu	0.083792	1.482440	-0.144168
O10	O	0.166655	1.471409	0.121647
C11	C	0.087044	1.252799	-0.000112
C12	C	0.085370	1.113408	-0.000102
C13	C	-0.020286	1.492905	-0.000096
C14	C	-0.083514	1.491217	-0.000085
C15	C	0.136400	1.032306	-0.000140
C16	C	0.134824	0.901335	-0.000165
C17	C	0.031183	0.932582	-0.000121
C18	C	0.032760	1.063550	-0.000085
C19	C	0.196236	1.014265	-0.000172
C20	C	0.194660	0.883294	-0.000196
C21	C	-0.481938	1.595364	-0.000171
C22	C	-0.541349	1.593795	-0.000182
O23	O	-0.577464	1.690341	-0.000242
N24	N	-0.564726	1.478529	-0.000174
C25	C	-0.528689	1.364824	-0.000170
O26	O	-0.554029	1.266636	-0.000166
C27	C	-0.469280	1.366394	-0.000170
C28	C	-0.445906	1.481668	-0.000163
C29	C	-0.458564	1.710629	-0.000166
C30	C	-0.399158	1.712197	-0.000152
C31	C	-0.363126	1.598500	-0.000144
C32	C	-0.386500	1.483236	-0.000149
C33	C	-0.433244	1.252690	-0.000176
C34	C	-0.373832	1.254270	-0.000177
C35	C	-0.350458	1.369544	-0.000170
C36	C	-0.291061	1.371107	-0.000127
N37	N	-0.267684	1.486374	-0.000135
C38	C	-0.303716	1.600070	-0.000143
C39	C	-0.653453	1.361535	-0.000174
C40	C	-0.712861	1.359964	-0.000164
C41	C	-0.725517	1.588936	-0.000179
C42	C	-0.666108	1.590506	-0.000178
C43	C	-0.630076	1.476802	-0.000182
C44	C	-0.178958	1.603355	-0.000113
C45	C	-0.119546	1.604913	-0.000093
C46	C	-0.106896	1.375942	-0.000086
C47	C	-0.166303	1.374383	-0.000098
C48	C	-0.202333	1.488100	-0.000117
O49	O	-0.254911	1.274613	-0.000073
O50	O	-0.278369	1.698241	-0.000167
C51	C	0.187873	1.471972	-0.000159
C52	C	0.251101	1.473661	-0.000180
C53	C	0.080543	1.712079	-0.000143
C54	C	0.082217	1.851469	-0.000163
N55	N	0.083798	1.482444	0.346539
C56	C	0.045435	1.568320	0.423197
C57	C	0.045429	1.568316	0.576534
C58	C	0.122155	1.396558	0.576540
C59	C	0.122158	1.396557	0.423206
C60	C	0.001138	1.667486	0.423195
C61	C	0.001132	1.667483	0.576532
N62	N	0.083790	1.482443	0.653209
H63	H	-0.008793	1.129581	-0.000034
H64	H	-0.040231	1.638281	0.624094
H65	H	-0.731887	1.266096	-0.000144
H66	H	0.219640	1.042853	0.101772
H67	H	0.015008	1.758231	0.375626
O68	O	-0.334970	1.131626	-0.000159
H69	H	-0.343335	1.076424	-0.099439
O70	O	0.163534	1.303921	0.340531
H71	H	0.139300	1.243193	0.270694
O72	O	0.218616	0.822017	0.139091
H73	H	0.232594	0.895444	0.212956
O74	O	0.221477	1.060714	-0.139475
H75	H	0.233586	0.979423	-0.213356
H76	H	0.010890	1.763685	0.618139
H77	H	0.217204	0.840848	-0.102157
H78	H	-0.100519	1.698787	-0.000084
H79	H	-0.624119	1.268937	-0.000164
O80	O	-0.025560	0.878809	-0.000109
H81	H	-0.018084	0.774112	-0.000145
H82	H	-0.452264	1.158822	-0.000190
H83	H	-0.208288	1.695954	-0.000134
H84	H	-0.185334	1.280517	-0.000063
H85	H	-0.380133	1.806065	-0.000153
O86	O	-0.497421	1.833272	-0.000151
H87	H	-0.489045	1.888485	-0.099426
O88	O	-0.640898	1.714834	-0.000198
H89	H	-0.675940	1.793624	-0.000216
H90	H	0.153386	1.326630	0.638979
O91	O	-0.056841	1.640970	0.368036
H92	H	-0.052114	1.553835	0.300483
O93	O	-0.764385	1.711573	-0.000203
H94	H	-0.809622	1.691105	-0.000222
O95	O	-0.068028	1.253314	-0.000079
H96	H	-0.022792	1.273782	-0.000085
