data_functionalizedCrystal
_audit_creation_method	'MofGen! by Chris Wilmer'
_symmetry_space_group_name_H-M	'P1'
_symmetry_Int_Tables_number	1
_symmetry_cell_setting	triclinic
loop_
_symmetry_equiv_pos_as_xyz
  x,y,z
_cell_length_a	19.188930
_cell_length_b	10.654550
_cell_length_c	9.730223
_cell_angle_alpha	90.004253
_cell_angle_beta	90.017168
_cell_angle_gamma	83.814855
loop_
_atom_site_label
_atom_site_type_symbol
_atom_site_fract_x
_atom_site_fract_y
_atom_site_fract_z
O1	O	-0.927169	-0.156779	-0.114732
O2	O	-0.723996	-0.177885	-0.114638
O3	O	-0.830254	0.015506	-0.114678
O4	O	-0.820911	-0.350170	-0.114691
O5	O	-0.830247	0.015511	0.113902
O6	O	-0.723989	-0.177880	0.113942
O7	O	-0.927162	-0.156774	0.113848
Zn8	Zn	-0.825574	-0.167326	0.150187
Zn9	Zn	-0.825583	-0.167333	-0.150977
O10	O	-0.820904	-0.350165	0.113889
C11	C	-0.829564	0.062292	-0.000389
C12	C	-0.827512	0.201692	-0.000390
C13	C	-0.697977	-0.177199	-0.000336
C14	C	-0.620459	-0.175147	-0.000299
C15	C	-0.953181	-0.157460	-0.000457
C16	C	-1.030699	-0.159512	-0.000502
C17	C	-0.576277	-0.288622	-0.000325
C18	C	-0.503441	-0.286695	-0.000340
C19	C	-0.474789	-0.171286	-0.000357
C20	C	-0.518981	-0.057795	-0.000324
C21	C	-0.591816	-0.059726	-0.000295
N22	N	-0.366235	-0.083071	-0.078205
N23	N	-0.297044	-0.081245	-0.078235
C24	C	-0.255343	-0.165461	-0.000441
N25	N	-0.285444	-0.251593	0.077368
N26	N	-0.354641	-0.253423	0.077392
C27	C	-0.395813	-0.169179	-0.000387
C28	C	-0.132183	-0.276855	-0.000481
C29	C	-0.059345	-0.274922	-0.000487
C30	C	-0.074887	-0.046020	-0.000485
C31	C	-0.147723	-0.047955	-0.000465
C32	C	-0.176366	-0.163376	-0.000469
C33	C	-0.821594	-0.396951	-0.000404
C34	C	-0.823646	-0.536351	-0.000412
N35	N	-0.825573	-0.167321	0.355724
C36	C	-0.890075	0.282501	-0.000419
C37	C	-0.888142	0.413481	-0.000435
C38	C	-0.761078	0.382829	-0.000386
C39	C	-0.763011	0.251852	-0.000380
N40	N	-0.825590	-0.167328	-0.356513
C41	C	-0.872640	-0.081723	0.427632
C42	C	-0.872647	-0.081723	0.571514
C43	C	-0.778518	-0.252930	0.571569
C44	C	-0.778508	-0.252923	0.427689
H45	H	-0.599593	-0.382607	-0.000331
H46	H	-0.467461	-0.379103	-0.000357
H47	H	-0.740199	-0.322627	0.630177
H48	H	-0.023373	-0.367332	-0.000500
H49	H	-0.708564	0.423686	-0.000376
H50	H	-0.740177	-0.322627	0.369137
H51	H	-0.495648	0.036172	-0.000356
H52	H	-0.627789	0.032682	-0.000275
H53	H	-0.051560	0.047949	-0.000584
H54	H	-0.155505	-0.370837	-0.000464
H55	H	-0.183697	0.044449	-0.000451
H56	H	-0.939088	0.479272	-0.000462
H57	H	-0.942595	0.241666	-0.000430
H58	H	-0.712062	0.186053	-0.000360
H59	H	-0.910963	-0.012019	0.369041
H60	H	-0.910973	-0.012021	0.630058
