data_functionalizedCrystal
_audit_creation_method	'MofGen! by Chris Wilmer'
_symmetry_space_group_name_H-M	'P1'
_symmetry_Int_Tables_number	1
_symmetry_cell_setting	triclinic
loop_
_symmetry_equiv_pos_as_xyz
  x,y,z
_cell_length_a	15.995300
_cell_length_b	15.995350
_cell_length_c	15.455425
_cell_angle_alpha	92.984706
_cell_angle_beta	93.001191
_cell_angle_gamma	83.482091
loop_
_atom_site_label
_atom_site_type_symbol
_atom_site_fract_x
_atom_site_fract_y
_atom_site_fract_z
O1	O	1.114285	0.110982	0.072157
O2	O	1.614285	0.610982	0.572157
O3	O	0.870504	0.124353	0.072152
O4	O	1.370504	0.624353	0.572152
O5	O	0.999058	-0.004222	0.072154
O6	O	1.499058	0.495778	0.572154
O7	O	0.985731	0.239556	0.072155
O8	O	1.485731	0.739556	0.572155
O9	O	0.992503	-0.010735	-0.072106
O10	O	1.492503	0.489265	0.427894
O11	O	0.863948	0.117840	-0.072108
O12	O	1.363948	0.617840	0.427892
O13	O	1.107730	0.104469	-0.072103
O14	O	1.607730	0.604469	0.427897
Cu15	Cu	0.985241	0.110560	-0.085278
Cu16	Cu	1.485241	0.610560	0.414722
Cu17	Cu	0.992993	0.118262	0.085327
Cu18	Cu	1.492993	0.618262	0.585327
O19	O	0.979175	0.233043	-0.072105
O20	O	1.479175	0.733043	0.427895
C21	C	0.836031	0.120551	0.000021
C22	C	1.336031	0.620551	0.500021
C23	C	0.743078	0.118916	0.000019
C24	C	1.243078	0.618916	0.500019
C25	C	0.572895	0.115897	0.000026
C26	C	1.072895	0.615897	0.500026
C27	C	0.525429	0.207445	0.000024
C28	C	1.025429	0.707445	0.500024
C29	C	0.428756	0.205789	0.000354
C30	C	0.928756	0.705789	0.500354
C31	C	0.405339	0.112925	0.000031
C32	C	0.905339	0.612925	0.500031
C33	C	0.450208	0.071217	0.082248
C34	C	0.950208	0.571217	0.582248
C35	C	0.546844	0.073537	0.082315
C36	C	1.046844	0.573537	0.582315
C37	C	0.539668	0.064774	-0.081742
C38	C	1.039668	0.564774	0.418258
C39	C	0.442675	0.064734	-0.082820
C40	C	0.942675	0.564734	0.417180
C41	C	0.310644	0.111241	0.000037
C42	C	0.810644	0.611241	0.500037
C43	C	0.667591	0.117578	0.000025
C44	C	1.167591	0.617578	0.500025
C45	C	0.995230	-0.038673	0.000025
C46	C	1.495230	0.461327	0.500025
C47	C	0.993578	-0.131623	0.000030
C48	C	1.493578	0.368377	0.500030
C49	C	0.987646	-0.469369	0.000027
C50	C	1.487646	0.030631	0.500027
C51	C	0.896106	-0.421904	0.000349
C52	C	1.396106	0.078096	0.500349
C53	C	0.897744	-0.325229	0.000024
C54	C	1.397744	0.174771	0.500024
C55	C	0.990588	-0.301809	0.000029
C56	C	1.490588	0.198191	0.500029
C57	C	1.032003	-0.346614	-0.082348
C58	C	1.532003	0.153386	0.417652
C59	C	1.029700	-0.443252	-0.082417
C60	C	1.529700	0.056748	0.417583
C61	C	1.039046	-0.436204	0.081634
C62	C	1.539046	0.063796	0.581634
C63	C	1.039074	-0.339210	0.082723
C64	C	1.539074	0.160790	0.582723
C65	C	0.992256	-0.207112	0.000028
C66	C	1.492256	0.292888	0.500028
C67	C	0.985980	-0.564067	0.000023
C68	C	1.485980	-0.064067	0.500023
C69	C	1.142203	0.108271	0.000030
C70	C	1.642203	0.608271	0.500030
C71	C	1.235156	0.109906	0.000038
C72	C	1.735156	0.609906	0.500038
C73	C	0.983004	0.267494	0.000025
C74	C	1.483004	0.767494	0.500025
C75	C	0.984656	0.360444	0.000026
C76	C	1.484656	0.860444	0.500026
N77	N	0.979794	0.105142	-0.205271
N78	N	1.479794	0.605142	0.294729
C79	C	0.949726	0.074934	-0.749270
C80	C	1.449726	0.574934	-0.249270
C81	C	0.953840	0.079064	-0.658463
C82	C	1.453840	0.579064	-0.158463
C83	C	1.006670	0.131938	-0.613068
C84	C	1.506670	0.631938	-0.113068
C85	C	1.055396	0.180678	-0.658485
C86	C	1.555396	0.680678	-0.158485
C87	C	1.051286	0.176544	-0.749290
C88	C	1.551286	0.676544	-0.249290
C89	C	1.024410	0.149748	-0.341493
C90	C	1.524410	0.649748	0.158507
C91	C	1.028514	0.153881	-0.250681
C92	C	1.528514	0.653881	0.249319
C93	C	0.926959	0.052265	-0.250666
C94	C	1.426959	0.552265	0.249334
C95	C	0.922850	0.048138	-0.341473
C96	C	1.422850	0.548138	0.158527
C97	C	0.971579	0.096876	-0.386881
C98	C	1.471579	0.596876	0.113119
N99	N	1.010874	0.136162	-0.520249
N100	N	1.510874	0.636162	-0.020249
N101	N	0.967379	0.092646	-0.479698
N102	N	1.467379	0.592646	0.020302
N103	N	0.998447	0.123673	0.205320
N104	N	1.498447	0.623673	0.705320
H105	H	0.541242	0.241574	-0.058925
H106	H	1.041242	0.741574	0.441075
Br107	Br	0.860832	-0.013877	-0.189036
Br108	Br	1.360832	0.486123	0.310964
H109	H	1.100074	-0.332638	-0.085407
H110	H	1.600074	0.167362	0.414593
H111	H	0.906702	0.031884	-0.786223
H112	H	1.406702	0.531884	-0.286223
H113	H	1.011950	-0.453920	0.144071
H114	H	1.511950	0.046080	0.644071
H115	H	0.914169	0.039373	-0.621494
H116	H	1.414169	0.539373	-0.121494
H117	H	0.862197	-0.437762	0.059423
H118	H	1.362197	0.062238	0.559423
Br119	Br	1.090537	0.215897	-0.403107
Br120	Br	1.590537	0.715897	0.096893
H121	H	0.567967	0.109056	0.144006
H122	H	1.067967	0.609056	0.644006
Br123	Br	1.100241	0.225618	-0.189074
Br124	Br	1.600241	0.725618	0.310926
Br125	Br	0.376847	0.260847	-0.097850
Br126	Br	0.876847	0.760847	0.402150
Br127	Br	1.141446	-0.497308	-0.088651
Br128	Br	1.641446	0.002692	0.411349
H129	H	0.579277	0.006471	0.085827
H130	H	1.079277	0.506471	0.585827
H131	H	0.557336	0.092100	-0.144077
H132	H	1.057336	0.592100	0.355923
H133	H	0.879832	0.005082	-0.378427
H134	H	1.379832	0.505082	0.121573
Br135	Br	0.975087	-0.303918	-0.184532
Br136	Br	1.475087	0.196082	0.315468
Br137	Br	0.989123	-0.288658	0.184312
Br138	Br	1.489123	0.211342	0.684312
Br139	Br	0.830773	-0.459356	-0.097266
Br140	Br	1.330773	0.040644	0.402734
Br141	Br	0.426926	-0.042282	0.086964
Br142	Br	0.926926	0.457718	0.586964
Br143	Br	1.152299	-0.313246	0.091029
Br144	Br	1.652299	0.186754	0.591029
H145	H	0.424613	0.105129	0.143664
H146	H	0.924613	0.605129	0.643664
H147	H	1.098415	0.223725	-0.621517
H148	H	1.598415	0.723725	-0.121517
Br149	Br	1.117415	0.242685	-0.810919
Br150	Br	1.617415	0.742685	-0.310919
Br151	Br	0.392502	0.115436	-0.184203
Br152	Br	0.892502	0.615436	0.315797
H153	H	0.403602	0.244001	0.059634
H154	H	0.903602	0.744001	0.559634
Br155	Br	0.562566	0.272286	0.098144
Br156	Br	1.062566	0.772286	0.598144
H157	H	0.427100	-0.003195	-0.088028
H158	H	0.927100	0.496805	0.411972
Br159	Br	1.151596	-0.489118	0.082566
Br160	Br	1.651596	0.010882	0.582566
H161	H	0.571413	-0.002758	-0.082533
H162	H	1.071413	0.497242	0.417467
H163	H	0.864930	-0.294134	0.059074
H164	H	1.364930	0.205866	0.559074
Br165	Br	0.970149	-0.478384	-0.185055
Br166	Br	1.470149	0.021616	0.314945
Br167	Br	0.833696	-0.283217	-0.098566
Br168	Br	1.333696	0.216783	0.401434
