data_functionalizedCrystal
_audit_creation_method	'MofGen! by Chris Wilmer'
_symmetry_space_group_name_H-M	'P1'
_symmetry_Int_Tables_number	1
_symmetry_cell_setting	triclinic
loop_
_symmetry_equiv_pos_as_xyz
  x,y,z
_cell_length_a	9.065218
_cell_length_b	9.016244
_cell_length_c	10.540539
_cell_angle_alpha	89.995353
_cell_angle_beta	95.229312
_cell_angle_gamma	90.002420
loop_
_atom_site_label
_atom_site_type_symbol
_atom_site_fract_x
_atom_site_fract_y
_atom_site_fract_z
O1	O	1.959467	0.123336	-0.186149
O2	O	1.530106	0.123338	-0.201418
O3	O	1.754582	0.123335	-0.009113
O4	O	1.734991	0.123339	-0.378454
O5	O	1.754572	-0.123346	-0.009099
O6	O	1.530096	-0.123343	-0.201403
O7	O	1.959457	-0.123344	-0.186135
Cu8	Cu	1.744776	-0.145868	-0.193768
Cu9	Cu	1.744787	0.145861	-0.193785
O10	O	1.734981	-0.123342	-0.378439
C11	C	1.475122	-0.000002	-0.199943
C12	C	1.311301	-0.000002	-0.195556
N13	N	1.744779	-0.351054	-0.193755
C14	C	1.865307	-0.586042	-0.091243
C15	C	1.864982	-0.414151	-0.090849
C16	C	1.590539	-0.413479	-0.163054
C17	C	1.591255	-0.585423	-0.162334
C18	C	1.777139	-0.585556	-0.327323
C19	C	1.780620	-0.413601	-0.326464
C20	C	2.014441	-0.000001	-0.187610
C21	C	2.178262	0.000008	-0.191997
C22	C	1.753108	-0.000003	0.038202
C23	C	1.748712	0.000005	0.179167
N24	N	1.744796	0.351047	-0.193788
C25	C	1.736455	-0.000001	-0.425755
C26	C	1.740851	0.000001	-0.566719
C27	C	1.580278	0.000560	0.363216
C28	C	1.584734	0.000004	0.216582
C29	C	1.827620	-0.140862	0.240541
C30	C	1.822024	-0.140980	0.387106
C31	C	1.825370	0.139542	0.387595
C32	C	1.826880	0.141404	0.240608
H33	H	1.980299	-0.627381	-0.109516
C34	C	1.483817	-0.130154	0.536113
C35	C	1.493185	-0.135053	0.404313
H36	H	1.430062	-0.213885	0.561484
H37	H	1.434338	-0.041957	0.557376
H38	H	1.580702	-0.131325	0.578862
H39	H	1.396300	-0.133872	0.361563
H40	H	1.542661	-0.223274	0.383037
H41	H	1.939955	-0.147371	0.434639
H42	H	1.946433	0.149910	0.215944
H43	H	1.979591	-0.371943	-0.109392
H44	H	1.943811	0.140489	0.434383
H45	H	1.562961	-0.625545	-0.064894
H46	H	1.498813	-0.627042	-0.234091
C47	C	2.020781	-0.524511	-0.383195
C48	C	1.925836	-0.644059	-0.366577
H49	H	2.112580	-0.560631	-0.407427
H50	H	2.037194	-0.470984	-0.305583
H51	H	1.976966	-0.460855	-0.447863
H52	H	1.969646	-0.707710	-0.301903
H53	H	1.909426	-0.697610	-0.444199
C54	C	1.584379	-0.518595	-0.488572
C55	C	1.658532	-0.640481	-0.430375
H56	H	1.511149	-0.552513	-0.552179
H57	H	1.653320	-0.457338	-0.526627
H58	H	1.538357	-0.463288	-0.426379
H59	H	1.704564	-0.695782	-0.492567
H60	H	1.589581	-0.701764	-0.392320
C61	C	1.362834	-0.277437	-0.198609
C62	C	1.466465	-0.358308	-0.261078
H63	H	1.286235	-0.243385	-0.259127
H64	H	1.410336	-0.194888	-0.156431
H65	H	1.321633	-0.339205	-0.137916
H66	H	1.507674	-0.296537	-0.321765
H67	H	1.418957	-0.440869	-0.303276
H68	H	1.763699	-0.246281	0.415527
C69	C	1.813599	-0.524606	0.121875
C70	C	1.837607	-0.644369	0.041732
H71	H	1.796501	-0.560617	0.203968
H72	H	1.729737	-0.469916	0.087499
H73	H	1.898291	-0.462074	0.128526
H74	H	1.752909	-0.706896	0.035074
H75	H	1.921477	-0.699083	0.076116
H76	H	1.769144	0.245614	0.199957
H77	H	1.522644	0.100984	0.174202
C78	C	1.533933	-0.475311	0.048709
C79	C	1.551441	-0.355385	-0.032988
H80	H	1.509793	-0.439445	0.129004
H81	H	1.623616	-0.530207	0.059638
H82	H	1.456497	-0.537602	0.012895
H83	H	1.628885	-0.293099	0.002820
H84	H	1.461747	-0.300465	-0.043915
H85	H	1.844170	-0.373033	0.008215
C86	C	1.566115	0.266326	0.369725
C87	C	1.492830	0.136924	0.402150
H88	H	1.512132	0.350513	0.393778
H89	H	1.573211	0.268201	0.280390
H90	H	1.662699	0.268033	0.413038
H91	H	1.396250	0.135212	0.358829
H92	H	1.485717	0.135049	0.491502
H93	H	1.894092	-0.372801	-0.349719
H94	H	1.698639	-0.370646	-0.406481
C95	C	2.065328	-0.021406	0.257945
C96	C	1.990183	-0.147947	0.209760
H97	H	2.165683	-0.025777	0.238932
H98	H	2.061573	-0.017198	0.347632
H99	H	2.019700	0.064576	0.219929
H100	H	2.035804	-0.233929	0.247783
H101	H	1.993947	-0.152170	0.120056
H102	H	1.772799	-0.245690	0.198150
C103	C	1.382232	-0.090222	0.074806
C104	C	1.500330	-0.136548	0.160528
H105	H	1.330121	-0.174532	0.040211
H106	H	1.419403	-0.034848	0.007980
H107	H	1.317065	-0.029886	0.118102
H108	H	1.565502	-0.196876	0.117230
H109	H	1.463159	-0.191947	0.227364
H110	H	1.772302	0.246310	0.419338
