data_functionalizedCrystal
_audit_creation_method	'MofGen! by Chris Wilmer'
_symmetry_space_group_name_H-M	'P1'
_symmetry_Int_Tables_number	1
_symmetry_cell_setting	triclinic
loop_
_symmetry_equiv_pos_as_xyz
  x,y,z
_cell_length_a	19.077236
_cell_length_b	19.121063
_cell_length_c	19.076919
_cell_angle_alpha	94.606347
_cell_angle_beta	89.887323
_cell_angle_gamma	94.855924
loop_
_atom_site_label
_atom_site_type_symbol
_atom_site_fract_x
_atom_site_fract_y
_atom_site_fract_z
Zn1	Zn	1.046920	-0.255828	-0.451002
Zn2	Zn	1.380253	0.077505	-0.117669
Zn3	Zn	1.713586	0.410838	0.215665
Zn4	Zn	1.046539	-0.368770	-0.338113
Zn5	Zn	1.379873	-0.035437	-0.004780
Zn6	Zn	1.713206	0.297896	0.328553
Zn7	Zn	0.934152	-0.255459	-0.328767
Zn8	Zn	1.267485	0.077875	0.004566
Zn9	Zn	1.600818	0.411208	0.337900
Zn10	Zn	0.923941	-0.378172	-0.451236
Zn11	Zn	1.257274	-0.044839	-0.117902
Zn12	Zn	1.590607	0.288494	0.215431
O13	O	0.987888	-0.314557	-0.392279
O14	O	1.321221	0.018776	-0.058946
O15	O	1.654554	0.352109	0.274387
O16	O	1.145371	-0.267030	-0.439841
O17	O	1.478704	0.066303	-0.106507
O18	O	1.812038	0.399637	0.226826
O19	O	1.035745	-0.349650	-0.238375
O20	O	1.369078	-0.016316	0.094958
O21	O	1.702412	0.317017	0.428291
O22	O	0.953543	-0.156885	-0.340972
O23	O	1.286876	0.176448	-0.007639
O24	O	1.620210	0.509782	0.325694
O25	O	1.145091	-0.350008	-0.356902
O26	O	1.478425	-0.016675	-0.023568
O27	O	1.811758	0.316659	0.309765
O28	O	1.036393	-0.157156	-0.430778
O29	O	1.369727	0.176177	-0.097445
O30	O	1.703060	0.509510	0.235889
O31	O	0.953174	-0.266400	-0.231509
O32	O	1.286508	0.066933	0.101825
O33	O	1.619841	0.400266	0.435158
O34	O	0.834295	-0.275517	-0.341199
O35	O	1.167629	0.057816	-0.007866
O36	O	1.500962	0.391150	0.325468
O37	O	0.936140	-0.366033	-0.549703
O38	O	1.269473	-0.032699	-0.216369
O39	O	1.602806	0.300634	0.116964
O40	O	0.826793	-0.365674	-0.431176
O41	O	1.160127	-0.032341	-0.097843
O42	O	1.493460	0.300992	0.235490
O43	O	1.026492	-0.276147	-0.549531
O44	O	1.359825	0.057186	-0.216198
O45	O	1.693159	0.390520	0.117136
O46	O	1.025844	-0.468640	-0.357129
O47	O	1.359177	-0.135307	-0.023795
O48	O	1.692510	0.198026	0.309538
O49	O	0.935771	-0.475548	-0.440239
O50	O	1.269104	-0.142215	-0.106906
O51	O	1.602438	0.191119	0.226427
C52	C	0.805004	-0.321576	-0.385199
C53	C	1.138337	0.011757	-0.051866
C54	C	1.471671	0.345090	0.281467
C55	C	0.726764	-0.324597	-0.382188
C56	C	1.060097	0.008736	-0.048855
C57	C	1.393431	0.342070	0.284479
C58	C	0.690147	-0.282888	-0.424026
C59	C	1.023480	0.050445	-0.090693
C60	C	1.356813	0.383779	0.242640
C61	C	0.616632	-0.285723	-0.421191
C62	C	0.949966	0.047611	-0.087857
C63	C	1.283299	0.380944	0.245476
C64	C	0.579736	-0.330270	-0.376519
C65	C	0.913069	0.003063	-0.043186
C66	C	1.246403	0.336397	0.290147
C67	C	0.616359	-0.371980	-0.334676
C68	C	0.949692	-0.038647	-0.001343
C69	C	1.283025	0.294686	0.331991
C70	C	0.689872	-0.369142	-0.337509
C71	C	1.023205	-0.035808	-0.004175
C72	C	1.356539	0.297525	0.329158
C73	C	0.359860	-0.343381	-0.363406
C74	C	0.693193	-0.010047	-0.030073
C75	C	1.026527	0.323286	0.303261
C76	C	0.286341	-0.346218	-0.360578
C77	C	0.619675	-0.012884	-0.027245
C78	C	0.953008	0.320449	0.306089
C79	C	0.286620	-0.259959	-0.447092
C80	C	0.619954	0.073375	-0.113759
C81	C	0.953287	0.406708	0.219575
C82	C	0.360135	-0.257127	-0.449924
C83	C	0.693468	0.076206	-0.116591
C84	C	1.026801	0.409540	0.216743
C85	C	0.396751	-0.298835	-0.408078
C86	C	0.730084	0.034499	-0.074745
C87	C	1.063418	0.367832	0.258589
N88	N	0.504593	-0.333170	-0.373621
N89	N	0.837926	0.000163	-0.040288
N90	N	1.171259	0.333497	0.293045
N91	N	0.471894	-0.295931	-0.410973
N92	N	0.805227	0.037403	-0.077639
N93	N	1.138560	0.370736	0.255694
C94	C	0.979677	-0.497666	-0.399740
C95	C	1.313010	-0.164333	-0.066406
C96	C	1.646343	0.169001	0.266927
C97	C	0.976227	-0.575999	-0.402957
C98	C	1.309560	-0.242666	-0.069624
C99	C	1.642894	0.090668	0.263710
C100	C	1.021536	-0.609180	-0.361236
C101	C	1.354869	-0.275847	-0.027903
C102	C	1.688203	0.057486	0.305431
C103	C	1.018296	-0.682783	-0.364266
C104	C	1.351629	-0.349450	-0.030933
C105	C	1.684963	-0.016116	0.302400
C106	C	0.969743	-0.723203	-0.409014
C107	C	1.303076	-0.389869	-0.075681
C108	C	1.636410	-0.056536	0.257652
C109	C	0.924432	-0.690016	-0.450740
C110	C	1.257765	-0.356683	-0.117407
C111	C	1.591099	-0.023350	0.215927
C112	C	0.927676	-0.616415	-0.447713
C113	C	1.261009	-0.283082	-0.114380
C114	C	1.594343	0.050252	0.218954
C115	C	0.957603	-0.945612	-0.420321
C116	C	1.290937	-0.612278	-0.086987
C117	C	1.624270	-0.278945	0.246346
C118	C	0.954361	-1.019218	-0.423343
C119	C	1.287695	-0.685884	-0.090010
C120	C	1.621028	-0.352551	0.243324
C121	C	1.048226	-1.011979	-0.336870
C122	C	1.381560	-0.678646	-0.003536
C123	C	1.714893	-0.345313	0.329797
C124	C	1.051463	-0.938377	-0.333843
C125	C	1.384797	-0.605044	-0.000510
C126	C	1.718130	-0.271710	0.332823
C127	C	1.006155	-0.905197	-0.375572
C128	C	1.339488	-0.571864	-0.042238
C129	C	1.672822	-0.238530	0.291095
C130	C	0.966428	-0.798436	-0.412111
C131	C	1.299762	-0.465103	-0.078778
C132	C	1.633095	-0.131770	0.254555
C133	C	1.009473	-0.829965	-0.372478
C134	C	1.342807	-0.496631	-0.039145
C135	C	1.676140	-0.163298	0.294189
C136	C	1.171486	-0.307511	-0.399388
C137	C	1.504819	0.025822	-0.066054
C138	C	1.838152	0.359155	0.267279
C139	C	1.249724	-0.304509	-0.402417
C140	C	1.583058	0.028824	-0.069083
C141	C	1.916391	0.362158	0.264250
C142	C	0.980219	-0.322180	-0.575870
C143	C	1.313553	0.011153	-0.242537
C144	C	1.646886	0.344487	0.090796
C145	C	0.976952	-0.325428	-0.654106
C146	C	1.310285	0.007905	-0.320773
C147	C	1.643618	0.341239	0.012561
C148	C	0.996150	-0.130734	-0.384806
C149	C	1.329483	0.202599	-0.051473
C150	C	1.662816	0.535933	0.281860
C151	C	0.999670	-0.052399	-0.381622
C152	C	1.333004	0.280934	-0.048289
C153	C	1.666337	0.614267	0.285045
C154	C	1.022455	-0.280158	-0.690773
C155	C	1.355789	0.053176	-0.357439
C156	C	1.689122	0.386509	-0.024106
C157	C	1.019376	-0.283207	-0.764283
C158	C	1.352710	0.050126	-0.430950
C159	C	1.686043	0.383459	-0.097616
C160	C	0.970797	-0.331531	-0.801125
C161	C	1.304130	0.001802	-0.467792
C162	C	1.637463	0.335135	-0.134459
C163	C	0.925288	-0.376804	-0.764453
C164	C	1.258621	-0.043471	-0.431120
C165	C	1.591954	0.289863	-0.097786
C166	C	0.928364	-0.373750	-0.690944
C167	C	1.261697	-0.040417	-0.357611
C168	C	1.595031	0.292916	-0.024277
C169	C	0.956549	-0.345679	-1.020983
C170	C	1.289883	-0.012346	-0.687650
C171	C	1.623216	0.320988	-0.354316
C172	C	0.953478	-0.348731	-1.094497
C173	C	1.286812	-0.015397	-0.761164
C174	C	1.620145	0.317936	-0.427831
C175	C	1.047566	-0.255133	-1.094322
C176	C	1.380900	0.078201	-0.760989
C177	C	1.714233	0.411534	-0.427656
C178	C	1.050641	-0.252086	-1.020812
C179	C	1.383974	0.081247	-0.687479
C180	C	1.717308	0.414580	-0.354145
C181	C	1.005130	-0.297356	-0.984146
C182	C	1.338463	0.035977	-0.650813
C183	C	1.671796	0.369310	-0.317479
N184	N	0.967650	-0.334651	-0.876264
N185	N	1.300983	-0.001318	-0.542931
N186	N	1.634316	0.332015	-0.209598
N187	N	1.008274	-0.294232	-0.909008
N188	N	1.341607	0.039101	-0.575674
N189	N	1.674940	0.372434	-0.242341
C190	C	0.995569	-0.306912	-0.209402
C191	C	1.328902	0.026421	0.123931
C192	C	1.662236	0.359754	0.457264
C193	C	0.998982	-0.303460	-0.131164
C194	C	1.332315	0.029873	0.202169
C195	C	1.665649	0.363206	0.535502
H196	H	0.586312	-0.408248	-0.298300
H197	H	0.919646	-0.074915	0.035033
H198	H	1.252979	0.258418	0.368367
H199	H	0.913916	-0.388084	-1.124492
H200	H	1.247250	-0.054751	-0.791159
H201	H	1.580583	0.278583	-0.457826
H202	H	1.056432	-0.246345	-0.794134
H203	H	1.389766	0.086989	-0.460801
H204	H	1.723099	0.420322	-0.127467
H205	H	1.090999	-0.905468	-0.297406
H206	H	1.424332	-0.572135	0.035927
H207	H	1.757666	-0.238802	0.369261
H208	H	0.586822	-0.251760	-0.455262
H209	H	0.920155	0.081573	-0.121928
H210	H	1.253488	0.414906	0.211405
Br211	Br	0.410203	-0.196675	-0.510559
Br212	Br	0.743536	0.136659	-0.177225
Br213	Br	1.076869	0.469992	0.156108
Br214	Br	0.236923	-0.203358	-0.503880
Br215	Br	0.570257	0.129975	-0.170546
Br216	Br	0.903590	0.463308	0.162787
H217	H	0.389664	-0.377343	-0.329333
H218	H	0.722997	-0.044009	0.004001
H219	H	1.056331	0.289324	0.337334
H220	H	1.055191	-0.709796	-0.330292
H221	H	1.388524	-0.376462	0.003041
H222	H	1.721858	-0.043129	0.336375
H223	H	1.061070	-0.576275	-0.324794
H224	H	1.394403	-0.242942	0.008539
H225	H	1.727737	0.090392	0.341873
H226	H	0.719685	-0.403105	-0.303439
H227	H	1.053018	-0.069772	0.029895
H228	H	1.386352	0.263562	0.363228
Br229	Br	0.858544	-0.744871	-0.511477
Br230	Br	1.191877	-0.411538	-0.178144
Br231	Br	1.525210	-0.078204	0.155190
H232	H	0.890782	-0.589400	-0.481688
H233	H	1.224115	-0.256066	-0.148354
H234	H	1.557448	0.077267	0.184979
Br235	Br	0.236266	-0.406700	-0.299970
Br236	Br	0.569600	-0.073367	0.033364
Br237	Br	0.902933	0.259967	0.366697
Br238	Br	1.109716	-1.057013	-0.280245
Br239	Br	1.443050	-0.723679	0.053088
Br240	Br	1.776383	-0.390346	0.386422
H241	H	0.885731	-0.416148	-0.794456
H242	H	1.219064	-0.082815	-0.461122
H243	H	1.552397	0.250519	-0.127789
Br244	Br	0.888452	-1.074073	-0.484064
Br245	Br	1.221785	-0.740740	-0.150731
Br246	Br	1.555119	-0.407407	0.182602
Br247	Br	0.896113	-0.900591	-0.476953
Br248	Br	1.229447	-0.567258	-0.143619
Br249	Br	1.562780	-0.233924	0.189714
Br250	Br	1.088394	-0.214577	-0.640780
Br251	Br	1.421727	0.118757	-0.307447
Br252	Br	1.755061	0.452090	0.025886
Br253	Br	0.866602	-0.435187	-0.641180
Br254	Br	1.199935	-0.101854	-0.307847
Br255	Br	1.533269	0.231479	0.025486
H256	H	0.919501	-0.382551	-0.991139
H257	H	1.252834	-0.049218	-0.657806
H258	H	1.586167	0.284116	-0.324473
Br259	Br	1.075369	-0.775109	-0.311755
Br260	Br	1.408702	-0.441775	0.021578
Br261	Br	1.742036	-0.108442	0.354912
Br262	Br	0.740212	-0.222433	-0.484660
Br263	Br	1.073546	0.110900	-0.151327
Br264	Br	1.406879	0.444234	0.182007
Br265	Br	1.116576	-0.186503	-0.970817
Br266	Br	1.449909	0.146830	-0.637483
Br267	Br	1.783242	0.480163	-0.304150
H268	H	0.926895	-0.831354	-0.448544
H269	H	1.260228	-0.498021	-0.115211
H270	H	1.593562	-0.164688	0.218123
H271	H	1.084618	-0.218276	-1.124183
H272	H	1.417951	0.115058	-0.790850
H273	H	1.751285	0.448391	-0.457517
