data_functionalizedCrystal
_audit_creation_method	'MofGen! by Chris Wilmer'
_symmetry_space_group_name_H-M	'P1'
_symmetry_Int_Tables_number	1
_symmetry_cell_setting	triclinic
loop_
_symmetry_equiv_pos_as_xyz
  x,y,z
_cell_length_a	19.188930
_cell_length_b	9.065218
_cell_length_c	7.540329
_cell_angle_alpha	89.996962
_cell_angle_beta	89.991297
_cell_angle_gamma	84.080333
loop_
_atom_site_label
_atom_site_type_symbol
_atom_site_fract_x
_atom_site_fract_y
_atom_site_fract_z
O1	O	0.102369	1.956847	-0.147510
O2	O	0.602369	2.456847	0.352490
O3	O	0.110766	1.527271	-0.147515
O4	O	0.610766	2.027271	0.352485
O5	O	0.005009	1.754456	-0.147478
O6	O	0.505009	2.254456	0.352522
O7	O	0.208127	1.729662	-0.147547
O8	O	0.708127	2.229662	0.352453
O9	O	0.005007	1.754442	0.147487
O10	O	0.505007	2.254442	0.647487
O11	O	0.110765	1.527257	0.147450
O12	O	0.610765	2.027257	0.647450
O13	O	0.102368	1.956833	0.147455
O14	O	0.602368	2.456833	0.647455
Cu15	Cu	0.106566	1.742044	0.174385
Cu16	Cu	0.606566	2.242044	0.674385
Cu17	Cu	0.106568	1.742060	-0.174445
Cu18	Cu	0.606568	2.242060	0.325555
O19	O	0.208126	1.729649	0.147418
O20	O	0.708126	2.229649	0.647418
C21	C	0.109959	1.472305	-0.000032
C22	C	0.609959	1.972305	0.499968
C23	C	0.107546	1.308546	-0.000033
C24	C	0.607546	1.808546	0.499967
C25	C	-0.021009	1.753646	0.000010
C26	C	0.478991	2.253646	0.500010
C27	C	-0.098533	1.751236	0.000025
C28	C	0.401467	2.251236	0.500025
C29	C	-0.142421	1.884540	0.000035
C30	C	0.357579	2.384540	0.500035
C31	C	-0.215262	1.882276	0.000006
C32	C	0.284738	2.382276	0.500006
C33	C	-0.244212	1.746699	0.000004
C34	C	0.255788	2.246699	0.500004
C35	C	-0.200314	1.613377	-0.000016
C36	C	0.299686	2.113377	0.499984
C37	C	-0.127474	1.615646	-0.000006
C38	C	0.372526	2.115646	0.499994
N39	N	-0.353023	1.643063	0.100385
N40	N	0.146977	2.143063	0.600385
N41	N	-0.422218	1.640917	0.100379
N42	N	0.077782	2.140917	0.600379
C43	C	-0.463674	1.739858	-0.000032
C44	C	0.036326	2.239858	0.499968
N45	N	-0.433322	1.841047	-0.100414
N46	N	0.066678	2.341047	0.399586
N47	N	-0.364120	1.843197	-0.100400
N48	N	0.135880	2.343197	0.399600
C49	C	-0.323194	1.744225	-0.000009
C50	C	0.176806	2.244225	0.499991
C51	C	-0.586546	1.870716	-0.000056
C52	C	-0.086546	2.370716	0.499944
C53	C	-0.659388	1.868446	-0.000095
C54	C	-0.159388	2.368446	0.499905
C55	C	-0.644438	1.599544	-0.000100
C56	C	-0.144438	2.099544	0.499900
C57	C	-0.571598	1.601818	-0.000078
C58	C	-0.071598	2.101818	0.499922
C59	C	-0.542656	1.737408	-0.000048
C60	C	-0.042656	2.237408	0.499952
C61	C	0.234144	1.730458	-0.000074
C62	C	0.734144	2.230458	0.499926
C63	C	0.311667	1.732869	-0.000101
C64	C	0.811667	2.232869	0.499899
C65	C	0.103176	2.011799	-0.000032
C66	C	0.603176	2.511799	0.499968
C67	C	0.105589	2.175558	-0.000043
C68	C	0.605589	2.675558	0.499957
N69	N	0.106565	1.742044	0.419734
N70	N	0.606565	2.242044	0.919734
N71	N	0.106564	1.742072	-0.419794
N72	N	0.606564	2.242072	0.080206
H73	H	-0.251003	1.990832	0.000007
H74	H	0.248997	2.490832	0.500007
H75	H	-0.535863	1.493266	-0.000076
H76	H	-0.035863	1.993266	0.499924
H77	H	-0.223890	1.502990	-0.000022
H78	H	0.276110	2.002990	0.499978
H79	H	-0.668009	1.489155	-0.000111
H80	H	-0.168009	1.989155	0.499889
H81	H	-0.091740	1.507089	-0.000013
H82	H	0.408260	2.007089	0.499987
C83	C	-0.110583	2.033683	0.000045
C84	C	0.389417	2.533683	0.500045
C85	C	-0.062551	2.072222	-0.153118
C86	C	0.437449	2.572222	0.346882
C87	C	-0.030709	2.221363	-0.153114
C88	C	0.469291	2.721363	0.346886
C89	C	-0.046900	2.331964	0.000053
C90	C	0.453100	2.831964	0.500053
C91	C	-0.094934	2.293427	0.153227
C92	C	0.405066	2.793427	0.653227
C93	C	-0.126775	2.144286	0.153223
C94	C	0.373225	2.644286	0.653223
H95	H	-0.050564	1.990346	-0.266512
H96	H	0.449436	2.490346	0.233488
H97	H	0.004849	2.249890	-0.266505
H98	H	0.504849	2.749890	0.233495
H99	H	-0.023329	2.442366	0.000056
H100	H	0.476671	2.942366	0.500056
H101	H	-0.106921	2.375302	0.266621
H102	H	0.393079	2.875302	0.766621
H103	H	-0.162333	2.115759	0.266614
H104	H	0.337667	2.615759	0.766614
H105	H	-0.562980	1.981122	-0.000039
H106	H	-0.062980	2.481122	0.499961
H107	H	-0.695122	1.977004	-0.000097
H108	H	-0.195122	2.477004	0.499903
