data_functionalizedCrystal
_audit_creation_method	'MofGen! by Chris Wilmer'
_symmetry_space_group_name_H-M	'P1'
_symmetry_Int_Tables_number	1
_symmetry_cell_setting	triclinic
loop_
_symmetry_equiv_pos_as_xyz
  x,y,z
_cell_length_a	21.295419
_cell_length_b	25.639240
_cell_length_c	21.295411
_cell_angle_alpha	90.021594
_cell_angle_beta	89.975461
_cell_angle_gamma	89.942036
loop_
_atom_site_label
_atom_site_type_symbol
_atom_site_fract_x
_atom_site_fract_y
_atom_site_fract_z
Zn1	Zn	0.962300	0.208004	-0.355911
Zn2	Zn	1.462300	0.708004	0.144089
Zn3	Zn	0.962179	0.295424	-0.250637
Zn4	Zn	1.462179	0.795424	0.249363
Zn5	Zn	0.857023	0.208027	-0.250656
Zn6	Zn	1.357023	0.708027	0.249344
Zn7	Zn	0.856970	0.295433	-0.355869
Zn8	Zn	1.356970	0.795433	0.144131
O9	O	0.909618	0.251722	-0.303268
O10	O	1.409618	0.751722	0.196732
O11	O	1.050374	0.219587	-0.341956
O12	O	1.550374	0.719587	0.158044
O13	O	0.948202	0.283836	-0.162550
O14	O	1.448202	0.783836	0.337450
O15	O	0.871062	0.134859	-0.264645
O16	O	1.371062	0.634859	0.235355
O17	O	1.050285	0.283814	-0.264611
O18	O	1.550285	0.783814	0.235389
O19	O	0.948408	0.134842	-0.341975
O20	O	1.448408	0.634842	0.158025
O21	O	0.870945	0.219626	-0.162564
O22	O	1.370945	0.719626	0.337436
O23	O	0.768927	0.219635	-0.264603
O24	O	1.268927	0.719635	0.235397
O25	O	0.870970	0.283829	-0.443964
O26	O	1.370970	0.783829	0.056036
O27	O	0.768887	0.283851	-0.341902
O28	O	1.268887	0.783851	0.158098
O29	O	0.948356	0.219596	-0.443995
O30	O	1.448356	0.719596	0.056005
O31	O	0.948150	0.368590	-0.264570
O32	O	1.448150	0.868590	0.235430
O33	O	0.870853	0.368597	-0.341883
O34	O	1.370853	0.868597	0.158117
C35	C	0.746066	0.251747	-0.303251
C36	C	1.246066	0.751747	0.196749
C37	C	0.676098	0.251770	-0.303258
C38	C	1.176098	0.751770	0.196742
C39	C	0.643300	0.218382	-0.343594
C40	C	1.143300	0.718382	0.156406
C41	C	0.577558	0.218368	-0.343596
C42	C	1.077558	0.718368	0.156404
C43	C	0.544616	0.251752	-0.303269
C44	C	1.044616	0.751752	0.196731
C45	C	0.577422	0.285142	-0.262926
C46	C	1.077422	0.785142	0.237074
C47	C	0.643163	0.285152	-0.262920
C48	C	1.143163	0.785152	0.237080
N49	N	0.441328	0.297498	-0.298350
N50	N	0.941328	0.797498	0.201650
N51	N	0.378877	0.297487	-0.298359
N52	N	0.878877	0.797487	0.201641
C53	C	0.346541	0.251724	-0.303283
C54	C	0.846541	0.751724	0.196717
N55	N	0.379016	0.205972	-0.308211
N56	N	0.879016	0.705972	0.191789
N57	N	0.441473	0.205983	-0.308205
N58	N	0.941473	0.705983	0.191795
C59	C	0.473331	0.251745	-0.303271
C60	C	0.973331	0.751745	0.196729
C61	C	0.242458	0.218318	-0.343624
C62	C	0.742458	0.718318	0.156376
C63	C	0.176714	0.218303	-0.343622
C64	C	0.676714	0.718303	0.156378
C65	C	0.176579	0.285082	-0.262955
C66	C	0.676579	0.785082	0.237045
C67	C	0.242322	0.285092	-0.262954
C68	C	0.742322	0.785092	0.237046
C69	C	0.275257	0.251711	-0.303291
C70	C	0.775257	0.751711	0.196709
C71	C	0.909499	0.387564	-0.303234
C72	C	1.409499	0.887564	0.196766
C73	C	0.909506	0.445679	-0.303240
C74	C	1.409506	0.945679	0.196760
C75	C	0.949920	0.806026	-0.263056
C76	C	1.449920	1.306026	0.236944
C77	C	0.949939	0.860630	-0.263062
C78	C	1.449939	1.360630	0.236938
O79	O	0.984216	0.888853	-0.228876
O80	O	1.484216	1.388853	0.271124
N81	N	0.909669	0.887961	-0.303282
N82	N	1.409669	1.387961	0.196718
C83	C	0.869381	0.860685	-0.343504
C84	C	1.369381	1.360685	0.156496
O85	O	0.835131	0.888946	-0.377716
O86	O	1.335131	1.388946	0.122284
C87	C	0.869366	0.806081	-0.343501
C88	C	1.369366	1.306081	0.156499
C89	C	0.909634	0.778753	-0.303273
C90	C	1.409634	1.278753	0.196727
C91	C	0.990185	0.778697	-0.222832
C92	C	1.490185	1.278697	0.277168
C93	C	0.990165	0.724097	-0.222825
C94	C	1.490165	1.224097	0.277175
C95	C	0.949879	0.696825	-0.263042
C96	C	1.449879	1.196825	0.236958
C97	C	0.909614	0.724153	-0.303266
C98	C	1.409614	1.224153	0.196734
C99	C	0.829082	0.778806	-0.383725
C100	C	1.329082	1.278806	0.116275
C101	C	0.829070	0.724199	-0.383719
C102	C	1.329070	1.224199	0.116281
C103	C	0.869338	0.696871	-0.343491
C104	C	1.369338	1.196871	0.156509
C105	C	0.869308	0.642280	-0.343477
C106	C	1.369308	1.142280	0.156523
N107	N	0.909578	0.614949	-0.303256
N108	N	1.409578	1.114949	0.196744
C109	C	0.949864	0.642221	-0.263039
C110	C	1.449864	1.142221	0.236961
C111	C	0.869418	0.975355	-0.343509
C112	C	1.369418	1.475355	0.156491
C113	C	0.869430	1.029958	-0.343509
C114	C	1.369430	1.529958	0.156491
C115	C	0.949989	1.029899	-0.263068
C116	C	1.449989	1.529899	0.236932
C117	C	0.949973	0.975296	-0.263064
C118	C	1.449973	1.475296	0.236936
C119	C	0.909688	0.948024	-0.303288
C120	C	1.409688	1.448024	0.196712
C121	C	0.949818	0.527556	-0.263028
C122	C	1.449818	1.027556	0.236972
C123	C	0.949792	0.472951	-0.263023
C124	C	1.449792	0.972951	0.236977
C125	C	0.869236	0.473014	-0.343466
C126	C	1.369236	0.973014	0.156534
C127	C	0.869259	0.527615	-0.343469
C128	C	1.369259	1.027615	0.156531
C129	C	0.909555	0.554884	-0.303248
C130	C	1.409555	1.054884	0.196752
O131	O	0.835050	0.614022	-0.377646
O132	O	1.335050	1.114022	0.122354
O133	O	0.984114	0.613953	-0.228839
O134	O	1.484114	1.113953	0.271161
C135	C	1.073808	0.251697	-0.303286
C136	C	1.573808	0.751697	0.196714
C137	C	1.143777	0.251686	-0.303294
C138	C	1.643777	0.751686	0.196706
C139	C	0.909670	0.251711	-0.467459
C140	C	1.409670	0.751711	0.032541
C141	C	0.909693	0.251706	-0.537427
C142	C	1.409693	0.751706	-0.037427
C143	C	0.909731	1.115349	-0.303306
C144	C	1.409731	1.615349	0.196694
C145	C	0.909718	1.057235	-0.303294
C146	C	1.409718	1.557235	0.196706
C147	C	0.949986	0.218258	-0.570311
C148	C	1.449986	0.718258	-0.070311
C149	C	0.949985	0.218236	-0.636053
C150	C	1.449985	0.718236	-0.136053
C151	C	0.909698	0.251670	-0.668909
C152	C	1.409698	0.751670	-0.168909
C153	C	0.869397	0.285120	-0.636017
C154	C	1.369397	0.785120	-0.136017
C155	C	0.869394	0.285138	-0.570276
C156	C	1.369394	0.785138	-0.070276
N157	N	0.904829	0.297409	-0.772125
N158	N	1.404829	0.797409	-0.272125
N159	N	0.904835	0.297391	-0.834576
N160	N	1.404835	0.797391	-0.334576
C161	C	0.909702	0.251617	-0.866984
C162	C	1.409702	0.751617	-0.366984
N163	N	0.914574	0.205862	-0.834581
N164	N	1.414574	0.705862	-0.334581
N165	N	0.914572	0.205881	-0.772124
N166	N	1.414572	0.705881	-0.272124
C167	C	0.909695	0.251654	-0.740195
C168	C	1.409695	0.751654	-0.240195
C169	C	0.949996	0.218142	-0.971154
C170	C	1.449996	0.718142	-0.471154
C171	C	0.949991	0.218118	-1.036898
C172	C	1.449991	0.718118	-0.536898
C173	C	0.869406	0.285008	-1.036860
C174	C	1.369406	0.785008	-0.536860
C175	C	0.869408	0.285027	-0.971118
C176	C	1.369408	0.785027	-0.471118
C177	C	0.909706	0.251594	-0.938268
C178	C	1.409706	0.751594	-0.438268
C179	C	0.909602	0.251695	-0.139717
C180	C	1.409602	0.751695	0.360283
C181	C	0.909702	0.251553	-0.069749
C182	C	1.409702	0.751553	0.430251
H183	H	0.269275	0.191134	-0.376465
H184	H	0.769275	0.691134	0.123535
Br185	Br	0.532717	0.330445	-0.208192
Br186	Br	1.032717	0.830445	0.291808
Br187	Br	0.814721	0.330378	-1.081443
Br188	Br	1.314721	0.830378	-0.581443
Br189	Br	0.132201	0.172982	-0.398364
Br190	Br	0.632201	0.672982	0.101636
Br191	Br	0.687678	0.330465	-0.208171
Br192	Br	1.187678	0.830465	0.291829
H193	H	0.982583	0.450702	-0.230262
H194	H	1.482583	0.950702	0.269738
H195	H	0.550849	0.191176	-0.376441
H196	H	1.050849	0.691176	0.123559
Br197	Br	0.131879	0.330384	-0.208218
Br198	Br	0.631879	0.830384	0.291782
H199	H	0.269026	0.312283	-0.230111
H200	H	0.769026	0.812283	0.269889
H201	H	1.022994	0.800897	-0.190082
H202	H	1.522994	1.300897	0.309918
Br203	Br	0.814737	0.938350	-0.398099
Br204	Br	1.314737	1.438350	0.101901
H205	H	0.982793	1.052114	-0.230323
H206	H	1.482793	1.552114	0.269677
Br207	Br	0.814722	0.330424	-0.926486
Br208	Br	1.314722	0.830424	-0.426486
H209	H	0.982763	0.953048	-0.230308
H210	H	1.482763	1.453048	0.269692
Br211	Br	1.004505	0.564556	-0.208441
Br212	Br	1.504505	1.064556	0.291559
H213	H	0.836434	0.450801	-0.376209
H214	H	1.336434	0.950801	0.123791
H215	H	0.796266	0.701998	-0.416476
H216	H	1.296266	1.201998	0.083524
Br217	Br	1.044827	0.687017	-0.168237
Br218	Br	1.544827	1.187017	0.331763
H219	H	0.836634	1.052204	-0.376261
H220	H	1.336634	1.552204	0.123739
H221	H	0.796288	0.801048	-0.416480
H222	H	1.296288	1.301048	0.083520
Br223	Br	0.814594	0.564704	-0.398049
Br224	Br	1.314594	1.064704	0.101951
Br225	Br	1.004657	0.172826	-0.680692
Br226	Br	1.504657	0.672826	-0.180692
Br227	Br	0.814716	0.330493	-0.680606
Br228	Br	1.314716	0.830493	-0.180606
Br229	Br	1.004689	0.172728	-1.081528
Br230	Br	1.504689	0.672728	-0.581528
Br231	Br	1.004674	0.172884	-0.525732
Br232	Br	1.504674	0.672884	-0.025732
Br233	Br	0.814705	0.330535	-0.525644
Br234	Br	1.314705	0.830535	-0.025644
H235	H	0.982806	0.190916	-0.944406
H236	H	1.482806	0.690916	-0.444406
H237	H	0.670112	0.191200	-0.376439
H238	H	1.170112	0.691200	0.123561
