data_functionalizedCrystal
_audit_creation_method	'MofGen! by Chris Wilmer'
_symmetry_space_group_name_H-M	'P1'
_symmetry_Int_Tables_number	1
_symmetry_cell_setting	triclinic
loop_
_symmetry_equiv_pos_as_xyz
  x,y,z
_cell_length_a	19.805407
_cell_length_b	18.101397
_cell_length_c	19.805399
_cell_angle_alpha	89.970675
_cell_angle_beta	89.980427
_cell_angle_gamma	90.020466
loop_
_atom_site_label
_atom_site_type_symbol
_atom_site_fract_x
_atom_site_fract_y
_atom_site_fract_z
Zn1	Zn	1.034764	-0.294847	-0.382711
Zn2	Zn	1.534764	0.205153	0.117289
Zn3	Zn	1.034690	-0.418690	-0.269520
Zn4	Zn	1.534690	0.081310	0.230480
Zn5	Zn	0.921578	-0.294867	-0.269536
Zn6	Zn	1.421578	0.205133	0.230464
Zn7	Zn	0.921554	-0.418651	-0.382667
Zn8	Zn	1.421554	0.081349	0.117333
O9	O	0.978146	-0.356764	-0.326108
O10	O	1.478146	0.143236	0.173892
O11	O	1.129470	-0.311283	-0.367708
O12	O	1.629470	0.188717	0.132292
O13	O	1.019665	-0.402290	-0.174805
O14	O	1.519665	0.097710	0.325195
O15	O	0.936634	-0.191232	-0.284575
O16	O	1.436634	0.308768	0.215425
O17	O	1.129417	-0.402270	-0.284547
O18	O	1.629417	0.097730	0.215453
O19	O	1.019790	-0.191217	-0.367724
O20	O	1.519790	0.308783	0.132276
O21	O	0.936562	-0.311318	-0.174817
O22	O	1.436562	0.188682	0.325183
O23	O	0.826858	-0.311279	-0.284531
O24	O	1.326858	0.188721	0.215469
O25	O	0.936591	-0.402203	-0.477389
O26	O	1.436591	0.097797	0.022611
O27	O	0.826840	-0.402223	-0.367648
O28	O	1.326840	0.097777	0.132352
O29	O	1.019766	-0.311245	-0.477422
O30	O	1.519766	0.188755	0.022578
O31	O	1.019641	-0.522318	-0.284503
O32	O	1.519641	-0.022318	0.215497
O33	O	0.936520	-0.522289	-0.367632
O34	O	1.436520	-0.022289	0.132368
C35	C	0.802290	-0.356750	-0.326087
C36	C	1.302290	0.143250	0.173913
C37	C	0.727058	-0.356761	-0.326093
C38	C	1.227058	0.143239	0.173907
C39	C	0.691722	-0.404187	-0.369302
C40	C	1.191722	0.095813	0.130698
C41	C	0.621034	-0.404188	-0.369311
C42	C	1.121034	0.095812	0.130689
C43	C	0.585683	-0.356767	-0.326108
C44	C	1.085683	0.143233	0.173892
C45	C	0.621024	-0.309336	-0.282898
C46	C	1.121024	0.190664	0.217102
C47	C	0.691711	-0.309332	-0.282892
C48	C	1.191711	0.190668	0.217108
C49	C	0.335950	-0.309353	-0.282920
C50	C	0.835950	0.190647	0.217080
C51	C	0.265258	-0.309362	-0.282928
C52	C	0.765258	0.190638	0.217072
C53	C	0.265274	-0.404209	-0.369339
C54	C	0.765274	0.095791	0.130661
C55	C	0.335961	-0.404205	-0.369334
C56	C	0.835961	0.095795	0.130666
C57	C	0.371295	-0.356771	-0.326126
C58	C	0.871295	0.143229	0.173874
C59	C	0.447944	-0.356770	-0.326117
C60	C	0.947944	0.143230	0.173883
C61	C	0.509036	-0.356772	-0.326113
C62	C	1.009036	0.143228	0.173887
C63	C	0.978088	-0.549174	-0.326076
C64	C	1.478088	-0.049174	0.173924
C65	C	0.978126	-0.631488	-0.326084
C66	C	1.478126	-0.131488	0.173916
C67	C	0.978212	-0.930579	-0.326146
C68	C	1.478212	-0.430579	0.173854
C69	C	1.030364	-0.899242	-0.273704
C70	C	1.530364	-0.399242	0.226296
C71	C	1.030544	-0.813623	-0.273840
C72	C	1.530544	-0.313623	0.226160
C73	C	0.978169	-0.782197	-0.326115
C74	C	1.478169	-0.282197	0.173885
C75	C	0.997504	-0.813206	-0.397460
C76	C	1.497504	-0.313206	0.102540
C77	C	0.997908	-0.898851	-0.397174
C78	C	1.497908	-0.398851	0.102826
C79	C	0.906586	-0.899088	-0.307861
C80	C	1.406586	-0.399088	0.192139
C81	C	0.906940	-0.813438	-0.306268
C82	C	1.406940	-0.313438	0.193732
C83	C	0.978144	-0.698337	-0.326101
C84	C	1.478144	-0.198337	0.173899
C85	C	0.978239	-1.014439	-0.326164
C86	C	1.478239	-0.514439	0.173836
C87	C	1.154689	-0.356779	-0.326131
C88	C	1.654689	0.143221	0.173869
C89	C	1.229921	-0.356785	-0.326140
C90	C	1.729921	0.143215	0.173860
C91	C	0.978184	-0.356717	-0.502651
C92	C	1.478184	0.143283	-0.002651
C93	C	0.978201	-0.356697	-0.577883
C94	C	1.478201	0.143303	-0.077883
C95	C	0.978223	-0.163602	-0.326156
C96	C	1.478223	0.336398	0.173844
C97	C	0.978256	-0.081288	-0.326177
C98	C	1.478256	0.418712	0.173823
C99	C	1.021511	-0.309333	-0.613246
C100	C	1.521511	0.190667	-0.113246
C101	C	1.021518	-0.309311	-0.683934
C102	C	1.521518	0.190689	-0.183934
C103	C	0.978217	-0.356659	-0.719259
C104	C	1.478217	0.143341	-0.219259
C105	C	0.934902	-0.404025	-0.683892
C106	C	1.434902	0.095975	-0.183892
C107	C	0.934893	-0.404042	-0.613204
C108	C	1.434893	0.095958	-0.113204
C109	C	0.934941	-0.403956	-0.968965
C110	C	1.434941	0.096044	-0.468965
C111	C	0.934955	-0.403937	-1.039657
C112	C	1.434955	0.096063	-0.539657
C113	C	1.021566	-0.309225	-1.039695
C114	C	1.521566	0.190775	-0.539695
C115	C	1.021556	-0.309242	-0.969008
C116	C	1.521556	0.190758	-0.469008
C117	C	0.978239	-0.356606	-0.933646
C118	C	1.478239	0.143394	-0.433646
C119	C	0.978231	-0.356627	-0.856998
C120	C	1.478231	0.143373	-0.356998
C121	C	0.978228	-0.356641	-0.795906
C122	C	1.478228	0.143359	-0.295906
C123	C	0.978148	-0.356757	-0.150252
C124	C	1.478148	0.143243	0.349748
C125	C	0.978263	-0.356568	-0.075021
C126	C	1.478263	0.143432	0.424979
H127	H	0.364740	-0.442822	-0.404512
H128	H	0.864740	0.057178	0.095488
H129	H	0.899644	-0.442573	-0.712659
H130	H	1.399644	0.057427	-0.212659
C131	C	1.069139	-0.257247	-0.574395
C132	C	1.569139	0.242753	-0.074395
H133	H	1.094928	-0.229030	-0.605582
H134	H	1.594928	0.270970	-0.105582
H135	H	1.098616	-0.285579	-0.546816
H136	H	1.598616	0.214421	-0.046816
H137	H	1.043248	-0.224982	-0.546826
H138	H	1.543248	0.275018	-0.046826
H139	H	0.592235	-0.270722	-0.247724
H140	H	1.092235	0.229278	0.252276
H141	H	0.720480	-0.270709	-0.247711
H142	H	1.220480	0.229291	0.252289
C143	C	0.854089	-0.926467	-0.359452
C144	C	1.354089	-0.426467	0.140548
H145	H	0.810913	-0.907252	-0.348142
H146	H	1.310913	-0.407252	0.151858
H147	H	0.852529	-0.978912	-0.358707
H148	H	1.352529	-0.478912	0.141293
H149	H	0.866439	-0.910116	-0.403340
H150	H	1.366439	-0.410116	0.096660
H151	H	0.364711	-0.270735	-0.247733
H152	H	0.864711	0.229265	0.252267
H153	H	1.018448	-0.792660	-0.220938
H154	H	1.518448	-0.292660	0.279062
H155	H	1.049274	-0.791699	-0.413210
H156	H	1.549274	-0.291699	0.086790
H157	H	0.236477	-0.270742	-0.247747
H158	H	0.736477	0.229258	0.252253
H159	H	0.236496	-0.442829	-0.404524
H160	H	0.736496	0.057171	0.095476
C161	C	1.069175	-0.257230	-0.722833
C162	C	1.569175	0.242770	-0.222833
H163	H	1.062979	-0.263999	-0.769991
H164	H	1.562979	0.236001	-0.269991
H165	H	1.114640	-0.268093	-0.711248
H166	H	1.614640	0.231907	-0.211248
H167	H	1.059300	-0.207466	-0.711265
H168	H	1.559300	0.292534	-0.211265
H169	H	1.018413	-0.919883	-0.220644
H170	H	1.518413	-0.419883	0.279356
H171	H	1.083130	-0.920710	-0.285663
H172	H	1.583130	-0.420710	0.214337
H173	H	1.056818	-0.270690	-0.940250
H174	H	1.556818	0.229310	-0.440250
C175	C	1.102216	-0.785865	-0.290187
C176	C	1.602216	-0.285865	0.209813
H177	H	1.131334	-0.826933	-0.296778
H178	H	1.631334	-0.326933	0.203222
H179	H	1.118450	-0.756741	-0.253756
H180	H	1.618450	-0.256741	0.246244
H181	H	1.101083	-0.756807	-0.330127
H182	H	1.601083	-0.256807	0.169873
H183	H	1.050263	-0.918770	-0.412663
H184	H	1.550263	-0.418770	0.087337
C185	C	0.948833	-0.926856	-0.451765
C186	C	1.448833	-0.426856	0.048235
H187	H	0.928741	-0.885889	-0.474022
H188	H	1.428741	-0.385889	0.025978
H189	H	0.914626	-0.956064	-0.431283
H190	H	1.414626	-0.456064	0.068717
H191	H	0.972865	-0.955884	-0.483681
H192	H	1.472865	-0.455884	0.016319
C193	C	0.947767	-0.785701	-0.451668
C194	C	1.447767	-0.285701	0.048332
H195	H	0.914690	-0.754986	-0.431222
H196	H	1.414690	-0.254986	0.068778
H197	H	0.926280	-0.826823	-0.472301
H198	H	1.426280	-0.326823	0.027699
H199	H	0.971648	-0.758311	-0.484919
H200	H	1.471648	-0.258311	0.015081
H201	H	1.056834	-0.270657	-1.068494
H202	H	1.556834	0.229343	-0.568494
C203	C	0.882825	-0.928338	-0.238796
C204	C	1.382825	-0.428338	0.261204
H205	H	0.916370	-0.960033	-0.220465
H206	H	1.416370	-0.460033	0.279535
H207	H	0.841897	-0.955044	-0.244283
H208	H	1.341897	-0.455044	0.255717
H209	H	0.875565	-0.887979	-0.209025
H210	H	1.375565	-0.387979	0.290975
C211	C	0.887237	-0.786065	-0.235344
C212	C	1.387237	-0.286065	0.264656
H213	H	0.922268	-0.755720	-0.217897
H214	H	1.422268	-0.255720	0.282103
H215	H	0.880669	-0.827253	-0.206333
H216	H	1.380669	-0.327253	0.293667
H217	H	0.846623	-0.758316	-0.238052
H218	H	1.346623	-0.258316	0.261948
C219	C	0.851621	-0.784552	-0.354087
C220	C	1.351621	-0.284552	0.145913
H221	H	0.871331	-0.752924	-0.386931
H222	H	1.371331	-0.252924	0.113069
H223	H	0.818965	-0.757851	-0.328831
H224	H	1.318965	-0.257851	0.171169
H225	H	0.830448	-0.825066	-0.376015
H226	H	1.330448	-0.325066	0.123985
C227	C	0.887318	-0.456016	-1.078513
C228	C	1.387318	0.043984	-0.578513
H229	H	0.861513	-0.484221	-1.047330
H230	H	1.361513	0.015779	-0.547330
H231	H	0.913198	-0.488281	-1.106085
H232	H	1.413198	0.011719	-0.606085
H233	H	0.857845	-0.427667	-1.106090
H234	H	1.357845	0.072333	-0.606090
H235	H	0.899679	-0.442533	-0.940182
H236	H	1.399679	0.057467	-0.440182
H237	H	0.899618	-0.442604	-0.584413
H238	H	1.399618	0.057396	-0.084413
H239	H	0.592267	-0.442808	-0.404496
H240	H	1.092267	0.057192	0.095504
C241	C	0.730603	-0.456350	-0.416827
C242	C	1.230603	0.043650	0.083173
H243	H	0.699431	-0.484589	-0.442566
H244	H	1.199431	0.015411	0.057434
H245	H	0.758159	-0.488579	-0.390882
H246	H	1.258159	0.011421	0.109118
H247	H	0.758196	-0.428055	-0.446366
H248	H	1.258196	0.071945	0.053634
