data_functionalizedCrystal
_audit_creation_method	'MofGen! by Chris Wilmer'
_symmetry_space_group_name_H-M	'P1'
_symmetry_Int_Tables_number	1
_symmetry_cell_setting	triclinic
loop_
_symmetry_equiv_pos_as_xyz
  x,y,z
_cell_length_a	18.050589
_cell_length_b	11.169417
_cell_length_c	11.169409
_cell_angle_alpha	90.022388
_cell_angle_beta	89.967208
_cell_angle_gamma	89.973557
loop_
_atom_site_label
_atom_site_type_symbol
_atom_site_fract_x
_atom_site_fract_y
_atom_site_fract_z
Zn1	Zn	-0.295635	-1.834822	-0.678597
Zn2	Zn	-0.419850	-1.834646	-0.477912
Zn3	Zn	-0.295674	-1.634105	-0.477925
Zn4	Zn	-0.419784	-1.634053	-0.678550
O5	O	-0.357736	-1.734407	-0.578246
O6	O	-0.312123	-2.002748	-0.651990
O7	O	-0.403422	-1.807992	-0.309964
O8	O	-0.191745	-1.660826	-0.504569
O9	O	-0.403384	-2.002619	-0.504547
O10	O	-0.191716	-1.808292	-0.652002
O11	O	-0.312191	-1.660656	-0.309973
O12	O	-0.312127	-1.466149	-0.504524
O13	O	-0.403271	-1.660737	-0.846506
O14	O	-0.403309	-1.466110	-0.651923
O15	O	-0.312059	-1.808241	-0.846540
O16	O	-0.523766	-1.807941	-0.504502
O17	O	-0.523717	-1.660566	-0.651910
C18	C	-0.357716	-1.422582	-0.578221
C19	C	-0.357725	-1.289182	-0.578238
C20	C	-0.550688	-1.734262	-0.578226
C21	C	-0.633234	-1.734309	-0.578258
C22	C	-0.832685	-1.654246	-0.658390
C23	C	-0.882136	-1.624981	-0.548874
C24	C	-0.784364	-1.734427	-0.578273
C25	C	-0.881995	-1.763751	-0.687802
C26	C	-0.930349	-1.734539	-0.578298
C27	C	-0.832727	-1.705105	-0.468699
C28	C	-0.832583	-1.843926	-0.607701
C29	C	-0.882011	-1.814703	-0.498109
C30	C	-0.700266	-1.734360	-0.578261
C31	C	-1.014446	-1.734607	-0.578298
C32	C	-0.164030	-1.734585	-0.578292
C33	C	-0.081484	-1.734661	-0.578312
C34	C	-0.357653	-1.734503	-0.891289
C35	C	-0.357618	-1.734544	-1.024689
C36	C	-0.357749	-1.047449	-0.578264
C37	C	-0.357737	-1.180849	-0.578251
C38	C	-0.357764	-1.734380	-0.266421
C39	C	-0.357590	-1.734571	-0.133022
H40	H	-0.811026	-1.586339	-0.726047
Cl41	Cl	-0.915241	-1.919469	-0.393407
Cl42	Cl	-0.915739	-1.482089	-0.510447
Cl43	Cl	-0.799457	-1.666718	-0.325663
H44	H	-0.810802	-1.936452	-0.632621
H45	H	-0.903637	-1.788509	-0.780419
