data_functionalizedCrystal
_audit_creation_method	'MofGen! by Chris Wilmer'
_symmetry_space_group_name_H-M	'P1'
_symmetry_Int_Tables_number	1
_symmetry_cell_setting	triclinic
loop_
_symmetry_equiv_pos_as_xyz
  x,y,z
_cell_length_a	10.723023
_cell_length_b	12.837942
_cell_length_c	9.798715
_cell_angle_alpha	90.002853
_cell_angle_beta	90.002994
_cell_angle_gamma	89.648244
loop_
_atom_site_label
_atom_site_type_symbol
_atom_site_fract_x
_atom_site_fract_y
_atom_site_fract_z
O1	O	1.672991	0.145509	0.113476
O2	O	1.311351	0.159439	0.113482
O3	O	1.484152	0.001514	0.113471
O4	O	1.500190	0.303434	0.113487
O5	O	1.484139	0.001513	-0.113511
O6	O	1.311338	0.159437	-0.113500
O7	O	1.672978	0.145508	-0.113506
Zn8	Zn	1.492156	0.152473	-0.149541
Zn9	Zn	1.492173	0.152474	0.149517
O10	O	1.500177	0.303433	-0.113495
C11	C	1.264735	0.158425	-0.000008
C12	C	1.125851	0.155392	-0.000006
C13	C	1.063926	0.154040	-0.117589
C14	C	0.920382	0.150906	-0.117590
C15	C	1.478728	-0.037146	-0.000019
C16	C	1.462569	-0.152338	-0.000017
C17	C	1.656825	-0.391915	0.000009
C18	C	1.641649	-0.500149	0.000011
C19	C	1.417040	-0.477041	0.000000
C20	C	1.432217	-0.368807	-0.000002
C21	C	1.552113	-0.326248	-0.000000
C22	C	1.567289	-0.218013	-0.000012
C23	C	1.342681	-0.194907	-0.000013
C24	C	1.327505	-0.303140	-0.000011
C25	C	1.719594	0.146522	-0.000012
C26	C	1.858478	0.149554	-0.000006
C27	C	1.505601	0.342092	-0.000001
C28	C	1.521760	0.457284	0.000005
N29	N	1.492153	0.152471	-0.353641
C30	C	1.419646	0.219069	-0.421446
C31	C	1.419663	0.219068	-0.578609
N32	N	1.492185	0.152468	0.353617
H33	H	1.117178	0.155196	-0.218255
H34	H	1.754449	-0.357263	-0.000003
H35	H	1.357581	0.276082	-0.636919
H36	H	1.554246	0.095456	-0.411941
Br37	Br	1.316164	0.314119	-0.324292
Br38	Br	0.831629	0.148980	-0.285385
H39	H	0.911724	0.150724	0.100666
Br40	Br	1.254337	-0.534818	0.000047
H41	H	1.072599	0.154227	0.100660
Br42	Br	1.730002	-0.160254	-0.000024
Br43	Br	1.783764	-0.589266	0.000032
Br44	Br	1.164797	-0.360909	0.000004
H45	H	1.257417	-0.141429	-0.000031
H46	H	1.554260	0.095443	-0.588082
