data_functionalizedCrystal
_audit_creation_method	'MofGen! by Chris Wilmer'
_symmetry_space_group_name_H-M	'P1'
_symmetry_Int_Tables_number	1
_symmetry_cell_setting	triclinic
loop_
_symmetry_equiv_pos_as_xyz
  x,y,z
_cell_length_a	21.295420
_cell_length_b	12.594516
_cell_length_c	12.594509
_cell_angle_alpha	90.026199
_cell_angle_beta	90.021167
_cell_angle_gamma	90.014304
loop_
_atom_site_label
_atom_site_type_symbol
_atom_site_fract_x
_atom_site_fract_y
_atom_site_fract_z
Zn1	Zn	0.962397	-0.423760	0.601871
Zn2	Zn	1.462397	0.076240	1.101871
Zn3	Zn	0.962332	-0.601770	0.423898
Zn4	Zn	1.462332	-0.101770	0.923898
Zn5	Zn	0.857126	-0.423800	0.423900
Zn6	Zn	1.357126	0.076200	0.923900
Zn7	Zn	0.857116	-0.601691	0.601829
Zn8	Zn	1.357116	-0.101691	1.101829
O9	O	0.909743	-0.512755	0.512874
O10	O	1.409743	-0.012755	1.012874
O11	O	1.050478	-0.447389	0.578279
O12	O	1.550478	0.052611	1.078279
O13	O	0.948354	-0.578212	0.274953
O14	O	1.448354	-0.078212	0.774953
O15	O	0.871122	-0.274849	0.447526
O16	O	1.371122	0.225151	0.947526
O17	O	1.050430	-0.578172	0.447524
O18	O	1.550430	-0.078172	0.947524
O19	O	0.948464	-0.274819	0.578280
O20	O	1.448464	0.225181	1.078280
O21	O	0.871060	-0.447458	0.274954
O22	O	1.371060	0.052542	0.774954
O23	O	0.769036	-0.447382	0.447486
O24	O	1.269036	0.052618	0.947486
O25	O	0.871104	-0.578038	0.750780
O26	O	1.371104	-0.078038	1.250780
O27	O	0.769028	-0.578078	0.578209
O28	O	1.269028	-0.078078	1.078209
O29	O	0.948454	-0.447313	0.750811
O30	O	1.448454	0.052687	1.250811
O31	O	0.948344	-0.750705	0.447483
O32	O	1.448344	-0.250705	0.947483
O33	O	0.871042	-0.750647	0.578208
O34	O	1.371042	-0.250647	1.078208
C35	C	0.909702	-0.789296	0.512864
C36	C	1.409702	-0.289296	1.012864
C37	C	0.909741	-0.907602	0.512895
C38	C	1.409741	-0.407602	1.012895
C39	C	0.746191	-0.512726	0.512844
C40	C	1.246191	-0.012726	1.012844
C41	C	0.676223	-0.512740	0.512856
C42	C	1.176223	-0.012740	1.012856
C43	C	0.867693	-0.976862	0.583946
C44	C	1.367693	-0.476862	1.083946
C45	C	0.852355	-1.047727	0.486823
C46	C	1.352355	-0.547727	0.986823
C47	C	0.925136	-1.047536	0.610035
C48	C	1.425136	-0.547536	1.110035
C49	C	0.894374	-0.976908	0.415721
C50	C	1.394374	-0.476908	0.915721
C51	C	0.967181	-0.976711	0.538998
C52	C	1.467181	-0.476711	1.038998
C53	C	0.951866	-1.047544	0.441808
C54	C	1.451866	-0.547544	0.941808
C55	C	0.176778	-0.580934	0.580876
C56	C	0.676778	-0.080934	1.080876
C57	C	0.242520	-0.580934	0.580865
C58	C	0.742520	-0.080934	1.080865
C59	C	0.275384	-0.512779	0.512908
C60	C	0.775384	-0.012779	1.012908
C61	C	0.242499	-0.444639	0.444937
C62	C	0.742499	0.055361	0.944937
C63	C	0.176758	-0.444648	0.444943
C64	C	0.676758	0.055352	0.944943
N65	N	0.378611	-0.419586	0.504889
N66	N	0.878611	0.080414	1.004889
N67	N	0.441062	-0.419581	0.504890
N68	N	0.941062	0.080419	1.004890
C69	C	0.473458	-0.512749	0.512885
C70	C	0.973458	-0.012749	1.012885
N71	N	0.441044	-0.605926	0.520900
N72	N	0.941044	-0.105926	1.020900
N73	N	0.378587	-0.605931	0.520905
N74	N	0.878587	-0.105931	1.020905
C75	C	0.346669	-0.512762	0.512894
C76	C	0.846669	-0.012762	1.012894
C77	C	0.577620	-0.580892	0.580834
C78	C	1.077620	-0.080892	1.080834
C79	C	0.643364	-0.580894	0.580815
C80	C	1.143364	-0.080894	1.080815
C81	C	0.643342	-0.444589	0.444893
C82	C	1.143342	0.055411	0.944893
C83	C	0.577599	-0.444596	0.444906
C84	C	1.077599	0.055404	0.944906
C85	C	0.544743	-0.512746	0.512882
C86	C	1.044743	-0.012746	1.012882
C87	C	1.073933	-0.512785	0.512906
C88	C	1.573933	-0.012785	1.012906
C89	C	1.143901	-0.512798	0.512919
C90	C	1.643901	-0.012798	1.012919
C91	C	0.909785	-0.512662	0.790495
C92	C	1.409785	-0.012662	1.290495
C93	C	0.909803	-0.512622	0.908801
C94	C	1.409803	-0.012622	1.408801
C95	C	0.909801	-0.235134	0.512908
C96	C	1.409801	0.264866	1.012908
C97	C	0.909826	-0.116829	0.512923
C98	C	1.409826	0.383171	1.012923
C99	C	0.909737	-0.512771	0.236333
C100	C	1.409737	-0.012771	0.736333
C101	C	0.909841	-0.512511	0.118028
C102	C	1.409841	-0.012511	0.618028
C103	C	0.867746	-0.583684	0.978037
C104	C	1.367746	-0.083684	1.478037
C105	C	0.925185	-0.609693	1.048829
C106	C	1.425185	-0.109693	1.548829
C107	C	0.852409	-0.486549	1.048809
C108	C	1.352409	0.013451	1.548809
C109	C	0.967272	-0.538683	0.978034
C110	C	1.467272	-0.038683	1.478034
C111	C	0.894457	-0.415494	0.978008
C112	C	1.394457	0.084506	1.478008
C113	C	0.951936	-0.441466	1.048767
C114	C	1.451936	0.058534	1.548767
H115	H	0.832070	-0.945826	0.643945
H116	H	1.332070	-0.445826	1.143945
H117	H	0.269293	-0.636419	0.636207
H118	H	0.769293	-0.136419	1.136207
H119	H	1.015707	-0.945498	0.561099
H120	H	1.515707	-0.445498	1.061099
H121	H	0.987461	-1.078384	0.381664
H122	H	1.487461	-0.578384	0.881664
H123	H	0.150030	-0.636431	0.636224
H124	H	0.650030	-0.136431	1.136224
H125	H	0.881440	-0.333425	0.946877
H126	H	1.381440	0.166575	1.446877
H127	H	0.987559	-0.381324	1.079627
H128	H	1.487559	0.118676	1.579627
H129	H	1.015839	-0.560782	0.947075
H130	H	1.515839	-0.060782	1.447075
H131	H	0.269261	-0.389148	0.389605
H132	H	0.769261	0.110852	0.889605
H133	H	0.803855	-0.464542	1.079899
H134	H	1.303855	0.035458	1.579899
H135	H	0.149990	-0.389160	0.389604
H136	H	0.649990	0.110840	0.889604
H137	H	0.803819	-1.078943	0.464768
H138	H	1.303819	-0.578943	0.964768
H139	H	0.938185	-0.691785	1.079936
H140	H	1.438185	-0.191785	1.579936
H141	H	0.832207	-0.643871	0.946982
H142	H	1.332207	-0.143871	1.446982
H143	H	0.881331	-0.946012	0.333559
H144	H	1.381331	-0.446012	0.833559
H145	H	0.938123	-1.078561	0.692174
H146	H	1.438123	-0.578561	1.192174
H147	H	0.550867	-0.636385	0.636183
H148	H	1.050867	-0.136385	1.136183
H149	H	0.670131	-0.636386	0.636151
H150	H	1.170131	-0.136386	1.136151
H151	H	0.670099	-0.389099	0.389557
H152	H	1.170099	0.110901	0.889557
H153	H	0.550831	-0.389109	0.389572
H154	H	1.050831	0.110891	0.889572
