data_functionalizedCrystal
_audit_creation_method	'MofGen! by Chris Wilmer'
_symmetry_space_group_name_H-M	'P1'
_symmetry_Int_Tables_number	1
_symmetry_cell_setting	triclinic
loop_
_symmetry_equiv_pos_as_xyz
  x,y,z
_cell_length_a	16.625548
_cell_length_b	12.594516
_cell_length_c	16.625539
_cell_angle_alpha	89.976673
_cell_angle_beta	89.979432
_cell_angle_gamma	90.017121
loop_
_atom_site_label
_atom_site_type_symbol
_atom_site_fract_x
_atom_site_fract_y
_atom_site_fract_z
Zn1	Zn	1.232716	-0.423710	-0.455937
Zn2	Zn	1.732716	0.076290	0.044063
Zn3	Zn	1.232635	-0.601711	-0.321116
Zn4	Zn	1.732635	-0.101711	0.178884
Zn5	Zn	1.097878	-0.423750	-0.321118
Zn6	Zn	1.597878	0.076250	0.178882
Zn7	Zn	1.097864	-0.601650	-0.455906
Zn8	Zn	1.597864	-0.101650	0.044094
O9	O	1.165273	-0.512705	-0.388519
O10	O	1.665273	-0.012705	0.111481
O11	O	1.345538	-0.447331	-0.438065
O12	O	1.845538	0.052669	0.061935
O13	O	1.214731	-0.578147	-0.208284
O14	O	1.714731	-0.078147	0.291716
O15	O	1.115805	-0.274799	-0.339016
O16	O	1.615805	0.225201	0.160984
O17	O	1.345478	-0.578108	-0.339013
O18	O	1.845478	-0.078108	0.160987
O19	O	1.214870	-0.274769	-0.438067
O20	O	1.714870	0.225231	0.061933
O21	O	1.115726	-0.447400	-0.208285
O22	O	1.615726	0.052600	0.291715
O23	O	0.985044	-0.447341	-0.338985
O24	O	1.485044	0.052659	0.161015
O25	O	1.115780	-0.578003	-0.568743
O26	O	1.615780	-0.078003	-0.068743
O27	O	0.985033	-0.578043	-0.438014
O28	O	1.485033	-0.078043	0.061986
O29	O	1.214856	-0.447271	-0.568766
O30	O	1.714856	0.052729	-0.068766
O31	O	1.214717	-0.750649	-0.338983
O32	O	1.714717	-0.250649	0.161017
O33	O	1.115701	-0.750604	-0.438012
O34	O	1.615701	-0.250604	0.061988
C35	C	0.955782	-0.512690	-0.388497
C36	C	1.455782	-0.012690	0.111503
C37	C	0.866161	-0.512709	-0.388506
C38	C	1.366161	-0.012709	0.111494
C39	C	0.537986	-0.512716	-0.388541
C40	C	1.037986	-0.012716	0.111459
C41	C	0.629294	-0.512711	-0.388529
C42	C	1.129294	-0.012711	0.111471
C43	C	0.702071	-0.512713	-0.388523
C44	C	1.202071	-0.012713	0.111477
C45	C	0.793385	-0.512707	-0.388512
C46	C	1.293385	-0.012707	0.111488
C47	C	1.165220	-0.789246	-0.388511
C48	C	1.665220	-0.289246	0.111489
C49	C	1.165272	-0.907552	-0.388535
C50	C	1.665272	-0.407552	0.111465
C51	C	1.111412	-0.976819	-0.442359
C52	C	1.611412	-0.476819	0.057641
C53	C	1.091767	-1.047680	-0.368785
C54	C	1.591767	-0.547680	0.131215
C55	C	1.184990	-1.047490	-0.462122
C56	C	1.684990	-0.547490	0.037878
C57	C	1.145588	-0.976855	-0.314921
C58	C	1.645588	-0.476855	0.185079
C59	C	1.238845	-0.976658	-0.408308
C60	C	1.738845	-0.476658	0.091692
C61	C	1.219228	-1.047487	-0.334683
C62	C	1.719228	-0.547487	0.165317
C63	C	1.375582	-0.512721	-0.388542
C64	C	1.875582	-0.012721	0.111458
C65	C	1.465203	-0.512728	-0.388552
C66	C	1.965203	-0.012728	0.111448
C67	C	1.165326	-0.512626	-0.598828
C68	C	1.665326	-0.012626	-0.098828
C69	C	1.165348	-0.512592	-0.688449
C70	C	1.665348	-0.012592	-0.188449
C71	C	1.165348	-0.235085	-0.388545
C72	C	1.665348	0.264915	0.111455
C73	C	1.165380	-0.116779	-0.388556
C74	C	1.665380	0.383221	0.111444
C75	C	1.165385	-0.512473	-1.016625
C76	C	1.665385	-0.012473	-0.516625
C77	C	1.165373	-0.512510	-0.925317
C78	C	1.665373	-0.012510	-0.425317
C79	C	1.165367	-0.512534	-0.852540
C80	C	1.665367	-0.012534	-0.352540
C81	C	1.165354	-0.512568	-0.761226
C82	C	1.665354	-0.012568	-0.261226
C83	C	1.165267	-0.512708	-0.179028
C84	C	1.665267	-0.012708	0.320972
C85	C	1.165401	-0.512442	-0.089408
C86	C	1.665401	-0.012442	0.410592
H87	H	1.029597	-1.078900	-0.352077
H88	H	1.529597	-0.578900	0.147923
O89	O	1.273610	-1.084462	-0.280393
O90	O	1.773610	-0.584462	0.219607
C91	C	1.273518	-1.196402	-0.281447
C92	C	1.773518	-0.696402	0.218553
H93	H	1.249520	-1.225524	-0.341756
H94	H	1.749520	-0.725524	0.158244
H95	H	1.233488	-1.227400	-0.230937
H96	H	1.733488	-0.727400	0.269063
C97	C	1.389386	-1.201695	-0.195288
C98	C	1.889386	-0.701695	0.304712
C99	C	1.359917	-1.237464	-0.269363
C100	C	1.859917	-0.737464	0.230637
H101	H	1.442680	-1.227025	-0.187831
H102	H	1.942680	-0.727025	0.312169
H103	H	1.389447	-1.126279	-0.194576
H104	H	1.889447	-0.626279	0.305424
H105	H	1.356020	-1.227530	-0.153206
H106	H	1.856020	-0.727530	0.346794
H107	H	1.393277	-1.211617	-0.311445
H108	H	1.893277	-0.711617	0.188555
H109	H	1.359864	-1.312876	-0.270083
H110	H	1.859864	-0.812876	0.229917
O111	O	1.125632	-0.939824	-0.240725
O112	O	1.625632	-0.439824	0.259275
C113	C	1.125801	-0.827881	-0.241613
C114	C	1.625801	-0.327881	0.258387
H115	H	1.116783	-0.798546	-0.305855
H116	H	1.616783	-0.298546	0.194145
H117	H	1.185811	-0.797513	-0.217717
H118	H	1.685811	-0.297513	0.282283
C119	C	1.068181	-0.822279	-0.109180
C120	C	1.568181	-0.322279	0.390820
C121	C	1.057098	-0.786249	-0.188082
C122	C	1.557098	-0.286249	0.311918
H123	H	1.025805	-0.796598	-0.076157
H124	H	1.525805	-0.296598	0.423843
H125	H	1.068070	-0.897697	-0.108579
H126	H	1.568070	-0.397697	0.391421
H127	H	1.118192	-0.796970	-0.089277
H128	H	1.618192	-0.296970	0.410723
H129	H	1.007093	-0.811570	-0.207987
H130	H	1.507093	-0.311570	0.292013
H131	H	1.057199	-0.710834	-0.188685
H132	H	1.557199	-0.210834	0.311315
O133	O	1.312970	-0.939456	-0.428420
O134	O	1.812970	-0.439456	0.071580
C135	C	1.333480	-0.975402	-0.506067
C136	C	1.833480	-0.475402	-0.006067
H137	H	1.276333	-0.995333	-0.540802
H138	H	1.776333	-0.495333	-0.040802
H139	H	1.372638	-1.049396	-0.501021
H140	H	1.872638	-0.549396	-0.001021
C141	C	1.450369	-0.863307	-0.508114
C142	C	1.950369	-0.363307	-0.008114
C143	C	1.380181	-0.887779	-0.550779
C144	C	1.880181	-0.387779	-0.050779
H145	H	1.479180	-0.809261	-0.535694
H146	H	1.979180	-0.309261	-0.035694
H147	H	1.436554	-0.839092	-0.455801
H148	H	1.936554	-0.339092	0.044199
H149	H	1.482992	-0.924976	-0.503912
H150	H	1.982992	-0.424976	-0.003912
H151	H	1.347555	-0.826114	-0.554971
H152	H	1.847555	-0.326114	-0.054971
H153	H	1.393991	-0.911982	-0.603094
H154	H	1.893991	-0.411982	-0.103094
O155	O	1.204886	-1.084328	-0.536390
O156	O	1.704886	-0.584328	-0.036390
C157	C	1.218019	-0.997852	-0.588658
C158	C	1.718019	-0.497852	-0.088658
H159	H	1.234001	-0.924370	-0.551971
H160	H	1.734001	-0.424370	-0.051971
H161	H	1.161087	-0.981897	-0.624897
H162	H	1.661087	-0.481897	-0.124897
C163	C	1.268049	-1.114458	-0.691418
C164	C	1.768049	-0.614458	-0.191418
C165	C	1.287686	-1.024208	-0.646358
C166	C	1.787686	-0.524208	-0.146358
H167	H	1.311020	-1.130716	-0.727013
H168	H	1.811020	-0.630716	-0.227013
H169	H	1.259199	-1.172719	-0.656206
H170	H	1.759199	-0.672719	-0.156206
H171	H	1.220605	-1.101150	-0.721610
H172	H	1.720605	-0.601150	-0.221610
H173	H	1.335123	-1.037522	-0.616160
H174	H	1.835123	-0.537522	-0.116160
H175	H	1.296545	-0.965950	-0.681567
H176	H	1.796545	-0.465950	-0.181567
O177	O	1.056872	-0.939841	-0.496492
O178	O	1.556872	-0.439841	0.003508
C179	C	0.979441	-0.976058	-0.475358
C180	C	1.479441	-0.476058	0.024642
H181	H	0.977968	-0.995963	-0.408478
H182	H	1.477968	-0.495963	0.091522
H183	H	0.964340	-1.050125	-0.511749
H184	H	1.464340	-0.550125	-0.011749
C185	C	0.919058	-0.864231	-0.575603
C186	C	1.419058	-0.364231	-0.075603
C187	C	0.917247	-0.888670	-0.493458
C188	C	1.417247	-0.388670	0.006542
H189	H	0.880692	-0.810329	-0.586770
H190	H	1.380692	-0.310329	-0.086770
H191	H	0.971225	-0.839834	-0.589843
H192	H	1.471225	-0.339834	-0.089843
H193	H	0.906476	-0.925961	-0.605919
H194	H	1.406476	-0.425961	-0.105919
H195	H	0.929839	-0.826945	-0.463144
H196	H	1.429839	-0.326945	0.036856
H197	H	0.865081	-0.913055	-0.479212
H198	H	1.365081	-0.413055	0.020788
