data_functionalizedCrystal
_audit_creation_method	'MofGen! by Chris Wilmer'
_symmetry_space_group_name_H-M	'P1'
_symmetry_Int_Tables_number	1
_symmetry_cell_setting	triclinic
loop_
_symmetry_equiv_pos_as_xyz
  x,y,z
_cell_length_a	10.685901
_cell_length_b	10.685194
_cell_length_c	18.215399
_cell_angle_alpha	94.396576
_cell_angle_beta	85.637533
_cell_angle_gamma	90.347428
loop_
_atom_site_label
_atom_site_type_symbol
_atom_site_fract_x
_atom_site_fract_y
_atom_site_fract_z
Zn1	Zn	1.879610	-0.646345	0.302930
Zn2	Zn	1.863435	-0.856148	0.171211
Zn3	Zn	1.669832	-0.630321	0.190001
Zn4	Zn	1.653763	-0.840022	0.304360
O5	O	1.766660	-0.743209	0.242125
O6	O	2.053006	-0.687630	0.276994
O7	O	1.837708	-0.826235	0.070719
O8	O	1.711154	-0.456883	0.212247
O9	O	2.041122	-0.841772	0.180221
O10	O	1.865277	-0.468655	0.295215
O11	O	1.695469	-0.660321	0.084524
O12	O	1.492159	-0.644684	0.213633
O13	O	1.683767	-0.814287	0.407154
O14	O	1.480353	-0.798750	0.297652
O15	O	1.849696	-0.671993	0.406104
O16	O	1.822127	-1.029573	0.181608
O17	O	1.668082	-1.017725	0.279432
C18	C	1.440740	-0.718229	0.257837
C19	C	1.301308	-0.707573	0.264575
C20	C	1.741640	-1.069173	0.228650
C21	C	1.731051	-1.208631	0.222904
C22	C	2.093852	-0.768287	0.226352
C23	C	2.233282	-0.778974	0.219631
C24	C	1.766743	-0.743128	0.434078
C25	C	1.766778	-0.743094	0.515877
C26	C	1.791812	-0.415974	0.255667
C27	C	1.802530	-0.276526	0.261438
C28	C	1.766656	-0.743204	0.050919
C29	C	1.766891	-0.742904	-0.030876
C30	C	1.853212	-0.668929	0.703527
C31	C	1.853230	-0.668893	0.780386
C32	C	1.680448	-0.817072	0.781469
C33	C	1.680426	-0.817100	0.704611
C34	C	1.766815	-0.743031	0.665642
C35	C	1.766855	-0.742967	0.819359
C36	C	1.766874	-0.742930	0.902694
C37	C	1.766795	-0.743066	0.582302
H38	H	1.281712	-0.848261	0.176002
H39	H	1.252872	-0.638293	0.308212
H40	H	1.923582	-0.608550	0.811229
H41	H	1.923552	-0.608613	0.671801
O42	O	1.885048	-1.218451	0.306092
C43	C	1.819268	-1.137202	0.360134
H44	H	1.725684	-1.110525	0.339504
H45	H	1.801649	-1.186527	0.413280
C46	C	2.012570	-1.050622	0.400579
C47	C	1.897633	-1.017848	0.375238
H48	H	2.060910	-0.977001	0.409899
H49	H	2.056888	-1.105365	0.364172
H50	H	1.997871	-1.091728	0.444864
H51	H	1.912333	-0.976758	0.330949
H52	H	1.853319	-0.963096	0.411638
O53	O	1.596422	-0.889061	0.819215
C54	C	1.520180	-0.954495	0.769290
H55	H	1.519764	-0.902791	0.716842
H56	H	1.558799	-1.053299	0.754955
C57	C	1.385804	-1.025850	0.869386
C58	C	1.385284	-0.962340	0.804971
H59	H	1.302595	-1.030696	0.891396
H60	H	1.437172	-0.981770	0.903022
H61	H	1.417992	-1.108181	0.857431
H62	H	1.353111	-0.880007	0.816927
H63	H	1.333907	-1.006407	0.771338
O64	O	1.648288	-1.266691	0.178399
C65	C	1.561510	-1.336281	0.221083
H66	H	1.604240	-1.359079	0.273954
H67	H	1.472325	-1.278790	0.235658
C68	C	1.476988	-1.431161	0.111662
C69	C	1.529474	-1.459171	0.176597
H70	H	1.457221	-1.506963	0.084220
H71	H	1.535449	-1.384274	0.082904
H72	H	1.402674	-1.383250	0.123817
H73	H	1.603795	-1.507068	0.164441
H74	H	1.471025	-1.506069	0.205351
H75	H	1.610061	-0.877441	0.673765
