data_functionalizedCrystal
_audit_creation_method	'MofGen! by Chris Wilmer'
_symmetry_space_group_name_H-M	'P1'
_symmetry_Int_Tables_number	1
_symmetry_cell_setting	triclinic
loop_
_symmetry_equiv_pos_as_xyz
  x,y,z
_cell_length_a	14.971486
_cell_length_b	14.971486
_cell_length_c	13.448316
_cell_angle_alpha	89.988024
_cell_angle_beta	90.006165
_cell_angle_gamma	83.614129
loop_
_atom_site_label
_atom_site_type_symbol
_atom_site_fract_x
_atom_site_fract_y
_atom_site_fract_z
O1	O	-1.186936	-0.116573	0.082578
O2	O	-0.686936	0.383427	0.582578
O3	O	-0.926536	-0.130532	0.082605
O4	O	-0.426536	0.369468	0.582605
O5	O	-1.063716	0.006648	0.082584
O6	O	-0.563716	0.506648	0.582584
O7	O	-1.049757	-0.253752	0.082599
O8	O	-0.549757	0.246248	0.582599
O9	O	-1.063721	0.006672	-0.082800
O10	O	-0.563721	0.506672	0.417200
O11	O	-0.926541	-0.130507	-0.082779
O12	O	-0.426541	0.369493	0.417221
O13	O	-1.186941	-0.116548	-0.082806
O14	O	-0.686941	0.383452	0.417194
Cu15	Cu	-1.056742	-0.123526	-0.097893
Cu16	Cu	-0.556742	0.376474	0.402107
Cu17	Cu	-1.056736	-0.123554	0.097692
Cu18	Cu	-0.556736	0.376446	0.597692
O19	O	-1.049762	-0.253728	-0.082784
O20	O	-0.549762	0.246272	0.417216
C21	C	-0.893214	-0.129895	-0.000083
C22	C	-0.393214	0.370105	0.499917
C23	C	-0.793917	-0.128024	-0.000073
C24	C	-0.293917	0.371976	0.499927
C25	C	-1.063094	0.039985	-0.000108
C26	C	-0.563094	0.539985	0.499892
C27	C	-1.061223	0.139282	-0.000107
C28	C	-0.561223	0.639282	0.499893
C29	C	-1.220263	-0.117185	-0.000115
C30	C	-0.720263	0.382815	0.499885
C31	C	-1.319561	-0.119056	-0.000119
C32	C	-0.819561	0.380944	0.499881
C33	C	-0.736692	-0.208614	-0.000070
C34	C	-0.236692	0.291386	0.499930
C35	C	-0.643392	-0.206850	-0.000085
C36	C	-0.143392	0.293150	0.499915
C37	C	-0.607320	-0.124497	-0.000096
C38	C	-0.107320	0.375503	0.499904
C39	C	-0.664552	-0.043902	-0.000102
C40	C	-0.164552	0.456098	0.499898
C41	C	-0.757850	-0.045666	-0.000095
C42	C	-0.257850	0.454334	0.499905
C43	C	-0.470090	-0.040231	-0.000116
C44	C	0.029910	0.459769	0.499884
C45	C	-0.376786	-0.038466	-0.000122
C46	C	0.123214	0.461534	0.499878
C47	C	-0.355632	-0.201415	-0.000106
C48	C	0.144368	0.298585	0.499894
C49	C	-0.448930	-0.203179	-0.000099
C50	C	0.051070	0.296821	0.499901
C51	C	-0.506156	-0.122584	-0.000103
C52	C	-0.006156	0.377416	0.499897
C53	C	-1.050384	-0.287065	-0.000091
C54	C	-0.550384	0.212935	0.499909
C55	C	-1.052254	-0.386362	-0.000085
C56	C	-0.552254	0.113638	0.499915
N57	N	-1.056753	-0.123505	-0.235457
N58	N	-0.556753	0.376495	0.264543
C59	C	-1.141812	0.196507	-0.000116
C60	C	-0.641812	0.696507	0.499884
C61	C	-1.140049	0.289807	-0.000106
C62	C	-0.640049	0.789807	0.499894
C63	C	-1.057696	0.325879	-0.000093
C64	C	-0.557696	0.825879	0.499907
C65	C	-0.977101	0.268646	-0.000081
C66	C	-0.477101	0.768646	0.499919
C67	C	-0.978865	0.175349	-0.000084
C68	C	-0.478865	0.675349	0.499916
C69	C	-0.973430	0.463109	-0.000077
C70	C	-0.473430	0.963109	0.499923
C71	C	-0.971665	0.556413	-0.000076
C72	C	-0.471665	1.056413	0.499924
C73	C	-1.134614	0.577567	-0.000099
C74	C	-0.634614	1.077567	0.499901
C75	C	-1.136378	0.484269	-0.000102
C76	C	-0.636378	0.984269	0.499898
C77	C	-1.055782	0.427043	-0.000091
C78	C	-0.555782	0.927043	0.499909
N79	N	-1.056732	-0.123568	0.235257
N80	N	-0.556732	0.376432	0.735257
C81	C	-1.002546	-0.069110	0.287292
C82	C	-0.502546	0.430890	0.787292
C83	C	-1.002553	-0.069093	0.391395
C84	C	-0.502553	0.430907	0.891395
C85	C	-1.056743	-0.123539	0.443461
C86	C	-0.556743	0.376461	0.943461
C87	C	-1.110935	-0.178000	0.391419
C88	C	-0.610935	0.322000	0.891419
C89	C	-1.110932	-0.178012	0.287318
C90	C	-0.610932	0.321988	0.787318
C91	C	-1.110936	-0.177973	0.608399
C92	C	-0.610936	0.322027	1.108399
C93	C	-1.110939	-0.177963	0.712508
C94	C	-0.610939	0.322037	1.212508
C95	C	-1.002558	-0.069054	0.712476
C96	C	-0.502558	0.430946	1.212476
C97	C	-1.002555	-0.069066	0.608375
C98	C	-0.502555	0.430934	1.108375
C99	C	-1.056746	-0.123528	0.556340
C100	C	-0.556746	0.376472	1.056340
H101	H	-0.766054	-0.275675	-0.000060
H102	H	-0.266054	0.224325	0.499940
Cl103	Cl	-0.934402	-0.000656	0.456806
Cl104	Cl	-0.434402	0.499344	0.956806
H105	H	-0.596802	-0.272474	-0.000081
H106	H	-0.096802	0.227526	0.499919
H107	H	-0.958432	-0.024711	0.754848
H108	H	-0.458432	0.475289	1.254848
H109	H	-1.155061	-0.222301	0.754897
H110	H	-0.655061	0.277699	1.254897
Cl111	Cl	-1.245348	0.151169	-0.000141
Cl112	Cl	-0.745348	0.651169	0.499859
Cl113	Cl	-0.934423	-0.000625	0.542921
Cl114	Cl	-0.434423	0.499375	1.042921
Cl115	Cl	-1.179058	-0.246472	0.221902
Cl116	Cl	-0.679058	0.253528	0.721902
H117	H	-1.200238	0.624165	-0.000104
H118	H	-0.700238	1.124165	0.499896
H119	H	-0.904606	0.585780	-0.000082
H120	H	-0.404606	1.085780	0.499918
Cl121	Cl	-0.872107	0.391168	-0.000064
Cl122	Cl	-0.372107	0.891168	0.499936
Cl123	Cl	-0.934414	-0.000663	0.221847
Cl124	Cl	-0.434414	0.499337	0.721847
Cl125	Cl	-1.241366	0.361744	-0.000120
Cl126	Cl	-0.741366	0.861744	0.499880
Cl127	Cl	-1.239910	0.438922	-0.000112
Cl128	Cl	-0.739910	0.938922	0.499888
Cl129	Cl	-0.873570	0.313995	-0.000054
Cl130	Cl	-0.373570	0.813995	0.499946
H131	H	-0.478296	-0.270239	-0.000080
H132	H	0.021704	0.229761	0.499920
H133	H	-1.155067	-0.222320	0.566036
H134	H	-0.655067	0.277680	1.066036
Cl135	Cl	-0.283691	-0.302736	-0.000103
Cl136	Cl	0.216309	0.197264	0.499897
Cl137	Cl	-0.331439	0.065065	-0.000170
Cl138	Cl	0.168561	0.565065	0.499830
Cl139	Cl	-1.179064	-0.246443	0.456874
Cl140	Cl	-0.679064	0.253557	0.956874
H141	H	-0.913240	0.128756	-0.000077
H142	H	-0.413240	0.628756	0.499923
H143	H	-0.516682	0.025399	-0.000121
H144	H	-0.016682	0.525399	0.499879
Cl145	Cl	-0.829791	0.055651	-0.000103
Cl146	Cl	-0.329791	0.555651	0.499897
Cl147	Cl	-0.619204	0.059629	-0.000123
Cl148	Cl	-0.119204	0.559629	0.499877
