data_functionalizedCrystal
_audit_creation_method	'MofGen! by Chris Wilmer'
_symmetry_space_group_name_H-M	'P1'
_symmetry_Int_Tables_number	1
_symmetry_cell_setting	triclinic
loop_
_symmetry_equiv_pos_as_xyz
  x,y,z
_cell_length_a	10.723023
_cell_length_b	10.654550
_cell_length_c	9.730223
_cell_angle_alpha	89.998521
_cell_angle_beta	90.003450
_cell_angle_gamma	95.523762
loop_
_atom_site_label
_atom_site_type_symbol
_atom_site_fract_x
_atom_site_fract_y
_atom_site_fract_z
O1	O	-1.657213	0.176144	-0.114286
O2	O	-1.294063	0.193006	-0.114287
O3	O	-1.483988	0.001835	-0.114287
O4	O	-1.467289	0.367316	-0.114285
O5	O	-1.483975	0.001830	0.114293
O6	O	-1.294051	0.193001	0.114293
O7	O	-1.657201	0.176139	0.114294
Zn8	Zn	-1.475624	0.184569	0.150586
Zn9	Zn	-1.475640	0.184576	-0.150578
O10	O	-1.467276	0.367311	0.114295
C11	C	-1.247557	0.191777	0.000003
C12	C	-1.109002	0.188106	0.000003
C13	C	-1.047224	0.186467	0.118413
C14	C	-0.904020	0.182673	0.118416
C15	C	-1.482755	-0.044966	-0.000001
C16	C	-1.479087	-0.184408	-0.000010
C17	C	-1.473910	-0.380945	-0.124599
C18	C	-1.477370	-0.249925	-0.124607
C19	C	-1.477357	-0.249919	0.124603
C20	C	-1.473907	-0.380938	0.124610
C21	C	-0.703707	0.177369	0.000004
C22	C	-0.842262	0.181039	0.000005
C23	C	-1.468509	0.414111	0.000005
C24	C	-1.472177	0.553554	0.000005
N25	N	-1.475622	0.184564	0.356122
N26	N	-1.475652	0.184572	-0.356115
C27	C	-1.559749	0.099949	0.428048
C28	C	-1.559762	0.099950	0.571930
C29	C	-1.391515	0.269190	0.571950
C30	C	-1.391498	0.269183	0.428069
H31	H	-1.055876	0.186697	-0.101372
H32	H	-1.478764	-0.196566	0.226052
H33	H	-0.850891	0.181270	0.219791
Cl34	Cl	-1.479552	-0.167587	-0.281259
H35	H	-1.472499	-0.434271	0.226084
H36	H	-1.628247	0.031045	0.369471
H37	H	-1.472500	-0.434278	-0.226060
Cl38	Cl	-1.665524	-0.006430	0.662347
H39	H	-1.323025	0.338087	0.630543
H40	H	-1.322985	0.338087	0.369503
H41	H	-0.895381	0.182456	-0.101377
Cl42	Cl	-1.129237	0.188633	0.274936
