data_functionalizedCrystal
_audit_creation_method	'MofGen! by Chris Wilmer'
_symmetry_space_group_name_H-M	'P1'
_symmetry_Int_Tables_number	1
_symmetry_cell_setting	triclinic
loop_
_symmetry_equiv_pos_as_xyz
  x,y,z
_cell_length_a	11.026607
_cell_length_b	10.540539
_cell_length_c	10.065875
_cell_angle_alpha	98.880198
_cell_angle_beta	79.302338
_cell_angle_gamma	96.555754
loop_
_atom_site_label
_atom_site_type_symbol
_atom_site_fract_x
_atom_site_fract_y
_atom_site_fract_z
O1	O	1.632406	0.517971	-0.113482
O2	O	2.132406	1.017971	0.386518
O3	O	1.278575	0.457324	-0.113485
O4	O	1.778575	0.957324	0.386515
O5	O	1.463562	0.304709	-0.113482
O6	O	1.963562	0.804709	0.386518
O7	O	1.447418	0.670585	-0.113485
O8	O	1.947418	1.170585	0.386515
O9	O	1.428289	0.333960	0.113506
O10	O	1.928289	0.833960	0.613506
O11	O	1.243301	0.486575	0.113503
O12	O	1.743301	0.986575	0.613503
O13	O	1.597132	0.547222	0.113506
O14	O	2.097132	1.047222	0.613506
Zn15	Zn	1.414616	0.521543	0.149544
Zn16	Zn	1.914616	1.021543	0.649544
Zn17	Zn	1.461091	0.483003	-0.149523
Zn18	Zn	1.961091	0.983003	0.350477
O19	O	1.412145	0.699836	0.113503
O20	O	1.912145	1.199836	0.613503
C21	C	1.215630	0.460761	0.000009
C22	C	1.715630	0.960761	0.500009
C23	C	1.080627	0.427408	0.000007
C24	C	1.580627	0.927408	0.500007
C25	C	1.007620	0.519500	0.000005
C26	C	1.507620	1.019500	0.500005
C27	C	0.868087	0.485031	0.000004
C28	C	1.368087	0.985031	0.500004
C29	C	1.444715	0.271766	0.000010
C30	C	1.944715	0.771766	0.500010
C31	C	1.441094	0.130024	0.000002
C32	C	1.941094	0.630024	0.500002
C33	C	1.302369	-0.083873	-0.000508
C34	C	1.802369	0.416127	0.499492
C35	C	1.305961	0.063616	0.000003
C36	C	1.805961	0.563616	0.500003
C37	C	1.485983	0.099314	0.129624
C38	C	1.985983	0.599314	0.629624
C39	C	1.481354	-0.048226	0.129734
C40	C	1.981354	0.451774	0.629734
C41	C	1.524215	-0.081406	-0.128394
C42	C	2.024215	0.418594	0.371606
C43	C	1.525726	0.065627	-0.130108
C44	C	2.025726	0.565627	0.369892
C45	C	1.660077	0.543784	0.000010
C46	C	2.160077	1.043784	0.500010
C47	C	1.795082	0.577136	0.000002
C48	C	2.295082	1.077136	0.500002
C49	C	1.430992	0.732779	0.000008
C50	C	1.930992	1.232779	0.500008
C51	C	1.434615	0.874520	0.000007
C52	C	1.934615	1.374520	0.500007
N53	N	1.382908	0.547846	0.353649
N54	N	1.882908	1.047846	0.853649
N55	N	1.492809	0.456692	-0.353628
N56	N	1.992809	0.956692	0.146372
C57	C	1.450050	0.492145	0.421429
C58	C	1.950050	0.992145	0.921429
C59	C	1.425656	0.512401	0.578596
C60	C	1.925656	1.012401	1.078596
H61	H	1.269230	0.083037	-0.092915
H62	H	1.769230	0.583037	0.407085
H63	H	1.048415	0.623863	0.000012
H64	H	1.548415	1.123863	0.500012
H65	H	1.263433	-0.136144	-0.093462
H66	H	1.763433	0.363856	0.406538
H67	H	1.625464	0.110420	-0.137935
H68	H	2.125464	0.610420	0.362065
H69	H	1.234841	-0.113813	0.091924
H70	H	1.734841	0.386187	0.591924
F71	F	1.548574	0.409938	0.345200
F72	F	2.048574	0.909938	0.845200
H73	H	0.835869	0.681507	0.000010
H74	H	1.335869	1.181507	0.500010
F75	F	1.027309	0.290997	0.000017
F76	F	1.527309	0.790997	0.500017
H77	H	1.621956	-0.107365	-0.129265
H78	H	2.121956	0.392635	0.370735
H79	H	1.307360	0.610524	0.411974
H80	H	1.807360	1.110524	0.911974
H81	H	0.827302	0.380657	-0.000030
H82	H	1.327302	0.880657	0.499970
F83	F	1.326903	0.594331	0.654820
F84	F	1.826903	1.094331	1.154820
H85	H	1.568352	0.393999	0.588053
H86	H	2.068352	0.893999	1.088053
H87	H	1.239969	0.106079	0.093075
H88	H	1.739969	0.606079	0.593075
H89	H	1.418236	-0.074467	0.226628
H90	H	1.918236	0.425533	0.726628
H91	H	1.577626	-0.074149	0.135615
H92	H	2.077626	0.425851	0.635615
H93	H	1.584472	0.144027	0.134445
H94	H	2.084472	0.644027	0.634445
H95	H	1.495746	-0.135199	-0.226639
H96	H	1.995746	0.364801	0.273361
F97	F	1.483499	0.089957	-0.255463
F98	F	1.983499	0.589957	0.244537
F99	F	1.407345	0.158305	0.255707
F100	F	1.907345	0.658305	0.755707
