data_functionalizedCrystal
_audit_creation_method	'MofGen! by Chris Wilmer'
_symmetry_space_group_name_H-M	'P1'
_symmetry_Int_Tables_number	1
_symmetry_cell_setting	triclinic
loop_
_symmetry_equiv_pos_as_xyz
  x,y,z
_cell_length_a	15.298001
_cell_length_b	10.686285
_cell_length_c	10.686551
_cell_angle_alpha	99.084519
_cell_angle_beta	103.239397
_cell_angle_gamma	94.589269
loop_
_atom_site_label
_atom_site_type_symbol
_atom_site_fract_x
_atom_site_fract_y
_atom_site_fract_z
Zn1	Zn	-1.441449	0.072638	-1.057589
Zn2	Zn	-1.441376	0.301237	-0.829067
Zn3	Zn	-1.279809	0.131327	-0.802898
Zn4	Zn	-1.301316	0.321537	-1.004486
O5	O	-1.365987	0.206685	-0.923510
O6	O	-1.567701	0.069906	-1.060451
O7	O	-1.410913	0.294764	-0.645594
O8	O	-1.292281	-0.051732	-0.847955
O9	O	-1.567648	0.237856	-0.892557
O10	O	-1.411037	-0.094850	-1.035076
O11	O	-1.292210	0.169931	-0.626367
O12	O	-1.156400	0.189615	-0.796463
O13	O	-1.328936	0.272455	-1.191532
O14	O	-1.172201	0.329362	-0.944569
O15	O	-1.431891	0.089590	-1.230547
O16	O	-1.431767	0.479203	-0.841065
O17	O	-1.328865	0.494118	-0.969944
C18	C	-1.131562	0.268061	-0.861914
C19	C	-1.031277	0.294345	-0.835592
C20	C	-0.984121	0.394022	-0.735689
C21	C	-0.889898	0.418719	-0.710964
C22	C	-0.842822	0.343737	-0.786133
C23	C	-0.889978	0.244052	-0.886032
C24	C	-0.984210	0.219359	-0.910766
C25	C	-0.842911	0.169074	-0.961210
C26	C	-0.890067	0.069390	-1.061109
C27	C	-0.984290	0.044700	-1.085838
C28	C	-1.031366	0.119682	-1.010669
C29	C	-0.748679	0.193768	-0.936476
C30	C	-0.748768	0.019105	-1.111553
C31	C	-0.842991	-0.005593	-1.136278
C32	C	-0.601327	0.145062	-0.985335
C33	C	-0.701612	0.118781	-1.011650
C34	C	-1.382668	0.532098	-0.902617
C35	C	-1.389888	0.671286	-0.893743
C36	C	-1.382821	0.176740	-1.259017
C37	C	-1.389994	0.163979	-1.401990
C38	C	-1.349268	-0.120008	-0.944520
C39	C	-1.342144	-0.259225	-0.953473
C40	C	-1.349267	0.236409	-0.589328
C41	C	-1.342251	0.248771	-0.446424
H42	H	-0.766102	0.363852	-0.765996
H43	H	-1.295744	0.693786	-1.011401
C44	C	-0.894871	-0.115237	-1.246169
C45	C	-0.889818	-0.114459	-1.388320
C46	C	-0.941699	-0.224103	-1.498209
C47	C	-0.998633	-0.334524	-1.465948
C48	C	-1.003688	-0.335306	-1.323790
C49	C	-0.951807	-0.225662	-1.213901
H50	H	-0.847669	-0.032715	-1.412208
H51	H	-0.937956	-0.223523	-1.603444
H52	H	-1.037038	-0.415688	-1.547294
H53	H	-1.045836	-0.417050	-1.299903
H54	H	-0.955550	-0.226242	-1.108667
H55	H	-0.710439	-0.041951	-1.172763
C56	C	-0.838030	0.528364	-0.601083
C57	C	-0.889805	0.610845	-0.518397
C58	C	-0.837936	0.720498	-0.408510
C59	C	-0.734291	0.747670	-0.381308
C60	C	-0.682509	0.665188	-0.463996
C61	C	-0.734379	0.555535	-0.573883
H62	H	-0.966535	0.590732	-0.538531
H63	H	-0.876268	0.781556	-0.347299
H64	H	-0.695893	0.828842	-0.299963
H65	H	-0.605779	0.685301	-0.443862
H66	H	-0.696046	0.494476	-0.635094
H67	H	-1.436284	0.718285	-0.835801
C68	C	-1.279613	0.360034	-1.350059
C69	C	-1.295173	0.498876	-1.361180
C70	C	-1.232535	0.610140	-1.264806
C71	C	-1.154337	0.582563	-1.157312
C72	C	-1.138774	0.443715	-1.146187
C73	C	-1.201412	0.332451	-1.242561
H74	H	-1.353063	0.519296	-1.440757
H75	H	-1.244056	0.712925	-1.273042
H76	H	-1.107968	0.664928	-1.085970
H77	H	-1.080884	0.423295	-1.066610
H78	H	-1.189891	0.229666	-1.234325
C79	C	-1.035907	0.476495	-0.653018
C80	C	-1.092821	0.414101	-0.572624
C81	C	-1.144609	0.496583	-0.489949
C82	C	-1.139482	0.641459	-0.487669
C83	C	-1.082566	0.703860	-0.568067
C84	C	-1.030778	0.621378	-0.650741
H85	H	-1.096618	0.306849	-0.574309
H86	H	-1.186742	0.450389	-0.430433
H87	H	-1.177819	0.702517	-0.426468
H88	H	-1.078769	0.811112	-0.566382
H89	H	-0.988644	0.667573	-0.710257
C90	C	-1.452634	0.052711	-1.498361
C91	C	-1.459968	0.039667	-1.646095
C92	C	-1.522607	-0.071599	-1.742465
C93	C	-1.577913	-0.169821	-1.691101
C94	C	-1.570581	-0.156781	-1.543360
C95	C	-1.507941	-0.045515	-1.446990
H96	H	-1.419026	0.112380	-1.684124
H97	H	-1.528035	-0.081251	-1.851833
H98	H	-1.624282	-0.252187	-1.762440
H99	H	-1.611523	-0.229494	-1.505331
H100	H	-1.502514	-0.035862	-1.337622
H101	H	-1.108090	0.099576	-1.030791
C102	C	-0.696814	0.303408	-0.826587
C103	C	-0.624165	0.274968	-0.712176
C104	C	-0.572300	0.384614	-0.602278
C105	C	-0.593084	0.522700	-0.606789
C106	C	-0.665735	0.551145	-0.721204
C107	C	-0.717601	0.441500	-0.831103
H108	H	-0.608777	0.172744	-0.708833
H109	H	-0.518519	0.363556	-0.517580
H110	H	-0.554690	0.603866	-0.525435
H111	H	-0.681124	0.653370	-0.724548
H112	H	-0.771382	0.462558	-0.915800
H113	H	-1.022683	-0.036459	-1.167193
