data_functionalizedCrystal
_audit_creation_method	'MofGen! by Chris Wilmer'
_symmetry_space_group_name_H-M	'P1'
_symmetry_Int_Tables_number	1
_symmetry_cell_setting	triclinic
loop_
_symmetry_equiv_pos_as_xyz
  x,y,z
_cell_length_a	17.038272
_cell_length_b	17.699083
_cell_length_c	16.176319
_cell_angle_alpha	90.007696
_cell_angle_beta	89.994711
_cell_angle_gamma	92.802715
loop_
_atom_site_label
_atom_site_type_symbol
_atom_site_fract_x
_atom_site_fract_y
_atom_site_fract_z
O1	O	1.037102	-0.164337	-0.068717
O2	O	1.537102	0.335663	0.431283
O3	O	0.809476	-0.161728	-0.068725
O4	O	1.309476	0.338272	0.431275
O5	O	0.929720	-0.053269	-0.068713
O6	O	1.429720	0.446731	0.431287
O7	O	0.916858	-0.272796	-0.068729
O8	O	1.416858	0.227204	0.431271
O9	O	0.929703	-0.053261	0.068780
O10	O	1.429703	0.446739	0.568780
O11	O	0.809459	-0.161720	0.068768
O12	O	1.309459	0.338280	0.568768
O13	O	1.037086	-0.164329	0.068777
O14	O	1.537086	0.335671	0.568777
Cu15	Cu	0.923271	-0.163023	0.081326
Cu16	Cu	1.423271	0.336977	0.581326
Cu17	Cu	0.923290	-0.163033	-0.081275
Cu18	Cu	1.423290	0.336967	0.418725
O19	O	0.916841	-0.272788	0.068765
O20	O	1.416841	0.227212	0.568765
C21	C	0.780343	-0.159350	0.000020
C22	C	1.280343	0.340650	0.500020
C23	C	0.693562	-0.152270	0.000017
C24	C	1.193562	0.347730	0.500017
C25	C	0.929251	-0.025037	0.000033
C26	C	1.429251	0.474963	0.500033
C27	C	0.927868	0.059072	0.000034
C28	C	1.427868	0.559072	0.500034
C29	C	1.066218	-0.166707	0.000029
C30	C	1.566218	0.333293	0.500029
C31	C	1.153000	-0.173787	0.000027
C32	C	1.653000	0.326213	0.500027
C33	C	1.203220	-0.108777	0.000029
C34	C	1.703220	0.391223	0.500029
C35	C	1.284759	-0.115435	0.000031
C36	C	1.784759	0.384565	0.500031
C37	C	1.316078	-0.187103	0.000026
C38	C	1.816078	0.312897	0.500026
C39	C	1.265851	-0.252119	0.000027
C40	C	1.765851	0.247881	0.500027
C41	C	1.184313	-0.245460	0.000030
C42	C	1.684313	0.254540	0.500030
C43	C	1.561797	-0.210626	0.000021
C44	C	2.061797	0.289374	0.500021
C45	C	1.643342	-0.217280	0.000015
C46	C	2.143342	0.282720	0.500015
C47	C	1.662245	-0.080595	0.000021
C48	C	2.162245	0.419405	0.500021
C49	C	1.580704	-0.073943	0.000020
C50	C	2.080704	0.426057	0.500020
C51	C	1.530485	-0.138958	0.000025
C52	C	2.030485	0.361042	0.500025
C53	C	1.399424	-0.193910	0.000026
C54	C	1.899424	0.306090	0.500026
C55	C	1.447140	-0.132151	0.000031
C56	C	1.947140	0.367849	0.500031
C57	C	0.917311	-0.301020	0.000016
C58	C	1.417311	0.198980	0.500016
C59	C	0.918693	-0.385129	0.000010
C60	C	1.418693	0.114871	0.500010
N61	N	0.923263	-0.163016	0.195692
N62	N	1.423263	0.336984	0.695692
C63	C	0.998449	0.103023	0.000037
C64	C	1.498449	0.603023	0.500037
C65	C	0.997145	0.182053	0.000030
C66	C	1.497145	0.682053	0.500030
C67	C	0.925260	0.217130	0.000025
C68	C	1.425260	0.717130	0.500025
C69	C	0.854674	0.173173	0.000018
C70	C	1.354674	0.673173	0.500018
C71	C	0.855978	0.094145	0.000020
C72	C	1.355978	0.594145	0.500020
C73	C	0.849411	0.491885	0.000011
C74	C	1.349411	0.991885	0.500011
C75	C	0.848112	0.570919	0.000012
C76	C	1.348112	1.070919	0.500012
C77	C	0.990578	0.579792	0.000022
C78	C	1.490578	1.079792	0.500022
C79	C	0.991882	0.500764	0.000023
C80	C	1.491882	1.000764	0.500023
C81	C	0.921297	0.456814	0.000012
C82	C	1.421297	0.956814	0.500012
C83	C	0.922711	0.371121	0.000019
C84	C	1.422711	0.871121	0.500019
C85	C	0.923844	0.302821	0.000024
C86	C	1.423844	0.802821	0.500024
N87	N	0.923305	-0.163035	-0.195640
N88	N	1.423305	0.336965	0.304360
C89	C	0.976523	-0.115013	0.238961
C90	C	1.476523	0.384987	0.738961
C91	C	0.976527	-0.115012	0.325508
C92	C	1.476527	0.384988	0.825508
C93	C	0.923274	-0.163020	0.368784
C94	C	1.423274	0.336980	0.868784
C95	C	0.870008	-0.211025	0.325509
C96	C	1.370008	0.288975	0.825509
C97	C	0.870001	-0.211021	0.238963
C98	C	1.370001	0.288979	0.738963
C99	C	0.870035	-0.211041	0.674537
C100	C	1.370035	0.288959	1.174537
C101	C	0.870048	-0.211043	0.761089
C102	C	1.370048	0.288957	1.261089
C103	C	0.976561	-0.115032	0.761082
C104	C	1.476561	0.384968	1.261082
C105	C	0.976554	-0.115028	0.674536
C106	C	1.476554	0.384972	1.174536
C107	C	0.923286	-0.163031	0.631268
C108	C	1.423286	0.336969	1.131268
C109	C	0.923281	-0.163030	0.537424
C110	C	1.423281	0.336970	1.037424
C111	C	0.923282	-0.163025	0.462627
C112	C	1.423282	0.336975	0.962627
H113	H	1.177728	-0.050417	0.000028
H114	H	1.677728	0.449583	0.500028
H115	H	1.703141	-0.027664	0.000018
H116	H	2.203141	0.472336	0.500018
H117	H	1.143424	-0.298399	0.000032
H118	H	1.643424	0.201601	0.500032
H119	H	1.291356	-0.310473	0.000028
H120	H	1.791356	0.189527	0.500028
H121	H	1.019891	-0.075923	0.203731
H122	H	1.519891	0.424077	0.703731
H123	H	1.048052	0.615585	0.000026
H124	H	1.548052	1.115585	0.500026
Br125	Br	1.352913	-0.027202	0.000042
Br126	Br	1.852913	0.472798	0.500042
H127	H	1.019920	-0.075939	0.639304
H128	H	1.519920	0.424061	1.139304
H129	H	0.798504	0.058361	0.000016
H130	H	1.298504	0.558361	0.500016
Br131	Br	1.441934	-0.291173	0.000011
Br132	Br	1.941934	0.208827	0.500011
Br133	Br	0.797746	-0.276187	0.615821
Br134	Br	1.297746	0.223813	1.115821
H135	H	1.050419	0.472208	0.000032
H136	H	1.550419	0.972208	0.500032
H137	H	1.555211	-0.015583	0.000024
H138	H	2.055211	0.484417	0.500024
Br139	Br	1.685844	-0.314551	0.000006
Br140	Br	2.185844	0.185449	0.500006
Br141	Br	1.096013	0.055426	0.000057
Br142	Br	1.596013	0.555426	0.500057
Br143	Br	1.092938	0.241698	0.000035
Br144	Br	1.592938	0.741698	0.500035
Br145	Br	0.750546	0.618523	0.000006
Br146	Br	1.250546	1.118523	0.500006
Br147	Br	0.753615	0.432249	-0.000008
Br148	Br	1.253615	0.932249	0.499992
Br149	Br	1.048807	-0.049861	0.384234
Br150	Br	1.548807	0.450139	0.884234
Br151	Br	0.757113	0.220777	-0.000003
Br152	Br	1.257113	0.720777	0.499997
H153	H	1.019933	-0.075943	0.796320
H154	H	1.519933	0.424057	1.296320
H155	H	0.826680	-0.250138	0.796322
H156	H	1.326680	0.249862	1.296322
H157	H	0.826645	-0.250111	0.360749
H158	H	1.326645	0.249889	0.860749
H159	H	0.826630	-0.250110	0.203734
H160	H	1.326630	0.249890	0.703734
H161	H	1.520918	-0.263567	0.000021
H162	H	2.020918	0.236433	0.500021
H163	H	1.421637	-0.073798	0.000025
H164	H	1.921637	0.426202	0.500025
