data_functionalizedCrystal
_audit_creation_method	'MofGen! by Chris Wilmer'
_symmetry_space_group_name_H-M	'P1'
_symmetry_Int_Tables_number	1
_symmetry_cell_setting	triclinic
loop_
_symmetry_equiv_pos_as_xyz
  x,y,z
_cell_length_a	18.050591
_cell_length_b	13.897448
_cell_length_c	13.897441
_cell_angle_alpha	89.969401
_cell_angle_beta	90.027901
_cell_angle_gamma	89.986302
loop_
_atom_site_label
_atom_site_type_symbol
_atom_site_fract_x
_atom_site_fract_y
_atom_site_fract_z
Zn1	Zn	1.135398	0.384087	0.545566
Zn2	Zn	1.635398	0.884087	1.045566
Zn3	Zn	1.135316	0.545409	0.384267
Zn4	Zn	1.635316	1.045409	0.884267
Zn5	Zn	1.011202	0.384118	0.384264
Zn6	Zn	1.511202	0.884118	0.884264
Zn7	Zn	1.011188	0.545330	0.545499
Zn8	Zn	1.511188	1.045330	1.045499
O9	O	1.073276	0.464736	0.464899
O10	O	1.573276	0.964736	0.964899
O11	O	1.239312	0.405506	0.524198
O12	O	1.739312	0.905506	1.024198
O13	O	1.118824	0.524059	0.249285
O14	O	1.618824	1.024059	0.749285
O15	O	1.027717	0.249132	0.405687
O16	O	1.527717	0.749132	0.905687
O17	O	1.239252	0.524029	0.405693
O18	O	1.739252	1.024029	0.905693
O19	O	1.118963	0.249109	0.524195
O20	O	1.618963	0.749109	1.024195
O21	O	1.027638	0.405559	0.249282
O22	O	1.527638	0.905559	0.749282
O23	O	0.907276	0.405483	0.405623
O24	O	1.407276	0.905483	0.905623
O25	O	1.027693	0.523895	0.680490
O26	O	1.527693	1.023895	1.180490
O27	O	0.907265	0.523925	0.524082
O28	O	1.407265	1.023925	1.024082
O29	O	1.118950	0.405430	0.680539
O30	O	1.618950	0.905430	1.180539
O31	O	1.118810	0.680380	0.405628
O32	O	1.618810	1.180380	0.905628
O33	O	1.027614	0.680322	0.524085
O34	O	1.527614	1.180322	1.024085
C35	C	1.073222	0.715350	0.464871
C36	C	1.573222	1.215350	0.964871
C37	C	1.073267	0.822564	0.464891
C38	C	1.573267	1.322564	0.964891
C39	C	0.880324	0.464700	0.464846
C40	C	1.380324	0.964700	0.964846
C41	C	0.797778	0.464708	0.464846
C42	C	1.297778	0.964708	0.964846
C43	C	1.073329	0.464651	0.716492
C44	C	1.573329	0.964651	1.216492
C45	C	1.073351	0.464614	0.823706
C46	C	1.573351	0.964614	1.323706
C47	C	0.598312	0.400224	0.400576
C48	C	1.098312	0.900224	0.900576
C49	C	0.548902	0.488207	0.376841
C50	C	1.048902	0.988207	0.876841
C51	C	0.646648	0.464737	0.464889
C52	C	1.146648	0.964737	0.964889
C53	C	0.548976	0.376785	0.488622
C54	C	1.048976	0.876785	0.988622
C55	C	0.500663	0.464758	0.464930
C56	C	1.000663	0.964758	0.964930
C57	C	0.598326	0.552766	0.441108
C58	C	1.098326	1.052766	0.941108
C59	C	0.598403	0.441285	0.552930
C60	C	1.098403	0.941285	1.052930
C61	C	0.549016	0.529328	0.529228
C62	C	1.049016	1.029328	1.029228
C63	C	0.730746	0.464724	0.464864
C64	C	1.230746	0.964724	0.964864
C65	C	0.416566	0.464781	0.464955
C66	C	0.916566	0.964781	0.964955
C67	C	1.266982	0.464773	0.464953
C68	C	1.766982	0.964773	0.964953
C69	C	1.349528	0.464788	0.464976
C70	C	1.849528	0.964788	0.964976
C71	C	1.073351	0.213143	0.464948
C72	C	1.573351	0.713143	0.964948
C73	C	1.073383	0.105929	0.464969
C74	C	1.573383	0.605929	0.964969
C75	C	1.073345	1.018859	0.464952
C76	C	1.573345	1.518859	0.964952
C77	C	1.073299	0.909627	0.464921
C78	C	1.573299	1.409627	0.964921
C79	C	1.073266	0.464751	0.214285
C80	C	1.573266	0.964751	0.714285
C81	C	1.073388	0.464516	0.107071
C82	C	1.573388	0.964516	0.607071
C83	C	1.073371	0.464549	1.020001
C84	C	1.573371	0.964549	1.520001
C85	C	1.073358	0.464588	0.910769
C86	C	1.573358	0.964588	1.410769
H87	H	0.619957	0.345727	0.346129
H88	H	1.119957	0.845727	0.846129
Cl89	Cl	0.515804	0.613665	0.613227
Cl90	Cl	1.015804	1.113665	1.113227
Cl91	Cl	0.631999	0.410597	0.667825
Cl92	Cl	1.131999	0.910597	1.167825
H93	H	0.527259	0.302407	0.508645
H94	H	1.027259	0.802407	1.008645
H95	H	0.527160	0.508058	0.302403
H96	H	1.027160	1.008058	0.802403
Cl97	Cl	0.631650	0.667649	0.410008
Cl98	Cl	1.131650	1.167649	0.910008
