data_functionalizedCrystal
_audit_creation_method	'MofGen! by Chris Wilmer'
_symmetry_space_group_name_H-M	'P1'
_symmetry_Int_Tables_number	1
_symmetry_cell_setting	triclinic
loop_
_symmetry_equiv_pos_as_xyz
  x,y,z
_cell_length_a	12.759401
_cell_length_b	15.299816
_cell_length_c	12.759393
_cell_angle_alpha	99.651000
_cell_angle_beta	89.979062
_cell_angle_gamma	80.352053
loop_
_atom_site_label
_atom_site_type_symbol
_atom_site_fract_x
_atom_site_fract_y
_atom_site_fract_z
Zn1	Zn	1.678551	-0.358974	-0.666432
Zn2	Zn	2.178551	0.141026	-0.166432
Zn3	Zn	1.708816	-0.509814	-0.521179
Zn4	Zn	2.208816	-0.009814	-0.021179
Zn5	Zn	1.502860	-0.359022	-0.490777
Zn6	Zn	2.002860	0.140978	0.009223
Zn7	Zn	1.533203	-0.509751	-0.696804
Zn8	Zn	2.033203	-0.009751	-0.196804
O9	O	1.605858	-0.434390	-0.593798
O10	O	2.105858	0.065610	-0.093798
O11	O	1.829588	-0.378989	-0.647177
O12	O	2.329588	0.121011	-0.147177
O13	O	1.681463	-0.489858	-0.370135
O14	O	2.181463	0.010142	0.129865
O15	O	1.500801	-0.232808	-0.488643
O16	O	2.000801	0.267192	0.011357
O17	O	1.851824	-0.489811	-0.540460
O18	O	2.351824	0.010189	-0.040460
O19	O	1.629881	-0.232772	-0.617696
O20	O	2.129881	0.267228	-0.117696
O21	O	1.530147	-0.379071	-0.347798
O22	O	2.030147	0.120929	0.152202
O23	O	1.359863	-0.379010	-0.518094
O24	O	1.859863	0.120990	-0.018094
O25	O	1.552517	-0.489704	-0.839787
O26	O	2.052517	0.010296	-0.339787
O27	O	1.382156	-0.489750	-0.669461
O28	O	1.882156	0.010250	-0.169461
O29	O	1.659303	-0.378928	-0.817473
O30	O	2.159303	0.121072	-0.317473
O31	O	1.710886	-0.636014	-0.569911
O32	O	2.210886	-0.136014	-0.069911
O33	O	1.581864	-0.635967	-0.698941
O34	O	2.081864	-0.135967	-0.198941
C35	C	1.332888	-0.434379	-0.593775
C36	C	1.832888	0.065621	-0.093775
C37	C	1.216115	-0.434396	-0.593794
C38	C	1.716115	0.065604	-0.093794
C39	C	1.172906	-0.492146	-0.672523
C40	C	1.672906	0.007854	-0.172523
C41	C	1.063183	-0.492150	-0.672545
C42	C	1.563183	0.007850	-0.172545
C43	C	1.039886	-0.376650	-0.515099
C44	C	1.539886	0.123350	-0.015099
C45	C	1.149607	-0.376643	-0.515083
C46	C	1.649607	0.123357	-0.015083
C47	C	1.652980	-0.668715	-0.641044
C48	C	2.152980	-0.168715	-0.141044
C49	C	1.673235	-0.768960	-0.661291
C50	C	2.173235	-0.268960	-0.161291
C51	C	1.461779	-1.051906	-0.449446
C52	C	1.961779	-0.551906	0.050554
C53	C	1.442743	-0.957721	-0.430426
C54	C	1.942743	-0.457721	0.069574
C55	C	1.500364	-0.910526	-0.488140
C56	C	2.000364	-0.410526	0.011860
C57	C	1.577025	-0.957525	-0.564879
C58	C	2.077025	-0.457525	-0.064879
C59	C	1.596058	-1.051720	-0.583907
C60	C	2.096058	-0.551720	-0.083907
C61	C	1.634643	-0.910340	-0.622601
C62	C	2.134643	-0.410340	-0.122601
C63	C	1.711304	-0.957339	-0.699339
C64	C	2.211304	-0.457339	-0.199339
C65	C	1.730333	-1.051525	-0.718364
C66	C	2.230333	-0.551525	-0.218364
C67	C	1.672712	-1.098719	-0.660649
C68	C	2.172712	-0.598719	-0.160649
C69	C	1.615611	-0.816145	-0.603572
C70	C	2.115611	-0.316145	-0.103572
C71	C	1.749890	-0.815959	-0.738033
C72	C	2.249890	-0.315959	-0.238033
C73	C	1.768926	-0.910145	-0.757054
C74	C	2.268926	-0.410145	-0.257054
C75	C	1.879893	-0.434402	-0.593822
C76	C	2.379893	0.065598	-0.093822
C77	C	1.996671	-0.434407	-0.593832
C78	C	2.496671	0.065593	-0.093832
C79	C	1.605919	-0.434304	-0.867814
C80	C	2.105919	0.065696	-0.367814
C81	C	1.605945	-0.434267	-0.984583
C82	C	2.105945	0.065733	-0.484583
C83	C	1.558580	-0.199151	-0.546391
C84	C	2.058580	0.300849	-0.046391
C85	C	1.538433	-0.098905	-0.526189
C86	C	2.038433	0.401095	-0.026189
C87	C	1.661552	-0.376577	-1.027826
C88	C	2.161552	0.123423	-0.527826
C89	C	1.661562	-0.376538	-1.137542
C90	C	2.161562	0.123462	-0.637542
C91	C	1.550357	-0.491887	-1.160765
C92	C	2.050357	0.008113	-0.660765
C93	C	1.550341	-0.491920	-1.051050
C94	C	2.050341	0.008080	-0.551050
C95	C	1.605844	-0.434411	-0.320835
C96	C	2.105844	0.065589	0.179165
C97	C	1.605970	-0.434194	-0.204015
C98	C	2.105970	0.065806	0.295985
H99	H	0.985722	-0.329631	-0.451013
H100	H	1.485722	0.170369	0.048987
O101	O	1.191418	-0.320513	-0.438495
O102	O	1.691418	0.179487	0.061505
C103	C	1.109189	-0.269530	-0.369035
C104	C	1.609189	0.230470	0.130965
H105	H	1.038401	-0.306470	-0.372779
H106	H	1.538401	0.193530	0.127221
H107	H	1.138902	-0.259821	-0.284317
H108	H	1.638902	0.240179	0.215683
H109	H	1.083771	-0.201074	-0.393841
H110	H	1.583771	0.298926	0.106159
H111	H	1.505089	-0.538828	-1.214895
H112	H	2.005089	-0.038828	-0.714895
H113	H	1.484861	-0.833836	-0.472647
H114	H	1.984861	-0.333836	0.027353
H115	H	1.831343	-0.948425	-0.819536
H116	H	2.331343	-0.448425	-0.319536
H117	H	1.553193	-0.777887	-0.541091
H118	H	2.053193	-0.277887	-0.041091
O119	O	1.237445	-0.548142	-0.749118
O120	O	1.737445	-0.048142	-0.249118
C121	C	1.206725	-0.528551	-0.849918
C122	C	1.706725	-0.028551	-0.349918
H123	H	1.162076	-0.456508	-0.840835
H124	H	1.662076	0.043492	-0.340835
H125	H	1.280479	-0.536367	-0.903376
H126	H	1.780479	-0.036367	-0.403376
H127	H	1.152779	-0.576936	-0.887053
H128	H	1.652779	-0.076936	-0.387053
H129	H	1.028008	-0.539174	-0.736655
H130	H	1.528008	-0.039174	-0.236655
H131	H	1.380325	-0.919457	-0.367947
H132	H	1.880325	-0.419457	0.132053
O133	O	1.405781	-1.097851	-0.393558
O134	O	1.905781	-0.597851	0.106442
C135	C	1.348887	-1.152326	-0.464327
C136	C	1.848887	-0.652326	0.035673
H137	H	1.388737	-1.166346	-0.546812
H138	H	1.888737	-0.666346	-0.046812
H139	H	1.348224	-1.218603	-0.434917
H140	H	1.848224	-0.718603	0.065083
H141	H	1.263698	-1.116079	-0.468477
H142	H	1.763698	-0.616079	0.031523
H143	H	1.688210	-1.175413	-0.676128
H144	H	2.188210	-0.675413	-0.176128
H145	H	1.505052	-0.538898	-1.015841
H146	H	2.005052	-0.038898	-0.515841
H147	H	1.706825	-0.329629	-0.973711
H148	H	2.206825	0.170371	-0.473711
H149	H	1.792751	-1.089789	-0.780854
H150	H	2.292751	-0.589789	-0.280854
O151	O	1.715505	-0.320373	-1.179404
O152	O	2.215505	0.179627	-0.679404
C153	C	1.674462	-0.230492	-1.134487
C154	C	2.174462	0.269508	-0.634487
H155	H	1.633687	-0.228650	-1.054444
H156	H	2.133687	0.271350	-0.554444
H157	H	1.742162	-0.190059	-1.122592
H158	H	2.242162	0.309941	-0.622592
H159	H	1.614351	-0.200086	-1.190102
H160	H	2.114351	0.299914	-0.690102
O161	O	1.805808	-0.769985	-0.793975
O162	O	2.305808	-0.269985	-0.293975
C163	C	1.772556	-0.676774	-0.760742
C164	C	2.272556	-0.176774	-0.260742
H165	H	1.735607	-0.663992	-0.677049
H166	H	2.235607	-0.163992	-0.177049
H167	H	1.844001	-0.640912	-0.760694
H168	H	2.344001	-0.140912	-0.260694
H169	H	1.711173	-0.650045	-0.817610
H170	H	2.211173	-0.150045	-0.317610
