data_functionalizedCrystal
_audit_creation_method	'MofGen! by Chris Wilmer'
_symmetry_space_group_name_H-M	'P1'
_symmetry_Int_Tables_number	1
_symmetry_cell_setting	triclinic
loop_
_symmetry_equiv_pos_as_xyz
  x,y,z
_cell_length_a	26.210047
_cell_length_b	19.188930
_cell_length_c	19.188930
_cell_angle_alpha	96.855221
_cell_angle_beta	90.000631
_cell_angle_gamma	89.977114
loop_
_atom_site_label
_atom_site_type_symbol
_atom_site_fract_x
_atom_site_fract_y
_atom_site_fract_z
O1	O	0.042599	-0.926151	0.087158
O2	O	0.542599	-0.426151	0.587158
O3	O	0.042564	-0.722839	0.098892
O4	O	0.542564	-0.222839	0.598892
O5	O	0.042573	-0.830362	-0.008631
O6	O	0.542573	-0.330362	0.491369
O7	O	0.042591	-0.818628	0.194680
O8	O	0.542591	-0.318628	0.694680
O9	O	-0.042285	-0.830341	-0.008614
O10	O	0.457715	-0.330341	0.491386
O11	O	-0.042294	-0.722819	0.098909
O12	O	0.457706	-0.222819	0.598909
O13	O	-0.042259	-0.926130	0.087174
O14	O	0.457741	-0.426130	0.587174
Cu15	Cu	-0.050025	-0.824472	0.093043
Cu16	Cu	0.449975	-0.324472	0.593043
Cu17	Cu	0.050330	-0.824497	0.093023
Cu18	Cu	0.550330	-0.324497	0.593023
O19	O	-0.042267	-0.818607	0.194697
O20	O	0.457733	-0.318607	0.694697
C21	C	0.000131	-0.696818	0.098520
C22	C	0.500131	-0.196818	0.598520
C23	C	0.000117	-0.619313	0.097380
C24	C	0.500117	-0.119313	0.597380
N25	N	-0.120609	-0.824460	0.093056
N26	N	0.379391	-0.324460	0.593056
C27	C	0.000142	-0.829972	-0.034634
C28	C	0.500142	-0.329972	0.465366
C29	C	0.000137	-0.828831	-0.112138
C30	C	0.500137	-0.328831	0.387862
C31	C	-0.473119	-0.872103	0.045423
C32	C	0.026881	-0.372103	0.545423
C33	C	-0.686778	-0.872118	0.045413
C34	C	-0.186778	-0.372118	0.545413
O35	O	-0.714396	-0.912599	0.004916
O36	O	-0.214396	-0.412599	0.504916
N37	N	-0.713503	-0.824501	0.093008
N38	N	-0.213503	-0.324501	0.593008
C39	C	-0.686809	-0.776872	0.140605
C40	C	-0.186809	-0.276872	0.640605
O41	O	-0.714443	-0.736366	0.181083
O42	O	-0.214443	-0.236366	0.681083
C43	C	-0.473152	-0.776854	0.140611
C44	C	0.026848	-0.276854	0.640611
C45	C	-0.446430	-0.824480	0.093018
C46	C	0.053570	-0.324480	0.593018
C47	C	-0.446397	-0.919724	-0.002167
C48	C	0.053603	-0.419724	0.497833
C49	C	-0.392985	-0.919723	-0.002162
C50	C	0.107015	-0.419723	0.497838
C51	C	-0.366296	-0.872099	0.045434
C52	C	0.133704	-0.372099	0.545434
C53	C	-0.393018	-0.824478	0.093023
C54	C	0.106982	-0.324478	0.593023
C55	C	-0.446460	-0.729223	0.188205
C56	C	0.053540	-0.229223	0.688205
C57	C	-0.393042	-0.729222	0.188201
C58	C	0.106958	-0.229222	0.688201
C59	C	-0.366320	-0.776848	0.140608
C60	C	0.133680	-0.276848	0.640608
C61	C	-0.312918	-0.776853	0.140624
C62	C	0.187082	-0.276853	0.640624
N63	N	-0.286193	-0.824471	0.093029
N64	N	0.213807	-0.324471	0.593029
C65	C	-0.312882	-0.872094	0.045434
C66	C	0.187118	-0.372094	0.545434
C67	C	-0.798983	-0.776886	0.140600
C68	C	-0.298983	-0.276886	0.640600
C69	C	-0.852397	-0.776891	0.140599
C70	C	-0.352397	-0.276891	0.640599
C71	C	-0.852361	-0.872137	0.045406
C72	C	-0.352361	-0.372137	0.545406
C73	C	-0.798946	-0.872134	0.045410
C74	C	-0.298946	-0.372134	0.545410
C75	C	-0.772258	-0.824504	0.093005
C76	C	-0.272258	-0.324504	0.593005
C77	C	-0.200714	-0.872087	0.045450
C78	C	0.299286	-0.372087	0.545450
C79	C	-0.147298	-0.872083	0.045461
C80	C	0.352702	-0.372083	0.545461
C81	C	-0.147338	-0.776836	0.140652
C82	C	0.352662	-0.276836	0.640652
C83	C	-0.200750	-0.776842	0.140643
C84	C	0.299250	-0.276842	0.640643
C85	C	-0.227436	-0.824470	0.093036
C86	C	0.272564	-0.324470	0.593036
O87	O	-0.285266	-0.736388	0.181094
O88	O	0.214734	-0.236388	0.681094
O89	O	-0.285239	-0.912584	0.004953
O90	O	0.214761	-0.412584	0.504953
C91	C	-0.526530	-0.872105	0.045417
C92	C	-0.026530	-0.372105	0.545417
C93	C	-0.553253	-0.824484	0.093007
C94	C	-0.053253	-0.324484	0.593007
C95	C	-0.526563	-0.776860	0.140602
C96	C	-0.026563	-0.276860	0.640602
C97	C	-0.606667	-0.824489	0.093007
C98	C	-0.106667	-0.324489	0.593007
C99	C	-0.633356	-0.872112	0.045411
C100	C	-0.133356	-0.372112	0.545411
C101	C	-0.606631	-0.919730	-0.002183
C102	C	-0.106631	-0.419730	0.497817
C103	C	-0.553220	-0.919728	-0.002178
C104	C	-0.053220	-0.419728	0.497822
C105	C	-0.553288	-0.729243	0.188197
C106	C	-0.053288	-0.229243	0.688197
C107	C	-0.606700	-0.729249	0.188188
C108	C	-0.106700	-0.229249	0.688188
C109	C	-0.633389	-0.776872	0.140593
C110	C	-0.133389	-0.276872	0.640593
N111	N	0.120914	-0.824515	0.093004
N112	N	0.620914	-0.324515	0.593004
C113	C	0.000175	-0.952151	0.087546
C114	C	0.500175	-0.452151	0.587546
C115	C	0.000192	-1.029656	0.088687
C116	C	0.500192	-0.529656	0.588687
C117	C	0.000131	-0.574389	0.160470
C118	C	0.500131	-0.074389	0.660470
C119	C	0.000137	-0.501566	0.159399
C120	C	0.500137	-0.001566	0.659399
C121	C	0.000139	-0.473669	0.095233
C122	C	0.500139	0.026331	0.595233
C123	C	0.000122	-0.518603	0.032133
C124	C	0.500122	-0.018603	0.532133
C125	C	0.000112	-0.591425	0.033207
C126	C	0.500112	-0.091425	0.533207
N127	N	0.029036	-0.365696	0.046180
N128	N	0.529036	0.134304	0.546180
N129	N	0.029047	-0.296517	0.045164
N130	N	0.529047	0.203483	0.545164
C131	C	0.000170	-0.254260	0.091994
C132	C	0.500170	0.245740	0.591994
N133	N	-0.028713	-0.283794	0.139889
N134	N	0.471287	0.216206	0.639889
N135	N	-0.028722	-0.352979	0.140906
N136	N	0.471278	0.147021	0.640906
C137	C	0.000150	-0.394707	0.094061
C138	C	0.500150	0.105293	0.594061
C139	C	0.000188	-0.130372	0.153928
C140	C	0.500188	0.369628	0.653928
C141	C	0.000191	-0.057547	0.152853
C142	C	0.500191	0.442453	0.652853
C143	C	0.000182	-0.074586	0.025586
C144	C	0.500182	0.425414	0.525586
C145	C	0.000174	-0.147409	0.026662
C146	C	0.500174	0.352591	0.526662
C147	C	0.000180	-0.175298	0.090835
C148	C	0.500180	0.324702	0.590835
C149	C	0.000146	-0.891922	-0.157062
C150	C	0.500146	-0.391922	0.342938
C151	C	0.000154	-0.890850	-0.229886
C152	C	0.500154	-0.390850	0.270114
C153	C	0.000143	-0.826684	-0.257782
C154	C	0.500143	-0.326684	0.242218
C155	C	0.000138	-0.763585	-0.212849
C156	C	0.500138	-0.263585	0.287151
C157	C	0.000135	-0.764658	-0.140026
C158	C	0.500135	-0.264658	0.359974
N159	N	-0.028744	-0.777630	-0.365782
N160	N	0.471256	-0.277630	0.134218
N161	N	-0.028742	-0.776614	-0.434960
N162	N	0.471258	-0.276614	0.065040
C163	C	0.000153	-0.823446	-0.477191
C164	C	0.500153	-0.323446	0.022809
N165	N	0.029040	-0.871342	-0.447631
N166	N	0.529040	-0.371342	0.052369
N167	N	0.029036	-0.872360	-0.378447
N168	N	0.529036	-0.372360	0.121553
C169	C	0.000147	-0.825513	-0.336745
C170	C	0.500147	-0.325513	0.163255
C171	C	0.000171	-0.885379	-0.601079
C172	C	0.500171	-0.385379	-0.101079
C173	C	0.000182	-0.884305	-0.673904
C174	C	0.500182	-0.384305	-0.173904
C175	C	0.000161	-0.757038	-0.656865
C176	C	0.500161	-0.257038	-0.156865
C177	C	0.000155	-0.758114	-0.584042
C178	C	0.500155	-0.258114	-0.084042
C179	C	0.000157	-0.822287	-0.556154
C180	C	0.500157	-0.322287	-0.056154
C181	C	0.000164	-0.818997	0.220700
C182	C	0.500164	-0.318997	0.720700
C183	C	0.000172	-0.820138	0.298204
C184	C	0.500172	-0.320138	0.798204
H185	H	-0.125542	-0.910868	0.006705
H186	H	0.374458	-0.410868	0.506705
H187	H	-0.468210	-0.690442	0.226959
H188	H	0.031790	-0.190442	0.726959
H189	H	0.000131	-0.711340	-0.235567
H190	H	0.500131	-0.211340	0.264433
H191	H	-0.874101	-0.910915	0.006653
H192	H	-0.374101	-0.410915	0.506653
N193	N	0.000095	-0.639884	-0.034844
N194	N	0.500095	-0.139884	0.465156
H195	H	0.000094	-0.611165	-0.075657
H196	H	0.500094	-0.111165	0.424343
H197	H	0.031548	-0.670496	-0.037178
H198	H	0.531548	-0.170496	0.462822
N199	N	0.000191	-0.160454	0.223140
N200	N	0.500191	0.339546	0.723140
H201	H	-0.031263	-0.144034	0.250777
H202	H	0.468737	0.355966	0.750777
H203	H	0.000206	-0.213399	0.214190
H204	H	0.500206	0.286601	0.714190
H205	H	-0.222436	-0.910870	0.006683
H206	H	0.277564	-0.410870	0.506683
H207	H	0.000155	-0.704792	-0.679578
H208	H	0.500155	-0.204792	-0.179578
N209	N	0.000165	-0.009089	0.220905
N210	N	0.500165	0.490911	0.720905
H211	H	0.000156	-0.037810	0.261717
H212	H	0.500156	0.462190	0.761717
H213	H	0.031614	0.021497	0.223256
H214	H	0.531614	0.521497	0.723256
N215	N	-0.770134	-0.923495	-0.005937
N216	N	-0.270134	-0.423495	0.494063
H217	H	-0.747987	-0.896907	-0.036789
H218	H	-0.247987	-0.396907	0.463211
H219	H	-0.747988	-0.954318	0.020704
H220	H	-0.247988	-0.454318	0.520704
H221	H	0.000131	-0.495885	-0.020111
H222	H	0.500131	0.004115	0.479889
H223	H	0.000128	-0.713281	-0.103449
H224	H	0.500128	-0.213281	0.396551
N225	N	0.000152	-0.958902	-0.278349
N226	N	0.500152	-0.458902	0.221651
H227	H	0.000151	-0.948483	-0.328714
H228	H	0.500151	-0.448483	0.171286
H229	H	0.031610	-0.986895	-0.269346
H230	H	0.531610	-0.486895	0.230654
H231	H	0.000149	-0.944176	-0.134360
H232	H	0.500149	-0.444176	0.365640
N233	N	-0.881214	-0.725524	0.191933
N234	N	-0.381214	-0.225524	0.691933
H235	H	-0.919103	-0.732748	0.184716
H236	H	-0.419103	-0.232748	0.684716
H237	H	-0.871873	-0.733432	0.241446
H238	H	-0.371873	-0.233432	0.741446
H239	H	0.000191	-0.935683	-0.710481
H240	H	0.500191	-0.435683	-0.210481
H241	H	0.000215	-0.051874	-0.026659
H242	H	0.500215	0.448126	0.473341
H243	H	0.000166	-0.183988	-0.024713
H244	H	0.500166	0.316012	0.475287
N245	N	0.000159	-0.453098	0.227448
N246	N	0.500159	0.046902	0.727448
H247	H	-0.031292	-0.422475	0.229850
H248	H	0.468708	0.077525	0.729850
H249	H	0.000180	-0.481864	0.268224
H250	H	0.500180	0.018136	0.768224
H251	H	0.000175	-0.937632	-0.578372
H252	H	0.500175	-0.437632	-0.078372
H253	H	0.000145	-0.706738	-0.547464
H254	H	0.500145	-0.206738	-0.047464
H255	H	0.000137	-0.597091	0.212725
H256	H	0.500137	-0.097091	0.712725
N257	N	-0.364167	-0.971088	-0.053497
N258	N	0.135833	-0.471088	0.446503
H259	H	-0.389187	-1.001251	-0.083647
H260	H	0.110813	-0.501251	0.416353
H261	H	-0.342015	-0.944454	-0.084300
H262	H	0.157985	-0.444454	0.415700
H263	H	-0.468123	-0.958505	-0.040928
H264	H	0.031877	-0.458505	0.459072
H265	H	-0.777257	-0.738099	0.179359
H266	H	-0.277257	-0.238099	0.679359
H267	H	-0.222507	-0.738068	0.179404
H268	H	0.277493	-0.238068	0.679404
N269	N	-0.364261	-0.677844	0.239536
N270	N	0.135739	-0.177844	0.739536
H271	H	-0.373557	-0.685728	0.289071
H272	H	0.126443	-0.185728	0.789071
H273	H	-0.326376	-0.685088	0.232261
H274	H	0.173624	-0.185088	0.732261
N275	N	-0.118547	-0.725473	0.191985
N276	N	0.381453	-0.225473	0.691985
H277	H	-0.080655	-0.732700	0.184759
H278	H	0.419345	-0.232700	0.684759
H279	H	-0.127898	-0.675971	0.184035
H280	H	0.372102	-0.175971	0.684035
N281	N	-0.524402	-0.971096	-0.053510
N282	N	-0.024402	-0.471096	0.446490
H283	H	-0.549421	-1.001260	-0.083659
H284	H	-0.049421	-0.501260	0.416341
H285	H	-0.502248	-0.944466	-0.084315
H286	H	-0.002248	-0.444466	0.415685
H287	H	-0.628453	-0.690468	0.226950
H288	H	-0.128453	-0.190468	0.726950
N289	N	-0.635424	-0.971098	-0.053515
N290	N	-0.135424	-0.471098	0.446485
H291	H	-0.657593	-0.944514	-0.084363
H292	H	-0.157593	-0.444514	0.415637
H293	H	-0.610362	-1.001257	-0.083619
H294	H	-0.110362	-0.501257	0.416381
N295	N	-0.524506	-0.677871	0.239531
N296	N	-0.024506	-0.177871	0.739531
H297	H	-0.549545	-0.647709	0.269676
H298	H	-0.049545	-0.147709	0.769676
H299	H	-0.502337	-0.704499	0.270338
H300	H	-0.002337	-0.204499	0.770338
