data_functionalizedCrystal
_audit_creation_method	'MofGen! by Chris Wilmer'
_symmetry_space_group_name_H-M	'P1'
_symmetry_Int_Tables_number	1
_symmetry_cell_setting	triclinic
loop_
_symmetry_equiv_pos_as_xyz
  x,y,z
_cell_length_a	18.050589
_cell_length_b	18.215407
_cell_length_c	18.215399
_cell_angle_alpha	90.019833
_cell_angle_beta	89.976397
_cell_angle_gamma	89.971331
loop_
_atom_site_label
_atom_site_type_symbol
_atom_site_fract_x
_atom_site_fract_y
_atom_site_fract_z
Zn1	Zn	-0.295658	-1.125055	-0.416138
Zn2	Zn	-0.419853	-1.124956	-0.293081
Zn3	Zn	-0.295682	-1.001987	-0.293085
Zn4	Zn	-0.419812	-1.001946	-0.416106
O5	O	-0.357751	-1.063486	-0.354603
O6	O	-0.312140	-1.228026	-0.399826
O7	O	-0.403409	-1.108620	-0.190097
O8	O	-0.191755	-1.018371	-0.309424
O9	O	-0.403386	-1.227953	-0.309417
O10	O	-0.191737	-1.108788	-0.399830
O11	O	-0.312181	-1.018275	-0.190101
O12	O	-0.312141	-0.898998	-0.309393
O13	O	-0.403315	-1.018301	-0.519095
O14	O	-0.403339	-0.898967	-0.399775
O15	O	-0.312100	-1.108748	-0.519118
O16	O	-0.523772	-1.108580	-0.309385
O17	O	-0.523742	-1.018205	-0.399771
C18	C	-0.357739	-0.872280	-0.354582
C19	C	-0.357751	-0.790481	-0.354590
C20	C	-0.550704	-1.063397	-0.354590
C21	C	-0.633249	-1.063427	-0.354610
C22	C	-0.357700	-1.063531	-0.546556
C23	C	-0.357678	-1.063550	-0.628355
C24	C	-0.832710	-1.014329	-0.403744
C25	C	-0.882151	-0.996389	-0.336590
C26	C	-0.784380	-1.063499	-0.354619
C27	C	-0.882021	-1.081475	-0.421781
C28	C	-0.930365	-1.063567	-0.354635
C29	C	-0.832733	-1.045524	-0.287430
C30	C	-0.832599	-1.130641	-0.372666
C31	C	-0.882017	-1.112726	-0.305466
C32	C	-0.700281	-1.063458	-0.354612
C33	C	-1.014461	-1.063609	-0.354635
C34	C	-0.164046	-1.063595	-0.354631
C35	C	-0.081500	-1.063642	-0.354643
C36	C	-0.357765	-1.255439	-0.354624
C37	C	-0.357770	-1.337238	-0.354634
C38	C	-0.405312	-0.602291	-0.401593
C39	C	-0.405315	-0.525432	-0.401602
C40	C	-0.310204	-0.525434	-0.307628
C41	C	-0.310199	-0.602291	-0.307623
C42	C	-0.357757	-0.640718	-0.354605
C43	C	-0.357765	-0.487001	-0.354619
C44	C	-0.357767	-0.403668	-0.354628
C45	C	-0.357754	-0.724056	-0.354596
C46	C	-0.310138	-1.110663	-0.816562
C47	C	-0.310117	-1.110672	-0.893421
C48	C	-0.405104	-1.016489	-0.893385
C49	C	-0.405121	-1.016477	-0.816528
C50	C	-0.357639	-1.063568	-0.778118
C51	C	-0.357600	-1.063589	-0.931834
C52	C	-0.357577	-1.063598	-1.015168
C53	C	-0.357661	-1.063558	-0.694779
C54	C	-0.357749	-1.063484	-0.163396
C55	C	-0.357561	-1.063607	-0.081598
H56	H	-0.903933	-0.939642	-0.321340
H57	H	-0.443763	-0.978151	-0.924667
C58	C	-0.760730	-0.994274	-0.512781
C59	C	-0.803477	-0.958120	-0.459750
H60	H	-0.742687	-0.959571	-0.547355
H61	H	-0.720145	-1.018074	-0.489653
H62	H	-0.790373	-1.029689	-0.537308
H63	H	-0.773833	-0.922708	-0.435219
H64	H	-0.844068	-0.934308	-0.482880
H65	H	-0.271485	-0.494138	-0.269377
C66	C	-0.760518	-0.961253	-0.215696
C67	C	-0.803636	-1.024941	-0.210740
H68	H	-0.742559	-0.948543	-0.168352
H69	H	-0.719875	-0.969809	-0.247716
H70	H	-0.789884	-0.922210	-0.234371
H71	H	-0.774268	-1.063985	-0.192071
H72	H	-0.844284	-1.016388	-0.178709
H73	H	-0.444038	-0.494148	-0.439866
C74	C	-0.886054	-1.149935	-0.179089
C75	C	-0.911069	-1.168898	-0.249332
H76	H	-0.903996	-1.184609	-0.144434
H77	H	-0.833438	-1.149932	-0.178502
H78	H	-0.903776	-1.102406	-0.166688
H79	H	-0.893343	-1.216424	-0.261734
H80	H	-0.963696	-1.168909	-0.249920
C81	C	-0.829171	-1.258921	-0.342576
C82	C	-0.803193	-1.207230	-0.393295
H83	H	-0.811020	-1.306205	-0.355322
H84	H	-0.812322	-1.246240	-0.294838
H85	H	-0.881792	-1.259383	-0.343182
H86	H	-0.750572	-1.206765	-0.392686
H87	H	-0.820038	-1.219915	-0.441046
C88	C	-0.216188	-0.594579	-0.214724
C89	C	-0.257924	-0.644536	-0.255967
H90	H	-0.183921	-0.620661	-0.182834
H91	H	-0.187823	-0.564629	-0.246835
H92	H	-0.248519	-0.564575	-0.186523
H93	H	-0.225593	-0.674537	-0.284172
H94	H	-0.286291	-0.674499	-0.223852
H95	H	-0.271474	-1.149006	-0.785291
C96	C	-0.499021	-0.923386	-0.824206
C97	C	-0.457342	-0.964710	-0.774264
H98	H	-0.531260	-0.891432	-0.798113
H99	H	-0.466659	-0.895257	-0.854182
H100	H	-0.527422	-0.955447	-0.854186
H101	H	-0.428937	-0.932649	-0.744288
H102	H	-0.489708	-0.992841	-0.744276
H103	H	-0.903671	-1.096652	-0.478573
H104	H	-0.444035	-0.633575	-0.439850
C105	C	-0.216237	-1.203772	-0.885731
C106	C	-0.257905	-1.162444	-0.935678
H107	H	-0.184006	-1.235737	-0.911821
H108	H	-0.187836	-1.171720	-0.855754
H109	H	-0.248613	-1.231897	-0.855753
H110	H	-0.225530	-1.134314	-0.965653
H111	H	-0.286308	-1.194499	-0.965668
