data_functionalizedCrystal
_audit_creation_method	'MofGen! by Chris Wilmer'
_symmetry_space_group_name_H-M	'P1'
_symmetry_Int_Tables_number	1
_symmetry_cell_setting	triclinic
loop_
_symmetry_equiv_pos_as_xyz
  x,y,z
_cell_length_a	23.096457
_cell_length_b	23.096457
_cell_length_c	23.096457
_cell_angle_alpha	59.997717
_cell_angle_beta	90.003692
_cell_angle_gamma	60.002514
loop_
_atom_site_label
_atom_site_type_symbol
_atom_site_fract_x
_atom_site_fract_y
_atom_site_fract_z
Zr1	Zr	0.557826	0.633707	-0.075977
O2	O	0.465371	0.754507	-0.168428
O3	O	0.586160	0.512920	-0.047639
O4	O	0.586150	0.633722	-0.168435
O5	O	0.465398	0.633688	0.047657
O6	O	0.681432	0.633720	-0.168437
O7	O	0.465381	0.633705	-0.047632
O8	O	0.681450	0.417627	0.047645
O9	O	0.465380	0.849781	-0.168425
O10	O	0.669362	0.562595	-0.035551
O11	O	0.598267	0.562585	0.035564
O12	O	0.598255	0.704814	-0.106658
O13	O	0.527160	0.704804	-0.035543
Zr14	Zr	0.709818	0.633678	0.075995
Zr15	Zr	0.709790	0.633704	-0.075980
Zr16	Zr	0.557853	0.633681	0.075998
Zr17	Zr	0.557841	0.785659	-0.075972
Zr18	Zr	0.709802	0.481726	0.075990
O19	O	0.681484	0.754465	0.047657
O20	O	0.681444	0.754502	-0.168433
O21	O	0.465410	0.754470	0.047661
O22	O	0.802273	0.512878	0.168446
O23	O	0.802233	0.512915	-0.047644
O24	O	0.586199	0.512883	0.168450
O25	O	0.802246	0.633697	-0.047639
O26	O	0.681494	0.633663	0.168453
O27	O	0.586211	0.633665	0.168455
O28	O	0.802263	0.633680	0.047650
O29	O	0.586172	0.849779	-0.168427
O30	O	0.681472	0.417606	0.168445
O31	O	0.802263	0.417604	0.168443
O32	O	0.802241	0.417624	0.047642
O33	O	0.465402	0.849761	-0.047624
O34	O	0.586194	0.849758	-0.047627
O35	O	0.669388	0.562571	0.106676
O36	O	0.740483	0.562581	0.035561
O37	O	0.669376	0.704800	-0.035546
O38	O	0.598281	0.704790	0.035569
C39	C	0.633803	0.443623	0.000002
C40	C	0.633796	0.379116	-0.000000
C41	C	0.686298	0.296320	0.052490
C42	C	0.686303	0.235699	0.052497
C43	C	0.633811	0.257877	0.000002
C44	C	0.581300	0.340687	-0.052492
C45	C	0.581292	0.401306	-0.052493
N46	N	0.617921	0.201778	-0.062249
N47	N	0.617933	0.144189	-0.062245
C48	C	0.633830	0.075238	0.000004
N49	N	0.649729	0.066044	0.062252
N50	N	0.649721	0.123637	0.062248
C51	C	0.633813	0.192152	-0.000002
C52	C	0.686340	-0.073294	0.052505
C53	C	0.686340	-0.133914	0.052512
C54	C	0.581340	-0.028923	-0.052482
C55	C	0.581337	0.031695	-0.052484
C56	C	0.633841	0.009504	0.000009
C57	C	0.443738	0.633697	0.000013
C58	C	0.379225	0.633699	0.000014
C59	C	0.348912	0.633713	-0.052485
C60	C	0.288300	0.633706	-0.052485
C61	C	0.257994	0.633700	0.000009
C62	C	0.288316	0.633681	0.052518
C63	C	0.348932	0.633680	0.052520
N64	N	0.139650	0.680051	0.015903
N65	N	0.082067	0.680053	0.015896
C66	C	0.075365	0.633701	0.000006
N67	N	0.128416	0.587356	-0.015892
N68	N	0.186002	0.587357	-0.015888
C69	C	0.192268	0.633700	0.000013
C70	C	-0.020670	0.633706	-0.052496
C71	C	-0.081280	0.633694	-0.052492
C72	C	-0.081267	0.633677	0.052508
C73	C	-0.020653	0.633681	0.052506
C74	C	0.009640	0.633700	0.000000
C75	C	0.823906	0.633688	0.000005
C76	C	0.888419	0.633686	0.000004
C77	C	0.633787	0.633725	-0.190089
C78	C	0.633775	0.633736	-0.254607
C79	C	0.633841	0.823762	0.000016
C80	C	0.633847	0.888269	0.000018
C81	C	0.686269	0.633736	-0.284901
C82	C	0.686285	0.633719	-0.345509
C83	C	0.633796	0.633719	-0.375828
C84	C	0.581298	0.633714	-0.345523
C85	C	0.581288	0.633722	-0.284913
N86	N	0.571563	0.680063	-0.494183
N87	N	0.571576	0.680056	-0.551762
C88	C	0.633825	0.633692	-0.558443
N89	N	0.696066	0.587344	-0.505376
N90	N	0.696053	0.587354	-0.447794
C91	C	0.633802	0.633709	-0.441550
C92	C	0.686340	0.633673	-0.654455
C93	C	0.686357	0.633651	-0.715062
C94	C	0.581364	0.633654	-0.715079
C95	C	0.581353	0.633668	-0.654470
C96	C	0.633841	0.633681	-0.624163
C97	C	0.633856	0.633660	0.190107
C98	C	0.633868	0.633649	0.254624
C99	C	0.823887	0.443619	-0.000002
C100	C	0.888393	0.379110	-0.000005
C101	C	0.633837	0.443591	0.190100
C102	C	0.633843	0.379073	0.254615
C103	C	0.823921	0.443587	0.190096
C104	C	0.888440	0.379067	0.254610
C105	C	0.443722	0.823798	-0.190078
C106	C	0.379204	0.888318	-0.254592
C107	C	0.443757	0.823766	0.000020
C108	C	0.379250	0.888275	0.000023
C109	C	0.633806	0.823794	-0.190082
C110	C	0.633801	0.888312	-0.254598
C111	C	0.881562	0.348823	-0.037133
C112	C	0.942166	0.288218	-0.037151
C113	C	1.009602	0.257897	-0.000036
C114	C	1.016432	0.288190	0.037093
C115	C	0.955828	0.348798	0.037106
C116	C	0.670969	0.348767	0.322039
C117	C	0.670972	0.288153	0.382663
C118	C	0.633851	0.257842	0.375863
C119	C	0.596719	0.288154	0.308433
C120	C	0.596713	0.348771	0.247810
C121	C	0.955855	0.348773	0.247785
C122	C	1.016483	0.288158	0.308397
C123	C	1.009693	0.257833	0.375833
C124	C	0.942270	0.288133	0.382656
C125	C	0.881644	0.348751	0.322045
C126	C	0.311788	0.918620	-0.247767
C127	C	0.251161	0.979254	-0.308379
C128	C	0.257951	1.009581	-0.375815
C129	C	0.325373	0.979277	-0.382639
C130	C	0.385999	0.918648	-0.322027
C131	C	0.386082	0.918569	0.037145
C132	C	0.325477	0.979190	0.037146
C133	C	0.258041	1.009513	0.000029
C134	C	0.251211	0.979217	-0.037097
C135	C	0.311815	0.918601	-0.037102
C136	C	0.670929	0.918604	-0.247775
C137	C	0.670938	0.979218	-0.308388
C138	C	0.633814	1.009543	-0.375823
C139	C	0.596685	0.979246	-0.382644
C140	C	0.596680	0.918629	-0.322032
H141	H	0.538536	0.468726	-0.095236
H142	H	0.701211	0.263481	0.437562
H143	H	0.566443	0.893972	-0.327597
Br144	Br	0.175664	1.091864	-0.458067
Br145	Br	0.965113	0.389890	0.087503
Br146	Br	0.757533	0.633718	-0.386630
Br147	Br	0.510107	0.633671	-0.613353
H148	H	0.936752	0.263434	0.437571
Br149	Br	1.091979	0.175565	0.458085
Br150	Br	0.633866	0.175576	0.458146
Br151	Br	0.546324	0.389890	0.156309
H152	H	0.961397	0.373454	0.192881
Br153	Br	0.510067	0.633705	-0.386664
H154	H	0.729050	0.278245	0.095235
Br155	Br	0.757593	-0.246288	0.123762
H156	H	0.538540	0.633722	-0.260246
Br157	Br	0.510094	0.001185	-0.123721
H158	H	0.729081	0.633680	-0.629777
H159	H	0.701172	1.003880	-0.302820
Br160	Br	0.790154	0.389854	0.331321
H161	H	0.306246	0.893930	-0.192863
H162	H	1.058944	0.208545	-0.000052
H163	H	0.729107	0.633646	-0.739725
H164	H	0.208699	1.058871	0.000038
H165	H	0.729057	0.168274	0.095242
H166	H	0.004026	0.633674	0.095253
Br167	Br	0.510135	0.633641	-0.756214
Br168	Br	-0.122385	0.633656	0.123757
Br169	Br	0.546344	0.247009	0.299217
H170	H	0.440891	0.893978	-0.327593
H171	H	-0.105959	0.633701	-0.095241
H172	H	0.633823	1.058902	-0.425172
H173	H	0.306243	0.893938	-0.067328
H174	H	0.538560	0.358742	-0.095233
H175	H	0.440986	0.893884	0.067374
H176	H	1.071376	0.263494	0.302829
H177	H	0.936591	0.263561	-0.067385
H178	H	0.196268	1.003917	-0.302810
H179	H	0.538588	0.099113	-0.095230
H180	H	0.566460	1.003946	-0.437558
H181	H	1.071346	0.263494	0.067310
Br182	Br	0.790049	0.389961	-0.087511
Br183	Br	0.247155	0.633724	-0.123739
H184	H	0.263639	0.633674	0.095260
H185	H	0.701198	0.373439	0.327589
Br186	Br	0.757502	0.633750	-0.243769
Br187	Br	0.334576	1.020443	-0.474165
Br188	Br	0.334763	1.020291	0.087536
Br189	Br	0.159686	1.020377	-0.087465
Br190	Br	0.721317	0.877462	-0.156264
H191	H	0.729089	-0.091363	0.095251
H192	H	0.373613	0.633668	0.095272
Br193	Br	0.020446	0.633727	-0.123751
Br194	Br	0.390027	0.633735	-0.123738
