data_functionalizedCrystal
_audit_creation_method	'MofGen! by Chris Wilmer'
_symmetry_space_group_name_H-M	'P1'
_symmetry_Int_Tables_number	1
_symmetry_cell_setting	triclinic
loop_
_symmetry_equiv_pos_as_xyz
  x,y,z
_cell_length_a	15.944545
_cell_length_b	27.731996
_cell_length_c	14.421503
_cell_angle_alpha	89.998301
_cell_angle_beta	89.995153
_cell_angle_gamma	83.058780
loop_
_atom_site_label
_atom_site_type_symbol
_atom_site_fract_x
_atom_site_fract_y
_atom_site_fract_z
O1	O	1.113697	0.062321	-0.077064
O2	O	0.869044	0.070010	-0.077081
O3	O	0.998992	-0.004200	-0.077052
O4	O	0.983749	0.136531	-0.077093
O5	O	0.998970	-0.004189	0.077172
O6	O	0.869022	0.070021	0.077143
O7	O	1.113676	0.062332	0.077159
Cu8	Cu	0.991347	0.066177	0.091233
Cu9	Cu	0.991373	0.066164	-0.091154
O10	O	0.983728	0.136542	0.077130
C11	C	0.837743	0.069697	0.000029
C12	C	0.744510	0.068742	0.000024
C13	C	0.474532	0.019888	0.000048
C14	C	0.524787	0.043447	0.076083
C15	C	0.408912	0.065334	0.000041
C16	C	0.524789	0.043448	-0.075969
C17	C	0.573803	0.067006	0.000031
C18	C	0.457939	0.088881	0.076139
C19	C	0.457937	0.088876	-0.075981
C20	C	0.508159	0.112468	0.000073
C21	C	0.313922	0.064370	0.000047
C22	C	0.668789	0.067974	0.000031
C23	C	0.998668	-0.022203	0.000063
C24	C	0.997725	-0.075864	0.000072
C25	C	0.991803	-0.408612	-0.084040
C26	C	0.988222	-0.610285	-0.084057
O27	O	0.987732	-0.636363	-0.155554
N28	N	0.987765	-0.635498	0.000009
C29	C	0.988198	-0.610290	0.084086
O30	O	0.987719	-0.636362	0.155589
C31	C	0.991774	-0.408616	0.084101
C32	C	0.992239	-0.383407	0.000030
C33	C	0.992267	-0.383402	-0.168105
C34	C	0.993167	-0.332987	-0.168100
C35	C	0.993603	-0.307782	-0.084030
C36	C	0.993139	-0.332991	0.000035
C37	C	0.992201	-0.383408	0.168177
C38	C	0.993093	-0.332986	0.168173
C39	C	0.993558	-0.307776	0.084101
C40	C	0.994474	-0.257371	0.084110
N41	N	0.994931	-0.232158	0.000043
C42	C	0.994495	-0.257363	-0.084027
C43	C	0.986323	-0.716171	0.084072
C44	C	0.985431	-0.766589	0.084068
C45	C	0.985452	-0.766581	-0.084075
C46	C	0.986351	-0.716163	-0.084071
C47	C	0.986779	-0.690958	0.000005
C48	C	0.996386	-0.151488	-0.084010
C49	C	0.997289	-0.101069	-0.083998
C50	C	0.997263	-0.101081	0.084145
C51	C	0.996364	-0.151496	0.084133
C52	C	0.995922	-0.176698	0.000048
O53	O	0.994954	-0.231262	0.155569
O54	O	0.994956	-0.231281	-0.155519
C55	C	0.990903	-0.459027	-0.084045
C56	C	0.990439	-0.484237	0.000020
C57	C	0.990875	-0.459031	0.084090
C58	C	0.989547	-0.534655	0.000016
C59	C	0.989111	-0.559860	-0.084054
C60	C	0.989567	-0.534647	-0.168120
C61	C	0.990467	-0.484232	-0.168115
C62	C	0.990418	-0.484245	0.168156
C63	C	0.989519	-0.534660	0.168144
C64	C	0.989083	-0.559865	0.084074
C65	C	1.144976	0.062645	0.000047
C66	C	1.238210	0.063600	0.000047
C67	C	0.984052	0.154545	0.000014
C68	C	0.984995	0.208206	-0.000002
N69	N	0.991335	0.066186	0.219514
N70	N	0.991391	0.066152	-0.219435
C71	C	0.931237	0.100486	0.469154
C72	C	1.007012	0.109869	0.530959
C73	C	0.991356	0.066175	0.408676
C74	C	0.915601	0.056803	0.530965
C75	C	0.991369	0.066165	0.591397
C76	C	1.067168	0.075580	0.469119
C77	C	0.975708	0.022495	0.469120
C78	C	1.051538	0.031859	0.530896
C79	C	0.991347	0.066182	0.303414
C80	C	0.991386	0.066157	0.696656
H81	H	0.553966	0.024258	0.140377
F82	F	0.454755	-0.031269	0.000157
H83	H	0.428863	0.108065	0.140490
F84	F	0.989108	-0.561481	-0.257594
F85	F	1.024328	0.158145	0.566464
F86	F	0.527721	0.163665	0.000111
H87	H	0.995993	-0.172023	0.152591
F88	F	0.993548	-0.306164	0.257661
F89	F	0.995916	-0.178303	-0.173503
H90	H	0.993542	-0.312465	-0.236561
F91	F	0.990961	-0.457408	-0.257597
F92	F	0.997728	-0.074247	0.173614
H93	H	0.986728	-0.695640	-0.152529
F94	F	1.118067	-0.006074	0.566113
F95	F	0.958362	-0.025767	0.433586
H96	H	0.851531	0.048880	0.558133
H97	H	0.990774	-0.463728	0.236617
H98	H	0.428743	0.108048	-0.140277
F99	F	0.562935	0.018346	-0.159985
F100	F	0.997786	-0.074242	-0.173482
H101	H	0.985098	-0.787112	-0.152528
F102	F	0.991803	-0.410219	-0.257592
H103	H	0.880448	0.129525	0.442045
F104	F	0.984951	-0.793415	0.173549
H105	H	0.986676	-0.695654	0.152540
F106	F	0.991702	-0.410227	0.257659
F107	F	0.989030	-0.561485	0.257632
H108	H	1.131252	0.083547	0.442067
