data_functionalizedCrystal
_audit_creation_method	'MofGen! by Chris Wilmer'
_symmetry_space_group_name_H-M	'P1'
_symmetry_Int_Tables_number	1
_symmetry_cell_setting	triclinic
loop_
_symmetry_equiv_pos_as_xyz
  x,y,z
_cell_length_a	14.971506
_cell_length_b	14.586319
_cell_length_c	14.971486
_cell_angle_alpha	89.995999
_cell_angle_beta	96.381742
_cell_angle_gamma	90.003812
loop_
_atom_site_label
_atom_site_type_symbol
_atom_site_fract_x
_atom_site_fract_y
_atom_site_fract_z
O1	O	1.186932	0.076247	-0.116648
O2	O	1.686932	0.576247	0.383352
O3	O	0.926535	0.076248	-0.130588
O4	O	1.426535	0.576248	0.369412
O5	O	1.063713	0.076241	0.006582
O6	O	1.563713	0.576241	0.506582
O7	O	1.049754	0.076254	-0.253817
O8	O	1.549754	0.576254	0.246183
O9	O	1.063703	-0.076240	0.006584
O10	O	1.563703	0.423760	0.506584
O11	O	0.926525	-0.076233	-0.130586
O12	O	1.426525	0.423767	0.369414
O13	O	1.186923	-0.076234	-0.116646
O14	O	1.686923	0.423766	0.383354
Cu15	Cu	1.056723	-0.090156	-0.123615
Cu16	Cu	1.556723	0.409844	0.376385
Cu17	Cu	1.056734	0.090170	-0.123618
Cu18	Cu	1.556734	0.590170	0.376382
O19	O	1.049745	-0.076227	-0.253815
O20	O	1.549745	0.423773	0.246185
C21	C	0.893205	0.000007	-0.129960
C22	C	1.393205	0.500007	0.370040
C23	C	0.793909	0.000007	-0.128082
C24	C	1.293909	0.500007	0.371918
C25	C	0.355627	0.000020	-0.201500
C26	C	0.855627	0.500020	0.298500
C27	C	0.448927	0.000024	-0.203258
C28	C	0.948927	0.500024	0.296742
C29	C	0.506147	0.000016	-0.122665
C30	C	1.006147	0.500016	0.377335
C31	C	0.470062	0.000013	-0.040310
C32	C	0.970062	0.500013	0.459690
C33	C	0.376764	0.000016	-0.038553
C34	C	0.876764	0.500016	0.461447
C35	C	0.664525	0.000006	-0.043977
C36	C	1.164525	0.500006	0.456023
C37	C	0.757831	0.000002	-0.045733
C38	C	1.257831	0.500002	0.454267
C39	C	0.736689	0.000014	-0.208681
C40	C	1.236689	0.500014	0.291319
C41	C	0.643390	0.000017	-0.206924
C42	C	1.143390	0.500017	0.293076
C43	C	0.607312	0.000012	-0.124569
C44	C	1.107312	0.500012	0.375431
N45	N	1.056722	-0.216988	-0.123613
N46	N	1.556722	0.283012	0.376387
C47	C	1.117484	-0.451997	-0.062895
C48	C	1.617484	0.048003	0.437105
C49	C	1.117487	-0.547978	-0.062893
C50	C	1.617487	-0.047978	0.437107
C51	C	0.995974	-0.547982	-0.184334
C52	C	1.495974	-0.047982	0.315666
C53	C	0.995968	-0.452002	-0.184331
C54	C	1.495968	0.047998	0.315669
C55	C	1.056728	-0.404013	-0.123613
C56	C	1.556728	0.095987	0.376387
C57	C	1.056737	-0.595973	-0.123613
C58	C	1.556737	-0.095973	0.376387
C59	C	1.056739	-0.700040	-0.123612
C60	C	1.556739	-0.200040	0.376388
C61	C	1.056725	-0.299939	-0.123613
C62	C	1.556725	0.200061	0.376387
C63	C	1.220252	0.000009	-0.117273
C64	C	1.720252	0.500009	0.382727
C65	C	1.319548	0.000015	-0.119151
C66	C	1.819548	0.500015	0.380849
C67	C	1.063084	0.000001	0.039908
C68	C	1.563084	0.500001	0.539908
C69	C	1.061213	0.000002	0.139205
C70	C	1.561213	0.500002	0.639205
N71	N	1.056743	0.217002	-0.123613
N72	N	1.556743	0.717002	0.376387
C73	C	1.050374	0.000015	-0.287141
C74	C	1.550374	0.500015	0.212859
C75	C	1.052244	0.000021	-0.386438
C76	C	1.552244	0.500021	0.113562
C77	C	1.141802	0.000001	0.196424
C78	C	1.641802	0.500001	0.696424
C79	C	1.140038	0.000010	0.289724
C80	C	1.640038	0.500010	0.789724
C81	C	1.057686	0.000014	0.325802
C82	C	1.557686	0.500014	0.825802
C83	C	0.977091	0.000017	0.268575
C84	C	1.477091	0.500017	0.768575
C85	C	0.978855	0.000014	0.175278
C86	C	1.478855	0.500014	0.675278
C87	C	0.973420	0.000020	0.463038
C88	C	1.473420	0.500020	0.963038
C89	C	0.971656	0.000021	0.556342
C90	C	1.471656	0.500021	1.056342
C91	C	1.134603	0.000016	0.577485
C92	C	1.634603	0.500016	1.077485
C93	C	1.136367	0.000013	0.484187
C94	C	1.636367	0.500013	0.984187
C95	C	1.055772	0.000015	0.426966
C96	C	1.555772	0.500015	0.926966
H97	H	0.766067	0.000018	-0.275738
H98	H	1.266067	0.500018	0.224262
Br99	Br	1.199943	-0.386871	0.019510
Br100	Br	1.699943	0.113129	0.519510
H101	H	0.946488	-0.412931	-0.233775
H102	H	1.446488	0.087069	0.266225
Br103	Br	1.253572	-0.000017	0.147471
Br104	Br	1.753572	0.499983	0.647471
Br105	Br	0.547717	0.000008	0.069067
Br106	Br	1.047717	0.500008	0.569067
Br107	Br	0.497887	0.000041	-0.315022
Br108	Br	0.997887	0.500041	0.184978
Br109	Br	1.248133	0.000011	0.435223
Br110	Br	1.748133	0.500011	0.935223
Br111	Br	0.835486	-0.000004	0.063643
Br112	Br	1.335486	0.499996	0.563643
H113	H	1.205662	0.000007	0.336309
H114	H	1.705662	0.500007	0.836309
Br115	Br	0.913518	-0.613114	-0.266737
Br116	Br	1.413518	-0.113114	0.233263
Br117	Br	1.243983	0.000015	0.655139
Br118	Br	1.743983	0.500015	1.155139
Br119	Br	0.615563	-0.000005	0.067792
Br120	Br	1.115563	0.499995	0.567792
H121	H	0.596803	0.000018	-0.272550
H122	H	1.096803	0.500018	0.227450
Br123	Br	0.327799	0.000012	0.073210
Br124	Br	0.827799	0.500012	0.573210
H125	H	0.309044	0.000020	-0.267128
H126	H	0.809044	0.500020	0.232872
Br127	Br	1.199941	-0.613099	0.019517
Br128	Br	1.699941	-0.113099	0.519517
H129	H	0.904597	0.000009	0.585714
H130	H	1.404597	0.500009	1.085714
Br131	Br	0.864040	0.000026	0.385382
Br132	Br	1.364040	0.500026	0.885382
Br133	Br	0.865326	0.000037	0.317538
Br134	Br	1.365326	0.500037	0.817538
H135	H	0.913232	0.000015	0.128690
H136	H	1.413232	0.500015	0.628690
