data_functionalizedCrystal
_audit_creation_method	'MofGen! by Chris Wilmer'
_symmetry_space_group_name_H-M	'P1'
_symmetry_Int_Tables_number	1
_symmetry_cell_setting	triclinic
loop_
_symmetry_equiv_pos_as_xyz
  x,y,z
_cell_length_a	12.594517
_cell_length_b	12.594516
_cell_length_c	12.827885
_cell_angle_alpha	89.971946
_cell_angle_beta	89.978432
_cell_angle_gamma	90.015853
loop_
_atom_site_label
_atom_site_type_symbol
_atom_site_fract_x
_atom_site_fract_y
_atom_site_fract_z
Zn1	Zn	1.627270	-0.423696	-0.590925
Zn2	Zn	1.627160	-0.601712	-0.416191
Zn3	Zn	1.449273	-0.423747	-0.416192
Zn4	Zn	1.449256	-0.601632	-0.590884
O5	O	1.538239	-0.512697	-0.503548
O6	O	1.776201	-0.447322	-0.567763
O7	O	1.603524	-0.578160	-0.269955
O8	O	1.472937	-0.274795	-0.439388
O9	O	1.776120	-0.578110	-0.439387
O10	O	1.603711	-0.274757	-0.567764
O11	O	1.472831	-0.447410	-0.269956
O12	O	1.300325	-0.447332	-0.439348
O13	O	1.472908	-0.577974	-0.737125
O14	O	1.300312	-0.578024	-0.567694
O15	O	1.603694	-0.447245	-0.737156
O16	O	1.603507	-0.750647	-0.439346
O17	O	1.472802	-0.750589	-0.567693
C18	C	1.261698	-0.512676	-0.503517
C19	C	1.143393	-0.512692	-0.503529
C20	C	1.074116	-0.441512	-0.433855
C21	C	1.003305	-0.538602	-0.408155
C22	C	1.003405	-0.415650	-0.529247
C23	C	1.074140	-0.609833	-0.477779
C24	C	1.074247	-0.486816	-0.598915
C25	C	1.003468	-0.583972	-0.573251
C26	C	1.538170	-0.789238	-0.503538
C27	C	1.538237	-0.907543	-0.503568
C28	C	1.467140	-0.976803	-0.573327
C29	C	1.441206	-1.047672	-0.477971
C30	C	1.564268	-1.047474	-0.598941
C31	C	1.512252	-0.976854	-0.408162
C32	C	1.635359	-0.976650	-0.529196
C33	C	1.609462	-1.047486	-0.433774
C34	C	1.815860	-0.512719	-0.503579
C35	C	1.934166	-0.512729	-0.503593
C36	C	1.538312	-0.512595	-0.776118
C37	C	1.538343	-0.512551	-0.892271
C38	C	1.538338	-0.235076	-0.503581
C39	C	1.538381	-0.116771	-0.503595
C40	C	1.603067	-0.447850	-0.944071
C41	C	1.603100	-0.447803	-1.064122
C42	C	1.538228	-0.512722	-0.232038
C43	C	1.538404	-0.512466	-0.115885
H44	H	1.105081	-0.691940	-0.455964
C45	C	0.961825	-0.306301	-0.558368
C46	C	0.900756	-0.313806	-0.649248
C47	C	0.862427	-0.213097	-0.676087
H48	H	1.019884	-0.259635	-0.570082
H49	H	0.919171	-0.279568	-0.503212
H50	H	0.943408	-0.340524	-0.704392
H51	H	0.842682	-0.360452	-0.637559
H52	H	0.819773	-0.186364	-0.620931
H53	H	0.920492	-0.166439	-0.687797
H54	H	0.820980	-0.218177	-0.737746
C55	C	0.962411	-0.664511	-0.651714
C56	C	0.998424	-0.765923	-0.624338
C57	C	0.960610	-0.840145	-0.696580
H58	H	0.987752	-0.646847	-0.719287
H59	H	0.886981	-0.663745	-0.651701
H60	H	1.073838	-0.766686	-0.624363
H61	H	0.973086	-0.783620	-0.556777
H62	H	0.885180	-0.839378	-0.696567
H63	H	0.985953	-0.822471	-0.764149
H64	H	0.985031	-0.908962	-0.678011
H65	H	1.717408	-0.945433	-0.550896
H66	H	1.105431	-0.464877	-0.679530
H67	H	1.586227	-1.078495	-0.679585
H68	H	1.658451	-0.392487	-0.899542
C69	C	1.464685	-0.586397	-1.056367
C70	C	1.524971	-0.654569	-0.993686
C71	C	1.457100	-0.722678	-0.938822
H72	H	1.424074	-0.627062	-1.104292
H73	H	1.418370	-0.545683	-1.013724
H74	H	1.571268	-0.695278	-1.036324
H75	H	1.565581	-0.613932	-0.945740
H76	H	1.410785	-0.681964	-0.896180
H77	H	1.416492	-0.763336	-0.986756
H78	H	1.497994	-0.768934	-0.896280
H79	H	1.658516	-0.392413	-1.108668
H80	H	0.972145	-0.560511	-0.327515
H81	H	1.406907	-0.945767	-0.632233
H82	H	1.482948	-0.567903	-0.936801
H83	H	1.105136	-0.381376	-0.374861
C84	C	1.331698	-1.089214	-0.449272
C85	C	1.257505	-1.053431	-0.522550
C86	C	1.156618	-1.091685	-0.496162
H87	H	1.312624	-1.064019	-0.382044
H88	H	1.332662	-1.164641	-0.448911
H89	H	1.256539	-0.978020	-0.522900
H90	H	1.276545	-1.078624	-0.589784
H91	H	1.157581	-1.167112	-0.495801
H92	H	1.137554	-1.066487	-0.428932
H93	H	1.106267	-1.067420	-0.545882
H94	H	1.490198	-0.945961	-0.327495
C95	C	1.689574	-1.088561	-0.354879
C96	C	1.661904	-1.052608	-0.255245
C97	C	1.735664	-1.090439	-0.182537
H98	H	1.758350	-1.063192	-0.372357
H99	H	1.689588	-1.163991	-0.355654
H100	H	1.661901	-0.977194	-0.254472
H101	H	1.593140	-1.077974	-0.237734
H102	H	1.735678	-1.165869	-0.183312
H103	H	1.804436	-1.065068	-0.200025
H104	H	1.716895	-1.066059	-0.114926
