data_functionalizedCrystal
_audit_creation_method	'MofGen! by Chris Wilmer'
_symmetry_space_group_name_H-M	'P1'
_symmetry_Int_Tables_number	1
_symmetry_cell_setting	triclinic
loop_
_symmetry_equiv_pos_as_xyz
  x,y,z
_cell_length_a	21.295419
_cell_length_b	12.759400
_cell_length_c	12.759401
_cell_angle_alpha	90.010485
_cell_angle_beta	90.005367
_cell_angle_gamma	90.029486
loop_
_atom_site_label
_atom_site_type_symbol
_atom_site_fract_x
_atom_site_fract_y
_atom_site_fract_z
Zn1	Zn	0.962306	-0.418008	0.594070
Zn2	Zn	0.962272	-0.593662	0.418391
Zn3	Zn	0.857064	-0.418043	0.418400
Zn4	Zn	0.857027	-0.593691	0.594022
O5	O	0.909667	-0.505851	0.506221
O6	O	1.050391	-0.441282	0.570782
O7	O	0.948318	-0.570369	0.271371
O8	O	0.871054	-0.271018	0.441727
O9	O	1.050366	-0.570335	0.441711
O10	O	0.948374	-0.270992	0.570791
O11	O	0.871022	-0.441342	0.271378
O12	O	0.768970	-0.441370	0.441681
O13	O	0.870991	-0.570383	0.741050
O14	O	0.768943	-0.570418	0.570709
O15	O	0.948339	-0.441310	0.741085
O16	O	0.948282	-0.740687	0.441664
O17	O	0.870959	-0.740708	0.570700
C18	C	0.909630	-0.778818	0.506199
C19	C	0.909672	-0.895595	0.506225
C20	C	0.746116	-0.505901	0.506191
C21	C	0.676148	-0.505948	0.506204
C22	C	0.949978	-0.950411	0.439110
C23	C	0.950017	-1.060135	0.439142
C24	C	0.869437	-1.060217	0.573407
C25	C	0.869402	-0.950495	0.573379
C26	C	0.996499	-0.950365	0.361590
C27	C	0.996537	-1.060089	0.361623
C28	C	0.643316	-0.438861	0.573515
C29	C	0.577574	-0.438832	0.573519
C30	C	0.544665	-0.505911	0.506223
C31	C	0.577504	-0.573003	0.438898
C32	C	0.643246	-0.573022	0.438889
N33	N	0.441406	-0.597834	0.498024
N34	N	0.378955	-0.597813	0.498039
C35	C	0.346590	-0.505856	0.506246
N36	N	0.379036	-0.413919	0.514457
N37	N	0.441494	-0.413941	0.514448
C38	C	0.473380	-0.505897	0.506225
C39	C	0.242473	-0.438732	0.573565
C40	C	0.176730	-0.438702	0.573562
C41	C	0.176662	-0.572882	0.438947
C42	C	0.242404	-0.572903	0.438945
C43	C	0.275306	-0.505829	0.506259
C44	C	1.073858	-0.505801	0.506251
C45	C	1.143826	-0.505780	0.506264
C46	C	0.909665	-0.505846	0.780254
C47	C	0.909663	-0.505844	0.897031
C48	C	0.909722	-0.231818	0.506266
C49	C	0.909745	-0.115041	0.506285
C50	C	0.949934	-0.438649	0.951913
C51	C	0.949931	-0.438651	1.061637
C52	C	0.869383	-0.573052	1.061587
C53	C	0.869384	-0.573044	0.951865
C54	C	0.996440	-0.361057	0.951942
C55	C	0.996436	-0.361059	1.061667
C56	C	0.909663	-0.505873	1.233253
C57	C	0.909659	-0.505855	1.116477
H58	H	0.836587	-0.905865	0.628038
H59	H	0.836589	-0.627757	0.907184
C60	C	0.973356	-0.904914	0.258484
C61	C	1.020705	-0.843126	0.213965
C62	C	0.999403	-0.801227	0.118993
H63	H	0.962899	-0.960292	0.211868
H64	H	0.937247	-0.863008	0.270880
H65	H	1.056802	-0.885030	0.201564
H66	H	1.031167	-0.787732	0.260552
H67	H	0.963295	-0.759321	0.131390
H68	H	0.988946	-0.856611	0.072386
H69	H	1.031524	-0.759291	0.088780
H70	H	0.983527	-1.089927	0.280241
H71	H	1.045233	-0.920494	0.383446
C72	C	0.973055	-0.258103	1.107126
C73	C	0.919835	-0.276815	1.168784
C74	C	0.898269	-0.182001	1.210665
H75	H	1.005047	-0.227601	1.149120
H76	H	0.962524	-0.211599	1.051710
H77	H	0.930368	-0.323302	1.224193
H78	H	0.887830	-0.307303	1.126814
H79	H	0.887738	-0.135497	1.155248
H80	H	0.930265	-0.151506	1.252653
H81	H	0.862154	-0.194683	1.252496
H82	H	0.836651	-1.104930	0.628083
C83	C	1.058345	-1.105148	0.400556
C84	C	1.099251	-1.023154	0.426326
C85	C	1.156194	-1.064624	0.462182
H86	H	1.050940	-1.147022	0.460851
H87	H	1.076636	-1.147013	0.347088
H88	H	1.080964	-0.981306	0.479789
H89	H	1.106674	-0.981272	0.366047
H90	H	1.174485	-1.106489	0.408714
H91	H	1.148782	-1.106498	0.522474
H92	H	1.183957	-1.008998	0.479662
C93	C	0.825588	-0.646055	1.120934
C94	C	0.790310	-0.704883	1.049382
C95	C	0.749953	-0.772136	1.104012
H96	H	0.849586	-0.691920	1.163737
H97	H	0.798133	-0.605897	1.163717
H98	H	0.817761	-0.745038	1.006618
H99	H	0.766298	-0.659045	1.006578
H100	H	0.722498	-0.731978	1.146794
H101	H	0.773956	-0.817995	1.146812
H102	H	0.726008	-0.812052	1.055472
H103	H	0.269263	-0.384110	0.628370
C104	C	0.979179	-0.252532	0.912193
C105	C	1.028467	-0.212908	0.851319
C106	C	1.012591	-0.112936	0.814696
H107	H	0.942207	-0.256835	0.870757
H108	H	0.971957	-0.207283	0.970088
H109	H	1.035681	-0.258145	0.793433
H110	H	1.065443	-0.208579	0.892733
H111	H	1.005369	-0.067688	0.872591
H112	H	0.975618	-0.117249	0.773264
H113	H	1.046032	-0.086035	0.773397
H114	H	0.670101	-0.384243	0.628327
C115	C	0.542031	-0.365959	0.646727
C116	C	0.584917	-0.307244	0.705694
C117	C	0.552200	-0.240116	0.773156
H118	H	0.516395	-0.320018	0.606747
H119	H	0.516391	-0.406203	0.692488
H120	H	0.610547	-0.267003	0.659939
H121	H	0.610555	-0.353158	0.745696
H122	H	0.526560	-0.280360	0.818917
H123	H	0.526565	-0.194181	0.733167
H124	H	0.581293	-0.200277	0.813180
C125	C	0.541665	-0.645794	0.365950
C126	C	0.477064	-0.631442	0.380386
C127	C	0.444030	-0.698488	0.313209
H128	H	0.552360	-0.630380	0.295341
H129	H	0.552377	-0.716434	0.381213
H130	H	0.466356	-0.560818	0.365116
H131	H	0.466350	-0.646864	0.450982
H132	H	0.454742	-0.769127	0.328472
H133	H	0.454730	-0.683067	0.242604
H134	H	0.400195	-0.688766	0.323001
H135	H	0.669977	-0.627655	0.384074
C136	C	1.058122	-0.400090	0.906497
C137	C	1.046904	-0.488899	0.844790
C138	C	1.103710	-0.524897	0.802921
H139	H	1.076403	-0.346692	0.864539
H140	H	1.085983	-0.417685	0.961920
H141	H	1.019053	-0.471300	0.789376
H142	H	1.028632	-0.542319	0.886725
H143	H	1.131571	-0.542492	0.858344
H144	H	1.121987	-0.471491	0.760968
H145	H	1.096107	-0.585162	0.761057
C146	C	0.141195	-0.365817	0.646761
C147	C	0.184083	-0.307106	0.705725
C148	C	0.151371	-0.239963	0.773177
H149	H	0.115564	-0.319873	0.606773
H150	H	0.115549	-0.406049	0.692524
H151	H	0.209719	-0.266877	0.659968
H152	H	0.209716	-0.353023	0.745734
H153	H	0.125725	-0.280195	0.818940
H154	H	0.125741	-0.194026	0.733181
H155	H	0.180466	-0.200127	0.813199
H156	H	0.149868	-0.627499	0.384153
H157	H	0.269136	-0.627537	0.384137
C158	C	1.061411	-0.390321	1.101338
C159	C	1.077278	-0.490280	1.064640
C160	C	1.137120	-0.517275	1.101179
H161	H	1.091229	-0.340785	1.076566
H162	H	1.061418	-0.390382	1.175797
H163	H	1.077276	-0.490212	0.990197
H164	H	1.047477	-0.539838	1.089409
H165	H	1.137128	-0.517335	1.175638
H166	H	1.166933	-0.467732	1.076405
H167	H	1.147892	-0.585102	1.076293
