data_functionalizedCrystal
_audit_creation_method	'MofGen! by Chris Wilmer'
_symmetry_space_group_name_H-M	'P1'
_symmetry_Int_Tables_number	1
_symmetry_cell_setting	triclinic
loop_
_symmetry_equiv_pos_as_xyz
  x,y,z
_cell_length_a	18.215407
_cell_length_b	21.395361
_cell_length_c	21.395356
_cell_angle_alpha	90.030681
_cell_angle_beta	89.976270
_cell_angle_gamma	89.968844
loop_
_atom_site_label
_atom_site_type_symbol
_atom_site_fract_x
_atom_site_fract_y
_atom_site_fract_z
Zn1	Zn	1.125070	0.249447	-0.354251
Zn2	Zn	1.124958	0.354224	-0.249468
Zn3	Zn	1.001995	0.249465	-0.249487
Zn4	Zn	1.001956	0.354191	-0.354208
O5	O	1.063495	0.301832	-0.301853
O6	O	1.228040	0.263352	-0.340361
O7	O	1.108616	0.340348	-0.161792
O8	O	1.018384	0.161784	-0.263410
O9	O	1.227957	0.340331	-0.263377
O10	O	1.108807	0.161771	-0.340380
O11	O	1.018275	0.263382	-0.161807
O12	O	0.899005	0.263351	-0.263369
O13	O	1.018319	0.340276	-0.441891
O14	O	0.898977	0.340293	-0.340306
O15	O	1.108770	0.263321	-0.441923
O16	O	1.108578	0.441897	-0.263336
O17	O	1.018210	0.441874	-0.340288
C18	C	0.872289	0.301821	-0.301835
C19	C	0.790490	0.301831	-0.301842
C20	C	1.063398	0.464619	-0.301818
C21	C	1.063423	0.534261	-0.301824
C22	C	1.063553	0.301793	-0.465277
C23	C	1.063577	0.301776	-0.534918
C24	C	0.602300	0.341958	-0.341854
C25	C	0.525442	0.341960	-0.341861
C26	C	0.525441	0.261716	-0.261867
C27	C	0.602299	0.261712	-0.261862
C28	C	0.640726	0.301836	-0.301855
C29	C	0.487010	0.301843	-0.301867
C30	C	0.403676	0.301845	-0.301875
C31	C	0.724065	0.301834	-0.301848
C32	C	1.255448	0.301843	-0.301872
C33	C	1.337247	0.301848	-0.301880
C34	C	1.063612	0.138408	-0.301902
C35	C	1.063663	0.068767	-0.301923
C36	C	1.110520	0.566965	-0.261797
C37	C	1.110554	0.632400	-0.261811
C38	C	1.063479	0.665129	-0.301846
C39	C	1.016379	0.632416	-0.341882
C40	C	1.016351	0.566982	-0.341871
C41	C	0.997215	0.768844	-0.306756
C42	C	0.997242	0.834277	-0.306762
C43	C	1.063565	0.866950	-0.301883
C44	C	1.129863	0.834181	-0.296984
C45	C	1.129835	0.768747	-0.296973
C46	C	1.063504	0.736081	-0.301862
C47	C	1.110702	0.970607	-0.261868
C48	C	1.110738	1.036043	-0.261886
C49	C	1.016556	1.036058	-0.341954
C50	C	1.016527	0.970622	-0.341939
C51	C	1.063599	0.937901	-0.301892
C52	C	1.016550	0.261696	-0.567629
C53	C	1.016547	0.261684	-0.633064
C54	C	1.063586	0.301746	-0.665786
C55	C	1.110617	0.341835	-0.633068
C56	C	1.110613	0.341850	-0.567634
C57	C	1.129893	0.306672	-0.769473
C58	C	1.129898	0.306653	-0.834906
C59	C	1.063598	0.301704	-0.867607
C60	C	0.997290	0.296762	-0.834868
C61	C	0.997286	0.296777	-0.769434
C62	C	1.063595	0.301735	-0.736739
C63	C	1.016563	0.261609	-0.971270
C64	C	1.016559	0.261602	-1.036707
C65	C	1.110636	0.341749	-1.036710
C66	C	1.110633	0.341760	-0.971274
C67	C	1.063598	0.301686	-0.938559
C68	C	1.063480	0.301825	-0.139066
C69	C	1.063598	0.301665	-0.069425
H70	H	0.633586	0.374629	-0.374420
H71	H	0.494144	0.229049	-0.229305
Cl72	Cl	0.913897	0.875464	-0.312919
Cl73	Cl	0.957201	0.673559	-0.392215
Cl74	Cl	1.169708	0.525833	-0.211462
Cl75	Cl	0.957379	1.077196	-0.392289
H76	H	0.633586	0.229036	-0.229291
H77	H	0.978247	0.229067	-0.540996
H78	H	0.978264	0.228979	-0.944632
Cl79	Cl	1.169765	0.673524	-0.211485
H80	H	1.183817	0.742069	-0.292986
Cl81	Cl	1.169747	0.392202	-0.674203
Cl82	Cl	1.213245	0.875248	-0.290843
H83	H	1.149034	0.943964	-0.229262
Cl84	Cl	1.169956	1.077158	-0.211565
Cl85	Cl	0.957312	0.929506	-0.392260
Cl86	Cl	0.477138	0.392401	-0.392149
Cl87	Cl	0.957138	0.525866	-0.392195
Cl88	Cl	0.913830	0.727776	-0.312891
H89	H	0.978253	0.229042	-0.659702
Cl90	Cl	0.913932	0.290568	-0.728278
Cl91	Cl	0.913935	0.290537	-0.875971
H92	H	0.978258	0.228965	-1.063339
H93	H	1.148937	0.374368	-1.063351
H94	H	1.148930	0.374396	-0.944641
H95	H	1.183890	0.310674	-0.861557
H96	H	1.183887	0.310696	-0.742852
Cl97	Cl	1.169740	0.392240	-0.526509
