data_functionalizedCrystal
_audit_creation_method	'MofGen! by Chris Wilmer'
_symmetry_space_group_name_H-M	'P1'
_symmetry_Int_Tables_number	1
_symmetry_cell_setting	triclinic
loop_
_symmetry_equiv_pos_as_xyz
  x,y,z
_cell_length_a	17.699083
_cell_length_b	17.699083
_cell_length_c	7.681481
_cell_angle_alpha	84.268690
_cell_angle_beta	95.718198
_cell_angle_gamma	83.283015
loop_
_atom_site_label
_atom_site_type_symbol
_atom_site_fract_x
_atom_site_fract_y
_atom_site_fract_z
O1	O	-0.996919	-0.102877	0.146171
O2	O	-0.663586	0.230456	0.479504
O3	O	-0.330252	0.563789	0.812837
O4	O	-0.776538	-0.115333	0.146233
O5	O	-0.443204	0.218000	0.479566
O6	O	-0.109871	0.551334	0.812899
O7	O	-0.892955	0.001085	0.146185
O8	O	-0.559622	0.334418	0.479518
O9	O	-0.226289	0.667752	0.812851
O10	O	-0.880501	-0.219295	0.146219
O11	O	-0.547168	0.114038	0.479552
O12	O	-0.213835	0.447372	0.812886
O13	O	-0.907285	0.015446	-0.146679
O14	O	-0.573951	0.348780	0.186654
O15	O	-0.240618	0.682113	0.519987
O16	O	-0.790867	-0.100971	-0.146631
O17	O	-0.457533	0.232362	0.186702
O18	O	-0.124200	0.565695	0.520036
O19	O	-1.011248	-0.088516	-0.146693
O20	O	-0.677915	0.244817	0.186640
O21	O	-0.344581	0.578151	0.519974
Zn22	Zn	-0.903333	-0.092463	-0.193160
Zn23	Zn	-0.569999	0.240870	0.140173
Zn24	Zn	-0.236666	0.574203	0.473506
Zn25	Zn	-0.884453	-0.111385	0.192700
Zn26	Zn	-0.551120	0.221948	0.526034
Zn27	Zn	-0.217787	0.555281	0.859367
O28	O	-0.894830	-0.204934	-0.146645
O29	O	-0.561497	0.128400	0.186689
O30	O	-0.228164	0.461733	0.520022
C31	C	-0.755505	-0.107706	-0.000191
C32	C	-0.422171	0.225627	0.333142
C33	C	-0.088838	0.558960	0.666475
C34	C	-0.671486	-0.106369	-0.000168
C35	C	-0.338152	0.226964	0.333165
C36	C	-0.004819	0.560298	0.666499
C37	C	-0.622864	-0.174703	-0.000157
C38	C	-0.289531	0.158631	0.333176
C39	C	0.043803	0.491964	0.666510
C40	C	-0.543922	-0.173439	-0.000179
C41	C	-0.210588	0.159894	0.333155
C42	C	0.122745	0.493227	0.666488
C43	C	-0.513602	-0.103842	-0.000199
C44	C	-0.180269	0.229491	0.333135
C45	C	0.153065	0.562825	0.666468
C46	C	-0.562230	-0.035503	-0.000215
C47	C	-0.228897	0.297831	0.333118
C48	C	0.104437	0.631164	0.666452
C49	C	-0.641171	-0.036766	-0.000206
C50	C	-0.307838	0.296567	0.333127
C51	C	0.025495	0.629901	0.666461
C52	C	-0.243869	-0.030405	-0.000254
C53	C	0.089465	0.302928	0.333080
C54	C	0.422798	0.636261	0.666413
C55	C	-0.164921	-0.029147	-0.000257
C56	C	0.168412	0.304186	0.333076
C57	C	0.501746	0.637519	0.666409
C58	C	-0.146619	-0.167079	-0.000226
C59	C	0.186714	0.166255	0.333107
C60	C	0.520047	0.499588	0.666440
C61	C	-0.225561	-0.168342	-0.000217
C62	C	0.107773	0.164991	0.333116
C63	C	0.441106	0.498324	0.666449
C64	C	-0.274182	-0.100003	-0.000243
C65	C	0.059151	0.233331	0.333090
C66	C	0.392485	0.566664	0.666424
C67	C	-0.359780	-0.101373	-0.000223
C68	C	-0.026447	0.231960	0.333110
C69	C	0.306886	0.565293	0.666444
C70	C	-0.428005	-0.102471	-0.000206
C71	C	-0.094671	0.230862	0.333127
C72	C	0.238662	0.564195	0.666460
N73	N	-0.916223	-0.079549	-0.456500
N74	N	-0.582889	0.253784	-0.123167
N75	N	-0.249556	0.587117	0.210167
C76	C	-0.899674	0.036463	-0.000247
C77	C	-0.566340	0.369796	0.333086
C78	C	-0.233007	0.703129	0.666419
C79	C	-0.898335	0.120481	-0.000248
C80	C	-0.565002	0.453814	0.333086
C81	C	-0.231669	0.787147	0.666419
C82	C	-0.032281	-0.096143	-0.000261
C83	C	0.301053	0.237190	0.333073
C84	C	0.634386	0.570524	0.666406
C85	C	-0.116299	-0.097482	-0.000259
C86	C	0.217035	0.235852	0.333074
C87	C	0.550368	0.569185	0.666408
C88	C	-0.888112	-0.240312	-0.000209
C89	C	-0.554778	0.093022	0.333125
C90	C	-0.221445	0.426355	0.666458
C91	C	-0.889450	-0.324330	-0.000197
C92	C	-0.556116	0.009003	0.333136
C93	C	-0.222783	0.342336	0.666470
C94	C	-0.966670	0.169103	-0.000269
C95	C	-0.633336	0.502436	0.333064
C96	C	-0.300003	0.835769	0.666397
C97	C	-0.965407	0.248045	-0.000254
C98	C	-0.632073	0.581379	0.333080
C99	C	-0.298740	0.914712	0.666413
C100	C	-0.895809	0.278365	-0.000229
C101	C	-0.562476	0.611698	0.333105
C102	C	-0.229142	0.945032	0.666438
C103	C	-0.827469	0.229736	-0.000202
C104	C	-0.494136	0.563070	0.333132
C105	C	-0.160802	0.896403	0.666465
C106	C	-0.828732	0.150795	-0.000205
C107	C	-0.495399	0.484128	0.333128
C108	C	-0.162065	0.817461	0.666462
C109	C	-0.822373	0.548099	-0.000186
C110	C	-0.489040	0.881432	0.333148
C111	C	-0.155706	1.214765	0.666481
C112	C	-0.821115	0.627047	-0.000188
C113	C	-0.487782	0.960380	0.333146
C114	C	-0.154448	1.293713	0.666479
C115	C	-0.959047	0.645349	-0.000235
C116	C	-0.625714	0.978683	0.333099
C117	C	-0.292381	1.312016	0.666432
C118	C	-0.960311	0.566408	-0.000238
C119	C	-0.626977	0.899741	0.333096
C120	C	-0.293644	1.233074	0.666429
C121	C	-0.891971	0.517786	-0.000202
C122	C	-0.558637	0.851119	0.333132
C123	C	-0.225304	1.184452	0.666465
C124	C	-0.893341	0.432187	-0.000215
C125	C	-0.560007	0.765520	0.333118
C126	C	-0.226674	1.098854	0.666451
C127	C	-0.894439	0.363962	-0.000227
C128	C	-0.561105	0.697296	0.333106
C129	C	-0.227772	1.030629	0.666439
N130	N	-0.871569	-0.124293	0.456040
N131	N	-0.538236	0.209040	0.789373
N132	N	-0.204902	0.542373	1.122706
H133	H	-0.647544	-0.231377	-0.000140
H134	H	-0.314210	0.101956	0.333194
H135	H	0.019123	0.435290	0.666527
H136	H	-0.107022	-0.222724	-0.000215
H137	H	0.226311	0.110610	0.333118
H138	H	0.559644	0.443943	0.666452
Cl139	Cl	-0.801191	-0.194807	-0.427835
Cl140	Cl	-0.467858	0.138527	-0.094502
Cl141	Cl	-0.134525	0.471860	0.238831
H142	H	-0.961813	-0.033881	-0.531725
H143	H	-0.628480	0.299452	-0.198391
H144	H	-0.295147	0.632785	0.134942
H145	H	-0.504337	-0.229084	-0.000168
H146	H	-0.171003	0.104249	0.333166
H147	H	0.162330	0.437583	0.666499
H148	H	-1.021052	0.287631	-0.000275
H149	H	-0.687718	0.620964	0.333058
H150	H	-0.354385	0.954298	0.666392
Cl151	Cl	-0.742822	0.089669	-0.000171
Cl152	Cl	-0.409489	0.423002	0.333162
Cl153	Cl	-0.076155	0.756336	0.666496
Cl154	Cl	-0.263672	-0.255840	-0.000182
Cl155	Cl	0.069662	0.077493	0.333151
Cl156	Cl	0.402995	0.410827	0.666484
Cl157	Cl	-0.126806	0.058353	-0.000284
Cl158	Cl	0.206527	0.391687	0.333050
Cl159	Cl	0.539860	0.725020	0.666383
H160	H	-0.283448	0.025241	-0.000276
H161	H	0.049886	0.358574	0.333057
H162	H	0.383219	0.691908	0.666391
H163	H	-0.537539	0.021166	-0.000256
H164	H	-0.204205	0.354500	0.333077
H165	H	0.129128	0.687833	0.666410
H166	H	-0.680759	0.018879	-0.000214
H167	H	-0.347425	0.352212	0.333119
H168	H	-0.014092	0.685545	0.666453
H169	H	-1.014693	0.684947	-0.000255
H170	H	-0.681359	1.018280	0.333078
H171	H	-0.348026	1.351613	0.666412
Cl172	Cl	-1.054170	0.130996	-0.000319
Cl173	Cl	-0.720837	0.464329	0.333014
Cl174	Cl	-0.387503	0.797663	0.666348
H175	H	-0.764437	0.651729	-0.000171
H176	H	-0.431104	0.985063	0.333162
H177	H	-0.097771	1.318396	0.666496
Cl178	Cl	-0.736459	0.486984	-0.000136
Cl179	Cl	-0.403126	0.820317	0.333198
Cl180	Cl	-0.069792	1.153651	0.666531
Cl181	Cl	-1.047808	0.528296	-0.000263
Cl182	Cl	-0.714474	0.861629	0.333070
Cl183	Cl	-0.381141	1.194963	0.666403
H184	H	-0.770801	0.254428	-0.000170
H185	H	-0.437467	0.587762	0.333163
H186	H	-0.104134	0.921095	0.666497
