data_functionalizedCrystal
_audit_creation_method	'MofGen! by Chris Wilmer'
_symmetry_space_group_name_H-M	'P1'
_symmetry_Int_Tables_number	1
_symmetry_cell_setting	triclinic
loop_
_symmetry_equiv_pos_as_xyz
  x,y,z
_cell_length_a	16.109318
_cell_length_b	16.109304
_cell_length_c	14.586319
_cell_angle_alpha	89.999019
_cell_angle_beta	90.000075
_cell_angle_gamma	83.465600
loop_
_atom_site_label
_atom_site_type_symbol
_atom_site_fract_x
_atom_site_fract_y
_atom_site_fract_z
O1	O	1.103123	0.106935	-0.076158
O2	O	1.436456	0.440268	0.257175
O3	O	1.769790	0.773601	0.590508
O4	O	0.861063	0.120219	-0.076176
O5	O	1.194396	0.453552	0.257157
O6	O	1.527730	0.786885	0.590491
O7	O	0.988741	-0.007454	-0.076167
O8	O	1.322075	0.325880	0.257166
O9	O	1.655408	0.659213	0.590499
O10	O	0.975445	0.234607	-0.076167
O11	O	1.308778	0.567940	0.257166
O12	O	1.642111	0.901274	0.590499
O13	O	0.988732	-0.007456	0.076314
O14	O	1.322066	0.325878	0.409647
O15	O	1.655399	0.659211	0.742980
O16	O	0.861054	0.120217	0.076305
O17	O	1.194387	0.453550	0.409638
O18	O	1.527721	0.786884	0.742971
O19	O	1.103114	0.106933	0.076323
O20	O	1.436447	0.440266	0.409656
O21	O	1.769781	0.773599	0.742989
Cu22	Cu	0.982083	0.113575	0.090236
Cu23	Cu	1.315417	0.446908	0.423570
Cu24	Cu	1.648750	0.780241	0.756903
Cu25	Cu	0.982094	0.113577	-0.090090
Cu26	Cu	1.315427	0.446910	0.243243
Cu27	Cu	1.648760	0.780244	0.576577
O28	O	0.975436	0.234605	0.076314
O29	O	1.308769	0.567939	0.409647
O30	O	1.642102	0.901272	0.742980
C31	C	0.830084	0.119677	0.000062
C32	C	1.163417	0.453011	0.333395
C33	C	1.496751	0.786344	0.666729
C34	C	0.737789	0.118056	0.000055
C35	C	1.071123	0.451390	0.333388
C36	C	1.404456	0.784723	0.666722
C37	C	0.438720	0.112822	-0.083046
C38	C	0.772054	0.446156	0.250287
C39	C	1.105387	0.779489	0.583620
C40	C	0.525442	0.114340	-0.083052
C41	C	0.858775	0.447673	0.250281
C42	C	1.192108	0.781007	0.583615
C43	C	0.525451	0.114326	0.083191
C44	C	0.858784	0.447660	0.416524
C45	C	1.192118	0.780993	0.749858
C46	C	0.438732	0.112803	0.083196
C47	C	0.772065	0.446136	0.416529
C48	C	1.105399	0.779470	0.749862
C49	C	0.395368	0.112055	0.000074
C50	C	0.728702	0.445389	0.333408
C51	C	1.062035	0.778722	0.666741
C52	C	0.568809	0.115096	0.000064
C53	C	0.902142	0.448429	0.333397
C54	C	1.235475	0.781763	0.666731
C55	C	0.662836	0.116741	0.000059
C56	C	0.996169	0.450075	0.333392
C57	C	1.329502	0.783408	0.666725
C58	C	0.301336	0.110408	0.000079
C59	C	0.634669	0.443742	0.333413
C60	C	0.968002	0.777075	0.666746
C61	C	0.988198	-0.038430	0.000071
C62	C	1.321531	0.294904	0.333404
C63	C	1.654865	0.628237	0.666738
C64	C	0.986582	-0.130725	0.000065
C65	C	1.319915	0.202609	0.333398
C66	C	1.653248	0.535942	0.666731
C67	C	0.982853	-0.343061	-0.083049
C68	C	1.316186	-0.009728	0.250284
C69	C	1.649520	0.323605	0.583617
C70	C	0.981327	-0.429782	-0.083049
C71	C	1.314660	-0.096448	0.250285
C72	C	1.647994	0.236885	0.583618
C73	C	0.981322	-0.429781	0.083194
C74	C	1.314655	-0.096447	0.416528
C75	C	1.647988	0.236886	0.749861
C76	C	0.982842	-0.343061	0.083193
C77	C	1.316175	-0.009728	0.416526
C78	C	1.649508	0.323605	0.749859
C79	C	0.983612	-0.299704	0.000068
C80	C	1.316945	0.033629	0.333401
C81	C	1.650278	0.366962	0.666735
C82	C	0.980565	-0.473144	0.000070
C83	C	1.313899	-0.139811	0.333404
C84	C	1.647232	0.193523	0.666737
C85	C	0.978911	-0.567170	0.000072
C86	C	1.312244	-0.233837	0.333405
C87	C	1.645577	0.099497	0.666739
C88	C	0.985265	-0.205672	0.000066
C89	C	1.318598	0.127661	0.333400
C90	C	1.651931	0.460994	0.666733
C91	C	1.134093	0.107474	0.000082
C92	C	1.467426	0.440808	0.333416
C93	C	1.800760	0.774141	0.666749
C94	C	1.226388	0.109095	0.000084
C95	C	1.559721	0.442428	0.333417
C96	C	1.893054	0.775762	0.666750
C97	C	0.975979	0.265581	0.000073
C98	C	1.309312	0.598914	0.333407
C99	C	1.642646	0.932248	0.666740
C100	C	0.977595	0.357876	0.000074
C101	C	1.310929	0.691210	0.333407
C102	C	1.644262	1.024543	0.666740
N103	N	0.982082	0.113573	0.217068
N104	N	1.315415	0.446906	0.550401
N105	N	1.648749	0.780239	0.883735
N106	N	0.982102	0.113572	-0.216922
N107	N	1.315435	0.446906	0.116412
N108	N	1.648768	0.780239	0.449745
C109	C	1.038637	0.057058	0.452078
C110	C	1.371970	0.390391	0.785412
C111	C	1.705303	0.723725	1.118745
C112	C	1.038639	0.057056	0.548060
C113	C	1.371972	0.390389	0.881393
C114	C	1.705306	0.723723	1.214726
C115	C	0.925541	0.170090	0.548061
C116	C	1.258874	0.503423	0.881395
C117	C	1.592208	0.836756	1.214728
C118	C	0.925535	0.170087	0.452082
C119	C	1.258869	0.503420	0.785415
C120	C	1.592202	0.836754	1.118748
C121	C	0.982088	0.113572	0.404093
C122	C	1.315421	0.446905	0.737426
C123	C	1.648754	0.780239	1.070759
C124	C	0.982096	0.113573	0.596054
C125	C	1.315429	0.446906	0.929387
C126	C	1.648763	0.780239	1.262720
C127	C	0.982098	0.113571	0.700121
C128	C	1.315431	0.446904	1.033454
C129	C	1.648765	0.780238	1.366787
C130	C	0.982085	0.113573	0.300019
C131	C	1.315418	0.446906	0.633352
C132	C	1.648751	0.780239	0.966686
H133	H	0.560735	0.114963	-0.150737
H134	H	0.894069	0.448297	0.182596
H135	H	1.227402	0.781630	0.515930
H136	H	0.983455	-0.307758	0.150881
H137	H	1.316788	0.025575	0.484214
H138	H	1.650121	0.358908	0.817548
F139	F	0.983669	-0.296920	-0.171518
F140	F	1.317003	0.036413	0.161816
F141	F	1.650336	0.369746	0.495149
F142	F	1.098823	-0.003092	0.401009
F143	F	1.432156	0.330241	0.734342
F144	F	1.765489	0.663575	1.067675
F145	F	0.392573	0.112024	-0.171511
F146	F	0.725906	0.445357	0.161822
F147	F	1.059240	0.778690	0.495155
F148	F	1.098824	-0.003095	0.599126
F149	F	1.432157	0.330238	0.932460
F150	F	1.765491	0.663571	1.265793
H151	H	0.560768	0.114937	0.150866
H152	H	0.894101	0.448270	0.484199
H153	H	1.227434	0.781604	0.817532
H154	H	0.403434	0.112178	0.150887
H155	H	0.736767	0.445511	0.484220
H156	H	1.070101	0.778844	0.817553
F157	F	0.980518	-0.475921	-0.171514
F158	F	1.313851	-0.142588	0.161820
F159	F	1.647185	0.190745	0.495153
F160	F	0.980502	-0.475931	0.171656
F161	F	1.313835	-0.142598	0.504990
F162	F	1.647168	0.190735	0.838323
F163	F	0.865359	0.230236	0.599141
F164	F	1.198692	0.563569	0.932474
F165	F	1.532025	0.896903	1.265807
H166	H	0.879482	0.216108	0.413009
H167	H	1.212816	0.549441	0.746343
H168	H	1.546149	0.882774	1.079676
