data_functionalizedCrystal
_audit_creation_method	'MofGen! by Chris Wilmer'
_symmetry_space_group_name_H-M	'P1'
_symmetry_Int_Tables_number	1
_symmetry_cell_setting	triclinic
loop_
_symmetry_equiv_pos_as_xyz
  x,y,z
_cell_length_a	12.645331
_cell_length_b	12.645330
_cell_length_c	19.077569
_cell_angle_alpha	92.319435
_cell_angle_beta	92.310267
_cell_angle_gamma	90.018103
loop_
_atom_site_label
_atom_site_type_symbol
_atom_site_fract_x
_atom_site_fract_y
_atom_site_fract_z
Zn1	Zn	1.644749	-0.397978	0.397898
Zn2	Zn	1.637527	-0.582376	0.280211
Zn3	Zn	1.460360	-0.405128	0.280223
Zn4	Zn	1.467444	-0.575202	0.397878
O5	O	1.552520	-0.490171	0.339052
O6	O	1.792138	-0.422449	0.382289
O7	O	1.608038	-0.564859	0.181722
O8	O	1.484878	-0.255831	0.295847
O9	O	1.786832	-0.557926	0.295826
O10	O	1.620347	-0.250578	0.382301
O11	O	1.477875	-0.434635	0.181731
O12	O	1.312953	-0.427679	0.295827
O13	O	1.496951	-0.545698	0.496371
O14	O	1.318157	-0.552631	0.382267
O15	O	1.627216	-0.415492	0.496386
O16	O	1.614907	-0.729773	0.295806
O17	O	1.489948	-0.724502	0.382255
C18	C	1.277090	-0.490153	0.339047
C19	C	1.159261	-0.490170	0.339061
C20	C	1.117684	-0.568922	0.393361
C21	C	0.995114	-0.569269	0.393200
C22	C	0.986824	-0.524496	0.264797
C23	C	1.109442	-0.525056	0.265112
C24	C	1.115281	-0.376957	0.358376
C25	C	0.992774	-0.377477	0.360012
C26	C	1.552442	-0.765601	0.339043
C27	C	1.552507	-0.883430	0.339062
C28	C	1.474243	-1.047712	0.393615
C29	C	1.473815	-0.925163	0.393439
C30	C	1.517785	-0.932506	0.264889
C31	C	1.517307	-1.055085	0.265220
C32	C	1.665956	-1.049370	0.358080
C33	C	1.665366	-0.926665	0.359702
C34	C	1.829026	-0.490190	0.339058
C35	C	1.946856	-0.490198	0.339061
C36	C	1.563679	-0.478997	0.522630
C37	C	1.568434	-0.474235	0.600860
C38	C	1.552628	-0.213664	0.339078
C39	C	1.552674	-0.095833	0.339088
C40	C	1.541465	-0.501225	0.156189
C41	C	1.536915	-0.505688	0.077959
C42	C	1.502848	-0.539784	0.637606
C43	C	1.507325	-0.535310	0.711112
C44	C	1.577384	-0.465281	0.747870
C45	C	1.642977	-0.399729	0.711118
C46	C	1.638505	-0.404209	0.637614
C47	C	1.598037	-0.444617	0.967704
C48	C	1.602502	-0.440139	1.041213
C49	C	1.466850	-0.575722	1.041201
C50	C	1.462380	-0.580192	0.967696
C51	C	1.527977	-0.514644	0.930951
N52	N	1.581959	-0.460703	0.823004
N53	N	1.523406	-0.519228	0.855818
H54	H	0.964982	-0.653077	0.380386
H55	H	1.724444	-1.080757	0.318367
H56	H	1.691912	-0.350832	0.607697
H57	H	1.413445	-0.629088	1.071127
H58	H	0.968384	-0.547346	0.448256
H59	H	1.572901	-0.905869	0.223153
H60	H	0.967024	-0.351687	0.414666
H61	H	0.959938	-0.315347	0.323377
H62	H	1.141902	-0.318233	0.318831
H63	H	1.496059	-0.891686	0.448438
H64	H	1.727237	-0.898239	0.322880
H65	H	1.405347	-0.637234	0.937773
H66	H	1.150535	-0.547203	0.448589
H67	H	1.496324	-1.073790	0.448794
H68	H	1.445786	-0.596797	0.607683
H69	H	1.147697	-0.652242	0.380702
H70	H	1.137021	-0.607931	0.248786
H71	H	1.136586	-0.470388	0.223266
H72	H	1.435678	-0.902885	0.248509
H73	H	1.390881	-1.079364	0.381194
H74	H	0.955093	-0.606498	0.248194
H75	H	1.434364	-1.084749	0.249131
H76	H	1.659549	-0.383103	1.071139
H77	H	1.453918	-0.588688	0.741027
H78	H	1.389924	-0.896689	0.380857
H79	H	0.955172	-0.469092	0.223229
H80	H	1.691470	-0.894216	0.414290
H81	H	1.651451	-0.391244	0.937795
H82	H	1.571711	-1.087280	0.223209
H83	H	1.149449	-0.346502	0.411617
H84	H	1.696755	-1.077001	0.411248
H85	H	1.700026	-0.342714	0.741053
