data_functionalizedCrystal
_audit_creation_method	'MofGen! by Chris Wilmer'
_symmetry_space_group_name_H-M	'P1'
_symmetry_Int_Tables_number	1
_symmetry_cell_setting	triclinic
loop_
_symmetry_equiv_pos_as_xyz
  x,y,z
_cell_length_a	19.077442
_cell_length_b	19.077241
_cell_length_c	19.077271
_cell_angle_alpha	89.928553
_cell_angle_beta	85.471882
_cell_angle_gamma	90.074196
loop_
_atom_site_label
_atom_site_type_symbol
_atom_site_fract_x
_atom_site_fract_y
_atom_site_fract_z
Zn1	Zn	-0.220067	-1.067471	-0.432111
Zn2	Zn	-0.342286	-1.077207	-0.309902
Zn3	Zn	-0.229517	-0.955080	-0.309523
Zn4	Zn	-0.342613	-0.955040	-0.422627
O5	O	-0.283621	-1.013699	-0.368541
O6	O	-0.232187	-1.166925	-0.420027
O7	O	-0.331145	-1.065097	-0.211372
O8	O	-0.129784	-0.965931	-0.329595
O9	O	-0.321981	-1.174078	-0.330241
O10	O	-0.122840	-1.048504	-0.419660
O11	O	-0.248295	-0.975371	-0.211093
O12	O	-0.248612	-0.856911	-0.320398
O13	O	-0.322538	-0.965864	-0.522365
O14	O	-0.331702	-0.856883	-0.403496
O15	O	-0.232504	-1.048466	-0.529332
O16	O	-0.440809	-1.065059	-0.321045
O17	O	-0.441049	-0.975304	-0.403863
C18	C	-0.291219	-0.831444	-0.360877
C19	C	-0.294485	-0.753475	-0.357615
C20	C	-0.249338	-0.713122	-0.402895
C21	C	-0.252405	-0.639861	-0.399824
C22	C	-0.300622	-0.606955	-0.351475
C23	C	-0.345771	-0.647314	-0.306190
C24	C	-0.342701	-0.720573	-0.309258
C25	C	-0.314807	-0.388254	-0.337275
C26	C	-0.317876	-0.314989	-0.334211
C27	C	-0.224508	-0.307541	-0.427845
C28	C	-0.221444	-0.380802	-0.430912
C29	C	-0.266591	-0.421154	-0.385624
N30	N	-0.303759	-0.532072	-0.348336
N31	N	-0.263450	-0.496037	-0.388760
C32	C	-0.466462	-1.021252	-0.361482
C33	C	-0.544679	-1.024546	-0.358489
C34	C	-0.984941	-1.048125	-0.336997
C35	C	-0.911448	-1.045024	-0.339810
C36	C	-0.874858	-0.996712	-0.384301
C37	C	-0.911764	-0.951495	-0.425975
C38	C	-0.985256	-0.954593	-0.423157
C39	C	-0.655077	-0.982427	-0.397345
C40	C	-0.581580	-0.979333	-0.400162
C41	C	-0.581270	-1.072862	-0.313995
C42	C	-0.654763	-1.075959	-0.311185
C43	C	-0.691663	-1.030739	-0.352856
N44	N	-0.799736	-0.993542	-0.387180
N45	N	-0.766784	-1.033906	-0.349973
C46	C	-0.100063	-1.006136	-0.375643
C47	C	-0.021842	-1.002912	-0.378669
C48	C	-0.276504	-1.006075	-0.552097
C49	C	-0.273471	-1.002825	-0.630318
C50	C	-0.275990	-0.196666	-0.376229
C51	C	-0.272728	-0.274636	-0.379492
C52	C	-0.251774	-0.979523	-1.070603
C53	C	-0.254621	-0.982579	-0.997107
C54	C	-0.299184	-1.030819	-0.960503
C55	C	-0.340898	-1.076011	-0.997399
C56	C	-0.338047	-1.072957	-1.070895
C57	C	-0.312333	-1.044963	-0.740710
C58	C	-0.315183	-1.048012	-0.667209
C59	C	-0.228905	-0.954581	-0.666922
C60	C	-0.226061	-0.951529	-0.740419
C61	C	-0.267772	-0.996723	-0.777309
N62	N	-0.302097	-1.033943	-0.885377
N63	N	-0.264855	-0.993602	-0.852434
C64	C	-0.290657	-1.021333	-0.185702
C65	C	-0.293486	-1.024710	-0.107495
H66	H	-0.182183	-0.407588	-0.470285
H67	H	-0.351458	-1.087310	-0.637409
C68	C	-0.561845	-1.111114	-0.197164
C69	C	-0.540709	-1.122560	-0.268185
H70	H	-0.536807	-1.141798	-0.168881
H71	H	-0.552212	-1.063918	-0.185316
H72	H	-0.610852	-1.119874	-0.189130
H73	H	-0.491703	-1.113794	-0.276220
H74	H	-0.550337	-1.169767	-0.280037
H75	H	-0.215642	-0.607008	-0.436697
H76	H	-0.194945	-0.917787	-0.636878
C77	C	-0.352551	-0.807270	-0.217656
C78	C	-0.392330	-0.764931	-0.259485
H79	H	-0.383191	-0.834649	-0.186923
H80	H	-0.323402	-0.837348	-0.246888
H81	H	-0.324090	-0.778521	-0.190779
H82	H	-0.420788	-0.793680	-0.286366
H83	H	-0.421491	-0.734849	-0.230249
C84	C	-0.187750	-0.191933	-0.464714
C85	C	-0.174878	-0.263184	-0.477616
H86	H	-0.157104	-0.164551	-0.495439
H87	H	-0.235149	-0.181466	-0.472612
H88	H	-0.179714	-0.181460	-0.417342
H89	H	-0.182919	-0.273658	-0.524987
H90	H	-0.127468	-0.273655	-0.469723
H91	H	-0.357144	-0.288200	-0.294839
C92	C	-0.555752	-0.939173	-0.518731
C93	C	-0.541353	-0.926231	-0.449072
H94	H	-0.530918	-0.906392	-0.548926
H95	H	-0.541302	-0.985356	-0.531501
H96	H	-0.604803	-0.934535	-0.523009
H97	H	-0.492303	-0.930874	-0.444793
H98	H	-0.555800	-0.880037	-0.436298
C99	C	-0.346248	-1.081800	-0.853496
C100	C	-0.358168	-1.094652	-0.781256
H101	H	-0.374539	-1.112485	-0.878529
H102	H	-0.358058	-1.034604	-0.863169
H103	H	-0.298063	-1.089608	-0.867786
H104	H	-0.406352	-1.086838	-0.766965
H105	H	-0.346362	-1.141859	-0.771579
C106	C	-0.407407	-0.388247	-0.244419
C107	C	-0.364436	-0.432603	-0.287499
H108	H	-0.438049	-0.415630	-0.213691
H109	H	-0.378943	-0.359512	-0.217543
H110	H	-0.434382	-0.359524	-0.272809
H111	H	-0.337457	-0.461322	-0.259109
H112	H	-0.392904	-0.461349	-0.314377
C113	C	-0.734433	-0.972162	-0.488423
C114	C	-0.695630	-0.932729	-0.443159
H115	H	-0.759472	-0.941478	-0.516706
H116	H	-0.703407	-1.000373	-0.517742
H117	H	-0.766745	-1.001370	-0.461514
H118	H	-0.663314	-0.903525	-0.470067
H119	H	-0.726659	-0.904506	-0.413836
H120	H	-0.385028	-0.620517	-0.266820
H121	H	-0.684550	-1.115299	-0.274954
H122	H	-0.215488	-0.940239	-1.100401
H123	H	-0.372012	-1.109754	-1.100931
H124	H	-0.881968	-0.912155	-0.462198
C125	C	-0.977245	-1.140256	-0.252103
C126	C	-1.025158	-1.101230	-0.288089
H127	H	-1.002074	-1.173037	-0.221905
H128	H	-0.946240	-1.164581	-0.285012
H129	H	-0.950935	-1.109617	-0.224978
H130	H	-1.051465	-1.131870	-0.315219
H131	H	-1.056175	-1.076904	-0.255175
C132	C	-0.832093	-1.055297	-0.248728
C133	C	-0.870890	-1.094726	-0.294002
H134	H	-0.807060	-1.085984	-0.220443
H135	H	-0.799784	-1.026089	-0.275625
H136	H	-0.863129	-1.027087	-0.219405
H137	H	-0.839854	-1.122932	-0.323329
H138	H	-0.903203	-1.123946	-0.267103
C139	C	-0.978185	-0.861841	-0.508619
C140	C	-1.025820	-0.904898	-0.468969
H141	H	-1.003229	-0.831163	-0.536904
H142	H	-0.951865	-0.835100	-0.477908
H143	H	-0.947163	-0.890063	-0.537944
H144	H	-1.056839	-0.876676	-0.439640
H145	H	-1.052152	-0.931641	-0.499684
C146	C	-0.169059	-0.889917	-1.004205
C147	C	-0.208771	-0.932908	-0.956556
H148	H	-0.140755	-0.859250	-0.979169
H149	H	-0.139759	-0.918180	-1.035198
H150	H	-0.199736	-0.863158	-1.030555
H151	H	-0.178094	-0.959671	-0.930209
H152	H	-0.238074	-0.904641	-0.925551
C153	C	-0.195849	-0.830396	-0.759357
C154	C	-0.177072	-0.898498	-0.780642
H155	H	-0.165603	-0.797654	-0.784184
H156	H	-0.243086	-0.821581	-0.769149
H157	H	-0.191580	-0.825764	-0.710304
H158	H	-0.181346	-0.903131	-0.829695
H159	H	-0.129824	-0.907315	-0.770856
C160	C	-0.157355	-0.698393	-0.495135
C161	C	-0.196336	-0.749288	-0.456043
H162	H	-0.124629	-0.720721	-0.527943
H163	H	-0.188213	-0.669981	-0.519620
H164	H	-0.132775	-0.669968	-0.464353
H165	H	-0.220919	-0.777709	-0.486825
H166	H	-0.165473	-0.777711	-0.431557
C167	C	-0.438363	-1.093080	-0.911499
C168	C	-0.389885	-1.129035	-0.957164
H169	H	-0.468609	-1.125815	-0.886664
H170	H	-0.413927	-1.066612	-0.879013
H171	H	-0.465437	-1.062436	-0.937854
H172	H	-0.362806	-1.159676	-0.930808
H173	H	-0.414323	-1.155516	-0.989654
