data_functionalizedCrystal
_audit_creation_method	'MofGen! by Chris Wilmer'
_symmetry_space_group_name_H-M	'P1'
_symmetry_Int_Tables_number	1
_symmetry_cell_setting	triclinic
loop_
_symmetry_equiv_pos_as_xyz
  x,y,z
_cell_length_a	12.759401
_cell_length_b	16.625546
_cell_length_c	12.759393
_cell_angle_alpha	89.963756
_cell_angle_beta	89.980163
_cell_angle_gamma	90.023993
loop_
_atom_site_label
_atom_site_type_symbol
_atom_site_fract_x
_atom_site_fract_y
_atom_site_fract_z
Zn1	Zn	1.606198	-0.320921	-0.593986
Zn2	Zn	2.106198	0.179079	-0.093986
Zn3	Zn	1.606069	-0.455778	-0.418292
Zn4	Zn	2.106069	0.044222	0.081708
Zn5	Zn	1.430500	-0.320966	-0.418322
Zn6	Zn	1.930500	0.179034	0.081678
Zn7	Zn	1.430465	-0.455719	-0.593930
Zn8	Zn	1.930465	0.044281	-0.093930
O9	O	1.518308	-0.388346	-0.506132
O10	O	2.018308	0.111654	-0.006132
O11	O	1.753202	-0.338816	-0.570692
O12	O	2.253202	0.161184	-0.070692
O13	O	1.582740	-0.437938	-0.271275
O14	O	2.082740	0.062062	0.228725
O15	O	1.453876	-0.208128	-0.441660
O16	O	1.953876	0.291872	0.058340
O17	O	1.753107	-0.437894	-0.441610
O18	O	2.253107	0.062106	0.058390
O19	O	1.582960	-0.208094	-0.570720
O20	O	2.082960	0.291906	-0.070720
O21	O	1.453751	-0.338893	-0.271297
O22	O	1.953751	0.161107	0.228703
O23	O	1.283475	-0.338836	-0.441605
O24	O	1.783475	0.161164	0.058395
O25	O	1.453816	-0.437794	-0.740958
O26	O	1.953816	0.062206	-0.240958
O27	O	1.283449	-0.437838	-0.570623
O28	O	1.783449	0.062162	-0.070623
O29	O	1.582926	-0.338758	-0.741000
O30	O	2.082926	0.161242	-0.241000
O31	O	1.582706	-0.568602	-0.441555
O32	O	2.082706	-0.068602	0.058445
O33	O	1.453690	-0.568559	-0.570595
O34	O	1.953690	-0.068559	-0.070595
C35	C	1.245341	-0.388336	-0.506112
C36	C	1.745341	0.111664	-0.006112
C37	C	1.128564	-0.388351	-0.506128
C38	C	1.628564	0.111649	-0.006128
C39	C	1.073716	-0.439980	-0.573202
C40	C	1.573716	0.060020	-0.073202
C41	C	0.963992	-0.439983	-0.573223
C42	C	1.463992	0.060017	-0.073223
C43	C	0.963974	-0.336726	-0.439086
C44	C	1.463974	0.163274	0.060914
C45	C	1.073696	-0.336720	-0.439071
C46	C	1.573696	0.163280	0.060929
C47	C	1.518209	-0.597837	-0.506088
C48	C	2.018209	-0.097837	-0.006088
C49	C	1.518262	-0.687458	-0.506105
C50	C	2.018262	-0.187458	-0.006105
C51	C	1.518446	-1.015633	-0.506214
C52	C	2.018446	-0.515633	-0.006214
C53	C	1.518391	-0.924325	-0.506187
C54	C	2.018391	-0.424325	-0.006187
C55	C	1.518353	-0.851549	-0.506159
C56	C	2.018353	-0.351549	-0.006159
C57	C	1.518300	-0.760234	-0.506132
C58	C	2.018300	-0.260234	-0.006132
C59	C	1.792341	-0.388356	-0.506154
C60	C	2.292341	0.111644	-0.006154
C61	C	1.909118	-0.388361	-0.506163
C62	C	2.409118	0.111639	-0.006163
C63	C	1.518382	-0.388264	-0.780166
C64	C	2.018382	0.111736	-0.280166
C65	C	1.518413	-0.388230	-0.896943
C66	C	2.018413	0.111770	-0.396943
C67	C	1.518437	-0.178037	-0.506200
C68	C	2.018437	0.321963	-0.006200
C69	C	1.518491	-0.088416	-0.506228
C70	C	2.018491	0.411584	-0.006228
C71	C	1.451272	-0.336647	-0.951815
C72	C	1.951272	0.163353	-0.451815
C73	C	1.451297	-0.336623	-1.061539
C74	C	1.951297	0.163377	-0.561539
C75	C	1.585611	-0.439765	-1.061509
C76	C	2.085611	0.060235	-0.561509
C77	C	1.585581	-0.439793	-0.951786
C78	C	2.085581	0.060207	-0.451786
C79	C	1.518296	-0.388369	-0.233165
C80	C	2.018296	0.111631	0.266835
C81	C	1.518468	-0.388177	-0.116389
C82	C	2.018468	0.111823	0.383611
H83	H	0.919340	-0.482023	-0.627843
H84	H	1.419340	0.017977	-0.127843
Cl85	Cl	1.366828	-0.271829	-0.882873
Cl86	Cl	1.866828	0.228171	-0.382873
Cl87	Cl	1.670049	-0.504581	-1.130462
Cl88	Cl	2.170049	-0.004581	-0.630462
H89	H	1.396623	-0.294620	-1.106212
H90	H	1.896623	0.205380	-0.606212
Cl91	Cl	1.669989	-0.504648	-0.882798
Cl92	Cl	2.169989	-0.004648	-0.382798
Cl93	Cl	1.142653	-0.271804	-0.354749
Cl94	Cl	1.642653	0.228196	0.145251
Cl95	Cl	1.142690	-0.504885	-0.657505
Cl96	Cl	1.642690	-0.004885	-0.157505
Cl97	Cl	0.894989	-0.271824	-0.354789
Cl98	Cl	1.394989	0.228176	0.145211
