data_functionalizedCrystal
_audit_creation_method	'MofGen! by Chris Wilmer'
_symmetry_space_group_name_H-M	'P1'
_symmetry_Int_Tables_number	1
_symmetry_cell_setting	triclinic
loop_
_symmetry_equiv_pos_as_xyz
  x,y,z
_cell_length_a	25.639239
_cell_length_b	12.759395
_cell_length_c	12.759387
_cell_angle_alpha	90.020509
_cell_angle_beta	89.963582
_cell_angle_gamma	89.959777
loop_
_atom_site_label
_atom_site_type_symbol
_atom_site_fract_x
_atom_site_fract_y
_atom_site_fract_z
Zn1	Zn	-0.208102	-1.606094	-0.593964
Zn2	Zn	-0.295548	-1.605911	-0.418267
Zn3	Zn	-0.208130	-1.430392	-0.418301
Zn4	Zn	-0.295510	-1.430311	-0.593906
O5	O	-0.251823	-1.518177	-0.506110
O6	O	-0.219705	-1.753090	-0.570668
O7	O	-0.283979	-1.582585	-0.271250
O8	O	-0.134961	-1.453810	-0.441641
O9	O	-0.283951	-1.752956	-0.441584
O10	O	-0.134940	-1.582897	-0.570700
O11	O	-0.219754	-1.453632	-0.271275
O12	O	-0.219718	-1.283360	-0.441585
O13	O	-0.283888	-1.453671	-0.740935
O14	O	-0.283916	-1.283300	-0.570602
O15	O	-0.219669	-1.582818	-0.740978
O16	O	-0.368708	-1.582506	-0.441528
O17	O	-0.368681	-1.453494	-0.570569
C18	C	-0.251816	-1.245209	-0.506092
C19	C	-0.251826	-1.128432	-0.506109
C20	C	-0.387665	-1.518000	-0.506062
C21	C	-0.445779	-1.518020	-0.506076
C22	C	-0.251771	-1.518256	-0.780143
C23	C	-0.251749	-1.518290	-0.896920
C24	C	-0.806144	-1.585529	-0.439032
C25	C	-0.860748	-1.585570	-0.439046
O26	O	-0.888986	-1.642784	-0.381991
N27	N	-0.888062	-1.518361	-0.506179
C28	C	-0.860768	-1.451115	-0.573310
O29	O	-0.889014	-1.393954	-0.630414
C30	C	-0.806165	-1.451081	-0.573300
C31	C	-0.778854	-1.518286	-0.506156
C32	C	-0.778833	-1.652729	-0.371894
C33	C	-0.724233	-1.652687	-0.371879
C34	C	-0.696943	-1.585444	-0.439002
C35	C	-0.724253	-1.518244	-0.506140
C36	C	-0.778872	-1.383841	-0.640436
C37	C	-0.724265	-1.383813	-0.640421
C38	C	-0.696954	-1.451018	-0.573276
C39	C	-0.642363	-1.450958	-0.573249
N40	N	-0.615050	-1.518167	-0.506116
C41	C	-0.642339	-1.585409	-0.438992
C42	C	-0.975438	-1.451195	-0.573326
C43	C	-1.030041	-1.451223	-0.573331
C44	C	-1.030017	-1.585679	-0.439069
C45	C	-0.975414	-1.585644	-0.439059
C46	C	-0.948125	-1.518403	-0.506193
C47	C	-0.527674	-1.585315	-0.438965
C48	C	-0.473069	-1.585263	-0.438953
C49	C	-0.473097	-1.450812	-0.573219
C50	C	-0.527698	-1.450859	-0.573227
C51	C	-0.554985	-1.518119	-0.506097
O52	O	-0.614090	-1.393776	-0.630278
O53	O	-0.614087	-1.642571	-0.381908
C54	C	-0.115449	-1.518383	-0.506181
C55	C	-0.057335	-1.518470	-0.506211
C56	C	-0.251829	-1.792210	-0.506128
C57	C	-0.251832	-1.908987	-0.506136
C58	C	-0.318783	-1.128409	-0.640236
C59	C	-0.352266	-1.073536	-0.707303
C60	C	-0.352272	-0.963815	-0.707316
C61	C	-0.318791	-0.908963	-0.640257
C62	C	-0.285309	-0.963836	-0.573190
C63	C	-0.285307	-1.073560	-0.573182
C64	C	-0.218349	-0.963859	-0.439070
C65	C	-0.218345	-1.073581	-0.439050
C66	C	-0.184868	-0.909008	-0.372011
C67	C	-0.151387	-0.963880	-0.304937
C68	C	-0.151383	-1.073609	-0.304926
C69	C	-0.184862	-1.128454	-0.371983
C70	C	-0.184883	-1.652780	-0.896984
C71	C	-0.151442	-1.720039	-0.951877
C72	C	-0.151423	-1.720065	-1.061598
C73	C	-0.184847	-1.652821	-1.116430
C74	C	-0.218288	-1.585562	-1.061537
C75	C	-0.218305	-1.585546	-0.951813
C76	C	-0.285151	-1.451068	-1.061473
C77	C	-0.285174	-1.451046	-0.951751
C78	C	-0.318576	-1.383825	-1.116305
C79	C	-0.352021	-1.316569	-1.061412
C80	C	-0.352039	-1.316547	-0.951683
C81	C	-0.318615	-1.383787	-0.896859
C82	C	-0.251836	-1.518158	-0.233142
C83	C	-0.251710	-1.518328	-0.116366
H84	H	-0.450834	-1.639990	-0.384272
C85	C	-0.121708	-1.779808	-1.229828
C86	C	-0.114663	-1.793993	-1.121945
H87	H	-0.099011	-1.825443	-1.267081
H88	H	-0.156831	-1.795131	-1.247780
H89	H	-0.114048	-1.709229	-1.247790
H90	H	-0.122326	-1.864570	-1.103982
H91	H	-0.079532	-1.778677	-1.103985
C92	C	-0.914104	-1.309809	-0.587793
C93	C	-0.945444	-1.377265	-0.647114
H94	H	-0.895587	-1.264175	-0.633350
H95	H	-0.935443	-1.269669	-0.541991
H96	H	-0.890021	-1.349838	-0.547820
H97	H	-0.969529	-1.337236	-0.687082
H98	H	-0.924103	-1.417409	-0.692935
C99	C	-0.148400	-1.285647	-0.298945
C100	C	-0.184858	-1.249061	-0.371970
H101	H	-0.148401	-1.360106	-0.298938
H102	H	-0.114678	-1.260880	-0.317251
H103	H	-0.157402	-1.260780	-0.231117
H104	H	-0.175854	-1.273922	-0.439801
H105	H	-0.218588	-1.273839	-0.353670
C106	C	-0.368292	-1.410546	-1.273448
C107	C	-0.318557	-1.383849	-1.236912
H108	H	-0.368282	-1.410555	-1.347907
H109	H	-0.377338	-1.478317	-1.248633
H110	H	-0.392986	-1.360858	-1.248595
H111	H	-0.293864	-1.433542	-1.261759
H112	H	-0.309506	-1.316068	-1.261738
C113	C	-0.662880	-1.667343	-0.230536
C114	C	-0.694219	-1.726571	-0.298077
H115	H	-0.644357	-1.712963	-0.184970
H116	H	-0.638807	-1.627307	-0.270502
H117	H	-0.684224	-1.621603	-0.190319
H118	H	-0.672875	-1.772307	-0.338299
H119	H	-0.718295	-1.766625	-0.258107
C120	C	-0.418116	-1.183620	-1.050334
C121	C	-0.388757	-1.242659	-1.121681
H122	H	-0.440793	-1.137988	-1.087547
H123	H	-0.438127	-1.229354	-1.007542
H124	H	-0.395337	-1.143466	-1.007537
H125	H	-0.411535	-1.282820	-1.164473
H126	H	-0.368744	-1.196919	-1.164491
C127	C	-0.422387	-1.301809	-0.828243
C128	C	-0.388798	-1.242617	-0.891340
H129	H	-0.445078	-1.256166	-0.790987
H130	H	-0.442381	-1.347545	-0.871046
H131	H	-0.402478	-1.341848	-0.779892
H132	H	-0.408706	-1.202584	-0.939697
H133	H	-0.368802	-1.196863	-0.848533
C134	C	-0.085198	-1.062600	-0.172344
C135	C	-0.114580	-1.133921	-0.231197
H136	H	-0.062481	-1.099834	-0.126821
H137	H	-0.065229	-1.019859	-0.218202
H138	H	-0.107961	-1.019751	-0.132082
H139	H	-0.091817	-1.176765	-0.271465
H140	H	-0.134550	-1.176680	-0.185332
H141	H	-0.801099	-1.329110	-0.695107
C142	C	-0.171573	-1.552829	-0.739799
C143	C	-0.184904	-1.652756	-0.776376
H144	H	-0.171588	-1.552816	-0.665340
H145	H	-0.137831	-1.534738	-0.764637
H146	H	-0.196268	-1.503165	-0.764602
H147	H	-0.160207	-1.702418	-0.751580
H148	H	-0.218651	-1.670859	-0.751528
C149	C	-0.331970	-1.483693	-0.739700
C150	C	-0.318631	-1.383774	-0.776251
H151	H	-0.331974	-1.483688	-0.665242
H152	H	-0.365706	-1.501790	-0.764495
H153	H	-0.307269	-1.533362	-0.764564
H154	H	-0.343334	-1.334106	-0.751393
H155	H	-0.284890	-1.365665	-0.751445
C156	C	-0.121787	-1.779747	-0.783706
C157	C	-0.114707	-1.793961	-0.891604
H158	H	-0.099110	-1.825388	-0.746501
H159	H	-0.114127	-1.709177	-0.765719
H160	H	-0.156923	-1.795053	-0.765720
H161	H	-0.079571	-1.778647	-0.909592
H162	H	-0.122363	-1.864546	-0.909598
H163	H	-0.549885	-1.640086	-0.384303
H164	H	-0.184824	-1.652839	-1.205771
H165	H	-0.124127	-0.919212	-0.250348
C166	C	-0.773311	-1.785610	-0.239173
C167	C	-0.808824	-1.726645	-0.298096
H168	H	-0.791824	-1.831236	-0.193602
H169	H	-0.751981	-1.825759	-0.284983
H170	H	-0.752049	-1.739821	-0.198958
H171	H	-0.830084	-1.772434	-0.338317
H172	H	-0.830163	-1.686493	-0.252280
H173	H	-0.953181	-1.640369	-0.384385
C174	C	-0.440833	-1.107225	-0.758142
C175	C	-0.389068	-1.133826	-0.781014
H176	H	-0.463552	-1.144438	-0.803656
H177	H	-0.448436	-1.125173	-0.687531
H178	H	-0.445620	-1.034023	-0.767747
H179	H	-0.384281	-1.207027	-0.771403
H180	H	-0.381463	-1.115884	-0.851643
C181	C	-1.113715	-1.645564	-0.379617
C182	C	-1.060022	-1.659689	-0.365377
H183	H	-1.132238	-1.691282	-0.334155
H184	H	-1.122724	-1.575025	-0.364094
H185	H	-1.122597	-1.660823	-0.450259
H186	H	-1.051138	-1.644423	-0.294737
H187	H	-1.051009	-1.730244	-0.380893
H188	H	-1.052272	-1.396488	-0.627997
H189	H	-0.702049	-1.329058	-0.695093
H190	H	-0.549935	-1.396138	-0.627905
H191	H	-0.450869	-1.396060	-0.627867
H192	H	-0.379534	-0.919138	-0.761933
H193	H	-0.318795	-0.819622	-0.640283
C194	C	-0.332043	-1.285509	-0.540207
C195	C	-0.318781	-1.249017	-0.640211
H196	H	-0.332045	-1.359968	-0.540194
H197	H	-0.307311	-1.260696	-0.490690
H198	H	-0.365772	-1.260625	-0.521924
H199	H	-0.285050	-1.273895	-0.658490
H200	H	-0.343514	-1.273841	-0.689744
H201	H	-0.184874	-0.819667	-0.372030
