data_functionalizedCrystal
_audit_creation_method	'MofGen! by Chris Wilmer'
_symmetry_space_group_name_H-M	'P1'
_symmetry_Int_Tables_number	1
_symmetry_cell_setting	triclinic
loop_
_symmetry_equiv_pos_as_xyz
  x,y,z
_cell_length_a	13.339070
_cell_length_b	23.532357
_cell_length_c	11.804365
_cell_angle_alpha	101.747256
_cell_angle_beta	74.875130
_cell_angle_gamma	99.228793
loop_
_atom_site_label
_atom_site_type_symbol
_atom_site_fract_x
_atom_site_fract_y
_atom_site_fract_z
O1	O	1.359871	0.276782	-0.099126
O2	O	1.065729	0.239369	-0.099112
O3	O	1.221691	0.176578	-0.099095
O4	O	1.203909	0.339573	-0.099143
O5	O	1.180632	0.193086	0.098957
O6	O	1.024670	0.255877	0.098940
O7	O	1.318812	0.293290	0.098925
Cu8	Cu	1.167992	0.276090	0.117016
Cu9	Cu	1.216549	0.256569	-0.117203
O10	O	1.162850	0.356081	0.098909
C11	C	1.007575	0.241303	-0.000084
C12	C	0.895467	0.222465	-0.000077
C13	C	1.200716	0.163544	-0.000065
C14	C	1.199376	0.100111	-0.000054
C15	C	0.529169	0.368937	-0.000139
C16	C	0.634500	0.386638	-0.000149
C17	C	0.699747	0.345596	-0.000131
C18	C	0.659652	0.286851	-0.000103
C19	C	0.554313	0.269148	-0.000102
C20	C	0.724891	0.245807	-0.000094
C21	C	0.684796	0.187062	-0.000066
C22	C	0.579467	0.169362	-0.000065
C23	C	0.514220	0.210403	-0.000083
C24	C	0.830231	0.263510	-0.000095
C25	C	0.855375	0.163721	-0.000058
C26	C	0.750043	0.146020	-0.000048
C27	C	1.213370	-0.302258	-0.108076
C28	C	1.212099	-0.361863	-0.108083
O29	O	1.230441	-0.400344	-0.199897
N30	N	1.189088	-0.382678	-0.000126
C31	C	1.167335	-0.343885	0.107844
O32	O	1.147644	-0.367063	0.199669
C33	C	1.168599	-0.284282	0.107849
C34	C	1.191622	-0.263470	-0.000114
C35	C	1.236390	-0.281446	-0.216031
C36	C	1.237662	-0.221844	-0.216023
C37	C	1.215914	-0.183056	-0.108062
C38	C	1.192894	-0.203869	-0.000107
C39	C	1.146839	-0.245491	0.215818
C40	C	1.148104	-0.185884	0.215815
C41	C	1.171127	-0.165072	0.107851
C42	C	1.172418	-0.105479	0.107862
N43	N	1.195430	-0.084664	-0.000094
C44	C	1.217178	-0.123453	-0.108056
C45	C	1.164682	-0.469057	0.107824
C46	C	1.163425	-0.528658	0.107820
C47	C	1.208188	-0.546633	-0.108107
C48	C	1.209451	-0.487029	-0.108102
C49	C	1.187693	-0.448242	-0.000132
C50	C	1.219849	0.001715	-0.108033
C51	C	1.221123	0.061322	-0.108016
C52	C	1.176356	0.079291	0.107910
C53	C	1.175086	0.019689	0.107894
C54	C	1.196832	-0.019099	-0.000087
O55	O	1.154083	-0.066965	0.199629
O56	O	1.236852	-0.100268	-0.199865
C57	C	1.376966	0.291356	-0.000105
C58	C	1.489076	0.310193	-0.000120
C59	C	1.183826	0.369115	-0.000124
C60	C	1.185168	0.432548	-0.000143
N61	N	1.133848	0.289822	0.281753
N62	N	1.250702	0.242834	-0.281940
C63	C	1.332696	0.209849	0.655723
C64	C	1.358525	0.199458	0.531064
C65	C	1.302358	0.222048	0.468730
C66	C	1.220357	0.255031	0.531068
C67	C	1.194530	0.265426	0.655739
C68	C	1.164192	0.277625	0.468746
C69	C	1.082192	0.310608	0.531083
C70	C	1.056369	0.321001	0.655742
C71	C	1.112536	0.298411	0.718076
C72	C	1.190019	0.267230	0.344075
C73	C	1.051853	0.322807	0.344090
C74	C	1.026024	0.333197	0.468749
H75	H	0.862864	0.311341	-0.000112
C76	C	0.398356	0.190931	-0.000078
H77	H	0.383819	0.150067	-0.000058
H78	H	0.384200	0.199598	-0.069145
H79	H	0.355564	0.211110	0.068994
C80	C	0.535366	0.104744	-0.000040
H81	H	0.589304	0.082837	-0.000018
H82	H	0.509116	0.090006	-0.069101
H83	H	0.480477	0.101526	0.069037
C84	C	0.678603	0.451250	-0.000182
H85	H	0.750683	0.455914	-0.000194
H86	H	0.641858	0.474611	0.068872
H87	H	0.670495	0.463087	-0.069266
C88	C	1.260326	-0.324104	-0.334799
H89	H	1.274223	-0.303162	-0.399081
H90	H	1.201869	-0.352696	-0.339311
H91	H	1.319680	-0.342761	-0.339291
C92	C	0.815606	0.365067	-0.000128
H93	H	0.830138	0.405932	-0.000135
H94	H	0.858406	0.344887	-0.069180
H95	H	0.829747	0.356405	0.068959
C96	C	0.457400	0.414075	-0.000160
H97	H	0.388925	0.395118	-0.000149
H98	H	0.483814	0.431721	-0.069231
H99	H	0.455168	0.443233	0.068908
H100	H	0.717385	0.098188	-0.000035
H101	H	0.908500	0.130301	-0.000048
C102	C	0.966187	0.357291	0.724310
H103	H	0.936431	0.369255	0.669336
H104	H	0.992207	0.390765	0.772918
H105	H	0.914276	0.334237	0.772966
H106	H	0.959258	0.360053	0.519520
H107	H	1.128093	-0.262425	0.303734
C108	C	0.990069	0.347661	0.275536
H109	H	1.017189	0.336742	0.192364
H110	H	0.996414	0.389046	0.295951
H111	H	0.918492	0.332516	0.295984
C112	C	1.394471	0.185002	0.724285
H113	H	1.447007	0.163871	0.669309
H114	H	1.348310	0.159639	0.772938
H115	H	1.426228	0.216171	0.772894
H116	H	1.239875	0.078263	-0.195937
H117	H	1.237551	-0.029861	-0.195961
H118	H	1.156348	0.002744	0.195807
H119	H	1.256406	-0.204906	-0.303939
H120	H	1.425290	0.172605	0.480314
C121	C	1.234766	-0.464142	-0.226860
H122	H	1.247531	-0.495785	-0.291153
H123	H	1.295092	-0.436301	-0.231356
H124	H	1.177276	-0.446231	-0.231348
H125	H	1.225893	-0.578226	-0.196016
C126	C	1.138109	-0.551544	0.226579
H127	H	1.125333	-0.519903	0.290873
H128	H	1.195582	-0.569463	0.231072
H129	H	1.077768	-0.579381	0.231070
H130	H	1.323392	0.213587	0.367227
H131	H	1.146966	-0.437478	0.195751
H132	H	1.091504	0.306869	0.819584
C133	C	1.124173	-0.143221	0.334584
H134	H	1.110289	-0.164156	0.398874
H135	H	1.064835	-0.124555	0.339079
H136	H	1.182650	-0.114636	0.339078
H137	H	1.158654	0.110883	0.195810
C138	C	1.280216	0.230956	0.275512
H139	H	1.287564	0.228005	0.192339
H140	H	1.265423	0.192977	0.295957
H141	H	1.343320	0.249518	0.295930
