data_functionalizedCrystal
_audit_creation_method	'MofGen! by Chris Wilmer'
_symmetry_space_group_name_H-M	'P1'
_symmetry_Int_Tables_number	1
_symmetry_cell_setting	triclinic
loop_
_symmetry_equiv_pos_as_xyz
  x,y,z
_cell_length_a	23.532407
_cell_length_b	23.532355
_cell_length_c	12.503572
_cell_angle_alpha	93.489509
_cell_angle_beta	93.508640
_cell_angle_gamma	97.161913
loop_
_atom_site_label
_atom_site_type_symbol
_atom_site_fract_x
_atom_site_fract_y
_atom_site_fract_z
O1	O	-0.065686	0.758576	0.089158
O2	O	-0.075719	0.592709	0.089189
O3	O	0.012230	0.680645	0.089186
O4	O	-0.153636	0.670640	0.089161
O5	O	0.005605	0.674031	-0.089455
O6	O	-0.082344	0.586096	-0.089452
O7	O	-0.072311	0.751962	-0.089484
Cu8	Cu	-0.077933	0.668425	-0.105780
Cu9	Cu	-0.070098	0.676246	0.105485
O10	O	-0.160261	0.664027	-0.089481
C11	C	-0.078781	0.568186	-0.000127
C12	C	-0.078026	0.504968	-0.000114
C13	C	-0.076901	0.109348	-0.097536
C14	C	-0.076184	0.049948	-0.097540
O15	O	-0.078865	0.016164	-0.180355
N16	N	-0.072217	0.023844	-0.000163
C17	C	-0.068961	0.057145	0.097225
O18	O	-0.065520	0.029487	0.180052
C19	C	-0.069674	0.116544	0.097228
C20	C	-0.073647	0.142643	-0.000156
C21	C	-0.080873	0.135447	-0.194912
C22	C	-0.081592	0.194843	-0.194907
C23	C	-0.078338	0.228138	-0.097527
C24	C	-0.074366	0.202038	-0.000151
C25	C	-0.066414	0.149843	0.194615
C26	C	-0.067127	0.209246	0.194609
C27	C	-0.071100	0.235345	0.097226
C28	C	-0.071830	0.294729	0.097234
N29	N	-0.075797	0.320833	-0.000144
C30	C	-0.079051	0.287537	-0.097524
C31	C	-0.067462	-0.067598	0.097212
C32	C	-0.066753	-0.126996	0.097210
C33	C	-0.073975	-0.134188	-0.097556
C34	C	-0.074688	-0.074789	-0.097553
C35	C	-0.071429	-0.041494	-0.000166
C36	C	-0.080560	0.412272	-0.097507
C37	C	-0.081280	0.471672	-0.097494
C38	C	-0.074055	0.478860	0.097271
C39	C	-0.073338	0.419464	0.097258
C40	C	-0.076588	0.386172	-0.000139
O41	O	-0.069149	0.328550	0.180006
O42	O	-0.082484	0.315203	-0.180337
C43	C	-0.178164	0.667588	-0.000163
C44	C	-0.241382	0.668354	-0.000174
C45	C	-0.640491	0.621121	-0.000110
C46	C	-0.699891	0.621833	-0.000102
O47	O	-0.736642	0.578048	-0.000054
N48	N	-0.722508	0.674110	-0.000114
C49	C	-0.685721	0.725680	-0.000121
O50	O	-0.710413	0.770211	-0.000129
C51	C	-0.626322	0.724967	-0.000121
C52	C	-0.603709	0.672686	-0.000121
C53	C	-0.617878	0.568845	-0.000108
C54	C	-0.558482	0.568133	-0.000117
C55	C	-0.521700	0.619698	-0.000128
C56	C	-0.544314	0.671975	-0.000130
C57	C	-0.589536	0.776536	-0.000121
C58	C	-0.530134	0.775820	-0.000120
C59	C	-0.507521	0.723539	-0.000120
C60	C	-0.448136	0.722828	-0.000150
N61	N	-0.425519	0.670551	-0.000139
C62	C	-0.462301	0.618986	-0.000128
C63	C	-0.810463	0.727171	-0.000120
C64	C	-0.869861	0.727883	-0.000128
C65	C	-0.884027	0.624037	-0.000107
C66	C	-0.824628	0.623325	-0.000107
C67	C	-0.787846	0.674894	-0.000109
C68	C	-0.337565	0.617496	-0.000149
C69	C	-0.278164	0.616788	-0.000163
C70	C	-0.264003	0.720635	-0.000178
C71	C	-0.323399	0.721342	-0.000170
C72	C	-0.360180	0.669768	-0.000152
O73	O	-0.411350	0.766591	-0.000194
O74	O	-0.437601	0.574463	-0.000106
C75	C	0.030134	0.677083	-0.000129
C76	C	0.093352	0.676318	-0.000111
C77	C	-0.069250	0.776485	-0.000165
C78	C	-0.070004	0.839704	-0.000171
N79	N	-0.083443	0.662928	-0.254372
C80	C	-0.091554	0.654842	-0.473487
C81	C	-0.056474	0.689832	-0.526815
C82	C	-0.060987	0.685332	-0.648738
C83	C	-0.087042	0.659341	-0.351552
N84	N	-0.064583	0.681747	0.254077
H85	H	-0.064814	-0.040492	0.176521
H86	H	-0.083212	0.385171	-0.176818
N87	N	-0.655444	0.516168	-0.000079
N88	N	-0.650752	0.484109	0.075227
H89	H	-0.677281	0.446903	0.075243
H90	H	-0.023052	0.723166	-0.480903
H91	H	-0.124975	0.621511	-0.519393
H92	H	-0.084518	0.492919	-0.176799
H93	H	-0.077924	-0.053543	-0.176851
N94	N	-0.892956	0.781288	-0.000120
N95	N	-0.921717	0.796062	0.075187
H96	H	-0.938026	0.833781	0.075200
H97	H	-0.607936	0.819109	-0.000121
N98	N	-0.085641	0.221490	-0.294393
N99	N	-0.088539	0.191747	-0.381324
H100	H	-0.091395	0.210563	-0.451592
H101	H	-0.063178	0.128604	0.273915
H102	H	-0.806222	0.580753	-0.000111
N103	N	-0.084194	0.101452	-0.294402
N104	N	-0.087738	0.124774	-0.381328
H105	H	-0.090087	0.100768	-0.451600
H106	H	-0.076624	-0.161308	-0.176848
N107	N	-0.535380	0.514733	-0.000114
N108	N	-0.506614	0.499954	-0.075411
H109	H	-0.490301	0.462238	-0.075406
N110	N	-0.062707	-0.153645	0.196695
N111	N	-0.059806	-0.123903	0.283629
H112	H	-0.056946	-0.142721	0.353895
N113	N	-0.063793	0.243247	0.294101
N114	N	-0.060244	0.219932	0.381034
H115	H	-0.057890	0.243944	0.451301
H116	H	-0.070112	0.398212	0.176556
N117	N	-0.375129	0.564813	-0.000159
N118	N	-0.412650	0.550834	-0.075461
H119	H	-0.439179	0.513626	-0.075476
N120	N	-0.070728	0.512888	0.196726
N121	N	-0.030171	0.552320	0.218441
H122	H	-0.027817	0.576355	0.288681
N123	N	-0.255076	0.563377	-0.000171
N124	N	-0.287929	0.517342	-0.000161
H125	H	-0.271625	0.479620	-0.000167
H126	H	-0.913986	0.582050	-0.000099
N127	N	-0.772902	0.779857	-0.000128
N128	N	-0.793109	0.826525	-0.000138
H129	H	-0.766584	0.863735	-0.000142
H130	H	-0.500188	0.817815	-0.000116
N131	N	-0.346505	0.774742	-0.000206
N132	N	-0.337931	0.806638	-0.075521
H133	H	-0.354247	0.844352	-0.075541
N134	N	-0.226417	0.773300	-0.000196
N135	N	-0.173385	0.772650	-0.000199
H136	H	-0.146837	0.809845	-0.000206
