data_functionalizedCrystal
_audit_creation_method	'MofGen! by Chris Wilmer'
_symmetry_space_group_name_H-M	'P1'
_symmetry_Int_Tables_number	1
_symmetry_cell_setting	triclinic
loop_
_symmetry_equiv_pos_as_xyz
  x,y,z
_cell_length_a	19.188930
_cell_length_b	10.540539
_cell_length_c	9.616153
_cell_angle_alpha	90.002114
_cell_angle_beta	89.982857
_cell_angle_gamma	83.835136
loop_
_atom_site_label
_atom_site_type_symbol
_atom_site_fract_x
_atom_site_fract_y
_atom_site_fract_z
O1	O	-0.927200	-0.158461	0.116087
O2	O	-0.427200	0.341539	0.616087
O3	O	-0.724031	-0.179794	0.115991
O4	O	-0.224031	0.320206	0.615991
O5	O	-0.830251	0.015681	0.116039
O6	O	-0.330251	0.515681	0.616039
O7	O	-0.820981	-0.353936	0.116038
O8	O	-0.320981	0.146064	0.616038
O9	O	-0.830243	0.015670	-0.115252
O10	O	-0.330243	0.515670	0.384748
O11	O	-0.724024	-0.179805	-0.115301
O12	O	-0.224024	0.320195	0.384699
O13	O	-0.927193	-0.158472	-0.115205
O14	O	-0.427193	0.341528	0.384795
Zn15	Zn	-0.825607	-0.169140	-0.151975
Zn16	Zn	-0.325607	0.330860	0.348025
Zn17	Zn	-0.825617	-0.169126	0.152761
Zn18	Zn	-0.325617	0.330874	0.652761
O19	O	-0.820973	-0.353947	-0.115253
O20	O	-0.320973	0.146053	0.384747
C21	C	-0.698012	-0.179108	0.000333
C22	C	-0.198012	0.320892	0.500333
C23	C	-0.620493	-0.177035	0.000296
C24	C	-0.120493	0.322965	0.500296
C25	C	-0.829552	0.062963	0.000396
C26	C	-0.329552	0.562963	0.500396
C27	C	-0.827472	0.203866	0.000402
C28	C	-0.327472	0.703866	0.500402
C29	C	-0.953212	-0.159157	0.000456
C30	C	-0.453212	0.340843	0.500456
C31	C	-1.030731	-0.161231	0.000502
C32	C	-0.530731	0.338769	0.500502
C33	C	-0.576334	-0.291733	0.000318
C34	C	-0.076334	0.208267	0.500318
C35	C	-0.503497	-0.289785	0.000333
C36	C	-0.003497	0.210215	0.500333
C37	C	-0.474823	-0.173132	0.000355
C38	C	0.025177	0.326868	0.500355
C39	C	-0.518992	-0.058418	0.000325
C40	C	-0.018992	0.441582	0.500325
C41	C	-0.591827	-0.060370	0.000296
C42	C	-0.091827	0.439630	0.500296
N43	N	-0.366251	-0.083961	0.079130
N44	N	0.133749	0.416039	0.579130
N45	N	-0.297060	-0.082115	0.079160
N46	N	0.202940	0.417885	0.579160
C47	C	-0.255375	-0.167245	0.000440
C48	C	0.244625	0.332755	0.500440
N49	N	-0.285494	-0.254310	-0.078295
N50	N	0.214506	0.245690	0.421705
N51	N	-0.354691	-0.256159	-0.078320
N52	N	0.145309	0.243841	0.421680
C53	C	-0.395846	-0.171003	0.000386
C54	C	0.104154	0.328997	0.500386
C55	C	-0.132237	-0.279838	0.000476
C56	C	0.367763	0.220162	0.500476
C57	C	-0.059400	-0.277885	0.000483
C58	C	0.440600	0.222115	0.500483
C59	C	-0.074896	-0.046516	0.000489
C60	C	0.425104	0.453484	0.500489
C61	C	-0.147732	-0.048472	0.000468
C62	C	0.352268	0.451528	0.500468
C63	C	-0.176398	-0.165137	0.000468
C64	C	0.323602	0.334863	0.500468
C65	C	-0.821672	-0.401229	0.000393
C66	C	-0.321672	0.098771	0.500393
C67	C	-0.823752	-0.542131	0.000396
C68	C	-0.323752	-0.042131	0.500396
N69	N	-0.825605	-0.169149	-0.359950
N70	N	-0.325605	0.330851	0.140050
C71	C	-0.747771	0.385536	0.000884
C72	C	-0.247771	0.885536	0.500884
C73	C	-0.749879	0.238965	0.000364
C74	C	-0.249879	0.738965	0.500364
C75	C	-0.864809	0.266340	-0.131659
C76	C	-0.364809	0.766340	0.368341
C77	C	-0.862161	0.412826	-0.131771
C78	C	-0.362161	0.912826	0.368229
C79	C	-0.863748	0.413392	0.131251
C80	C	-0.363748	0.913392	0.631251
C81	C	-0.864462	0.266425	0.132998
C82	C	-0.364462	0.766425	0.632998
C83	C	-0.768760	-0.273700	-0.419017
C84	C	-0.268760	0.226300	0.080983
C85	C	-0.768566	-0.273407	-0.580185
C86	C	-0.268566	0.226593	-0.080185
C87	C	-0.809350	-0.036592	-0.580743
C88	C	-0.309350	0.463408	-0.080743
C89	C	-0.808930	-0.037231	-0.419526
C90	C	-0.308930	0.462769	0.080474
C91	C	-0.898897	-0.195912	-0.419300
C92	C	-0.398897	0.304088	0.080700
C93	C	-0.898432	-0.198899	-0.580529
C94	C	-0.398432	0.301101	-0.080529
N95	N	-0.825625	-0.169106	0.360736
N96	N	-0.325625	0.330894	0.860736
H97	H	-0.599669	-0.386731	0.000321
H98	H	-0.099669	0.113269	0.500321
F99	F	-0.781286	-0.402895	-0.368354
F100	F	-0.281286	0.097105	0.131646
F101	F	-0.956365	-0.105817	-0.633087
F102	F	-0.456365	0.394183	-0.133087
F103	F	-0.826083	0.448887	-0.260834
F104	F	-0.326083	0.948887	0.239166
F105	F	-0.739051	-0.006434	-0.370438
F106	F	-0.239051	0.493566	0.129562
H107	H	-0.941205	-0.119673	-0.381087
H108	H	-0.441205	0.380327	0.118913
H109	H	-0.627783	0.033035	0.000279
H110	H	-0.127783	0.533035	0.500279
H111	H	-0.714686	-0.256833	-0.378558
H112	H	-0.214686	0.243167	0.121442
F113	F	-0.711479	0.182435	0.124098
F114	F	-0.211479	0.682435	0.624098
F115	F	-0.697496	-0.251024	-0.630671
F116	F	-0.197496	0.248976	-0.130671
F117	F	-0.012401	-0.399970	0.000498
F118	F	0.487599	0.100030	0.500498
F119	F	-0.830923	0.453902	0.262084
F120	F	-0.330923	0.953902	0.762084
H121	H	-0.848740	0.042913	-0.380447
H122	H	-0.348740	0.542913	0.119553
H123	H	-0.910766	-0.296393	-0.618756
H124	H	-0.410766	0.203607	-0.118756
F125	F	-0.044384	0.077637	0.000498
F126	F	0.455616	0.577637	0.500498
H127	H	-0.717123	0.413465	0.095585
H128	H	-0.217123	0.913465	0.595585
F129	F	-0.456491	-0.411867	0.000352
F130	F	0.043509	0.088133	0.500352
F131	F	-0.862016	0.067573	-0.630752
F132	F	-0.362016	0.567573	-0.130752
F133	F	-0.740276	-0.005018	-0.633579
F134	F	-0.240276	0.494982	-0.133579
H135	H	-0.914436	-0.290496	-0.378644
H136	H	-0.414436	0.209504	0.121356
H137	H	-0.495641	0.036562	0.000362
H138	H	0.004359	0.536562	0.500362
F139	F	-0.707762	0.424560	-0.121904
F140	F	-0.207762	0.924560	0.378096
F141	F	-0.162748	-0.404002	0.000466
F142	F	0.337252	0.095998	0.500466
H143	H	-0.921790	0.245241	-0.136543
H144	H	-0.421790	0.745241	0.363457
H145	H	-0.720288	0.196552	-0.094487
H146	H	-0.220288	0.696552	0.405513
F147	F	-0.194732	0.073608	0.000452
F148	F	0.305268	0.573608	0.500452
F149	F	-0.829034	0.211652	0.260712
F150	F	-0.329034	0.711652	0.760712
H151	H	-0.917964	0.462024	-0.137737
H152	H	-0.417964	0.962024	0.362263
F153	F	-0.830901	0.209910	-0.260148
F154	F	-0.330901	0.709910	0.239852
F155	F	-0.938405	0.236391	0.143466
F156	F	-0.438405	0.736391	0.643466
H157	H	-0.778313	-0.371906	-0.619755
H158	H	-0.278313	0.128094	-0.119755
H159	H	-0.919792	0.461852	0.132166
H160	H	-0.419792	0.961852	0.632166
