data_functionalizedCrystal
_audit_creation_method	'MofGen! by Chris Wilmer'
_symmetry_space_group_name_H-M	'P1'
_symmetry_Int_Tables_number	1
_symmetry_cell_setting	triclinic
loop_
_symmetry_equiv_pos_as_xyz
  x,y,z
_cell_length_a	12.759401
_cell_length_b	16.625546
_cell_length_c	12.759393
_cell_angle_alpha	90.035119
_cell_angle_beta	90.020938
_cell_angle_gamma	90.023993
loop_
_atom_site_label
_atom_site_type_symbol
_atom_site_fract_x
_atom_site_fract_y
_atom_site_fract_z
Zn1	Zn	1.606210	-0.320930	0.593986
Zn2	Zn	1.606077	-0.455784	0.418292
Zn3	Zn	1.430508	-0.320973	0.418322
Zn4	Zn	1.430476	-0.455728	0.593930
O5	O	1.518318	-0.388354	0.506132
O6	O	1.753213	-0.338824	0.570692
O7	O	1.582745	-0.437943	0.271275
O8	O	1.453884	-0.208135	0.441660
O9	O	1.753116	-0.437901	0.441610
O10	O	1.582971	-0.208103	0.570720
O11	O	1.453756	-0.338897	0.271297
O12	O	1.283483	-0.338843	0.441605
O13	O	1.453830	-0.437805	0.740958
O14	O	1.283460	-0.437847	0.570623
O15	O	1.582940	-0.338770	0.741000
O16	O	1.582714	-0.568609	0.441555
O17	O	1.453701	-0.568568	0.570595
C18	C	1.245350	-0.388344	0.506112
C19	C	1.128574	-0.388359	0.506128
C20	C	1.073727	-0.439989	0.573202
C21	C	0.964003	-0.439992	0.573223
C22	C	0.963982	-0.336733	0.439086
C23	C	1.073704	-0.336726	0.439071
C24	C	1.518218	-0.597844	0.506088
C25	C	1.518272	-0.687466	0.506105
C26	C	1.518455	-1.015641	0.506214
C27	C	1.518401	-0.924333	0.506187
C28	C	1.518363	-0.851556	0.506159
C29	C	1.518310	-0.760242	0.506132
C30	C	1.792351	-0.388364	0.506154
C31	C	1.909128	-0.388369	0.506163
C32	C	1.518396	-0.388276	0.780166
C33	C	1.518430	-0.388243	0.896943
C34	C	1.518446	-0.178045	0.506200
C35	C	1.518501	-0.088424	0.506228
C36	C	1.518300	-0.388372	0.233165
C37	C	1.518470	-0.388178	0.116389
C38	C	1.585663	-0.336667	0.951828
C39	C	1.585681	-0.336632	1.061552
C40	C	1.451230	-0.439757	1.061496
C41	C	1.451208	-0.439787	0.951774
H42	H	1.118399	-0.482029	0.627806
H43	H	0.919352	-0.482033	0.627843
Br44	Br	1.676890	-0.266714	0.877417
H45	H	1.640427	-0.294633	1.106235
Br46	Br	1.359947	-0.509781	0.877279
Br47	Br	1.360008	-0.509708	1.135916
Br48	Br	0.889510	-0.266664	0.348085
H49	H	1.118362	-0.294678	0.384451
