data_functionalizedCrystal
_audit_creation_method	'MofGen! by Chris Wilmer'
_symmetry_space_group_name_H-M	'P1'
_symmetry_Int_Tables_number	1
_symmetry_cell_setting	triclinic
loop_
_symmetry_equiv_pos_as_xyz
  x,y,z
_cell_length_a	10.654550
_cell_length_b	15.021413
_cell_length_c	10.654550
_cell_angle_alpha	90.004207
_cell_angle_beta	95.515069
_cell_angle_gamma	90.004146
loop_
_atom_site_label
_atom_site_type_symbol
_atom_site_fract_x
_atom_site_fract_y
_atom_site_fract_z
O1	O	1.667848	0.073965	-0.176382
O2	O	1.302370	0.073982	-0.193188
O3	O	1.493512	0.073968	-0.002046
O4	O	1.476706	0.073979	-0.367525
O5	O	1.493481	-0.074097	-0.002073
O6	O	1.302339	-0.074083	-0.193216
O7	O	1.667818	-0.074099	-0.176410
Zn8	Zn	1.485074	-0.097599	-0.184817
Zn9	Zn	1.485114	0.097482	-0.184781
O10	O	1.476675	-0.074085	-0.367552
C11	C	1.255556	-0.000048	-0.191968
C12	C	1.116113	-0.000042	-0.188276
N13	N	1.485055	-0.230737	-0.184841
C14	C	1.036628	-0.000041	-0.300818
C15	C	0.905607	-0.000057	-0.297341
C16	C	0.933570	-0.000071	-0.068772
C17	C	1.064588	-0.000062	-0.072250
C18	C	1.396657	-0.470413	-0.273183
C19	C	1.510355	-0.529752	-0.298547
C20	C	1.485087	-0.412344	-0.184810
C21	C	1.371421	-0.529747	-0.159474
C22	C	1.485108	-0.587768	-0.184782
C23	C	1.598842	-0.470376	-0.210231
C24	C	1.459834	-0.470365	-0.071107
C25	C	1.573613	-0.529677	-0.096424
C26	C	1.485074	-0.311286	-0.184829
C27	C	1.485134	-0.688823	-0.184763
C28	C	1.714631	-0.000067	-0.177630
C29	C	1.854074	-0.000067	-0.181322
C30	C	1.492263	-0.000064	0.044738
C31	C	1.488571	-0.000063	0.184181
N32	N	1.485142	0.230620	-0.184747
C33	C	1.477925	-0.000051	-0.414336
C34	C	1.481616	-0.000047	-0.553779
C35	C	1.601112	-0.000067	0.263667
C36	C	1.597636	-0.000056	0.394688
C37	C	1.369066	-0.000040	0.366725
C38	C	1.372544	-0.000044	0.235706
H39	H	1.078574	-0.000032	-0.395294
H40	H	1.695588	-0.000080	0.221720
H41	H	1.689279	-0.000058	0.459401
H42	H	1.274601	-0.000026	0.408693
H43	H	1.321951	-0.444392	-0.347979
H44	H	1.280893	-0.000038	0.170985
N45	N	1.150337	-0.000058	0.049136
H46	H	1.205318	-0.054943	0.052769
H47	H	1.097736	-0.000030	0.123100
N48	N	1.672779	-0.563938	0.002592
H49	H	1.758563	-0.542224	-0.016701
H50	H	1.671642	-0.631168	0.002511
N51	N	0.877982	-0.000092	0.056359
H52	H	0.824245	0.054791	0.062910
H53	H	0.948284	-0.000130	0.127058
N54	N	1.726209	-0.435978	-0.238759
H55	H	1.745492	-0.458108	-0.324339
H56	H	1.792985	-0.458047	-0.172350
N57	N	1.431467	-0.435771	0.056198
H58	H	1.504727	-0.398763	0.094011
H59	H	1.417735	-0.487595	0.113697
N60	N	1.244082	-0.564283	-0.131087
H61	H	1.253938	-0.601269	-0.051590
H62	H	1.207038	-0.602201	-0.203704
H63	H	1.531733	-0.555837	-0.394691
H64	H	0.840894	-0.000058	-0.388984
