data_functionalizedCrystal
_audit_creation_method	'MofGen! by Chris Wilmer'
_symmetry_space_group_name_H-M	'P1'
_symmetry_Int_Tables_number	1
_symmetry_cell_setting	triclinic
loop_
_symmetry_equiv_pos_as_xyz
  x,y,z
_cell_length_a	15.944564
_cell_length_b	15.021413
_cell_length_c	15.944545
_cell_angle_alpha	89.998085
_cell_angle_beta	96.499946
_cell_angle_gamma	89.997172
loop_
_atom_site_label
_atom_site_type_symbol
_atom_site_fract_x
_atom_site_fract_y
_atom_site_fract_z
O1	O	-1.114520	0.073943	0.108372
O2	O	-0.869971	0.073966	0.121717
O3	O	-0.998926	0.073944	-0.007230
O4	O	-0.985565	0.073966	0.237319
O5	O	-0.998906	-0.074121	-0.007212
O6	O	-0.869951	-0.074098	0.121736
O7	O	-1.114499	-0.074121	0.108390
Zn8	Zn	-0.992222	-0.097618	0.115066
Zn9	Zn	-0.992249	0.097463	0.115042
O10	O	-0.985544	-0.074098	0.237338
C11	C	-0.838667	-0.000063	0.121170
C12	C	-0.745422	-0.000055	0.119504
N13	N	-0.992209	-0.230755	0.115082
C14	C	-0.530568	-0.000080	0.035589
C15	C	-0.469558	0.072927	0.074540
C16	C	-0.574697	-0.000066	0.116489
C17	C	-0.469560	-0.073053	0.074577
C18	C	-0.409785	-0.000080	0.113571
C19	C	-0.514915	0.073002	0.155462
C20	C	-0.514923	-0.073044	0.155488
C21	C	-0.453930	-0.000019	0.194497
C22	C	-0.669699	-0.000057	0.118168
C23	C	-0.314785	-0.000083	0.111898
C24	C	-0.932571	-0.470428	0.174679
C25	C	-1.008471	-0.529768	0.190990
C26	C	-0.992231	-0.412362	0.115061
C27	C	-0.916352	-0.529764	0.098769
C28	C	-0.992245	-0.587786	0.115043
C29	C	-1.068169	-0.470396	0.131409
C30	C	-0.976000	-0.470387	0.039156
C31	C	-1.051954	-0.529700	0.055434
C32	C	-0.992222	-0.311305	0.115074
C33	C	-0.992263	-0.688842	0.115029
C34	C	-0.145805	-0.000089	0.108926
C35	C	-0.239055	-0.000092	0.110558
C36	C	-0.998362	-0.000089	-0.038515
C37	C	-0.996702	-0.000092	-0.131762
N38	N	-0.992268	0.230601	0.115019
C39	C	-0.911809	-0.000066	-0.402398
C40	C	-0.952748	0.072934	-0.351820
C41	C	-0.990782	-0.000066	-0.467406
C42	C	-0.952749	-0.073045	-0.351829
C43	C	-0.993686	-0.000080	-0.302492
C44	C	-1.031699	0.072995	-0.418056
C45	C	-1.031689	-0.073051	-0.418068
C46	C	-1.072685	-0.000033	-0.367523
C47	C	-0.989106	-0.000057	-0.562408
C48	C	-0.995368	-0.000083	-0.207493
C49	C	-0.986108	-0.000063	0.268623
C50	C	-0.987768	-0.000055	0.361869
H51	H	-0.449457	0.134643	0.040315
C52	C	-0.354661	-0.155902	0.027979
C53	C	-0.442432	-0.156375	0.028382
H54	H	-0.337918	-0.207336	-0.000549
H55	H	-0.328163	-0.155994	0.084415
H56	H	-0.338378	-0.104059	-0.000218
H57	H	-0.458714	-0.208214	0.056585
H58	H	-0.468939	-0.156291	-0.028064
C59	C	-0.805487	-0.076452	-0.469982
C60	C	-0.819999	0.000034	-0.423543
H61	H	-0.748807	-0.076388	-0.483031
H62	H	-0.842848	-0.077017	-0.520798
H63	H	-0.814949	-0.127823	-0.437602
H64	H	-0.810542	0.051405	-0.455925
H65	H	-0.782626	0.000607	-0.372718
C66	C	-1.100820	-0.616264	0.267818
C67	C	-1.027020	-0.564994	0.277629
H68	H	-1.112267	-0.638005	0.321308
H69	H	-1.093566	-0.664991	0.231367
H70	H	-1.146682	-0.580558	0.244136
H71	H	-0.981157	-0.600702	0.301305
H72	H	-1.034270	-0.516260	0.314093
H73	H	-0.534910	0.134791	0.189646
H74	H	-0.420770	0.000028	0.261703
H75	H	-1.102467	-0.555561	0.005006
H76	H	-1.140750	0.000002	-0.352029
H77	H	-0.882170	-0.444404	0.225137
C78	C	-1.153986	-0.342136	0.150085
C79	C	-1.154801	-0.435347	0.150177
H80	H	-1.207459	-0.320499	0.161698
H81	H	-1.142409	-0.321298	0.096341
H82	H	-1.111544	-0.321396	0.192164
H83	H	-1.197239	-0.456088	0.108094
H84	H	-1.166388	-0.456194	0.203928
C85	C	-0.519474	-0.232742	0.159171
C86	C	-0.542102	-0.156359	0.201648
H87	H	-0.536261	-0.284181	0.187662
H88	H	-0.460053	-0.233639	0.158008
H89	H	-0.546775	-0.232212	0.103038
H90	H	-0.514796	-0.156886	0.257780
H91	H	-0.601535	-0.155462	0.202821
C92	C	-0.877877	-0.465051	-0.064383
C93	C	-0.957419	-0.435136	-0.047459
H94	H	-0.866398	-0.443282	-0.117853
H95	H	-0.877236	-0.528276	-0.064869
H96	H	-0.836051	-0.443870	-0.021910
H97	H	-0.999246	-0.456323	-0.089929
H98	H	-0.958067	-0.371898	-0.046980
C99	C	-0.823548	0.156131	-0.329970
C100	C	-0.907738	0.156254	-0.312762
H101	H	-0.795758	0.207564	-0.305854
H102	H	-0.821728	0.156461	-0.389306
H103	H	-0.796058	0.104288	-0.306407
H104	H	-0.935230	0.208094	-0.336330
H105	H	-0.909563	0.155932	-0.253414
H106	H	-0.852177	-0.555845	0.084998
C107	C	-1.074704	0.155679	-0.544511
C108	C	-1.076695	0.156408	-0.456942
H109	H	-1.102476	0.207178	-0.568516
H110	H	-1.102553	0.103907	-0.567761
H111	H	-1.017732	0.155472	-0.556643
H112	H	-1.133667	0.156608	-0.444810
H113	H	-1.048848	0.208193	-0.433685
C114	C	-1.035157	-0.232749	-0.423553
C115	C	-1.076660	-0.156375	-0.457148
H116	H	-1.062913	-0.284194	-0.447685
H117	H	-1.036091	-0.233645	-0.364102
H118	H	-0.978321	-0.232210	-0.436102
H119	H	-1.133494	-0.156910	-0.444594
H120	H	-1.075734	-0.155479	-0.516613
C121	C	-0.910378	-0.155896	-0.225319
C122	C	-0.907696	-0.156360	-0.312793
H123	H	-0.882554	-0.207325	-0.201225
H124	H	-0.967487	-0.156004	-0.213646
H125	H	-0.882900	-0.104049	-0.201763
H126	H	-0.935180	-0.208204	-0.336351
H127	H	-0.850576	-0.156260	-0.324473
H128	H	-0.563902	0.000004	-0.031547
