data_functionalizedCrystal
_audit_creation_method	'MofGen! by Chris Wilmer'
_symmetry_space_group_name_H-M	'P1'
_symmetry_Int_Tables_number	1
_symmetry_cell_setting	triclinic
loop_
_symmetry_equiv_pos_as_xyz
  x,y,z
_cell_length_a	14.908571
_cell_length_b	14.908520
_cell_length_c	14.908308
_cell_angle_alpha	96.360765
_cell_angle_beta	90.175053
_cell_angle_gamma	90.205961
loop_
_atom_site_label
_atom_site_type_symbol
_atom_site_fract_x
_atom_site_fract_y
_atom_site_fract_z
Zn1	Zn	1.316651	-0.470613	-0.613065
Zn2	Zn	1.816651	0.029387	-0.113065
Zn3	Zn	1.316549	-0.613252	-0.470429
Zn4	Zn	1.816549	-0.113252	0.029571
Zn5	Zn	1.176020	-0.453291	-0.453125
Zn6	Zn	1.676020	0.046709	0.046875
Zn7	Zn	1.157642	-0.612180	-0.612023
Zn8	Zn	1.657642	-0.112180	-0.112023
O9	O	1.241715	-0.537334	-0.537161
O10	O	1.741715	-0.037334	-0.037161
O11	O	1.441995	-0.497231	-0.601822
O12	O	1.941995	0.002769	-0.101822
O13	O	1.305556	-0.585232	-0.341941
O14	O	1.805556	-0.085232	0.158059
O15	O	1.202409	-0.329399	-0.467536
O16	O	1.702409	0.170601	0.032464
O17	O	1.441920	-0.602028	-0.497029
O18	O	1.941920	-0.102028	0.002971
O19	O	1.305730	-0.342124	-0.585043
O20	O	1.805730	0.157876	-0.085043
O21	O	1.202310	-0.467710	-0.329228
O22	O	1.702310	0.032290	0.170772
O23	O	1.048225	-0.466671	-0.466525
O24	O	1.548225	0.033329	0.033475
O25	O	1.171086	-0.600202	-0.738354
O26	O	1.671086	-0.100202	-0.238354
O27	O	1.034722	-0.583406	-0.583267
O28	O	1.534722	-0.083406	-0.083267
O29	O	1.287909	-0.496192	-0.739120
O30	O	1.787909	0.003808	-0.239120
O31	O	1.287736	-0.739300	-0.496018
O32	O	1.787736	-0.239300	0.003982
O33	O	1.170987	-0.738513	-0.600046
O34	O	1.670987	-0.238513	-0.100046
C35	C	1.008970	-0.523043	-0.522906
C36	C	1.508970	-0.023043	-0.022906
C37	C	0.909397	-0.516953	-0.516830
C38	C	1.409397	-0.016953	-0.016830
C39	C	0.708277	-0.627234	-0.626831
C40	C	1.208277	-0.127234	-0.126831
C41	C	0.614720	-0.621514	-0.621125
C42	C	1.114720	-0.121514	-0.121125
C43	C	0.628723	-0.499789	-0.499719
C44	C	1.128723	0.000211	0.000281
C45	C	0.722281	-0.505509	-0.505424
C46	C	1.222281	-0.005509	-0.005424
C47	C	0.762054	-0.569235	-0.568981
C48	C	1.262054	-0.069235	-0.068981
C49	C	0.855613	-0.574958	-0.574682
C50	C	1.355613	-0.074958	-0.074682
C51	C	0.869615	-0.453230	-0.453280
C52	C	1.369615	0.046770	0.046720
C53	C	0.776058	-0.447510	-0.447575
C54	C	1.276058	0.052490	0.052425
C55	C	1.227379	-0.771629	-0.549818
C56	C	1.727379	-0.271629	-0.049818
C57	C	1.221326	-0.871868	-0.555268
C58	C	1.721326	-0.371868	-0.055268
C59	C	1.331634	-1.060998	-0.457284
C60	C	1.831634	-0.560998	0.042716
C61	C	1.325950	-1.155181	-0.462402
C62	C	1.825950	-0.655181	0.037598
C63	C	1.204279	-1.154420	-0.570626
C64	C	1.704279	-0.654420	-0.070626
C65	C	1.209963	-1.060237	-0.565508
C66	C	1.709963	-0.560237	-0.065508
C67	C	1.273642	-1.013529	-0.508834
C68	C	1.773642	-0.513529	-0.008834
C69	C	1.279321	-0.919343	-0.503712
C70	C	1.779321	-0.419343	-0.003712
C71	C	1.157655	-0.918584	-0.611940
C72	C	1.657655	-0.418584	-0.111940
C73	C	1.151970	-1.012768	-0.617058
C74	C	1.651970	-0.512768	-0.117058
C75	C	1.475370	-0.551681	-0.551472
C76	C	1.975370	-0.051681	-0.051472
C77	C	1.574939	-0.557795	-0.557571
C78	C	2.074939	-0.057795	-0.057571
C79	C	1.227459	-0.550010	-0.772372
C80	C	1.727459	-0.050010	-0.272372
C81	C	1.221383	-0.555411	-0.872606
C82	C	1.721383	-0.055411	-0.372606
C83	C	1.256131	-0.302127	-0.524476
C84	C	1.756131	0.197873	-0.024476
C85	C	1.262274	-0.201896	-0.519070
C86	C	1.762274	0.298104	-0.019070
C87	C	1.331614	-0.457236	-1.061752
C88	C	1.831614	0.042764	-0.561752
C89	C	1.325908	-0.462308	-1.155930
C90	C	1.825908	0.037692	-0.655930
C91	C	1.204264	-0.570623	-1.155141
C92	C	1.704264	-0.070623	-0.655141
C93	C	1.209969	-0.565551	-1.060963
C94	C	1.709969	-0.065551	-0.560963
C95	C	1.273647	-0.508856	-1.014272
C96	C	1.773647	-0.008856	-0.514272
C97	C	1.279356	-0.503789	-0.920093
C98	C	1.779356	-0.003789	-0.420093
C99	C	1.157708	-0.612099	-0.919305
C100	C	1.657708	-0.112099	-0.419305
C101	C	1.152002	-0.617171	-1.013483
C102	C	1.652002	-0.117171	-0.513483
C103	C	1.255972	-0.524646	-0.302864
C104	C	1.755972	-0.024646	0.197136
C105	C	1.262236	-0.519001	-0.202628
C106	C	1.762236	-0.019001	0.297372
H107	H	0.740661	-0.679126	-0.678577
H108	H	1.240661	-0.179126	-0.178577
H109	H	0.913411	-0.406004	-0.406173
H110	H	1.413411	0.093996	0.093827
H111	H	1.110431	-0.879924	-0.653913
H112	H	1.610431	-0.379924	-0.153913
H113	H	1.373175	-1.193828	-0.420427
H114	H	1.873175	-0.693828	0.079573
H115	H	1.331207	-0.457627	-0.882079
H116	H	1.831207	0.042373	-0.382079
H117	H	1.383478	-1.022967	-0.411132
H118	H	1.883478	-0.522967	0.088868
H119	H	0.743661	-0.395624	-0.395831
H120	H	1.243661	0.104376	0.104169
H121	H	1.383467	-0.411077	-1.023736
H122	H	1.883467	0.088923	-0.523736
H123	H	1.152440	-1.192467	-0.616773
H124	H	1.652440	-0.692467	-0.116773
H125	H	1.331169	-0.881314	-0.457563
H126	H	1.831169	-0.381314	0.042437
N127	N	0.556713	-0.684073	-0.683513
N128	N	1.056713	-0.184073	-0.183513
H129	H	0.569952	-0.674637	-0.748211
H130	H	1.069952	-0.174637	-0.248211
H131	H	0.569942	-0.748690	-0.673799
H132	H	1.069942	-0.248690	-0.173799
H133	H	0.596323	-0.447902	-0.447979
H134	H	1.096323	0.052098	0.052021
N135	N	1.083292	-1.063147	-0.678182
N136	N	1.583292	-0.563147	-0.178182
H137	H	1.088490	-1.130016	-0.673604
H138	H	1.588490	-0.630016	-0.173604
H139	H	1.021172	-1.042064	-0.659276
H140	H	1.521172	-0.542064	-0.159276
N141	N	1.388421	-0.406624	-1.207142
N142	N	1.888421	0.093376	-0.707142
H143	H	1.429622	-0.369939	-1.163270
H144	H	1.929622	0.130061	-0.663270
H145	H	1.425266	-0.447973	-1.250739
H146	H	1.925266	0.052027	-0.750739
N147	N	1.135553	-0.631728	-1.205503
N148	N	1.635553	-0.131728	-0.705503
H149	H	1.140727	-0.627092	-1.272368
H150	H	1.640727	-0.127092	-0.772368
H151	H	1.146516	-0.696113	-1.193394
H152	H	1.646516	-0.196113	-0.693394
H153	H	1.100156	-0.663328	-1.051511
H154	H	1.600156	-0.163328	-0.551511
H155	H	1.110509	-0.654134	-0.880636
H156	H	1.610509	-0.154134	-0.380636
H157	H	0.887995	-0.626848	-0.626432
H158	H	1.387995	-0.126848	-0.126432
