data_functionalizedCrystal
_audit_creation_method	'MofGen! by Chris Wilmer'
_symmetry_space_group_name_H-M	'P1'
_symmetry_Int_Tables_number	1
_symmetry_cell_setting	triclinic
loop_
_symmetry_equiv_pos_as_xyz
  x,y,z
_cell_length_a	11.295483
_cell_length_b	11.026607
_cell_length_c	11.026607
_cell_angle_alpha	108.586017
_cell_angle_beta	94.999742
_cell_angle_gamma	84.993165
loop_
_atom_site_label
_atom_site_type_symbol
_atom_site_fract_x
_atom_site_fract_y
_atom_site_fract_z
O1	O	0.099022	-1.733442	-0.526917
O2	O	0.099024	-1.366862	-0.466153
O3	O	0.099019	-1.519770	-0.313245
O4	O	0.099027	-1.580534	-0.679825
O5	O	-0.099031	-1.506334	-0.326649
O6	O	-0.099026	-1.353426	-0.479557
O7	O	-0.099028	-1.720006	-0.540321
Cu8	Cu	-0.117111	-1.535489	-0.511163
Cu9	Cu	0.117107	-1.551379	-0.495311
O10	O	-0.099023	-1.567098	-0.693229
C11	C	-0.000001	-1.312485	-0.461645
C12	C	-0.000000	-1.170471	-0.428228
C13	C	-0.000005	-1.501842	-0.272288
C14	C	-0.000000	-1.468426	-0.130273
N15	N	-0.281847	-1.524323	-0.522313
C16	C	-0.531140	-1.642923	-0.403816
C17	C	-0.655804	-1.634495	-0.412253
C18	C	-0.655839	-1.499032	-0.547617
C19	C	-0.531176	-1.507460	-0.539180
C20	C	-0.468831	-1.579409	-0.467278
C21	C	-0.344165	-1.587844	-0.458849
C22	C	-0.344203	-1.452374	-0.594205
C23	C	-0.468866	-1.443946	-0.602643
N24	N	0.281843	-1.562554	-0.484153
C25	C	-0.000001	-1.774384	-0.544829
C26	C	0.000006	-1.916398	-0.578245
C27	C	0.000003	-1.116822	-0.520498
C28	C	0.000004	-0.970043	-0.485962
C29	C	0.000003	-1.585026	-0.734186
C30	C	0.000007	-1.618443	-0.876200
C31	C	0.000001	-1.560695	-0.076624
C32	C	0.000005	-1.526160	0.070155
H33	H	-0.293405	-1.646432	-0.400307
H34	H	0.000001	-0.979125	-0.682816
H35	H	-0.000002	-1.179554	-0.625061
H36	H	0.000014	-1.421591	0.132885
O37	O	-0.470756	-1.712824	-0.333881
C38	C	-0.552486	-1.767113	-0.279709
H39	H	-0.641362	-1.708541	-0.272838
H40	H	-0.516460	-1.766768	-0.179762
H41	H	-0.565723	-1.869926	-0.342720
H42	H	0.000032	-0.907316	-0.381390
O43	O	0.000210	-1.095603	-0.303487
C44	C	0.102766	-1.024744	-0.271741
H45	H	0.174459	-1.075670	-0.340317
H46	H	0.137196	-1.016438	-0.169286
H47	H	0.079576	-0.924827	-0.279949
O48	O	-0.000054	-1.685373	-0.151643
C49	C	-0.000026	-1.692100	-0.281493
H50	H	-0.037519	-1.596873	-0.293382
H51	H	-0.057527	-1.772111	-0.342680
H52	H	0.094989	-1.712757	-0.313417
H53	H	-0.519642	-1.385363	-0.661180
H54	H	0.000008	-1.363863	-0.067540
O55	O	-0.716461	-1.696277	-0.350802
C56	C	-0.788532	-1.784960	-0.441143
H57	H	-0.807222	-1.754726	-0.531013
H58	H	-0.876190	-1.787576	-0.398297
H59	H	-0.740466	-1.884287	-0.467169
O60	O	-0.716550	-1.429041	-0.617270
C61	C	-0.788645	-1.330621	-0.536665
H62	H	-0.807290	-1.358340	-0.449322
H63	H	-0.876324	-1.316152	-0.591356
H64	H	-0.740623	-1.237787	-0.504139
O65	O	-0.283547	-1.390871	-0.655947
C66	C	-0.211457	-1.481185	-0.744655
H67	H	-0.192757	-1.571080	-0.714461
H68	H	-0.123805	-1.438329	-0.747253
H69	H	-0.259511	-1.507177	-0.843979
H70	H	0.000096	-1.723019	0.061079
