data_functionalizedCrystal
_audit_creation_method	'MofGen! by Chris Wilmer'
_symmetry_space_group_name_H-M	'P1'
_symmetry_Int_Tables_number	1
_symmetry_cell_setting	triclinic
loop_
_symmetry_equiv_pos_as_xyz
  x,y,z
_cell_length_a	14.560432
_cell_length_b	23.096457
_cell_length_c	23.096457
_cell_angle_alpha	90.011518
_cell_angle_beta	60.007089
_cell_angle_gamma	59.999761
loop_
_atom_site_label
_atom_site_type_symbol
_atom_site_fract_x
_atom_site_fract_y
_atom_site_fract_z
Zr1	Zr	1.005300	0.557749	-0.076001
O2	O	1.196902	0.465279	-0.168447
O3	O	0.813697	0.586096	-0.047661
O4	O	1.005303	0.586067	-0.168452
O5	O	1.005294	0.465330	0.047626
O6	O	1.005305	0.681348	-0.168455
O7	O	1.005296	0.465307	-0.047656
O8	O	0.662558	0.681398	0.047617
O9	O	1.348041	0.465279	-0.168447
O10	O	0.892508	0.669292	-0.035577
O11	O	0.892504	0.598202	0.035533
O12	O	1.118095	0.598169	-0.106682
O13	O	1.118091	0.527079	-0.035572
Zr14	Zr	1.005300	0.709746	0.075957
Zr15	Zr	1.005304	0.709710	-0.076006
Zr16	Zr	1.005295	0.557785	0.075963
Zr17	Zr	1.246349	0.557749	-0.076000
Zr18	Zr	0.764250	0.709746	0.075957
O19	O	1.196902	0.681399	0.047618
O20	O	1.196907	0.681348	-0.168455
O21	O	1.196896	0.465330	0.047626
O22	O	0.813697	0.802216	0.168404
O23	O	0.813703	0.802165	-0.047669
O24	O	0.813692	0.586147	0.168412
O25	O	1.005305	0.802165	-0.047669
O26	O	1.005296	0.681428	0.168409
O27	O	1.005294	0.586147	0.168412
O28	O	1.005303	0.802188	0.047613
O29	O	1.348044	0.586068	-0.168451
O30	O	0.662555	0.681427	0.168408
O31	O	0.662558	0.802216	0.168404
O32	O	0.662561	0.802187	0.047613
O33	O	1.348038	0.465308	-0.047656
O34	O	1.348041	0.586097	-0.047660
O35	O	0.892504	0.669326	0.106639
O36	O	0.892508	0.740416	0.035528
O37	O	1.118095	0.669293	-0.035577
O38	O	1.118091	0.598203	0.035534
C39	C	0.703783	0.633747	-0.000022
C40	C	0.601452	0.633747	-0.000022
C41	C	0.409165	0.707960	-0.074268
C42	C	0.457243	0.745069	-0.111389
C43	C	0.553390	0.745073	-0.111388
C44	C	0.601462	0.707961	-0.074264
C45	C	0.553384	0.670852	-0.037144
C46	C	0.457233	0.670854	-0.037147
C47	C	0.553373	0.596637	0.037098
C48	C	0.457220	0.596637	0.037103
C49	C	0.601446	0.559526	0.074222
C50	C	0.553361	0.522420	0.111348
C51	C	0.457208	0.522419	0.111346
C52	C	0.409142	0.559528	0.074223
C53	C	1.005294	0.443667	-0.000015
C54	C	1.005293	0.379156	-0.000012
C55	C	0.887542	0.385975	0.037097
C56	C	0.887540	0.325360	0.037100
C57	C	1.005296	0.257925	-0.000020
C58	C	1.123062	0.251108	-0.037131
C59	C	1.123060	0.311723	-0.037127
N60	N	1.092948	0.135115	-0.060431
N61	N	1.092942	0.077536	-0.060433
C62	C	1.005307	0.075292	-0.000033
N63	N	0.917660	0.132810	0.060370
N64	N	0.917663	0.190396	0.060371
C65	C	1.005310	0.192194	-0.000028
C66	C	0.887547	0.016388	0.037083
C67	C	0.887550	-0.044230	0.037088
C68	C	1.123075	-0.118482	-0.037149
C69	C	1.123068	-0.057864	-0.037148
C70	C	1.005301	0.009569	-0.000033
C71	C	1.306816	0.633748	-0.000021
C72	C	1.409147	0.633748	-0.000021
C73	C	1.005305	0.633702	-0.190105
C74	C	1.005306	0.633687	-0.254618
C75	C	1.005305	0.823828	-0.000029
C76	C	1.005306	0.888339	-0.000031
C77	C	1.123057	0.596565	-0.322037
C78	C	1.123059	0.596583	-0.382654
C79	C	1.005303	0.633714	-0.375846
C80	C	0.887537	0.670844	-0.308415
C81	C	0.887539	0.670830	-0.247800
N82	N	0.917651	0.628591	-0.443402
N83	N	0.917657	0.628600	-0.500986
C84	C	1.005292	0.633757	-0.558472
N85	N	1.092939	0.638892	-0.556205
N86	N	1.092936	0.638879	-0.498618
C87	C	1.005289	0.633732	-0.441568
C88	C	1.123052	0.596653	-0.691621
C89	C	1.123049	0.596676	-0.752238
C90	C	0.887524	0.670932	-0.677996
C91	C	0.887531	0.670914	-0.617382
C92	C	1.005298	0.633770	-0.624200
C93	C	1.005294	0.633793	0.190062
C94	C	1.005293	0.633808	0.254574
C95	C	0.703788	0.823827	-0.000029
C96	C	0.601458	0.888338	-0.000032
C97	C	0.703778	0.633792	0.190061
C98	C	0.601445	0.633807	0.254574
C99	C	0.703783	0.823872	0.190054
C100	C	0.601452	0.888399	0.254565
C101	C	1.306816	0.443623	-0.190098
C102	C	1.409147	0.379096	-0.254608
C103	C	1.306811	0.443668	-0.000014
C104	C	1.409141	0.379157	-0.000012
C105	C	1.306821	0.633703	-0.190105
C106	C	1.409154	0.633688	-0.254617
C107	C	0.553403	0.881508	-0.037155
C108	C	0.457266	0.942117	-0.037172
C109	C	0.409180	1.009557	-0.000060
C110	C	0.457245	1.016386	0.037065
C111	C	0.553386	0.955777	0.037077
C112	C	0.553388	0.670940	0.321992
C113	C	0.457248	0.670951	0.382614
C114	C	0.409160	0.633834	0.375817
C115	C	0.457227	0.596696	0.308391
C116	C	0.553371	0.596681	0.247771
C117	C	0.553397	0.955816	0.247740
C118	C	0.457259	1.016451	0.308348
C119	C	0.409170	1.009668	0.375780
C120	C	0.457234	0.942244	0.382603
C121	C	0.553377	0.881610	0.321996
C122	C	1.457213	0.311679	-0.247784
C123	C	1.553381	0.251044	-0.308392
C124	C	1.601475	0.257827	-0.375824
C125	C	1.553406	0.325251	-0.382647
C126	C	1.457246	0.385885	-0.322039
C127	C	1.457206	0.385987	0.037106
C128	C	1.553369	0.325378	0.037106
C129	C	1.601459	0.257938	-0.000008
C130	C	1.553390	0.251109	-0.037130
C131	C	1.457235	0.311718	-0.037134
C132	C	1.457211	0.670813	-0.247797
C133	C	1.553352	0.670812	-0.308407
C134	C	1.601440	0.633683	-0.375837
C135	C	1.553373	0.596557	-0.382657
C136	C	1.457228	0.596562	-0.322047
H137	H	0.330869	0.707966	-0.074267
H138	H	1.218939	0.196198	-0.067354
F139	F	0.406080	0.784561	-0.150900
H140	H	0.592490	0.826719	0.327562
F141	F	0.604566	0.809739	-0.076660
F142	F	0.306844	1.074207	0.440279
F143	F	1.703796	0.193439	0.000003
H144	H	1.679728	0.633684	-0.425184
H145	H	1.418059	0.440894	0.067333
F146	F	0.762210	0.088157	0.076587
F147	F	1.406083	0.304437	-0.076637
F148	F	1.406050	0.710334	-0.176038
H149	H	0.330851	0.559532	0.074220
F150	F	0.406041	0.935036	0.454375
H151	H	1.592542	0.566327	-0.437566
F152	F	0.762203	0.457740	0.076602
H153	H	1.592478	0.701044	-0.302841
F154	F	0.604565	0.784564	-0.150899
F155	F	1.604580	0.179329	-0.076625
F156	F	1.248389	0.557136	-0.698875
H157	H	0.592537	0.961352	0.192839
F158	F	0.306855	1.074056	-0.000079
F159	F	0.762216	-0.036967	0.076595
H160	H	1.418111	0.566327	-0.327610
F161	F	1.604602	0.332459	-0.454419
F162	F	1.248396	0.557021	-0.329297
F163	F	0.703805	0.707957	-0.074274
H164	H	1.218940	0.566450	-0.807135
H165	H	0.592501	0.961349	0.067311
F166	F	1.406043	0.304444	-0.176023
F167	F	0.406120	1.088202	0.301072
F168	F	0.406034	0.557196	0.301167
F169	F	1.248390	0.557072	-0.454417
F170	F	0.306833	0.633857	0.440342
F171	F	1.248400	-0.190247	-0.076651
F172	F	1.604520	0.179293	-0.301115
H173	H	0.592487	0.566445	0.192878
F174	F	0.406126	0.934834	-0.076684
H175	H	0.791651	0.330913	0.067319
F176	F	0.406052	1.088166	0.076561
H177	H	0.592530	0.701166	0.327541
F178	F	1.703817	0.193288	-0.440322
H179	H	0.418124	0.701196	0.437509
F180	F	1.406093	0.457633	-0.329313
F181	F	0.762199	0.710457	-0.670747
F182	F	0.703780	0.559526	0.074219
F183	F	0.604534	0.482924	0.150849
F184	F	1.604507	0.332661	0.076620
F185	F	1.248392	0.304462	-0.076626
H186	H	1.218954	-0.063420	-0.067371
F187	F	0.406053	0.482917	0.150852
H188	H	0.791660	0.701076	-0.302876
H189	H	0.791649	0.701060	-0.192902
H190	H	0.791646	0.701139	-0.562485
