data_functionalizedCrystal
_audit_creation_method	'MofGen! by Chris Wilmer'
_symmetry_space_group_name_H-M	'P1'
_symmetry_Int_Tables_number	1
_symmetry_cell_setting	triclinic
loop_
_symmetry_equiv_pos_as_xyz
  x,y,z
_cell_length_a	14.908795
_cell_length_b	21.295417
_cell_length_c	21.295412
_cell_angle_alpha	89.969860
_cell_angle_beta	86.683239
_cell_angle_gamma	93.319839
loop_
_atom_site_label
_atom_site_type_symbol
_atom_site_fract_x
_atom_site_fract_y
_atom_site_fract_z
Zn1	Zn	1.379173	-0.195177	-0.411532
Zn2	Zn	1.712506	0.138157	-0.078199
Zn3	Zn	2.045839	0.471490	0.255135
Zn4	Zn	1.379056	-0.300451	-0.306255
Zn5	Zn	1.712390	0.032883	0.027079
Zn6	Zn	2.045723	0.366216	0.360412
Zn7	Zn	1.228312	-0.201259	-0.300193
Zn8	Zn	1.561646	0.132074	0.033140
Zn9	Zn	1.894979	0.465407	0.366473
Zn10	Zn	1.228249	-0.306479	-0.405405
Zn11	Zn	1.561582	0.026854	-0.072072
Zn12	Zn	1.894916	0.360187	0.261262
O13	O	1.303698	-0.250841	-0.355846
O14	O	1.637031	0.082492	-0.022513
O15	O	1.970364	0.415825	0.310820
O16	O	1.505406	-0.204073	-0.402667
O17	O	1.838740	0.129261	-0.069334
O18	O	2.172073	0.462594	0.263999
O19	O	1.359037	-0.287315	-0.217360
O20	O	1.692371	0.046018	0.115973
O21	O	2.025704	0.379351	0.449306
O22	O	1.248399	-0.112360	-0.314990
O23	O	1.581733	0.220973	0.018343
O24	O	1.915066	0.554307	0.351676
O25	O	1.505321	-0.281417	-0.325321
O26	O	1.838654	0.051916	0.008013
O27	O	2.171987	0.385250	0.341346
O28	O	1.359236	-0.107891	-0.396790
O29	O	1.692569	0.225442	-0.063457
O30	O	2.025902	0.558776	0.269876
O31	O	1.248286	-0.214440	-0.212907
O32	O	1.581620	0.118893	0.120426
O33	O	1.914953	0.452227	0.453760
O34	O	1.102055	-0.220286	-0.309049
O35	O	1.435388	0.113048	0.024284
O36	O	1.768722	0.446381	0.357618
O37	O	1.248292	-0.291692	-0.494308
O38	O	1.581625	0.041641	-0.160975
O39	O	1.914958	0.374975	0.172359
O40	O	1.102009	-0.297590	-0.386348
O41	O	1.435342	0.035743	-0.053014
O42	O	1.768675	0.369076	0.280319
O43	O	1.359175	-0.209918	-0.498809
O44	O	1.692508	0.123415	-0.165476
O45	O	2.025841	0.456748	0.167857
O46	O	1.358976	-0.389343	-0.319379
O47	O	1.692310	-0.056009	0.013954
O48	O	2.025643	0.277324	0.347287
O49	O	1.248179	-0.393772	-0.392225
O50	O	1.581512	-0.060439	-0.058891
O51	O	1.914846	0.272895	0.274442
C52	C	1.069297	-0.260253	-0.346376
C53	C	1.402630	0.073081	-0.013043
C54	C	1.735963	0.406414	0.320291
C55	C	0.969019	-0.264294	-0.342340
C56	C	1.302352	0.069039	-0.009006
C57	C	1.635686	0.402373	0.324327
C58	C	0.827639	-0.310192	-0.296318
C59	C	1.160973	0.023141	0.037015
C60	C	1.494306	0.356475	0.370348
C61	C	0.921859	-0.306397	-0.300111
C62	C	1.255192	0.026936	0.033223
C63	C	1.588526	0.360269	0.366556
C64	C	0.921953	-0.225981	-0.380778
C65	C	1.255286	0.107352	-0.047445
C66	C	1.588619	0.440685	0.285888
C67	C	0.827733	-0.229776	-0.376986
C68	C	1.161066	0.103558	-0.043653
C69	C	1.494399	0.436891	0.289681
C70	C	0.780579	-0.271883	-0.334755
C71	C	1.113913	0.061450	-0.001422
C72	C	1.447246	0.394783	0.331911
C73	C	0.686358	-0.275681	-0.330967
C74	C	1.019691	0.057653	0.002367
C75	C	1.353024	0.390986	0.335700
C76	C	0.686453	-0.195262	-0.411631
C77	C	1.019786	0.138072	-0.078297
C78	C	1.353120	0.471405	0.255036
C79	C	0.780673	-0.191467	-0.415423
C80	C	1.114006	0.141866	-0.082090
C81	C	1.447340	0.475199	0.251244
C82	C	1.303583	-0.414398	-0.355810
C83	C	1.636916	-0.081064	-0.022476
C84	C	1.970249	0.252269	0.310857
C85	C	1.303616	-0.484364	-0.355818
C86	C	1.636949	-0.151031	-0.022485
C87	C	1.970283	0.182302	0.310848
C88	C	1.361295	-0.514848	-0.398439
C89	C	1.694629	-0.181515	-0.065106
C90	C	2.027962	0.151818	0.268228
C91	C	1.361327	-0.580589	-0.398456
C92	C	1.694661	-0.247256	-0.065123
C93	C	2.027994	0.086077	0.268211
C94	C	1.303689	-0.615844	-0.355841
C95	C	1.637022	-0.282511	-0.022508
C96	C	1.970356	0.050823	0.310825
C97	C	1.245998	-0.585353	-0.313217
C98	C	1.579332	-0.252019	0.020116
C99	C	1.912665	0.081314	0.353449
C100	C	1.245962	-0.519613	-0.313206
C101	C	1.579295	-0.186280	0.020127
C102	C	1.912628	0.147054	0.353461
N103	N	1.296879	-0.719379	-0.300476
N104	N	1.630212	-0.386046	0.032858
N105	N	1.963546	-0.052713	0.366191
N106	N	1.296919	-0.781829	-0.300488
N107	N	1.630252	-0.448496	0.032845
N108	N	1.963586	-0.115162	0.366178
C109	C	1.303794	-0.813914	-0.355874
C110	C	1.637128	-0.480581	-0.022541
C111	C	1.970461	-0.147248	0.310793
N112	N	1.310646	-0.781190	-0.411248
N113	N	1.643979	-0.447857	-0.077915
N114	N	1.977313	-0.114523	0.255419
N115	N	1.310611	-0.718734	-0.411235
N116	N	1.643944	-0.385401	-0.077901
N117	N	1.977277	-0.052068	0.255432
C118	C	1.303722	-0.687128	-0.355849
C119	C	1.637055	-0.353795	-0.022516
C120	C	1.970389	-0.020461	0.310818
C121	C	1.361512	-0.915682	-0.398516
C122	C	1.694845	-0.582349	-0.065183
C123	C	2.028178	-0.249016	0.268150
C124	C	1.361537	-0.981425	-0.398534
C125	C	1.694870	-0.648092	-0.065201
C126	C	2.028204	-0.314758	0.268133
C127	C	1.246213	-0.986187	-0.313290
C128	C	1.579546	-0.652853	0.020043
C129	C	1.912880	-0.319520	0.353377
C130	C	1.246183	-0.920446	-0.313278
C131	C	1.579516	-0.587112	0.020056
C132	C	1.912849	-0.253779	0.353389
C133	C	1.303837	-0.885197	-0.355890
C134	C	1.637170	-0.551864	-0.022557
C135	C	1.970503	-0.218530	0.310776
C136	C	1.539014	-0.241394	-0.365354
C137	C	1.872347	0.091939	-0.032020
C138	C	2.205680	0.425273	0.301313
C139	C	1.639291	-0.237368	-0.369405
C140	C	1.972625	0.095965	-0.036072
C141	C	2.305958	0.429299	0.297262
C142	C	1.303739	-0.250799	-0.520038
C143	C	1.637072	0.082534	-0.186705
C144	C	1.970406	0.415868	0.146628
C145	C	1.303757	-0.250781	-0.590007
C146	C	1.637090	0.082552	-0.256674
C147	C	1.970424	0.415886	0.076660
C148	C	1.303838	-0.086645	-0.355898
C149	C	1.637171	0.246688	-0.022564
C150	C	1.970504	0.580021	0.310769
C151	C	1.303897	-0.016675	-0.355920
C152	C	1.637231	0.316658	-0.022586
C153	C	1.970564	0.649992	0.310747
C154	C	1.361579	-0.208098	-1.091814
C155	C	1.694912	0.125235	-0.758480
C156	C	2.028246	0.458568	-0.425147
C157	C	1.361572	-0.208114	-1.026071
C158	C	1.694905	0.125219	-0.692737
C159	C	2.028239	0.458553	-0.359404
C160	C	1.303835	-0.250695	-0.990850
C161	C	1.637168	0.082639	-0.657517
C162	C	1.970502	0.415972	-0.324183
C163	C	1.246117	-0.293274	-1.021378
C164	C	1.579450	0.040059	-0.688044
C165	C	1.912784	0.373393	-0.354711
C166	C	1.246132	-0.293262	-1.087120
C167	C	1.579465	0.040072	-0.753786
C168	C	1.912799	0.373405	-0.420453
N169	N	1.224836	-0.258714	-0.884436
N170	N	1.558169	0.074619	-0.551102
N171	N	1.891502	0.407952	-0.217769
N172	N	1.224824	-0.258723	-0.821984
N173	N	1.558157	0.074611	-0.488650
N174	N	1.891491	0.407944	-0.155317
C175	C	1.303788	-0.250736	-0.792773
C176	C	1.637121	0.082597	-0.459440
C177	C	1.970454	0.415931	-0.126106
N178	N	1.382765	-0.242729	-0.828374
N179	N	1.716099	0.090605	-0.495041
N180	N	2.049432	0.423938	-0.161707
N181	N	1.382776	-0.242717	-0.890832
N182	N	1.716109	0.090616	-0.557498
N183	N	2.049443	0.423949	-0.224165
C184	C	1.303813	-0.250713	-0.919564
C185	C	1.637146	0.082620	-0.586230
C186	C	1.970479	0.415953	-0.252897
C187	C	1.361499	-0.208179	-0.690967
C188	C	1.694832	0.125154	-0.357634
C189	C	2.028166	0.458487	-0.024301
C190	C	1.361493	-0.208199	-0.625223
C191	C	1.694827	0.125134	-0.291890
C192	C	2.028160	0.458468	0.041443
C193	C	1.246030	-0.293356	-0.620531
C194	C	1.579364	0.039977	-0.287198
C195	C	1.912697	0.373310	0.046135
C196	C	1.246044	-0.293339	-0.686274
C197	C	1.579377	0.039994	-0.352941
C198	C	1.912711	0.373327	-0.019608
C199	C	1.303777	-0.250748	-0.721488
C200	C	1.637110	0.082586	-0.388155
C201	C	1.970444	0.415919	-0.054822
C202	C	1.303708	-0.250836	-0.192295
C203	C	1.637041	0.082497	0.141038
C204	C	1.970375	0.415831	0.474372
C205	C	1.303865	-0.250670	-0.122334
C206	C	1.637199	0.082664	0.211000
C207	C	1.970532	0.415997	0.544333
H208	H	1.408239	-0.486151	-0.433138
H209	H	1.741572	-0.152817	-0.099805
H210	H	2.074905	0.180516	0.233529
H211	H	1.199023	-0.328029	-0.591855
H212	H	1.532356	0.005305	-0.258522
H213	H	1.865690	0.338638	0.074812
O214	O	1.183781	-0.339246	-0.719199
O215	O	1.517114	-0.005913	-0.385865
O216	O	1.850448	0.327420	-0.052532
H217	H	1.143623	-0.368854	-0.683664
H218	H	1.476956	-0.035521	-0.350331
H219	H	1.810290	0.297812	-0.016998
H220	H	1.199067	-0.614061	-0.278521
H221	H	1.532400	-0.280728	0.054812
H222	H	1.865734	0.052605	0.388145
O223	O	1.423548	-0.613481	-0.444422
O224	O	1.756881	-0.280147	-0.111089
O225	O	2.090214	0.053186	0.222245
H226	H	1.463636	-0.577925	-0.474048
H227	H	1.796969	-0.244592	-0.140714
H228	H	2.130302	0.088741	0.192619
O229	O	1.184047	-1.024200	-0.267322
O230	O	1.517380	-0.690867	0.066012
O231	O	1.850714	-0.357534	0.399345
H232	H	1.193766	-1.075035	-0.274486
H233	H	1.527100	-0.741702	0.058848
H234	H	1.860433	-0.408369	0.392181
H235	H	1.199218	-0.895624	-0.278569
H236	H	1.532552	-0.562291	0.054764
H237	H	1.865885	-0.228957	0.388097
H238	H	1.198991	-0.494793	-0.278498
H239	H	1.532324	-0.161459	0.054835
H240	H	1.865658	0.171874	0.388168
H241	H	0.960172	-0.337592	-0.268811
H242	H	1.293505	-0.004258	0.064523
H243	H	1.626838	0.329075	0.397856
H244	H	1.408569	-0.173445	-1.001216
H245	H	1.741903	0.159888	-0.667883
H246	H	2.075236	0.493222	-0.334550
H247	H	0.647967	-0.309969	-0.296582
H248	H	0.981300	0.023365	0.036751
H249	H	1.314634	0.356698	0.370085
O250	O	0.635691	-0.153939	-0.453088
O251	O	0.969024	0.179394	-0.119755
O252	O	1.302358	0.512728	0.213578
H253	H	0.684312	-0.124026	-0.483092
H254	H	1.017646	0.209307	-0.149759
H255	H	1.350979	0.542640	0.183574
H256	H	1.199109	-0.327945	-0.992697
H257	H	1.532442	0.005389	-0.659363
H258	H	1.865775	0.338722	-0.326030
H259	H	1.408454	-0.886982	-0.433216
H260	H	1.741788	-0.553648	-0.099883
H261	H	2.075121	-0.220315	0.233451
H262	H	1.408506	-1.006243	-0.433244
H263	H	1.741840	-0.672910	-0.099910
H264	H	2.075173	-0.339577	0.233423
O265	O	1.183872	-0.339173	-1.120044
O266	O	1.517205	-0.005839	-0.786710
O267	O	1.850538	0.327494	-0.453377
H268	H	1.143716	-0.368783	-1.084510
H269	H	1.477049	-0.035450	-0.751177
H270	H	1.810383	0.297883	-0.417843
O271	O	1.423775	-0.162252	-0.728956
O272	O	1.757108	0.171081	-0.395623
O273	O	2.090442	0.504415	-0.062290
H274	H	1.463919	-0.132659	-0.696686
H275	H	1.797253	0.200675	-0.363353
H276	H	2.130586	0.534008	-0.030020
O277	O	0.972817	-0.180562	-0.426319
O278	O	1.306150	0.152771	-0.092986
O279	O	1.639483	0.486104	0.240348
H280	H	1.046239	-0.184362	-0.422496
H281	H	1.379572	0.148971	-0.089163
H282	H	1.712906	0.482305	0.244171
O283	O	0.831531	-0.146053	-0.460971
O284	O	1.164865	0.187280	-0.127638
O285	O	1.498198	0.520613	0.205695
H286	H	0.904955	-0.149852	-0.457154
H287	H	1.238289	0.183482	-0.123821
H288	H	1.571622	0.516815	0.209513
O289	O	1.423752	-0.162282	-0.592306
O290	O	1.757086	0.171052	-0.258972
O291	O	2.090419	0.504385	0.074361
H292	H	1.414054	-0.169451	-0.540675
H293	H	1.747387	0.163883	-0.207342
H294	H	2.080721	0.497216	0.125992
O295	O	0.776771	-0.355604	-0.250773
O296	O	1.110104	-0.022271	0.082560
O297	O	1.443438	0.311063	0.415894
H298	H	0.825325	-0.381604	-0.224680
H299	H	1.158658	-0.048271	0.108654
H300	H	1.491992	0.285062	0.441987
O301	O	1.423855	-0.162169	-1.129797
O302	O	1.757189	0.171164	-0.796463
O303	O	2.090522	0.504497	-0.463130
H304	H	1.463993	-0.132573	-1.097525
H305	H	1.797327	0.200760	-0.764192
H306	H	2.130660	0.534093	-0.430858
