data_functionalizedCrystal
_audit_creation_method	'MofGen! by Chris Wilmer'
_symmetry_space_group_name_H-M	'P1'
_symmetry_Int_Tables_number	1
_symmetry_cell_setting	triclinic
loop_
_symmetry_equiv_pos_as_xyz
  x,y,z
_cell_length_a	16.109302
_cell_length_b	23.532357
_cell_length_c	15.186229
_cell_angle_alpha	89.990735
_cell_angle_beta	89.994701
_cell_angle_gamma	83.145036
loop_
_atom_site_label
_atom_site_type_symbol
_atom_site_fract_x
_atom_site_fract_y
_atom_site_fract_z
O1	O	1.102535	0.073206	-0.073279
O2	O	0.860400	0.082315	-0.073273
O3	O	0.988791	-0.005146	-0.073258
O4	O	0.974144	0.160667	-0.073294
O5	O	0.988782	-0.005147	0.073199
O6	O	0.860391	0.082314	0.073184
O7	O	1.102527	0.073204	0.073178
Zn8	Zn	0.981458	0.077759	0.096434
Zn9	Zn	0.981469	0.077761	-0.096529
O10	O	0.974136	0.160666	0.073163
C11	C	0.829423	0.081946	-0.000044
C12	C	0.737137	0.080839	-0.000041
C13	C	0.524812	0.078280	0.079785
C14	C	0.438101	0.077234	0.079782
C15	C	0.438121	0.077238	-0.079894
C16	C	0.524831	0.078280	-0.079890
C17	C	0.568174	0.078804	-0.000048
C18	C	0.394752	0.076716	-0.000055
C19	C	0.300736	0.075582	-0.000058
C20	C	0.662197	0.079937	-0.000044
C21	C	0.988420	-0.026365	-0.000027
C22	C	0.987319	-0.089587	-0.000019
C23	C	0.980408	-0.481624	-0.079900
C24	C	0.979361	-0.541027	-0.079905
O25	O	0.978796	-0.571745	-0.147800
N26	N	0.978838	-0.570741	-0.000072
C27	C	0.979352	-0.541047	0.079771
O28	O	0.978810	-0.571776	0.147674
C29	C	0.980393	-0.481644	0.079775
C30	C	0.980926	-0.451935	-0.000063
C31	C	0.980940	-0.451913	-0.159731
C32	C	0.981988	-0.392514	-0.159726
C33	C	0.982506	-0.362825	-0.079889
C34	C	0.981974	-0.392535	-0.000058
C35	C	0.980902	-0.451952	0.159617
C36	C	0.981943	-0.392545	0.159614
C37	C	0.982475	-0.362835	0.079776
C38	C	0.983540	-0.303447	0.079785
N39	N	0.984064	-0.273734	-0.000048
C40	C	0.983547	-0.303423	-0.079885
C41	C	0.977165	-0.665797	0.079756
C42	C	0.976130	-0.725199	0.079753
C43	C	0.976137	-0.725174	-0.079923
C44	C	0.977178	-0.665772	-0.079919
C45	C	0.977688	-0.636083	-0.000076
C46	C	0.985749	-0.178680	-0.079868
C47	C	0.986802	-0.119276	-0.079855
C48	C	0.986789	-0.119306	0.079820
C49	C	0.985742	-0.178705	0.079808
C50	C	0.985219	-0.208391	-0.000043
O51	O	0.984103	-0.272692	0.147645
O52	O	0.984078	-0.272686	-0.147777
C53	C	1.133503	0.073574	-0.000053
C54	C	1.225789	0.074681	-0.000062
C55	C	0.974506	0.181884	-0.000070
C56	C	0.975608	0.245107	-0.000084
N57	N	0.981456	0.077758	0.228127
N58	N	0.981477	0.077758	-0.228222
C59	C	1.038327	0.039043	0.453857
C60	C	1.038329	0.039041	0.546046
C61	C	0.924600	0.116474	0.546042
C62	C	0.924594	0.116473	0.453854
C63	C	0.981462	0.077757	0.407764
C64	C	0.981471	0.077758	0.592141
C65	C	0.981473	0.077757	0.692097
C66	C	0.981459	0.077758	0.307801
H67	H	0.402799	0.076808	0.144790
H68	H	0.987214	-0.095123	0.144821
O69	O	1.093592	0.001378	0.409220
C70	C	1.143795	-0.032784	0.469677
H71	H	1.109718	-0.033431	0.535397
H72	H	1.205398	-0.014281	0.479465
C73	C	1.203305	-0.093426	0.352997
C74	C	1.161448	-0.094224	0.433713
H75	H	1.214198	-0.131325	0.330812
H76	H	1.169485	-0.070409	0.312265
H77	H	1.254636	-0.078004	0.361165
H78	H	1.110114	-0.109639	0.425542
H79	H	1.195260	-0.117245	0.474443
O80	O	0.869447	0.154063	0.590952
C81	C	0.881633	0.145755	0.682204
H82	H	0.947912	0.124481	0.694790
H83	H	0.834822	0.117183	0.708385
C84	C	0.787240	0.230143	0.714059
C85	C	0.868648	0.204019	0.729517
H86	H	0.779227	0.266082	0.743245
H87	H	0.779028	0.235739	0.652581
H88	H	0.748240	0.206328	0.735876
H89	H	0.907646	0.227831	0.707690
H90	H	0.876867	0.198428	0.790993
O91	O	0.566795	0.078755	0.157418
C92	C	0.509921	0.078081	0.227879
H93	H	0.451709	0.059322	0.204471
H94	H	0.491583	0.123632	0.252424
C95	C	0.622697	0.064197	0.332062
C96	C	0.551203	0.041151	0.303314
H97	H	0.648162	0.041419	0.378596
H98	H	0.661014	0.064653	0.284592
H99	H	0.607405	0.102155	0.352510
H100	H	0.566497	0.003197	0.282856
H101	H	0.512889	0.040688	0.350782
H102	H	0.985316	-0.202897	0.144819
H103	H	1.084633	0.007516	0.583573
O104	O	0.869322	0.154138	0.409210
C105	C	0.819121	0.188303	0.469656
H106	H	0.853202	0.188958	0.535366
H107	H	0.757521	0.169798	0.479477
C108	C	0.759597	0.248933	0.352949
C109	C	0.801460	0.249740	0.433653
H110	H	0.748699	0.286829	0.330740
H111	H	0.793416	0.225914	0.312225
H112	H	0.708269	0.233509	0.361144
H113	H	0.852792	0.265157	0.425455
H114	H	0.767649	0.272763	0.474376
O115	O	0.395881	0.076758	-0.157369
C116	C	0.310051	0.075714	-0.140256
H117	H	0.294604	0.093588	-0.071646
H118	H	0.294556	0.029756	-0.144036
C119	C	0.277066	0.090555	-0.293406
C120	C	0.258092	0.112514	-0.209141
H121	H	0.245014	0.113252	-0.335898
H122	H	0.334891	0.091257	-0.304936
H123	H	0.264153	0.052257	-0.296543
H124	H	0.271015	0.150808	-0.206002
H125	H	0.200268	0.111819	-0.197611
H126	H	0.560138	0.078705	-0.144904
H127	H	0.975709	-0.749385	0.144765
O128	O	0.987277	-0.090501	-0.157493
C129	C	0.986614	-0.129450	-0.227957
H130	H	0.959541	-0.169431	-0.204550
H131	H	1.053213	-0.141759	-0.252506
C132	C	0.965748	-0.052255	-0.332133
C133	C	0.932490	-0.101359	-0.303386
H134	H	0.932366	-0.034927	-0.378663
H135	H	0.966199	-0.026015	-0.284661
H136	H	1.021247	-0.062520	-0.352584
H137	H	0.876997	-0.091093	-0.282925
H138	H	0.932029	-0.127597	-0.350856
H139	H	0.985320	-0.202843	-0.144890
O140	O	0.977704	-0.637052	0.157400
C141	C	0.976997	-0.676019	0.227853
H142	H	1.002581	-0.720722	0.204434
H143	H	0.910175	-0.676353	0.252400
C144	C	1.000506	-0.602845	0.332050
C145	C	1.031935	-0.657749	0.303289
H146	H	1.034391	-0.591574	0.378585
H147	H	1.000979	-0.576590	0.284585
H148	H	0.944822	-0.603129	0.352500
H149	H	1.087614	-0.657462	0.282830
H150	H	1.031472	-0.684003	0.350752
H151	H	0.982419	-0.368330	-0.224738
H152	H	0.980516	-0.476080	-0.224748
H153	H	0.975713	-0.749358	-0.144931
O154	O	0.977651	-0.636998	-0.157551
C155	C	0.976995	-0.675950	-0.228012
H156	H	0.949930	-0.715933	-0.204602
H157	H	1.043596	-0.688254	-0.252560
C158	C	0.956118	-0.598760	-0.332195
C159	C	0.922868	-0.647866	-0.303444
H160	H	0.922733	-0.581436	-0.378727
H161	H	0.956562	-0.572517	-0.284725
H162	H	1.011617	-0.609021	-0.352645
H163	H	0.867374	-0.637604	-0.282984
H164	H	0.922413	-0.674107	-0.350912
O165	O	0.980344	-0.480711	0.237252
C166	C	0.981038	-0.441758	0.307707
H167	H	0.955466	-0.397049	0.284287
H168	H	1.047854	-0.441434	0.332263
C169	C	0.957492	-0.514952	0.411897
C170	C	0.926077	-0.460041	0.383134
H171	H	0.923592	-0.526231	0.458427
H172	H	0.957027	-0.541196	0.364431
H173	H	1.013171	-0.514675	0.432355
H174	H	0.870403	-0.460320	0.362667
H175	H	0.926531	-0.433797	0.430599
O176	O	0.982291	-0.363665	0.237151
C177	C	0.910891	-0.322826	0.241916
H178	H	0.860248	-0.336201	0.196606
H179	H	0.927969	-0.279266	0.220471
C180	C	0.940442	-0.302565	0.392946
C181	C	0.878238	-0.318994	0.337301
H182	H	0.920301	-0.300199	0.451784
H183	H	0.988547	-0.330077	0.389735
H184	H	0.954667	-0.266267	0.375065
H185	H	0.864021	-0.355295	0.355176
H186	H	0.830129	-0.291488	0.340517
