data_functionalizedCrystal
_audit_creation_method	'MofGen! by Chris Wilmer'
_symmetry_space_group_name_H-M	'P1'
_symmetry_Int_Tables_number	1
_symmetry_cell_setting	triclinic
loop_
_symmetry_equiv_pos_as_xyz
  x,y,z
_cell_length_a	14.971491
_cell_length_b	10.654551
_cell_length_c	13.448316
_cell_angle_alpha	89.996249
_cell_angle_beta	89.991393
_cell_angle_gamma	84.050799
loop_
_atom_site_label
_atom_site_type_symbol
_atom_site_fract_x
_atom_site_fract_y
_atom_site_fract_z
O1	O	1.187836	0.163690	-0.082728
O2	O	1.687836	0.663690	0.417272
O3	O	0.927543	0.183282	-0.082720
O4	O	1.427543	0.683282	0.417280
O5	O	1.063673	-0.009317	-0.082725
O6	O	1.563673	0.490683	0.417275
O7	O	1.051705	0.356289	-0.082723
O8	O	1.551705	0.856289	0.417277
O9	O	1.063656	-0.009329	0.082659
O10	O	1.563656	0.490671	0.582659
O11	O	0.927526	0.183270	0.082664
O12	O	1.427526	0.683270	0.582664
O13	O	1.187818	0.163678	0.082656
O14	O	1.687818	0.663678	0.582656
Cu15	Cu	1.057670	0.173473	0.097761
Cu16	Cu	1.557670	0.673473	0.597761
Cu17	Cu	1.057691	0.173487	-0.097825
Cu18	Cu	1.557691	0.673487	0.402175
O19	O	1.051688	0.356277	0.082660
O20	O	1.551688	0.856277	0.582660
C21	C	0.894205	0.182398	-0.000027
C22	C	1.394205	0.682398	0.499973
C23	C	0.794894	0.179769	-0.000024
C24	C	1.294894	0.679769	0.499976
C25	C	1.062786	-0.056112	-0.000035
C26	C	1.562786	0.443888	0.499965
C27	C	1.060156	-0.195527	-0.000042
C28	C	1.560156	0.304473	0.499958
C29	C	0.367136	0.168431	-0.090198
C30	C	0.867136	0.668431	0.409802
C31	C	0.460449	0.170897	-0.090194
C32	C	0.960449	0.670897	0.409806
C33	C	0.507093	0.172132	-0.000040
C34	C	1.007093	0.672132	0.499960
C35	C	0.460418	0.170888	0.090116
C36	C	0.960418	0.670888	0.590116
C37	C	0.367107	0.168413	0.090111
C38	C	0.867107	0.668413	0.590111
C39	C	0.654908	0.176051	0.090120
C40	C	1.154908	0.676051	0.590120
C41	C	0.748226	0.178529	0.090125
C42	C	1.248226	0.678529	0.590125
C43	C	0.748251	0.178536	-0.090186
C44	C	1.248251	0.678536	0.409814
C45	C	0.654939	0.176060	-0.090191
C46	C	1.154939	0.676060	0.409809
C47	C	0.608271	0.174818	-0.000034
C48	C	1.108271	0.674818	0.499966
C49	C	1.058932	-0.261019	-0.090191
C50	C	1.558932	0.238981	0.409809
C51	C	1.056453	-0.392013	-0.090186
C52	C	1.556453	0.107987	0.409814
C53	C	1.056427	-0.392011	0.090125
C54	C	1.556427	0.107989	0.590125
C55	C	1.058899	-0.261019	0.090119
C56	C	1.558899	0.238981	0.590119
C57	C	1.058951	-0.261022	-0.194292
C58	C	1.558951	0.238978	0.305708
C59	C	1.056472	-0.392016	-0.194287
C60	C	1.556472	0.107984	0.305713
C61	C	1.221156	0.164561	-0.000039
C62	C	1.721156	0.664561	0.499961
C63	C	1.320468	0.167190	-0.000049
C64	C	1.820468	0.667190	0.499951
C65	C	1.052575	0.403072	-0.000031
C66	C	1.552575	0.903072	0.499969
C67	C	1.055205	0.542487	-0.000031
C68	C	1.555205	1.042487	0.499969
N69	N	1.057663	0.173462	0.235325
N70	N	1.557663	0.673462	0.735325
N71	N	1.057706	0.173488	-0.235389
N72	N	1.557706	0.673488	0.264611
C73	C	1.117960	0.088214	0.287363
C74	C	1.617960	0.588214	0.787363
C75	C	1.117966	0.088213	0.391466
C76	C	1.617966	0.588213	0.891466
C77	C	1.057677	0.173467	0.443529
C78	C	1.557677	0.673467	0.943529
C79	C	0.997373	0.258719	0.391484
C80	C	1.497373	0.758719	0.891484
C81	C	0.997364	0.258713	0.287383
C82	C	1.497364	0.758713	0.787383
C83	C	0.997398	0.258727	0.608464
C84	C	1.497398	0.758727	1.108464
C85	C	0.997408	0.258735	0.712572
C86	C	1.497408	0.758735	1.212572
C87	C	1.118000	0.088228	0.712548
C88	C	1.618000	0.588228	1.212548
C89	C	1.117991	0.088222	0.608446
C90	C	1.617991	0.588222	1.108446
C91	C	1.057687	0.173476	0.556408
C92	C	1.557687	0.673476	1.056408
H93	H	0.329165	0.167434	-0.163612
H94	H	0.829165	0.667434	0.336388
H95	H	0.498443	0.171900	-0.163603
H96	H	0.998443	0.671900	0.336397
Br97	Br	0.915584	0.374442	0.783222
Br98	Br	1.415584	0.874442	1.283222
H99	H	0.616912	0.175055	0.163535
H100	H	1.116912	0.675055	0.663535
Br101	Br	0.303772	0.166711	0.212462
Br102	Br	0.803772	0.666711	0.712462
H103	H	0.948290	0.328146	0.566098
H104	H	1.448290	0.828146	1.066098
H105	H	0.786252	0.179549	-0.163595
H106	H	1.286252	0.679549	0.336405
H107	H	0.498403	0.171886	0.163521
H108	H	0.998403	0.671886	0.663521
H109	H	0.616964	0.175063	-0.163602
H110	H	1.116964	0.675063	0.336398
Br111	Br	0.915544	0.374415	0.462137
Br112	Br	1.415544	0.874415	0.962137
Br113	Br	0.915522	0.374403	0.216759
Br114	Br	1.415522	0.874403	0.716759
Br115	Br	0.955941	-0.182765	-0.260915
Br116	Br	1.455941	0.317235	0.239085
H117	H	0.786199	0.179541	0.163537
H118	H	1.286199	0.679541	0.663537
H119	H	1.059891	-0.207699	0.163527
H120	H	1.559891	0.292301	0.663527
Br121	Br	0.947750	-0.440144	-0.248126
Br122	Br	1.447750	0.059856	0.251874
Br123	Br	1.054716	-0.480900	0.212479
Br124	Br	1.554716	0.019100	0.712479
H125	H	1.167086	0.018808	0.566057
H126	H	1.667086	0.518808	1.066057
H127	H	1.124191	-0.232151	-0.226593
H128	H	1.624191	0.267849	0.273407
Br129	Br	1.159502	-0.470281	-0.260900
Br130	Br	1.659502	0.029719	0.239100
Br131	Br	1.199792	-0.027485	0.216717
Br132	Br	1.699792	0.472515	0.716717
Br133	Br	1.199842	-0.027466	0.783174
Br134	Br	1.699842	0.472534	1.283174
Br135	Br	1.199796	-0.027486	0.462093
Br136	Br	1.699796	0.472514	0.962093
