data_functionalizedCrystal
_audit_creation_method	'MofGen! by Chris Wilmer'
_symmetry_space_group_name_H-M	'P1'
_symmetry_Int_Tables_number	1
_symmetry_cell_setting	triclinic
loop_
_symmetry_equiv_pos_as_xyz
  x,y,z
_cell_length_a	11.169417
_cell_length_b	18.050590
_cell_length_c	11.169409
_cell_angle_alpha	89.962075
_cell_angle_beta	89.979747
_cell_angle_gamma	90.019802
loop_
_atom_site_label
_atom_site_type_symbol
_atom_site_fract_x
_atom_site_fract_y
_atom_site_fract_z
Zn1	Zn	1.834903	-0.295575	-0.678486
Zn2	Zn	2.168236	0.037758	-0.345152
Zn3	Zn	2.501569	0.371092	-0.011819
Zn4	Zn	1.834761	-0.419790	-0.477783
Zn5	Zn	2.168094	-0.086457	-0.144449
Zn6	Zn	2.501427	0.246877	0.188884
Zn7	Zn	1.634186	-0.295621	-0.477821
Zn8	Zn	1.967519	0.037712	-0.144488
Zn9	Zn	2.300853	0.371046	0.188846
Zn10	Zn	1.634167	-0.419730	-0.678429
Zn11	Zn	1.967501	-0.086397	-0.345095
Zn12	Zn	2.300834	0.246936	-0.011762
O13	O	1.734504	-0.357679	-0.578130
O14	O	2.067837	-0.024346	-0.244796
O15	O	2.401171	0.308988	0.088537
O16	O	2.002833	-0.312058	-0.651870
O17	O	2.336167	0.021275	-0.318536
O18	O	2.669500	0.354609	0.014797
O19	O	1.808102	-0.403363	-0.309838
O20	O	2.141436	-0.070029	0.023495
O21	O	2.474769	0.263304	0.356829
O22	O	1.660879	-0.191690	-0.504480
O23	O	1.994212	0.141643	-0.171146
O24	O	2.327545	0.474976	0.162187
O25	O	2.002729	-0.403318	-0.504414
O26	O	2.336062	-0.069985	-0.171081
O27	O	2.669396	0.263348	0.162252
O28	O	1.808344	-0.191656	-0.651907
O29	O	2.141678	0.141677	-0.318574
O30	O	2.475011	0.475010	0.014760
O31	O	1.660741	-0.312136	-0.309866
O32	O	1.994074	0.021197	0.023467
O33	O	2.327408	0.354530	0.356800
O34	O	1.466234	-0.312079	-0.504424
O35	O	1.799567	0.021255	-0.171091
O36	O	2.132900	0.354588	0.162242
O37	O	1.660847	-0.403217	-0.846386
O38	O	1.994180	-0.069883	-0.513053
O39	O	2.327513	0.263450	-0.179720
O40	O	1.466220	-0.403261	-0.651810
O41	O	1.799553	-0.069928	-0.318477
O42	O	2.132887	0.263405	0.014857
O43	O	1.808326	-0.312000	-0.846428
O44	O	2.141660	0.021333	-0.513095
O45	O	2.474993	0.354666	-0.179761
O46	O	1.808084	-0.523707	-0.504359
O47	O	2.141418	-0.190373	-0.171026
O48	O	2.474751	0.142960	0.162308
O49	O	1.660709	-0.523663	-0.651773
O50	O	1.994042	-0.190330	-0.318439
O51	O	2.327376	0.143004	0.014894
C52	C	1.422679	-0.357669	-0.578116
C53	C	1.756013	-0.024336	-0.244783
C54	C	2.089346	0.308998	0.088551
C55	C	1.289279	-0.357683	-0.578138
C56	C	1.622613	-0.024349	-0.244805
C57	C	1.955946	0.308984	0.088528
C58	C	1.734412	-0.550631	-0.578082
C59	C	2.067745	-0.217298	-0.244748
C60	C	2.401078	0.116035	0.088585
C61	C	1.734482	-0.633177	-0.578101
C62	C	2.067815	-0.299844	-0.244768
C63	C	2.401149	0.033490	0.088565
C64	C	1.814791	-0.832624	-0.498050
C65	C	2.148125	-0.499291	-0.164716
C66	C	2.481458	-0.165958	0.168617
C67	C	1.844117	-0.881945	-0.607586
C68	C	2.177450	-0.548612	-0.274252
C69	C	2.510784	-0.215279	0.059081
C70	C	1.734550	-0.784307	-0.578149
C71	C	2.067884	-0.450974	-0.244816
C72	C	2.401217	-0.117641	0.088517
C73	C	1.705347	-0.882068	-0.468663
C74	C	2.038680	-0.548735	-0.135329
C75	C	2.372014	-0.215401	0.198004
C76	C	1.734618	-0.930292	-0.578186
C77	C	2.067952	-0.596959	-0.244853
C78	C	2.401285	-0.263626	0.088481
C79	C	1.763932	-0.832541	-0.687743
C80	C	2.097265	-0.499208	-0.354409
C81	C	2.430599	-0.165874	-0.021076
C82	C	1.625111	-0.832659	-0.548746
C83	C	1.958444	-0.499326	-0.215413
C84	C	2.291778	-0.165993	0.117921
C85	C	1.654395	-0.881958	-0.658357
C86	C	1.987728	-0.548625	-0.325024
C87	C	2.321062	-0.215291	0.008309
C88	C	1.734514	-0.700209	-0.578127
C89	C	2.067847	-0.366876	-0.244793
C90	C	2.401181	-0.033542	0.088540
C91	C	1.734654	-1.014389	-0.578221
C92	C	2.067988	-0.681056	-0.244888
C93	C	2.401321	-0.347722	0.088446
C94	C	2.047546	-0.357690	-0.578144
C95	C	2.380880	-0.024356	-0.244811
C96	C	2.714213	0.308977	0.088523
C97	C	2.180946	-0.357694	-0.578150
C98	C	2.514280	-0.024361	-0.244817
C99	C	2.847613	0.308973	0.088516
C100	C	1.734600	-0.357597	-0.891172
C101	C	2.067934	-0.024263	-0.557839
C102	C	2.401267	0.309070	-0.224506
C103	C	1.734641	-0.357562	-1.024572
C104	C	2.067975	-0.024228	-0.691239
C105	C	2.401308	0.309105	-0.357906
C106	C	1.734629	-0.163973	-0.578204
C107	C	2.067963	0.169360	-0.244871
C108	C	2.401296	0.502693	0.088463
C109	C	1.734683	-0.081428	-0.578236
C110	C	2.068016	0.251906	-0.244902
C111	C	2.401349	0.585239	0.088431
C112	C	1.734477	-0.357707	-0.266305
C113	C	2.067811	-0.024374	0.067028
C114	C	2.401144	0.308959	0.400362
C115	C	1.734669	-0.357533	-0.132905
C116	C	2.068002	-0.024200	0.200428
C117	C	2.401335	0.309133	0.533761
H118	H	1.882672	-0.810962	-0.430382
H119	H	2.216005	-0.477629	-0.097049
H120	H	2.549338	-0.144295	0.236285
H121	H	1.586567	-0.903483	-0.726189
H122	H	1.919900	-0.570150	-0.392856
H123	H	2.253233	-0.236816	-0.059522
H124	H	1.532558	-0.810992	-0.523820
H125	H	1.865891	-0.477659	-0.190487
H126	H	2.199225	-0.144325	0.142846
H127	H	1.680619	-0.903822	-0.376056
H128	H	2.013952	-0.570489	-0.042723
H129	H	2.347285	-0.237155	0.290610
H130	H	1.788568	-0.810879	-0.780429
H131	H	2.121902	-0.477546	-0.447096
H132	H	2.455235	-0.144212	-0.113762
F133	F	1.965128	-0.910232	-0.640140
F134	F	2.298461	-0.576898	-0.306807
F135	F	2.631795	-0.243565	0.026526
