data_functionalizedCrystal
_audit_creation_method	'MofGen! by Chris Wilmer'
_symmetry_space_group_name_H-M	'P1'
_symmetry_Int_Tables_number	1
_symmetry_cell_setting	triclinic
loop_
_symmetry_equiv_pos_as_xyz
  x,y,z
_cell_length_a	17.699077
_cell_length_b	19.188930
_cell_length_c	16.776229
_cell_angle_alpha	89.988225
_cell_angle_beta	89.993415
_cell_angle_gamma	83.212679
loop_
_atom_site_label
_atom_site_type_symbol
_atom_site_fract_x
_atom_site_fract_y
_atom_site_fract_z
O1	O	1.003965	0.088275	-0.066287
O2	O	1.503965	0.588275	0.433713
O3	O	0.783571	0.099766	-0.066292
O4	O	1.283571	0.599766	0.433708
O5	O	0.900128	-0.007628	-0.066273
O6	O	1.400128	0.492372	0.433727
O7	O	0.887408	0.195669	-0.066305
O8	O	1.387408	0.695669	0.433695
O9	O	0.900113	-0.007635	0.066303
O10	O	1.400113	0.492365	0.566303
O11	O	0.783556	0.099760	0.066285
O12	O	1.283556	0.599760	0.566285
O13	O	1.003950	0.088268	0.066290
O14	O	1.503950	0.588268	0.566290
Zn15	Zn	0.893750	0.094013	0.087337
Zn16	Zn	1.393750	0.594013	0.587337
Zn17	Zn	0.893770	0.094021	-0.087339
Zn18	Zn	1.393770	0.594021	0.412661
O19	O	0.887393	0.195662	0.066272
O20	O	1.387393	0.695662	0.566272
C21	C	0.755367	0.099352	-0.000004
C22	C	1.255367	0.599352	0.499996
C23	C	0.671350	0.098119	-0.000005
C24	C	1.171350	0.598119	0.499995
C25	C	0.631875	0.097534	0.072263
C26	C	1.131875	0.597534	0.572263
C27	C	0.552934	0.096364	0.072264
C28	C	1.052934	0.596364	0.572264
C29	C	0.513469	0.095784	-0.000004
C30	C	1.013469	0.595784	0.499996
C31	C	0.552950	0.096367	-0.072278
C32	C	1.052950	0.596367	0.427722
C33	C	0.631890	0.097531	-0.072278
C34	C	1.131890	0.597531	0.427722
C35	C	0.234592	0.091668	-0.072279
C36	C	0.734592	0.591668	0.427721
C37	C	0.155646	0.090505	-0.072273
C38	C	0.655646	0.590505	0.427727
C39	C	0.155637	0.090501	0.072264
C40	C	0.655637	0.590501	0.572264
C41	C	0.234577	0.091666	0.072263
C42	C	0.734577	0.591666	0.572263
C43	C	0.274051	0.092244	-0.000010
C44	C	0.774051	0.592244	0.499990
C45	C	0.359648	0.093512	-0.000010
C46	C	0.859648	0.593512	0.499990
C47	C	0.427872	0.094522	-0.000005
C48	C	0.927872	0.594522	0.499995
C49	C	0.899708	-0.033643	0.000017
C50	C	1.399708	0.466357	0.500017
C51	C	0.898472	-0.111149	0.000024
C52	C	1.398472	0.388851	0.500024
C53	C	0.966864	-0.155998	0.000029
C54	C	1.466864	0.344002	0.500029
C55	C	0.965702	-0.228823	0.000016
C56	C	1.465702	0.271177	0.500016
C57	C	0.896145	-0.256796	0.000014
C58	C	1.396145	0.243204	0.500014
C59	C	0.827744	-0.211937	0.000004
C60	C	1.327744	0.288063	0.500004
C61	C	0.828907	-0.139114	0.000009
C62	C	1.328907	0.360886	0.500009
N63	N	0.842971	-0.364862	0.045131
N64	N	1.342971	0.135138	0.545131
N65	N	0.841870	-0.434041	0.045129
N66	N	1.341870	0.065959	0.545129
C67	C	0.892634	-0.476208	-0.000002
C68	C	1.392634	0.023792	0.499998
N69	N	0.944553	-0.446583	-0.045119
N70	N	1.444553	0.053417	0.454881
N71	N	0.945656	-0.377398	-0.045113
N72	N	1.445656	0.122602	0.454887
C73	C	0.894875	-0.335760	0.000009
C74	C	1.394875	0.164240	0.500009
C75	C	0.959771	-0.600023	-0.000012
C76	C	1.459771	-0.100023	0.499988
C77	C	0.958607	-0.672849	-0.000029
C78	C	1.458607	-0.172849	0.499971
C79	C	0.820646	-0.655962	-0.000033
C80	C	1.320646	-0.155962	0.499967
C81	C	0.821813	-0.583137	-0.000024
C82	C	1.321813	-0.083137	0.499976
C83	C	0.891378	-0.555173	-0.000009
C84	C	1.391378	-0.055173	0.499991
C85	C	1.032154	0.088682	0.000000
C86	C	1.532154	0.588682	0.500000
C87	C	1.116171	0.089915	-0.000004
C88	C	1.616171	0.589915	0.499996
C89	C	0.887812	0.221677	-0.000021
C90	C	1.387812	0.721677	0.499979
C91	C	0.889049	0.299183	-0.000033
C92	C	1.389049	0.799183	0.499967
N93	N	0.893742	0.094006	0.206548
N94	N	1.393742	0.594006	0.706548
N95	N	0.893785	0.094022	-0.206550
N96	N	1.393785	0.594022	0.293450
C97	C	0.945369	0.046472	0.248273
C98	C	1.445369	0.546472	0.748273
C99	C	0.945373	0.046471	0.331725
C100	C	1.445373	0.546471	0.831725
C101	C	0.893753	0.094009	0.373451
C102	C	1.393753	0.594009	0.873451
C103	C	0.842121	0.141546	0.331720
C104	C	1.342121	0.641546	0.831720
C105	C	0.842113	0.141543	0.248269
C106	C	1.342113	0.641543	0.748269
C107	C	0.842148	0.141560	0.668267
C108	C	1.342148	0.641560	1.168267
C109	C	0.842161	0.141561	0.751724
C110	C	1.342161	0.641561	1.251724
C111	C	0.945408	0.046488	0.751723
C112	C	1.445408	0.546488	1.251723
C113	C	0.945401	0.046485	0.668272
C114	C	1.445401	0.546485	1.168272
C115	C	0.893766	0.094019	0.626549
C116	C	1.393766	0.594019	1.126549
C117	C	0.893761	0.094018	0.536060
C118	C	1.393761	0.594018	1.036060
C119	C	0.893761	0.094014	0.463938
C120	C	1.393761	0.594014	0.963938
H121	H	0.266723	0.092137	-0.131128
H122	H	0.766723	0.592137	0.368872
H123	H	0.764011	-0.678737	-0.000039
H124	H	1.264011	-0.178737	0.499961
N125	N	0.751944	-0.537331	-0.000026
N126	N	1.251944	-0.037331	0.499974
N127	N	0.689843	-0.562313	-0.000031
N128	N	1.189843	-0.062313	0.499969
H129	H	0.640494	-0.529963	-0.000035
H130	H	1.140494	-0.029963	0.499965
N131	N	0.115323	0.089898	-0.146090
N132	N	0.615323	0.589898	0.353910
N133	N	0.044841	0.088857	-0.146075
N134	N	0.544841	0.588857	0.353925
H135	H	0.016361	0.088428	-0.198205
H136	H	0.516361	0.588428	0.301795
N137	N	0.672226	0.098138	-0.146092
N138	N	1.172226	0.598138	0.353908
N139	N	0.742707	0.099178	-0.146083
N140	N	1.242707	0.599178	0.353917
H141	H	0.771196	0.099604	-0.198215
H142	H	1.271196	0.599604	0.301785
H143	H	0.800123	0.180273	0.785695
H144	H	1.300123	0.680273	1.285695
H145	H	0.987411	0.007764	0.365698
H146	H	1.487411	0.507764	0.865698
N147	N	0.998098	-0.002100	0.205670
N148	N	1.498098	0.497900	0.705670
N149	N	1.045019	0.019961	0.159086
N150	N	1.545019	0.519961	0.659086
H151	H	1.082259	-0.014352	0.129007
H152	H	1.582259	0.485648	0.629007
H153	H	0.987437	0.007777	0.634302
H154	H	1.487437	0.507777	1.134302
H155	H	0.987450	0.007781	0.785704
H156	H	1.487450	0.507781	1.285704
H157	H	1.021397	-0.265345	0.000018
H158	H	1.521397	0.234655	0.500018
H159	H	0.123487	0.090026	0.131112
H160	H	0.623487	0.590026	0.631112
N161	N	0.789399	0.190115	0.625667
N162	N	1.289399	0.690115	1.125667
N163	N	0.743315	0.232554	0.662934
N164	N	1.243315	0.732554	1.162934
H165	H	0.706056	0.266849	0.632846
H166	H	1.206056	0.766849	1.132846
H167	H	1.014302	-0.709365	-0.000029
H168	H	1.514302	-0.209365	0.499971
N169	N	0.759044	-0.093297	-0.000008
N170	N	1.259044	0.406703	0.499992
N171	N	0.712738	-0.095762	-0.055899
N172	N	1.212738	0.404238	0.444101
H173	H	0.663396	-0.063402	-0.055912
H174	H	1.163396	0.436598	0.444088
H175	H	0.800087	0.180250	0.365698
H176	H	1.300087	0.680250	0.865698
H177	H	0.800072	0.180250	0.214297
H178	H	1.300072	0.680250	0.714297
N179	N	0.512641	0.095758	-0.146099
N180	N	1.012641	0.595758	0.353901
N181	N	0.475737	0.045911	-0.162213
N182	N	0.975737	0.545911	0.337787
H183	H	0.447270	0.045482	-0.214351
H184	H	0.947270	0.545482	0.285649
N185	N	0.672170	0.098143	0.146092
N186	N	1.172170	0.598143	0.646092
N187	N	0.636910	0.097626	0.210612
N188	N	1.136910	0.597626	0.710612
H189	H	0.665366	0.098058	0.262757
H190	H	1.165366	0.598058	0.762757
N191	N	1.037927	-0.127445	0.000042
N192	N	1.537927	0.372555	0.500042
N193	N	1.098987	-0.167503	0.000045
N194	N	1.598987	0.332497	0.500045
H195	H	1.149176	-0.147337	0.000052
H196	H	1.649176	0.352663	0.500052
H197	H	0.520799	0.095876	0.131112
H198	H	1.020799	0.595876	0.631112
N199	N	0.756693	-0.240509	0.000024
N200	N	1.256693	0.259491	0.500024
N201	N	0.710634	-0.226735	0.055910
N202	N	1.210634	0.273265	0.555910
H203	H	0.660453	-0.246914	0.055923
H204	H	1.160453	0.253086	0.555923
N205	N	1.030825	-0.571450	0.000012
N206	N	1.530825	-0.071450	0.500012
N207	N	1.076872	-0.585249	0.055899
N208	N	1.576872	-0.085249	0.555899
H209	H	1.127054	-0.565070	0.055918
H210	H	1.627054	-0.065070	0.555918
N211	N	0.274876	0.092264	0.146091
N212	N	0.774876	0.592264	0.646091
N213	N	0.239621	0.091741	0.210613
N214	N	0.739621	0.591741	0.710613
H215	H	0.268081	0.092161	0.262756
H216	H	0.768081	0.592161	0.762756
