data_functionalizedCrystal
_audit_creation_method	'MofGen! by Chris Wilmer'
_symmetry_space_group_name_H-M	'P1'
_symmetry_Int_Tables_number	1
_symmetry_cell_setting	triclinic
loop_
_symmetry_equiv_pos_as_xyz
  x,y,z
_cell_length_a	21.295418
_cell_length_b	25.639240
_cell_length_c	21.295411
_cell_angle_alpha	90.026709
_cell_angle_beta	90.043738
_cell_angle_gamma	90.048568
loop_
_atom_site_label
_atom_site_type_symbol
_atom_site_fract_x
_atom_site_fract_y
_atom_site_fract_z
Zn1	Zn	0.962346	-0.207990	0.356211
Zn2	Zn	0.962244	-0.295410	0.250928
Zn3	Zn	0.857069	-0.208014	0.250921
Zn4	Zn	0.857034	-0.295420	0.356124
O5	O	0.909673	-0.251708	0.303546
O6	O	1.050422	-0.219572	0.342285
O7	O	0.948264	-0.283822	0.162837
O8	O	0.871091	-0.134846	0.264922
O9	O	1.050347	-0.283799	0.264933
O10	O	0.948438	-0.134828	0.342278
O11	O	0.870993	-0.219613	0.162833
O12	O	0.768975	-0.219623	0.264837
O13	O	0.871032	-0.283816	0.444225
O14	O	0.768950	-0.283840	0.342129
O15	O	0.948404	-0.219582	0.444289
O16	O	0.948231	-0.368576	0.264848
O17	O	0.870934	-0.368584	0.342136
C18	C	0.746122	-0.251736	0.303474
C19	C	0.676154	-0.251760	0.303458
C20	C	0.909584	-0.387551	0.303497
C21	C	0.909604	-0.445665	0.303497
C22	C	0.643290	-0.285242	0.343643
C23	C	0.577548	-0.285229	0.343672
C24	C	0.544671	-0.251740	0.303503
C25	C	0.577543	-0.218252	0.263314
C26	C	0.643284	-0.218262	0.263292
N27	N	0.441395	-0.247648	0.248446
N28	N	0.378944	-0.247641	0.248469
C29	C	0.346596	-0.251707	0.303570
N30	N	0.379060	-0.255789	0.358647
N31	N	0.441517	-0.255798	0.358623
C32	C	0.473386	-0.251725	0.303523
C33	C	0.242448	-0.285176	0.343789
C34	C	0.176704	-0.285160	0.343819
C35	C	0.176700	-0.218185	0.263456
C36	C	0.242442	-0.218199	0.263432
C37	C	0.275312	-0.251697	0.303598
C38	C	0.949968	-0.805980	0.343898
C39	C	0.949986	-0.860584	0.343911
O40	O	0.984199	-0.888781	0.378211
N41	N	0.909761	-0.887947	0.303607
C42	C	0.869510	-0.860703	0.263292
O43	O	0.835296	-0.888991	0.229012
C44	C	0.869488	-0.806100	0.263283
C45	C	0.909721	-0.778740	0.303585
C46	C	0.990197	-0.778620	0.384197
C47	C	0.990179	-0.724019	0.384184
C48	C	0.949932	-0.696779	0.343871
C49	C	0.909703	-0.724139	0.303571
C50	C	0.829234	-0.778857	0.222972
C51	C	0.829216	-0.724250	0.222966
C52	C	0.869449	-0.696890	0.263268
C53	C	0.869438	-0.642298	0.263244
N54	N	0.909664	-0.614935	0.303548
C55	C	0.949911	-0.642176	0.343861
C56	C	0.869557	-0.975374	0.263315
C57	C	0.869581	-1.029976	0.263321
C58	C	0.950057	-1.029854	0.343941
C59	C	0.950035	-0.975250	0.343931
C60	C	0.909782	-0.948011	0.303619
C61	C	0.949870	-0.527511	0.343829
C62	C	0.949851	-0.472905	0.343810
C63	C	0.869373	-0.473033	0.263193
C64	C	0.869394	-0.527633	0.263209
C65	C	0.909645	-0.554871	0.303532
O66	O	0.835241	-0.614068	0.228964
O67	O	0.984113	-0.613881	0.378142
C68	C	1.073864	-0.251681	0.303619
C69	C	1.143832	-0.251670	0.303650
C70	C	0.909726	-0.251697	0.467736
C71	C	0.909748	-0.251693	0.537705
C72	C	0.909780	-0.115335	0.303609
C73	C	0.909825	-0.057221	0.303636
C74	C	0.909658	-0.251682	0.139995
C75	C	0.909757	-0.251539	0.070027
C76	C	0.950034	-0.218244	0.570606
C77	C	0.950033	-0.218221	0.636348
C78	C	0.909753	-0.251657	0.669187
C79	C	0.869459	-0.285108	0.636278
C80	C	0.869457	-0.285126	0.570537
N81	N	0.904894	-0.297396	0.772396
N82	N	0.904900	-0.297377	0.834848
C83	C	0.909757	-0.251604	0.867262
N84	N	0.914620	-0.205848	0.834866
N85	N	0.914617	-0.205867	0.772408
C86	C	0.909751	-0.251641	0.740473
C87	C	0.950044	-0.218128	0.971449
C88	C	0.950039	-0.218104	1.037192
C89	C	0.869468	-0.284995	1.037121
C90	C	0.869470	-0.285014	0.971379
C91	C	0.909761	-0.251581	0.938546
H92	H	0.670049	-0.312519	0.376350
C93	C	0.994106	-0.442810	0.388144
H94	H	0.988338	-0.406388	0.382361
H95	H	0.984876	-0.451745	0.430429
H96	H	1.036410	-0.451726	0.378982
C97	C	0.825149	-0.321928	0.534344
H98	H	0.801162	-0.341841	0.563315
H99	H	0.797737	-0.301944	0.508676
H100	H	0.849221	-0.344713	0.508719
H101	H	1.022938	-0.701746	0.417003
H102	H	0.836779	-0.953198	0.230483
H103	H	0.550770	-0.190983	0.230610
C104	C	0.541390	-0.322030	0.387914
H105	H	0.570382	-0.341974	0.411841
H106	H	0.515818	-0.302032	0.415385
H107	H	0.515671	-0.344788	0.363817
H108	H	0.836639	-0.549911	0.230387
C109	C	1.034476	-0.808576	0.428542
H110	H	1.058431	-0.784454	0.452534
H111	H	1.010400	-0.829889	0.455949
H112	H	1.061929	-0.829859	0.404495
H113	H	0.670041	-0.190995	0.230567
C114	C	0.994351	-0.181345	0.935331
H115	H	1.018336	-0.161414	0.964344
H116	H	1.021765	-0.201344	0.909700
H117	H	0.970279	-0.158576	0.909673
C118	C	0.140544	-0.181341	0.219279
H119	H	0.096683	-0.186129	0.225047
H120	H	0.151377	-0.146226	0.228575
H121	H	0.151257	-0.188941	0.176957
C122	C	0.278607	-0.322017	0.387976
H123	H	0.249616	-0.341950	0.411921
H124	H	0.304197	-0.344774	0.363835
H125	H	0.304308	-0.302050	0.415442
H126	H	0.836606	-0.450845	0.230368
H127	H	0.269200	-0.190937	0.230705
C128	C	0.994347	-0.181465	0.534494
H129	H	1.018336	-0.161538	0.563508
H130	H	1.021758	-0.201467	0.508863
H131	H	0.970280	-0.158692	0.508837
H132	H	0.982843	-0.190863	1.063979
C133	C	0.994349	-0.181428	0.672550
H134	H	0.988576	-0.186205	0.716405
H135	H	1.036637	-0.189077	0.661807
H136	H	0.985162	-0.146300	0.661777
H137	H	0.836665	-0.312213	1.063858
C138	C	0.994151	-0.557465	0.388178
H139	H	1.018109	-0.533343	0.412169
H140	H	0.970073	-0.578775	0.415585
H141	H	1.021601	-0.578750	0.364132
C142	C	0.825152	-0.321887	0.672395
H143	H	0.801154	-0.341808	0.643382
H144	H	0.849214	-0.344657	0.698054
H145	H	0.797739	-0.301880	0.698024
H146	H	0.982796	-0.952977	0.376749
H147	H	0.149947	-0.312424	0.376547
C148	C	0.994324	-1.059825	0.388288
H149	H	0.988567	-1.096263	0.382523
H150	H	1.036623	-1.050844	0.379131
H151	H	0.985082	-1.050865	0.430573
H152	H	0.836669	-0.312254	0.944590
H153	H	0.836826	-1.052248	0.230496
C154	C	0.784973	-0.808941	0.178643
H155	H	0.760998	-0.784890	0.154643
H156	H	0.809064	-0.830236	0.151244
H157	H	0.757537	-0.830252	0.202699
H158	H	0.796435	-0.702074	0.190140
