data_functionalizedCrystal
_audit_creation_method	'MofGen! by Chris Wilmer'
_symmetry_space_group_name_H-M	'P1'
_symmetry_Int_Tables_number	1
_symmetry_cell_setting	triclinic
loop_
_symmetry_equiv_pos_as_xyz
  x,y,z
_cell_length_a	12.759401
_cell_length_b	12.759400
_cell_length_c	12.759393
_cell_angle_alpha	90.031564
_cell_angle_beta	90.022649
_cell_angle_gamma	90.012057
loop_
_atom_site_label
_atom_site_type_symbol
_atom_site_fract_x
_atom_site_fract_y
_atom_site_fract_z
Zn1	Zn	-1.606256	0.418278	-0.594098
Zn2	Zn	-1.606150	0.593997	-0.418418
Zn3	Zn	-1.430557	0.418324	-0.418424
Zn4	Zn	-1.430546	0.593907	-0.594047
O5	O	-1.518377	0.506127	-0.506247
O6	O	-1.753263	0.441605	-0.570812
O7	O	-1.582818	0.570750	-0.271398
O8	O	-1.453913	0.271297	-0.441752
O9	O	-1.753185	0.570705	-0.441741
O10	O	-1.582998	0.271263	-0.570818
O11	O	-1.453811	0.441685	-0.271402
O12	O	-1.283535	0.441598	-0.441702
O13	O	-1.453894	0.570553	-0.741074
O14	O	-1.283527	0.570598	-0.570731
O15	O	-1.582987	0.441519	-0.741112
O16	O	-1.582807	0.741006	-0.441691
O17	O	-1.453791	0.740940	-0.570725
C18	C	-1.245410	0.506094	-0.506213
C19	C	-1.128633	0.506105	-0.506223
C20	C	-1.073745	0.438845	-0.439158
C21	C	-0.964021	0.438867	-0.439166
C22	C	-0.964083	0.573412	-0.573312
C23	C	-1.073805	0.573395	-0.573298
C24	C	-1.073708	0.361163	-0.361713
C25	C	-0.963984	0.361184	-0.361721
C26	C	-1.518315	0.779094	-0.506225
C27	C	-1.518384	0.895871	-0.506250
C28	C	-1.518451	0.506021	-0.780280
C29	C	-1.518482	0.505975	-0.897057
C30	C	-0.792411	0.506152	-0.506268
C31	C	-0.909187	0.506144	-0.506245
C32	C	-1.518468	0.232093	-0.506292
C33	C	-1.518507	0.115317	-0.506311
C34	C	-1.585637	0.950732	-0.439137
C35	C	-1.585702	1.060456	-0.439169
C36	C	-1.451252	1.060448	-0.573432
C37	C	-1.451193	0.950726	-0.573404
C38	C	-1.663258	0.950738	-0.361618
C39	C	-1.663322	1.060462	-0.361651
C40	C	-1.585710	0.438781	-0.951940
C41	C	-1.585735	0.438743	-1.061664
C42	C	-1.451301	0.573103	-1.061612
C43	C	-1.451272	0.573135	-0.951890
C44	C	-1.663328	0.361212	-0.951971
C45	C	-1.663353	0.361174	-1.061695
C46	C	-1.518364	0.506156	-0.233279
C47	C	-1.518537	0.505906	-0.116503
H48	H	-0.934220	0.279844	-0.383656
C49	C	-1.771770	0.911125	-0.390837
C50	C	-1.838207	0.996588	-0.408737
C51	C	-1.938168	0.960138	-0.435668
H52	H	-1.798948	0.869814	-0.335215
H53	H	-1.767335	0.869749	-0.452603
H54	H	-1.842645	1.037948	-0.346979
H55	H	-1.811063	1.037908	-0.464363
H56	H	-1.933733	0.918762	-0.497434
H57	H	-1.965335	0.918827	-0.380043
H58	H	-1.983255	1.018118	-0.447827
H59	H	-1.396579	0.627780	-1.106271
H60	H	-1.634133	0.916789	-0.284290
C61	C	-1.634224	0.252671	-0.912488
C62	C	-1.616451	0.186244	-0.998029
C63	C	-1.589624	0.086257	-0.961698
H64	H	-1.689857	0.225519	-0.871165
H65	H	-1.572430	0.257058	-0.871149
H66	H	-1.678237	0.181855	-1.039350
H67	H	-1.560814	0.213363	-1.039361
H68	H	-1.527830	0.090643	-0.920360
H69	H	-1.645261	0.059115	-0.920375
H70	H	-1.577553	0.041177	-1.019731
H71	H	-1.396440	0.906058	-0.628062
C72	C	-1.771900	0.390316	-1.101214
C73	C	-1.838271	0.408179	-1.015694
C74	C	-1.938262	0.435041	-1.052058
H75	H	-1.799106	0.334673	-1.142567
H76	H	-1.767500	0.452082	-1.142530
H77	H	-1.842674	0.346421	-0.974395
H78	H	-1.811099	0.463827	-0.974333
H79	H	-1.933863	0.496807	-1.093374
H80	H	-1.965458	0.379394	-1.093410
H81	H	-1.983305	0.447174	-0.994039
H82	H	-1.641585	1.090323	-0.280269
H83	H	-1.740599	0.390385	-0.917941
C84	C	-1.113304	0.390305	-0.253202
C85	C	-1.076597	0.490240	-0.226518
C86	C	-1.113064	0.517127	-0.126576
H87	H	-1.088490	0.340721	-0.203546
H88	H	-1.187763	0.390355	-0.253170
H89	H	-1.002153	0.490182	-0.226542
H90	H	-1.101408	0.539847	-0.276147
H91	H	-1.187523	0.517178	-0.126544
H92	H	-1.088248	0.467537	-0.076929
H93	H	-1.088172	0.584939	-0.108462
C94	C	-1.378340	1.120197	-0.646220
C95	C	-1.392768	1.228030	-0.631866
C96	C	-1.325609	1.283100	-0.698891
H97	H	-1.393603	1.102270	-0.716862
H98	H	-1.307724	1.102343	-0.630764
H99	H	-1.463368	1.245876	-0.647329
H100	H	-1.377498	1.245988	-0.561238
H101	H	-1.254993	1.265247	-0.683435
H102	H	-1.340877	1.265165	-0.769529
H103	H	-1.335382	1.356270	-0.689154
H104	H	-1.740626	1.094410	-0.390868
H105	H	-1.634239	0.283864	-1.095741
C106	C	-1.133210	0.646470	-0.646218
C107	C	-1.061707	0.705380	-0.704978
C108	C	-1.116392	0.772702	-0.772173
H109	H	-1.175992	0.692281	-0.606054
H110	H	-1.176018	0.606359	-0.692121
H111	H	-1.018918	0.745489	-0.659081
H112	H	-1.018923	0.659597	-0.745163
H113	H	-1.159199	0.732590	-0.818076
H114	H	-1.159172	0.818506	-0.732001
H115	H	-1.067886	0.812674	-0.812057
C116	C	-0.904364	0.646347	-0.646099
C117	C	-0.796525	0.631952	-0.631774
C118	C	-0.741482	0.699112	-0.698820
H119	H	-0.922210	0.716958	-0.630665
H120	H	-0.922320	0.631040	-0.716737
H121	H	-0.778576	0.647265	-0.561152
H122	H	-0.778648	0.561354	-0.647216
H123	H	-0.759438	0.683805	-0.769458
H124	H	-0.759337	0.769719	-0.683381
H125	H	-0.668308	0.689347	-0.689117
H126	H	-1.396525	0.627847	-0.907208
C127	C	-1.118976	0.258141	-0.400911
C128	C	-1.084972	0.240025	-0.503653
C129	C	-1.126639	0.145125	-0.539791
H130	H	-1.193332	0.261562	-0.399656
H131	H	-1.095932	0.202627	-0.356992
H132	H	-1.108021	0.295525	-0.547561
H133	H	-1.010621	0.236584	-0.504936
H134	H	-1.103595	0.089610	-0.495871
H135	H	-1.200994	0.148554	-0.538529
H136	H	-1.103566	0.132816	-0.609500
H137	H	-0.929912	0.390241	-0.284376
