data_functionalizedCrystal
_audit_creation_method	'MofGen! by Chris Wilmer'
_symmetry_space_group_name_H-M	'P1'
_symmetry_Int_Tables_number	1
_symmetry_cell_setting	triclinic
loop_
_symmetry_equiv_pos_as_xyz
  x,y,z
_cell_length_a	21.395362
_cell_length_b	19.805405
_cell_length_c	21.395355
_cell_angle_alpha	89.981337
_cell_angle_beta	90.043940
_cell_angle_gamma	89.950948
loop_
_atom_site_label
_atom_site_type_symbol
_atom_site_fract_x
_atom_site_fract_y
_atom_site_fract_z
Zn1	Zn	0.957849	0.269255	0.354585
Zn2	Zn	0.957747	0.382425	0.249807
Zn3	Zn	0.853064	0.269286	0.249786
Zn4	Zn	0.853028	0.382439	0.354512
O5	O	0.905422	0.325851	0.302173
O6	O	1.045513	0.284248	0.340725
O7	O	0.943832	0.367424	0.162126
O8	O	0.867021	0.174565	0.263710
O9	O	1.045438	0.367393	0.263746
O10	O	0.944006	0.174542	0.340705
O11	O	0.866922	0.284302	0.162111
O12	O	0.765381	0.284315	0.263639
O13	O	0.866961	0.367417	0.442200
O14	O	0.765355	0.367448	0.340580
O15	O	0.943972	0.284261	0.442253
O16	O	0.943798	0.477143	0.263675
O17	O	0.866862	0.477153	0.340601
C18	C	0.742634	0.325887	0.302100
C19	C	0.672993	0.325918	0.302084
C20	C	0.640283	0.369263	0.342087
C21	C	0.574847	0.369246	0.342115
C22	C	0.542125	0.325892	0.302128
C23	C	0.574843	0.282539	0.262122
C24	C	0.640277	0.282553	0.262100
C25	C	0.438400	0.320440	0.245723
C26	C	0.372967	0.320431	0.245744
C27	C	0.340304	0.325848	0.302197
C28	C	0.373082	0.331288	0.358631
C29	C	0.438516	0.331301	0.358609
C30	C	0.471172	0.325873	0.302148
C31	C	0.236641	0.369177	0.342235
C32	C	0.171205	0.369156	0.342264
C33	C	0.171201	0.282452	0.262265
C34	C	0.236637	0.282470	0.262242
C35	C	0.269353	0.325836	0.302226
C36	C	0.905332	0.501707	0.302146
C37	C	0.905351	0.576939	0.302155
C38	C	0.945410	0.612213	0.342277
C39	C	0.945425	0.682901	0.342287
C40	C	0.905384	0.718315	0.302172
C41	C	0.865321	0.683036	0.262048
C42	C	0.865303	0.612349	0.262042
C43	C	0.865392	0.968109	0.262073
C44	C	0.865414	1.038801	0.262082
C45	C	0.945514	1.038662	0.342319
C46	C	0.945496	0.967975	0.342313
C47	C	0.905431	0.932702	0.302192
C48	C	0.905414	0.856054	0.302182
C49	C	0.905404	0.794962	0.302178
C50	C	1.068845	0.325816	0.302246
C51	C	1.138487	0.325800	0.302277
C52	C	0.905474	0.325837	0.465596
C53	C	0.905496	0.325831	0.535237
C54	C	0.905503	1.149308	0.302207
C55	C	0.905471	1.074076	0.302207
C56	C	0.905406	0.325816	0.139385
C57	C	0.905505	0.325631	0.069744
C58	C	0.945594	0.282530	0.567979
C59	C	0.945593	0.282501	0.633415
C60	C	0.905501	0.325785	0.666106
C61	C	0.865395	0.369089	0.633356
C62	C	0.865393	0.369112	0.567921
C63	C	0.900523	0.386731	0.769769
C64	C	0.900529	0.386709	0.835202
C65	C	0.905505	0.325714	0.867926
C66	C	0.910487	0.264738	0.835210
C67	C	0.910484	0.264762	0.769775
C68	C	0.905499	0.325765	0.737058
C69	C	0.945604	0.282378	0.971621
C70	C	0.945599	0.282347	1.037058
C71	C	0.865404	0.368941	1.036997
C72	C	0.865406	0.368966	0.971562
C73	C	0.905509	0.325685	0.938878
H74	H	0.346285	0.316007	0.199793
H75	H	0.832805	1.067633	0.229414
H76	H	0.978103	0.939143	0.374976
H77	H	0.832737	0.404372	0.541263
H78	H	0.896303	0.436388	0.743131
H79	H	0.914539	0.215070	0.861852
O80	O	0.135910	0.235695	0.219136
H81	H	0.148527	0.182591	0.229969
H82	H	0.978135	1.067389	0.374990
O83	O	0.675570	0.416031	0.385214
H84	H	0.705449	0.385794	0.417129
O85	O	0.822194	0.930068	0.218790
H86	H	0.794364	0.966571	0.190889
O87	O	0.822140	0.721226	0.218770
H88	H	0.828890	0.776306	0.225506
O89	O	0.473872	0.337153	0.419471
H90	H	0.440172	0.340911	0.458734
H91	H	0.978244	0.247237	0.660079
H92	H	0.978249	0.247287	0.541372
H93	H	0.832682	0.583629	0.229371
O94	O	0.135924	0.415907	0.385417
H95	H	0.084927	0.408607	0.378723
H96	H	0.914539	0.215113	0.743140
O97	O	0.337864	0.337125	0.419528
H98	H	0.286857	0.336192	0.410066
O99	O	0.539568	0.416026	0.385248
H100	H	0.552190	0.404525	0.434443
H101	H	0.263270	0.247178	0.229663
H102	H	0.548196	0.247239	0.229566
H103	H	0.978255	0.247132	0.945008
O104	O	0.988850	0.235643	1.072378
H105	H	1.016739	0.205559	1.038654
O106	O	0.822159	0.415628	1.072246
H107	H	0.828898	0.408340	1.123248
H108	H	0.832758	0.404230	0.944903
O109	O	0.675564	0.235814	0.218940
H110	H	0.641819	0.205668	0.191133
O111	O	0.895150	0.452470	0.870489
H112	H	0.891674	0.494886	0.836743
O113	O	0.988603	0.574018	0.385539
H114	H	1.016458	0.610425	0.413442
O115	O	0.822150	0.415774	0.668609
H116	H	0.828891	0.408488	0.719611
H117	H	0.263280	0.404485	0.374795
H118	H	0.464989	0.316026	0.199749
O119	O	0.988632	0.720950	0.385561
H120	H	1.016477	0.684449	0.413448
