data_functionalizedCrystal
_audit_creation_method	'MofGen! by Chris Wilmer'
_symmetry_space_group_name_H-M	'P1'
_symmetry_Int_Tables_number	1
_symmetry_cell_setting	triclinic
loop_
_symmetry_equiv_pos_as_xyz
  x,y,z
_cell_length_a	10.723024
_cell_length_b	11.792241
_cell_length_c	9.198806
_cell_angle_alpha	89.996670
_cell_angle_beta	89.996352
_cell_angle_gamma	84.330643
loop_
_atom_site_label
_atom_site_type_symbol
_atom_site_fract_x
_atom_site_fract_y
_atom_site_fract_z
O1	O	1.656767	0.159192	-0.120884
O2	O	1.293574	0.174430	-0.120889
O3	O	1.483984	0.001660	-0.120876
O4	O	1.466357	0.331962	-0.120897
O5	O	1.483969	0.001659	0.120909
O6	O	1.293559	0.174430	0.120896
O7	O	1.656751	0.159192	0.120901
Cu8	Cu	1.475154	0.166811	0.142976
Cu9	Cu	1.475172	0.166811	-0.142963
O10	O	1.466341	0.331962	0.120889
C11	C	1.247070	0.173321	0.000003
C12	C	1.108524	0.170003	0.000002
C13	C	1.033286	0.266676	-0.000005
C14	C	0.890091	0.263249	-0.000007
C15	C	1.482869	-0.040634	0.000016
C16	C	1.479555	-0.166655	0.000015
C17	C	1.473461	-0.397380	-0.000010
C18	C	1.476847	-0.268988	0.000004
C19	C	1.703256	0.160301	0.000006
C20	C	1.841801	0.163619	-0.000002
C21	C	1.467456	0.374255	-0.000007
C22	C	1.470770	0.500276	-0.000015
N23	N	1.475150	0.166810	0.344090
N24	N	1.475185	0.166803	-0.344077
C25	C	1.555099	0.093948	0.416292
C26	C	1.555118	0.093944	0.583704
H27	H	1.074882	0.351978	-0.000002
H28	H	0.906445	0.080854	-0.000005
O29	O	1.059060	0.068163	-0.000188
C30	C	1.099390	0.006065	-0.125427
H31	H	1.189935	0.037586	-0.167177
H32	H	1.024173	0.018718	-0.213113
C33	C	1.011531	-0.160153	-0.036107
C34	C	1.122746	-0.121445	-0.087377
H35	H	1.025933	-0.238808	-0.012640
H36	H	0.984355	-0.118316	0.048267
H37	H	0.948861	-0.149599	-0.109187
H38	H	1.185408	-0.131986	-0.014291
H39	H	1.149933	-0.163287	-0.171738
H40	H	0.825440	0.346009	-0.000019
H41	H	1.623528	0.031567	0.354171
O42	O	1.636723	0.019365	0.657610
C43	C	1.615331	-0.093105	0.620563
H44	H	1.567299	-0.093322	0.510023
H45	H	1.552792	-0.128487	0.706211
C46	C	1.800324	-0.167609	0.749487
C47	C	1.741339	-0.167876	0.613714
H48	H	1.878050	-0.213733	0.745268
H49	H	1.814734	-0.091836	0.774451
H50	H	1.748195	-0.197091	0.820845
H51	H	1.793461	-0.138381	0.542362
H52	H	1.726941	-0.243645	0.588737
O53	O	1.393693	0.241279	0.581710
C54	C	1.461289	0.311625	0.493679
H55	H	1.558534	0.266979	0.471005
H56	H	1.470549	0.395578	0.552247
C57	C	1.271816	0.390207	0.376878
C58	C	1.391251	0.335367	0.349020
H59	H	1.228612	0.404858	0.287648
H60	H	1.226274	0.342817	0.436190
H61	H	1.279550	0.460162	0.425688
H62	H	1.383515	0.265408	0.300227
H63	H	1.436790	0.382747	0.289696
H64	H	1.406713	0.229182	0.406213
