data_functionalizedCrystal
_audit_creation_method	'MofGen! by Chris Wilmer'
_symmetry_space_group_name_H-M	'P1'
_symmetry_Int_Tables_number	1
_symmetry_cell_setting	triclinic
loop_
_symmetry_equiv_pos_as_xyz
  x,y,z
_cell_length_a	12.759395
_cell_length_b	12.759394
_cell_length_c	21.395355
_cell_angle_alpha	89.987117
_cell_angle_beta	89.976924
_cell_angle_gamma	90.014544
loop_
_atom_site_label
_atom_site_type_symbol
_atom_site_fract_x
_atom_site_fract_y
_atom_site_fract_z
Zn1	Zn	1.606292	-0.418369	-0.354261
Zn2	Zn	1.606180	-0.594034	-0.249494
Zn3	Zn	1.430585	-0.418371	-0.249501
Zn4	Zn	1.430585	-0.594009	-0.354237
O5	O	1.518411	-0.506196	-0.301873
O6	O	1.753298	-0.441681	-0.340371
O7	O	1.582840	-0.570743	-0.161817
O8	O	1.453940	-0.271350	-0.263410
O9	O	1.753216	-0.570741	-0.263399
O10	O	1.583031	-0.271348	-0.340377
O11	O	1.453831	-0.441685	-0.161822
O12	O	1.283564	-0.441660	-0.263387
O13	O	1.453940	-0.570698	-0.441918
O14	O	1.283564	-0.570700	-0.340336
O15	O	1.583031	-0.441656	-0.441936
O16	O	1.582840	-0.741051	-0.263376
O17	O	1.453831	-0.741033	-0.340330
C18	C	1.245443	-0.506179	-0.301860
C19	C	1.128666	-0.506197	-0.301869
C20	C	0.909281	-0.640807	-0.381891
C21	C	0.964173	-0.708091	-0.421886
C22	C	1.073894	-0.708078	-0.421878
C23	C	1.128727	-0.640777	-0.381869
C24	C	1.073836	-0.573493	-0.341873
C25	C	0.964112	-0.573511	-0.341887
C26	C	1.073775	-0.438913	-0.261873
C27	C	0.964054	-0.438919	-0.261883
C28	C	1.128608	-0.371612	-0.221864
C29	C	1.073717	-0.304322	-0.181870
C30	C	0.963989	-0.304336	-0.181880
C31	C	0.909162	-0.371636	-0.221887
C32	C	1.518352	-0.779163	-0.301863
C33	C	1.518423	-0.895940	-0.301879
C34	C	1.652745	-0.895780	-0.382085
C35	C	1.719939	-0.950561	-0.422193
C36	C	1.720002	-1.060282	-0.422207
C37	C	1.652861	-1.115225	-0.382109
C38	C	1.585667	-1.060445	-0.342002
C39	C	1.585614	-0.950721	-0.341991
C40	C	1.451341	-1.060605	-0.261800
C41	C	1.451282	-0.950883	-0.261782
C42	C	1.384200	-1.115548	-0.221703
C43	C	1.317009	-1.060767	-0.181591
C44	C	1.316951	-0.951039	-0.181579
C45	C	1.384088	-0.896102	-0.221675
C46	C	1.792444	-0.506213	-0.301887
C47	C	1.909221	-0.506221	-0.301893
C48	C	1.518498	-0.506174	-0.465297
C49	C	1.518535	-0.506165	-0.534938
C50	C	1.518498	-0.232162	-0.301897
C51	C	1.518535	-0.115385	-0.301908
C52	C	1.585750	-0.438970	-0.567661
C53	C	1.585748	-0.438925	-0.633097
C54	C	1.518543	-0.506094	-0.665806
C55	C	1.451315	-0.573293	-0.633075
C56	C	1.451311	-0.573329	-0.567641
C57	C	1.510227	-0.600693	-0.769477
C58	C	1.510239	-0.600659	-0.834910
C59	C	1.518550	-0.505983	-0.867627
C60	C	1.526871	-0.411338	-0.834903
C61	C	1.526867	-0.411373	-0.769469
C62	C	1.518540	-0.506062	-0.736759
C63	C	1.585766	-0.438733	-0.971303
C64	C	1.585758	-0.438686	-1.036740
C65	C	1.451330	-0.573064	-1.036717
C66	C	1.451333	-0.573101	-0.971281
C67	C	1.518557	-0.505937	-0.938578
C68	C	1.518384	-0.506141	-0.139086
C69	C	1.518550	-0.505854	-0.069445
H70	H	1.118586	-0.762869	-0.454445
C71	C	1.309979	-0.587963	-0.494025
C72	C	1.377427	-0.647202	-0.531669
H73	H	1.264364	-0.633573	-0.471821
H74	H	1.350007	-0.547979	-0.465184
H75	H	1.269809	-0.542173	-0.519545
H76	H	1.417603	-0.692986	-0.506149
H77	H	1.337394	-0.687203	-0.560513
C78	C	1.727107	-0.424192	-0.897757
C79	C	1.659655	-0.364904	-0.935354
H80	H	1.772727	-0.378612	-0.875569
H81	H	1.687080	-0.464209	-0.868901
H82	H	1.767270	-0.469953	-0.923305
H83	H	1.619486	-0.319149	-0.909805
H84	H	1.699686	-0.324869	-0.964213
H85	H	1.652909	-1.204567	-0.382129
C86	C	1.637014	-0.261021	-0.653253
C87	C	1.659642	-0.365065	-0.669077
H88	H	1.682639	-0.215427	-0.675462
H89	H	1.566441	-0.245634	-0.663964
H90	H	1.646636	-0.251438	-0.609602
H91	H	1.650013	-0.374650	-0.712728
H92	H	1.730233	-0.380458	-0.658370
C93	C	1.771110	-1.093965	-0.528332
C94	C	1.793851	-1.120508	-0.466297
H95	H	1.816703	-1.131144	-0.555550
H96	H	1.700528	-1.111993	-0.537459
H97	H	1.780695	-1.020756	-0.534059
H98	H	1.784259	-1.193717	-0.460569
H99	H	1.864450	-1.102487	-0.457167
C100	C	1.400081	-0.751185	-0.653215
C101	C	1.377442	-0.647130	-0.669024
H102	H	1.354465	-0.796766	-0.675405
H103	H	1.470658	-0.766554	-0.663957
H104	H	1.390456	-0.760807	-0.609559
H105	H	1.387075	-0.637507	-0.712679
H106	H	1.306848	-0.631756	-0.658286
H107	H	1.384251	-1.204889	-0.221719
C108	C	0.840596	-0.163014	-0.173321
C109	C	0.903648	-0.230385	-0.137912
H110	H	0.803342	-0.117367	-0.146174
H111	H	0.883429	-0.122884	-0.200647
H112	H	0.792243	-0.203104	-0.197148
H113	H	0.952007	-0.190296	-0.114087
H114	H	0.860811	-0.270520	-0.110575
C115	C	1.284047	-0.738997	-0.237582
C116	C	1.384021	-0.775495	-0.221662
H117	H	1.284006	-0.664539	-0.237573
H118	H	1.265880	-0.763806	-0.278005
H119	H	1.234455	-0.763883	-0.207959
H120	H	1.433612	-0.750615	-0.251288
H121	H	1.402200	-0.750675	-0.181233
H122	H	1.652711	-0.806439	-0.382073
C123	C	1.184173	-0.962228	-0.102304
C124	C	1.243085	-0.890828	-0.137491
H125	H	1.138576	-0.925057	-0.075084
H126	H	1.143997	-1.005033	-0.129591
H127	H	1.229997	-1.005008	-0.078365
H128	H	1.197262	-0.848053	-0.161433
H129	H	1.283265	-0.848005	-0.110200
C130	C	1.600351	-0.297658	-0.494096
C131	C	1.659614	-0.365106	-0.531724
H132	H	1.645948	-0.252052	-0.471909
H133	H	1.554587	-0.257488	-0.519619
H134	H	1.560341	-0.337695	-0.465233
H135	H	1.699619	-0.325069	-0.560589
H136	H	1.705397	-0.405280	-0.506198
C137	C	0.752197	-0.614134	-0.441549
C138	C	0.788674	-0.640780	-0.381911
H139	H	0.677738	-0.614114	-0.441564
H140	H	0.777071	-0.546378	-0.452440
H141	H	0.777031	-0.663855	-0.471088
H142	H	0.763846	-0.591055	-0.352374
H143	H	0.763788	-0.708546	-0.371013
C144	C	1.718651	-0.305886	-1.030186
C145	C	1.659648	-0.364821	-1.072712
H146	H	1.764273	-0.260290	-1.052396
H147	H	1.672894	-0.265707	-1.004652
H148	H	1.758816	-0.351695	-1.004676
H149	H	1.619477	-0.319011	-1.098219
H150	H	1.705411	-0.405003	-1.098257
H151	H	1.533640	-0.334310	-0.742827
H152	H	1.218068	-0.640781	-0.381860
C153	C	1.285763	-0.471495	-0.205783
C154	C	1.249216	-0.371596	-0.221856
H155	H	1.360222	-0.471481	-0.205783
H156	H	1.260910	-0.489556	-0.165338
H157	H	1.260956	-0.521196	-0.235337
H158	H	1.274016	-0.321897	-0.192299
H159	H	1.274080	-0.353523	-0.262307
C160	C	1.062642	-0.171301	-0.102786
C161	C	1.133988	-0.230359	-0.137890
H162	H	1.099856	-0.125645	-0.075631
H163	H	1.019889	-0.131180	-0.130130
H164	H	1.019807	-0.217029	-0.078781
H165	H	1.176819	-0.184631	-0.161898
H166	H	1.176759	-0.270483	-0.110543
H167	H	1.533640	-0.334243	-0.861539
H168	H	1.503178	-0.677770	-0.742845
H169	H	1.396599	-0.627743	-1.063348
H170	H	0.819821	-0.371650	-0.221903
H171	H	1.396606	-0.627825	-0.944638
C172	C	1.779508	-0.782290	-0.457783
C173	C	1.793743	-0.890165	-0.466264
H174	H	1.825076	-0.745010	-0.484989
H175	H	1.708912	-0.764362	-0.466920
H176	H	1.794902	-0.764338	-0.415688
H177	H	1.778342	-0.908119	-0.508358
H178	H	1.864356	-0.908101	-0.457131
H179	H	0.919515	-0.762889	-0.454460
H180	H	1.262344	-1.105510	-0.148950
H181	H	1.503469	-0.677724	-0.861550
