data_functionalizedCrystal
_audit_creation_method	'MofGen! by Chris Wilmer'
_symmetry_space_group_name_H-M	'P1'
_symmetry_Int_Tables_number	1
_symmetry_cell_setting	triclinic
loop_
_symmetry_equiv_pos_as_xyz
  x,y,z
_cell_length_a	16.625547
_cell_length_b	14.908783
_cell_length_c	14.908308
_cell_angle_alpha	90.211273
_cell_angle_beta	93.278524
_cell_angle_gamma	86.707299
loop_
_atom_site_label
_atom_site_type_symbol
_atom_site_fract_x
_atom_site_fract_y
_atom_site_fract_z
Zn1	Zn	0.282013	1.345417	0.587896
Zn2	Zn	0.408662	1.354044	0.437566
Zn3	Zn	0.281141	1.203730	0.428867
Zn4	Zn	0.424102	1.195075	0.579192
O5	O	0.348979	1.274566	0.508380
O6	O	0.292717	1.472387	0.575238
O7	O	0.384920	1.341337	0.310588
O8	O	0.168423	1.222537	0.449965
O9	O	0.385766	1.478725	0.464791
O10	O	0.169065	1.326634	0.566803
O11	O	0.291230	1.230902	0.304196
O12	O	0.306201	1.076756	0.441525
O13	O	0.412080	1.207785	0.706171
O14	O	0.411234	1.070397	0.551967
O15	O	0.307688	1.318241	0.712566
O16	O	0.523543	1.332944	0.456351
O17	O	0.534887	1.216150	0.560402
C18	C	0.360299	1.040952	0.494858
C19	C	0.365162	0.941009	0.489094
C20	C	0.277560	0.746594	0.593448
C21	C	0.282126	0.652689	0.588036
C22	C	0.378857	0.659292	0.472853
C23	C	0.374291	0.753197	0.478266
C24	C	0.323641	0.796845	0.538566
C25	C	0.319079	0.890752	0.543982
C26	C	0.415805	0.897353	0.428796
C27	C	0.420372	0.803448	0.423384
C28	C	0.138670	1.274589	0.508385
C29	C	0.049048	1.274598	0.508387
C30	C	-0.279127	1.274642	0.508437
C31	C	-0.187819	1.274633	0.508426
C32	C	-0.115042	1.274621	0.508411
C33	C	-0.023728	1.274610	0.508401
C34	C	0.558471	1.274567	0.508397
C35	C	0.648090	1.274648	0.508439
C36	C	0.361704	1.261086	0.742906
C37	C	0.367126	1.255341	0.842847
C38	C	0.337616	1.509093	0.521956
C39	C	0.332774	1.609035	0.527741
C40	C	0.336244	1.288046	0.274770
C41	C	0.330586	1.293965	0.174840
C42	C	0.268593	1.359561	1.037307
C43	C	0.273685	1.354166	1.131211
C44	C	0.382397	1.239153	1.124559
C45	C	0.377305	1.244547	1.030655
C46	C	0.320402	1.304755	0.987033
C47	C	0.315315	1.310153	0.893128
C48	C	0.424023	1.195136	0.886478
C49	C	0.429115	1.189741	0.980381
H50	H	0.420084	0.623738	0.423750
H51	H	0.461607	0.767897	0.374286
C52	C	0.263361	0.938763	0.610311
N53	N	0.221390	0.974922	0.660268
C54	C	0.252718	1.376379	0.845145
N55	N	0.205566	1.426259	0.809006
H56	H	0.453335	0.938276	0.384114
H57	H	0.475442	1.140720	1.015911
C58	C	0.206004	1.425793	0.989321
N59	N	0.158860	1.475679	0.953179
H60	H	0.236322	0.782133	0.642551
C61	C	0.216693	1.414460	1.186509
N62	N	0.173764	1.459877	1.228161
H63	H	0.244600	0.611779	0.632724
H64	H	0.428725	1.190134	1.160092
C65	C	0.481017	1.134845	0.831168
N66	N	0.523945	1.089437	0.789508
