data_functionalizedCrystal
_audit_creation_method	'MofGen! by Chris Wilmer'
_symmetry_space_group_name_H-M	'P1'
_symmetry_Int_Tables_number	1
_symmetry_cell_setting	triclinic
loop_
_symmetry_equiv_pos_as_xyz
  x,y,z
_cell_length_a	15.297979
_cell_length_b	29.839131
_cell_length_c	15.296720
_cell_angle_alpha	99.631078
_cell_angle_beta	88.354193
_cell_angle_gamma	99.693341
loop_
_atom_site_label
_atom_site_type_symbol
_atom_site_fract_x
_atom_site_fract_y
_atom_site_fract_z
Zn1	Zn	1.253339	-0.133638	-0.727311
Zn2	Zn	1.278579	-0.193974	-0.580812
Zn3	Zn	1.132219	-0.129274	-0.555478
Zn4	Zn	1.106798	-0.219159	-0.701822
O5	O	1.192734	-0.169011	-0.641356
O6	O	1.379267	-0.132928	-0.729147
O7	O	1.280366	-0.173024	-0.454896
O8	O	1.148362	-0.066984	-0.578337
O9	O	1.397811	-0.177256	-0.621515
O10	O	1.237348	-0.070191	-0.704581
O11	O	1.172837	-0.125489	-0.436284
O12	O	1.006267	-0.149911	-0.553622
O13	O	1.105034	-0.220182	-0.827758
O14	O	0.987590	-0.215950	-0.661140
O15	O	1.212698	-0.157350	-0.846485
O16	O	1.255716	-0.260183	-0.596800
O17	O	1.129509	-0.278687	-0.685705
C18	C	0.965145	-0.185190	-0.601866
C19	C	0.867778	-0.192124	-0.584993
C20	C	0.831704	-0.218407	-0.520939
C21	C	0.740222	-0.224923	-0.505090
C22	C	0.684806	-0.205155	-0.553289
C23	C	0.720880	-0.178869	-0.617341
C24	C	0.812370	-0.172355	-0.633196
C25	C	0.665472	-0.159103	-0.665547
C26	C	0.701547	-0.132818	-0.729598
C27	C	0.793028	-0.126304	-0.745450
C28	C	0.848444	-0.146073	-0.697251
C29	C	0.573982	-0.165618	-0.649691
C30	C	0.554649	-0.119566	-0.761949
C31	C	0.646131	-0.113049	-0.777797
C32	C	1.192613	-0.285736	-0.641259
C33	C	1.192636	-0.335668	-0.641261
C34	C	1.239043	-0.646955	-0.707169
C35	C	1.239129	-0.834627	-0.707238
O36	O	1.278463	-0.860293	-0.763198
N37	N	1.192866	-0.856452	-0.641479
C38	C	1.146573	-0.831358	-0.575701
O39	O	1.107218	-0.854229	-0.519775
C40	C	1.146483	-0.643688	-0.575636
C41	C	1.192756	-0.621864	-0.641395
C42	C	1.285311	-0.625131	-0.772923
C43	C	1.285293	-0.578216	-0.772902
C44	C	1.239007	-0.553124	-0.707128
C45	C	1.192738	-0.574948	-0.641374
C46	C	1.100185	-0.618595	-0.509863
C47	C	1.100165	-0.571675	-0.509854
C48	C	1.146438	-0.549851	-0.575612
C49	C	1.146433	-0.502941	-0.575579
N50	N	1.192696	-0.481115	-0.641338
C51	C	1.238983	-0.506207	-0.707113
C52	C	1.146625	-0.929887	-0.575738
C53	C	1.146649	-0.976804	-0.575754
C54	C	1.239204	-0.980070	-0.707292
C55	C	1.239184	-0.933152	-0.707273
C56	C	1.192888	-0.908062	-0.641498
C57	C	1.238942	-0.407680	-0.707064
C58	C	1.238923	-0.360760	-0.707035
C59	C	1.146365	-0.357499	-0.575500
C60	C	1.146388	-0.404414	-0.575525
C61	C	1.192678	-0.429505	-0.641315
O62	O	1.107111	-0.477248	-0.519654
O63	O	1.278316	-0.483330	-0.763041
C64	C	1.239061	-0.693871	-0.707190
C65	C	1.192792	-0.715695	-0.641436
C66	C	1.146505	-0.690604	-0.575662
C67	C	1.192816	-0.762612	-0.641451
C68	C	1.239102	-0.787704	-0.707226
C69	C	1.285365	-0.765878	-0.772985
C70	C	1.285347	-0.718963	-0.772964
C71	C	1.100242	-0.712429	-0.509902
C72	C	1.100265	-0.759345	-0.509928
C73	C	1.146552	-0.784436	-0.575702
C74	C	1.421211	-0.152770	-0.681000
C75	C	1.518575	-0.145848	-0.697894
C76	C	1.153215	-0.192062	-0.869787
C77	C	1.136374	-0.201885	-0.967131
C78	C	1.192876	-0.051831	-0.641477
C79	C	1.192936	-0.001896	-0.641528
C80	C	1.313129	-0.098724	-1.280529
C81	C	1.328957	-0.089495	-1.189070
C82	C	1.280812	-0.117592	-1.133581
C83	C	1.216837	-0.154919	-1.169559
C84	C	1.201013	-0.164151	-1.261028
C85	C	1.168696	-0.183019	-1.114080
C86	C	1.104721	-0.220346	-1.150058
C87	C	1.088899	-0.229576	-1.241518
C88	C	1.137043	-0.201479	-1.297007
C89	C	1.184521	-0.173787	-1.022612
C90	C	1.072405	-0.239213	-1.003111
C91	C	1.056577	-0.248442	-1.094569
C92	C	1.232149	-0.146014	-0.413822
C93	C	1.249160	-0.136052	-0.316508
H94	H	0.509528	-0.103469	-0.801198
C95	C	0.534307	-0.194527	-0.579234
C96	C	0.564093	-0.179839	-0.481865
C97	C	0.524419	-0.208750	-0.411402
C98	C	0.454959	-0.252349	-0.438306
C99	C	0.425170	-0.267039	-0.535679
C100	C	0.464843	-0.238128	-0.606143
H101	H	0.615514	-0.147563	-0.461945
H102	H	0.546471	-0.197875	-0.339319
H103	H	0.425590	-0.273750	-0.386144
H104	H	0.373748	-0.299315	-0.555600
H105	H	0.442791	-0.249003	-0.678225
H106	H	0.822395	-0.104906	-0.797613
C107	C	0.986216	-0.289507	-1.134148
C108	C	0.888813	-0.291654	-1.104303
C109	C	0.818455	-0.332720	-1.143881
C110	C	0.845499	-0.371638	-1.213305
C111	C	0.942907	-0.369491	-1.243154
C112	C	1.013265	-0.328426	-1.203576
H113	H	0.868789	-0.262843	-1.052908
H114	H	0.746347	-0.334308	-1.121785
H115	H	0.793416	-0.402037	-1.242603
H116	H	0.962931	-0.398302	-1.294548
H117	H	1.085373	-0.326837	-1.225672
C118	C	1.290079	-0.909148	-0.779611
C119	C	1.390890	-0.907762	-0.789827
C120	C	1.441786	-0.883761	-0.862171
C121	C	1.391869	-0.861147	-0.924298
C122	C	1.291052	-0.862533	-0.914084
C123	C	1.240157	-0.886533	-0.841741
H124	H	1.427847	-0.924503	-0.743835
H125	H	1.516417	-0.882736	-0.869732
H126	H	1.429545	-0.843381	-0.977851
H127	H	1.254096	-0.845792	-0.960076
H128	H	1.165525	-0.887559	-0.834180
H129	H	0.675516	-0.091647	-0.829949
H130	H	1.323003	-0.645557	-0.826489
H131	H	1.352326	-0.075854	-1.325716
C132	C	1.289822	-0.336755	-0.779377
C133	C	1.340729	-0.364360	-0.851730
C134	C	1.391623	-0.340357	-0.924071
C135	C	1.391611	-0.288749	-0.924058
C136	C	1.340702	-0.261141	-0.851702
C137	C	1.289807	-0.285144	-0.779362
H138	H	1.340740	-0.402566	-0.851742
H139	H	1.429309	-0.360795	-0.977634
H140	H	1.429286	-0.270981	-0.977610
H141	H	1.340690	-0.222936	-0.851691
H142	H	1.252121	-0.264707	-0.725799
C143	C	1.018525	-0.270637	-1.281084
C144	C	1.045543	-0.309563	-1.350505
C145	C	0.975165	-0.350624	-1.390064
C146	C	0.877769	-0.352758	-1.360201
C147	C	0.850746	-0.313830	-1.290775
C148	C	0.921124	-0.272770	-1.251217
H149	H	1.117645	-0.307984	-1.372615
H150	H	0.995169	-0.379440	-1.441457
H151	H	0.825671	-0.383153	-1.389484
H152	H	0.778644	-0.315409	-1.268666
H153	H	0.901120	-0.243953	-1.199823
C154	C	0.700545	-0.253835	-0.434636
C155	C	0.730327	-0.239150	-0.337266
C156	C	0.690651	-0.268063	-0.266807
C157	C	0.621195	-0.311662	-0.293718
C158	C	0.591410	-0.326350	-0.391093
C159	C	0.631085	-0.297437	-0.461552
H160	H	0.781746	-0.206873	-0.317340
H161	H	0.712701	-0.257190	-0.194723
H162	H	0.591825	-0.333066	-0.241560
H163	H	0.539991	-0.358627	-0.411018
H164	H	0.609036	-0.308310	-0.533635
H165	H	1.293704	-0.110075	-1.059112
H166	H	1.276629	-0.428105	-0.760641
C167	C	1.095708	-0.902289	-0.503374
C168	C	1.020326	-0.878772	-0.529298
C169	C	0.969415	-0.851175	-0.456929
C170	C	0.993885	-0.847094	-0.358636
C171	C	1.069271	-0.870611	-0.332707
C172	C	1.120182	-0.898209	-0.405076
H173	H	1.002208	-0.881792	-0.602065
H174	H	0.913609	-0.833766	-0.476124
H175	H	0.956198	-0.826665	-0.305064
H176	H	1.087389	-0.867591	-0.259940
H177	H	1.175988	-0.915618	-0.385881
C178	C	1.336181	-0.554217	-0.845251
C179	C	1.436990	-0.552836	-0.855484
C180	C	1.487875	-0.528844	-0.927843
C181	C	1.437951	-0.506232	-0.989968
C182	C	1.337136	-0.507613	-0.979737
C183	C	1.286251	-0.531605	-0.907379
H184	H	1.473952	-0.569575	-0.809493
H185	H	1.562505	-0.527822	-0.935416
H186	H	1.475619	-0.488472	-1.043533
H187	H	1.300174	-0.490874	-1.025728
H188	H	1.211621	-0.532627	-0.899805
C189	C	1.019432	-0.270121	-0.942084
C190	C	0.961559	-0.249193	-0.867300
C191	C	0.908590	-0.280099	-0.806270
C192	C	0.913494	-0.331933	-0.820023
C193	C	0.971369	-0.352864	-0.894810
C194	C	1.024338	-0.321958	-0.955841
H195	H	0.957927	-0.210820	-0.857116
H196	H	0.865747	-0.264604	-0.750907
H197	H	0.874283	-0.354811	-0.774845
H198	H	0.975001	-0.391237	-0.904995
H199	H	1.067181	-0.337453	-1.011204
C200	C	1.049274	-0.642592	-0.437529
C201	C	1.099166	-0.665209	-0.375387
C202	C	1.048247	-0.689205	-0.303050
C203	C	0.947436	-0.690583	-0.292855
C204	C	0.897538	-0.667965	-0.354999
C205	C	0.948457	-0.643969	-0.427336
H206	H	1.173797	-0.664190	-0.382932
H207	H	1.085185	-0.705948	-0.257047
H208	H	0.909743	-0.708346	-0.239307
H209	H	0.822906	-0.668985	-0.347454
H210	H	0.911518	-0.627226	-0.473339
C211	C	1.290117	-1.007676	-0.779649
C212	C	1.365487	-1.031196	-0.753709
C213	C	1.416392	-1.058805	-0.826066
C214	C	1.391926	-1.062894	-0.924362
C215	C	1.316552	-1.039374	-0.950307
C216	C	1.265647	-1.011765	-0.877950
H217	H	1.383602	-1.028170	-0.680940
H218	H	1.472189	-1.076217	-0.806860
H219	H	1.429609	-1.083332	-0.977925
H220	H	1.298437	-1.042400	-1.023076
H221	H	1.209850	-0.994353	-0.897156
H222	H	0.922938	-0.140767	-0.710149
C223	C	1.095754	-1.000806	-0.503413
C224	C	1.120199	-0.983815	-0.405110
C225	C	1.069296	-1.007815	-0.332770
C226	C	0.993950	-1.048807	-0.358733
C227	C	0.969502	-1.065800	-0.457041
C228	C	1.020404	-1.041799	-0.529381
H229	H	1.175978	-0.953469	-0.385886
H230	H	1.087394	-0.995236	-0.259996
H231	H	0.956269	-1.066573	-0.305183
H232	H	0.913723	-1.096146	-0.476264
H233	H	1.002306	-1.054379	-0.602154
H234	H	0.610317	-0.210462	-0.540381
H235	H	1.062462	-0.551249	-0.456292
C236	C	1.095501	-0.428424	-0.503186
C237	C	1.119956	-0.411442	-0.404883
C238	C	1.069064	-0.435449	-0.332547
C239	C	0.993717	-0.476440	-0.358514
C240	C	0.969258	-0.493424	-0.456821
C241	C	1.020150	-0.469417	-0.529157
H242	H	1.175736	-0.381096	-0.385657
H243	H	1.087171	-0.422876	-0.259774
H244	H	0.956043	-0.494212	-0.304967
H245	H	0.913478	-0.523770	-0.476048
H246	H	1.002043	-0.481990	-0.601931
H247	H	1.323027	-0.701197	-0.826511
C248	C	1.399316	-0.048434	-1.149494
C249	C	1.416724	-0.038278	-1.048889
C250	C	1.487084	0.002786	-1.009312
C251	C	1.540036	0.033695	-1.070341
C252	C	1.522630	0.023540	-1.170952
C253	C	1.452270	-0.017525	-1.210529
H254	H	1.377524	-0.061160	-1.003706
H255	H	1.499969	0.010304	-0.934832
H256	H	1.592121	0.064094	-1.041044
H257	H	1.561829	0.046422	-1.216135
H258	H	1.439384	-0.025042	-1.285009
H259	H	0.876830	-0.234502	-0.481705
H260	H	1.108682	-0.337061	-0.521945
H261	H	1.323057	-0.786316	-0.826538
H262	H	1.062586	-0.777109	-0.456371
H263	H	1.062549	-0.692003	-0.456342
H264	H	1.124160	-0.208991	-1.371481
H265	H	1.236610	-0.143394	-0.993327
