data_functionalizedCrystal
_audit_creation_method	'MofGen! by Chris Wilmer'
_symmetry_space_group_name_H-M	'P1'
_symmetry_Int_Tables_number	1
_symmetry_cell_setting	triclinic
loop_
_symmetry_equiv_pos_as_xyz
  x,y,z
_cell_length_a	6.817900
_cell_length_b	11.102237
_cell_length_c	10.943624
_cell_angle_alpha	91.862878
_cell_angle_beta	108.838799
_cell_angle_gamma	108.604801
loop_
_atom_site_label
_atom_site_type_symbol
_atom_site_fract_x
_atom_site_fract_y
_atom_site_fract_z
V1	V	-4.114279	-0.175806	-0.402554
O2	O	-4.073263	0.008482	-0.394888
O3	O	-4.091034	-0.348627	-0.399803
O4	O	-4.092261	-0.173087	-0.578120
O5	O	-4.072028	-0.168273	-0.215337
V6	V	-4.591229	-0.153765	-0.380161
O7	O	-4.389956	-0.224155	-0.451675
O8	O	-4.765750	-0.105415	-0.331040
O9	O	-4.391268	0.019056	-0.382911
O10	O	-4.749643	-0.338053	-0.387827
O11	O	-4.750877	-0.161298	-0.567378
O12	O	-4.390041	-0.156484	-0.204594
C13	C	-3.941301	-0.390757	-0.393453
C14	C	-4.003758	-0.532040	-0.392375
C15	C	-4.094086	-0.616551	-0.510104
C16	C	-4.152764	-0.749301	-0.509089
C17	C	-4.030783	-0.713017	-0.272606
C18	C	-3.972093	-0.580269	-0.273622
C19	C	-4.125752	-0.568323	-0.628856
C20	C	-4.216088	-0.652835	-0.746595
C21	C	-4.274765	-0.785585	-0.745580
C22	C	-4.243107	-0.833823	-0.626827
C23	C	-3.942864	-0.166837	-0.620913
C24	C	-4.006311	-0.165757	-0.764439
C25	C	-3.851191	-0.158486	-0.841587
C26	C	-4.039803	-0.266417	-0.947578
C27	C	-3.930778	-0.055914	-0.914188
C28	C	-4.194133	-0.273789	-0.868554
C29	C	-4.085028	-0.063191	-0.835141
C30	C	-4.273776	-0.171153	-0.941103
C31	C	-4.204343	0.061180	-0.389258
C32	C	-4.121126	0.202462	-0.390345
C33	C	-4.202780	-0.162738	-0.161795
C34	C	-4.118570	-0.163811	-0.018267
H35	H	-4.290866	-0.941918	-0.626010
H36	H	-4.103400	0.022729	-0.786156
H37	H	-3.820066	0.036144	-0.934949
F38	F	-3.997104	-0.764361	-0.146231
F39	F	-3.617011	-0.151671	-0.784790
F40	F	-4.370848	-0.875524	-0.870883
F41	F	-4.338892	-0.394277	-0.841709
F42	F	-4.063313	-0.427041	-0.629946
F43	F	-4.015685	-0.378715	-1.011563
H44	H	-3.898528	-0.511457	-0.177756
F45	F	-4.249750	-0.601494	-0.872972
H46	H	-4.453053	-0.176535	-0.984347
