data_functionalizedCrystal
_audit_creation_method	'MofGen! by Chris Wilmer'
_symmetry_space_group_name_H-M	'P1'
_symmetry_Int_Tables_number	1
_symmetry_cell_setting	triclinic
loop_
_symmetry_equiv_pos_as_xyz
  x,y,z
_cell_length_a	29.839131
_cell_length_b	13.033304
_cell_length_c	29.839125
_cell_angle_alpha	97.204993
_cell_angle_beta	89.982291
_cell_angle_gamma	82.790878
loop_
_atom_site_label
_atom_site_type_symbol
_atom_site_fract_x
_atom_site_fract_y
_atom_site_fract_z
Zn1	Zn	-0.091819	-1.597565	-0.341406
Zn2	Zn	0.408181	-1.097565	0.158594
Zn3	Zn	-0.166939	-1.597407	-0.266267
Zn4	Zn	0.333061	-1.097407	0.233733
Zn5	Zn	-0.101343	-1.422814	-0.256728
Zn6	Zn	0.398657	-0.922814	0.243272
Zn7	Zn	-0.176456	-1.422693	-0.331810
Zn8	Zn	0.323544	-0.922693	0.168190
O9	O	-0.134139	-1.510120	-0.299053
O10	O	0.365861	-1.010120	0.200947
O11	O	-0.093815	-1.743796	-0.339446
O12	O	0.406185	-1.243796	0.160554
O13	O	-0.158241	-1.574232	-0.202134
O14	O	0.341759	-1.074232	0.297866
O15	O	-0.037206	-1.446112	-0.267984
O16	O	0.462794	-0.946112	0.232016
O17	O	-0.149006	-1.743680	-0.284242
O18	O	0.350994	-1.243680	0.215758
O19	O	-0.030209	-1.574501	-0.330197
O20	O	0.469791	-1.074501	0.169803
O21	O	-0.110047	-1.445959	-0.195125
O22	O	0.389953	-0.945959	0.304875
O23	O	-0.119276	-1.276546	-0.258680
O24	O	0.380724	-0.776546	0.241320
O25	O	-0.165226	-1.445905	-0.395951
O26	O	0.334774	-0.945905	0.104049
O27	O	-0.174461	-1.276457	-0.313842
O28	O	0.325539	-0.776457	0.186158
O29	O	-0.103043	-1.574383	-0.403001
O30	O	0.396957	-1.074383	0.096999
O31	O	-0.231075	-1.574114	-0.274938
O32	O	0.268925	-1.074114	0.225062
O33	O	-0.238067	-1.445752	-0.323092
O34	O	0.261933	-0.945752	0.176908
C35	C	-0.148935	-1.238580	-0.284185
C36	C	0.351065	-0.738580	0.215815
C37	C	-0.155275	-1.122414	-0.277835
C38	C	0.344725	-0.622414	0.222165
C39	C	-0.130837	-1.070680	-0.302360
C40	C	0.369163	-0.570680	0.197640
C41	C	-0.137390	-0.950617	-0.295798
C42	C	0.362610	-0.450617	0.204202
C43	C	-0.250872	-1.509931	-0.299020
C44	C	0.249128	-1.009931	0.200980
C45	C	-0.300806	-1.509946	-0.299026
C46	C	0.199194	-1.009946	0.200974
C47	C	-0.606780	-1.577079	-0.274027
C48	C	-0.106780	-1.077079	0.225973
C49	C	-0.794446	-1.577208	-0.274052
C50	C	-0.294446	-1.077208	0.225948
O51	O	-0.815599	-1.634138	-0.252771
O52	O	-0.315599	-1.134138	0.247229
N53	N	-0.821570	-1.510336	-0.299098
N54	N	-0.321570	-1.010336	0.200902
C55	C	-0.801774	-1.443432	-0.324143
C56	C	-0.301774	-0.943432	0.175857
O57	O	-0.829150	-1.386564	-0.345451
O58	O	-0.329150	-0.886564	0.154549
C59	C	-0.614109	-1.443309	-0.324121
C60	C	-0.114109	-0.943309	0.175879
C61	C	-0.586987	-1.510178	-0.299069
C62	C	-0.086987	-1.010178	0.200931
C63	C	-0.579659	-1.643943	-0.248978
C64	C	-0.079659	-1.143943	0.251022
C65	C	-0.532745	-1.643906	-0.248970
C66	C	-0.032745	-1.143906	0.251030
C67	C	-0.512953	-1.577005	-0.274012
C68	C	-0.012953	-1.077005	0.225988
C69	C	-0.540074	-1.510141	-0.299061
C70	C	-0.040074	-1.010141	0.200939
C71	C	-0.594314	-1.376412	-0.349167
C72	C	-0.094314	-0.876412	0.150833
C73	C	-0.547394	-1.376389	-0.349161
C74	C	-0.047394	-0.876389	0.150839
C75	C	-0.520273	-1.443257	-0.324109
C76	C	-0.020273	-0.943257	0.175891
C77	C	-0.473368	-1.443203	-0.324095
C78	C	0.026632	-0.943203	0.175905
N79	N	-0.446244	-1.510075	-0.299048
N80	N	0.053756	-1.010075	0.200952
C81	C	-0.466037	-1.576976	-0.274007
C82	C	0.033963	-1.076976	0.225993
C83	C	-0.900301	-1.443500	-0.324152
C84	C	-0.400301	-0.943500	0.175848
C85	C	-0.947217	-1.443529	-0.324157
C86	C	-0.447217	-0.943529	0.175843
C87	C	-0.939886	-1.577307	-0.274067
C88	C	-0.439886	-1.077307	0.225933
C89	C	-0.892969	-1.577272	-0.274059
C90	C	-0.392969	-1.077272	0.225941
C91	C	-0.873177	-1.510372	-0.299106
C92	C	-0.373177	-1.010372	0.200894
C93	C	-0.367515	-1.576893	-0.273992
C94	C	0.132485	-1.076893	0.226008
C95	C	-0.320598	-1.576847	-0.273985
C96	C	0.179402	-1.076847	0.226015
C97	C	-0.327934	-1.443074	-0.324077
C98	C	0.172066	-0.943074	0.175923
C99	C	-0.374847	-1.443115	-0.324082
C100	C	0.125153	-0.943115	0.175918
C101	C	-0.394636	-1.510033	-0.299039
C102	C	0.105364	-1.010033	0.200961
O103	O	-0.452184	-1.386312	-0.345368
O104	O	0.047816	-0.886312	0.154632
O105	O	-0.438652	-1.633852	-0.252710
O106	O	0.061348	-1.133852	0.247290
C107	C	-0.653693	-1.577116	-0.274035
C108	C	-0.153693	-1.077116	0.225965
C109	C	-0.680814	-1.510252	-0.299084
C110	C	-0.180814	-1.010252	0.200916
C111	C	-0.661022	-1.443351	-0.324126
C112	C	-0.161022	-0.943351	0.175874
C113	C	-0.727730	-1.510281	-0.299089
C114	C	-0.227730	-1.010281	0.200911
C115	C	-0.747523	-1.577182	-0.274048
C116	C	-0.247523	-1.077182	0.225952
C117	C	-0.720399	-1.644054	-0.249001
C118	C	-0.220399	-1.144054	0.250999
C119	C	-0.673486	-1.644017	-0.248994
C120	C	-0.173486	-1.144017	0.251006
C121	C	-0.688146	-1.376479	-0.349173
C122	C	-0.188146	-0.876479	0.150827
C123	C	-0.735059	-1.376521	-0.349178
C124	C	-0.235059	-0.876521	0.150822
C125	C	-0.754851	-1.443422	-0.324136
C126	C	-0.254851	-0.943422	0.175864
C127	C	-0.016949	-1.510338	-0.299097
C128	C	0.483051	-1.010338	0.200903
C129	C	0.032990	-1.510431	-0.299116
C130	C	0.532990	-1.010431	0.200884
C131	C	-0.134134	-1.510148	-0.416233
C132	C	0.365866	-1.010148	0.083767
C133	C	-0.134131	-1.510160	-0.466168
C134	C	0.365869	-1.010160	0.033832
C135	C	-0.119284	-0.782720	-0.313975
C136	C	0.380716	-0.282720	0.186025
C137	C	-0.112948	-0.898886	-0.320327
C138	C	0.387052	-0.398886	0.179673
C139	C	-0.101674	-1.577129	-0.779489
C140	C	0.398326	-1.077129	-0.279489
C141	C	-0.101633	-1.577181	-0.967165
C142	C	0.398367	-1.077181	-0.467165
O143	O	-0.074083	-1.634042	-0.994552
O144	O	0.425917	-1.134042	-0.494552
N145	N	-0.134004	-1.510299	-0.986961
N146	N	0.365996	-1.010299	-0.486961
C147	C	-0.166385	-1.443394	-0.959834
C148	C	0.333615	-0.943394	-0.459834
O149	O	-0.193915	-1.386501	-0.980977
O150	O	0.306085	-0.886501	-0.480977
C151	C	-0.166424	-1.443338	-0.772158
C152	C	0.333576	-0.943338	-0.272158
C153	C	-0.134054	-1.510232	-0.752366
C154	C	0.365946	-1.010232	-0.252366
C155	C	-0.069306	-1.644016	-0.759696
C156	C	0.430694	-1.144016	-0.259696
C157	C	-0.069318	-1.644007	-0.712780
C158	C	0.430682	-1.144007	-0.212780
C159	C	-0.101698	-1.577110	-0.685657
C160	C	0.398302	-1.077110	-0.185657
C161	C	-0.134066	-1.510222	-0.705450
C162	C	0.365934	-1.010222	-0.205450
C163	C	-0.198803	-1.376429	-0.745032
C164	C	0.301197	-0.876429	-0.245032
C165	C	-0.198810	-1.376419	-0.698111
C166	C	0.301190	-0.876419	-0.198111
C167	C	-0.166439	-1.443313	-0.678318
C168	C	0.333561	-0.943313	-0.178318
C169	C	-0.166458	-1.443315	-0.631411
C170	C	0.333542	-0.943315	-0.131411
N171	N	-0.134087	-1.510197	-0.611615
N172	N	0.365913	-1.010197	-0.111615
C173	C	-0.101707	-1.577094	-0.638738
C174	C	0.398293	-1.077094	-0.138738
C175	C	-0.166363	-1.443430	-1.058366
C176	C	0.333637	-0.943430	-0.558366
C177	C	-0.166354	-1.443445	-1.105285
C178	C	0.333646	-0.943445	-0.605285
C179	C	-0.101601	-1.577231	-1.112613
C180	C	0.398399	-1.077231	-0.612613
C181	C	-0.101612	-1.577220	-1.065693
C182	C	0.398388	-1.077220	-0.565693
C183	C	-0.133992	-1.510312	-1.038571
C184	C	0.366008	-1.010312	-0.538571
C185	C	-0.101735	-1.577070	-0.540211
C186	C	0.398265	-1.077070	-0.040211
C187	C	-0.101751	-1.577057	-0.493291
C188	C	0.398249	-1.077057	0.006709
C189	C	-0.166503	-1.443268	-0.485967
C190	C	0.333497	-0.943268	0.014033
C191	C	-0.166489	-1.443284	-0.532883
C192	C	0.333511	-0.943284	-0.032883
C193	C	-0.134101	-1.510188	-0.560004
C194	C	0.365899	-1.010188	-0.060004
O195	O	-0.193990	-1.386475	-0.603996
O196	O	0.306010	-0.886475	-0.103996
O197	O	-0.074175	-1.633963	-0.617585
O198	O	0.425825	-1.133963	-0.117585
C199	C	-0.101662	-1.577138	-0.826405
C200	C	0.398338	-1.077138	-0.326405
C201	C	-0.134030	-1.510251	-0.846198
C202	C	0.365970	-1.010251	-0.346198
C203	C	-0.166410	-1.443354	-0.819075
C204	C	0.333590	-0.943354	-0.319075
C205	C	-0.134020	-1.510266	-0.893117
C206	C	0.365980	-1.010266	-0.393117
C207	C	-0.101640	-1.577163	-0.920240
C208	C	0.398360	-1.077163	-0.420240
C209	C	-0.069269	-1.644045	-0.900444
C210	C	0.430731	-1.144045	-0.400444
C211	C	-0.069282	-1.644036	-0.853528
C212	C	0.430718	-1.144036	-0.353528
C213	C	-0.198781	-1.376472	-0.838871
C214	C	0.301219	-0.876472	-0.338871
C215	C	-0.198766	-1.376488	-0.885787
C216	C	0.301234	-0.876488	-0.385787
C217	C	-0.166386	-1.443385	-0.912910
C218	C	0.333614	-0.943385	-0.412910
C219	C	-0.134109	-1.510152	-0.182332
C220	C	0.365891	-1.010152	0.317668
C221	C	-0.133974	-1.510342	-0.132408
C222	C	0.366026	-1.010342	0.367592
H223	H	-0.181048	-1.077818	-0.251979
H224	H	0.318952	-0.577818	0.248021
H225	H	-0.042906	-1.698519	-0.922536
H226	H	0.457094	-1.198519	-0.422536
Br227	Br	-0.283793	-1.667601	-0.239983
Br228	Br	0.216207	-1.167601	0.260017
H229	H	-0.956008	-1.631781	-0.253677
H230	H	-0.456008	-1.131781	0.246323
H231	H	-0.616388	-1.321955	-0.369565
H232	H	-0.116388	-0.821955	0.130435
Br233	Br	-0.411657	-1.352339	-0.358069
Br234	Br	0.088343	-0.852339	0.141931
H235	H	-0.087170	-0.943476	-0.346182
H236	H	0.412830	-0.443476	0.153818
Br237	Br	-0.394365	-1.667711	-0.240004
Br238	Br	0.105635	-1.167711	0.259996
H239	H	-0.510665	-1.698359	-0.228572
H240	H	-0.010665	-1.198359	0.271428
H241	H	-0.969296	-1.389069	-0.344552
H242	H	-0.469296	-0.889069	0.155448
H243	H	-0.192851	-1.388824	-0.549000
H244	H	0.307149	-0.888824	-0.049000
Br245	Br	-0.606510	-1.734752	-0.214989
Br246	Br	-0.106510	-1.234752	0.285011
H247	H	-0.225130	-1.322016	-0.901898
H248	H	0.274870	-0.822016	-0.401898
H249	H	-0.311812	-1.388600	-0.344464
H250	H	0.188188	-0.888600	0.155536
H251	H	-0.042936	-1.698492	-0.781775
H252	H	0.457064	-1.198492	-0.281775
H253	H	-0.075253	-1.631689	-1.049582
H254	H	0.424747	-1.131689	-0.549582
Br255	Br	-0.242729	-1.285670	-0.802068
Br256	Br	0.257271	-0.785670	-0.302068
Br257	Br	-0.747270	-1.734843	-0.215015
Br258	Br	-0.247270	-1.234843	0.284985
Br259	Br	-0.856166	-1.668024	-0.240059
Br260	Br	-0.356166	-1.168024	0.259941
Br261	Br	-0.180347	-0.876303	-0.252697
Br262	Br	0.319653	-0.376303	0.247303
H263	H	-0.042922	-1.698507	-0.837417
H264	H	0.457078	-1.198507	-0.337417
Br265	Br	-0.873448	-1.352698	-0.358147
Br266	Br	-0.373448	-0.852698	0.141853
Br267	Br	-0.520537	-1.285595	-0.383156
Br268	Br	-0.020537	-0.785595	0.116844
H269	H	-0.651406	-1.698468	-0.228594
H270	H	-0.151406	-1.198468	0.271406
Br271	Br	-0.771861	-1.285758	-0.383179
Br272	Br	-0.271861	-0.785758	0.116821
Br273	Br	-0.661292	-1.285677	-0.383162
Br274	Br	-0.161292	-0.785677	0.116838
Br275	Br	-0.057819	-1.667852	-0.466432
Br276	Br	0.442181	-1.167852	0.033568
Br277	Br	-0.057778	-1.667862	-0.577010
Br278	Br	0.442222	-1.167862	-0.077010
H279	H	-0.042958	-1.698477	-0.696669
H280	H	0.457042	-1.198477	-0.196669
Br281	Br	-0.057657	-1.668019	-1.149431
Br282	Br	0.442343	-1.168019	-0.649431
Br283	Br	-0.210294	-1.352677	-1.132142
Br284	Br	0.289706	-0.852677	-0.632142
Br285	Br	-0.210312	-1.352617	-1.021563
Br286	Br	0.289688	-0.852617	-0.521563
Br287	Br	-0.087875	-1.144998	-0.345454
Br288	Br	0.412125	-0.644998	0.154546
H289	H	-0.225174	-1.321922	-0.676029
H290	H	0.274826	-0.821922	-0.176029
Br291	Br	-0.210445	-1.352482	-0.449148
Br292	Br	0.289555	-0.852482	0.050852
H293	H	-0.225163	-1.321956	-0.761139
H294	H	0.274837	-0.821956	-0.261139
