data_functionalizedCrystal
_audit_creation_method	'MofGen! by Chris Wilmer'
_symmetry_space_group_name_H-M	'P1'
_symmetry_Int_Tables_number	1
_symmetry_cell_setting	triclinic
loop_
_symmetry_equiv_pos_as_xyz
  x,y,z
_cell_length_a	10.654562
_cell_length_b	10.654550
_cell_length_c	15.186229
_cell_angle_alpha	90.004736
_cell_angle_beta	90.006776
_cell_angle_gamma	84.487523
loop_
_atom_site_label
_atom_site_type_symbol
_atom_site_fract_x
_atom_site_fract_y
_atom_site_fract_z
O1	O	1.667831	0.176474	0.073288
O2	O	1.302355	0.193263	0.073277
O3	O	1.493496	0.002130	0.073276
O4	O	1.476690	0.367608	0.073289
O5	O	1.493481	0.002125	-0.073182
O6	O	1.302340	0.193259	-0.073180
O7	O	1.667816	0.176469	-0.073170
Zn8	Zn	1.485076	0.184863	-0.096428
Zn9	Zn	1.485095	0.184869	0.096535
O10	O	1.476675	0.367603	-0.073168
C11	C	1.255549	0.192025	0.000047
C12	C	1.116107	0.188327	0.000042
C13	C	1.050568	0.186599	-0.079785
C14	C	0.919546	0.183134	-0.079770
C15	C	0.919612	0.183130	0.079906
C16	C	1.050633	0.186586	0.079890
C17	C	1.050528	0.186607	-0.171972
C18	C	0.919506	0.183142	-0.171958
C19	C	1.492254	-0.044671	0.000047
C20	C	1.488562	-0.184114	0.000047
C21	C	1.714621	0.177708	0.000062
C22	C	1.854064	0.181406	0.000072
C23	C	1.483342	-0.380670	-0.079772
C24	C	1.486815	-0.249648	-0.079783
C25	C	1.486825	-0.249606	0.079893
C26	C	1.483343	-0.380624	0.079903
C27	C	1.483341	-0.380694	-0.171960
C28	C	1.486814	-0.249672	-0.171970
C29	C	1.477916	0.414403	0.000062
C30	C	1.481608	0.553847	0.000068
N31	N	1.485071	0.184859	-0.228121
C32	C	1.569743	0.100253	-0.546040
C33	C	1.569740	0.100254	-0.453850
C34	C	1.400433	0.269479	-0.453859
C35	C	1.400444	0.269483	-0.546047
C36	C	1.485097	0.184864	-0.592135
C37	C	1.485083	0.184859	-0.407758
C38	C	1.485079	0.184860	-0.307801
C39	C	1.485104	0.184864	-0.692098
N40	N	1.485109	0.184864	0.228228
H41	H	1.481919	-0.433934	0.144916
C42	C	1.294490	-0.303523	-0.248716
C43	C	1.363625	-0.414230	-0.219734
H44	H	1.220581	-0.324230	-0.278203
H45	H	1.344540	-0.260118	-0.288029
H46	H	1.271447	-0.251150	-0.199567
H47	H	1.386676	-0.466598	-0.268884
H48	H	1.313565	-0.457655	-0.180419
H49	H	0.873216	0.269938	-0.207346
H50	H	1.080100	0.278202	-0.200573
H51	H	1.575490	-0.224854	-0.207365
H52	H	1.572779	-0.432412	-0.200558
H53	H	0.889915	0.091547	-0.200567
H54	H	1.488235	-0.196236	0.144892
H55	H	1.397368	-0.197973	-0.200584
C56	C	1.737095	-0.067016	-0.536768
C57	C	1.662798	0.007246	-0.596701
H58	H	1.794549	-0.124430	-0.568044
H59	H	1.684421	-0.112674	-0.500823
H60	H	1.782720	-0.014305	-0.500800
H61	H	1.617166	-0.045465	-0.632664
H62	H	1.715479	0.052907	-0.632661
C63	C	1.595230	-0.070602	-0.350358
C64	C	1.662676	0.007044	-0.403260
H65	H	1.652580	-0.128201	-0.319147
H66	H	1.542459	-0.116052	-0.386387
H67	H	1.544924	-0.020209	-0.309654
H68	H	1.712976	-0.043349	-0.443968
H69	H	1.715469	0.052497	-0.367228
H70	H	1.331508	0.338372	-0.416325
C71	C	1.233073	0.436752	-0.536804
C72	C	1.307389	0.362491	-0.596722
H73	H	1.175626	0.494163	-0.568091
H74	H	1.285735	0.482413	-0.500838
H75	H	1.187440	0.384040	-0.500857
H76	H	1.353030	0.415202	-0.632666
H77	H	1.254720	0.316827	-0.632704
C78	C	0.932839	0.183474	0.237736
C79	C	0.847639	0.181227	0.167672
H80	H	0.888406	0.182294	0.291920
H81	H	0.975006	0.257928	0.234412
H82	H	0.992875	0.111710	0.234400
H83	H	0.787609	0.252996	0.171005
H84	H	0.805451	0.106765	0.170998
C85	C	1.184856	0.298227	0.172519
C86	C	1.122677	0.188472	0.167638
H87	H	1.229337	0.299383	0.226692
H88	H	1.124814	0.369974	0.169219
H89	H	1.242601	0.299743	0.124963
H90	H	1.064924	0.186960	0.215191
H91	H	1.182725	0.116705	0.170947
H92	H	1.096784	0.099812	-0.207377
