data_functionalizedCrystal
_audit_creation_method	'MofGen! by Chris Wilmer'
_symmetry_space_group_name_H-M	'P1'
_symmetry_Int_Tables_number	1
_symmetry_cell_setting	triclinic
loop_
_symmetry_equiv_pos_as_xyz
  x,y,z
_cell_length_a	6.817900
_cell_length_b	17.078472
_cell_length_c	10.992410
_cell_angle_alpha	95.080907
_cell_angle_beta	108.764651
_cell_angle_gamma	99.306020
loop_
_atom_site_label
_atom_site_type_symbol
_atom_site_fract_x
_atom_site_fract_y
_atom_site_fract_z
V1	V	-4.066459	-0.109767	-0.400464
O2	O	-4.074672	0.005275	-0.392974
O3	O	-3.997069	-0.217650	-0.397597
O4	O	-4.044786	-0.108079	-0.575179
O5	O	-4.026625	-0.105055	-0.214163
V6	V	-4.549343	-0.096007	-0.378196
O7	O	-4.329118	-0.139952	-0.449310
O8	O	-4.736882	-0.065822	-0.329351
O9	O	-4.395527	0.011876	-0.381063
O10	O	-4.658527	-0.211049	-0.385687
O11	O	-4.706574	-0.100719	-0.564497
O12	O	-4.347810	-0.097695	-0.203482
C13	C	-3.836098	-0.243950	-0.391247
C14	C	-3.860829	-0.332145	-0.390068
C15	C	-4.054756	-0.377620	-0.395918
C16	C	-4.077984	-0.460490	-0.394817
C17	C	-3.907279	-0.497882	-0.387858
C18	C	-3.713339	-0.452401	-0.382011
C19	C	-3.690117	-0.369534	-0.383121
C20	C	-3.957184	-0.745286	-0.383861
C21	C	-3.980420	-0.828159	-0.382748
C22	C	-4.345066	-0.836242	-0.395556
C23	C	-4.321823	-0.753373	-0.396657
C24	C	-4.127889	-0.707899	-0.390818
N25	N	-3.931016	-0.582587	-0.386729
N26	N	-4.104159	-0.623196	-0.391956
C27	C	-3.896966	-0.104180	-0.617768
C28	C	-3.960390	-0.103513	-0.760597
C29	C	-3.830158	-0.097439	-0.955727
C30	C	-3.764163	-0.098461	-0.807243
C31	C	-4.124349	-0.181738	-0.837609
C32	C	-4.188964	-0.181046	-0.986176
C33	C	-4.132676	-0.029574	-0.948322
C34	C	-4.062129	-0.029203	-0.799310
C35	C	-4.219838	0.038171	-0.387410
C36	C	-4.174347	0.126366	-0.388598
C37	C	-4.158971	-0.101597	-0.160886
C38	C	-4.074785	-0.102260	-0.018056
H39	H	-3.799271	-0.708271	-0.379098
H40	H	-3.782483	-0.149664	-1.003658
H41	H	-4.055624	0.029828	-0.968751
H42	H	-4.460838	-0.722935	-0.402334
O43	O	-4.136608	-0.253946	-1.047386
H44	H	-4.182154	-0.254179	-1.153891
O45	O	-4.031915	-0.254821	-0.803626
H46	H	-4.131994	-0.293425	-0.761167
H47	H	-3.532205	-0.332509	-0.378363
O48	O	-3.529216	-0.492726	-0.374518
H49	H	-3.577935	-0.557988	-0.374720
O50	O	-4.250893	-0.027969	-0.756239
H51	H	-4.222150	0.028148	-0.688375
O52	O	-4.287147	-0.509533	-0.401109
H53	H	-4.411910	-0.504030	-0.492348
O54	O	-3.796310	-0.868498	-0.375263
H55	H	-3.662616	-0.842183	-0.284450
O56	O	-3.599922	-0.023966	-0.736659
H57	H	-3.567020	0.013116	-0.808518
H58	H	-4.502961	-0.873275	-0.400310
H59	H	-3.737611	-0.040805	-0.974623
O60	O	-3.657887	-0.168600	-0.774271
H61	H	-3.653504	-0.201925	-0.864445
H62	H	-4.368004	-0.187848	-1.028800
H63	H	-4.271886	-0.188260	-0.808798
O64	O	-3.905756	0.047455	-0.730066
H65	H	-3.756198	0.032702	-0.668324
O66	O	-4.368111	-0.033323	-1.002424
H67	H	-4.443611	-0.086663	-1.078603
H68	H	-4.193761	-0.347181	-0.401573
