data_functionalizedCrystal
_audit_creation_method	'MofGen! by Chris Wilmer'
_symmetry_space_group_name_H-M	'P1'
_symmetry_Int_Tables_number	1
_symmetry_cell_setting	triclinic
loop_
_symmetry_equiv_pos_as_xyz
  x,y,z
_cell_length_a	10.540514
_cell_length_b	15.995350
_cell_length_c	9.616153
_cell_angle_alpha	89.999971
_cell_angle_beta	89.992599
_cell_angle_gamma	84.003767
loop_
_atom_site_label
_atom_site_type_symbol
_atom_site_fract_x
_atom_site_fract_y
_atom_site_fract_z
O1	O	1.684290	0.117894	-0.115656
O2	O	1.314720	0.129033	-0.115654
O3	O	1.509608	0.001636	-0.115653
O4	O	1.489403	0.245291	-0.115656
O5	O	1.509581	0.001638	0.115638
O6	O	1.314694	0.129036	0.115638
O7	O	1.684264	0.117896	0.115636
Zn8	Zn	1.499474	0.123467	0.152359
Zn9	Zn	1.499510	0.123463	-0.152377
O10	O	1.489376	0.245294	0.115636
C11	C	1.267415	0.128204	-0.000008
C12	C	1.126499	0.125718	-0.000007
C13	C	1.054541	0.216831	-0.000011
C14	C	0.907963	0.214276	-0.000543
C15	C	0.934858	0.076165	-0.131837
C16	C	1.081353	0.079366	-0.131940
C17	C	1.081744	0.078021	0.131091
C18	C	0.934777	0.077142	0.132816
C19	C	1.508759	-0.029563	-0.000010
C20	C	1.506255	-0.122528	-0.000018
C21	C	1.497262	-0.460329	-0.000013
C22	C	1.358466	-0.413716	-0.000532
C23	C	1.360971	-0.317011	-0.000010
C24	C	1.501722	-0.292742	-0.000017
C25	C	1.570166	-0.333412	0.132059
C26	C	1.566679	-0.430069	0.132170
C27	C	1.569577	-0.430413	-0.130852
C28	C	1.569544	-0.333468	-0.132597
C29	C	1.504251	-0.198029	-0.000014
C30	C	1.494737	-0.555041	-0.000007
C31	C	1.731569	0.118726	-0.000013
C32	C	1.872485	0.121212	-0.000023
C33	C	1.490225	0.276492	-0.000011
C34	C	1.492729	0.369458	-0.000012
N35	N	1.499460	0.123469	0.360334
N36	N	1.499534	0.123455	-0.360352
C37	C	1.394895	0.191389	0.580704
C38	C	1.395120	0.191644	0.419536
C39	C	1.631912	0.143336	0.418782
C40	C	1.631340	0.143817	0.580000
C41	C	1.472897	0.035458	0.580246
C42	C	1.469843	0.036028	0.419020
H43	H	0.893318	0.110062	0.230334
H44	H	1.671910	-0.461568	-0.131744
C45	C	1.709859	-0.313511	0.138702
H46	H	1.749444	-0.338702	0.219331
H47	H	1.712292	-0.254360	0.142659
H48	H	1.754033	-0.335212	0.058212
C49	C	1.502044	-0.296988	-0.264597
H50	H	1.432822	-0.257100	-0.239032
H51	H	1.470871	-0.341073	-0.316458
H52	H	1.560798	-0.270265	-0.319726
H53	H	0.865758	0.249554	-0.095590
C54	C	1.664371	0.229085	0.364233
H55	H	1.597384	0.252888	0.305855
H56	H	1.741622	0.221654	0.312703
H57	H	1.674102	0.265623	0.440499
C58	C	1.262099	0.175556	0.366141
H59	H	1.262053	0.175702	0.267345
H60	H	1.200462	0.218511	0.399273
H61	H	1.241715	0.122532	0.398852
C62	C	1.499214	-0.455198	0.265535
H63	H	1.496497	-0.514374	0.266781
H64	H	1.414756	-0.427898	0.267588
H65	H	1.544787	-0.438833	0.344519
C66	C	1.663040	0.230543	0.630792
H67	H	1.662976	0.231600	0.729573
H68	H	1.600835	0.272832	0.596694
H69	H	1.744882	0.240694	0.597457
C70	C	1.704330	-0.472822	0.140286
H71	H	1.762130	-0.431096	0.143513
H72	H	1.721850	-0.507238	0.060646
H73	H	1.713932	-0.506498	0.221738
H74	H	1.378419	0.016547	0.620984
H75	H	1.084279	0.253250	-0.094398
C76	C	1.338220	0.015682	0.367425
H77	H	1.301463	0.060281	0.310349
H78	H	1.284233	0.009191	0.444935
H79	H	1.347768	-0.034975	0.315130
H80	H	1.522607	-0.305311	0.230350
H81	H	1.303227	-0.433636	0.093656
C82	C	1.288295	-0.279039	-0.127906
H83	H	1.289738	-0.219751	-0.127763
H84	H	1.202445	-0.292038	-0.124643
H85	H	1.327884	-0.301896	-0.210228
H86	H	0.911524	0.009307	0.141168
H87	H	1.296131	0.179620	0.619515
C88	C	1.566109	-0.035547	0.364606
H89	H	1.625895	-0.012938	0.305126
H90	H	1.522061	-0.074679	0.314277
H91	H	1.609791	-0.063171	0.440860
C92	C	1.118893	0.123815	-0.265549
H93	H	1.044644	0.139753	-0.319249
H94	H	1.176506	0.086653	-0.318139
H95	H	1.158666	0.172478	-0.241681
C96	C	1.123698	0.118992	0.266109
H97	H	1.095744	0.089259	0.343953
H98	H	1.087187	0.175813	0.269840
H99	H	1.214060	0.117170	0.267833
H100	H	1.129924	0.010815	0.132363
C101	C	1.739613	0.078327	0.366974
H102	H	1.818842	0.091522	0.403550
H103	H	1.742636	0.079529	0.268272
H104	H	1.723812	0.023819	0.397165
H105	H	1.549205	-0.015106	0.618362
H106	H	1.411671	0.256306	0.621201
C107	C	0.905978	-0.016171	-0.137971
H108	H	0.855499	-0.028097	-0.060014
H109	H	0.983746	-0.051997	-0.136532
H110	H	0.860845	-0.025380	-0.221148
C111	C	1.283524	-0.439203	-0.128467
H112	H	1.336203	-0.478503	-0.182711
H113	H	1.258003	-0.390779	-0.182858
H114	H	1.210136	-0.464072	-0.098753
H115	H	1.711636	0.096330	0.618989
H116	H	1.672187	-0.317498	-0.140576
H117	H	1.412122	0.256930	0.380956
C118	C	1.092399	0.266772	0.127655
H119	H	1.152435	0.232509	0.182102
H120	H	1.018717	0.283269	0.181939
H121	H	1.129433	0.315347	0.097679
H122	H	1.130280	0.012437	-0.137568
C123	C	0.849648	0.262143	0.127067
H124	H	0.915533	0.283332	0.179698
H125	H	0.806749	0.225098	0.183152
H126	H	0.790700	0.307548	0.097070
C127	C	1.508298	-0.458519	-0.266091
H128	H	1.553363	-0.439833	-0.343774
H129	H	1.421831	-0.434969	-0.270147
H130	H	1.511909	-0.518104	-0.267789
C131	C	0.876807	0.117906	-0.264866
H132	H	0.814576	0.162778	-0.240360
H133	H	0.837841	0.077565	-0.318083
H134	H	0.942198	0.139145	-0.318214
C135	C	1.287791	-0.279795	0.128118
H136	H	1.256424	-0.323790	0.180061
H137	H	1.218327	-0.241235	0.098677
H138	H	1.343491	-0.251412	0.184688
