data_functionalizedCrystal
_audit_creation_method	'MofGen! by Chris Wilmer'
_symmetry_space_group_name_H-M	'P1'
_symmetry_Int_Tables_number	1
_symmetry_cell_setting	triclinic
loop_
_symmetry_equiv_pos_as_xyz
  x,y,z
_cell_length_a	10.723024
_cell_length_b	8.559649
_cell_length_c	7.088929
_cell_angle_alpha	84.655815
_cell_angle_beta	96.263408
_cell_angle_gamma	77.123267
loop_
_atom_site_label
_atom_site_type_symbol
_atom_site_fract_x
_atom_site_fract_y
_atom_site_fract_z
O1	O	1.619870	0.240138	-0.158966
O2	O	1.254520	0.261568	-0.158971
O3	O	1.469383	0.018604	-0.158966
O4	O	1.405007	0.483102	-0.158971
O5	O	1.498104	-0.013940	0.159010
O6	O	1.283241	0.229024	0.159005
O7	O	1.648591	0.207595	0.159010
Cu8	Cu	1.468539	0.215338	0.188041
Cu9	Cu	1.434572	0.253824	-0.188002
O10	O	1.433728	0.450559	0.159005
C11	C	1.488622	-0.057144	0.000019
C12	C	1.503142	-0.234364	0.000008
C13	C	1.222541	0.243736	0.000016
C14	C	1.084465	0.239071	0.000013
C15	C	0.995544	0.375021	0.000011
C16	C	0.852834	0.370202	0.000008
C17	C	1.680570	0.225426	0.000019
C18	C	1.818645	0.230093	0.000009
C19	C	1.414489	0.526307	0.000016
C20	C	1.399967	0.703528	0.000014
N21	N	1.492438	0.188267	0.452530
N22	N	1.410684	0.280882	-0.452491
H23	H	1.602593	-0.316782	0.000025
H24	H	0.895002	0.113704	-0.000001
C25	C	1.297829	0.409102	0.438754
C26	C	1.307559	0.561206	0.487265
C27	C	1.203628	0.679365	0.387087
H28	H	1.219117	0.387844	0.471402
H29	H	1.299455	0.407351	0.305230
H30	H	1.305920	0.562953	0.620760
H31	H	1.386249	0.582515	0.454612
H32	H	1.205254	0.677614	0.253562
H33	H	1.124923	0.658091	0.419743
H34	H	1.210222	0.782582	0.419973
C35	C	1.605600	0.060480	0.561291
C36	C	1.721304	0.092528	0.512738
C37	C	1.825572	-0.025142	0.612907
H38	H	1.599396	-0.042921	0.528665
H39	H	1.604056	0.062343	0.694817
H40	H	1.722847	0.090648	0.379242
H41	H	1.727550	0.195907	0.545369
H42	H	1.824029	-0.023279	0.746433
H43	H	1.819356	-0.128535	0.580273
H44	H	1.904090	-0.003406	0.579992
H45	H	1.025068	0.494979	0.000020
C46	C	1.267260	-0.186760	-0.000297
C47	C	1.186136	-0.199717	-0.163864
C48	C	1.063871	-0.098680	-0.164204
H49	H	1.274602	-0.078192	-0.000406
H50	H	1.231996	-0.218024	0.110531
H51	H	1.221391	-0.168444	-0.274664
H52	H	1.178756	-0.308262	-0.163790
H53	H	1.028607	-0.129945	-0.053376
H54	H	1.071226	0.009881	-0.164308
H55	H	1.008810	-0.107470	-0.275172
C56	C	0.751040	0.525490	-0.000391
C57	C	0.750335	0.630960	-0.164007
C58	C	0.656564	0.774022	-0.164454
H59	H	0.770316	0.574776	0.110364
H60	H	0.668621	0.501703	-0.000498
H61	H	0.832735	0.654749	-0.163883
H62	H	0.731043	0.581726	-0.274788
H63	H	0.574145	0.750235	-0.164560
H64	H	0.675849	0.823293	-0.053691
H65	H	0.656065	0.845595	-0.275473
H66	H	1.054937	0.119117	-0.000034
