data_functionalizedCrystal
_audit_creation_method	'MofGen! by Chris Wilmer'
_symmetry_space_group_name_H-M	'P1'
_symmetry_Int_Tables_number	1
_symmetry_cell_setting	triclinic
loop_
_symmetry_equiv_pos_as_xyz
  x,y,z
_cell_length_a	16.109301
_cell_length_b	16.109302
_cell_length_c	14.586319
_cell_angle_alpha	89.996326
_cell_angle_beta	89.998857
_cell_angle_gamma	83.461823
loop_
_atom_site_label
_atom_site_type_symbol
_atom_site_fract_x
_atom_site_fract_y
_atom_site_fract_z
O1	O	1.103131	0.106867	-0.076190
O2	O	1.436465	0.440200	0.257144
O3	O	1.769798	0.773534	0.590477
O4	O	0.861069	0.120166	-0.076203
O5	O	1.194403	0.453499	0.257131
O6	O	1.527736	0.786833	0.590464
O7	O	0.988749	-0.007514	-0.076190
O8	O	1.322083	0.325819	0.257143
O9	O	1.655416	0.659152	0.590477
O10	O	0.975451	0.234547	-0.076202
O11	O	1.308785	0.567881	0.257131
O12	O	1.642118	0.901214	0.590464
O13	O	0.988740	-0.007516	0.076291
O14	O	1.322074	0.325817	0.409624
O15	O	1.655407	0.659150	0.742957
O16	O	0.861060	0.120164	0.076278
O17	O	1.194394	0.453498	0.409612
O18	O	1.527727	0.786831	0.742945
O19	O	1.103122	0.106865	0.076291
O20	O	1.436456	0.440198	0.409624
O21	O	1.769789	0.773532	0.742958
Cu22	Cu	0.982091	0.113515	0.090207
Cu23	Cu	1.315424	0.446848	0.423541
Cu24	Cu	1.648757	0.780181	0.756874
Cu25	Cu	0.982101	0.113517	-0.090119
Cu26	Cu	1.315434	0.446850	0.243214
Cu27	Cu	1.648768	0.780183	0.576548
O28	O	0.975442	0.234546	0.076279
O29	O	1.308776	0.567879	0.409612
O30	O	1.642109	0.901212	0.742945
C31	C	0.830090	0.119626	0.000036
C32	C	1.163423	0.452960	0.333370
C33	C	1.496757	0.786293	0.666703
C34	C	0.737795	0.118011	0.000031
C35	C	1.071128	0.451345	0.333365
C36	C	1.404461	0.784678	0.666698
C37	C	0.988206	-0.038490	0.000050
C38	C	1.321539	0.294843	0.333383
C39	C	1.654873	0.628177	0.666717
C40	C	0.986590	-0.130785	0.000048
C41	C	1.319924	0.202548	0.333382
C42	C	1.653257	0.535881	0.666715
C43	C	0.428797	0.188494	0.000044
C44	C	0.762130	0.521828	0.333377
C45	C	1.095463	0.855161	0.666711
C46	C	0.515517	0.190020	0.000038
C47	C	0.848850	0.523353	0.333372
C48	C	1.182184	0.856686	0.666705
C49	C	0.535390	0.038531	0.000034
C50	C	0.868723	0.371864	0.333367
C51	C	1.202056	0.705198	0.666701
C52	C	0.448671	0.037007	0.000033
C53	C	0.782004	0.370340	0.333366
C54	C	1.115337	0.703673	0.666699
C55	C	0.395376	0.111991	0.000042
C56	C	0.728710	0.445324	0.333376
C57	C	1.062043	0.778657	0.666709
C58	C	0.568815	0.115041	0.000038
C59	C	0.902149	0.448374	0.333371
C60	C	1.235482	0.781707	0.666705
C61	C	0.662841	0.116694	0.000032
C62	C	0.996175	0.450027	0.333366
C63	C	1.329508	0.783361	0.666699
C64	C	0.301344	0.110338	0.000046
C65	C	0.634678	0.443671	0.333380
C66	C	0.968011	0.777004	0.666713
C67	C	1.134102	0.107405	0.000050
C68	C	1.467435	0.440738	0.333384
C69	C	1.800768	0.774071	0.666717
C70	C	1.226397	0.109020	0.000049
C71	C	1.559730	0.442353	0.333382
C72	C	1.893064	0.775687	0.666716
N73	N	0.982089	0.113512	0.217039
N74	N	1.315423	0.446846	0.550372
N75	N	1.648756	0.780179	0.883706
C76	C	0.975986	0.265521	0.000037
C77	C	1.309319	0.598855	0.333370
C78	C	1.642652	0.932188	0.666703
C79	C	0.977601	0.357817	0.000032
C80	C	1.310935	0.691150	0.333365
C81	C	1.644268	1.024483	0.666699
C82	C	0.981341	0.570159	-0.083079
C83	C	1.314674	0.903492	0.250254
C84	C	1.648007	1.236825	0.583588
C85	C	0.982867	0.656879	-0.083077
C86	C	1.316201	0.990212	0.250256
C87	C	1.649534	1.323545	0.583590
C88	C	0.982853	0.656866	0.083166
C89	C	1.316187	0.990200	0.416499
C90	C	1.649520	1.323533	0.749833
C91	C	0.981333	0.570147	0.083163
C92	C	1.314666	0.903480	0.416496
C93	C	1.647999	1.236814	0.749830
C94	C	0.980572	0.526796	0.000038
C95	C	1.313906	0.860129	0.333371
C96	C	1.647239	1.193463	0.666704
C97	C	0.983619	0.700235	0.000043
C98	C	1.316953	1.033569	0.333376
C99	C	1.650286	1.366902	0.666709
C100	C	0.985274	0.794261	0.000045
C101	C	1.318608	1.127594	0.333379
C102	C	1.651941	1.460928	0.666712
C103	C	0.978919	0.432764	0.000035
C104	C	1.312252	0.766097	0.333368
C105	C	1.645585	1.099431	0.666701
N106	N	0.982109	0.113512	-0.216951
N107	N	1.315442	0.446846	0.116383
N108	N	1.648776	0.780179	0.449716
C109	C	1.038645	0.056994	0.452051
C110	C	1.371978	0.390328	0.785384
C111	C	1.705311	0.723661	1.118718
C112	C	1.038647	0.056992	0.548032
C113	C	1.371980	0.390326	0.881366
C114	C	1.705314	0.723659	1.214699
C115	C	0.925548	0.170033	0.548031
C116	C	1.258881	0.503366	0.881364
C117	C	1.592214	0.836700	1.214697
C118	C	0.925542	0.170030	0.452051
C119	C	1.258875	0.503364	0.785385
C120	C	1.592209	0.836697	1.118718
C121	C	0.982095	0.113512	0.404064
C122	C	1.315428	0.446845	0.737397
C123	C	1.648762	0.780179	1.070731
C124	C	0.982103	0.113513	0.596025
C125	C	1.315437	0.446846	0.929358
C126	C	1.648770	0.780179	1.262691
C127	C	0.982105	0.113511	0.700092
C128	C	1.315439	0.446844	1.033425
C129	C	1.648772	0.780178	1.366758
C130	C	0.982092	0.113512	0.299990
C131	C	1.315425	0.446846	0.633323
C132	C	1.648759	0.780179	0.966657
H133	H	0.385406	0.249551	0.000051
H134	H	0.718740	0.582885	0.333384
H135	H	1.052073	0.916218	0.666718
H136	H	0.983471	0.692173	0.150843
H137	H	1.316804	1.025507	0.484177
H138	H	1.650138	1.358840	0.817510
H139	H	0.542723	0.252316	0.000039
H140	H	0.876057	0.585650	0.333372
H141	H	1.209390	0.918983	0.666706
H142	H	1.084694	0.010970	0.587101
H143	H	1.418027	0.344303	0.920434
H144	H	1.751360	0.677636	1.253768
H145	H	0.578792	-0.022518	0.000028
H146	H	0.912125	0.310815	0.333361
H147	H	1.245459	0.644149	0.666695
H148	H	0.983494	0.692181	-0.150759
H149	H	1.316828	1.025514	0.182574
H150	H	1.650161	1.358847	0.515908
H151	H	0.980709	0.534840	0.150851
H152	H	1.314043	0.868173	0.484184
H153	H	1.647376	1.201506	0.817517
H154	H	0.879488	0.216054	0.412977
H155	H	1.212822	0.549387	0.746311
H156	H	1.546155	0.882721	1.079644
H157	H	0.421461	-0.025296	0.000028
H158	H	0.754794	0.308038	0.333362
H159	H	1.088127	0.641371	0.666695
H160	H	0.980721	0.534865	-0.150765
H161	H	1.314054	0.868198	0.182568
H162	H	1.647387	1.201532	0.515902
H163	H	1.084693	0.010973	0.412982
H164	H	1.418026	0.344306	0.746315
H165	H	1.751359	0.677639	1.079649
H166	H	0.879504	0.216050	0.587112
H167	H	1.212838	0.549383	0.920445
H168	H	1.546171	0.882717	1.253778
