data_functionalizedCrystal
_audit_creation_method	'MofGen! by Chris Wilmer'
_symmetry_space_group_name_H-M	'P1'
_symmetry_Int_Tables_number	1
_symmetry_cell_setting	triclinic
loop_
_symmetry_equiv_pos_as_xyz
  x,y,z
_cell_length_a	14.809542
_cell_length_b	14.809374
_cell_length_c	14.809374
_cell_angle_alpha	88.612464
_cell_angle_beta	106.574434
_cell_angle_gamma	106.572554
loop_
_atom_site_label
_atom_site_type_symbol
_atom_site_fract_x
_atom_site_fract_y
_atom_site_fract_z
Zr1	Zr	-1.035485	0.944709	-0.055900
O2	O	-1.160489	0.841444	-0.159169
O3	O	-0.876957	0.960880	-0.039723
O4	O	-1.018723	0.996515	-0.194799
O5	O	-1.043636	0.795315	0.135842
O6	O	-1.043636	1.136451	-0.205294
O7	O	-1.018723	0.805809	-0.004094
O8	O	-0.790042	1.072709	0.072108
O9	O	-1.297230	0.859058	-0.141560
O10	O	-0.973171	1.090919	-0.021953
O11	O	-0.973171	0.978654	0.090312
O12	O	-1.140082	1.020608	-0.092269
O13	O	-1.140082	0.908343	0.019996
Zr14	Zr	-1.114952	1.151155	0.150543
Zr15	Zr	-1.075219	1.167892	-0.072639
Zr16	Zr	-1.075219	0.927971	0.167282
Zr17	Zr	-1.253571	0.972801	-0.027815
Zr18	Zr	-0.896867	1.123062	0.122457
O19	O	-1.273481	1.134983	0.134366
O20	O	-1.216985	1.158781	-0.182970
O21	O	-1.216985	0.817645	0.158167
O22	O	-0.989948	1.254420	0.253812
O23	O	-0.933453	1.278218	-0.063524
O24	O	-0.933453	0.937082	0.277613
O25	O	-1.106801	1.300548	-0.041199
O26	O	-1.131714	1.099349	0.289442
O27	O	-1.106801	0.959412	0.299937
O28	O	-1.131714	1.290054	0.098737
O29	O	-1.328812	1.036459	-0.154865
O30	O	-0.821625	1.059405	0.249508
O31	O	-0.853208	1.236805	0.236202
O32	O	-0.821625	1.250110	0.058802
O33	O	-1.328812	0.845754	0.035840
O34	O	-1.360395	1.023155	0.022535
O35	O	-1.010355	1.075255	0.186912
O36	O	-1.010355	1.187520	0.074647
O37	O	-1.177267	1.117210	0.004331
O38	O	-1.177267	1.004944	0.116596
C39	C	-0.802427	1.012792	0.012190
C40	C	-0.709844	1.000866	0.000267
C41	C	-0.527371	1.041773	0.041166
C42	C	-0.623055	1.054102	0.053502
C43	C	-1.025518	0.768763	0.068259
C44	C	-1.008650	0.674016	0.075365
C45	C	-0.348008	1.083072	0.082457
C46	C	-0.440585	1.095002	0.094393
C47	C	-1.083930	0.596896	0.043652
C48	C	-1.066498	0.498969	0.050995
C49	C	-1.025518	1.068868	-0.231845
C50	C	-1.008650	1.075973	-0.326592
C51	C	-1.124919	1.327100	0.026384
C52	C	-1.141787	1.421847	0.019278
C53	C	-1.083930	1.044262	-0.403714
C54	C	-1.066498	1.051605	-0.501641
C55	C	-1.124919	1.026996	0.326488
C56	C	-1.141787	1.019890	0.421235
C57	C	-0.852127	1.291960	-0.008747
C58	C	-0.776412	1.374781	-0.027776
C59	C	-0.852127	0.991856	0.291357
C60	C	-0.776412	0.972824	0.374181
C61	C	-0.901828	1.271024	0.270419
C62	C	-0.842980	1.346740	0.346137
C63	C	-1.248610	0.824839	-0.175777
C64	C	-1.307457	0.749124	-0.251494
C65	C	-1.298310	0.803903	0.103390
C66	C	-1.374025	0.721082	0.122419
C67	C	-1.298310	1.104007	-0.196714
C68	C	-1.374025	1.123039	-0.279538
C69	C	-0.721444	1.363251	-0.087146
C70	C	-0.650308	1.441064	-0.105045
C71	C	-0.634138	1.530407	-0.063567
C72	C	-0.689114	1.541936	-0.004194
C73	C	-0.760253	1.464125	0.013698
C74	C	-0.760267	1.014311	0.463509
C75	C	-0.689138	0.996426	0.541341
C76	C	-0.634150	0.937059	0.529841
C77	C	-0.650300	0.895567	0.440504
C78	C	-0.721433	0.913447	0.362675
C79	C	-0.815347	1.440907	0.323093
C80	C	-0.760066	1.512061	0.394229
C81	C	-0.732413	1.489044	0.488409
C82	C	-0.760053	1.394867	0.511454
C83	C	-0.815339	1.323716	0.440318
C84	C	-1.335101	0.654958	-0.228448
C85	C	-1.390409	0.583807	-0.299582
C86	C	-1.418066	0.606825	-0.393761
C87	C	-1.390421	0.701001	-0.416806
C88	C	-1.335119	0.772150	-0.345672
C89	C	-1.429001	0.732614	0.181781
C90	C	-1.500156	0.654806	0.199658
C91	C	-1.516329	0.565464	0.158178
C92	C	-1.461349	0.553934	0.098809
C93	C	-1.390200	0.631743	0.080927
C94	C	-1.428994	1.182411	-0.268009
C95	C	-1.500130	1.200311	-0.345825
C96	C	-1.516301	1.158834	-0.435168
C97	C	-1.461324	1.099459	-0.446696
C98	C	-1.390184	1.081565	-0.368882
H99	H	-1.161283	0.603369	0.011059
C100	C	-0.904145	0.665278	0.119391
N101	N	-0.825429	0.658698	0.152553
H102	H	-1.219147	0.428313	-0.013317
H103	H	-0.989136	0.492503	0.083578
C104	C	-1.188437	1.000250	-0.394980
N105	N	-1.267155	0.967100	-0.388403
C106	C	-1.479138	0.455646	0.053201
N107	N	-1.492531	0.381611	0.018859
C108	C	-1.560616	0.667508	0.264975
N109	N	-1.606150	0.677078	0.314174
H110	H	-0.737566	1.588738	0.375450
C111	C	-0.961986	1.095629	-0.510370
N112	N	-0.883269	1.128785	-0.516947
H113	H	-0.734606	1.290513	-0.120937
H114	H	-0.576231	0.922507	0.593222
C115	C	-1.246299	0.975862	-0.570038
N116	N	-1.325015	0.942698	-0.563463
C117	C	-0.904145	1.119995	-0.335327
N118	N	-0.825428	1.153151	-0.341904
C119	C	-1.420841	0.726304	-0.520412
N120	N	-1.443747	0.745358	-0.598451
H121	H	-0.605552	1.431658	-0.153390
C122	C	-0.671379	1.042086	0.639601
N123	N	-0.658002	1.076481	0.713608
C124	C	-0.555872	1.615992	-0.083252
N125	N	-0.496918	1.680450	-0.098079
H126	H	-1.345434	1.033216	-0.378281
C127	C	-0.671308	1.640220	0.041432
N128	N	-0.657888	1.714248	0.075803
H129	H	-0.805002	1.473525	0.062047
C130	C	-1.594562	1.178526	-0.520756
N131	N	-1.653511	1.193360	-0.585218
C132	C	-0.435900	1.168901	0.168294
N133	N	-0.432369	1.224565	0.223955
C134	C	-0.589798	0.830269	0.427868
N135	N	-0.544222	0.781092	0.418353
C136	C	-0.739172	0.867814	0.264412
N137	N	-0.752526	0.833440	0.190401
C138	C	-1.478890	0.528546	-0.472001
N139	N	-1.524698	0.469582	-0.530928
H140	H	-0.530834	0.987071	-0.013532
C141	C	-1.411232	0.830885	0.227416
N142	N	-1.397858	0.904902	0.261787
H143	H	-0.837853	1.459666	0.246411
C144	C	-0.671588	1.567322	0.566649
N145	N	-0.625770	1.626285	0.625575
C146	C	-1.329721	0.619038	0.015635
N147	N	-1.284169	0.609462	-0.033543
H148	H	-0.737531	1.376140	0.588144
H149	H	-0.805034	1.062652	0.472891
H150	H	-0.837830	1.247042	0.459094
C151	C	-1.420807	0.480220	-0.274212
N152	N	-1.443702	0.402200	-0.255101
H153	H	-1.312583	0.636197	-0.151768
C154	C	-1.594595	0.479879	0.177863
N155	N	-1.653543	0.415419	0.192696
H156	H	-1.312610	0.848823	-0.364449
H157	H	-1.415841	1.216190	-0.195268
H158	H	-1.474501	1.065693	-0.519449
C159	C	-0.618363	1.128004	0.127406
N160	N	-0.614832	1.183669	0.183068
C161	C	-0.714538	0.926965	-0.073640
N162	N	-0.718072	0.871305	-0.129307
H163	H	-1.544887	1.248656	-0.336420
