data_functionalizedCrystal
_audit_creation_method	'MofGen! by Chris Wilmer'
_symmetry_space_group_name_H-M	'P1'
_symmetry_Int_Tables_number	1
_symmetry_cell_setting	triclinic
loop_
_symmetry_equiv_pos_as_xyz
  x,y,z
_cell_length_a	18.050590
_cell_length_b	18.050590
_cell_length_c	18.050582
_cell_angle_alpha	90.024044
_cell_angle_beta	90.000128
_cell_angle_gamma	90.007719
loop_
_atom_site_label
_atom_site_type_symbol
_atom_site_fract_x
_atom_site_fract_y
_atom_site_fract_z
Zn1	Zn	1.135349	-0.295916	0.419598
Zn2	Zn	1.635349	0.204084	0.919598
Zn3	Zn	1.135279	-0.420101	0.295406
Zn4	Zn	1.635279	0.079899	0.795406
Zn5	Zn	1.011166	-0.295906	0.295456
Zn6	Zn	1.511166	0.204094	0.795456
Zn7	Zn	1.011137	-0.420045	0.419589
Zn8	Zn	1.511137	0.079955	0.919589
O9	O	1.073233	-0.357992	0.357512
O10	O	1.573233	0.142008	0.857512
O11	O	1.239264	-0.312417	0.403106
O12	O	1.739264	0.187583	0.903106
O13	O	1.118798	-0.403645	0.191488
O14	O	1.618798	0.096355	0.691488
O15	O	1.027681	-0.191983	0.311948
O16	O	1.527681	0.308017	0.811948
O17	O	1.239213	-0.403655	0.311863
O18	O	1.739213	0.096345	0.811863
O19	O	1.118917	-0.191990	0.403155
O20	O	1.618917	0.308010	0.903155
O21	O	1.027613	-0.312400	0.191525
O22	O	1.527613	0.187600	0.691525
O23	O	0.907238	-0.312346	0.311939
O24	O	1.407238	0.187654	0.811939
O25	O	1.027631	-0.403560	0.523514
O26	O	1.527631	0.096440	1.023514
O27	O	0.907216	-0.403550	0.403139
O28	O	1.407216	0.096450	0.903139
O29	O	1.118889	-0.312363	0.523521
O30	O	1.618889	0.187637	1.023521
O31	O	1.118769	-0.524018	0.311854
O32	O	1.618769	-0.024018	0.811854
O33	O	1.027563	-0.523977	0.403091
O34	O	1.527563	-0.023977	0.903091
C35	C	0.880281	-0.357941	0.357544
C36	C	1.380281	0.142059	0.857544
C37	C	0.797735	-0.357938	0.357575
C38	C	1.297735	0.142062	0.857575
C39	C	0.598294	-0.407677	0.407052
C40	C	1.098294	0.092323	0.907052
C41	C	0.548890	-0.339962	0.425328
C42	C	1.048890	0.160038	0.925328
C43	C	0.646604	-0.357979	0.357539
C44	C	1.146604	0.142021	0.857539
C45	C	0.548927	-0.425733	0.339262
C46	C	1.048927	0.074267	0.839262
C47	C	0.500619	-0.358025	0.357505
C48	C	1.000619	0.141975	0.857505
C49	C	0.598287	-0.290228	0.375850
C50	C	1.098287	0.209772	0.875850
C51	C	0.598329	-0.376045	0.289753
C52	C	1.098329	0.123955	0.789753
C53	C	0.548947	-0.308283	0.308004
C54	C	1.048947	0.191717	0.808004
C55	C	0.730703	-0.357954	0.357560
C56	C	1.230703	0.142046	0.857560
C57	C	0.416523	-0.358043	0.357484
C58	C	0.916523	0.141957	0.857484
C59	C	1.073176	-0.550944	0.357482
C60	C	1.573176	-0.050944	0.857482
C61	C	1.073219	-0.633490	0.357495
C62	C	1.573219	-0.133490	0.857495
C63	C	1.122920	-0.832936	0.307949
C64	C	1.622920	-0.332936	0.807949
C65	C	1.141057	-0.882277	0.375725
C66	C	1.641057	-0.382277	0.875725
C67	C	1.073261	-0.784620	0.357524
C68	C	1.573261	-0.284620	0.857524
C69	C	1.055200	-0.882361	0.289779
C70	C	1.555200	-0.382361	0.789779
C71	C	1.073303	-0.930605	0.357547
C72	C	1.573303	-0.430605	0.857547
C73	C	1.091433	-0.832874	0.425335
C74	C	1.591433	-0.332874	0.925335
C75	C	1.005545	-0.832954	0.339344
C76	C	1.505545	-0.332954	0.839344
C77	C	1.023655	-0.882273	0.407166
C78	C	1.523655	-0.382273	0.907166
C79	C	1.073239	-0.700522	0.357510
C80	C	1.573239	-0.200522	0.857510
C81	C	1.073326	-1.014702	0.357568
C82	C	1.573326	-0.514702	0.857568
C83	C	1.266938	-0.358044	0.357480
C84	C	1.766938	0.141956	0.857480
C85	C	1.349484	-0.358066	0.357467
C86	C	1.849484	0.141934	0.857467
C87	C	1.073265	-0.357957	0.551218
C88	C	1.573265	0.142043	1.051218
C89	C	1.073278	-0.357942	0.633763
C90	C	1.573278	0.142058	1.133763
C91	C	1.073310	-0.164287	0.357558
C92	C	1.573310	0.335713	0.857558
C93	C	1.073343	-0.081741	0.357578
C94	C	1.573343	0.418259	0.857578
C95	C	1.073243	-0.357974	0.164560
C96	C	1.573243	0.142026	0.664560
C97	C	1.073374	-0.357780	0.082014
C98	C	1.573374	0.142220	0.582014
C99	C	1.023699	-0.407454	0.882586
C100	C	1.523699	0.092546	1.382586
C101	C	1.005547	-0.339713	0.833204
C102	C	1.505547	0.160287	1.333204
C103	C	1.073341	-0.357833	0.930884
C104	C	1.573341	0.142167	1.430884
C105	C	1.091427	-0.425623	0.833184
C106	C	1.591427	0.074377	1.333184
C107	C	1.073309	-0.357890	0.784899
C108	C	1.573309	0.142110	1.284899
C109	C	1.055155	-0.290056	0.882589
C110	C	1.555155	0.209944	1.382589
C111	C	1.141066	-0.376012	0.882574
C112	C	1.641066	0.123988	1.382574
C113	C	1.122940	-0.308224	0.833215
C114	C	1.622940	0.191776	1.333215
C115	C	1.073358	-0.357801	1.014982
C116	C	1.573358	0.142199	1.514982
C117	C	1.073292	-0.357914	0.700802
C118	C	1.573292	0.142086	1.200802
H119	H	0.527241	-0.483012	0.323820
H120	H	1.027241	0.016988	0.823820
F121	F	0.626617	-0.462516	0.461839
F122	F	1.126617	0.037484	0.961839
H123	H	0.527416	-0.266227	0.266118
H124	H	1.027416	0.233773	0.766118
H125	H	1.164929	-0.811272	0.266069
H126	H	1.664929	-0.311272	0.766069
H127	H	0.620061	-0.391331	0.232459
H128	H	1.120061	0.108669	0.732459
F129	F	0.626506	-0.215337	0.396123
F130	F	1.126506	0.284663	0.896123
F131	F	0.930688	-0.804615	0.319203
F132	F	1.430688	-0.304615	0.819203
F133	F	0.520505	-0.320007	0.500236
F134	F	1.020505	0.179993	1.000236
F135	F	1.035056	-0.215131	0.910833
F136	F	1.535056	0.284869	1.410833
H137	H	1.164907	-0.266237	0.811674
H138	H	1.664907	0.233763	1.311674
F139	F	1.215934	-0.910584	0.395853
F140	F	1.715934	-0.410584	0.895853
F141	F	1.035210	-0.910774	0.214885
F142	F	1.535210	-0.410774	0.714885
F143	F	0.968788	-0.910412	0.462037
F144	F	1.468788	-0.410412	0.962037
H145	H	1.106669	-0.811230	0.482685
H146	H	1.606669	-0.311230	0.982685
F147	F	0.968805	-0.462202	0.910923
F148	F	1.468805	0.037798	1.410923
F149	F	0.930669	-0.319639	0.804858
F150	F	1.430669	0.180361	1.304858
F151	F	1.111435	-0.500524	0.804811
F152	F	1.611435	-0.000524	1.304811
F153	F	1.215923	-0.396110	0.910945
F154	F	1.715923	0.103890	1.410945
