data_functionalizedCrystal
_audit_creation_method	'MofGen! by Chris Wilmer'
_symmetry_space_group_name_H-M	'P1'
_symmetry_Int_Tables_number	1
_symmetry_cell_setting	triclinic
loop_
_symmetry_equiv_pos_as_xyz
  x,y,z
_cell_length_a	6.817900
_cell_length_b	11.102188
_cell_length_c	19.453114
_cell_angle_alpha	94.506017
_cell_angle_beta	101.709288
_cell_angle_gamma	108.603875
loop_
_atom_site_label
_atom_site_type_symbol
_atom_site_fract_x
_atom_site_fract_y
_atom_site_fract_z
V1	V	-4.033145	-0.177162	-0.218999
O2	O	-3.993679	0.007152	-0.214830
O3	O	-4.010448	-0.349973	-0.217501
O4	O	-3.975743	-0.175034	-0.314512
O5	O	-4.028624	-0.168998	-0.117148
V6	V	-4.514608	-0.155045	-0.206817
O7	O	-4.298920	-0.225677	-0.245722
O8	O	-4.699030	-0.106531	-0.180094
O9	O	-4.314098	0.017766	-0.208315
O10	O	-4.671471	-0.339359	-0.210986
O11	O	-4.636525	-0.163210	-0.308668
O12	O	-4.348803	-0.157173	-0.111304
C13	C	-3.861993	-0.392082	-0.214047
C14	C	-3.924663	-0.533361	-0.213459
C15	C	-3.916957	-0.581196	-0.148860
C16	C	-3.975865	-0.713944	-0.148311
C17	C	-4.050175	-0.751012	-0.276963
C18	C	-3.991282	-0.618266	-0.277512
C19	C	-3.817722	-0.168929	-0.337792
C20	C	-3.852244	-0.168333	-0.415875
C21	C	-4.051193	-0.174432	-0.456132
C22	C	-4.083630	-0.173872	-0.529499
C23	C	-3.917119	-0.167238	-0.562608
C24	C	-3.718139	-0.161131	-0.522341
C25	C	-3.685701	-0.161678	-0.448974
N26	N	-3.867359	-0.234355	-0.681397
N27	N	-3.898187	-0.233838	-0.751092
C28	C	-4.014840	-0.165586	-0.783656
N29	N	-4.099538	-0.097887	-0.743893
N30	N	-4.068716	-0.098410	-0.674192
C31	C	-3.952272	-0.166643	-0.642161
C32	C	-4.248973	-0.171077	-0.903466
C33	C	-4.281399	-0.170508	-0.976833
C34	C	-3.915908	-0.157780	-0.969674
C35	C	-3.883481	-0.158336	-0.896308
C36	C	-4.050024	-0.164990	-0.863208
C37	C	-4.125896	0.059868	-0.211767
C38	C	-4.042464	0.201146	-0.212360
C39	C	-4.170167	-0.163283	-0.088020
C40	C	-4.114883	-0.163873	-0.009937
H41	H	-3.862714	-0.512069	-0.096703
F42	F	-4.121071	-0.841383	-0.345130
F43	F	-3.738680	-0.150701	-1.004905
F44	F	-3.671738	-0.151861	-0.853463
H45	H	-3.997572	-0.579321	-0.330120
F46	F	-3.967668	-0.764848	-0.079556
H47	H	-4.186807	-0.179845	-0.429187
H48	H	-4.245647	-0.178845	-0.562283
H49	H	-4.384580	-0.176490	-0.876515
F50	F	-3.473945	-0.155190	-0.406128
F51	F	-3.540924	-0.154067	-0.557578
F52	F	-4.493157	-0.176997	-1.019678
