data_functionalizedCrystal
_audit_creation_method	'MofGen! by Chris Wilmer'
_symmetry_space_group_name_H-M	'P1'
_symmetry_Int_Tables_number	1
_symmetry_cell_setting	triclinic
loop_
_symmetry_equiv_pos_as_xyz
  x,y,z
_cell_length_a	25.639242
_cell_length_b	29.839131
_cell_length_c	25.639234
_cell_angle_alpha	90.033076
_cell_angle_beta	90.026995
_cell_angle_gamma	90.030754
loop_
_atom_site_label
_atom_site_type_symbol
_atom_site_fract_x
_atom_site_fract_y
_atom_site_fract_z
Zn1	Zn	0.799263	-0.178936	0.295711
Zn2	Zn	0.799184	-0.254058	0.208263
Zn3	Zn	0.711831	-0.178937	0.208275
Zn4	Zn	0.711789	-0.254034	0.295653
O5	O	0.755517	-0.216491	0.251976
O6	O	0.872417	-0.188911	0.284130
O7	O	0.787581	-0.244103	0.135099
O8	O	0.723480	-0.116070	0.219904
O9	O	0.872360	-0.244102	0.219882
O10	O	0.787715	-0.116069	0.284143
O11	O	0.723404	-0.188912	0.135109
O12	O	0.638661	-0.188889	0.219847
O13	O	0.723408	-0.244061	0.368826
O14	O	0.638630	-0.244062	0.284043
O15	O	0.787674	-0.188887	0.368869
O16	O	0.787540	-0.316922	0.219825
O17	O	0.723332	-0.316904	0.284030
C18	C	0.619674	-0.216473	0.251940
C19	C	0.561560	-0.216477	0.251937
C20	C	0.201190	-0.245268	0.285371
C21	C	0.146586	-0.245270	0.285379
O22	O	0.118343	-0.269728	0.313775
N23	N	0.119278	-0.216503	0.252010
C24	C	0.146577	-0.187728	0.218634
O25	O	0.118336	-0.163260	0.190252
C26	C	0.201180	-0.187724	0.218629
C27	C	0.228485	-0.216496	0.251996
C28	C	0.228495	-0.274037	0.318736
C29	C	0.283095	-0.274035	0.318727
C30	C	0.310391	-0.245263	0.285352
C31	C	0.283086	-0.216494	0.251987
C32	C	0.228479	-0.158947	0.185256
C33	C	0.283086	-0.158944	0.185254
C34	C	0.310391	-0.187717	0.218621
C35	C	0.364982	-0.187720	0.218604
N36	N	0.392290	-0.216487	0.251973
C37	C	0.364994	-0.245258	0.285347
C38	C	0.031906	-0.187740	0.218648
C39	C	-0.022696	-0.187746	0.218650
C40	C	-0.022684	-0.245288	0.285396
C41	C	0.031920	-0.245283	0.285391
C42	C	0.059214	-0.216507	0.252017
C43	C	0.479659	-0.245252	0.285325
C44	C	0.534265	-0.245248	0.285312
C45	C	0.534248	-0.187705	0.218568
C46	C	0.479647	-0.187710	0.218580
C47	C	0.452354	-0.216485	0.251962
O48	O	0.393260	-0.163273	0.190224
O49	O	0.393242	-0.269719	0.313729
C50	C	0.755437	-0.333214	0.251931
C51	C	0.755451	-0.383148	0.251930
C52	C	0.788957	-0.692756	0.285472
C53	C	0.789014	-0.880429	0.285504
O54	O	0.817423	-0.904664	0.313990
N55	N	0.755606	-0.903933	0.252034
C56	C	0.722179	-0.880516	0.218556
O57	O	0.693761	-0.904814	0.190092
C58	C	0.722120	-0.692844	0.218527
C59	C	0.755534	-0.669342	0.251996
C60	C	0.822368	-0.669254	0.318939
C61	C	0.822355	-0.622339	0.318928
C62	C	0.788932	-0.598925	0.285452
C63	C	0.755521	-0.622427	0.251986
C64	C	0.688690	-0.669427	0.185052
C65	C	0.688678	-0.622506	0.185049
C66	C	0.722092	-0.599005	0.218518
C67	C	0.722085	-0.552097	0.218499
N68	N	0.755493	-0.528593	0.251969
C69	C	0.788916	-0.552007	0.285446
C70	C	0.722213	-0.979046	0.218572
C71	C	0.722228	-1.025964	0.218578
C72	C	0.789062	-1.025874	0.285527
C73	C	0.789049	-0.978956	0.285518
C74	C	0.755621	-0.955542	0.252042
C75	C	0.788888	-0.453481	0.285421
C76	C	0.788874	-0.406562	0.285407
C77	C	0.722038	-0.406656	0.218460
C78	C	0.722054	-0.453571	0.218472
C79	C	0.755480	-0.476983	0.251957
O80	O	0.693686	-0.527834	0.190032
O81	O	0.817322	-0.527701	0.313913
C82	C	0.788969	-0.739671	0.285483
C83	C	0.755559	-0.763173	0.252016
C84	C	0.722135	-0.739759	0.218540
C85	C	0.755574	-0.810091	0.252023
C86	C	0.788997	-0.833505	0.285499
C87	C	0.822405	-0.810001	0.318969
C88	C	0.822393	-0.763085	0.318959
C89	C	0.688727	-0.763263	0.185070
C90	C	0.688743	-0.810179	0.185082
C91	C	0.722166	-0.833592	0.218559
C92	C	0.891890	-0.216509	0.252011
C93	C	0.950004	-0.216517	0.252027
C94	C	0.755545	-0.216471	0.388349
C95	C	0.755557	-0.216463	0.446463
C96	C	0.755611	-0.099313	0.252031
C97	C	0.755651	-0.049378	0.252055
C98	C	0.755519	-0.216478	0.116133
C99	C	0.755608	-0.216360	0.058019
C100	C	0.788988	-0.245164	0.697644
C101	C	0.788983	-0.245173	0.643039
O102	O	0.817383	-0.269626	0.614792
N103	N	0.755569	-0.216441	0.615737
C104	C	0.722154	-0.187701	0.643041
O105	O	0.693732	-0.163263	0.614804
C106	C	0.722157	-0.187694	0.697644
C107	C	0.755577	-0.216425	0.724944
C108	C	0.822405	-0.273893	0.724944
C109	C	0.822411	-0.273883	0.779544
C110	C	0.789000	-0.245144	0.806845
C111	C	0.755583	-0.216415	0.779545
C112	C	0.688741	-0.158956	0.724948
C113	C	0.688746	-0.158952	0.779555
C114	C	0.722166	-0.187683	0.806855
C115	C	0.722179	-0.187666	0.861446
N116	N	0.755593	-0.216398	0.888749
C117	C	0.789004	-0.245137	0.861448
C118	C	0.722149	-0.187718	0.528370
C119	C	0.722148	-0.187722	0.473768
C120	C	0.788976	-0.245195	0.473770
C121	C	0.788979	-0.245188	0.528374
C122	C	0.755563	-0.216450	0.555673
C123	C	0.789014	-0.245113	0.976113
C124	C	0.789019	-0.245099	1.030719
C125	C	0.722189	-0.187628	1.030712
C126	C	0.722186	-0.187640	0.976111
C127	C	0.755600	-0.216386	0.948813
O128	O	0.693792	-0.163227	0.889728
O129	O	0.817416	-0.269575	0.889692
H130	H	0.556494	-0.268680	0.312484
H131	H	0.849562	-0.603207	0.346183
H132	H	0.457444	-0.268682	0.312510
H133	H	0.816257	-0.959823	0.312771
H134	H	0.305322	-0.297463	0.345899
H135	H	0.849624	-0.297280	0.801767
H136	H	0.206277	-0.297467	0.345916
H137	H	0.694980	-0.164239	0.953882
H138	H	0.694988	-0.164228	1.052950
H139	H	0.054148	-0.268712	0.312562
H140	H	-0.044918	-0.268714	0.312573
H141	H	0.305306	-0.135508	0.158079
H142	H	0.816181	-0.268597	0.451532
H143	H	-0.044923	-0.164322	0.191474
H144	H	0.849585	-0.688313	0.346202
H145	H	0.054126	-0.164307	0.191467
H146	H	0.849613	-0.297298	0.702722
H147	H	0.816236	-0.268496	1.052944
H148	H	0.816278	-1.044946	0.312785
H149	H	0.694990	-0.959987	0.191311
H150	H	0.661454	-0.603446	0.157790
H151	H	0.816085	-0.387428	0.312661
H152	H	0.206256	-0.135519	0.158083
H153	H	0.661509	-0.744203	0.157809
H154	H	0.457414	-0.164282	0.191408
H155	H	0.661525	-0.135561	0.702729
H156	H	0.661481	-0.688554	0.157798
H157	H	0.695025	-1.045095	0.191319
H158	H	0.556482	-0.164281	0.191394
H159	H	0.849621	-0.829073	0.346225
H160	H	0.694939	-0.164311	0.550594
H161	H	0.694827	-0.387585	0.191202
H162	H	0.694850	-0.472707	0.191215
H163	H	0.816104	-0.472538	0.312692
H164	H	0.849601	-0.743954	0.346212
H165	H	0.661534	-0.829309	0.157823
H166	H	0.816227	-0.268518	0.953894
H167	H	0.661534	-0.135549	0.801779
H168	H	0.816193	-0.268584	0.550598
H169	H	0.694940	-0.164321	0.451545
