data_functionalizedCrystal
_audit_creation_method	'MofGen! by Chris Wilmer'
_symmetry_space_group_name_H-M	'P1'
_symmetry_Int_Tables_number	1
_symmetry_cell_setting	triclinic
loop_
_symmetry_equiv_pos_as_xyz
  x,y,z
_cell_length_a	13.032721
_cell_length_b	12.759401
_cell_length_c	12.759393
_cell_angle_alpha	89.979434
_cell_angle_beta	82.850774
_cell_angle_gamma	82.797506
loop_
_atom_site_label
_atom_site_type_symbol
_atom_site_fract_x
_atom_site_fract_y
_atom_site_fract_z
Zn1	Zn	-0.416035	-1.553101	0.647100
Zn2	Zn	-0.082701	-1.219768	0.980433
Zn3	Zn	0.250632	-0.886435	1.313766
Zn4	Zn	-0.590813	-1.530658	0.493723
Zn5	Zn	-0.257480	-1.197324	0.827056
Zn6	Zn	0.075854	-0.863991	1.160390
Zn7	Zn	-0.416080	-1.377394	0.471442
Zn8	Zn	-0.082747	-1.044061	0.804775
Zn9	Zn	0.250587	-0.710728	1.138108
Zn10	Zn	-0.590730	-1.355068	0.669351
Zn11	Zn	-0.257397	-1.021734	1.002684
Zn12	Zn	0.075937	-0.688401	1.336017
O13	O	-0.503414	-1.454055	0.570404
O14	O	-0.170081	-1.120722	0.903737
O15	O	0.163252	-0.787389	1.237070
O16	O	-0.439235	-1.697143	0.626766
O17	O	-0.105902	-1.363810	0.960100
O18	O	0.227432	-1.030476	1.293433
O19	O	-0.567688	-1.510278	0.343753
O20	O	-0.234355	-1.176944	0.677086
O21	O	0.098979	-0.843611	1.010420
O22	O	-0.269837	-1.419439	0.476106
O23	O	0.063496	-1.086105	0.809439
O24	O	0.396829	-0.752772	1.142773
O25	O	-0.567644	-1.680654	0.514081
O26	O	-0.234311	-1.347320	0.847415
O27	O	0.099023	-1.013987	1.180748
O28	O	-0.269804	-1.548530	0.605161
O29	O	0.063529	-1.215197	0.938494
O30	O	0.396863	-0.881863	1.271828
O31	O	-0.439313	-1.397676	0.327383
O32	O	-0.105979	-1.064343	0.660716
O33	O	0.227354	-0.731009	0.994050
O34	O	-0.439232	-1.227414	0.497682
O35	O	-0.105899	-0.894080	0.831015
O36	O	0.227435	-0.560747	1.164349
O37	O	-0.567502	-1.381386	0.813413
O38	O	-0.234169	-1.048053	1.146747
O39	O	0.099164	-0.714720	1.480080
O40	O	-0.567546	-1.211010	0.643085
O41	O	-0.234213	-0.877677	0.976418
O42	O	0.099120	-0.544344	1.309752
O43	O	-0.439155	-1.526881	0.797065
O44	O	-0.105821	-1.193547	1.130399
O45	O	0.227512	-0.860214	1.463732
O46	O	-0.737039	-1.488629	0.535657
O47	O	-0.403705	-1.155295	0.868991
O48	O	-0.070372	-0.821962	1.202324
O49	O	-0.736978	-1.359624	0.664690
O50	O	-0.403644	-1.026290	0.998024
O51	O	-0.070311	-0.692957	1.331357
C52	C	-0.503386	-1.181091	0.570381
C53	C	-0.170053	-0.847758	0.903714
C54	C	0.163281	-0.514425	1.237048
C55	C	-0.503399	-1.064313	0.570399
C56	C	-0.170066	-0.730980	0.903733
C57	C	0.163268	-0.397647	1.237066
C58	C	-0.436655	-1.018023	0.629192
C59	C	-0.103322	-0.684689	0.962526
C60	C	0.230012	-0.351356	1.295859
C61	C	-0.436662	-0.908298	0.629199
C62	C	-0.103328	-0.574965	0.962532
C63	C	0.230005	-0.241631	1.295865
C64	C	-0.570165	-0.891162	0.511617
C65	C	-0.236831	-0.557829	0.844950
C66	C	0.096502	-0.224496	1.178283
C67	C	-0.570152	-1.000886	0.511605
C68	C	-0.236819	-0.667553	0.844939
C69	C	0.096515	-0.334219	1.178272
C70	C	-0.774926	-1.419296	0.605029
C71	C	-0.441592	-1.085963	0.938362
C72	C	-0.108259	-0.752630	1.271696
C73	C	-0.891080	-1.404523	0.619877
C74	C	-0.557746	-1.071189	0.953211
C75	C	-0.224413	-0.737856	1.286544
C76	C	-0.942860	-1.461822	0.562702
C77	C	-0.609527	-1.128488	0.896035
C78	C	-0.276193	-0.795155	1.229368
C79	C	-1.062911	-1.446554	0.578046
C80	C	-0.729578	-1.113220	0.911380
C81	C	-0.396244	-0.779887	1.244713
C82	C	-0.230843	-1.488978	0.535666
C83	C	0.102491	-1.155645	0.868999
C84	C	0.435824	-0.822312	1.202333
C85	C	-0.114689	-1.503861	0.520863
C86	C	0.218644	-1.170527	0.854196
C87	C	0.551978	-0.837194	1.187530
C88	C	-0.503314	-1.454147	0.844424
C89	C	-0.169981	-1.120813	1.177758
C90	C	0.163353	-0.787480	1.511091
C91	C	-0.503271	-1.454186	0.961196
C92	C	-0.169938	-1.120852	1.294529
C93	C	0.163395	-0.787519	1.627862
C94	C	-0.503434	-0.728086	0.570422
C95	C	-0.170101	-0.394753	0.903755
C96	C	0.163233	-0.061419	1.237089
C97	C	-0.503418	-0.844865	0.570417
C98	C	-0.170084	-0.511531	0.903750
C99	C	0.163249	-0.178198	1.237083
C100	C	-0.503439	-1.454034	0.297439
C101	C	-0.170106	-1.120701	0.630773
C102	C	0.163228	-0.787368	0.964106
C103	C	-0.503187	-1.454236	0.180631
C104	C	-0.169854	-1.120903	0.513965
C105	C	0.163479	-0.787570	0.847298
C106	C	-0.436430	-1.529951	1.007546
C107	C	-0.103097	-1.196618	1.340879
C108	C	0.230237	-0.863284	1.674212
C109	C	-0.436385	-1.529974	1.117264
C110	C	-0.103052	-1.196641	1.450597
C111	C	0.230282	-0.863308	1.783931
C112	C	-0.570032	-1.378463	1.134274
C113	C	-0.236698	-1.045130	1.467607
C114	C	0.096635	-0.711797	1.800941
C115	C	-0.570071	-1.378436	1.024557
C116	C	-0.236737	-1.045103	1.357890
C117	C	0.096596	-0.711769	1.691223
H118	H	-0.624504	-1.038576	0.463723
H119	H	-0.291171	-0.705243	0.797057
H120	H	0.042163	-0.371909	1.130390
H121	H	-1.070148	-1.564228	0.460552
H122	H	-0.736815	-1.230895	0.793886
H123	H	-0.403482	-0.897562	1.127219
H124	H	-0.898317	-1.522185	0.502395
H125	H	-0.564983	-1.188852	0.835728
H126	H	-0.231650	-0.855519	1.169062
Br127	Br	-0.965314	-1.303924	0.720411
Br128	Br	-0.631981	-0.970591	1.053745
Br129	Br	-0.298648	-0.637258	1.387078
Br130	Br	-1.137142	-1.345951	0.678585
Br131	Br	-0.803809	-1.012618	1.011918
Br132	Br	-0.470475	-0.679284	1.345252
Br133	Br	-0.345772	-1.632751	0.921558
Br134	Br	-0.012439	-1.299418	1.254892
Br135	Br	0.320894	-0.966085	1.588225
Br136	Br	-0.660755	-0.805077	0.431831
Br137	Br	-0.327422	-0.471743	0.765164
Br138	Br	0.005911	-0.138410	1.098497
H139	H	-0.381954	-1.591669	1.154996
H140	H	-0.048621	-1.258335	1.488330
H141	H	0.284712	-0.925002	1.821663
H142	H	-0.382297	-1.069663	0.677063
H143	H	-0.048964	-0.736329	1.010396
H144	H	0.284370	-0.402996	1.343729
Br145	Br	-0.660687	-1.275669	1.220270
Br146	Br	-0.327354	-0.942335	1.553604
Br147	Br	0.005980	-0.609002	1.886937
Br148	Br	-0.346073	-0.845480	0.708988
Br149	Br	-0.012739	-0.512146	1.042321
Br150	Br	0.320594	-0.178813	1.375655
Br151	Br	-0.660781	-1.275596	0.961646
Br152	Br	-0.327448	-0.942262	1.294979
Br153	Br	0.005885	-0.608929	1.628312
