data_functionalizedCrystal
_audit_creation_method	'MofGen! by Chris Wilmer'
_symmetry_space_group_name_H-M	'P1'
_symmetry_Int_Tables_number	1
_symmetry_cell_setting	triclinic
loop_
_symmetry_equiv_pos_as_xyz
  x,y,z
_cell_length_a	19.077105
_cell_length_b	12.594516
_cell_length_c	19.076919
_cell_angle_alpha	87.723714
_cell_angle_beta	89.923776
_cell_angle_gamma	87.714716
loop_
_atom_site_label
_atom_site_type_symbol
_atom_site_fract_x
_atom_site_fract_y
_atom_site_fract_z
Zn1	Zn	1.058307	-0.514929	0.440445
Zn2	Zn	1.062959	-0.686068	0.322947
Zn3	Zn	0.945523	-0.500671	0.318237
Zn4	Zn	0.940780	-0.685426	0.435699
O5	O	1.001892	-0.596773	0.379332
O6	O	1.157256	-0.543867	0.428815
O7	O	1.051312	-0.655776	0.223990
O8	O	0.960523	-0.353620	0.334463
O9	O	1.160674	-0.669602	0.342490
O10	O	1.043384	-0.364095	0.424249
O11	O	0.965033	-0.519565	0.220530
O12	O	0.846562	-0.518943	0.329862
O13	O	0.952438	-0.668508	0.534660
O14	O	0.843077	-0.654682	0.416161
O15	O	1.038785	-0.543245	0.538147
O16	O	1.046713	-0.834925	0.337889
O17	O	0.956949	-0.834453	0.420727
C18	C	0.819323	-0.585196	0.371986
C19	C	0.741219	-0.580270	0.368860
C20	C	1.001840	-0.873311	0.379320
C21	C	1.001881	-0.991620	0.379341
C22	C	0.702732	-0.648726	0.412252
C23	C	0.629344	-0.644084	0.409318
C24	C	0.594445	-0.570990	0.362988
C25	C	0.632937	-0.502526	0.319594
C26	C	0.706323	-0.507164	0.322532
C27	C	0.375156	-0.549524	0.349394
C28	C	0.301765	-0.544894	0.346458
C29	C	0.298177	-0.686450	0.436183
C30	C	0.371565	-0.691086	0.439114
C31	C	0.410050	-0.622619	0.395723
N32	N	0.519431	-0.566245	0.359986
N33	N	0.485063	-0.627360	0.398728
C34	C	0.953097	-1.131420	0.424375
C35	C	1.016465	-1.065571	0.444185
C36	C	0.938518	-1.055899	0.359562
C37	C	1.065395	-1.136569	0.399217
C38	C	0.987406	-1.126899	0.314562
C39	C	1.050819	-1.061084	0.334350
C40	C	1.185174	-0.608397	0.386707
C41	C	1.263278	-0.613350	0.389850
C42	C	0.994564	-0.607395	0.562613
C43	C	0.991440	-0.611921	0.640716
C44	C	1.001963	-0.319159	0.379360
C45	C	1.001994	-0.200856	0.379372
C46	C	1.009233	-0.586119	0.196766
C47	C	1.012492	-0.581301	0.118668
C48	C	1.034927	-0.548833	0.679225
C49	C	1.031984	-0.553082	0.752611
C50	C	0.985558	-0.620425	0.787487
C51	C	0.942066	-0.683515	0.748972
C52	C	0.945006	-0.679261	0.675587
C53	C	0.971941	-0.640137	1.006769
C54	C	0.969006	-0.644390	1.080159
C55	C	1.058922	-0.513954	1.083793
C56	C	1.061861	-0.509710	1.010407
C57	C	1.018368	-0.572796	0.971899
N58	N	0.982550	-0.624771	0.862499
N59	N	1.021372	-0.568443	0.896887
H60	H	0.731142	-0.708251	0.449976
N61	N	1.078895	-0.485047	0.794145
H62	H	1.069988	-0.497956	0.845926
H63	H	1.068498	-0.407594	0.780884
N64	N	1.105580	-1.020411	0.283922
H65	H	1.130661	-1.082471	0.261438
H66	H	1.140542	-0.978873	0.310231
N67	N	0.409196	-0.769930	0.489087
H68	H	0.394428	-0.755621	0.538800
H69	H	0.461516	-0.762452	0.484306
N70	N	0.898458	-1.172350	0.474849
H71	H	0.898583	-1.252504	0.474179
H72	H	0.850679	-1.141723	0.460372
H73	H	0.266834	-0.742191	0.471510
N74	N	0.867478	-1.009181	0.337377
H75	H	0.830625	-1.034770	0.371418
H76	H	0.856190	-1.032481	0.288756
H77	H	0.909588	-0.730623	0.644234
N78	N	0.264111	-0.466070	0.296482
H79	H	0.276440	-0.391481	0.307984
H80	H	0.211796	-0.473641	0.301235
N81	N	0.416670	-0.475697	0.302594
H82	H	0.445986	-0.430024	0.332428
H83	H	0.383387	-0.428757	0.272801
H84	H	0.604516	-0.443007	0.281875
N85	N	1.032759	-1.029669	0.516762
H86	H	1.039744	-1.093844	0.549830
H87	H	0.992476	-0.983026	0.533817
N88	N	0.587833	-0.717933	0.456109
H89	H	0.621078	-0.764951	0.485897
H90	H	0.558521	-0.763526	0.426219
H91	H	1.119041	-1.171713	0.416022
H92	H	0.975091	-1.154018	0.259782
N93	N	1.085006	-0.476206	0.641612
H94	H	1.112106	-0.436884	0.677146
H95	H	1.057636	-0.423370	0.610016
H96	H	0.737658	-0.451415	0.287201
H97	H	1.094332	-0.462591	1.115154
N98	N	0.925042	-0.708172	0.965225
H99	H	0.893714	-0.661073	0.933473
H100	H	0.895226	-0.751480	0.998488
H101	H	1.099668	-0.454875	0.982016
N102	N	0.918932	-0.717031	1.117778
H103	H	0.891824	-0.756350	1.082248
H104	H	0.885209	-0.673407	1.146923
H105	H	0.904263	-0.738343	0.777373
