data_functionalizedCrystal
_audit_creation_method	'MofGen! by Chris Wilmer'
_symmetry_space_group_name_H-M	'P1'
_symmetry_Int_Tables_number	1
_symmetry_cell_setting	triclinic
loop_
_symmetry_equiv_pos_as_xyz
  x,y,z
_cell_length_a	6.817900
_cell_length_b	16.417823
_cell_length_c	16.015572
_cell_angle_alpha	77.932561
_cell_angle_beta	104.485554
_cell_angle_gamma	103.385419
loop_
_atom_site_label
_atom_site_type_symbol
_atom_site_fract_x
_atom_site_fract_y
_atom_site_fract_z
V1	V	-3.991457	-0.033757	-0.269480
O2	O	-3.980179	0.086040	-0.264043
O3	O	-3.942700	-0.148123	-0.267933
O4	O	-3.927894	0.003804	-0.386875
O5	O	-3.995087	-0.066939	-0.144277
V6	V	-4.477096	-0.023804	-0.254469
O7	O	-4.248074	-0.055588	-0.302408
O8	O	-4.670677	-0.001973	-0.221541
O9	O	-4.302647	0.090563	-0.256016
O10	O	-4.605771	-0.143601	-0.259906
O11	O	-4.590863	0.009378	-0.379672
O12	O	-4.317452	-0.061365	-0.137074
C13	C	-3.788104	-0.177161	-0.263758
C14	C	-3.829425	-0.270419	-0.263275
C15	C	-3.933429	-0.584752	-0.182662
C16	C	-3.894578	-0.497128	-0.183102
C17	C	-3.954496	-0.472818	-0.341296
C18	C	-3.993332	-0.560440	-0.340855
C19	C	-3.982807	-0.616406	-0.261536
C20	C	-3.905120	-0.441159	-0.262416
C21	C	-3.862996	-0.346153	-0.262894
C22	C	-4.024929	-0.711418	-0.261058
C23	C	-3.769217	0.016638	-0.415479
C24	C	-3.798529	0.046591	-0.511452
C25	C	-4.086333	-0.219271	-0.889770
C26	C	-4.113880	-0.191099	-0.979947
C27	C	-4.037347	-0.045343	-0.954864
C28	C	-4.009783	-0.073504	-0.864683
C29	C	-4.034282	-0.160468	-0.832144
C30	C	-3.957732	-0.014701	-0.807057
C31	C	-3.930181	-0.042859	-0.716884
C32	C	-3.954681	-0.129821	-0.684338
C33	C	-4.006731	-0.188627	-0.741971
C34	C	-3.933248	0.072263	-0.839598
C35	C	-3.881197	0.131066	-0.781972
C36	C	-3.853631	0.102908	-0.691797
C37	C	-3.878131	0.015947	-0.659251
C38	C	-3.801581	0.161715	-0.634164
C39	C	-3.774030	0.133556	-0.543991
C40	C	-3.850580	-0.012212	-0.569078
C41	C	-4.120584	0.119595	-0.260189
C42	C	-4.058501	0.212854	-0.260677
C43	C	-4.139472	-0.074203	-0.108465
C44	C	-4.089399	-0.104152	-0.012492
H45	H	-3.870502	-0.083027	-0.542583
Br46	Br	-3.847959	0.249086	-0.826141
Br47	Br	-4.060282	-0.603401	-0.447904
Br48	Br	-3.968772	-0.396860	-0.448937
H49	H	-4.156257	-0.238990	-1.026865
H50	H	-3.955652	0.095188	-0.913023
H51	H	-3.932251	-0.152746	-0.610913
Br52	Br	-4.039920	-0.306652	-0.697801
Br53	Br	-4.119522	-0.337296	-0.845600
Br54	Br	-4.004109	0.072677	-0.999033
Br55	Br	-3.827552	-0.454174	-0.076055
H56	H	-3.781660	0.232521	-0.660672
H57	H	-3.731646	0.181439	-0.497070
H58	H	-3.924850	-0.630318	-0.118076
