data_functionalizedCrystal
_audit_creation_method	'MofGen! by Chris Wilmer'
_symmetry_space_group_name_H-M	'P1'
_symmetry_Int_Tables_number	1
_symmetry_cell_setting	triclinic
loop_
_symmetry_equiv_pos_as_xyz
  x,y,z
_cell_length_a	10.723023
_cell_length_b	9.798715
_cell_length_c	10.654550
_cell_angle_alpha	90.001980
_cell_angle_beta	84.476225
_cell_angle_gamma	90.003551
loop_
_atom_site_label
_atom_site_type_symbol
_atom_site_fract_x
_atom_site_fract_y
_atom_site_fract_z
O1	O	1.657214	0.113484	0.176142
O2	O	1.294064	0.113487	0.193004
O3	O	1.483989	0.113480	0.001832
O4	O	1.467289	0.113490	0.367313
O5	O	1.483974	-0.113502	0.001832
O6	O	1.294050	-0.113495	0.193003
O7	O	1.657200	-0.113499	0.176142
Zn8	Zn	1.475623	-0.149535	0.184572
Zn9	Zn	1.475641	0.149523	0.184573
O10	O	1.467275	-0.113492	0.367313
C11	C	1.247557	-0.000004	0.191777
C12	C	1.109002	-0.000003	0.188106
C13	C	0.904026	-0.117581	0.182676
C14	C	1.047230	-0.117585	0.186469
N15	N	1.475619	-0.353635	0.184571
C16	C	1.555363	-0.421415	0.103950
C17	C	1.555383	-0.578578	0.103946
C18	C	1.703707	-0.000005	0.177369
C19	C	1.842262	0.000003	0.181039
N20	N	1.475655	0.353623	0.184564
C21	C	1.482755	-0.000009	-0.044966
C22	C	1.479087	-0.000005	-0.184408
C23	C	1.590911	-0.000010	-0.263911
C24	C	1.587457	-0.000000	-0.394931
C25	C	1.360344	0.000014	-0.366933
C26	C	1.363800	0.000014	-0.235915
C27	C	1.722034	-0.000024	-0.280077
C28	C	1.718579	-0.000014	-0.411097
C29	C	1.468508	0.000001	0.414111
C30	C	1.472177	0.000005	0.553554
H31	H	1.100346	-0.218253	0.187871
H32	H	1.623660	-0.636865	0.034927
O33	O	1.236002	0.000029	-0.422489
H34	H	1.182204	-0.092479	-0.390624
O35	O	0.912643	0.133351	0.182887
H36	H	0.961594	0.139190	0.269901
O37	O	1.385212	-0.569172	0.275991
H38	H	1.402210	-0.596496	0.373998
H39	H	1.623616	-0.363095	0.034925
O40	O	1.771073	0.129797	-0.471578
H41	H	1.697649	0.181128	-0.521152
H42	H	1.272741	0.000037	-0.171188
H43	H	1.055895	0.100670	0.186696
H44	H	1.767978	-0.095004	-0.452865
O45	O	1.777333	-0.129841	-0.232886
H46	H	1.777839	-0.124495	-0.128876
H47	H	1.407357	-0.411957	0.253587
O48	O	1.789954	0.125800	-0.241182
H49	H	1.887036	0.125727	-0.287934
O50	O	0.833561	-0.250933	0.181611
H51	H	0.732092	-0.230002	0.179209
