data_functionalizedCrystal
_audit_creation_method	'MofGen! by Chris Wilmer'
_symmetry_space_group_name_H-M	'P1'
_symmetry_Int_Tables_number	1
_symmetry_cell_setting	triclinic
loop_
_symmetry_equiv_pos_as_xyz
  x,y,z
_cell_length_a	12.759401
_cell_length_b	12.827892
_cell_length_c	12.759393
_cell_angle_alpha	89.970194
_cell_angle_beta	89.981287
_cell_angle_gamma	90.016917
loop_
_atom_site_label
_atom_site_type_symbol
_atom_site_fract_x
_atom_site_fract_y
_atom_site_fract_z
Zn1	Zn	1.606238	-0.415940	-0.594025
Zn2	Zn	1.606134	-0.590717	-0.418348
Zn3	Zn	1.430544	-0.415995	-0.418361
Zn4	Zn	1.430527	-0.590644	-0.593985
O5	O	1.518361	-0.503324	-0.506180
O6	O	1.753245	-0.439132	-0.570733
O7	O	1.582805	-0.567594	-0.271328
O8	O	1.453901	-0.269752	-0.441685
O9	O	1.753169	-0.567540	-0.441663
O10	O	1.582983	-0.269711	-0.570745
O11	O	1.453800	-0.439226	-0.271338
O12	O	1.283521	-0.439156	-0.441646
O13	O	1.453872	-0.567415	-0.741011
O14	O	1.283508	-0.567469	-0.570676
O15	O	1.582966	-0.439061	-0.741041
O16	O	1.582789	-0.736943	-0.441624
O17	O	1.453771	-0.736890	-0.570664
C18	C	1.245393	-0.503311	-0.506159
C19	C	1.128617	-0.503331	-0.506175
C20	C	1.518295	-0.774834	-0.506161
C21	C	1.518363	-0.890987	-0.506188
C22	C	1.073776	-0.570246	-0.573255
C23	C	0.964052	-0.570250	-0.573276
C24	C	0.964019	-0.436421	-0.439127
C25	C	1.073741	-0.436413	-0.439112
C26	C	0.814150	-0.607747	-0.697137
C27	C	0.759306	-0.674678	-0.764208
C28	C	0.794902	-0.776661	-0.780157
C29	C	0.885340	-0.811734	-0.729020
C30	C	0.940179	-0.744809	-0.661941
C31	C	0.904585	-0.642811	-0.646012
C32	C	1.223645	-0.398927	-0.315250
C33	C	1.278486	-0.332006	-0.248165
C34	C	1.242892	-0.230021	-0.232205
C35	C	1.152450	-0.194951	-0.283324
C36	C	1.097608	-0.261872	-0.350409
C37	C	1.133210	-0.363856	-0.366370
C38	C	1.582281	-0.942764	-0.442406
C39	C	1.582353	-1.062814	-0.442433
C40	C	1.792394	-0.503338	-0.506201
C41	C	1.909171	-0.503343	-0.506210
C42	C	1.518429	-0.503224	-0.780213
C43	C	1.518458	-0.503181	-0.896990
C44	C	1.518455	-0.230754	-0.506221
C45	C	1.518496	-0.114601	-0.506239
C46	C	1.451261	-0.569984	-0.951838
C47	C	1.451298	-0.569945	-1.061562
C48	C	1.585732	-0.436291	-1.061580
C49	C	1.585699	-0.436336	-0.951858
C50	C	1.413760	-0.693125	-1.211498
C51	C	1.346547	-0.759919	-1.266350
C52	C	1.244016	-0.775971	-1.230734
C53	C	1.208677	-0.725213	-1.140269
C54	C	1.275885	-0.658412	-1.085423
C55	C	1.378431	-0.642380	-1.121036
C56	C	1.623227	-0.313155	-0.801920
C57	C	1.690430	-0.246347	-0.747072
C58	C	1.792963	-0.230285	-0.782685
C59	C	1.828297	-0.281023	-0.873154
C60	C	1.761094	-0.347831	-0.928003
C61	C	1.658562	-0.363895	-0.892382
C62	C	1.518353	-0.503349	-0.233212
C63	C	1.518528	-0.503097	-0.116436
H64	H	1.013812	-0.773365	-0.620305
C65	C	1.385446	-0.880285	-0.638912
C66	C	1.444559	-0.951114	-0.579940
H67	H	1.339887	-0.917405	-0.684449
H68	H	1.345220	-0.837788	-0.593131
H69	H	1.431145	-0.837638	-0.679166
H70	H	1.398860	-0.993756	-0.539680
H71	H	1.484788	-0.993629	-0.625727
H72	H	1.396502	-0.624407	-0.907167
H73	H	1.637072	-1.107341	-0.387824
C74	C	0.795808	-0.377011	-0.379584
C75	C	0.903696	-0.362872	-0.365410
H76	H	0.758571	-0.331607	-0.334068
H77	H	0.777868	-0.361804	-0.450196
H78	H	0.777814	-0.447210	-0.364083
H79	H	0.921691	-0.292675	-0.380919
H80	H	0.921643	-0.378071	-0.294782
H81	H	1.463766	-1.070082	-0.560844
C82	C	1.132882	-0.630866	-0.966267
C83	C	1.237070	-0.602661	-0.985959
H84	H	1.108928	-0.596465	-0.904847
H85	H	1.090443	-0.611100	-1.024100
H86	H	1.128623	-0.704161	-0.956483
H87	H	1.241329	-0.529366	-0.995751
H88	H	1.279521	-0.622419	-0.928113
H89	H	1.125182	-0.738278	-1.111285
C90	C	1.107632	-0.621348	-0.751066
C91	C	1.134099	-0.643788	-0.646979
H92	H	1.144877	-0.666747	-0.796582
H93	H	1.034446	-0.630934	-0.760667
H94	H	1.125642	-0.551149	-0.766543
H95	H	1.116081	-0.713986	-0.631500
H96	H	1.207301	-0.634212	-0.637373
C97	C	1.222800	-0.890549	-1.377947
C98	C	1.170134	-0.849393	-1.291026
H99	H	1.177193	-0.935882	-1.415165
H100	H	1.244377	-0.835339	-1.422657
H101	H	1.282541	-0.928352	-1.354965
H102	H	1.110398	-0.811583	-1.314008
H103	H	1.148543	-0.904611	-1.246308
C104	C	0.857233	-0.975178	-0.816226
C105	C	0.924463	-0.923844	-0.746548
H106	H	0.881394	-1.044388	-0.827053
H107	H	0.788498	-0.976941	-0.787676
H108	H	0.856229	-0.939026	-0.881213
H109	H	0.925461	-0.959991	-0.681558
H110	H	0.993216	-0.922086	-0.775095
C111	C	1.415268	-0.741526	-1.440587
C112	C	1.385393	-0.815717	-1.365782
H113	H	1.439251	-0.775974	-1.501969
H114	H	1.356858	-0.698843	-1.457522
H115	H	1.469972	-0.699458	-1.413005
H116	H	1.330684	-0.857780	-1.393361
H117	H	1.443810	-0.858418	-1.348848
C118	C	1.364108	-0.508414	-0.374870
C119	C	1.262772	-0.511036	-0.332796
H120	H	1.388263	-0.577627	-0.385693
H121	H	1.363089	-0.472272	-0.439851
H122	H	1.409702	-0.473580	-0.327590
H123	H	1.217176	-0.545864	-0.380080
H124	H	1.263785	-0.547193	-0.267806
C125	C	1.580086	-0.770703	-1.252197
C126	C	1.526469	-0.675491	-1.250650
H127	H	1.649665	-0.759814	-1.276379
H128	H	1.581862	-0.799124	-1.183468
H129	H	1.545100	-0.817737	-1.297810
H130	H	1.561451	-0.628459	-1.205031
H131	H	1.524699	-0.647055	-1.319390
H132	H	1.123456	-0.111913	-0.270312
H133	H	1.636955	-0.898217	-0.387783
H134	H	1.640477	-0.381867	-1.106267
C135	C	0.647728	-0.797912	-0.895402
C136	C	0.734621	-0.850230	-0.853888
H137	H	0.610518	-0.843326	-0.940927
H138	H	0.603002	-0.776424	-0.839957
H139	H	0.670740	-0.738511	-0.933490
H140	H	0.711609	-0.909627	-0.815793
H141	H	0.779356	-0.871733	-0.909342
C142	C	1.904119	-0.375397	-1.047136
C143	C	1.799931	-0.403603	-1.027452
H144	H	1.928093	-0.409831	-1.108530
H145	H	1.908375	-0.302116	-1.056956
H146	H	1.946552	-0.395132	-0.989276
H147	H	1.757496	-0.383861	-1.085309
H148	H	1.795667	-0.476900	-1.017639
H149	H	1.287549	-0.175538	-0.177569
C150	C	0.684943	-0.550525	-0.883822
C151	C	0.659906	-0.636121	-0.820428
H152	H	0.623577	-0.526731	-0.918532
H153	H	0.712504	-0.496079	-0.841594
H154	H	0.735715	-0.570723	-0.934346
H155	H	0.609139	-0.615921	-0.769898
H156	H	0.632329	-0.690578	-0.862659
H157	H	1.911785	-0.267938	-0.902157
H158	H	1.847674	-0.175871	-0.738025
C159	C	1.714276	-0.219680	-0.562381
C160	C	1.651652	-0.190568	-0.647604
H161	H	1.690357	-0.185240	-0.500970
H162	H	1.709989	-0.292960	-0.552566
H163	H	1.784952	-0.200568	-0.575807
H164	H	1.580977	-0.209687	-0.634182
H165	H	1.655929	-0.117272	-0.657420
C166	C	1.456767	-0.235776	-0.761268
C167	C	1.510516	-0.330915	-0.762817
H168	H	1.387184	-0.246772	-0.737146
H169	H	1.491650	-0.188718	-0.715618
H170	H	1.455002	-0.207327	-0.829997
H171	H	1.512288	-0.359360	-0.694086
H172	H	1.475624	-0.377990	-0.808469
H173	H	0.785167	-0.524700	-0.684168
H174	H	1.023971	-0.233307	-0.392040
H175	H	1.352128	-0.360569	-0.206540
