data_functionalizedCrystal
_audit_creation_method	'MofGen! by Chris Wilmer'
_symmetry_space_group_name_H-M	'P1'
_symmetry_Int_Tables_number	1
_symmetry_cell_setting	triclinic
loop_
_symmetry_equiv_pos_as_xyz
  x,y,z
_cell_length_a	29.839135
_cell_length_b	29.839131
_cell_length_c	29.839125
_cell_angle_alpha	89.980740
_cell_angle_beta	89.982859
_cell_angle_gamma	90.037758
loop_
_atom_site_label
_atom_site_type_symbol
_atom_site_fract_x
_atom_site_fract_y
_atom_site_fract_z
Zn1	Zn	0.686746	-0.178913	-0.254023
Zn2	Zn	0.686684	-0.254017	-0.178883
Zn3	Zn	0.611627	-0.178905	-0.178901
Zn4	Zn	0.611585	-0.254020	-0.253980
O5	O	0.649161	-0.216464	-0.216447
O6	O	0.749605	-0.188878	-0.244066
O7	O	0.676720	-0.244049	-0.116019
O8	O	0.621635	-0.116039	-0.188892
O9	O	0.749560	-0.244056	-0.188861
O10	O	0.676825	-0.116045	-0.244084
O11	O	0.621575	-0.188864	-0.116032
O12	O	0.548754	-0.188867	-0.188850
O13	O	0.621564	-0.244061	-0.316853
O14	O	0.548723	-0.244054	-0.244010
O15	O	0.676784	-0.188881	-0.316885
O16	O	0.676679	-0.316885	-0.188819
O17	O	0.621504	-0.316887	-0.243993
C18	C	0.532438	-0.216460	-0.216428
C19	C	0.482504	-0.216470	-0.216430
C20	C	0.172881	-0.187776	-0.245235
C21	C	-0.014792	-0.187779	-0.245247
O22	O	-0.039039	-0.163372	-0.269717
N23	N	-0.038281	-0.216464	-0.216464
C24	C	-0.014850	-0.245149	-0.187672
O25	O	-0.039135	-0.269544	-0.163187
C26	C	0.172823	-0.245143	-0.187658
C27	C	0.196309	-0.216459	-0.216447
C28	C	0.196368	-0.159094	-0.274021
C29	C	0.243283	-0.159095	-0.274019
C30	C	0.266712	-0.187778	-0.245231
C31	C	0.243225	-0.216460	-0.216445
C32	C	0.196253	-0.273825	-0.158864
C33	C	0.243174	-0.273820	-0.158862
C34	C	0.266661	-0.245136	-0.187651
C35	C	0.313569	-0.245145	-0.187655
N36	N	0.337058	-0.216460	-0.216439
C37	C	0.313630	-0.187776	-0.245227
C38	C	-0.113380	-0.245150	-0.187683
C39	C	-0.160298	-0.245153	-0.187687
C40	C	-0.160237	-0.187782	-0.245262
C41	C	-0.113319	-0.187782	-0.245259
C42	C	-0.089891	-0.216465	-0.216467
C43	C	0.412156	-0.187781	-0.245221
C44	C	0.459075	-0.187786	-0.245218
C45	C	0.459010	-0.245155	-0.187642
C46	C	0.412095	-0.245152	-0.187647
C47	C	0.388669	-0.216461	-0.216438
O48	O	0.337845	-0.269535	-0.163195
O49	O	0.337923	-0.163377	-0.269702
C50	C	0.125965	-0.187775	-0.245236
C51	C	0.102479	-0.216457	-0.216450
C52	C	0.125907	-0.245140	-0.187662
C53	C	0.055561	-0.216459	-0.216454
C54	C	0.032132	-0.187775	-0.245242
C55	C	0.055622	-0.159090	-0.274026
C56	C	0.102537	-0.159091	-0.274025
C57	C	0.102418	-0.273825	-0.158878
C58	C	0.055502	-0.273822	-0.158883
C59	C	0.032074	-0.245139	-0.187671
C60	C	0.649092	-0.333186	-0.216409
C61	C	0.649104	-0.383121	-0.216408
C62	C	0.677892	-0.692732	-0.245226
C63	C	0.677940	-0.880405	-0.245253
O64	O	0.702350	-0.904643	-0.269728
N65	N	0.649237	-0.903906	-0.216497
C66	C	0.620517	-0.880485	-0.187734
O67	O	0.596101	-0.904780	-0.163279
C68	C	0.620466	-0.692813	-0.187709
C69	C	0.649175	-0.669315	-0.216464
C70	C	0.706598	-0.669234	-0.273979
C71	C	0.706587	-0.622319	-0.273971
C72	C	0.677870	-0.598901	-0.245209
C73	C	0.649164	-0.622400	-0.216456
C74	C	0.591744	-0.669393	-0.158949
C75	C	0.591734	-0.622472	-0.158946
C76	C	0.620442	-0.598974	-0.187701
C77	C	0.620437	-0.552067	-0.187685
N78	N	0.649140	-0.528566	-0.216441
C79	C	0.677857	-0.551984	-0.245203
C80	C	0.620546	-0.979016	-0.187748
C81	C	0.620559	-1.025934	-0.187753
C82	C	0.677982	-1.025851	-0.245274
C83	C	0.677971	-0.978932	-0.245266
C84	C	0.649250	-0.955515	-0.216504
C85	C	0.677833	-0.453458	-0.245183
C86	C	0.677821	-0.406538	-0.245170
C87	C	0.620396	-0.406625	-0.187651
C88	C	0.620410	-0.453541	-0.187662
C89	C	0.649129	-0.476956	-0.216431
O90	O	0.596037	-0.527800	-0.163227
O91	O	0.702263	-0.527681	-0.269662
C92	C	0.677902	-0.739648	-0.245235
C93	C	0.649196	-0.763146	-0.216482
C94	C	0.620480	-0.739729	-0.187720
C95	C	0.649210	-0.810064	-0.216487
C96	C	0.677926	-0.833481	-0.245249
C97	C	0.706630	-0.809981	-0.274006
C98	C	0.706619	-0.763065	-0.273997
C99	C	0.591776	-0.763229	-0.158964
C100	C	0.591790	-0.810145	-0.158974
C101	C	0.620506	-0.833562	-0.187736
C102	C	0.766339	-0.216468	-0.216467
C103	C	0.816273	-0.216469	-0.216475
C104	C	0.649176	-0.216472	-0.333625
C105	C	0.649183	-0.216476	-0.383560
C106	C	0.649242	-0.099285	-0.216495
C107	C	0.649276	-0.049351	-0.216515
C108	C	0.620460	-0.245105	-0.740131
C109	C	0.620444	-0.245157	-0.552458
O110	O	0.595979	-0.269584	-0.528179
N111	N	0.649193	-0.216434	-0.529005
C112	C	0.677945	-0.187694	-0.552474
O113	O	0.702394	-0.163262	-0.528220
C114	C	0.677959	-0.187641	-0.740146
C115	C	0.649212	-0.216369	-0.763596
C116	C	0.591715	-0.273831	-0.763581
C117	C	0.591721	-0.273819	-0.810496
C118	C	0.620473	-0.245082	-0.833962
C119	C	0.649218	-0.216357	-0.810512
C120	C	0.706708	-0.158899	-0.763614
C121	C	0.706708	-0.158887	-0.810535
C122	C	0.677961	-0.187615	-0.833985
C123	C	0.677975	-0.187609	-0.880892
N124	N	0.649226	-0.216332	-0.904345
C125	C	0.620475	-0.245069	-0.880880
C126	C	0.677937	-0.187725	-0.453943
C127	C	0.677934	-0.187739	-0.407025
C128	C	0.620432	-0.245202	-0.407012
C129	C	0.620438	-0.245190	-0.453931
C130	C	0.649188	-0.216448	-0.477396
C131	C	0.620490	-0.245042	-0.979405
C132	C	0.620500	-0.245030	-1.026325
C133	C	0.678000	-0.187566	-1.026334
C134	C	0.677992	-0.187580	-0.979418
C135	C	0.649234	-0.216320	-0.955955
O136	O	0.702423	-0.163191	-0.905200
O137	O	0.596023	-0.269491	-0.905142
C138	C	0.620454	-0.245117	-0.693215
C139	C	0.649199	-0.216392	-0.669765
C140	C	0.677951	-0.187655	-0.693231
C141	C	0.649197	-0.216406	-0.622847
C142	C	0.620446	-0.245142	-0.599382
C143	C	0.591697	-0.273865	-0.622834
C144	C	0.591703	-0.273854	-0.669750
C145	C	0.706699	-0.158932	-0.669778
C146	C	0.706691	-0.158946	-0.622863
C147	C	0.677940	-0.187683	-0.599397
C148	C	0.649171	-0.216423	-0.099725
C149	C	0.649251	-0.216293	-0.049790
H150	H	-0.094310	-0.268509	-0.164235
H151	H	0.701351	-0.164320	-0.473044
H152	H	0.478094	-0.268509	-0.164205
H153	H	0.568294	-0.297247	-0.688839
Cl154	Cl	0.584337	-0.281174	-0.949916
Cl155	Cl	0.026160	-0.123033	-0.310218
H156	H	0.701347	-0.164350	-0.387936
H157	H	0.121488	-0.297182	-0.135434
Cl158	Cl	0.025982	-0.309885	-0.122686
Cl159	Cl	0.714143	-0.151442	-1.055842
Cl160	Cl	0.742849	-0.122779	-0.734145
H161	H	0.701403	-0.164190	-0.960324
Cl162	Cl	0.555580	-0.309936	-0.839969
H163	H	0.729982	-0.688296	-0.297404
H164	H	0.568344	-0.603409	-0.135526
H165	H	0.597029	-0.268582	-0.473021
H166	H	0.730014	-0.829055	-0.297423
Cl167	Cl	0.166923	-0.123031	-0.310217
H168	H	-0.094199	-0.164424	-0.268701
Cl169	Cl	0.555669	-0.733797	-0.122804
H170	H	0.568412	-0.829273	-0.135554
H171	H	-0.179321	-0.164427	-0.268702
H172	H	0.701200	-0.387407	-0.268586
Cl173	Cl	0.166739	-0.309878	-0.122661
Cl174	Cl	0.488599	-0.151725	-0.281414
Cl175	Cl	0.272803	-0.123031	-0.310211
H176	H	0.597023	-0.268601	-0.387899
H177	H	-0.179417	-0.268515	-0.164249
Cl178	Cl	0.272623	-0.309882	-0.122665
Cl179	Cl	0.555649	-0.698922	-0.122799
Cl180	Cl	0.382568	-0.281225	-0.151467
Cl181	Cl	0.742857	-0.122812	-0.699270
H182	H	0.597091	-0.268425	-1.045416
H183	H	0.701216	-0.472517	-0.268612
H184	H	0.729996	-0.743936	-0.297412
Cl185	Cl	0.714062	-0.949396	-0.281417
H186	H	0.597017	-0.387552	-0.164232
H187	H	0.729963	-0.603189	-0.297387
H188	H	0.701365	-1.044925	-0.268692
Cl189	Cl	0.584473	-1.055468	-0.151596
H190	H	0.597036	-0.472674	-0.164244
H191	H	0.730119	-0.135480	-0.829637
H192	H	0.568300	-0.297232	-0.744480
H193	H	0.393087	-0.164417	-0.268665
Cl194	Cl	0.584434	-0.949585	-0.151588
H195	H	0.121656	-0.135734	-0.297467
H196	H	0.568289	-0.297266	-0.603721
H197	H	0.730104	-0.135553	-0.603773
