data_functionalizedCrystal
_audit_creation_method	'MofGen! by Chris Wilmer'
_symmetry_space_group_name_H-M	'P1'
_symmetry_Int_Tables_number	1
_symmetry_cell_setting	triclinic
loop_
_symmetry_equiv_pos_as_xyz
  x,y,z
_cell_length_a	17.077404
_cell_length_b	19.805405
_cell_length_c	17.077396
_cell_angle_alpha	89.971037
_cell_angle_beta	89.980499
_cell_angle_gamma	90.026951
loop_
_atom_site_label
_atom_site_type_symbol
_atom_site_fract_x
_atom_site_fract_y
_atom_site_fract_z
Zn1	Zn	1.200034	-0.269459	-0.443840
Zn2	Zn	1.199932	-0.382652	-0.312573
Zn3	Zn	1.068765	-0.269483	-0.312588
Zn4	Zn	1.068725	-0.382612	-0.443797
O5	O	1.134364	-0.326052	-0.378199
O6	O	1.309867	-0.284481	-0.426439
O7	O	1.182507	-0.367667	-0.202728
O8	O	1.086238	-0.174763	-0.330023
O9	O	1.309792	-0.367644	-0.329998
O10	O	1.182680	-0.174746	-0.426454
O11	O	1.086140	-0.284522	-0.202739
O12	O	0.958913	-0.284483	-0.329981
O13	O	1.086169	-0.367575	-0.553649
O14	O	0.958883	-0.367598	-0.426380
O15	O	1.182641	-0.284442	-0.553681
O16	O	1.182467	-0.477363	-0.329956
O17	O	1.086070	-0.477334	-0.426365
C18	C	0.930416	-0.326039	-0.378178
C19	C	0.843166	-0.326050	-0.378187
C20	C	0.802181	-0.369394	-0.428301
C21	C	0.720201	-0.369395	-0.428314
C22	C	0.679207	-0.326056	-0.378208
C23	C	0.720198	-0.282708	-0.328091
C24	C	0.802177	-0.282703	-0.328083
C25	C	0.549328	-0.282721	-0.328110
C26	C	0.467343	-0.282726	-0.328117
C27	C	0.467352	-0.369413	-0.428341
C28	C	0.549331	-0.369409	-0.428333
C29	C	0.590316	-0.326061	-0.378215
C30	C	1.134275	-0.501908	-0.378171
C31	C	1.134308	-0.577140	-0.378185
C32	C	1.184496	-0.612416	-0.428436
C33	C	1.184524	-0.683105	-0.428450
C34	C	1.134368	-0.718515	-0.378210
C35	C	1.084175	-0.683233	-0.327957
C36	C	1.084143	-0.612546	-0.327947
C37	C	1.084301	-0.968307	-0.327997
C38	C	1.084338	-1.038999	-0.328009
C39	C	1.184682	-1.038865	-0.428501
C40	C	1.184650	-0.968178	-0.428491
C41	C	1.134454	-0.932902	-0.378241
C42	C	1.134423	-0.856254	-0.378227
C43	C	1.134403	-0.795162	-0.378219
C44	C	1.339108	-0.326064	-0.378222
C45	C	1.426358	-0.326070	-0.378231
C46	C	1.134411	-0.326002	-0.582944
C47	C	1.134432	-0.325980	-0.670194
C48	C	1.134475	-0.149509	-0.378245
C49	C	1.134523	-0.074277	-0.378265
C50	C	1.184667	-0.282689	-0.711202
C51	C	1.184676	-0.282667	-0.793182
C52	C	1.134454	-0.325939	-0.834153
C53	C	1.084214	-0.369232	-0.793139
C54	C	1.084201	-0.369251	-0.711160
C55	C	1.084245	-0.369191	-0.964009
C56	C	1.084259	-0.369174	-1.045994
C57	C	1.184720	-0.282608	-1.046031
C58	C	1.184708	-0.282626	-0.964052
C59	C	1.134468	-0.325920	-0.923044
C60	C	1.134362	-0.326052	-0.174252
C61	C	1.134494	-0.325883	-0.087002
H62	H	0.835546	-0.247405	-0.287279
H63	H	1.043274	-0.583824	-0.287029
H64	H	1.043334	-0.712070	-0.287053
O65	O	0.593537	-0.235968	-0.274056
H66	H	0.630859	-0.266220	-0.234060
H67	H	1.043322	-0.404435	-0.930623
H68	H	1.043362	-0.404408	-1.079350
O69	O	0.675976	-0.235980	-0.274035
H70	H	0.638641	-0.201589	-0.309231
O71	O	1.238909	-0.235910	-1.090256
H72	H	1.225485	-0.182791	-1.074524
H73	H	1.225342	-0.583590	-0.469344
H74	H	0.433977	-0.404706	-0.469150
H75	H	1.043319	-0.404463	-0.826504
H76	H	1.225398	-0.711824	-0.469363
H77	H	1.043286	-0.404496	-0.677773
H78	H	1.225495	-0.939349	-0.469398
O79	O	1.238813	-1.076911	-0.482715
H80	H	1.230404	-1.132013	-0.474293
H81	H	1.043491	-1.067828	-0.287096
O82	O	0.593548	-0.416148	-0.482379
H83	H	0.577783	-0.469258	-0.468817
O84	O	0.846395	-0.416136	-0.482348
H85	H	0.804119	-0.446269	-0.517203
O86	O	1.030180	-0.930262	-0.273787
H87	H	0.995321	-0.966763	-0.238844
H88	H	0.686834	-0.404691	-0.469121
O89	O	0.423123	-0.235977	-0.274084
H90	H	0.465394	-0.205825	-0.239243
O91	O	1.238838	-0.236020	-0.667011
H92	H	1.225408	-0.182893	-0.682751
O93	O	1.238862	-0.235979	-0.837416
H94	H	1.273790	-0.205900	-0.795153
O95	O	1.238878	-0.235959	-0.919857
H96	H	1.273810	-0.205847	-0.962143
