data_functionalizedCrystal
_audit_creation_method	'MofGen! by Chris Wilmer'
_symmetry_space_group_name_H-M	'P1'
_symmetry_Int_Tables_number	1
_symmetry_cell_setting	triclinic
loop_
_symmetry_equiv_pos_as_xyz
  x,y,z
_cell_length_a	9.065215
_cell_length_b	10.723023
_cell_length_c	8.140239
_cell_angle_alpha	90.002155
_cell_angle_beta	90.000939
_cell_angle_gamma	84.741123
loop_
_atom_site_label
_atom_site_type_symbol
_atom_site_fract_x
_atom_site_fract_y
_atom_site_fract_z
O1	O	1.959358	0.182966	0.136590
O2	O	1.529988	0.197979	0.136598
O3	O	1.754578	0.008937	0.136587
O4	O	1.734768	0.372009	0.136601
O5	O	1.754570	0.008935	-0.136640
O6	O	1.529980	0.197978	-0.136630
O7	O	1.959351	0.182965	-0.136637
Zn8	Zn	1.744664	0.190471	-0.180014
Zn9	Zn	1.744674	0.190473	0.179975
O10	O	1.734761	0.372008	-0.136626
C11	C	1.475005	0.196537	-0.000015
C12	C	1.311187	0.192225	-0.000012
C13	C	1.753133	-0.037569	-0.000025
C14	C	1.748820	-0.176141	-0.000019
C15	C	1.746902	-0.237914	0.141523
C16	C	1.742445	-0.381135	0.141532
C17	C	2.014333	0.184408	-0.000020
C18	C	2.178152	0.188719	-0.000012
C19	C	1.736206	0.418514	-0.000011
C20	C	1.740518	0.557086	-0.000005
N21	N	1.744669	0.190469	-0.425696
N22	N	1.744681	0.190465	0.425657
H23	H	1.748552	-0.184769	0.262695
C24	C	1.749203	-0.163367	-0.294488
C25	C	1.746579	-0.247870	-0.163610
H26	H	1.747810	-0.207649	-0.395484
H27	H	1.836671	-0.121129	-0.288385
H28	H	1.664889	-0.104028	-0.288367
H29	H	1.830899	-0.307204	-0.169725
H30	H	1.659102	-0.290129	-0.169716
C31	C	1.736226	-0.580838	0.273473
C32	C	1.740213	-0.452838	0.305130
H33	H	1.734839	-0.625103	0.374478
H34	H	1.821450	-0.610657	0.212254
H35	H	1.649668	-0.593563	0.212238
H36	H	1.826777	-0.440113	0.366355
H37	H	1.654981	-0.423010	0.366375
H38	H	1.742176	-0.389800	-0.121191
