data_functionalizedCrystal
_audit_creation_method	'MofGen! by Chris Wilmer'
_symmetry_space_group_name_H-M	'P1'
_symmetry_Int_Tables_number	1
_symmetry_cell_setting	triclinic
loop_
_symmetry_equiv_pos_as_xyz
  x,y,z
_cell_length_a	17.699083
_cell_length_b	10.908878
_cell_length_c	16.776229
_cell_angle_alpha	89.993177
_cell_angle_beta	89.998886
_cell_angle_gamma	71.683903
loop_
_atom_site_label
_atom_site_type_symbol
_atom_site_fract_x
_atom_site_fract_y
_atom_site_fract_z
O1	O	0.983807	0.162454	-0.066177
O2	O	0.760791	0.183589	-0.066203
O3	O	0.901863	-0.014003	-0.066184
O4	O	0.842736	0.360046	-0.066196
O5	O	0.901849	-0.014015	0.066393
O6	O	0.760778	0.183577	0.066373
O7	O	0.983793	0.162442	0.066400
Zn8	Zn	0.872283	0.173008	0.087436
Zn9	Zn	0.872302	0.173023	-0.087239
O10	O	0.842722	0.360034	0.066380
C11	C	0.732682	0.182826	0.000082
C12	C	0.648947	0.180554	0.000072
C13	C	0.585854	0.296536	0.000068
C14	C	0.507178	0.294394	0.000079
C15	C	0.491597	0.176268	0.000087
C16	C	0.554698	0.060276	0.000093
C17	C	0.633372	0.062420	0.000089
C18	C	0.237414	0.051628	0.000113
C19	C	0.158732	0.049493	0.000116
C20	C	0.111220	0.283602	0.000103
C21	C	0.189894	0.285746	0.000099
C22	C	0.252988	0.169755	0.000109
C23	C	0.338297	0.172080	0.000099
C24	C	0.406290	0.173942	0.000091
C25	C	0.907382	-0.061868	0.000104
C26	C	0.923837	-0.204472	0.000104
C27	C	0.863793	-0.253293	0.000095
C28	C	0.880800	-0.400681	0.000094
C29	C	1.011903	0.163205	0.000113
C30	C	1.095637	0.165477	0.000118
C31	C	0.837203	0.407899	0.000090
C32	C	0.820747	0.550503	0.000086
N33	N	0.872276	0.172996	0.206647
N34	N	0.872316	0.173025	-0.206451
C35	C	0.934754	0.085538	0.248373
C36	C	0.934758	0.085537	0.331825
C37	C	0.872287	0.173001	0.373550
C38	C	0.809804	0.260463	0.331818
C39	C	0.809797	0.260457	0.248368
C40	C	0.809828	0.260488	0.668366
C41	C	0.809840	0.260490	0.751822
C42	C	0.934789	0.085568	0.751823
C43	C	0.934782	0.085562	0.668372
C44	C	0.872297	0.173019	0.626648
C45	C	0.872292	0.173017	0.536160
C46	C	0.872294	0.173009	0.464037
H47	H	0.684744	-0.032025	0.000091
C48	C	0.741083	0.356677	0.377712
C49	C	0.741113	0.356756	0.469504
C50	C	0.672391	0.452977	0.515394
C51	C	0.603640	0.549118	0.469492
C52	C	0.603607	0.549043	0.377694
C53	C	0.672329	0.452823	0.331804
H54	H	0.792009	0.285583	0.503488
H55	H	0.672415	0.453032	0.583349
H56	H	0.552768	0.620347	0.503463
H57	H	0.552711	0.620216	0.343710
H58	H	0.672304	0.452768	0.263849
H59	H	0.985627	0.014320	0.214406
H60	H	0.542006	-0.035904	0.000112
C61	C	1.010296	-0.295401	0.000112
C62	C	1.040352	-0.391824	0.068958
C63	C	1.126813	-0.482750	0.068966
C64	C	1.183218	-0.477253	0.000130
C65	C	1.153163	-0.380826	-0.068720
C66	C	1.066702	-0.289900	-0.068729
H67	H	0.998597	-0.395897	0.119919
H68	H	1.149061	-0.554132	0.119934
H69	H	1.247221	-0.544562	0.000137
H70	H	1.194918	-0.376754	-0.119681
H71	H	1.044454	-0.218519	-0.119697
C72	C	0.306810	-0.075958	0.000111
C73	C	0.289669	-0.205891	0.000109
C74	C	0.359070	-0.333484	0.000103
C75	C	0.445612	-0.331145	0.000098
C76	C	0.462757	-0.201207	0.000099
C77	C	0.393356	-0.073614	0.000106
H78	H	0.225601	-0.207627	0.000113
H79	H	0.346377	-0.429672	0.000102
H80	H	0.496987	-0.425597	0.000093
H81	H	0.526825	-0.199471	0.000095
H82	H	0.406049	0.022574	0.000107
C83	C	1.003485	-0.010661	0.377728
C84	C	1.072221	-0.106839	0.331839
C85	C	1.140950	-0.203041	0.377743
C86	C	1.140942	-0.203065	0.469536
C87	C	1.072204	-0.106883	0.515429
C88	C	1.003475	-0.010681	0.469525
H89	H	1.072229	-0.106825	0.263884
H90	H	1.191835	-0.274241	0.343769
H91	H	1.191820	-0.274279	0.503517
H92	H	1.072196	-0.106898	0.583384
H93	H	0.952590	0.060519	0.503499
H94	H	0.758966	0.331716	0.785793
C95	C	1.003521	-0.010650	0.797721
C96	C	1.003535	-0.010661	0.889513
C97	C	1.072266	-0.106873	0.935408
C98	C	1.140985	-0.203073	0.889511
C99	C	1.140974	-0.203065	0.797713
C100	C	1.072242	-0.106853	0.751818
H101	H	0.952663	0.060555	0.923494
H102	H	1.072274	-0.106878	1.003363
H103	H	1.191864	-0.274294	0.923485
H104	H	1.191845	-0.274281	0.763732
H105	H	1.072234	-0.106848	0.683863
H106	H	0.598531	0.392728	0.000061
H107	H	0.455808	0.388839	0.000075
H108	H	0.202574	0.381936	0.000088
H109	H	0.059838	0.378047	0.000099
H110	H	0.146053	-0.046705	0.000124
H111	H	0.799797	-0.185975	0.000093
H112	H	0.756746	-0.382185	0.000086
H113	H	0.944800	-0.467995	0.000104
H114	H	0.985654	0.014345	0.634402
H115	H	0.758951	0.331701	0.634400
H116	H	0.758921	0.331672	0.214395
