data_functionalizedCrystal
_audit_creation_method	'MofGen! by Chris Wilmer'
_symmetry_space_group_name_H-M	'P1'
_symmetry_Int_Tables_number	1
_symmetry_cell_setting	triclinic
loop_
_symmetry_equiv_pos_as_xyz
  x,y,z
_cell_length_a	19.805407
_cell_length_b	29.839131
_cell_length_c	19.805398
_cell_angle_alpha	89.969409
_cell_angle_beta	89.986879
_cell_angle_gamma	90.041420
loop_
_atom_site_label
_atom_site_type_symbol
_atom_site_fract_x
_atom_site_fract_y
_atom_site_fract_z
Zn1	Zn	1.034622	-0.178859	-0.382710
Zn2	Zn	1.034520	-0.253988	-0.269518
Zn3	Zn	0.921449	-0.178873	-0.269535
Zn4	Zn	0.921371	-0.253963	-0.382665
O5	O	0.977990	-0.216421	-0.326107
O6	O	1.129325	-0.188830	-0.367707
O7	O	1.019511	-0.244040	-0.174804
O8	O	0.936538	-0.116004	-0.284574
O9	O	1.129250	-0.244027	-0.284545
O10	O	1.019685	-0.115994	-0.367723
O11	O	0.936439	-0.188853	-0.174816
O12	O	0.826722	-0.188829	-0.284530
O13	O	0.936403	-0.243984	-0.477387
O14	O	0.826664	-0.243997	-0.367646
O15	O	1.019609	-0.188806	-0.477421
O16	O	1.019435	-0.316852	-0.284501
O17	O	0.936304	-0.316833	-0.367630
C18	C	0.802134	-0.216412	-0.326085
C19	C	0.726902	-0.216419	-0.326092
C20	C	0.691546	-0.245189	-0.369300
C21	C	0.620857	-0.245190	-0.369310
C22	C	0.585527	-0.216423	-0.326107
C23	C	0.620888	-0.187650	-0.282897
C24	C	0.691576	-0.187648	-0.282891
C25	C	0.335815	-0.187660	-0.282919
C26	C	0.265123	-0.187666	-0.282927
C27	C	0.265097	-0.245202	-0.369338
C28	C	0.335784	-0.245199	-0.369332
C29	C	0.371139	-0.216425	-0.326125
C30	C	0.447788	-0.216424	-0.326116
C31	C	0.508880	-0.216426	-0.326112
C32	C	0.977868	-0.333143	-0.326073
C33	C	0.977878	-0.383078	-0.326082
C34	C	1.021355	-0.692718	-0.282885
C35	C	1.021439	-0.880391	-0.282912
O36	O	1.058308	-0.904653	-0.246159
N37	N	0.978131	-0.903863	-0.326158
C38	C	0.934802	-0.880413	-0.369404
O39	O	0.897973	-0.904684	-0.406194
C40	C	0.934722	-0.692741	-0.369381
C41	C	0.978028	-0.669272	-0.326127
C42	C	1.064658	-0.669249	-0.239635
C43	C	1.064634	-0.622333	-0.239626
C44	C	1.021307	-0.598887	-0.282868
C45	C	0.978004	-0.622357	-0.326118
C46	C	0.891398	-0.669293	-0.412630
C47	C	0.891383	-0.622371	-0.412621
C48	C	0.934689	-0.598902	-0.369367
C49	C	0.934654	-0.551995	-0.369351
N50	N	0.977962	-0.528523	-0.326104
C51	C	1.021288	-0.551969	-0.282863
C52	C	0.934846	-0.978944	-0.369412
C53	C	0.934865	-1.025862	-0.369418
C54	C	1.021503	-1.025836	-0.282926
C55	C	1.021480	-0.978918	-0.282918
C56	C	0.978154	-0.955472	-0.326166
C57	C	1.021234	-0.453444	-0.282847
C58	C	1.021205	-0.406524	-0.282840
C59	C	0.934570	-0.406553	-0.369334
C60	C	0.934597	-0.453469	-0.369339
C61	C	0.977935	-0.476913	-0.326093
O62	O	0.897809	-0.527704	-0.406090
O63	O	1.058123	-0.527691	-0.246090
C64	C	1.021379	-0.739634	-0.282894
C65	C	0.978076	-0.763103	-0.326144
C66	C	0.934749	-0.739657	-0.369386
C67	C	0.978095	-0.810021	-0.326149
C68	C	1.021422	-0.833467	-0.282908
C69	C	1.064730	-0.809995	-0.239661
C70	C	1.064706	-0.763080	-0.239653
C71	C	0.891441	-0.763128	-0.412632
C72	C	0.891468	-0.810044	-0.412637
C73	C	0.934795	-0.833490	-0.369395
C74	C	1.154533	-0.216430	-0.326129
C75	C	1.229765	-0.216434	-0.326139
C76	C	0.978009	-0.216390	-0.502650
C77	C	0.978016	-0.216377	-0.577882
C78	C	0.978132	-0.099242	-0.326156
C79	C	0.978192	-0.049308	-0.326176
C80	C	1.021379	-0.245042	-1.039664
C81	C	1.021360	-0.245054	-0.968976
C82	C	0.978100	-0.216327	-0.933644
C83	C	0.934852	-0.187589	-0.969004
C84	C	0.934867	-0.187579	-1.039691
C85	C	0.934786	-0.187627	-0.683930
C86	C	0.934775	-0.187638	-0.613238
C87	C	1.021279	-0.245102	-0.613215
C88	C	1.021295	-0.245092	-0.683902
C89	C	0.978044	-0.216356	-0.719256
C90	C	0.978064	-0.216344	-0.795905
C91	C	0.978083	-0.216336	-0.856997
C92	C	0.978011	-0.216419	-0.150251
C93	C	0.978135	-0.216305	-0.075019
H94	H	0.364593	-0.164234	-0.247732
N95	N	1.065473	-0.274438	-0.720003
N96	N	1.065479	-0.274426	-0.783115
H97	H	1.096678	-0.295153	-0.808612
N98	N	0.584791	-0.158265	-0.238775
N99	N	0.521678	-0.158271	-0.238784
H100	H	0.496184	-0.137517	-0.207622
N101	N	0.890583	-0.158287	-0.577157
N102	N	0.851971	-0.132632	-0.608730
H103	H	0.820763	-0.111902	-0.583247
H104	H	0.720362	-0.164218	-0.247710
N105	N	1.065445	-0.274466	-0.577100
N106	N	1.060908	-0.315919	-0.584976
H107	H	1.092100	-0.336657	-0.559471
H108	H	0.899568	-0.164229	-0.712707
N109	N	0.847156	-0.693251	-0.456818
N110	N	0.808483	-0.672302	-0.495423
H111	H	0.777235	-0.689222	-0.526634
H112	H	0.236302	-0.268630	-0.404522
H113	H	0.899626	-0.164201	-0.940231
N114	N	1.065754	-1.049798	-0.238756
N115	N	1.065759	-1.091688	-0.238773
H116	H	1.097012	-1.108613	-0.207583
H117	H	0.856102	-0.603284	-0.447842
H118	H	0.364547	-0.268626	-0.404510
H119	H	1.056469	-0.387417	-0.247615
H120	H	1.099899	-0.603228	-0.204407
N121	N	0.847180	-0.739190	-0.456811
N122	N	0.808520	-0.760157	-0.495419
H123	H	0.777255	-0.743252	-0.526622
H124	H	0.899654	-0.164178	-1.068476
H125	H	1.056609	-0.268433	-1.068427
N126	N	0.584752	-0.274577	-0.413455
N127	N	0.616305	-0.300260	-0.452024
H128	H	0.590807	-0.321016	-0.483205
H129	H	0.236359	-0.164238	-0.247745
N130	N	1.065558	-0.274396	-0.932869
N131	N	1.108701	-0.258588	-0.893443
H132	H	1.139923	-0.279310	-0.867945
N133	N	0.727621	-0.274581	-0.413430
N134	N	0.696041	-0.300265	-0.452006
H135	H	0.721517	-0.321024	-0.483175
N136	N	1.065495	-0.477380	-0.238659
N137	N	1.061038	-0.472163	-0.176200
H138	H	1.092293	-0.489068	-0.144988
N139	N	1.108927	-0.693187	-0.195460
N140	N	1.147585	-0.672218	-0.156853
H141	H	1.178850	-0.689121	-0.125649
N142	N	1.108979	-0.833957	-0.195490
N143	N	1.108985	-0.875847	-0.195510
H144	H	1.140236	-0.892773	-0.164318
N145	N	1.065718	-0.954954	-0.238729
N146	N	1.104394	-0.975899	-0.200123
H147	H	1.135640	-0.958977	-0.168913
H148	H	0.899595	-1.044966	-0.404633
H149	H	0.899563	-0.959858	-0.404631
H150	H	0.899336	-0.472579	-0.404562
N151	N	0.890325	-0.382591	-0.413502
N152	N	0.914107	-0.356374	-0.456644
H153	H	0.882862	-0.339448	-0.487840
N154	N	1.108945	-0.739117	-0.195463
N155	N	1.147622	-0.760065	-0.156861
H156	H	1.178869	-0.743144	-0.125649
N157	N	0.847219	-0.834007	-0.456822
N158	N	0.808540	-0.813062	-0.495425
H159	H	0.777292	-0.829984	-0.526634
