data_functionalizedCrystal
_audit_creation_method	'MofGen! by Chris Wilmer'
_symmetry_space_group_name_H-M	'P1'
_symmetry_Int_Tables_number	1
_symmetry_cell_setting	triclinic
loop_
_symmetry_equiv_pos_as_xyz
  x,y,z
_cell_length_a	29.839131
_cell_length_b	18.215407
_cell_length_c	18.215399
_cell_angle_alpha	89.983101
_cell_angle_beta	89.969127
_cell_angle_gamma	90.038879
loop_
_atom_site_label
_atom_site_type_symbol
_atom_site_fract_x
_atom_site_fract_y
_atom_site_fract_z
Zn1	Zn	-0.178888	1.124987	-0.416043
Zn2	Zn	-0.254018	1.124860	-0.292971
Zn3	Zn	-0.178899	1.001920	-0.292997
Zn4	Zn	-0.253989	1.001850	-0.416002
O5	O	-0.216449	1.063404	-0.354503
O6	O	-0.188862	1.227955	-0.399724
O7	O	-0.244070	1.108528	-0.189990
O8	O	-0.116031	1.018327	-0.309348
O9	O	-0.244059	1.227861	-0.309303
O10	O	-0.116023	1.108745	-0.399749
O11	O	-0.188880	1.018204	-0.190009
O12	O	-0.188852	0.898926	-0.309307
O13	O	-0.244010	1.018209	-0.518992
O14	O	-0.244020	0.898875	-0.399679
O15	O	-0.188834	1.108677	-0.519022
O16	O	-0.316881	1.108460	-0.309263
O17	O	-0.316860	1.018085	-0.399653
C18	C	-0.216435	0.872198	-0.354492
C19	C	-0.216440	0.790399	-0.354504
C20	C	-0.245222	0.525334	-0.401495
C21	C	-0.245218	0.602193	-0.401491
C22	C	-0.187685	0.602216	-0.307524
C23	C	-0.187692	0.525358	-0.307525
C24	C	-0.216459	0.486920	-0.354514
C25	C	-0.216449	0.640636	-0.354510
C26	C	-0.216445	0.723969	-0.354506
C27	C	-0.216464	0.403581	-0.354518
C28	C	-0.333171	1.063272	-0.354467
C29	C	-0.383106	1.063282	-0.354476
C30	C	-0.692747	1.110548	-0.307506
C31	C	-0.880420	1.110639	-0.307534
O32	O	-0.904684	1.150721	-0.267570
N33	N	-0.903891	1.063557	-0.354559
C34	C	-0.880440	1.016452	-0.401583
O35	O	-0.904709	0.976414	-0.441586
C36	C	-0.692767	1.016366	-0.401557
C37	C	-0.669300	1.063446	-0.354525
C38	C	-0.669280	1.157625	-0.260477
C39	C	-0.622364	1.157599	-0.260468
C40	C	-0.598916	1.110496	-0.307487
C41	C	-0.622384	1.063420	-0.354515
C42	C	-0.669317	0.969265	-0.448585
C43	C	-0.622396	0.969249	-0.448575
C44	C	-0.598929	1.016329	-0.401543
C45	C	-0.552021	1.016291	-0.401524
N46	N	-0.528551	1.063373	-0.354500
C47	C	-0.551999	1.110476	-0.307481
C48	C	-0.978970	1.016500	-0.401592
C49	C	-1.025888	1.016521	-0.401597
C50	C	-1.025866	1.110709	-0.307549
C51	C	-0.978947	1.110684	-0.307541
C52	C	-0.955500	1.063582	-0.354567
C53	C	-0.453473	1.110417	-0.307464
C54	C	-0.406553	1.110385	-0.307457
C55	C	-0.406580	1.016200	-0.401507
C56	C	-0.453495	1.016229	-0.401512
C57	C	-0.476941	1.063344	-0.354488
O58	O	-0.527729	0.976236	-0.441473
O59	O	-0.527721	1.150520	-0.267495
C60	C	-0.739663	1.110574	-0.307515
C61	C	-0.763131	1.063498	-0.354544
C62	C	-0.739683	1.016395	-0.401562
C63	C	-0.810048	1.063518	-0.354549
C64	C	-0.833496	1.110621	-0.307530
C65	C	-0.810026	1.157703	-0.260506
C66	C	-0.763110	1.157677	-0.260496
C67	C	-0.763153	0.969313	-0.448587
C68	C	-0.810069	0.969342	-0.448592
C69	C	-0.833516	1.016445	-0.401573
C70	C	-0.099270	1.063558	-0.354556
C71	C	-0.049336	1.063623	-0.354578
C72	C	-0.216418	1.063449	-0.546456
C73	C	-0.216404	1.063468	-0.628255
C74	C	-0.216463	1.255357	-0.354515
C75	C	-0.216469	1.337156	-0.354520
C76	C	-0.187647	1.110592	-0.816466
C77	C	-0.187634	1.110601	-0.893325
C78	C	-0.245092	1.016397	-0.893282
C79	C	-0.245102	1.016385	-0.816425
C80	C	-0.216381	1.063487	-0.778019
C81	C	-0.216357	1.063507	-0.931735
C82	C	-0.216343	1.063517	-1.015069
C83	C	-0.216394	1.063477	-0.694680
C84	C	-0.216447	1.063402	-0.163297
C85	C	-0.216334	1.063526	-0.081498
H86	H	-0.387447	1.148723	-0.269154
C87	C	-0.156052	0.483098	-0.255840
C88	C	-0.104983	0.493707	-0.261988
C89	C	-0.073347	0.451447	-0.210302
C90	C	-0.092779	0.398579	-0.152468
C91	C	-0.143850	0.387968	-0.146318
C92	C	-0.175487	0.430228	-0.198004
H93	H	-0.090596	0.532845	-0.304802
H94	H	-0.035540	0.459302	-0.214855
H95	H	-0.069360	0.367295	-0.114207
H96	H	-0.158238	0.348829	-0.103504
H97	H	-0.213293	0.422373	-0.193451
H98	H	-0.164259	1.148944	-0.785198
H99	H	-0.164236	1.148958	-0.924625
H100	H	-0.268500	0.978021	-0.785120
C101	C	-0.276856	0.644449	-0.453172
C102	C	-0.276855	0.728989	-0.453172
C103	C	-0.308495	0.771245	-0.504854
C104	C	-0.340138	0.728961	-0.556537
C105	C	-0.340140	0.644416	-0.556539
C106	C	-0.308500	0.602160	-0.504857
H107	H	-0.253430	0.760295	-0.414912
H108	H	-0.308493	0.833831	-0.504852
H109	H	-0.363560	0.760241	-0.594795
H110	H	-0.363565	0.613110	-0.594799
H111	H	-0.308502	0.539574	-0.504859
H112	H	-0.268477	0.978050	-0.924562
H113	H	-0.164263	0.633522	-0.269268
H114	H	-0.472556	1.148784	-0.269175
C115	C	-0.596555	1.209396	-0.208736
C116	C	-0.603049	1.203449	-0.125071
C117	C	-0.577245	1.255253	-0.073338
C118	C	-0.544947	1.313004	-0.105270
C119	C	-0.538452	1.318953	-0.188940
C120	C	-0.564256	1.267149	-0.240672
H121	H	-0.626959	1.160697	-0.101429
H122	H	-0.582054	1.250848	-0.011400
H123	H	-0.525846	1.351352	-0.066974
H124	H	-0.514542	1.361706	-0.212581
H125	H	-0.559448	1.271554	-0.302610
H126	H	-0.268646	0.494040	-0.439756
H127	H	-0.688366	1.195985	-0.222188
H128	H	-0.959842	1.149020	-0.269243
H129	H	-1.044965	1.149062	-0.269265
H130	H	-1.044992	0.978177	-0.439889
H131	H	-0.959883	0.978143	-0.439887
C132	C	-0.695122	0.917475	-0.500325
C133	C	-0.727420	0.859718	-0.468406
C134	C	-0.753222	0.807923	-0.520151
C135	C	-0.746726	0.813887	-0.603814
C136	C	-0.714426	0.871647	-0.635738
C137	C	-0.688624	0.923441	-0.583993
H138	H	-0.732230	0.855301	-0.406470
H139	H	-0.777132	0.765165	-0.496519
H140	H	-0.765826	0.775545	-0.642119
H141	H	-0.709616	0.876063	-0.697674
H142	H	-0.664714	0.966199	-0.607625
C143	C	-0.596605	0.917433	-0.500304
C144	C	-0.564399	0.859654	-0.468363
C145	C	-0.538608	0.807837	-0.520089
C146	C	-0.545024	0.813800	-0.603757
C147	C	-0.577232	0.871581	-0.635702
C148	C	-0.603023	0.923398	-0.583976
H149	H	-0.559648	0.855238	-0.406423
H150	H	-0.514766	0.765063	-0.496440
H151	H	-0.525933	0.775442	-0.642048
H152	H	-0.581983	0.875998	-0.697642
H153	H	-0.626865	0.966172	-0.607625
C154	C	-0.737300	1.209471	-0.208762
C155	C	-0.743794	1.203519	-0.125098
C156	C	-0.717988	1.255317	-0.073362
C157	C	-0.685689	1.313067	-0.105291
C158	C	-0.679193	1.319021	-0.188960
C159	C	-0.704999	1.267223	-0.240696
H160	H	-0.767706	1.160767	-0.101458
H161	H	-0.722797	1.250909	-0.011424
H162	H	-0.666585	1.351411	-0.066993
H163	H	-0.655282	1.361773	-0.212599
H164	H	-0.700191	1.271631	-0.302633
C165	C	-0.380780	0.964390	-0.453225
C166	C	-0.387277	0.880733	-0.447154
C167	C	-0.361475	0.828926	-0.498875
C168	C	-0.329177	0.860776	-0.556668
C169	C	-0.322680	0.944437	-0.562742
C170	C	-0.348481	0.996244	-0.511020
H171	H	-0.411187	0.857151	-0.404370
H172	H	-0.366285	0.766994	-0.494378
H173	H	-0.310077	0.822426	-0.594955
H174	H	-0.298769	0.968019	-0.605526
H175	H	-0.343671	1.058176	-0.515517
H176	H	-0.472604	0.977895	-0.439812
H177	H	-0.829172	0.930998	-0.486891
C178	C	-0.835824	1.209518	-0.208785
C179	C	-0.868125	1.177677	-0.150992
C180	C	-0.893926	1.229493	-0.099278
C181	C	-0.887426	1.313148	-0.105358
C182	C	-0.855124	1.344993	-0.163154
C183	C	-0.829323	1.293178	-0.214868
H184	H	-0.872938	1.115747	-0.146489
H185	H	-0.917838	1.205918	-0.056494
H186	H	-0.906526	1.351505	-0.067077
H187	H	-0.850311	1.406924	-0.167657
H188	H	-0.805411	1.316752	-0.257652
H189	H	-0.744066	0.930957	-0.486876
