data_functionalizedCrystal
_audit_creation_method	'MofGen! by Chris Wilmer'
_symmetry_space_group_name_H-M	'P1'
_symmetry_Int_Tables_number	1
_symmetry_cell_setting	triclinic
loop_
_symmetry_equiv_pos_as_xyz
  x,y,z
_cell_length_a	10.723024
_cell_length_b	13.448316
_cell_length_c	14.971486
_cell_angle_alpha	89.998269
_cell_angle_beta	84.041053
_cell_angle_gamma	89.995222
loop_
_atom_site_label
_atom_site_type_symbol
_atom_site_fract_x
_atom_site_fract_y
_atom_site_fract_z
O1	O	1.655879	-0.082681	0.125452
O2	O	1.989212	0.250653	0.458786
O3	O	2.322546	0.583986	0.792119
O4	O	1.292601	-0.082684	0.137460
O5	O	1.625934	0.250650	0.470794
O6	O	1.959268	0.583983	0.804127
O7	O	1.483977	-0.082680	0.001309
O8	O	1.817310	0.250653	0.334642
O9	O	2.150643	0.583986	0.667975
O10	O	1.464503	-0.082684	0.261604
O11	O	1.797837	0.250649	0.594937
O12	O	2.131170	0.583983	0.928271
O13	O	1.483957	0.082703	0.001307
O14	O	1.817291	0.416037	0.334641
O15	O	2.150624	0.749370	0.667974
O16	O	1.292582	0.082700	0.137459
O17	O	1.625915	0.416033	0.470792
O18	O	1.959249	0.749367	0.804126
O19	O	1.655860	0.082703	0.125451
O20	O	1.989193	0.416036	0.458784
O21	O	2.322526	0.749370	0.792118
Cu22	Cu	1.474219	0.097802	0.131455
Cu23	Cu	1.807552	0.431136	0.464788
Cu24	Cu	2.140886	0.764469	0.798122
Cu25	Cu	1.474242	-0.097783	0.131456
Cu26	Cu	1.807575	0.235550	0.464790
Cu27	Cu	2.140908	0.568884	0.798123
O28	O	1.464484	0.082700	0.261603
O29	O	1.797818	0.416033	0.594936
O30	O	2.131151	0.749366	0.928269
C31	C	1.246101	0.000008	0.136586
C32	C	1.579434	0.333341	0.469919
C33	C	1.912768	0.666674	0.803253
C34	C	1.107574	0.000007	0.133971
C35	C	1.440907	0.333340	0.467305
C36	C	1.774241	0.666673	0.800638
N37	N	1.474212	0.235367	0.131453
N38	N	1.807546	0.568700	0.464787
N39	N	2.140879	0.902033	0.798120
N40	N	1.474258	-0.235347	0.131451
N41	N	1.807592	0.097986	0.464784
N42	N	2.140925	0.431319	0.798118
C43	C	1.031795	0.000005	0.210155
C44	C	1.365129	0.333338	0.543488
C45	C	1.698462	0.666671	0.876821
C46	C	0.888620	0.000004	0.207454
C47	C	1.221954	0.333337	0.540788
C48	C	1.555287	0.666670	0.874121
C49	C	1.702360	0.000009	0.126325
C50	C	2.035693	0.333343	0.459659
C51	C	2.369026	0.666676	0.792992
C52	C	1.840887	0.000004	0.128940
C53	C	2.174220	0.333337	0.462273
C54	C	2.507553	0.666671	0.795607
C55	C	1.549968	0.287403	0.186201
C56	C	1.883302	0.620736	0.519534
C57	C	2.216635	0.954069	0.852868
C58	C	1.549984	0.391506	0.186197
C59	C	1.883317	0.724839	0.519531
C60	C	2.216650	1.058173	0.852864
C61	C	1.474236	0.443571	0.131450
C62	C	1.807569	0.776905	0.464783
C63	C	2.140902	1.110238	0.798116
C64	C	1.398477	0.391528	0.076696
C65	C	1.731810	0.724861	0.410029
C66	C	2.065144	1.058195	0.743362
C67	C	1.398469	0.287427	0.076695
C68	C	1.731802	0.620760	0.410029
C69	C	2.065136	0.954093	0.743362
C70	C	1.398497	0.608508	0.076702
C71	C	1.731830	0.941842	0.410035
C72	C	2.065163	1.275175	0.743368
C73	C	1.398502	0.712617	0.076703
C74	C	1.731836	1.045950	0.410036
C75	C	2.065169	1.379283	0.743370
C76	C	1.550011	0.712587	0.186204
C77	C	1.883345	1.045921	0.519537
C78	C	2.216678	1.379254	0.852870
C79	C	1.550003	0.608486	0.186203
C80	C	1.883337	0.941819	0.519537
C81	C	2.216670	1.275153	0.852870
C82	C	1.474242	0.556450	0.131450
C83	C	1.807576	0.889783	0.464784
C84	C	2.140909	1.223117	0.798117
C85	C	1.465365	0.000007	0.294933
C86	C	1.798698	0.333341	0.628266
C87	C	2.132031	0.666674	0.961599
C88	C	1.467975	0.000006	0.394244
C89	C	1.801308	0.333339	0.727577
C90	C	2.134641	0.666673	1.060911
C91	C	1.483096	0.000010	-0.032022
C92	C	1.816429	0.333343	0.301312
C93	C	2.149763	0.666676	0.634645
C94	C	1.480486	0.000005	-0.131333
C95	C	1.813819	0.333338	0.202001
C96	C	2.147153	0.666671	0.535334
C97	C	1.469212	-0.090146	0.440898
C98	C	1.802546	0.243187	0.774231
C99	C	2.135879	0.576521	1.107565
C100	C	1.471681	-0.090147	0.534210
C101	C	1.805014	0.243186	0.867543
C102	C	2.138347	0.576519	1.200876
C103	C	1.472902	0.000004	0.580867
C104	C	1.806236	0.333338	0.914200
C105	C	2.139569	0.666671	1.247533
C106	C	1.471668	0.090163	0.534206
C107	C	1.805002	0.423497	0.867539
C108	C	2.138335	0.756830	1.200873
C109	C	1.469209	0.090163	0.440895
C110	C	1.802542	0.423497	0.774228
C111	C	2.135876	0.756830	1.107562
C112	C	1.476791	0.090156	0.728696
C113	C	1.810125	0.423490	1.062029
C114	C	2.143458	0.756823	1.395362
C115	C	1.479248	0.090157	0.822013
C116	C	1.812582	0.423490	1.155347
C117	C	2.145915	0.756823	1.488680
C118	C	1.479263	-0.090154	0.822011
C119	C	1.812596	0.243179	1.155344
C120	C	2.145930	0.576512	1.488677
C121	C	1.476804	-0.090154	0.728700
C122	C	1.810137	0.243179	1.062033
C123	C	2.143470	0.576513	1.395366
C124	C	1.475567	0.000005	0.682045
C125	C	1.808901	0.333338	1.015379
C126	C	2.142234	0.666672	1.348712
H127	H	1.072915	0.000010	0.277377
H128	H	1.406248	0.333343	0.610711
H129	H	1.739582	0.666676	0.944044
Br130	Br	1.652770	0.537826	0.260530
Br131	Br	1.986103	0.871159	0.593863
Br132	Br	2.319436	1.204492	0.927196
Br133	Br	1.295706	0.783277	0.002398
Br134	Br	1.629039	1.116610	0.335732
Br135	Br	1.962373	1.449944	0.669065
H136	H	1.480260	-0.163565	0.860002
H137	H	1.813593	0.169768	1.193335
H138	H	2.146926	0.503101	1.526668
Br139	Br	0.780100	-0.000011	0.316164
Br140	Br	1.113433	0.333323	0.649498
Br141	Br	1.446767	0.666656	0.982831
Br142	Br	1.475124	0.212517	0.665379
Br143	Br	1.808458	0.545850	0.998712
Br144	Br	2.141791	0.879183	1.332045
Br145	Br	0.949399	-0.000006	0.020226
Br146	Br	1.282733	0.333328	0.353560
Br147	Br	1.616066	0.666661	0.686893
Br148	Br	1.295702	0.537888	0.002376
Br149	Br	1.629035	0.871222	0.335709
Br150	Br	1.962368	1.204555	0.669042
H151	H	1.611694	0.754960	0.230789
H152	H	1.945027	1.088293	0.564123
H153	H	2.278360	1.421627	0.897456
Br154	Br	1.473368	-0.212502	0.597522
Br155	Br	1.806701	0.120832	0.930856
Br156	Br	2.140035	0.454165	1.264189
Br157	Br	1.652770	0.216752	0.260509
Br158	Br	1.986104	0.550086	0.593842
Br159	Br	2.319437	0.883419	0.927176
Br160	Br	1.467542	0.212517	0.377576
Br161	Br	1.800876	0.545851	0.710910
Br162	Br	2.134209	0.879184	1.044243
Br163	Br	1.480937	0.212506	0.885331
Br164	Br	1.814270	0.545840	1.218665
Br165	Br	2.147603	0.879173	1.551998
H166	H	1.066454	-0.000018	0.066749
H167	H	1.399788	0.333315	0.400082
H168	H	1.733121	0.666649	0.733415
Br169	Br	1.652800	0.462123	0.260501
Br170	Br	1.986134	0.795456	0.593834
Br171	Br	2.319467	1.128789	0.927168
H172	H	1.475802	-0.163564	0.690715
H173	H	1.809135	0.169770	1.024048
H174	H	2.142469	0.503103	1.357381
Br175	Br	1.473338	0.212514	0.597524
Br176	Br	1.806671	0.545847	0.930857
Br177	Br	2.140005	0.879181	1.264191
H178	H	1.336780	0.245060	0.032114
H179	H	1.670114	0.578394	0.365448
H180	H	2.003447	0.911727	0.698781
Br181	Br	1.467541	-0.212502	0.377588
Br182	Br	1.800874	0.120832	0.710921
Br183	Br	2.134207	0.454165	1.044255
Br184	Br	1.295680	0.462187	0.002391
Br185	Br	1.629013	0.795520	0.335724
Br186	Br	1.962346	1.128854	0.669057
