data_functionalizedCrystal
_audit_creation_method	'MofGen! by Chris Wilmer'
_symmetry_space_group_name_H-M	'P1'
_symmetry_Int_Tables_number	1
_symmetry_cell_setting	triclinic
loop_
_symmetry_equiv_pos_as_xyz
  x,y,z
_cell_length_a	10.654545
_cell_length_b	9.016244
_cell_length_c	10.654550
_cell_angle_alpha	89.999280
_cell_angle_beta	84.484004
_cell_angle_gamma	90.006905
loop_
_atom_site_label
_atom_site_type_symbol
_atom_site_fract_x
_atom_site_fract_y
_atom_site_fract_z
O1	O	1.667850	0.123315	0.176367
O2	O	1.302371	0.123320	0.193179
O3	O	1.493514	0.123319	0.002033
O4	O	1.476708	0.123317	0.367512
O5	O	1.493486	-0.123362	0.002038
O6	O	1.302343	-0.123360	0.193183
O7	O	1.667822	-0.123366	0.176371
Cu8	Cu	1.485080	-0.145887	0.184777
Cu9	Cu	1.485113	0.145842	0.184772
O10	O	1.476679	-0.123364	0.367516
C11	C	1.255559	-0.000019	0.191948
C12	C	1.116115	-0.000017	0.188258
N13	N	1.485066	-0.351073	0.184780
C14	C	1.050595	-0.134483	0.186523
C15	C	0.919576	-0.134484	0.183036
C16	C	0.919607	0.134461	0.183023
C17	C	1.050625	0.134460	0.186501
C18	C	1.382503	-0.586105	0.286688
C19	C	1.382730	-0.414214	0.287069
C20	C	1.616363	-0.413414	0.214544
C21	C	1.615803	-0.585359	0.215265
C22	C	1.457635	-0.585615	0.052775
C23	C	1.454622	-0.413661	0.053632
C24	C	1.714634	-0.000023	0.177602
C25	C	1.854078	-0.000015	0.181292
N26	N	1.485137	0.351028	0.184760
C27	C	1.492266	-0.000018	-0.044762
C28	C	1.488574	-0.000008	-0.184206
C29	C	1.483372	0.134447	-0.380748
C30	C	1.486854	0.134456	-0.249728
C31	C	1.486824	-0.134489	-0.249712
C32	C	1.483352	-0.134497	-0.380730
C33	C	1.477927	-0.000024	0.414312
C34	C	1.481619	-0.000025	0.553755
H35	H	0.866236	-0.243980	0.181624
C36	C	1.837769	-0.415690	0.146220
C37	C	1.721991	-0.358197	0.117068
H38	H	1.902976	-0.381604	0.086036
H39	H	1.854106	-0.383500	0.227961
H40	H	1.834749	-0.520960	0.144412
H41	H	1.725009	-0.252926	0.118885
H42	H	1.705651	-0.390379	0.035306
H43	H	1.640961	-0.370337	0.309745
C44	C	1.037505	0.400312	0.186154
C45	C	1.122654	0.282278	0.188414
H46	H	1.081975	0.491562	0.187340
H47	H	0.995350	0.394723	0.111694
H48	H	0.977453	0.394713	0.257912
H49	H	1.182700	0.287871	0.116651
H50	H	1.164830	0.287870	0.262883
H51	H	1.532467	-0.626268	-0.023089
C52	C	1.300814	-0.725101	0.468727
C53	C	1.406049	-0.644409	0.418133
H54	H	1.315361	-0.761103	0.549870
H55	H	1.228727	-0.662597	0.475654
H56	H	1.287001	-0.806345	0.414976
H57	H	1.419858	-0.563158	0.471879
H58	H	1.478158	-0.706916	0.411213
H59	H	1.285172	-0.372068	0.269168
C60	C	1.311127	-0.410932	0.507715
C61	C	1.406599	-0.358662	0.419257
H62	H	1.325874	-0.376645	0.589326
H63	H	1.231859	-0.375318	0.486822
H64	H	1.310915	-0.516288	0.507003
H65	H	1.406804	-0.253305	0.419964
H66	H	1.485887	-0.394268	0.440157
H67	H	0.866269	0.243948	0.181594
H68	H	1.284639	-0.627497	0.269062
H69	H	1.481960	0.243943	-0.434086
H70	H	1.488233	-0.243972	-0.196354
H71	H	1.639863	-0.625448	0.311555
H72	H	1.694621	-0.626942	0.144014
H73	H	1.363918	-0.629062	0.024437
H74	H	1.481928	-0.244006	-0.434059
H75	H	1.358033	-0.372918	0.031071
H76	H	1.524425	-0.370686	-0.025858
C77	C	1.486515	0.400291	-0.262911
C78	C	1.488772	0.282271	-0.177734
H79	H	1.487692	0.491548	-0.218462
H80	H	1.558263	0.394697	-0.322954
H81	H	1.412044	0.394677	-0.305070
H82	H	1.563247	0.287878	-0.135581
H83	H	1.417017	0.287867	-0.117669
H84	H	1.103914	-0.243983	0.187954
