data_functionalizedCrystal
_audit_creation_method	'MofGen! by Chris Wilmer'
_symmetry_space_group_name_H-M	'P1'
_symmetry_Int_Tables_number	1
_symmetry_cell_setting	triclinic
loop_
_symmetry_equiv_pos_as_xyz
  x,y,z
_cell_length_a	10.686220
_cell_length_b	19.121459
_cell_length_c	10.686551
_cell_angle_alpha	82.976666
_cell_angle_beta	90.307919
_cell_angle_gamma	92.155268
loop_
_atom_site_label
_atom_site_type_symbol
_atom_site_fract_x
_atom_site_fract_y
_atom_site_fract_z
Zn1	Zn	1.984281	-0.171312	-0.548339
Zn2	Zn	1.976955	-0.298499	-0.328148
Zn3	Zn	1.759658	-0.189288	-0.353182
Zn4	Zn	1.783286	-0.297075	-0.554041
O5	O	1.876045	-0.239043	-0.445927
O6	O	2.158366	-0.181256	-0.506267
O7	O	1.935176	-0.292130	-0.155257
O8	O	1.782632	-0.088566	-0.387160
O9	O	2.152984	-0.274700	-0.344493
O10	O	1.947661	-0.075359	-0.530542
O11	O	1.775528	-0.211894	-0.173649
O12	O	1.587735	-0.210513	-0.392689
O13	O	1.822902	-0.272273	-0.729497
O14	O	1.605094	-0.289704	-0.540260
O15	O	1.970572	-0.179876	-0.725307
O16	O	1.958087	-0.396647	-0.350022
O17	O	1.815799	-0.395601	-0.515986
C18	C	1.551024	-0.251905	-0.469811
C19	C	1.411983	-0.257423	-0.480056
C20	C	1.888748	-0.421619	-0.430931
C21	C	1.894300	-0.499719	-0.424549
C22	C	1.929444	-0.941465	-0.384089
C23	C	1.924216	-0.868082	-0.390089
C24	C	1.847460	-0.830879	-0.479440
C25	C	1.775917	-0.867063	-0.562788
C26	C	1.781138	-0.940445	-0.556781
C27	C	1.827978	-0.609286	-0.501891
C28	C	1.822765	-0.535899	-0.507893
C29	C	1.971063	-0.536922	-0.335192
C30	C	1.976284	-0.610306	-0.329199
C31	C	1.904736	-0.646484	-0.412542
C32	C	1.842118	-0.755869	-0.485578
C33	C	1.910072	-0.721493	-0.406398
C34	C	2.202334	-0.226132	-0.421952
C35	C	2.341380	-0.220629	-0.411735
C36	C	1.900190	-0.223910	-0.774369
C37	C	1.910479	-0.217462	-0.914331
C38	C	1.863328	-0.055752	-0.461007
C39	C	1.857909	0.022356	-0.467434
C40	C	1.852062	-0.254064	-0.118762
C41	C	1.842001	-0.260305	0.021201
H42	H	1.366058	-0.293147	-0.546386
N43	N	2.054699	-0.648288	-0.237915
N44	N	2.037383	-0.645793	-0.122985
H45	H	2.092774	-0.672615	-0.058519
H46	H	1.982464	-0.838625	-0.322223
N47	N	1.399006	-0.175822	-0.328508
N48	N	1.515662	-0.171255	-0.320013
H49	H	1.556364	-0.139611	-0.261234
H50	H	1.991954	-0.971750	-0.311336
H51	H	2.029313	-0.507459	-0.267337
H52	H	1.976988	-0.175848	-0.966219
H53	H	1.760258	-0.505611	-0.580659
N54	N	1.754885	-0.646233	-0.587015
N55	N	1.638261	-0.643052	-0.587720
H56	H	1.586633	-0.669147	-0.647844
N57	N	1.697504	-0.829054	-0.654039
N58	N	1.692849	-0.763535	-0.659391
H59	H	1.637469	-0.736690	-0.723839
H60	H	1.722894	-0.969901	-0.624655
N61	N	1.988453	-0.759495	-0.315114
N62	N	1.941506	-0.805917	-0.234717
H63	H	1.996864	-0.832762	-0.170248
H64	H	1.779623	-0.725572	-0.558331
H65	H	1.775505	-0.301920	-0.926917
