data_functionalizedCrystal
_audit_creation_method	'MofGen! by Chris Wilmer'
_symmetry_space_group_name_H-M	'P1'
_symmetry_Int_Tables_number	1
_symmetry_cell_setting	triclinic
loop_
_symmetry_equiv_pos_as_xyz
  x,y,z
_cell_length_a	18.101395
_cell_length_b	18.215407
_cell_length_c	18.215399
_cell_angle_alpha	90.018561
_cell_angle_beta	89.973573
_cell_angle_gamma	89.977160
loop_
_atom_site_label
_atom_site_type_symbol
_atom_site_fract_x
_atom_site_fract_y
_atom_site_fract_z
Zn1	Zn	-0.295001	-1.125040	-0.416099
Zn2	Zn	-0.418847	-1.124935	-0.293036
Zn3	Zn	-0.295006	-1.001973	-0.293049
Zn4	Zn	-0.418787	-1.001925	-0.416063
O5	O	-0.356910	-1.063468	-0.354562
O6	O	-0.311452	-1.228010	-0.399783
O7	O	-0.402447	-1.108600	-0.190053
O8	O	-0.191372	-1.018362	-0.309392
O9	O	-0.402441	-1.227933	-0.309369
O10	O	-0.191368	-1.108779	-0.399796
O11	O	-0.311461	-1.018260	-0.190063
O12	O	-0.311403	-0.898982	-0.309358
O13	O	-0.402339	-1.018281	-0.519052
O14	O	-0.402344	-0.898947	-0.399736
O15	O	-0.311394	-1.108733	-0.519078
O16	O	-0.522472	-1.108554	-0.309335
O17	O	-0.522428	-1.018179	-0.399723
C18	C	-0.356868	-0.872262	-0.354545
C19	C	-0.356868	-0.790463	-0.354555
C20	C	-0.309597	-0.525440	-0.401708
C21	C	-0.309589	-0.602299	-0.401707
C22	C	-0.404198	-0.602238	-0.307418
C23	C	-0.404210	-0.525380	-0.307424
C24	C	-0.356905	-0.486984	-0.354568
C25	C	-0.356885	-0.640700	-0.354561
C26	C	-0.356877	-0.724033	-0.354559
C27	C	-0.356914	-0.403645	-0.354570
C28	C	-0.549321	-1.063370	-0.354540
C29	C	-0.631635	-1.063395	-0.354555
C30	C	-0.930726	-1.063556	-0.354595
C31	C	-0.899404	-1.006827	-0.411606
C32	C	-0.813786	-1.006557	-0.411427
C33	C	-0.782343	-1.063476	-0.354576
C34	C	-0.813490	-1.042478	-0.277015
C35	C	-0.899135	-1.042113	-0.277356
C36	C	-0.899081	-1.141408	-0.374462
C37	C	-0.813430	-1.140950	-0.376163
C38	C	-0.698484	-1.063432	-0.354560
C39	C	-1.014585	-1.063599	-0.354605
C40	C	-0.163748	-1.063587	-0.354599
C41	C	-0.081434	-1.063638	-0.354615
C42	C	-0.356859	-1.063513	-0.546515
C43	C	-0.356837	-1.063532	-0.628313
C44	C	-0.356940	-0.255421	-0.354576
C45	C	-0.356922	-0.337220	-0.354573
C46	C	-0.309438	-1.110647	-0.816522
C47	C	-0.309416	-1.110656	-0.893381
C48	C	-0.404122	-1.016469	-0.893343
C49	C	-0.404140	-1.016457	-0.816485
C50	C	-0.356798	-1.063550	-0.778077
C51	C	-0.356759	-1.063571	-0.931793
C52	C	-0.356736	-1.063580	-1.015127
C53	C	-0.356820	-1.063541	-0.694738
C54	C	-0.356907	-1.063466	-0.163355
C55	C	-0.356721	-1.063589	-0.081557
H56	H	-0.271078	-0.494180	-0.440095
N57	N	-0.786712	-0.930124	-0.393991
H58	H	-0.830414	-0.896476	-0.386386
H59	H	-0.755857	-0.931446	-0.347828
N60	N	-0.258562	-0.643779	-0.452548
H61	H	-0.288696	-0.675669	-0.486602
H62	H	-0.228608	-0.607744	-0.482363
H63	H	-0.442706	-0.978100	-0.785182
H64	H	-0.919170	-0.985204	-0.260527
H65	H	-0.442738	-0.494068	-0.269036
N66	N	-0.785880	-1.023953	-0.487605
H67	H	-0.829214	-1.031866	-0.521603
H68	H	-0.754990	-0.981685	-0.506162
N69	N	-0.455214	-0.643651	-0.256568
H70	H	-0.448026	-0.698176	-0.263714
H71	H	-0.443621	-0.630196	-0.204030
N72	N	-0.926628	-1.024043	-0.488034
H73	H	-0.909871	-1.074908	-0.502568
H74	H	-0.982367	-1.021723	-0.488927
N75	N	-0.927976	-0.930850	-0.394400
H76	H	-0.983711	-0.930742	-0.396970
H77	H	-0.911717	-0.916203	-0.343428
N78	N	-0.926592	-1.094465	-0.219172
H79	H	-0.883058	-1.117675	-0.193414
H80	H	-0.957572	-1.066698	-0.182323
N81	N	-0.258379	-1.161441	-0.775098
H82	H	-0.288494	-1.195525	-0.743216
H83	H	-0.228388	-1.191227	-0.811169
H84	H	-0.792023	-1.185453	-0.337666
H85	H	-0.793070	-1.156785	-0.433243
N86	N	-0.927626	-1.166773	-0.448099
H87	H	-0.961365	-1.128050	-0.469328
H88	H	-0.884640	-1.175153	-0.482466
H89	H	-0.793125	-1.082498	-0.233380
N90	N	-0.785156	-0.967896	-0.254315
H91	H	-0.752152	-0.947604	-0.294153
H92	H	-0.828283	-0.933610	-0.246345
H93	H	-0.919336	-1.183674	-0.332939
H94	H	-0.270849	-1.149006	-0.924680
H95	H	-0.442667	-0.978129	-0.924624
