data_functionalizedCrystal
_audit_creation_method	'MofGen! by Chris Wilmer'
_symmetry_space_group_name_H-M	'P1'
_symmetry_Int_Tables_number	1
_symmetry_cell_setting	triclinic
loop_
_symmetry_equiv_pos_as_xyz
  x,y,z
_cell_length_a	14.519709
_cell_length_b	14.971486
_cell_length_c	14.048226
_cell_angle_alpha	90.006640
_cell_angle_beta	90.000842
_cell_angle_gamma	83.647137
loop_
_atom_site_label
_atom_site_type_symbol
_atom_site_fract_x
_atom_site_fract_y
_atom_site_fract_z
O1	O	-1.223800	-0.117253	-0.079037
O2	O	-0.955315	-0.131060	-0.079066
O3	O	-1.096753	0.006039	-0.079044
O4	O	-1.082361	-0.254353	-0.079059
O5	O	-1.096736	0.006048	0.079277
O6	O	-0.955298	-0.131052	0.079255
O7	O	-1.223783	-0.117245	0.079284
Zn8	Zn	-1.089538	-0.124147	0.104407
Zn9	Zn	-1.089560	-0.124158	-0.104189
O10	O	-1.082344	-0.254344	0.079262
C11	C	-1.096101	0.039369	0.000116
C12	C	-1.094172	0.138667	0.000115
C13	C	-0.920947	-0.130413	0.000091
C14	C	-0.818567	-0.128485	0.000080
C15	C	-1.258151	-0.117892	0.000125
C16	C	-1.360531	-0.119820	0.000130
C17	C	-0.443675	-0.121386	0.000123
C18	C	-0.547982	-0.123357	0.000111
C19	C	-0.631118	-0.124935	0.000101
C20	C	-0.735431	-0.126907	0.000090
C21	C	-1.082996	-0.287674	0.000100
C22	C	-1.084925	-0.386972	0.000094
N23	N	-1.089529	-0.124139	0.246767
C24	C	-1.177264	0.195845	0.000125
C25	C	-1.175446	0.289146	0.000115
C26	C	-1.090536	0.325266	0.000102
C27	C	-1.007438	0.268080	0.000090
C28	C	-1.009257	0.174781	0.000093
C29	C	-1.003653	0.462545	0.000086
C30	C	-1.001834	0.555850	0.000085
C31	C	-1.169842	0.576909	0.000108
C32	C	-1.171661	0.483610	0.000111
C33	C	-1.088563	0.426431	0.000100
N34	N	-1.089576	-0.124159	-0.246549
C35	C	-1.152178	-0.063457	0.296595
C36	C	-1.152184	-0.063456	0.396253
C37	C	-1.089545	-0.124143	0.446081
C38	C	-1.026890	-0.184829	0.396246
C39	C	-1.026880	-0.184824	0.296590
C40	C	-1.026916	-0.184835	0.603960
C41	C	-1.026927	-0.184841	0.703623
C42	C	-1.152220	-0.063467	0.703623
C43	C	-1.152211	-0.063463	0.603967
C44	C	-1.089556	-0.124150	0.554139
H45	H	-1.243107	0.335698	0.000125
H46	H	-0.975919	-0.234258	0.744188
H47	H	-0.975883	-0.234239	0.436822
N48	N	-0.959303	-0.250274	0.242849
H49	H	-0.969988	-0.313783	0.260176
H50	H	-0.968830	-0.240984	0.172174
H51	H	-1.203197	-0.014043	0.436822
N52	N	-1.219773	0.001993	0.550228
H53	H	-1.184486	0.041674	0.508891
H54	H	-1.260617	-0.032341	0.508925
H55	H	-0.941595	0.128227	0.000085
N56	N	-0.914034	0.400860	0.000097
H57	H	-0.911043	0.361666	-0.058586
H58	H	-0.860012	0.437951	0.000135
H59	H	-1.203235	-0.014054	0.744199
H60	H	-0.932692	0.585255	0.000090
N61	N	-1.219744	0.001994	0.242855
H62	H	-1.259431	0.040437	0.289547
H63	H	-1.184396	0.041617	0.201518
N64	N	-1.268846	0.156891	0.000148
H65	H	-1.321208	0.207274	0.000151
H66	H	-1.273269	0.118631	-0.058541
N67	N	-1.263240	0.444649	0.000136
H68	H	-1.315606	0.495027	0.000142
H69	H	-1.267660	0.406388	-0.058553
N70	N	-1.259470	0.638578	0.000113
H71	H	-1.313535	0.601539	0.000128
H72	H	-1.262363	0.677754	0.058803
N73	N	-0.959336	-0.250285	0.550214
H74	H	-0.919658	-0.288734	0.596900
H75	H	-0.994679	-0.289903	0.508854
N76	N	-0.915859	0.307041	0.000079
H77	H	-0.879445	0.286204	0.058765
H78	H	-0.879530	0.286186	-0.058653
