data_functionalizedCrystal
_audit_creation_method	'MofGen! by Chris Wilmer'
_symmetry_space_group_name_H-M	'P1'
_symmetry_Int_Tables_number	1
_symmetry_cell_setting	triclinic
loop_
_symmetry_equiv_pos_as_xyz
  x,y,z
_cell_length_a	23.532355
_cell_length_b	22.610064
_cell_length_c	23.532407
_cell_angle_alpha	89.999397
_cell_angle_beta	97.161912
_cell_angle_gamma	90.002356
loop_
_atom_site_label
_atom_site_type_symbol
_atom_site_fract_x
_atom_site_fract_y
_atom_site_fract_z
O1	O	0.755283	0.049110	-0.068986
O2	O	1.088616	0.382443	0.264347
O3	O	1.421949	0.715777	0.597680
O4	O	0.589415	0.049130	-0.079020
O5	O	0.922748	0.382463	0.254313
O6	O	1.256082	0.715796	0.587646
O7	O	0.677351	0.049108	0.008929
O8	O	1.010684	0.382442	0.342263
O9	O	1.344017	0.715775	0.675596
O10	O	0.667347	0.049131	-0.156936
O11	O	1.000680	0.382465	0.176397
O12	O	1.334014	0.715798	0.509731
O13	O	0.677335	-0.049261	0.008916
O14	O	1.010668	0.284073	0.342250
O15	O	1.344002	0.617406	0.675583
O16	O	0.589400	-0.049239	-0.079033
O17	O	0.922733	0.284094	0.254300
O18	O	1.256066	0.617427	0.587633
O19	O	0.755267	-0.049259	-0.068999
O20	O	1.088600	0.284074	0.264334
O21	O	1.421934	0.617408	0.597667
Zn22	Zn	0.672331	-0.064868	-0.074018
Zn23	Zn	1.005664	0.268466	0.259315
Zn24	Zn	1.338998	0.601799	0.592648
Zn25	Zn	0.672351	0.064738	-0.074001
Zn26	Zn	1.005685	0.398071	0.259332
Zn27	Zn	1.339018	0.731405	0.592665
O28	O	0.667332	-0.049238	-0.156949
O29	O	1.000665	0.284095	0.176384
O30	O	1.333998	0.617429	0.509718
C31	C	0.568191	-0.000052	-0.078776
C32	C	0.901524	0.333281	0.254557
C33	C	1.234857	0.666614	0.587891
C34	C	0.504972	-0.000045	-0.078022
C35	C	0.838305	0.333288	0.255311
C36	C	1.171639	0.666621	0.588645
N37	N	0.672321	-0.153320	-0.074029
N38	N	1.005654	0.180013	0.259304
N39	N	1.338988	0.513347	0.592637
C40	C	0.112950	-0.053692	-0.073291
C41	C	0.446283	0.279641	0.260042
C42	C	0.779616	0.612975	0.593376
C43	C	0.053550	-0.053694	-0.072573
C44	C	0.386884	0.279639	0.260760
C45	C	0.720217	0.612972	0.594093
O46	O	0.022825	-0.099296	-0.072189
O47	O	0.356158	0.234037	0.261144
O48	O	0.689491	0.567370	0.594478
N49	N	0.023850	-0.000074	-0.072211
N50	N	0.357184	0.333260	0.261123
N51	N	0.690517	0.666593	0.594456
C52	C	0.053554	0.053553	-0.072560
C53	C	0.386887	0.386887	0.260774
C54	C	0.720220	0.720220	0.594107
O55	O	0.022837	0.099162	-0.072185
O56	O	0.356171	0.432495	0.261149
O57	O	0.689504	0.765828	0.594482
C58	C	0.112953	0.053555	-0.073273
C59	C	0.446286	0.386888	0.260060
C60	C	0.779619	0.720222	0.593394
C61	C	0.142649	-0.000069	-0.073641
C62	C	0.475982	0.333264	0.259692
C63	C	0.809315	0.666597	0.593025
C64	C	0.142646	-0.107312	-0.073659
C65	C	0.475979	0.226021	0.259675
C66	C	0.809313	0.559355	0.593008
C67	C	0.202041	-0.107309	-0.074377
C68	C	0.535375	0.226024	0.258956
C69	C	0.868708	0.559357	0.592289
C70	C	0.231740	-0.053687	-0.074728
C71	C	0.565073	0.279647	0.258605
C72	C	0.898407	0.612980	0.591939
C73	C	0.202044	-0.000067	-0.074360
C74	C	0.535377	0.333267	0.258973
C75	C	0.868711	0.666600	0.592307
C76	C	0.142655	0.107181	-0.073618
C77	C	0.475989	0.440514	0.259716
C78	C	0.809322	0.773848	0.593049
C79	C	0.202058	0.107178	-0.074331
C80	C	0.535392	0.440511	0.259003
C81	C	0.868725	0.773845	0.592336
C82	C	0.231754	0.053554	-0.074699
C83	C	0.565088	0.386887	0.258634
C84	C	0.898421	0.720221	0.591967
C85	C	0.291138	0.053558	-0.075429
C86	C	0.624471	0.386892	0.257904
C87	C	0.957805	0.720225	0.591238
N88	N	0.320838	-0.000062	-0.075792
N89	N	0.654171	0.333271	0.257542
N90	N	0.987505	0.666604	0.590875
C91	C	0.291139	-0.053685	-0.075441
C92	C	0.624472	0.279648	0.257892
C93	C	0.957806	0.612982	0.591225
C94	C	-0.071188	0.053545	-0.071061
C95	C	0.262145	0.386879	0.262273
C96	C	0.595479	0.720212	0.595606
C97	C	-0.130586	0.053544	-0.070351
C98	C	0.202747	0.386878	0.262982
C99	C	0.536080	0.720211	0.596315
C100	C	-0.130585	-0.053703	-0.070364
C101	C	0.202748	0.279630	0.262969
C102	C	0.536081	0.612963	0.596303
C103	C	-0.071186	-0.053702	-0.071077
C104	C	0.262147	0.279632	0.262256
C105	C	0.595480	0.612965	0.595589
C106	C	-0.041488	-0.000075	-0.071423
C107	C	0.291846	0.333258	0.261910
C108	C	0.625179	0.666591	0.595243
C109	C	0.415873	-0.053675	-0.076951
C110	C	0.749206	0.279658	0.256383
C111	C	1.082540	0.612991	0.589716
C112	C	0.475273	-0.053668	-0.077671
C113	C	0.808607	0.279665	0.255662
C114	C	1.141940	0.612999	0.588995
C115	C	0.475267	0.053579	-0.077656
C116	C	0.808601	0.386913	0.255678
C117	C	1.141934	0.720246	0.589011
C118	C	0.415872	0.053572	-0.076938
C119	C	0.749205	0.386906	0.256396
C120	C	1.082539	0.720239	0.589729
C121	C	0.386177	-0.000060	-0.076583
C122	C	0.719510	0.333273	0.256750
C123	C	1.052843	0.666607	0.590083
O124	O	0.321902	0.099137	-0.075812
O125	O	0.655235	0.432471	0.257522
O126	O	0.988568	0.765804	0.590855
O127	O	0.321864	-0.099286	-0.075809
O128	O	0.655197	0.234048	0.257525
O129	O	0.988530	0.567381	0.590858
C130	C	0.711291	-0.561971	-0.035063
C131	C	1.044624	-0.228637	0.298270
C132	C	1.377958	0.104696	0.631603
C133	C	0.711294	-0.623891	-0.035059
C134	C	1.044627	-0.290557	0.298274
C135	C	1.377961	0.042776	0.631608
O136	O	0.744403	-0.655917	-0.001937
O137	O	1.077736	-0.322584	0.331396
O138	O	1.411070	0.010749	0.664730
N139	N	0.672351	-0.654857	-0.073990
N140	N	1.005684	-0.321524	0.259344
N141	N	1.339018	0.011810	0.592677
C142	C	0.633399	-0.623900	-0.112923
C143	C	0.966732	-0.290567	0.220410
C144	C	1.300065	0.042766	0.553744
O145	O	0.600275	-0.655926	-0.146036
O146	O	0.933608	-0.322592	0.187298
O147	O	1.266941	0.010741	0.520631
C148	C	0.633394	-0.561982	-0.112924
C149	C	0.966727	-0.228648	0.220409
C150	C	1.300060	0.104685	0.553743
C151	C	0.672343	-0.531018	-0.073995
C152	C	1.005676	-0.197685	0.259339
C153	C	1.339010	0.135648	0.592672
C154	C	0.750237	-0.531007	0.003863
C155	C	1.083570	-0.197674	0.337197
C156	C	1.416903	0.135659	0.670530
C157	C	0.750234	-0.469092	0.003858
C158	C	1.083568	-0.135759	0.337192
C159	C	1.416901	0.197575	0.670525
C160	C	0.711286	-0.438139	-0.035073
C161	C	1.044620	-0.104806	0.298260
C162	C	1.377953	0.228527	0.631593
C163	C	0.672340	-0.469103	-0.074000
C164	C	1.005674	-0.135769	0.259334
C165	C	1.339007	0.197564	0.592667
C166	C	0.594439	-0.531026	-0.151854
C167	C	0.927772	-0.197693	0.181479
C168	C	1.261106	0.135641	0.514813
C169	C	0.594437	-0.469103	-0.151851
C170	C	0.927770	-0.135770	0.181482
C171	C	1.261104	0.197564	0.514815
C172	C	0.633386	-0.438140	-0.112922
C173	C	0.966720	-0.104807	0.220411
C174	C	1.300053	0.228527	0.553744
C175	C	0.633390	-0.376235	-0.112936
C176	C	0.966723	-0.042901	0.220397
C177	C	1.300057	0.290432	0.553730
N178	N	0.672333	-0.345268	-0.074006
N179	N	1.005666	-0.011935	0.259328
N180	N	1.339000	0.321398	0.592661
C181	C	0.711281	-0.376221	-0.035074
C182	C	1.044614	-0.042887	0.298259
C183	C	1.377948	0.290446	0.631593
C184	C	0.633412	-0.753934	-0.112917
C185	C	0.966745	-0.420601	0.220416
C186	C	1.300079	-0.087267	0.553749
C187	C	0.633419	-0.815852	-0.112919
C188	C	0.966753	-0.482518	0.220414
C189	C	1.300086	-0.149185	0.553747
C190	C	0.711314	-0.815838	-0.035055
C191	C	1.044647	-0.482504	0.298279
C192	C	1.377981	-0.149171	0.631612
C193	C	0.711309	-0.753919	-0.035056
C194	C	1.044642	-0.420586	0.298278
C195	C	1.377975	-0.087252	0.631611
C196	C	0.672355	-0.722968	-0.073987
C197	C	1.005688	-0.389634	0.259347
C198	C	1.339021	-0.056301	0.592680
C199	C	0.711273	-0.246193	-0.035088
C200	C	1.044607	0.087140	0.298245
C201	C	1.377940	0.420473	0.631579
C202	C	0.711269	-0.184272	-0.035098
C203	C	1.044602	0.149061	0.298235
C204	C	1.377936	0.482394	0.631569
C205	C	0.633373	-0.184292	-0.112960
C206	C	0.966706	0.149042	0.220373
C207	C	1.300040	0.482375	0.553706
C208	C	0.633379	-0.246207	-0.112953
C209	C	0.966712	0.087126	0.220381
C210	C	1.300046	0.420459	0.553714
C211	C	0.672331	-0.277157	-0.074012
C212	C	1.005665	0.056177	0.259322
C213	C	1.338998	0.389510	0.592655
O214	O	0.600296	-0.344169	-0.146040
O215	O	0.933629	-0.010835	0.187294
O216	O	1.266963	0.322498	0.520627
O217	O	0.744395	-0.344188	-0.001962
O218	O	1.077728	-0.010855	0.331371
O219	O	1.411061	0.322479	0.664705
C220	C	0.776491	-0.000076	-0.069244
C221	C	1.109825	0.333258	0.264090
C222	C	1.443158	0.666591	0.597423
C223	C	0.839710	-0.000079	-0.069998
C224	C	1.173043	0.333255	0.263336
C225	C	1.506377	0.666588	0.596669
C226	C	0.677088	-0.000078	0.030139
C227	C	1.010421	0.333256	0.363472
C228	C	1.343755	0.666589	0.696805
C229	C	0.676322	-0.000082	0.093356
C230	C	1.009656	0.333251	0.426689
C231	C	1.342989	0.666585	0.760022
N232	N	0.672366	0.153191	-0.073986
N233	N	1.005699	0.486524	0.259348
N234	N	1.339032	0.819857	0.592681
C235	C	0.667594	-0.000050	-0.178158
C236	C	1.000927	0.333283	0.155175
C237	C	1.334261	0.666616	0.488508
C238	C	0.668360	-0.000042	-0.241375
C239	C	1.001693	0.333291	0.091958
C240	C	1.335027	0.666625	0.425291
C241	C	0.723557	-0.000055	0.492468
C242	C	1.056890	0.333278	0.825801
C243	C	1.390224	0.666611	1.159134
C244	C	0.722845	-0.000051	0.551868
C245	C	1.056179	0.333283	0.885201
C246	C	1.389512	0.666616	1.218534
O247	O	0.766632	-0.000034	0.588620
O248	O	1.099966	0.333299	0.921954
O249	O	1.433299	0.666633	1.255287
N250	N	0.670568	-0.000045	0.574484
N251	N	1.003901	0.333288	0.907817
N252	N	1.337234	0.666622	1.241151
C253	C	0.618998	-0.000038	0.537697
C254	C	0.952332	0.333296	0.871030
C255	C	1.285665	0.666629	1.204364
O256	O	0.574467	-0.000032	0.562388
O257	O	0.907800	0.333302	0.895722
O258	O	1.241133	0.666635	1.229055
C259	C	0.619710	-0.000038	0.478298
C260	C	0.953044	0.333295	0.811631
C261	C	1.286377	0.666629	1.144965
C262	C	0.671991	-0.000050	0.455685
C263	C	1.005325	0.333284	0.789018
C264	C	1.338658	0.666617	1.122352
C265	C	0.775834	-0.000066	0.469854
C266	C	1.109167	0.333267	0.803187
C267	C	1.442500	0.666600	1.136521
C268	C	0.776545	-0.000072	0.410458
C269	C	1.109878	0.333261	0.743791
C270	C	1.443212	0.666595	1.077125
C271	C	0.724979	-0.000067	0.373676
C272	C	1.058313	0.333267	0.707009
C273	C	1.391646	0.666600	1.040342
C274	C	0.672703	-0.000055	0.396289
C275	C	1.006036	0.333278	0.729622
C276	C	1.339369	0.666611	1.062956
C277	C	0.568141	-0.000027	0.441512
C278	C	0.901475	0.333307	0.774845
C279	C	1.234808	0.666640	1.108179
C280	C	0.568858	-0.000026	0.382110
C281	C	0.902191	0.333307	0.715443
C282	C	1.235525	0.666640	1.048776
C283	C	0.621139	-0.000038	0.359497
C284	C	0.954472	0.333295	0.692830
C285	C	1.287806	0.666628	1.026163
C286	C	0.621848	-0.000056	0.300110
C287	C	0.955182	0.333278	0.633444
C288	C	1.288515	0.666611	0.966777
N289	N	0.674126	-0.000061	0.277494
N290	N	1.007459	0.333272	0.610827
N291	N	1.340793	0.666605	0.944161
C292	C	0.725691	-0.000067	0.314277
C293	C	1.059025	0.333266	0.647610
C294	C	1.392358	0.666600	0.980943
C295	C	0.617507	-0.000036	0.662439
C296	C	0.950840	0.333297	0.995772
C297	C	1.284173	0.666631	1.329106
C298	C	0.616794	-0.000040	0.721837
C299	C	0.950127	0.333294	1.055170
C300	C	1.283461	0.666627	1.388504
C301	C	0.720642	-0.000052	0.736004
C302	C	1.053975	0.333282	1.069337
C303	C	1.387308	0.666615	1.402670
C304	C	0.721354	-0.000052	0.676605
C305	C	1.054687	0.333281	1.009938
C306	C	1.388020	0.666615	1.343271
C307	C	0.669784	-0.000042	0.639823
C308	C	1.003118	0.333292	0.973156
C309	C	1.336451	0.666625	1.306489
C310	C	0.727181	-0.000079	0.189540
C311	C	1.060514	0.333254	0.522873
C312	C	1.393848	0.666587	0.856207
C313	C	0.727888	-0.000087	0.130138
C314	C	1.061221	0.333246	0.463472
C315	C	1.394554	0.666579	0.796805
C316	C	0.624041	-0.000072	0.115977
C317	C	0.957374	0.333261	0.449310
C318	C	1.290707	0.666594	0.782643
C319	C	0.623334	-0.000067	0.175373
C320	C	0.956667	0.333266	0.508707
C321	C	1.290000	0.666599	0.842040
C322	C	0.674909	-0.000069	0.212154
C323	C	1.008242	0.333264	0.545488
C324	C	1.341575	0.666598	0.878821
O325	O	0.578084	-0.000070	0.263323
O326	O	0.911418	0.333263	0.596656
O327	O	1.244751	0.666597	0.929990
O328	O	0.770216	-0.000065	0.289577
O329	O	1.103549	0.333268	0.622910
O330	O	1.436882	0.666602	0.956244
H331	H	0.499449	-0.097337	-0.077973
H332	H	0.832782	0.235996	0.255360
H333	H	1.166116	0.569329	0.588693
H334	H	0.574222	-0.000040	0.740243
H335	H	0.907555	0.333293	1.073576
H336	H	1.240888	0.666626	1.406909
H337	H	0.601709	-0.841058	-0.144625
H338	H	0.935043	-0.507724	0.188708
H339	H	1.268376	-0.174391	0.522042
H340	H	0.391701	-0.097348	-0.076667
H341	H	0.725035	0.235986	0.256666
H342	H	1.058368	0.569319	0.590000
H343	H	0.781953	-0.556203	0.035569
H344	H	1.115286	-0.222870	0.368902
H345	H	1.448619	0.110463	0.702235
H346	H	0.118487	0.150848	-0.073317
H347	H	0.451820	0.484181	0.260016
H348	H	0.785154	0.817514	0.593350
C349	C	0.510627	-0.000010	0.466372
C350	C	0.843961	0.333324	0.799705
C351	C	1.177294	0.666657	1.133039
N352	N	0.467304	0.000005	0.485095
N353	N	0.800637	0.333339	0.818429
N354	N	1.133971	0.666672	1.151762
C355	C	0.590583	-0.719893	-0.155773
C356	C	0.923916	-0.386560	0.177560
C357	C	1.257249	-0.053226	0.510893
N358	N	0.558331	-0.694257	-0.188060
N359	N	0.891664	-0.360923	0.145273
N360	N	1.224998	-0.027590	0.478607
C361	C	0.590536	-0.280268	-0.155780
C362	C	0.923870	0.053065	0.177553
C363	C	1.257203	0.386399	0.510887
N364	N	0.558263	-0.305918	-0.188034
N365	N	0.891596	0.027415	0.145299
N366	N	1.224929	0.360748	0.478632
H367	H	0.575510	-0.000033	0.632494
H368	H	0.908844	0.333301	0.965827
H369	H	1.242177	0.666634	1.299160
H370	H	0.226215	-0.150976	-0.074674
H371	H	0.559548	0.182358	0.258660
H372	H	0.892882	0.515691	0.591993
H373	H	0.601663	-0.159081	-0.144660
H374	H	0.934997	0.174253	0.188674
H375	H	1.268330	0.507586	0.522007
H376	H	0.118472	-0.150980	-0.073372
H377	H	0.451805	0.182353	0.259961
H378	H	0.785138	0.515686	0.593295
H379	H	0.526863	-0.000017	0.352164
H380	H	0.860196	0.333316	0.685497
H381	H	1.193530	0.666649	1.018830
H382	H	0.769178	-0.000078	0.219481
H383	H	1.102512	0.333255	0.552814
H384	H	1.435845	0.666588	0.886147
C385	C	0.234723	0.166173	-0.074713
C386	C	0.568056	0.499506	0.258620
C387	C	0.901389	0.832840	0.591954
N388	N	0.259324	0.210608	-0.075003
N389	N	0.592657	0.543941	0.258330
N390	N	0.925991	0.877274	0.591664
C391	C	0.793076	-0.435040	0.046690
C392	C	1.126409	-0.101707	0.380023
C393	C	1.459743	0.231626	0.713357
N394	N	0.825344	-0.409397	0.078956
N395	N	1.158677	-0.076063	0.412289
N396	N	1.492011	0.257270	0.745622
H397	H	0.580762	-0.000074	0.193785
H398	H	0.914096	0.333259	0.527119
H399	H	1.247429	0.666592	0.860452
C400	C	0.383205	0.112561	-0.076539
C401	C	0.716538	0.445895	0.256794
C402	C	1.049871	0.779228	0.590128
N403	N	0.358604	0.156993	-0.076233
N404	N	0.691937	0.490327	0.257100
N405	N	1.025271	0.823660	0.590433
H406	H	0.582057	-0.000070	0.086018
H407	H	0.915391	0.333263	0.419351
H408	H	1.248724	0.666596	0.752684
C409	C	0.754152	-0.719865	0.007773
C410	C	1.087485	-0.386532	0.341106
C411	C	1.420818	-0.053199	0.674439
N412	N	0.786422	-0.694219	0.040035
N413	N	1.119755	-0.360886	0.373368
N414	N	1.453088	-0.027552	0.706701
H415	H	0.743027	-0.841050	-0.003354
H416	H	1.076360	-0.507717	0.329980
H417	H	1.409694	-0.174384	0.663313
C418	C	-0.038525	-0.112692	-0.071477
C419	C	0.294808	0.220641	0.261856
C420	C	0.628141	0.553975	0.595189
N421	N	-0.013928	-0.157126	-0.071776
N422	N	0.319406	0.176207	0.261557
N423	N	0.652739	0.509540	0.594891
C424	C	0.507948	0.112561	-0.078037
C425	C	0.841281	0.445895	0.255296
C426	C	1.174615	0.779228	0.588629
N427	N	0.532566	0.156987	-0.078320
N428	N	0.865899	0.490320	0.255014
N429	N	1.199232	0.823654	0.588347
C430	C	0.785403	-0.000099	0.105268
C431	C	1.118737	0.333235	0.438602
C432	C	1.452070	0.666568	0.771935
N433	N	0.828723	-0.000106	0.086538
N434	N	1.162056	0.333228	0.419872
N435	N	1.495390	0.666561	0.753205
H436	H	0.763925	-0.000061	0.658198
H437	H	1.097259	0.333272	0.991531
H438	H	1.430592	0.666606	1.324864
H439	H	0.762629	-0.000054	0.765963
H440	H	1.095962	0.333279	1.099296
H441	H	1.429296	0.666613	1.432630
H442	H	0.742991	-0.271385	-0.003378
H443	H	1.076325	0.061948	0.329955
H444	H	1.409658	0.395281	0.663289
C445	C	-0.163265	-0.112690	-0.069972
C446	C	0.170069	0.220643	0.263361
C447	C	0.503402	0.553977	0.596694
N448	N	-0.187880	-0.157116	-0.069676
N449	N	0.145453	0.176218	0.263657
N450	N	0.478786	0.509551	0.596990
C451	C	-0.163246	0.112535	-0.069951
C452	C	0.170087	0.445868	0.263383
C453	C	0.503421	0.779202	0.596716
N454	N	-0.187843	0.156969	-0.069644
N455	N	0.145491	0.490303	0.263689
N456	N	0.478824	0.823636	0.597022
C457	C	-0.038526	0.112542	-0.071448
C458	C	0.294808	0.445876	0.261885
C459	C	0.628141	0.779209	0.595219
N460	N	-0.013928	0.156979	-0.071739
N461	N	0.319406	0.490312	0.261594
N462	N	0.652739	0.823646	0.594928
H463	H	0.562723	-0.556228	-0.183553
H464	H	0.896056	-0.222894	0.149780
H465	H	1.229390	0.110439	0.483113
C466	C	0.834059	-0.000079	0.385592
C467	C	1.167392	0.333255	0.718926
C468	C	1.500725	0.666588	1.052259
N469	N	0.877381	-0.000081	0.366867
N470	N	1.210714	0.333252	0.700201
N471	N	1.544048	0.666585	1.033534
H472	H	0.742988	-0.159064	-0.003397
H473	H	1.076322	0.174269	0.329936
H474	H	1.409655	0.507603	0.663270
H475	H	0.817827	-0.000069	0.499797
H476	H	1.151160	0.333265	0.833131
H477	H	1.484494	0.666598	1.166464
C478	C	0.551589	-0.435061	-0.194686
C479	C	0.884923	-0.101727	0.138648
C480	C	1.218256	0.231606	0.471981
N481	N	0.519320	-0.409421	-0.226952
N482	N	0.852653	-0.076088	0.106382
N483	N	1.185986	0.257246	0.439715
