data_functionalizedCrystal
_audit_creation_method	'MofGen! by Chris Wilmer'
_symmetry_space_group_name_H-M	'P1'
_symmetry_Int_Tables_number	1
_symmetry_cell_setting	triclinic
loop_
_symmetry_equiv_pos_as_xyz
  x,y,z
_cell_length_a	19.121215
_cell_length_b	19.121063
_cell_length_c	17.077396
_cell_angle_alpha	92.407870
_cell_angle_beta	87.536854
_cell_angle_gamma	95.002544
loop_
_atom_site_label
_atom_site_type_symbol
_atom_site_fract_x
_atom_site_fract_y
_atom_site_fract_z
Zn1	Zn	1.063732	-0.234334	-0.505852
Zn2	Zn	1.313732	0.015666	-0.255852
Zn3	Zn	1.563732	0.265666	-0.005852
Zn4	Zn	1.813732	0.515666	0.244148
Zn5	Zn	1.058624	-0.352010	-0.379943
Zn6	Zn	1.308624	-0.102010	-0.129943
Zn7	Zn	1.558624	0.147990	0.120057
Zn8	Zn	1.808624	0.397990	0.370057
Zn9	Zn	0.946068	-0.239368	-0.369214
Zn10	Zn	1.196068	0.010632	-0.119214
Zn11	Zn	1.446068	0.260632	0.130786
Zn12	Zn	1.696068	0.510632	0.380786
Zn13	Zn	0.941008	-0.356972	-0.505779
Zn14	Zn	1.191008	-0.106972	-0.255779
Zn15	Zn	1.441008	0.143028	-0.005779
Zn16	Zn	1.691008	0.393028	0.244221
O17	O	1.002358	-0.295671	-0.440197
O18	O	1.252358	-0.045671	-0.190197
O19	O	1.502358	0.204329	0.059803
O20	O	1.752358	0.454329	0.309803
O21	O	1.161521	-0.245761	-0.493670
O22	O	1.411521	0.004239	-0.243670
O23	O	1.661521	0.254239	0.006330
O24	O	1.911521	0.504239	0.256330
O25	O	1.043673	-0.337098	-0.268673
O26	O	1.293673	-0.087098	-0.018673
O27	O	1.543673	0.162902	0.231327
O28	O	1.793673	0.412902	0.481327
O29	O	0.965932	-0.140234	-0.382879
O30	O	1.215932	0.109766	-0.132879
O31	O	1.465932	0.359766	0.117121
O32	O	1.715932	0.609766	0.367121
O33	O	1.157767	-0.332217	-0.401165
O34	O	1.407767	-0.082217	-0.151165
O35	O	1.657767	0.167783	0.098835
O36	O	1.907767	0.417783	0.348835
O37	O	1.052380	-0.136536	-0.483267
O38	O	1.302380	0.113464	-0.233267
O39	O	1.552380	0.363464	0.016733
O40	O	1.802380	0.613464	0.266733
O41	O	0.960979	-0.254340	-0.260791
O42	O	1.210979	-0.004340	-0.010791
O43	O	1.460979	0.245660	0.239209
O44	O	1.710979	0.495660	0.489209
O45	O	0.846931	-0.259152	-0.382809
O46	O	1.096931	-0.009152	-0.132809
O47	O	1.346931	0.240848	0.117191
O48	O	1.596931	0.490848	0.367191
O49	O	0.957308	-0.340674	-0.615635
O50	O	1.207308	-0.090674	-0.365635
O51	O	1.457308	0.159326	-0.115635
O52	O	1.707308	0.409326	0.134365
O53	O	0.843213	-0.345555	-0.483143
O54	O	1.093213	-0.095555	-0.233143
O55	O	1.343213	0.154445	0.016857
O56	O	1.593213	0.404445	0.266857
O57	O	1.047473	-0.250572	-0.615689
O58	O	1.297473	-0.000572	-0.365689
O59	O	1.547473	0.249428	-0.115689
O60	O	1.797473	0.499428	0.134311
O61	O	1.038766	-0.451134	-0.401095
O62	O	1.288766	-0.201134	-0.151095
O63	O	1.538766	0.048866	0.098905
O64	O	1.788766	0.298866	0.348905
O65	O	0.952354	-0.454779	-0.493547
O66	O	1.202354	-0.204779	-0.243547
O67	O	1.452354	0.045221	0.006453
O68	O	1.702354	0.295221	0.256453
C69	C	0.819541	-0.303438	-0.431805
C70	C	1.069541	-0.053438	-0.181805
C71	C	1.319541	0.196562	0.068195
C72	C	1.569541	0.446562	0.318195
C73	C	0.741330	-0.306778	-0.428234
C74	C	0.991330	-0.056778	-0.178234
C75	C	1.241330	0.193222	0.071766
C76	C	1.491330	0.443222	0.321766
C77	C	0.298888	-0.327922	-0.405644
C78	C	0.548888	-0.077922	-0.155644
C79	C	0.798888	0.172078	0.094356
C80	C	1.048888	0.422078	0.344356
C81	C	0.372375	-0.324780	-0.408993
C82	C	0.622375	-0.074780	-0.158993
C83	C	0.872375	0.175220	0.091007
C84	C	1.122375	0.425220	0.341007
C85	C	0.411072	-0.278270	-0.458915
C86	C	0.661072	-0.028270	-0.208915
C87	C	0.911072	0.221730	0.041085
C88	C	1.161072	0.471730	0.291085
C89	C	0.376278	-0.234894	-0.505485
C90	C	0.626278	0.015106	-0.255485
C91	C	0.876278	0.265106	-0.005485
C92	C	1.126278	0.515106	0.244515
C93	C	0.302792	-0.238032	-0.502132
C94	C	0.552792	0.011968	-0.252132
C95	C	0.802792	0.261968	-0.002132
C96	C	1.052792	0.511968	0.247868
C97	C	0.633050	-0.266541	-0.471451
C98	C	0.883050	-0.016541	-0.221451
C99	C	1.133050	0.233459	0.028549
C100	C	1.383050	0.483459	0.278549
C101	C	0.706541	-0.263407	-0.474802
C102	C	0.956541	-0.013407	-0.224802
C103	C	1.206541	0.236593	0.025198
C104	C	1.456541	0.486593	0.275198
C105	C	0.702633	-0.353293	-0.378309
C106	C	0.952633	-0.103293	-0.128309
C107	C	1.202633	0.146707	0.121691
C108	C	1.452633	0.396707	0.371691
C109	C	0.629146	-0.356431	-0.374963
C110	C	0.879146	-0.106431	-0.124963
C111	C	1.129146	0.143569	0.125037
C112	C	1.379146	0.393569	0.375037
C113	C	0.594358	-0.313052	-0.421530
C114	C	0.844358	-0.063052	-0.171530
C115	C	1.094358	0.186948	0.078470
C116	C	1.344358	0.436948	0.328470
C117	C	0.486188	-0.275059	-0.462341
C118	C	0.736188	-0.025059	-0.212341
C119	C	0.986188	0.224941	0.037659
C120	C	1.236188	0.474941	0.287659
C121	C	0.519244	-0.316260	-0.418099
C122	C	0.769244	-0.066260	-0.168099
C123	C	1.019244	0.183740	0.081901
C124	C	1.269244	0.433740	0.331901
C125	C	0.994476	-0.478487	-0.448495
C126	C	1.244476	-0.228487	-0.198495
C127	C	1.494476	0.021513	0.051505
C128	C	1.744476	0.271513	0.301505
C129	C	0.991168	-0.556694	-0.452074
C130	C	1.241168	-0.306694	-0.202074
C131	C	1.491168	-0.056694	0.047926
C132	C	1.741168	0.193306	0.297926
C133	C	1.034639	-0.591512	-0.405664
C134	C	1.284639	-0.341512	-0.155664
C135	C	1.534639	-0.091512	0.094336
C136	C	1.784639	0.158488	0.344336
C137	C	1.031532	-0.664996	-0.409035
C138	C	1.281532	-0.414996	-0.159035
C139	C	1.531532	-0.164996	0.090965
C140	C	1.781532	0.085004	0.340965
C141	C	0.984950	-0.703659	-0.458813
C142	C	1.234950	-0.453659	-0.208813
C143	C	1.484950	-0.203659	0.041187
C144	C	1.734950	0.046341	0.291187
C145	C	0.941477	-0.668835	-0.505228
C146	C	1.191477	-0.418835	-0.255228
C147	C	1.441477	-0.168835	-0.005228
C148	C	1.691477	0.081165	0.244772
C149	C	0.944588	-0.595353	-0.501860
C150	C	1.194588	-0.345353	-0.251860
C151	C	1.444588	-0.095353	-0.001860
C152	C	1.694588	0.154647	0.248140
C153	C	0.973308	-0.925624	-0.471390
C154	C	1.223308	-0.675624	-0.221390
C155	C	1.473308	-0.425624	0.028610
C156	C	1.723308	-0.175624	0.278610
C157	C	0.970199	-0.999112	-0.474752
C158	C	1.220199	-0.749112	-0.224752
C159	C	1.470199	-0.499112	0.025248
C160	C	1.720199	-0.249112	0.275248
C161	C	1.060256	-0.995267	-0.378560
C162	C	1.310256	-0.745267	-0.128560
C163	C	1.560256	-0.495267	0.121440
C164	C	1.810256	-0.245267	0.371440
C165	C	1.063359	-0.921784	-0.375194
C166	C	1.313359	-0.671784	-0.125194
C167	C	1.563359	-0.421784	0.124806
C168	C	1.813359	-0.171784	0.374806
C169	C	1.019889	-0.886966	-0.421612
C170	C	1.269889	-0.636966	-0.171612
C171	C	1.519889	-0.386966	0.078388
C172	C	1.769889	-0.136966	0.328388
C173	C	0.981772	-0.778771	-0.462258
C174	C	1.231772	-0.528771	-0.212258
C175	C	1.481772	-0.278771	0.037742
C176	C	1.731772	-0.028771	0.287742
C177	C	1.023071	-0.811855	-0.418170
C178	C	1.273071	-0.561855	-0.168170
C179	C	1.523071	-0.311855	0.081830
C180	C	1.773071	-0.061855	0.331830
C181	C	1.185889	-0.287874	-0.448622
C182	C	1.435889	-0.037874	-0.198622
C183	C	1.685889	0.212126	0.051378
C184	C	1.935889	0.462126	0.301378
C185	C	1.264099	-0.284551	-0.452213
C186	C	1.514099	-0.034551	-0.202213
C187	C	1.764099	0.215449	0.047787
C188	C	2.014099	0.465449	0.297787
C189	C	1.002396	-0.295615	-0.644940
C190	C	1.252396	-0.045615	-0.394940
C191	C	1.502396	0.204385	-0.144940
C192	C	1.752396	0.454385	0.105060
C193	C	1.002412	-0.295591	-0.732190
C194	C	1.252412	-0.045591	-0.482190
C195	C	1.502412	0.204409	-0.232190
C196	C	1.752412	0.454409	0.017810
C197	C	1.010290	-0.112140	-0.431884
C198	C	1.260290	0.137860	-0.181884
C199	C	1.510290	0.387860	0.068116
C200	C	1.760290	0.637860	0.318116
C201	C	1.013671	-0.033930	-0.428342
C202	C	1.263671	0.216070	-0.178342
C203	C	1.513671	0.466070	0.071658
C204	C	1.763671	0.716070	0.321658
C205	C	0.959367	-0.252493	-0.769075
C206	C	1.209367	-0.002493	-0.519075
C207	C	1.459367	0.247507	-0.269075
C208	C	1.709367	0.497507	-0.019075
C209	C	0.959379	-0.252477	-0.851056
C210	C	1.209379	-0.002477	-0.601056
C211	C	1.459379	0.247523	-0.351056
C212	C	1.709379	0.497523	-0.101056
C213	C	1.002440	-0.295555	-0.896149
C214	C	1.252440	-0.045555	-0.646149
C215	C	1.502440	0.204445	-0.396149
C216	C	1.752440	0.454445	-0.146149
C217	C	1.045487	-0.338658	-0.859258
C218	C	1.295487	-0.088658	-0.609258
C219	C	1.545487	0.161342	-0.359258
C220	C	1.795487	0.411342	-0.109258
C221	C	1.045471	-0.338677	-0.777279
C222	C	1.295471	-0.088677	-0.527279
C223	C	1.545471	0.161323	-0.277279
C224	C	1.795471	0.411323	-0.027279
C225	C	1.045519	-0.338612	-1.030128
C226	C	1.295519	-0.088612	-0.780128
C227	C	1.545519	0.161388	-0.530128
C228	C	1.795519	0.411388	-0.280128
C229	C	1.045537	-0.338592	-1.112112
C230	C	1.295537	-0.088592	-0.862112
C231	C	1.545537	0.161408	-0.612112
C232	C	1.795537	0.411408	-0.362112
C233	C	0.959428	-0.252412	-1.103904
C234	C	1.209428	-0.002412	-0.853904
C235	C	1.459428	0.247588	-0.603904
C236	C	1.709428	0.497588	-0.353904
C237	C	0.959411	-0.252431	-1.021925
C238	C	1.209411	-0.002431	-0.771925
C239	C	1.459411	0.247569	-0.521925
C240	C	1.709411	0.497569	-0.271925
C241	C	1.002459	-0.295533	-0.985040
C242	C	1.252459	-0.045533	-0.735040
C243	C	1.502459	0.204467	-0.485040
C244	C	1.752459	0.454467	-0.235040
C245	C	1.002363	-0.295674	-0.236249
C246	C	1.252363	-0.045674	0.013751
C247	C	1.502363	0.204326	0.263751
C248	C	1.752363	0.454326	0.513751
C249	C	1.002492	-0.295494	-0.148998
C250	C	1.252492	-0.045494	0.101002
C251	C	1.502492	0.204506	0.351002
C252	C	1.752492	0.454506	0.601002
H253	H	0.597644	-0.394304	-0.334310
H254	H	0.847644	-0.144304	-0.084310
H255	H	1.097644	0.105696	0.165690
H256	H	1.347644	0.355696	0.415690
H257	H	0.738046	-0.225527	-0.515454
H258	H	0.988046	0.024473	-0.265454
H259	H	1.238046	0.274473	-0.015454
H260	H	1.488046	0.524473	0.234546
H261	H	0.937912	-0.897282	-0.509184
H262	H	1.187912	-0.647282	-0.259184
H263	H	1.437912	-0.397282	-0.009184
H264	H	1.687912	-0.147282	0.240816
H265	H	0.400697	-0.360097	-0.371071
H266	H	0.650697	-0.110097	-0.121071
H267	H	0.900697	0.139903	0.128929
H268	H	1.150697	0.389903	0.378929
H269	H	1.095648	-1.023623	-0.340770
H270	H	1.345648	-0.773623	-0.090770
H271	H	1.595648	-0.523623	0.159230
H272	H	1.845648	-0.273623	0.409230
H273	H	0.924377	-0.217316	-1.133940
H274	H	1.174377	0.032684	-0.883940
H275	H	1.424377	0.282684	-0.633940
H276	H	1.674377	0.532684	-0.383940
H277	H	0.903552	-0.700321	-0.545761
H278	H	1.153552	-0.450321	-0.295761
H279	H	1.403552	-0.200321	-0.045761
H280	H	1.653552	0.049679	0.204239
H281	H	0.909190	-0.567004	-0.539653
H282	H	1.159190	-0.317004	-0.289653
H283	H	1.409190	-0.067004	-0.039653
H284	H	1.659190	0.182996	0.210347
H285	H	0.274468	-0.202712	-0.540050
H286	H	0.524468	0.047288	-0.290050
H287	H	0.774468	0.297288	-0.040050
H288	H	1.024468	0.547288	0.209950
H289	H	1.080545	-0.373737	-0.895979
H290	H	1.330545	-0.123737	-0.645979
H291	H	1.580545	0.126263	-0.395979
H292	H	1.830545	0.376263	-0.145979
H293	H	0.924350	-0.217350	-0.985212
H294	H	1.174350	0.032650	-0.735212
H295	H	1.424350	0.282650	-0.485212
H296	H	1.674350	0.532650	-0.235212
N297	N	1.091981	-0.385052	-1.160751
N298	N	1.341981	-0.135052	-0.910751
N299	N	1.591981	0.114948	-0.660751
N300	N	1.841981	0.364948	-0.410751
H301	H	1.119246	-0.412364	-1.124947
H302	H	1.369246	-0.162364	-0.874947
H303	H	1.619246	0.087636	-0.624947
H304	H	1.869246	0.337636	-0.374947
H305	H	1.061935	-0.418819	-1.194927
H306	H	1.311935	-0.168819	-0.944927
H307	H	1.561935	0.081181	-0.694927
H308	H	1.811935	0.331181	-0.444927
H309	H	1.080580	-0.373704	-1.000098
H310	H	1.330580	-0.123704	-0.750098
H311	H	1.580580	0.126296	-0.500098
H312	H	1.830580	0.376296	-0.250098
N313	N	1.073308	-0.770156	-0.364480
N314	N	1.323308	-0.520156	-0.114480
N315	N	1.573308	-0.270156	0.135520
N316	N	1.823308	-0.020156	0.385520
H317	H	1.100377	-0.803361	-0.335585
H318	H	1.350377	-0.553361	-0.085585
H319	H	1.600377	-0.303361	0.164415
H320	H	1.850377	-0.053361	0.414415
H321	H	1.107146	-0.738235	-0.396558
H322	H	1.357146	-0.488235	-0.146558
H323	H	1.607146	-0.238235	0.103442
H324	H	1.857146	0.011765	0.353442
H325	H	1.080528	-0.373767	-0.747248
H326	H	1.330528	-0.123767	-0.497248
H327	H	1.580528	0.126233	-0.247248
H328	H	1.830528	0.376233	0.002752
N329	N	0.931524	-0.820471	-0.515940
N330	N	1.181524	-0.570471	-0.265940
N331	N	1.431524	-0.320471	-0.015940
N332	N	1.681524	-0.070471	0.234060
H333	H	0.958811	-0.849696	-0.555049
H334	H	1.208811	-0.599696	-0.305049
H335	H	1.458811	-0.349696	-0.055049
H336	H	1.708811	-0.099696	0.194951
H337	H	0.897658	-0.852352	-0.483850
H338	H	1.147658	-0.602352	-0.233850
H339	H	1.397658	-0.352352	0.016150
H340	H	1.647658	-0.102352	0.266150
H341	H	0.487734	-0.354127	-0.377451
H342	H	0.737734	-0.104127	-0.127451
H343	H	0.987734	0.145873	0.122549
H344	H	1.237734	0.395873	0.372549
H345	H	1.072568	-0.560037	-0.365127
H346	H	1.322568	-0.310037	-0.115127
H347	H	1.572568	-0.060037	0.134873
H348	H	1.822568	0.189963	0.384873
N349	N	0.257149	-0.378086	-0.351801
N350	N	0.507149	-0.128086	-0.101801
N351	N	0.757149	0.121914	0.148199
N352	N	1.007149	0.371914	0.398199
H353	H	0.267780	-0.427829	-0.366762
H354	H	0.517780	-0.177829	-0.116762
H355	H	0.767780	0.072171	0.133238
H356	H	1.017780	0.322171	0.383238
H357	H	0.270406	-0.366484	-0.295839
H358	H	0.520406	-0.116484	-0.045839
H359	H	0.770406	0.133516	0.204161
H360	H	1.020406	0.383516	0.454161
N361	N	0.740154	-0.400075	-0.328081
N362	N	0.990154	-0.150075	-0.078081
N363	N	1.240154	0.099925	0.171919
N364	N	1.490154	0.349925	0.421919
H365	H	0.792578	-0.391030	-0.337777
H366	H	1.042578	-0.141030	-0.087777
H367	H	1.292578	0.108970	0.162223
H368	H	1.542578	0.358970	0.412223
H369	H	0.727758	-0.389603	-0.270954
H370	H	0.977758	-0.139603	-0.020954
H371	H	1.227758	0.110397	0.229046
H372	H	1.477758	0.360397	0.479046
H373	H	0.932275	-1.030589	-0.515301
H374	H	1.182275	-0.780589	-0.265301
H375	H	1.432275	-0.530589	-0.015301
H376	H	1.682275	-0.280589	0.234699
N377	N	0.912924	-0.206022	-0.720449
N378	N	1.162924	0.043978	-0.470449
N379	N	1.412924	0.293978	-0.220449
N380	N	1.662924	0.543978	0.029551
H381	H	0.862180	-0.219082	-0.732903
H382	H	1.112180	0.030918	-0.482903
H383	H	1.362180	0.280918	-0.232903
H384	H	1.612180	0.530918	0.017097
H385	H	0.919503	-0.212587	-0.662935
H386	H	1.169503	0.037413	-0.412935
H387	H	1.419503	0.287413	-0.162935
H388	H	1.669503	0.537413	0.087065
N389	N	0.595535	-0.219745	-0.521661
N390	N	0.845535	0.030255	-0.271661
N391	N	1.095535	0.280255	-0.021661
N392	N	1.345535	0.530255	0.228339
H393	H	0.631202	-0.189804	-0.553791
H394	H	0.881202	0.060196	-0.303791
H395	H	1.131202	0.310196	-0.053791
H396	H	1.381202	0.560196	0.196209
H397	H	0.563818	-0.249716	-0.557850
H398	H	0.813818	0.000284	-0.307850
H399	H	1.063818	0.250284	-0.057850
H400	H	1.313818	0.500284	0.192150
N401	N	0.912960	-0.205974	-0.890825
N402	N	1.162960	0.044026	-0.640825
N403	N	1.412960	0.294026	-0.390825
N404	N	1.662960	0.544026	-0.140825
H405	H	0.942980	-0.172145	-0.924671
H406	H	1.192980	0.077855	-0.674671
H407	H	1.442980	0.327855	-0.424671
H408	H	1.692980	0.577855	-0.174671
H409	H	0.879119	-0.235979	-0.924595
H410	H	1.129119	0.014021	-0.674595
H411	H	1.379119	0.264021	-0.424595
H412	H	1.629119	0.514021	-0.174595
N413	N	0.418011	-0.184740	-0.559345
N414	N	0.668011	0.065260	-0.309345
N415	N	0.918011	0.315260	-0.059345
N416	N	1.168011	0.565260	0.190655
H417	H	0.469843	-0.189339	-0.554412
H418	H	0.719843	0.060661	-0.304412
H419	H	0.969843	0.310661	-0.054412
H420	H	1.219843	0.560661	0.195588
H421	H	0.404702	-0.196322	-0.615295
H422	H	0.654702	0.053678	-0.365295
H423	H	0.904702	0.303678	-0.115295
H424	H	1.154702	0.553678	0.134705
N425	N	1.078416	-0.702553	-0.358978
N426	N	1.328416	-0.452553	-0.108978
N427	N	1.578416	-0.202553	0.141022
N428	N	1.828416	0.047447	0.391022
H429	H	1.129228	-0.687572	-0.372929
H430	H	1.379228	-0.437572	-0.122929
H431	H	1.629228	-0.187572	0.127071
H432	H	1.879228	0.062428	0.377071
H433	H	1.067994	-0.690262	-0.301816
H434	H	1.317994	-0.440262	-0.051816
H435	H	1.567994	-0.190262	0.198184
H436	H	1.817994	0.059738	0.448184
H437	H	1.101290	-0.890305	-0.334661
H438	H	1.351290	-0.640305	-0.084661
H439	H	1.601290	-0.390305	0.165339
H440	H	1.851290	-0.140305	0.415339
N441	N	0.527921	-0.224904	-0.516200
N442	N	0.777921	0.025096	-0.266200
N443	N	1.027921	0.275096	-0.016200
N444	N	1.277921	0.525096	0.233800
H445	H	0.514674	-0.236455	-0.572178
H446	H	0.764674	0.013545	-0.322178
H447	H	1.014674	0.263545	-0.072178
H448	H	1.264674	0.513545	0.177822
H449	H	0.517273	-0.175180	-0.501181
H450	H	0.767273	0.074820	-0.251181
H451	H	1.017273	0.324820	-0.001181
H452	H	1.267273	0.574820	0.248819
