data_functionalizedCrystal
_audit_creation_method	'MofGen! by Chris Wilmer'
_symmetry_space_group_name_H-M	'P1'
_symmetry_Int_Tables_number	1
_symmetry_cell_setting	triclinic
loop_
_symmetry_equiv_pos_as_xyz
  x,y,z
_cell_length_a	27.732048
_cell_length_b	19.288859
_cell_length_c	17.766277
_cell_angle_alpha	89.989768
_cell_angle_beta	89.988664
_cell_angle_gamma	82.888190
loop_
_atom_site_label
_atom_site_type_symbol
_atom_site_fract_x
_atom_site_fract_y
_atom_site_fract_z
O1	O	0.060286	0.920980	-0.062617
O2	O	0.068423	0.718668	-0.062616
O3	O	-0.006023	0.826107	-0.062602
O4	O	0.134732	0.813540	-0.062631
O5	O	-0.006027	0.826088	0.062586
O6	O	0.068419	0.718649	0.062572
O7	O	0.060282	0.920961	0.062571
Cu8	Cu	0.064350	0.819803	0.074002
Cu9	Cu	0.064355	0.819825	-0.074047
O10	O	0.134728	0.813522	0.062557
C11	C	0.068160	0.692783	-0.000022
C12	C	0.067375	0.615685	-0.000021
C13	C	0.105750	0.051404	-0.000030
C14	C	0.106492	0.123846	-0.000034
C15	C	0.062810	0.168826	-0.000024
C16	C	0.018383	0.141358	-0.000029
C17	C	0.017643	0.068917	-0.000032
C18	C	0.030231	0.290293	0.043845
C19	C	0.030973	0.362732	0.043853
C20	C	0.065091	0.392257	-0.000016
C21	C	0.098475	0.349333	-0.043884
C22	C	0.097735	0.276893	-0.043888
C23	C	0.063607	0.247376	-0.000020
C24	C	0.110318	0.498267	-0.000021
C25	C	0.111058	0.570710	-0.000030
C26	C	0.022948	0.588220	-0.000017
C27	C	0.022210	0.515778	-0.000016
C28	C	0.065896	0.470805	-0.000014
C29	C	-0.024033	0.825834	-0.000006
C30	C	-0.077690	0.825040	0.000000
C31	C	-0.416330	0.883529	-0.000039
C32	C	-0.617998	0.880581	-0.000049
O33	O	-0.649093	0.934065	-0.000082
N34	N	-0.637313	0.816874	-0.000048
C35	C	-0.606208	0.753899	-0.000050
O36	O	-0.627264	0.699645	-0.000057
C37	C	-0.404540	0.756847	-0.000045
C38	C	-0.385228	0.820559	-0.000038
C39	C	-0.397017	0.947235	-0.000033
C40	C	-0.346603	0.947971	-0.000026
C41	C	-0.315501	0.885001	-0.000025
C42	C	-0.334814	0.821295	-0.000031
C43	C	-0.373436	0.693873	-0.000051
C44	C	-0.323016	0.694616	-0.000052
C45	C	-0.303704	0.758327	-0.000045
C46	C	-0.253298	0.759061	-0.000024
N47	N	-0.233983	0.822768	-0.000025
C48	C	-0.265085	0.885738	-0.000025
C49	C	-0.712087	0.752356	-0.000051
C50	C	-0.762503	0.751619	-0.000051
C51	C	-0.774290	0.878301	-0.000052
C52	C	-0.723872	0.879038	-0.000046
C53	C	-0.692771	0.816063	-0.000052
C54	C	-0.159211	0.887279	-0.000011
C55	C	-0.108792	0.888010	-0.000001
C56	C	-0.097009	0.761328	-0.000004
C57	C	-0.147424	0.760597	-0.000010
C58	C	-0.178524	0.823578	-0.000016
O59	O	-0.222175	0.705606	0.000001
O60	O	-0.244019	0.939984	-0.000035
C61	C	-0.466744	0.882792	-0.000045
C62	C	-0.486057	0.819086	-0.000051
C63	C	-0.454955	0.756116	-0.000051
C64	C	-0.536473	0.818349	-0.000051
C65	C	-0.567575	0.881319	-0.000052
C66	C	-0.548259	0.945026	-0.000053
C67	C	-0.497845	0.945762	-0.000046
C68	C	-0.474270	0.692409	-0.000050
C69	C	-0.524685	0.691678	-0.000055
C70	C	-0.555786	0.754648	-0.000056
C71	C	0.152738	0.813795	-0.000041
C72	C	0.206395	0.814589	-0.000052
C73	C	0.060545	0.946845	-0.000025
C74	C	0.061330	1.023944	-0.000031
N75	N	0.064347	0.819793	0.178133
N76	N	0.064354	0.819841	-0.178178
C77	C	0.031398	0.867382	0.217526
C78	C	0.031396	0.867386	0.296328
C79	C	0.064351	0.819807	0.335733
C80	C	0.097302	0.772209	0.296331
C81	C	0.097300	0.772202	0.217530
C82	C	0.108393	0.810234	0.460562
C83	C	0.108396	0.810246	0.539361
C84	C	0.064356	0.819826	0.578780
C85	C	0.020312	0.829408	0.539390
C86	C	0.020311	0.829401	0.460589
C87	C	0.064356	0.819810	0.421179
C88	C	0.031402	0.867422	0.703619
C89	C	0.031400	0.867421	0.782422
C90	C	0.097310	0.772248	0.782423
C91	C	0.097309	0.772245	0.703622
C92	C	0.064355	0.819836	0.664224
H93	H	-0.018531	0.046560	-0.000033
H94	H	-0.163149	0.708718	0.000006
N95	N	0.158974	0.600323	-0.000040
H96	H	0.178101	0.583883	0.046367
H97	H	0.152778	0.653034	-0.000072
H98	H	0.002445	0.266260	0.079570
H99	H	0.141323	0.014791	-0.000032
N100	N	-0.004155	0.918725	0.661121
H101	H	0.000841	0.911498	0.605223
H102	H	0.001327	0.967946	0.674870
H103	H	0.124141	0.733506	0.814507
N104	N	0.132846	0.720916	0.661127
H105	H	0.153723	0.690774	0.698046
H106	H	0.154169	0.747270	0.628414
N107	N	-0.027190	0.839733	0.418105
H108	H	-0.028322	0.882739	0.385401
H109	H	-0.055062	0.845773	0.455078
H110	H	-0.015549	0.837209	0.571482
H111	H	0.124134	0.733469	0.328419
N112	N	-0.024167	0.636723	-0.000014
H113	H	-0.016959	0.686782	-0.000015
H114	H	-0.043538	0.627877	0.046396
H115	H	-0.778222	0.699739	-0.000043
N116	N	-0.477019	1.014480	-0.000038
H117	H	-0.504378	1.054253	-0.000040
H118	H	-0.456352	1.017557	-0.046445
H119	H	-0.093071	0.939893	0.000007
H120	H	0.004566	0.906172	0.814496
N121	N	0.132837	0.720869	0.175036
H122	H	0.153713	0.690725	0.211954
H123	H	0.154160	0.747224	0.142326
H124	H	0.144259	0.802448	0.571427
N125	N	-0.028733	0.189862	-0.000016
H126	H	-0.030387	0.220320	-0.046419
H127	H	-0.030365	0.220251	0.046426
H128	H	-0.013962	0.493420	-0.000012
N129	N	0.155896	0.799902	0.418050
H130	H	0.183797	0.793841	0.454958
H131	H	0.158640	0.842066	0.385344
H132	H	0.142665	0.146209	-0.000026
H133	H	0.124916	0.241947	-0.079608
N134	N	-0.703044	0.947754	-0.000039
H135	H	-0.730402	0.987529	-0.000037
H136	H	-0.682379	0.950831	-0.046448
N137	N	0.135279	0.381159	-0.091209
H138	H	0.156345	0.407085	-0.057620
H139	H	0.117802	0.414713	-0.128712
N140	N	-0.004140	0.918716	0.338834
H141	H	-0.038436	0.911094	0.325141
H142	H	0.001384	0.967926	0.325089
N143	N	0.157433	0.449754	-0.000036
H144	H	0.159090	0.419300	0.046371
H145	H	0.185660	0.478194	-0.000072
N146	N	-0.678544	0.684431	-0.000045
H147	H	-0.657357	0.681911	-0.046452
H148	H	-0.698468	0.644005	-0.000013
H149	H	-0.071678	0.710059	-0.000000
N150	N	-0.325773	1.016685	-0.000038
H151	H	-0.305123	1.019818	0.046368
H152	H	-0.353156	1.056422	-0.000072
H153	H	0.003792	0.397674	0.079577
N154	N	-0.192750	0.955207	-0.000017
H155	H	-0.172859	0.995671	-0.000011
H156	H	-0.213931	0.957655	0.046391
H157	H	-0.422335	0.998515	-0.000036
H158	H	-0.799622	0.929574	-0.000052
H159	H	-0.389151	0.641993	-0.000061
H160	H	-0.448952	0.641130	-0.000051
H161	H	-0.297696	0.643333	-0.000058
H162	H	-0.573591	0.996299	-0.000050
N163	N	-0.545511	0.622957	-0.000050
H164	H	-0.518154	0.583181	-0.000049
H165	H	-0.566165	0.619895	-0.046462
N166	N	-0.004144	0.918708	0.175033
H167	H	-0.025018	0.948856	0.211951
H168	H	-0.025469	0.892346	0.142356
