data_functionalizedCrystal
_audit_creation_method	'MofGen! by Chris Wilmer'
_symmetry_space_group_name_H-M	'P1'
_symmetry_Int_Tables_number	1
_symmetry_cell_setting	triclinic
loop_
_symmetry_equiv_pos_as_xyz
  x,y,z
_cell_length_a	15.995350
_cell_length_b	14.853567
_cell_length_c	13.330367
_cell_angle_alpha	90.000844
_cell_angle_beta	89.996093
_cell_angle_gamma	96.436348
loop_
_atom_site_label
_atom_site_type_symbol
_atom_site_fract_x
_atom_site_fract_y
_atom_site_fract_z
O1	O	1.111124	-0.116206	-0.083330
O2	O	0.867366	-0.130556	-0.083350
O3	O	0.995756	0.007858	-0.083342
O4	O	0.982734	-0.254619	-0.083337
O5	O	0.995738	0.007861	0.083505
O6	O	0.867347	-0.130553	0.083498
O7	O	1.111106	-0.116203	0.083517
Cu8	Cu	0.989225	-0.123377	0.098742
Cu9	Cu	0.989247	-0.123381	-0.098574
O10	O	0.982715	-0.254616	0.083510
C11	C	0.836161	-0.129961	0.000071
C12	C	0.743209	-0.128182	0.000064
C13	C	0.995157	0.041447	0.000078
C14	C	0.993389	0.141528	0.000069
N15	N	0.989215	-0.123374	0.237523
C16	C	0.405454	-0.121795	0.000084
C17	C	0.452773	-0.023220	0.000455
C18	C	0.549465	-0.024999	0.000072
C19	C	0.573018	-0.124963	0.000075
C20	C	0.531998	-0.173586	-0.095198
C21	C	0.435359	-0.171110	-0.095271
C22	C	0.435002	-0.173143	0.094465
C23	C	0.531947	-0.173119	0.095717
C24	C	0.667717	-0.126759	0.000066
C25	C	0.310754	-0.120002	0.000086
C26	C	1.142311	-0.116798	0.000094
C27	C	1.235263	-0.118576	0.000095
C28	C	0.983315	-0.288206	0.000087
C29	C	0.985083	-0.388287	0.000089
C30	C	0.909648	0.553949	0.000082
C31	C	1.062178	0.575436	0.000094
C32	C	1.063841	0.481405	0.000088
C33	C	0.988406	0.423641	0.000081
C34	C	0.911308	0.459909	0.000079
C35	C	1.140937	0.445129	0.000100
C36	C	1.142603	0.351093	0.000096
C37	C	1.067167	0.293327	0.000081
C38	C	0.990066	0.329600	0.000078
C39	C	0.914631	0.271837	0.000071
C40	C	0.837529	0.308108	0.000061
C41	C	0.835872	0.402144	0.000064
C42	C	1.068824	0.199292	0.000077
C43	C	0.916291	0.177796	0.000068
N44	N	0.989263	-0.123377	-0.237356
C45	C	0.932393	-0.184646	0.710143
C46	C	1.046123	-0.062109	0.710117
C47	C	1.046114	-0.062106	0.605099
C48	C	0.989244	-0.123375	0.552598
C49	C	0.932384	-0.184647	0.605115
C50	C	1.102979	-0.000841	0.552574
C51	C	1.102972	-0.000836	0.447549
C52	C	1.046098	-0.062102	0.395046
C53	C	0.989234	-0.123376	0.447570
C54	C	0.932365	-0.184646	0.395068
C55	C	0.875497	-0.245916	0.447590
C56	C	0.875509	-0.245913	0.552612
C57	C	1.046085	-0.062105	0.290025
C58	C	0.932355	-0.184647	0.290040
H59	H	0.577842	0.013221	0.068367
H60	H	0.829196	-0.295806	0.404832
Br61	Br	0.404784	-0.112017	-0.213977
H62	H	1.123594	0.622472	0.000108
Br63	Br	0.381746	-0.291731	-0.102474
Br64	Br	0.400704	-0.119425	0.214830
H65	H	0.846873	0.583486	0.000070
H66	H	0.773099	0.431685	0.000057
H67	H	1.202353	0.492167	0.000116
H68	H	1.149276	0.049054	0.404793
H69	H	0.546209	-0.247028	-0.098739
Br70	Br	0.577277	-0.113859	0.213194
Br71	Br	1.247238	0.301875	0.000094
H72	H	0.547396	-0.246017	0.101474
Br73	Br	1.173453	0.150069	0.000114
Br74	Br	1.123309	0.021032	0.781365
Br75	Br	1.123264	0.021033	0.218752
Br76	Br	0.855164	-0.267795	0.218797
H77	H	0.829210	-0.295798	0.595381
H78	H	0.886090	-0.234530	0.752909
Br79	Br	1.180165	0.082300	0.623822
H80	H	0.776110	0.261065	0.000061
H81	H	0.433141	0.016001	-0.067494
Br82	Br	0.421809	0.042459	0.114334
Br83	Br	0.813909	0.099409	0.000046
H84	H	0.560341	-0.139817	-0.166105
Br85	Br	0.595808	0.038843	-0.114160
H86	H	0.403325	-0.245822	0.095112
