data_functionalizedCrystal
_audit_creation_method	'MofGen! by Chris Wilmer'
_symmetry_space_group_name_H-M	'P1'
_symmetry_Int_Tables_number	1
_symmetry_cell_setting	triclinic
loop_
_symmetry_equiv_pos_as_xyz
  x,y,z
_cell_length_a	16.109318
_cell_length_b	13.339070
_cell_length_c	15.186229
_cell_angle_alpha	89.998719
_cell_angle_beta	90.000224
_cell_angle_gamma	99.548929
loop_
_atom_site_label
_atom_site_type_symbol
_atom_site_fract_x
_atom_site_fract_y
_atom_site_fract_z
O1	O	1.133164	0.130106	-0.073150
O2	O	1.633164	0.630106	0.426850
O3	O	0.894836	0.146269	-0.073168
O4	O	1.394836	0.646269	0.426832
O5	O	0.986647	-0.009069	-0.073158
O6	O	1.486647	0.490931	0.426842
O7	O	1.041352	0.285444	-0.073160
O8	O	1.541352	0.785444	0.426840
O9	O	0.986638	-0.009071	0.073299
O10	O	1.486638	0.490929	0.573299
O11	O	0.894827	0.146267	0.073290
O12	O	1.394827	0.646267	0.573290
O13	O	1.133155	0.130104	0.073307
O14	O	1.633155	0.630104	0.573307
Zn15	Zn	1.013989	0.138185	0.096552
Zn16	Zn	1.513989	0.638185	0.596552
Zn17	Zn	1.014001	0.138188	-0.096412
Zn18	Zn	1.514001	0.638188	0.403588
O19	O	1.041343	0.285442	0.073298
O20	O	1.541343	0.785442	0.573298
C21	C	0.863705	0.145610	0.000059
C22	C	1.363705	0.645610	0.500059
C23	C	0.770955	0.143638	0.000052
C24	C	1.270955	0.643638	0.500052
C25	C	0.470415	0.137270	-0.079766
C26	C	0.970415	0.637270	0.420234
C27	C	0.557563	0.139116	-0.079772
C28	C	1.057563	0.639116	0.420228
C29	C	0.557568	0.139100	0.079904
C30	C	1.057568	0.639100	0.579904
C31	C	0.470422	0.137247	0.079909
C32	C	0.970422	0.637247	0.579909
C33	C	0.426848	0.136337	0.000071
C34	C	0.926848	0.636337	0.500071
C35	C	0.601142	0.140036	0.000061
C36	C	1.101142	0.640036	0.500061
C37	C	0.695632	0.142038	0.000056
C38	C	1.195632	0.642038	0.500056
C39	C	0.332352	0.134333	0.000076
C40	C	0.832352	0.634333	0.500076
C41	C	0.977402	-0.046757	0.000068
C42	C	1.477402	0.453243	0.500068
C43	C	0.949858	-0.159052	0.000063
C44	C	1.449858	0.340948	0.500063
C45	C	1.164028	-0.523899	0.000079
C46	C	1.664028	-0.023899	0.500079
C47	C	1.189910	-0.418393	0.000089
C48	C	1.689910	0.081607	0.500089
C49	C	1.129899	-0.353553	0.000082
C50	C	1.629899	0.146447	0.500082
C51	C	1.044002	-0.394228	0.000066
C52	C	1.544002	0.105772	0.500066
C53	C	1.018117	-0.499745	0.000063
C54	C	1.518117	0.000255	0.500063
C55	C	0.983988	-0.329398	0.000066
C56	C	1.483988	0.170602	0.500066
C57	C	0.898091	-0.370074	0.000049
C58	C	1.398091	0.129926	0.500049
C59	C	0.872211	-0.475581	0.000046
C60	C	1.372211	0.024419	0.500046
C61	C	0.932222	-0.540421	0.000052
C62	C	1.432222	-0.040421	0.500052
C63	C	1.009873	-0.223882	0.000069
C64	C	1.509873	0.276118	0.500069
C65	C	0.863962	-0.199728	0.000053
C66	C	1.363962	0.300272	0.500053
C67	C	0.838081	-0.305234	0.000043
C68	C	1.338081	0.194766	0.500043
C69	C	1.164286	0.130763	0.000079
C70	C	1.664286	0.630763	0.500079
C71	C	1.257035	0.132735	0.000080
C72	C	1.757035	0.632735	0.500080
C73	C	1.050588	0.323130	0.000069
C74	C	1.550588	0.823130	0.500069
C75	C	1.078132	0.435425	0.000069
C76	C	1.578132	0.935425	0.500069
N77	N	1.013987	0.138183	0.228244
N78	N	1.513987	0.638183	0.728244
N79	N	1.014008	0.138183	-0.228105
N80	N	1.514008	0.638183	0.271895
C81	C	1.054666	0.069422	0.453971
C82	C	1.554666	0.569422	0.953971
C83	C	1.054668	0.069420	0.546161
C84	C	1.554668	0.569420	1.046161
C85	C	0.973324	0.206946	0.546162
C86	C	1.473324	0.706946	1.046162
C87	C	0.973317	0.206943	0.453974
C88	C	1.473317	0.706943	0.953974
C89	C	1.013993	0.138182	0.407881
C90	C	1.513993	0.638182	0.907881
C91	C	1.014002	0.138183	0.592259
C92	C	1.514002	0.638183	1.092259
C93	C	1.014004	0.138181	0.692215
C94	C	1.514004	0.638181	1.192215
C95	C	1.013990	0.138183	0.307918
C96	C	1.513990	0.638183	0.807918
H97	H	0.434940	0.136528	-0.144775
H98	H	0.934940	0.636528	0.355225
H99	H	1.150977	-0.267645	0.000091
H100	H	1.650977	0.232355	0.500091
H101	H	1.259847	-0.385282	0.000104
H102	H	1.759847	0.114718	0.500104
H103	H	0.940208	0.262932	0.583700
H104	H	1.440208	0.762932	1.083700
H105	H	0.593031	0.139875	-0.144783
H106	H	1.093031	0.639875	0.355217
H107	H	0.593057	0.139843	0.144905
H108	H	1.093057	0.639843	0.644905
H109	H	0.940193	0.262936	0.416444
H110	H	1.440193	0.762936	0.916444
H111	H	0.434948	0.136486	0.144925
H112	H	0.934948	0.636486	0.644925
H113	H	0.815096	-0.146934	0.000052
H114	H	1.315096	0.353066	0.500052
H115	H	1.087785	0.013431	0.416445
H116	H	1.587785	0.513431	0.916445
H117	H	1.079810	-0.190774	0.000083
H118	H	1.579810	0.309226	0.500083
H119	H	1.212879	-0.576700	0.000092
H120	H	1.712879	-0.076700	0.500092
H121	H	1.087786	0.013428	0.583685
H122	H	1.587786	0.513428	1.083685
H123	H	0.911153	-0.626334	0.000041
H124	H	1.411153	-0.126334	0.500041
H125	H	0.802268	-0.508695	0.000039
H126	H	1.302268	-0.008695	0.500039
H127	H	0.768142	-0.338368	0.000030
H128	H	1.268142	0.161632	0.500030
