data_functionalizedCrystal
_audit_creation_method	'MofGen! by Chris Wilmer'
_symmetry_space_group_name_H-M	'P1'
_symmetry_Int_Tables_number	1
_symmetry_cell_setting	triclinic
loop_
_symmetry_equiv_pos_as_xyz
  x,y,z
_cell_length_a	13.262522
_cell_length_b	10.540510
_cell_length_c	12.376457
_cell_angle_alpha	101.392640
_cell_angle_beta	63.170097
_cell_angle_gamma	84.471686
loop_
_atom_site_label
_atom_site_type_symbol
_atom_site_fract_x
_atom_site_fract_y
_atom_site_fract_z
O1	O	1.512579	0.026907	-0.559021
O2	O	1.185813	0.071390	-0.458563
O3	O	1.356668	-0.136192	-0.511089
O4	O	1.341724	0.234489	-0.506495
O5	O	1.313969	-0.084364	-0.309950
O6	O	1.143114	0.123218	-0.257424
O7	O	1.469880	0.078735	-0.357882
Zn8	Zn	1.299717	0.109206	-0.275718
Zn9	Zn	1.355975	0.040920	-0.540727
O10	O	1.299025	0.286317	-0.305356
C11	C	1.122621	0.099578	-0.345130
C12	C	0.997946	0.106337	-0.306801
C13	C	0.916104	0.137767	-0.179147
C14	C	0.798965	0.144108	-0.143125
C15	C	0.763655	0.119028	-0.234754
C16	C	0.845496	0.087606	-0.362411
C17	C	0.962648	0.081255	-0.398437
C18	C	0.810199	0.062516	-0.454045
C19	C	0.892041	0.031094	-0.581702
C20	C	1.009180	0.024745	-0.617721
C21	C	1.044490	0.049824	-0.526091
C22	C	0.693047	0.068868	-0.418019
C23	C	0.739591	0.012355	-0.637309
C24	C	0.856731	0.006015	-0.673331
C25	C	1.334206	-0.157488	-0.410180
C26	C	1.330875	-0.298158	-0.409163
C27	C	1.449470	-0.525530	-0.445192
C28	C	1.453122	-0.379353	-0.446744
C29	C	1.292679	-0.367222	-0.504782
C30	C	1.290010	-0.513778	-0.504045
C31	C	1.238907	-0.454434	-0.274530
C32	C	1.244385	-0.308193	-0.274801
C33	C	1.533072	0.050547	-0.471318
C34	C	1.657749	0.043786	-0.509655
C35	C	1.321488	0.307613	-0.406268
C36	C	1.324820	0.448281	-0.407293
N37	N	1.261331	0.155807	-0.094859
N38	N	1.394371	-0.005693	-0.721589
C39	C	1.483477	-0.113895	0.191832
C40	C	1.510338	-0.146512	0.065235
C41	C	1.448088	-0.070935	0.025205
C42	C	1.358974	0.037264	0.111786
C43	C	1.332117	0.069890	0.238394
C44	C	1.296728	0.112850	0.071766
C45	C	1.207614	0.221050	0.158347
C46	C	1.180761	0.253669	0.284942
C47	C	1.243010	0.178093	0.324972
C48	C	1.323585	0.080224	-0.054842
C49	C	1.172225	0.264010	-0.008280
C50	C	1.145364	0.296626	0.118317
H51	H	0.668273	0.124195	-0.205418
Cl52	Cl	0.695210	-0.019163	-0.752508
Cl53	Cl	1.622360	-0.282525	-0.043605
Cl54	Cl	1.155136	-0.284008	-0.468672
H55	H	1.259274	-0.477466	-0.199410
Cl56	Cl	0.959629	-0.033492	-0.833809
Cl57	Cl	0.960502	0.169284	-0.063972
Cl58	Cl	1.435608	-0.055793	-0.163669
H59	H	1.354284	-0.362064	-0.603619
Cl60	Cl	1.033339	0.432646	0.227172
Cl61	Cl	0.696085	0.183628	0.017350
H62	H	1.469962	-0.097496	-0.077877
Cl63	Cl	1.556185	-0.374728	-0.597460
H64	H	1.351003	-0.579733	-0.603051
H65	H	1.271881	-0.261536	-0.203828
H66	H	1.139873	0.044668	-0.555413
Cl67	Cl	1.496011	-0.563752	-0.340625
Cl68	Cl	1.150560	-0.539430	-0.468706
Cl69	Cl	1.104311	-0.218034	-0.221726
Cl70	Cl	1.096948	-0.476344	-0.229766
Cl71	Cl	1.561734	-0.208885	0.242156
H72	H	1.108208	0.341780	0.355435
H73	H	1.484607	-0.332934	-0.379464
H74	H	1.121537	0.325554	-0.040871
H75	H	1.075817	-0.000858	-0.721668
H76	H	0.626421	0.094462	-0.314080
H77	H	1.514209	-0.594144	-0.541654
H78	H	1.221138	0.204645	0.428058
