data_functionalizedCrystal
_audit_creation_method	'MofGen! by Chris Wilmer'
_symmetry_space_group_name_H-M	'P1'
_symmetry_Int_Tables_number	1
_symmetry_cell_setting	triclinic
loop_
_symmetry_equiv_pos_as_xyz
  x,y,z
_cell_length_a	31.640172
_cell_length_b	14.560438
_cell_length_c	14.560438
_cell_angle_alpha	60.005799
_cell_angle_beta	89.989432
_cell_angle_gamma	59.989328
loop_
_atom_site_label
_atom_site_type_symbol
_atom_site_fract_x
_atom_site_fract_y
_atom_site_fract_z
Zr1	Zr	0.407202	1.005076	-0.120477
O2	O	0.339715	1.196683	-0.267081
O3	O	0.427887	0.813485	-0.075554
O4	O	0.427891	1.005073	-0.267130
O5	O	0.339712	1.005092	0.075636
O6	O	0.497448	1.005053	-0.267147
O7	O	0.339712	1.005095	-0.075505
O8	O	0.497442	0.662337	0.075548
O9	O	0.339718	1.347808	-0.267059
O10	O	0.488622	0.892269	-0.056384
O11	O	0.436713	0.892282	0.056423
O12	O	0.436717	1.117852	-0.169133
O13	O	0.384807	1.117865	-0.056326
Zr14	Zr	0.518138	1.005040	0.120549
Zr15	Zr	0.518138	1.005044	-0.120503
Zr16	Zr	0.407202	1.005072	0.120576
Zr17	Zr	0.407206	1.246104	-0.120441
Zr18	Zr	0.518133	0.764013	0.120514
O19	O	0.497452	1.196632	0.075626
O20	O	0.497452	1.196638	-0.267119
O21	O	0.339715	1.196677	0.075664
O22	O	0.585624	0.813434	0.267153
O23	O	0.585624	0.813439	-0.075592
O24	O	0.427888	0.813479	0.267191
O25	O	0.585627	1.005024	-0.075564
O26	O	0.497448	1.005044	0.267202
O27	O	0.427891	1.005064	0.267219
O28	O	0.585628	1.005022	0.075577
O29	O	0.427897	1.347783	-0.267080
O30	O	0.497442	0.662333	0.267152
O31	O	0.585621	0.662308	0.267131
O32	O	0.585621	0.662311	0.075527
O33	O	0.339718	1.347805	-0.075454
O34	O	0.427897	1.347780	-0.075476
O35	O	0.488623	0.892265	0.169205
O36	O	0.540532	0.892252	0.056398
O37	O	0.488627	1.117835	-0.056351
O38	O	0.436717	1.117848	0.056456
C39	C	0.462664	0.703569	-0.000008
C40	C	0.462662	0.601247	-0.000023
C41	C	0.424346	0.636386	-0.083236
C42	C	0.424354	0.540197	-0.083179
C43	C	0.500998	0.373731	0.083312
C44	C	0.500991	0.469919	0.083250
C45	C	0.386017	0.767714	-0.166509
C46	C	0.347697	0.802860	-0.249728
C47	C	0.347705	0.706670	-0.249671
C48	C	0.386033	0.575336	-0.166396
C49	C	0.323906	1.005098	0.000069
C50	C	0.276811	1.005112	0.000081
C51	C	-0.059463	1.005031	0.083321
C52	C	0.117519	1.005068	0.083338
O53	O	0.140411	1.005020	0.154179
N54	N	0.139653	1.005075	0.000073
C55	C	0.117541	1.005063	-0.083198
O56	O	0.140432	1.005056	-0.154013
C57	C	-0.059438	1.005017	-0.083210
C58	C	-0.081572	1.005024	0.000054
C59	C	-0.081597	1.005036	0.166579
C60	C	-0.125841	1.005034	0.166570
C61	C	-0.147951	1.005027	0.083303
C62	C	-0.125817	1.005021	0.000046
C63	C	-0.081547	1.004996	-0.166475
C64	C	-0.125793	1.004981	-0.166469
C65	C	-0.147928	1.004988	-0.083205
C66	C	-0.192171	1.005012	-0.083230
N67	N	-0.214305	1.005005	0.000035
C68	C	-0.192195	1.005013	0.083302
C69	C	0.210457	1.005090	-0.083187
C70	C	0.254701	1.005104	-0.083186
C71	C	0.254676	1.005107	0.083352
C72	C	0.210429	1.005102	0.083345
C73	C	0.188323	1.005084	0.000078
C74	C	-0.285112	1.005009	0.083277
C75	C	-0.329362	1.005012	0.083258
C76	C	-0.329332	1.005003	-0.083276
C77	C	-0.285087	1.005007	-0.083261
C78	C	-0.262978	1.005005	0.000025
O79	O	-0.215087	1.005045	-0.154026
O80	O	-0.215087	1.004991	0.154121
C81	C	-0.015218	1.005033	0.083329
C82	C	0.006916	1.005028	0.000072
C83	C	-0.015193	1.005020	-0.083195
C84	C	0.051160	1.005042	0.000073
C85	C	0.073270	1.005050	0.083340
C86	C	0.051136	1.005043	0.166605
C87	C	0.006892	1.005041	0.166596
C88	C	0.006941	1.005027	-0.166460
C89	C	0.051185	1.005031	-0.166445
C90	C	0.073295	1.005038	-0.083179
C91	C	0.601433	1.005018	0.000003
C92	C	0.648529	1.005005	-0.000009
C93	C	0.462670	1.005063	-0.301483
C94	C	0.462669	1.005065	-0.403816
C95	C	0.462675	1.306547	0.000080
C96	C	0.462677	1.408870	0.000095
C97	C	0.435573	1.122815	-0.510747
C98	C	0.435575	1.122809	-0.606895
C99	C	0.489770	0.887292	-0.489170
C100	C	0.489771	0.887300	-0.393024
C101	C	0.408472	1.240580	-0.521539
C102	C	0.381373	1.358340	-0.628474
C103	C	0.381374	1.358334	-0.724623
C104	C	0.408475	1.240568	-0.713837
C105	C	0.462670	1.005053	0.301556
C106	C	0.462670	1.005051	0.403889
C107	C	0.601428	0.703530	-0.000041
C108	C	0.648521	0.601193	-0.000068
C109	C	0.462664	0.703564	0.301511
C110	C	0.462662	0.601240	0.403829
C111	C	0.601428	0.703524	0.301478
C112	C	0.648521	0.601187	0.403785
C113	C	0.323911	1.306592	-0.301406
C114	C	0.276818	1.408930	-0.403712
C115	C	0.323911	1.306587	0.000114
C116	C	0.276818	1.408923	0.000140
C117	C	0.462675	1.306552	-0.301439
C118	C	0.462677	1.408877	-0.403757
C119	C	0.643540	0.553144	-0.058961
C120	C	0.687785	0.457002	-0.059009
C121	C	0.737010	0.408904	-0.000155
C122	C	0.741990	0.456963	0.058740
C123	C	0.697746	0.553110	0.058780
C124	C	0.697738	0.553121	0.392945
C125	C	0.741991	0.456977	0.489063
C126	C	0.737027	0.408894	0.596021
C127	C	0.687805	0.456969	0.606859
C128	C	0.643553	0.553118	0.510741
C129	C	0.227601	1.457007	-0.392873
C130	C	0.183348	1.553181	-0.488991
C131	C	0.188312	1.601269	-0.595949
C132	C	0.237534	1.553188	-0.606787
C133	C	0.281786	1.457022	-0.510669
C134	C	0.281799	1.456983	0.059024
C135	C	0.237554	1.553151	0.059044
C136	C	0.188329	1.601253	0.000187
C137	C	0.183349	1.553189	-0.058704
C138	C	0.227593	1.457029	-0.058730
C139	C	0.489759	0.553154	0.510770
C140	C	0.489753	0.457015	0.606904
C141	C	0.435554	0.457052	0.489145
C142	C	0.435557	0.553196	0.393012
C143	C	0.516864	0.601198	0.521587
C144	C	0.543963	0.553112	0.628532
C145	C	0.543958	0.456972	0.724667
C146	C	0.516853	0.408920	0.713856
H147	H	0.386005	0.846045	-0.166562
H148	H	0.408466	1.240599	-0.443257
C149	C	0.589416	0.605975	0.522673
H150	H	0.563768	0.670131	0.450117
H151	H	0.585543	0.536941	0.562624
H152	H	0.585538	0.643486	0.562631
H153	H	0.603463	0.592304	-0.106901
H154	H	0.683720	0.417884	-0.106968
H155	H	0.241619	1.592268	0.107005
C156	C	0.242988	1.606083	-0.724443
H157	H	0.209582	1.670228	-0.780125
H158	H	0.261375	1.643588	-0.732898
H159	H	0.261365	1.537056	-0.732898
C160	C	0.573763	0.404081	0.842300
H161	H	0.589909	0.446460	0.834968
H162	H	0.550377	0.419844	0.882268
H163	H	0.599404	0.313299	0.882230
C164	C	0.408482	1.240556	-0.819596
H165	H	0.428503	1.153557	-0.797855
H166	H	0.373961	1.284052	-0.863084
H167	H	0.422995	1.284035	-0.863085
C168	C	0.703209	0.605999	0.275304
H169	H	0.738861	0.563602	0.282631
H170	H	0.687077	0.590244	0.235345
H171	H	0.687073	0.696778	0.235368
H172	H	0.511833	0.791413	-0.480398
C173	C	0.785675	0.303133	-0.000196
H174	H	0.775653	0.281402	-0.043693
H175	H	0.805698	0.334624	-0.031719
H176	H	0.805689	0.228102	0.074806
H177	H	0.359313	1.454219	-0.811690
H178	H	0.511834	0.791418	-0.305955
H179	H	0.566027	0.592250	0.637325
H180	H	0.321859	1.417879	-0.519508
H181	H	0.782075	0.417788	0.106657
H182	H	0.192410	1.005107	0.151146
C183	C	0.703229	0.605958	0.123566
H184	H	0.669831	0.670117	0.115161
H185	H	0.721618	0.536922	0.201009
H186	H	0.721615	0.643462	0.094477
H187	H	0.321877	1.417826	0.106959
H188	H	0.683771	0.417806	0.693956
C189	C	0.305556	0.745326	-0.341206
H190	H	0.282728	0.837316	-0.390801
H191	H	0.321297	0.711245	-0.382321
H192	H	0.286632	0.711285	-0.306961
H193	H	0.152306	1.679553	0.000218
C194	C	0.796128	0.404099	0.477122
H195	H	0.792743	0.446494	0.399654
H196	H	0.814522	0.419856	0.512163
H197	H	0.814515	0.313319	0.512167
H198	H	0.223550	1.417859	-0.305791
C199	C	0.516842	0.303178	0.819603
H200	H	0.536862	0.281419	0.884844
H201	H	0.482318	0.334712	0.819612
H202	H	0.531350	0.228154	0.819598
C203	C	0.405745	0.404187	0.477257
H204	H	0.409629	0.340032	0.549827
H205	H	0.370098	0.473216	0.437326
H206	H	0.419130	0.366674	0.437297
H207	H	0.143264	1.592368	-0.106623
H208	H	0.272715	1.005119	-0.150997
H209	H	0.143274	1.592313	-0.480145
C210	C	0.386042	0.469531	-0.166335
H211	H	0.357731	0.509267	-0.227818
H212	H	0.417531	0.417003	-0.173245
H213	H	0.382858	0.417062	-0.097902
C214	C	0.405720	0.606163	0.275376
H215	H	0.389572	0.563791	0.282701
H216	H	0.380087	0.696935	0.235504
H217	H	0.429086	0.590442	0.235354
C218	C	0.305540	0.947315	-0.341323
H219	H	0.311019	0.999571	-0.329434
H220	H	0.307128	0.965732	-0.413191
H221	H	0.272461	0.965766	-0.337835
H222	H	0.532202	0.266795	0.151113
C223	C	0.785707	0.303123	0.701740
H224	H	0.815728	0.281380	0.679956
H225	H	0.785718	0.334619	0.745253
H226	H	0.785713	0.228097	0.745223
H227	H	0.532191	0.441303	0.151011
H228	H	-0.347383	1.005021	0.151062
H229	H	0.223531	1.417901	-0.106677
H230	H	-0.267115	1.005006	0.151097
H231	H	-0.143860	1.005034	0.234373
H232	H	-0.063598	1.005038	0.234389
C233	C	0.139633	1.707043	-0.701672
H234	H	0.149635	1.728809	-0.766930
H235	H	0.119615	1.675531	-0.701666
H236	H	0.119621	1.782059	-0.701648
C237	C	0.279005	1.005105	0.174948
H238	H	0.308527	1.005101	0.163022
H239	H	0.254417	1.080426	0.171524
H240	H	0.289093	0.929755	0.246814
H241	H	0.069144	1.005056	0.234401
C242	C	0.075529	1.005019	-0.258040
H243	H	0.056024	1.005001	-0.307620
H244	H	0.075458	1.080344	-0.299162
H245	H	0.110127	0.929673	-0.223833
H246	H	0.192460	1.005076	-0.150996
H247	H	-0.063530	1.004990	-0.234275
H248	H	-0.143790	1.004962	-0.234274
H249	H	-0.267069	1.005020	-0.151071
H250	H	-0.347342	1.005002	-0.151073
C251	C	-0.017448	1.005036	0.258193
H252	H	0.002065	1.005029	0.307784
H253	H	-0.052046	1.080361	0.224011
H254	H	-0.017367	0.929689	0.299315
H255	H	-0.011057	1.005018	-0.234264
H256	H	0.359312	1.454220	-0.637248
H257	H	0.516873	0.679478	0.443316
