data_functionalizedCrystal
_audit_creation_method	'MofGen! by Chris Wilmer'
_symmetry_space_group_name_H-M	'P1'
_symmetry_Int_Tables_number	1
_symmetry_cell_setting	triclinic
loop_
_symmetry_equiv_pos_as_xyz
  x,y,z
_cell_length_a	14.853567
_cell_length_b	12.837942
_cell_length_c	11.892095
_cell_angle_alpha	85.697431
_cell_angle_beta	86.098450
_cell_angle_gamma	90.768065
loop_
_atom_site_label
_atom_site_type_symbol
_atom_site_fract_x
_atom_site_fract_y
_atom_site_fract_z
O1	O	1.213037	-0.128743	-0.093924
O2	O	0.951946	-0.144866	-0.093943
O3	O	1.076702	0.014106	-0.093927
O4	O	1.088281	-0.287715	-0.093940
O5	O	1.066298	0.000872	0.094079
O6	O	0.941542	-0.158100	0.094063
O7	O	1.202633	-0.141977	0.094082
Zn8	Zn	1.070436	-0.152140	0.123923
Zn9	Zn	1.084143	-0.134703	-0.123783
O10	O	1.077878	-0.300949	0.094066
C11	C	0.913094	-0.150752	0.000058
C12	C	0.812825	-0.148562	0.000050
N13	N	1.061088	-0.164040	0.292976
C14	C	1.067588	0.046115	0.000075
C15	C	1.055923	0.161209	0.000073
C16	C	0.391494	-0.044876	0.000080
C17	C	0.386233	-0.233739	0.000071
C18	C	0.480442	-0.235798	0.000067
C19	C	0.530181	-0.142394	0.000068
C20	C	0.485712	-0.046931	0.000073
C21	C	0.524919	-0.331257	0.000051
C22	C	0.619133	-0.333320	0.000046
C23	C	0.668874	-0.239915	0.000055
C24	C	0.624399	-0.144449	0.000061
C25	C	0.674138	-0.051045	0.000062
C26	C	0.629664	0.044422	0.000076
C27	C	0.535453	0.046473	0.000082
C28	C	0.763085	-0.241966	0.000049
C29	C	0.768356	-0.053100	0.000055
C30	C	1.241486	-0.136091	0.000079
C31	C	1.341755	-0.138280	0.000079
C32	C	1.086991	-0.332958	0.000062
C33	C	1.098657	-0.448052	0.000057
C34	C	1.196170	0.401967	0.000059
C35	C	1.185213	0.510109	0.000057
C36	C	1.023053	0.485637	0.000056
C37	C	1.034010	0.377496	0.000059
C38	C	1.120571	0.335664	0.000062
C39	C	1.131527	0.227520	0.000073
C40	C	0.969368	0.203052	0.000065
C41	C	0.958411	0.311193	0.000062
N42	N	1.093498	-0.122795	-0.292836
C43	C	1.158543	-0.039933	0.529636
C44	C	1.152015	-0.048259	0.647977
C45	C	1.041502	-0.189010	0.648001
C46	C	1.048029	-0.180684	0.529660
C47	C	1.106552	-0.106145	0.470482
C48	C	1.113084	-0.097825	0.352138
C49	C	1.002566	-0.238571	0.352164
C50	C	0.996039	-0.246896	0.470505
H51	H	0.808847	0.022962	0.000060
N52	N	0.811051	-0.344922	0.000040
H53	H	0.878281	-0.332053	0.000039
H54	H	0.797286	-0.380888	-0.069661
H55	H	1.206201	0.020753	0.481452
N56	N	0.667098	-0.436279	0.000023
H57	H	0.621292	-0.495137	0.000019
H58	H	0.702222	-0.446158	0.069716
N59	N	0.332589	-0.334475	0.000058
H60	H	0.343979	-0.381028	0.069747
H61	H	0.351715	-0.371118	-0.069687
N62	N	1.224883	0.182396	0.000084
H63	H	1.271111	0.240813	0.000078
H64	H	1.236815	0.142961	-0.069610
N65	N	0.471276	-0.431994	0.000038
H66	H	0.404844	-0.416204	0.000050
H67	H	0.482744	-0.478501	0.069727
H68	H	0.887936	0.345268	0.000055
H69	H	0.907810	0.149055	0.000076
H70	H	1.194350	0.005658	0.696138
H71	H	0.670175	0.120471	0.000070
H72	H	0.952580	0.519717	0.000042
H73	H	0.499232	0.124195	0.000121
H74	H	0.993847	-0.249691	0.696199
H75	H	1.266650	0.367907	0.000073
N76	N	1.176205	-0.017438	0.288305
H77	H	1.208148	0.023245	0.343742
H78	H	1.140457	0.031919	0.239212
H79	H	0.948388	-0.307582	0.518702
N80	N	0.343534	0.058087	0.000111
H81	H	0.276303	0.045221	0.000121
H82	H	0.364998	0.103876	-0.069582
H83	H	0.960235	-0.292487	0.303987
H84	H	1.246774	0.564089	0.000051
