data_functionalizedCrystal
_audit_creation_method	'MofGen! by Chris Wilmer'
_symmetry_space_group_name_H-M	'P1'
_symmetry_Int_Tables_number	1
_symmetry_cell_setting	triclinic
loop_
_symmetry_equiv_pos_as_xyz
  x,y,z
_cell_length_a	10.908878
_cell_length_b	16.098524
_cell_length_c	11.026607
_cell_angle_alpha	87.604436
_cell_angle_beta	95.664596
_cell_angle_gamma	93.555436
loop_
_atom_site_label
_atom_site_type_symbol
_atom_site_fract_x
_atom_site_fract_y
_atom_site_fract_z
O1	O	1.668425	0.069243	0.175437
O2	O	1.315490	0.069247	0.084897
O3	O	1.462707	0.069242	0.300917
O4	O	1.521209	0.069248	-0.040583
O5	O	1.450755	-0.069271	0.308198
O6	O	1.303539	-0.069267	0.092177
O7	O	1.656473	-0.069271	0.182718
Zn8	Zn	1.478108	-0.091261	0.138603
Zn9	Zn	1.493855	0.091237	0.129011
O10	O	1.509257	-0.069266	-0.033303
C11	C	1.263629	-0.000009	0.080075
C12	C	1.126901	-0.000008	0.054877
N13	N	1.467370	-0.215810	0.145153
C14	C	1.056639	-0.000009	0.146821
C15	C	0.915323	-0.000007	0.120780
C16	C	1.554286	-0.259391	0.092096
C17	C	1.546789	-0.346581	0.096688
C18	C	1.452370	-0.390187	0.154330
C19	C	1.365450	-0.346600	0.207394
C20	C	1.372953	-0.259412	0.202809
C21	C	1.425184	-0.653438	0.170951
C22	C	1.417686	-0.740632	0.175530
C23	C	1.599026	-0.740607	0.064825
C24	C	1.606517	-0.653418	0.060238
C25	C	1.519601	-0.609838	0.113308
C26	C	1.444702	-0.479309	0.159023
C27	C	1.527274	-0.520718	0.108622
C28	C	1.708335	-0.000012	0.187539
C29	C	1.845063	-0.000008	0.212737
C30	C	1.445938	-0.000013	0.347590
C31	C	1.413766	-0.000010	0.475811
N32	N	1.504601	0.215786	0.122473
C33	C	1.526025	-0.000008	-0.079976
C34	C	1.558199	-0.000006	-0.208197
C35	C	1.502601	-0.000010	0.567544
C36	C	1.469351	-0.000007	0.700068
H37	H	1.101104	-0.000007	0.244817
H38	H	1.368674	0.000000	0.719637
N39	N	1.628902	-0.000007	0.543026
N40	N	1.703305	0.058378	0.577686
H41	H	1.792510	0.058381	0.560377
H42	H	1.354411	-0.617966	0.214165
H43	H	1.658882	0.000055	0.772233
N44	N	1.623728	-0.476192	0.049743
N45	N	1.701331	-0.515109	0.002372
H46	H	1.769454	-0.483657	-0.039212
H47	H	0.889522	-0.000004	0.310740
N48	N	0.859541	0.000000	-0.002160
N49	N	0.744825	0.000002	-0.023141
H50	H	0.705425	0.000007	-0.109965
N51	N	1.071114	-0.000000	-0.068056
N52	N	0.956398	0.000002	-0.089037
H53	H	0.916998	0.000007	-0.175861
N54	N	1.287478	0.000002	0.500375
N55	N	1.260648	0.000008	0.607994
H56	H	1.171454	0.000018	0.625341
H57	H	1.631166	-0.223893	0.045149
N58	N	1.635586	-0.391085	0.042493
N59	N	1.719880	-0.352141	-0.008972
H60	H	1.782600	-0.383571	-0.047248
H61	H	1.683405	-0.617919	0.013304
H62	H	1.669789	-0.776099	0.021620
H63	H	1.340792	-0.776134	0.222467
N64	N	1.269020	-0.391153	0.266284
N65	N	1.262332	-0.468998	0.270373
H66	H	1.194226	-0.500464	0.311964
N67	N	1.284182	-0.214905	0.257041
N68	N	1.199896	-0.253847	0.308522
H69	H	1.137206	-0.222415	0.346839
N70	N	1.348255	-0.523869	0.217878
N71	N	1.273426	-0.572533	0.158829
H72	H	1.205312	-0.604008	0.200396
