data_functionalizedCrystal
_audit_creation_method	'MofGen! by Chris Wilmer'
_symmetry_space_group_name_H-M	'P1'
_symmetry_Int_Tables_number	1
_symmetry_cell_setting	triclinic
loop_
_symmetry_equiv_pos_as_xyz
  x,y,z
_cell_length_a	29.839134
_cell_length_b	19.805405
_cell_length_c	29.839135
_cell_angle_alpha	90.015205
_cell_angle_beta	90.023549
_cell_angle_gamma	90.021271
loop_
_atom_site_label
_atom_site_type_symbol
_atom_site_fract_x
_atom_site_fract_y
_atom_site_fract_z
Zn1	Zn	0.686773	-0.269666	0.254126
Zn2	Zn	1.186773	0.230334	0.754126
Zn3	Zn	0.686723	-0.382826	0.178996
Zn4	Zn	1.186723	0.117174	0.678996
Zn5	Zn	0.611654	-0.269646	0.178995
Zn6	Zn	1.111654	0.230354	0.678995
Zn7	Zn	0.611624	-0.382808	0.254084
Zn8	Zn	1.111624	0.117192	0.754084
O9	O	0.649194	-0.326237	0.216550
O10	O	1.149194	0.173763	0.716550
O11	O	0.749634	-0.284693	0.244177
O12	O	1.249634	0.215307	0.744177
O13	O	0.676757	-0.367812	0.116129
O14	O	1.176757	0.132188	0.616129
O15	O	0.621653	-0.174932	0.188979
O16	O	1.121653	0.325068	0.688979
O17	O	0.749597	-0.367831	0.188980
O18	O	1.249597	0.132169	0.688980
O19	O	0.676842	-0.174947	0.244177
O20	O	1.176842	0.325053	0.744177
O21	O	0.621604	-0.284660	0.116128
O22	O	1.121604	0.215340	0.616128
O23	O	0.548783	-0.284642	0.188939
O24	O	1.048783	0.215358	0.688939
O25	O	0.621601	-0.367800	0.316957
O26	O	1.121601	0.132200	0.816957
O27	O	0.548761	-0.367781	0.244106
O28	O	1.048761	0.132219	0.744106
O29	O	0.676813	-0.284675	0.316987
O30	O	1.176813	0.215325	0.816987
O31	O	0.676727	-0.477540	0.188940
O32	O	1.176727	0.022460	0.688940
O33	O	0.621552	-0.477527	0.244107
O34	O	1.121552	0.022473	0.744107
C35	C	0.649143	-0.502093	0.216529
C36	C	1.149143	-0.002093	0.716529
C37	C	0.649163	-0.577325	0.216534
C38	C	1.149163	-0.077325	0.716534
C39	C	0.532471	-0.326208	0.216518
C40	C	1.032471	0.173792	0.716518
C41	C	0.482537	-0.326212	0.216515
C42	C	0.982537	0.173788	0.716515
C43	C	0.677920	-0.612653	0.187839
C44	C	1.177920	-0.112653	0.687839
C45	C	0.677939	-0.683342	0.187849
C46	C	1.177939	-0.183342	0.687849
C47	C	0.649198	-0.718700	0.216552
C48	C	1.149198	-0.218700	0.716552
C49	C	0.620439	-0.683367	0.245251
C50	C	1.120439	-0.183367	0.745251
C51	C	0.620423	-0.612679	0.245243
C52	C	1.120423	-0.112679	0.745243
C53	C	0.620505	-0.968440	0.245284
C54	C	1.120505	-0.468440	0.745284
C55	C	0.620523	-1.039132	0.245289
C56	C	1.120523	-0.539132	0.745289
C57	C	0.678022	-1.039102	0.187890
C58	C	1.178022	-0.539102	0.687890
C59	C	0.678006	-0.968415	0.187882
C60	C	1.178006	-0.468415	0.687882
C61	C	0.649248	-0.933088	0.216582
C62	C	1.149248	-0.433088	0.716582
C63	C	0.649229	-0.856439	0.216572
C64	C	1.149229	-0.356439	0.716572
C65	C	0.649215	-0.795347	0.216561
C66	C	1.149215	-0.295347	0.716561
C67	C	0.172891	-0.369591	0.245241
C68	C	0.672891	0.130409	0.745241
C69	C	-0.014782	-0.369610	0.245261
C70	C	0.485218	0.130390	0.745261
O71	O	-0.039049	-0.406461	0.269666
O72	O	0.460951	0.093539	0.769666
N73	N	-0.038248	-0.326262	0.216584
N74	N	0.461752	0.173738	0.716584
C75	C	-0.014794	-0.282902	0.187903
C76	C	0.485206	0.217098	0.687903
O77	O	-0.039060	-0.246026	0.163515
O78	O	0.460940	0.253974	0.663515
C79	C	0.172878	-0.282880	0.187885
C80	C	0.672878	0.217120	0.687885
C81	C	0.196342	-0.326236	0.216561
C82	C	0.696342	0.173764	0.716561
C83	C	0.196355	-0.412944	0.273914
C84	C	0.696355	0.087056	0.773914
C85	C	0.243271	-0.412941	0.273907
C86	C	0.743271	0.087059	0.773907
C87	C	0.266722	-0.369586	0.245227
C88	C	0.766722	0.130414	0.745227
C89	C	0.243258	-0.326234	0.216554
C90	C	0.743258	0.173766	0.716554
C91	C	0.196332	-0.239517	0.159206
C92	C	0.696332	0.260483	0.659206
C93	C	0.243253	-0.239514	0.159205
C94	C	0.743253	0.260486	0.659205
C95	C	0.266717	-0.282871	0.187881
C96	C	0.766717	0.217129	0.687881
C97	C	0.313625	-0.282876	0.187866
C98	C	0.813625	0.217124	0.687866
N99	N	0.337091	-0.326225	0.216543
N100	N	0.837091	0.173775	0.716543
C101	C	0.313640	-0.369580	0.245223
C102	C	0.813640	0.130420	0.745223
C103	C	-0.113324	-0.282917	0.187913
C104	C	0.386676	0.217083	0.687913
C105	C	-0.160242	-0.282923	0.187917
C106	C	0.339758	0.217077	0.687917
C107	C	-0.160227	-0.369631	0.245276
C108	C	0.339773	0.130369	0.745276
C109	C	-0.113309	-0.369628	0.245270
C110	C	0.386691	0.130372	0.745270
C111	C	-0.089858	-0.326266	0.216590
C112	C	0.410142	0.173734	0.716590
C113	C	0.412166	-0.369572	0.245206
C114	C	0.912166	0.130428	0.745206
C115	C	0.459085	-0.369567	0.245195
C116	C	0.959085	0.130433	0.745195
C117	C	0.459066	-0.282857	0.187838
C118	C	0.959066	0.217143	0.687838
C119	C	0.412151	-0.282863	0.187847
C120	C	0.912151	0.217137	0.687847
C121	C	0.388702	-0.326223	0.216535
C122	C	0.888702	0.173777	0.716535
O123	O	0.337920	-0.246039	0.163478
O124	O	0.837920	0.253961	0.663478
O125	O	0.337914	-0.406439	0.269614
O126	O	0.837914	0.093561	0.769614
C127	C	0.125976	-0.369594	0.245248
C128	C	0.625976	0.130406	0.745248
C129	C	0.102512	-0.326241	0.216575
C130	C	0.602512	0.173759	0.716575
C131	C	0.125963	-0.282886	0.187894
C132	C	0.625963	0.217114	0.687894
C133	C	0.055594	-0.326248	0.216578
C134	C	0.555594	0.173752	0.716578
C135	C	0.032142	-0.369603	0.245259
C136	C	0.532142	0.130397	0.745259
C137	C	0.055609	-0.412952	0.273935
C138	C	0.555609	0.087048	0.773935
C139	C	0.102524	-0.412949	0.273928
C140	C	0.602524	0.087051	0.773928
C141	C	0.102497	-0.239537	0.159217
C142	C	0.602497	0.260463	0.659217
C143	C	0.055581	-0.239544	0.159226
C144	C	0.555581	0.260456	0.659226
C145	C	0.032130	-0.282899	0.187907
C146	C	0.532130	0.217101	0.687907
C147	C	0.766372	-0.326266	0.216583
C148	C	1.266372	0.173734	0.716583
C149	C	0.816306	-0.326278	0.216597
C150	C	1.316306	0.173722	0.716597
C151	C	0.649209	-0.326237	0.333729
C152	C	1.149209	0.173763	0.833729
C153	C	0.649216	-0.326238	0.383663
C154	C	1.149216	0.173762	0.883663
C155	C	0.649257	-0.149694	0.216582
C156	C	1.149257	0.350306	0.716582
C157	C	0.649283	-0.074462	0.216596
C158	C	1.149283	0.425538	0.716596
C159	C	0.620473	-0.282943	0.693309
C160	C	1.120473	0.217057	1.193309
C161	C	0.620466	-0.282939	0.880982
C162	C	1.120466	0.217061	1.380982
O163	O	0.596032	-0.246141	0.905249
O164	O	1.096032	0.253859	1.405249
N165	N	0.649181	-0.326230	0.904448
N166	N	1.149181	0.173770	1.404448
C167	C	0.677898	-0.369528	0.880993
C168	C	1.177898	0.130472	1.380993
O169	O	0.702319	-0.406354	0.905259
O170	O	1.202319	0.093646	1.405259
C171	C	0.677903	-0.369535	0.693321
C172	C	1.177903	0.130465	1.193321
C173	C	0.649189	-0.326236	0.669857
C174	C	1.149189	0.173764	1.169857
C175	C	0.591762	-0.239649	0.669846
C176	C	1.091762	0.260351	1.169846
C177	C	0.591765	-0.239648	0.622930
C178	C	1.091765	0.260352	1.122930
C179	C	0.620481	-0.282941	0.599478
C180	C	1.120481	0.217059	1.099478
C181	C	0.649193	-0.326235	0.622942
C182	C	1.149193	0.173765	1.122942
C183	C	0.706617	-0.412836	0.669867
C184	C	1.206617	0.087164	1.169867
C185	C	0.706615	-0.412835	0.622946
C186	C	1.206615	0.087165	1.122946
C187	C	0.677901	-0.369536	0.599482
C188	C	1.177901	0.130464	1.099482
C189	C	0.677913	-0.369527	0.552575
C190	C	1.177913	0.130473	1.052575
N191	N	0.649197	-0.326237	0.529109
N192	N	1.149197	0.173763	1.029109
C193	C	0.620482	-0.282943	0.552560
C194	C	1.120482	0.217057	1.052560
C195	C	0.677895	-0.369520	0.979524
C196	C	1.177895	0.130480	1.479524
C197	C	0.677894	-0.369518	1.026442
C198	C	1.177894	0.130482	1.526442
C199	C	0.620461	-0.282930	1.026427
C200	C	1.120461	0.217070	1.526427
C201	C	0.620464	-0.282929	0.979509
C202	C	1.120464	0.217071	1.479509
C203	C	0.649179	-0.326229	0.956058
C204	C	1.149179	0.173771	1.456058
C205	C	0.620492	-0.282944	0.454035
C206	C	1.120492	0.217056	0.954035
C207	C	0.620500	-0.282945	0.407115
C208	C	1.120500	0.217055	0.907115
C209	C	0.677931	-0.369535	0.407133
C210	C	1.177931	0.130465	0.907133
C211	C	0.677925	-0.369532	0.454049
C212	C	1.177925	0.130468	0.954049
C213	C	0.649202	-0.326234	0.477498
C214	C	1.149202	0.173766	0.977498
O215	O	0.702331	-0.406311	0.528279
O216	O	1.202331	0.093689	1.028279
O217	O	0.596058	-0.246133	0.528287
O218	O	1.096058	0.253867	1.028287
C219	C	0.620470	-0.282944	0.740225
C220	C	1.120470	0.217056	1.240225
C221	C	0.649182	-0.326239	0.763688
C222	C	1.149182	0.173761	1.263688
C223	C	0.677897	-0.369532	0.740236
C224	C	1.177897	0.130468	1.240236
C225	C	0.649181	-0.326236	0.810606
C226	C	1.149181	0.173764	1.310606
C227	C	0.620465	-0.282943	0.834058
C228	C	1.120465	0.217057	1.334058
C229	C	0.591750	-0.239652	0.810592
C230	C	1.091750	0.260348	1.310592
C231	C	0.591754	-0.239651	0.763676
C232	C	1.091754	0.260349	1.263676
C233	C	0.706612	-0.412823	0.763703
C234	C	1.206612	0.087177	1.263703
C235	C	0.706607	-0.412820	0.810618
C236	C	1.206607	0.087180	1.310618
C237	C	0.677891	-0.369526	0.834070
C238	C	1.177891	0.130474	1.334070
C239	C	0.649177	-0.326244	1.099828
C240	C	1.149177	0.173756	1.599828
C241	C	0.649178	-0.326224	1.049893
C242	C	1.149178	0.173776	1.549893
H243	H	0.701356	-0.712103	0.164482
H244	H	1.201356	-0.212103	0.664482
H245	H	0.597006	-0.583915	0.268610
H246	H	1.097006	-0.083915	0.768610
H247	H	0.478188	-0.404876	0.268547
H248	H	0.978188	0.095124	0.768547
H249	H	0.730002	-0.448092	0.603854
H250	H	1.230002	0.051908	1.103854
C251	C	0.268691	-0.192522	0.127988
C252	C	0.768691	0.307478	0.627988
C253	C	0.257257	-0.207169	0.083523
C254	C	0.757257	0.292831	0.583523
C255	C	0.280685	-0.163904	0.054752
C256	C	0.780685	0.336096	0.554752
H257	H	0.261035	-0.147036	0.134559
H258	H	0.761035	0.352964	0.634559
H259	H	0.299998	-0.198733	0.132059
H260	H	0.799998	0.301267	0.632059
H261	H	0.225956	-0.200952	0.079454
H262	H	0.725956	0.299048	0.579454
H263	H	0.264914	-0.252647	0.076937
H264	H	0.764914	0.247353	0.576937
H265	H	0.311992	-0.170115	0.058823
H266	H	0.811992	0.329885	0.558823
H267	H	0.273027	-0.118420	0.061327
H268	H	0.773027	0.381580	0.561327
H269	H	0.272933	-0.173840	0.024579
H270	H	0.772933	0.326160	0.524579
H271	H	0.568372	-0.204393	0.744577
H272	H	1.068372	0.295607	1.244577
H273	H	0.701311	-0.404781	0.473154
H274	H	1.201311	0.095219	0.973154
H275	H	0.729995	-0.448080	0.744613
H276	H	1.229995	0.051920	1.244613
C277	C	0.030061	-0.459949	0.305059
C278	C	0.530061	0.040051	0.805059
C279	C	-0.016049	-0.450653	0.298930
C280	C	0.483951	0.049347	0.798930
C281	C	-0.039600	-0.493922	0.327598
C282	C	0.460400	0.006078	0.827598
H283	H	0.037679	-0.505440	0.298460
H284	H	0.537679	-0.005440	0.798460
H285	H	0.037740	-0.450104	0.335265
H286	H	0.537740	0.049896	0.835265
H287	H	-0.023725	-0.460502	0.268731
H288	H	0.476275	0.039498	0.768731
H289	H	-0.023680	-0.405170	0.305533
H290	H	0.476320	0.094830	0.805533
H291	H	-0.031921	-0.484078	0.357804
H292	H	0.468079	0.015922	0.857804
H293	H	-0.031978	-0.539410	0.320996
H294	H	0.468022	-0.039410	0.820996
H295	H	-0.070888	-0.487616	0.323447
H296	H	0.429112	0.012384	0.823447
C297	C	0.268798	-0.459897	0.305074
C298	C	0.768798	0.040103	0.805074
C299	C	0.295761	-0.421637	0.333907
C300	C	0.795761	0.078363	0.833907
C301	C	0.319283	-0.464869	0.362624
C302	C	0.819283	0.035131	0.862624
H303	H	0.248156	-0.485727	0.322197
H304	H	0.748156	0.014273	0.822197
H305	H	0.287113	-0.489343	0.287870
H306	H	0.787113	0.010657	0.787870
H307	H	0.277447	-0.392203	0.351109
H308	H	0.777447	0.107797	0.851109
H309	H	0.316411	-0.395808	0.316796
H310	H	0.816411	0.104192	0.816796
H311	H	0.337599	-0.494314	0.345420
H312	H	0.837599	0.005686	0.845420
H313	H	0.298639	-0.490697	0.379744
H314	H	0.798639	0.009303	0.879744
H315	H	0.337584	-0.438916	0.382187
H316	H	0.837584	0.061084	0.882187
C317	C	0.170980	-0.460097	0.305072
C318	C	0.670980	0.039903	0.805072
C319	C	0.201580	-0.498067	0.330170
C320	C	0.701580	0.001933	0.830170
C321	C	0.178224	-0.541525	0.358871
C322	C	0.678224	-0.041525	0.858871
H323	H	0.152689	-0.434338	0.324723
H324	H	0.652689	0.065662	0.824723
H325	H	0.152675	-0.489589	0.287862
H326	H	0.652675	0.010411	0.787862
H327	H	0.219877	-0.468578	0.347378
H328	H	0.719877	0.031422	0.847378
H329	H	0.219872	-0.523840	0.310531
H330	H	0.719872	-0.023840	0.810531
H331	H	0.159919	-0.571017	0.341662
H332	H	0.659919	-0.071017	0.841662
H333	H	0.159934	-0.515760	0.378519
H334	H	0.659934	-0.015760	0.878519
H335	H	0.198983	-0.567297	0.375901
H336	H	0.698983	-0.067297	0.875901
C337	C	0.589272	-0.235909	0.381722
C338	C	1.089272	0.264091	0.881722
C339	C	0.564115	-0.198011	0.412306
C340	C	1.064115	0.301989	0.912306
C341	C	0.535340	-0.154685	0.388932
C342	C	1.035340	0.345315	0.888932
H343	H	0.606418	-0.206360	0.363431
H344	H	1.106418	0.293640	0.863431
H345	H	0.569665	-0.261781	0.363415
H346	H	1.069665	0.238219	0.863415
H347	H	0.583719	-0.172142	0.430605
H348	H	1.083719	0.327858	0.930605
H349	H	0.546960	-0.227543	0.430598
H350	H	1.046960	0.272457	0.930598
H351	H	0.515733	-0.180556	0.370625
H352	H	1.015733	0.319444	0.870625
H353	H	0.552489	-0.125140	0.370642
H354	H	1.052489	0.374860	0.870642
H355	H	0.518264	-0.128970	0.409680
H356	H	1.018264	0.371030	0.909680
H357	H	0.597103	-0.247686	0.473122
H358	H	1.097103	0.252314	0.973122
C359	C	0.560654	-0.192604	0.695362
C360	C	1.060654	0.307396	1.195362
C361	C	0.586102	-0.149233	0.722323
C362	C	1.086102	0.350767	1.222323
C363	C	0.557461	-0.105887	0.745837
C364	C	1.057461	0.394113	1.245837
H365	H	0.543545	-0.166759	0.674715
H366	H	1.043545	0.333241	1.174715
H367	H	0.541075	-0.218468	0.713678
H368	H	1.041075	0.281532	1.213678
H369	H	0.605674	-0.123371	0.704009
H370	H	1.105674	0.376629	1.204009
H371	H	0.603211	-0.175059	0.742978
H372	H	1.103211	0.324941	1.242978
H373	H	0.537882	-0.131751	0.764153
H374	H	1.037882	0.368249	1.264153
H375	H	0.540354	-0.080047	0.725187
H376	H	1.040354	0.419953	1.225187
H377	H	0.574724	-0.076459	0.764136
H378	H	1.074724	0.423541	1.264136
C379	C	-0.185733	-0.235975	0.156715
C380	C	0.314267	0.264025	0.656715
C381	C	-0.212676	-0.274241	0.127866
C382	C	0.287324	0.225759	0.627866
C383	C	-0.236156	-0.231015	0.099110
C384	C	0.263844	0.268985	0.599110
H385	H	-0.204061	-0.206504	0.173875
H386	H	0.295939	0.293496	0.673875
H387	H	-0.165053	-0.210174	0.139609
H388	H	0.334947	0.289826	0.639609
H389	H	-0.233354	-0.300031	0.144970
H390	H	0.266646	0.199969	0.644970
H391	H	-0.194359	-0.303710	0.110696
H392	H	0.305641	0.196290	0.610696
H393	H	-0.215476	-0.205213	0.082004
H394	H	0.284524	0.294787	0.582004
H395	H	-0.254481	-0.201546	0.116274
H396	H	0.245519	0.298454	0.616274
H397	H	-0.254436	-0.256972	0.079530
H398	H	0.245564	0.243028	0.579530
H399	H	0.393079	-0.404878	0.268567
H400	H	0.893079	0.095122	0.768567
C401	C	0.560515	-0.192763	0.836082
C402	C	1.060515	0.307237	1.336082
C403	C	0.531701	-0.231091	0.862987
C404	C	1.031701	0.268909	1.362987
C405	C	0.502916	-0.187926	0.886473
C406	C	1.002916	0.312074	1.386473
H407	H	0.577656	-0.163264	0.854437
H408	H	1.077656	0.336736	1.354437
H409	H	0.543385	-0.166989	0.815405
H410	H	1.043385	0.333011	1.315405
H411	H	0.548829	-0.256853	0.883662
H412	H	1.048829	0.243147	1.383662
H413	H	0.514550	-0.260588	0.844644
H414	H	1.014550	0.239412	1.344644
H415	H	0.485787	-0.162152	0.865796
H416	H	0.985787	0.337848	1.365796
H417	H	0.520062	-0.158429	0.904825
H418	H	1.020062	0.341571	1.404825
H419	H	0.483361	-0.213925	0.904727
H420	H	0.983361	0.286075	1.404727
C421	C	-0.185775	-0.416626	0.276401
C422	C	0.314225	0.083374	0.776401
C423	C	-0.231885	-0.407333	0.270271
C424	C	0.268115	0.092667	0.770271
C425	C	-0.255435	-0.450599	0.298941
C426	C	0.244565	0.049401	0.798941
H427	H	-0.178156	-0.462118	0.269805
H428	H	0.321844	0.037882	0.769805
H429	H	-0.178096	-0.406777	0.306606
H430	H	0.321904	0.093223	0.806606
H431	H	-0.239560	-0.417187	0.240073
H432	H	0.260440	0.082813	0.740073
H433	H	-0.239517	-0.361850	0.276871
H434	H	0.260483	0.138150	0.776871
H435	H	-0.247756	-0.440750	0.329147
H436	H	0.252244	0.059250	0.829147
H437	H	-0.247812	-0.496088	0.292343
H438	H	0.252188	0.003912	0.792343
H439	H	-0.286723	-0.444296	0.294789
H440	H	0.213277	0.055704	0.794789
C441	C	0.709174	-0.574389	0.156656
C442	C	1.209174	-0.074389	0.656656
C443	C	0.734371	-0.620462	0.131537
C444	C	1.234371	-0.120462	0.631537
C445	C	0.763172	-0.585241	0.102811
C446	C	1.263172	-0.085241	0.602811
H447	H	0.692045	-0.546844	0.137020
H448	H	1.192045	-0.046844	0.637020
H449	H	0.728755	-0.546796	0.173849
H450	H	1.228755	-0.046796	0.673849
H451	H	0.714792	-0.648045	0.114345
H452	H	1.214792	-0.148045	0.614345
H453	H	0.751508	-0.648009	0.151161
H454	H	1.251508	-0.148009	0.651161
H455	H	0.782753	-0.557647	0.120004
H456	H	1.282753	-0.057647	0.620004
H457	H	0.746040	-0.557697	0.083177
H458	H	1.246040	-0.057697	0.583177
H459	H	0.780274	-0.616496	0.085767
H460	H	1.280274	-0.116496	0.585767
H461	H	0.597083	-0.247671	0.960408
H462	H	1.097083	0.252329	1.460408
C463	C	0.709260	-0.930149	0.156702
C464	C	1.209260	-0.430149	0.656702
C465	C	0.734459	-0.976218	0.131582
C466	C	1.234459	-0.476218	0.631582
C467	C	0.763262	-0.940993	0.102859
C468	C	1.263262	-0.440993	0.602859
H469	H	0.692133	-0.902601	0.137066
H470	H	1.192133	-0.402601	0.637066
H471	H	0.728840	-0.902556	0.173897
H472	H	1.228840	-0.402556	0.673897
H473	H	0.714882	-1.003799	0.114388
H474	H	1.214882	-0.503799	0.614388
H475	H	0.751596	-1.003767	0.151206
H476	H	1.251596	-0.503767	0.651206
H477	H	0.782841	-0.913401	0.120054
H478	H	1.282841	-0.413401	0.620054
H479	H	0.746131	-0.913447	0.083226
H480	H	1.246131	-0.413447	0.583226
H481	H	0.780365	-0.972246	0.085815
H482	H	1.280365	-0.472246	0.585815
H483	H	0.597119	-1.067919	0.268666
H484	H	1.097119	-0.567919	0.768666
C485	C	-0.087948	-0.235812	0.156721
C486	C	0.412052	0.264188	0.656721
C487	C	-0.118547	-0.197869	0.131603
C488	C	0.381453	0.302131	0.631603
C489	C	-0.095190	-0.154477	0.102859
C490	C	0.404810	0.345523	0.602859
H491	H	-0.069630	-0.206294	0.173887
H492	H	0.430370	0.293706	0.673887
H493	H	-0.069670	-0.261638	0.137088
H494	H	0.430330	0.238362	0.637088
H495	H	-0.136817	-0.172044	0.151234
H496	H	0.363183	0.327956	0.651234
H497	H	-0.136866	-0.227369	0.114428
H498	H	0.363134	0.272631	0.614428
H499	H	-0.076912	-0.180303	0.083226
H500	H	0.423088	0.319697	0.583226
H501	H	-0.076872	-0.124964	0.120029
H502	H	0.423128	0.375036	0.620029
H503	H	-0.115947	-0.128732	0.085810
H504	H	0.384053	0.371268	0.585810
H505	H	0.701439	-1.067874	0.164523
H506	H	1.201439	-0.567874	0.664523
C507	C	0.170853	-0.192567	0.127999
C508	C	0.670853	0.307433	0.627999
C509	C	0.143914	-0.230834	0.099147
C510	C	0.643914	0.269166	0.599147
C511	C	0.120446	-0.187611	0.070379
C512	C	0.620446	0.312389	0.570379
H513	H	0.152522	-0.163088	0.145151
H514	H	0.652522	0.336912	0.645151
H515	H	0.191540	-0.166774	0.110897
H516	H	0.691540	0.333226	0.610897
H517	H	0.123229	-0.256616	0.116248
H518	H	0.623229	0.243384	0.616248
H519	H	0.162233	-0.260312	0.081985
H520	H	0.662233	0.239688	0.581985
H521	H	0.141134	-0.161818	0.053277
H522	H	0.641134	0.338182	0.553277
H523	H	0.102119	-0.158134	0.087535
H524	H	0.602119	0.341866	0.587535
H525	H	0.102169	-0.213569	0.050797
H526	H	0.602169	0.286431	0.550797
H527	H	0.597090	-0.939682	0.268652
H528	H	1.097090	-0.439682	0.768652
H529	H	0.597039	-0.712161	0.268624
H530	H	1.097039	-0.212161	0.768624
C531	C	0.589207	-0.235967	1.051835
C532	C	1.089207	0.264033	1.551835
C533	C	0.544754	-0.250694	1.040393
C534	C	1.044754	0.249306	1.540393
C535	C	0.515949	-0.207447	1.063786
C536	C	1.015949	0.292553	1.563786
H537	H	0.593258	-0.242126	1.083145
H538	H	1.093258	0.257874	1.583145
H539	H	0.595765	-0.190478	1.044149
H540	H	1.095765	0.309522	1.544149
H541	H	0.538198	-0.296173	1.048082
H542	H	1.038198	0.203827	1.548082
H543	H	0.540688	-0.244531	1.009087
H544	H	1.040688	0.255469	1.509087
H545	H	0.522508	-0.161958	1.056100
H546	H	1.022508	0.338042	1.556100
H547	H	0.520005	-0.213610	1.095095
H548	H	1.020005	0.286390	1.595095
H549	H	0.485785	-0.217429	1.056023
H550	H	0.985785	0.282571	1.556023
H551	H	0.701278	-0.404784	0.960434
H552	H	1.201278	0.095216	1.460434
C553	C	0.709148	-0.416483	1.051854
C554	C	1.209148	0.083517	1.551854
C555	C	0.753601	-0.401766	1.040450
C556	C	1.253601	0.098234	1.540450
C557	C	0.782403	-0.445027	1.063843
C558	C	1.282403	0.054973	1.563843
H559	H	0.705101	-0.410331	1.083164
H560	H	1.205101	0.089669	1.583164
H561	H	0.702582	-0.461969	1.044142
H562	H	1.202582	0.038031	1.544142
H563	H	0.760164	-0.356291	1.048164
H564	H	1.260164	0.143709	1.548164
H565	H	0.757662	-0.407922	1.009144
H566	H	1.257662	0.092078	1.509144
H567	H	0.775838	-0.490513	1.056131
H568	H	1.275838	0.009487	1.556131
H569	H	0.778352	-0.438871	1.095152
H570	H	1.278352	0.061129	1.595152
H571	H	0.812567	-0.435052	1.056105
H572	H	1.312567	0.064948	1.556105
H573	H	0.393045	-0.247560	0.164496
H574	H	0.893045	0.252440	0.664496
C575	C	0.484474	-0.235678	0.156724
C576	C	0.984474	0.264322	0.656724
C577	C	0.473074	-0.168734	0.166582
C578	C	0.973074	0.331266	0.666582
C579	C	0.496466	-0.125252	0.137926
C580	C	0.996466	0.374748	0.637926
H581	H	0.515784	-0.241794	0.160800
H582	H	1.015784	0.258206	0.660800
H583	H	0.476758	-0.245472	0.126520
H584	H	0.976758	0.254528	0.626520
H585	H	0.480793	-0.158944	0.196778
H586	H	0.980793	0.341056	0.696778
H587	H	0.441768	-0.162596	0.162503
H588	H	0.941768	0.337404	0.662503
H589	H	0.488750	-0.135046	0.107722
H590	H	0.988750	0.364954	0.607722
H591	H	0.527775	-0.131374	0.142004
H592	H	1.027775	0.368626	0.642004
H593	H	0.488732	-0.079826	0.144608
H594	H	0.988732	0.420174	0.644608
H595	H	-0.094207	-0.404932	0.268620
H596	H	0.405793	0.095068	0.768620
C597	C	0.030172	-0.192506	0.128013
C598	C	0.530172	0.307494	0.628013
C599	C	0.041573	-0.207131	0.083546
C600	C	0.541573	0.292869	0.583546
C601	C	0.018184	-0.163805	0.054783
C602	C	0.518184	0.336195	0.554783
H603	H	-0.001138	-0.198662	0.132056
H604	H	0.498862	0.301338	0.632056
H605	H	0.037890	-0.147036	0.134617
H606	H	0.537890	0.352964	0.634617
H607	H	0.033851	-0.252590	0.076944
H608	H	0.533851	0.247410	0.576944
H609	H	0.072879	-0.200970	0.079489
H610	H	0.572879	0.299030	0.579489
H611	H	0.025902	-0.118334	0.061387
H612	H	0.525902	0.381666	0.561387
H613	H	-0.013125	-0.169964	0.058830
H614	H	0.486875	0.330036	0.558830
H615	H	0.025919	-0.173717	0.024609
H616	H	0.525919	0.326283	0.524609
C617	C	0.560537	-0.192616	0.597540
C618	C	1.060537	0.307384	1.097540
C619	C	0.535383	-0.154721	0.628128
C620	C	1.035383	0.345279	1.128128
C621	C	0.506604	-0.111394	0.604759
C622	C	1.006604	0.388606	1.104759
H623	H	0.577680	-0.163065	0.579248
H624	H	1.077680	0.336935	1.079248
H625	H	0.540928	-0.218488	0.579235
H626	H	1.040928	0.281512	1.079235
H627	H	0.554989	-0.128851	0.646426
H628	H	1.054989	0.371149	1.146426
H629	H	0.518231	-0.184254	0.646422
H630	H	1.018231	0.315746	1.146422
H631	H	0.486995	-0.137266	0.586454
H632	H	0.986995	0.362734	1.086454
H633	H	0.523750	-0.081848	0.586468
H634	H	1.023750	0.418152	1.086468
H635	H	0.489531	-0.085682	0.625509
H636	H	0.989531	0.414318	1.125509
C637	C	0.737808	-0.459926	0.695252
C638	C	1.237808	0.040074	1.195252
C639	C	0.762940	-0.497851	0.664663
C640	C	1.262940	0.002149	1.164663
C641	C	0.791674	-0.541247	0.688031
C642	C	1.291674	-0.041247	1.188031
H643	H	0.757435	-0.434125	0.713571
H644	H	1.257435	0.065875	1.213571
H645	H	0.720619	-0.489450	0.713530
H646	H	1.220619	0.010550	1.213530
H647	H	0.780128	-0.468330	0.646393
H648	H	1.280128	0.031670	1.146393
H649	H	0.743325	-0.523665	0.646343
H650	H	1.243325	-0.023665	1.146343
H651	H	0.774485	-0.570772	0.706309
H652	H	1.274485	-0.070772	1.206309
H653	H	0.811298	-0.515441	0.706349
H654	H	1.311298	-0.015441	1.206349
H655	H	0.808727	-0.566989	0.667280
H656	H	1.308727	-0.066989	1.167280
C657	C	0.709076	-0.416651	0.381721
C658	C	1.209076	0.083349	0.881721
C659	C	0.699270	-0.483615	0.393125
C660	C	1.199270	0.016385	0.893125
C661	C	0.727952	-0.527042	0.369727
C662	C	1.227952	-0.027042	0.869727
H663	H	0.704989	-0.410539	0.350412
H664	H	1.204989	0.089461	0.850412
H665	H	0.739275	-0.406804	0.389430
H666	H	1.239275	0.093196	0.889430
H667	H	0.669079	-0.493459	0.385413
H668	H	1.169079	0.006541	0.885413
H669	H	0.703361	-0.489748	0.424430
H670	H	1.203361	0.010252	0.924430
H671	H	0.758151	-0.517194	0.377436
H672	H	1.258151	-0.017194	0.877436
H673	H	0.723862	-0.520924	0.338419
H674	H	1.223862	-0.020924	0.838419
H675	H	0.721306	-0.572481	0.377464
H676	H	1.221306	-0.072481	0.877464
C677	C	0.737859	-0.459794	0.836030
C678	C	1.237859	0.040206	1.336030
C679	C	0.782314	-0.445081	0.824630
C680	C	1.282314	0.054919	1.324630
C681	C	0.811112	-0.488349	0.848023
C682	C	1.311112	0.011651	1.348023
H683	H	0.733810	-0.453646	0.867340
H684	H	1.233810	0.046354	1.367340
H685	H	0.731292	-0.505278	0.828315
H686	H	1.231292	-0.005278	1.328315
H687	H	0.788879	-0.399608	0.832348
H688	H	1.288879	0.100392	1.332348
H689	H	0.786377	-0.451233	0.793324
H690	H	1.286377	0.048767	1.293324
H691	H	0.804545	-0.533833	0.840308
H692	H	1.304545	-0.033833	1.340308
H693	H	0.807059	-0.482197	0.879332
H694	H	1.307059	0.017803	1.379332
H695	H	0.841277	-0.478376	0.840288
H696	H	1.341277	0.021624	1.340288
H697	H	0.121624	-0.448254	0.297279
H698	H	0.621624	0.051746	0.797279
H699	H	0.121586	-0.204232	0.135862
H700	H	0.621586	0.295768	0.635862
