data_functionalizedCrystal
_audit_creation_method	'MofGen! by Chris Wilmer'
_symmetry_space_group_name_H-M	'P1'
_symmetry_Int_Tables_number	1
_symmetry_cell_setting	triclinic
loop_
_symmetry_equiv_pos_as_xyz
  x,y,z
_cell_length_a	12.759401
_cell_length_b	16.625545
_cell_length_c	12.759393
_cell_angle_alpha	89.967170
_cell_angle_beta	89.980404
_cell_angle_gamma	90.025835
loop_
_atom_site_label
_atom_site_type_symbol
_atom_site_fract_x
_atom_site_fract_y
_atom_site_fract_z
Zn1	Zn	1.606187	-0.320957	-0.593965
Zn2	Zn	1.606045	-0.455811	-0.418278
Zn3	Zn	1.430486	-0.320997	-0.418305
Zn4	Zn	1.430444	-0.455752	-0.593920
O5	O	1.518291	-0.388379	-0.506117
O6	O	1.753189	-0.338853	-0.570668
O7	O	1.582714	-0.437969	-0.271261
O8	O	1.453870	-0.208159	-0.441637
O9	O	1.753085	-0.437930	-0.441592
O10	O	1.582957	-0.208130	-0.570694
O11	O	1.453732	-0.338922	-0.271280
O12	O	1.283459	-0.338864	-0.441592
O13	O	1.453799	-0.437829	-0.740947
O14	O	1.283429	-0.437868	-0.570616
O15	O	1.582917	-0.338796	-0.740980
O16	O	1.582674	-0.568635	-0.441547
O17	O	1.453661	-0.568592	-0.570590
C18	C	1.245323	-0.388365	-0.506103
C19	C	1.128547	-0.388378	-0.506121
C20	C	0.963965	-0.440020	-0.573205
C21	C	1.073689	-0.440011	-0.573194
C22	C	1.073674	-0.336756	-0.439047
C23	C	0.963952	-0.336770	-0.439054
C24	C	1.518176	-0.597870	-0.506084
C25	C	1.518224	-0.687491	-0.506105
C26	C	1.518264	-0.760273	-0.506126
C27	C	1.518326	-0.851582	-0.506149
C28	C	1.518380	-0.924358	-0.506162
C29	C	1.518440	-1.015672	-0.506184
C30	C	1.792324	-0.388394	-0.506132
C31	C	1.909100	-0.388400	-0.506139
C32	C	1.518369	-0.388302	-0.780151
C33	C	1.518403	-0.388269	-0.896927
C34	C	1.518434	-0.178070	-0.506173
C35	C	1.518495	-0.088449	-0.506197
C36	C	1.585639	-0.336694	-0.951808
C37	C	1.585657	-0.336659	-1.061533
C38	C	1.451199	-0.439781	-1.061485
C39	C	1.451177	-0.439811	-0.951763
C40	C	1.518273	-0.388398	-0.233150
C41	C	1.518443	-0.388204	-0.116374
H42	H	1.118348	-0.294719	-0.384430
Br43	Br	0.889486	-0.266715	-0.348021
Br44	Br	1.676872	-0.266742	-0.877392
Br45	Br	1.676918	-0.266667	-1.136011
Br46	Br	0.889526	-0.510091	-0.664247
H47	H	1.396468	-0.481747	-1.106145
H48	H	1.118355	-0.482045	-0.627806
Br49	Br	1.359911	-0.509803	-0.877274
