data_functionalizedCrystal
_audit_creation_method	'MofGen! by Chris Wilmer'
_symmetry_space_group_name_H-M	'P1'
_symmetry_Int_Tables_number	1
_symmetry_cell_setting	triclinic
loop_
_symmetry_equiv_pos_as_xyz
  x,y,z
_cell_length_a	16.109302
_cell_length_b	9.482900
_cell_length_c	16.109301
_cell_angle_alpha	99.330319
_cell_angle_beta	96.538369
_cell_angle_gamma	99.288686
loop_
_atom_site_label
_atom_site_type_symbol
_atom_site_fract_x
_atom_site_fract_y
_atom_site_fract_z
O1	O	1.116101	0.120965	-0.093841
O2	O	1.366101	0.370965	0.156159
O3	O	1.616101	0.620965	0.406159
O4	O	1.866101	0.870965	0.656159
O5	O	0.874038	0.120954	-0.107141
O6	O	1.124038	0.370954	0.142859
O7	O	1.374038	0.620954	0.392859
O8	O	1.624038	0.870954	0.642859
O9	O	1.001717	0.120945	0.020538
O10	O	1.251717	0.370945	0.270538
O11	O	1.501717	0.620945	0.520538
O12	O	1.751717	0.870945	0.770538
O13	O	0.988421	0.120974	-0.221521
O14	O	1.238421	0.370974	0.028479
O15	O	1.488421	0.620974	0.278479
O16	O	1.738421	0.870974	0.528479
O17	O	0.975783	-0.120845	-0.005500
O18	O	1.225783	0.129155	0.244500
O19	O	1.475783	0.379155	0.494500
O20	O	1.725783	0.629155	0.744500
O21	O	0.848103	-0.120836	-0.133180
O22	O	1.098103	0.129164	0.116820
O23	O	1.348103	0.379164	0.366820
O24	O	1.598103	0.629164	0.616820
O25	O	1.090166	-0.120826	-0.119880
O26	O	1.340166	0.129174	0.130120
O27	O	1.590166	0.379174	0.380120
O28	O	1.840166	0.629174	0.630120
Cu29	Cu	0.966767	-0.142908	-0.128907
Cu30	Cu	1.216767	0.107092	0.121093
Cu31	Cu	1.466767	0.357092	0.371093
Cu32	Cu	1.716767	0.607092	0.621093
Cu33	Cu	0.997437	0.143037	-0.098114
Cu34	Cu	1.247437	0.393037	0.151886
Cu35	Cu	1.497437	0.643037	0.401886
Cu36	Cu	1.747437	0.893037	0.651886
O37	O	0.962487	-0.120816	-0.247559
O38	O	1.212487	0.129184	0.002441
O39	O	1.462487	0.379184	0.252441
O40	O	1.712487	0.629184	0.502441
C41	C	0.830095	0.000057	-0.119622
C42	C	1.080095	0.250057	0.130378
C43	C	1.330095	0.500057	0.380378
C44	C	1.580095	0.750057	0.630378
C45	C	0.737800	0.000053	-0.118007
C46	C	0.987800	0.250053	0.131993
C47	C	1.237800	0.500053	0.381993
C48	C	1.487800	0.750053	0.631993
C49	C	0.511323	-0.131733	-0.128464
C50	C	0.761323	0.118267	0.121536
C51	C	1.011323	0.368267	0.371536
C52	C	1.261323	0.618267	0.621536
C53	C	0.424604	-0.131728	-0.126937
C54	C	0.674604	0.118272	0.123063
C55	C	0.924604	0.368272	0.373063
C56	C	1.174604	0.618272	0.623063
C57	C	0.452890	0.131885	-0.098552
C58	C	0.702890	0.381885	0.151448
C59	C	0.952890	0.631885	0.401448
C60	C	1.202890	0.881885	0.651448
C61	C	0.539608	0.131879	-0.100074
C62	C	0.789608	0.381879	0.149926
C63	C	1.039608	0.631879	0.399926
C64	C	1.289608	0.881879	0.649926
C65	C	0.568822	0.000065	-0.115034
C66	C	0.818822	0.250065	0.134966
C67	C	1.068822	0.500065	0.384966
C68	C	1.318822	0.750065	0.634966
C69	C	0.395384	0.000076	-0.111985
C70	C	0.645384	0.250076	0.138015
C71	C	0.895384	0.500076	0.388015
C72	C	1.145384	0.750076	0.638015
C73	C	0.301359	0.000083	-0.110329
C74	C	0.551359	0.250083	0.139671
C75	C	0.801359	0.500083	0.389671
C76	C	1.051359	0.750083	0.639671
C77	C	0.662853	0.000058	-0.116689
C78	C	0.912853	0.250058	0.133311
C79	C	1.162853	0.500058	0.383311
C80	C	1.412853	0.750058	0.633311
N81	N	0.945200	-0.344027	-0.150565
N82	N	1.195200	-0.094027	0.099435
N83	N	1.445200	0.155973	0.349435
N84	N	1.695200	0.405973	0.599435
C85	C	0.991070	-0.416229	-0.104497
C86	C	1.241070	-0.166229	0.145503
C87	C	1.491070	0.083771	0.395503
C88	C	1.741070	0.333771	0.645503
C89	C	0.973133	-0.583646	-0.122524
C90	C	1.223133	-0.333646	0.127476
C91	C	1.473133	-0.083646	0.377476
C92	C	1.723133	0.166354	0.627476
C93	C	1.134109	0.000075	-0.107399
C94	C	1.384109	0.250075	0.142601
C95	C	1.634109	0.500075	0.392601
C96	C	1.884109	0.750075	0.642601
C97	C	1.226406	0.000089	-0.109013
C98	C	1.476406	0.250089	0.140987
C99	C	1.726406	0.500089	0.390987
C100	C	1.976406	0.750089	0.640987
C101	C	0.988211	0.000049	0.038494
C102	C	1.238211	0.250049	0.288494
C103	C	1.488211	0.500049	0.538494
C104	C	1.738211	0.750049	0.788494
C105	C	0.986596	0.000047	0.130789
C106	C	1.236596	0.250047	0.380789
C107	C	1.486596	0.500047	0.630789
C108	C	1.736596	0.750047	0.880789
N109	N	1.019010	0.344156	-0.076449
N110	N	1.269010	0.594156	0.173551
N111	N	1.519010	0.844156	0.423551
N112	N	1.769010	1.094156	0.673551
C113	C	0.975993	0.000083	-0.265514
C114	C	1.225993	0.250083	-0.015514
C115	C	1.475993	0.500083	0.234486
C116	C	1.725993	0.750083	0.484486
C117	C	0.977609	0.000095	-0.357808
C118	C	1.227609	0.250095	-0.107808
C119	C	1.477609	0.500095	0.142192
C120	C	1.727609	0.750095	0.392192
C121	C	1.058606	0.000073	0.353064
C122	C	1.308606	0.250073	0.603064
C123	C	1.558606	0.500073	0.853064
C124	C	1.808606	0.750073	1.103064
C125	C	1.057084	0.000085	0.439786
C126	C	1.307084	0.250085	0.689786
C127	C	1.557084	0.500085	0.939786
C128	C	1.807084	0.750085	1.189786
C129	C	0.905594	0.000073	0.419910
C130	C	1.155594	0.250073	0.669910
C131	C	1.405594	0.500073	0.919910
C132	C	1.655594	0.750073	1.169910
C133	C	0.907118	0.000071	0.333191
C134	C	1.157118	0.250071	0.583191
C135	C	1.407118	0.500071	0.833191
C136	C	1.657118	0.750071	1.083191
C137	C	0.983626	0.000064	0.299770
C138	C	1.233626	0.250064	0.549770
C139	C	1.483626	0.500064	0.799770
C140	C	1.733626	0.750064	1.049770
C141	C	0.980579	0.000077	0.473210
C142	C	1.230579	0.250077	0.723210
C143	C	1.480579	0.500077	0.973210
C144	C	1.730579	0.750077	1.223210
C145	C	0.978927	0.000090	0.567238
C146	C	1.228927	0.250090	0.817238
C147	C	1.478927	0.500090	1.067238
C148	C	1.728927	0.750090	1.317238
C149	C	0.985279	0.000054	0.205737
C150	C	1.235279	0.250054	0.455737
C151	C	1.485279	0.500054	0.705737
C152	C	1.735279	0.750054	0.955737
H153	H	0.586427	0.239211	-0.089135
H154	H	0.836427	0.489211	0.160865
H155	H	1.086427	0.739211	0.410865
H156	H	1.336427	0.989211	0.660865
F157	F	1.087841	-0.574655	-0.007587
F158	F	1.337841	-0.324655	0.242413
F159	F	1.587841	-0.074655	0.492413
F160	F	1.837841	0.175345	0.742413
H161	H	0.535105	-0.239064	-0.140646
H162	H	0.785105	0.010936	0.109354
H163	H	1.035105	0.260936	0.359354
H164	H	1.285105	0.510936	0.609354
H165	H	1.120904	0.000071	0.325856
H166	H	1.370904	0.250071	0.575856
H167	H	1.620904	0.500071	0.825856
H168	H	1.870904	0.750071	1.075856
H169	H	0.429093	0.239203	-0.086373
H170	H	0.679093	0.489203	0.163627
H171	H	0.929093	0.739203	0.413627
H172	H	1.179093	0.989203	0.663627
H173	H	0.892647	-0.406153	-0.203348
H174	H	1.142647	-0.156153	0.046652
H175	H	1.392647	0.093847	0.296652
H176	H	1.642647	0.343847	0.546652
H177	H	0.843303	0.000076	0.447133
H178	H	1.093303	0.250076	0.697133
H179	H	1.343303	0.500076	0.947133
H180	H	1.593303	0.750076	1.197133
F181	F	1.136888	0.000098	0.496502
F182	F	1.386888	0.250098	0.746502
F183	F	1.636888	0.500098	0.996502
F184	F	1.886888	0.750098	1.246502
H185	H	0.846057	0.000068	0.289797
H186	H	1.096057	0.250068	0.539797
H187	H	1.346057	0.500068	0.789797
H188	H	1.596057	0.750068	1.039797
F189	F	0.904437	-0.664838	-0.191520
F190	F	1.154437	-0.414838	0.058480
F191	F	1.404437	-0.164838	0.308480
F192	F	1.654437	0.085162	0.558480
F193	F	1.059611	-0.335032	-0.035354
F194	F	1.309611	-0.085032	0.214646
F195	F	1.559611	0.164968	0.464646
F196	F	1.809611	0.414968	0.714646
F197	F	0.363412	-0.272007	-0.141231
F198	F	0.613412	-0.022007	0.108769
F199	F	0.863412	0.227993	0.358769
F200	F	1.113412	0.477993	0.608769
