data_functionalizedCrystal
_audit_creation_method	'MofGen! by Chris Wilmer'
_symmetry_space_group_name_H-M	'P1'
_symmetry_Int_Tables_number	1
_symmetry_cell_setting	triclinic
loop_
_symmetry_equiv_pos_as_xyz
  x,y,z
_cell_length_a	14.586319
_cell_length_b	16.109301
_cell_length_c	16.109301
_cell_angle_alpha	83.461481
_cell_angle_beta	90.005214
_cell_angle_gamma	90.000787
loop_
_atom_site_label
_atom_site_type_symbol
_atom_site_fract_x
_atom_site_fract_y
_atom_site_fract_z
O1	O	-0.076185	-1.103131	-0.106866
O2	O	0.257148	-0.769797	0.226467
O3	O	0.590481	-0.436464	0.559801
O4	O	-0.076200	-0.861069	-0.120165
O5	O	0.257133	-0.527735	0.213168
O6	O	0.590466	-0.194402	0.546501
O7	O	-0.076183	-0.988749	0.007515
O8	O	0.257150	-0.655416	0.340849
O9	O	0.590484	-0.322083	0.674182
O10	O	-0.076203	-0.975450	-0.234547
O11	O	0.257131	-0.642117	0.098787
O12	O	0.590464	-0.308783	0.432120
O13	O	0.076298	-0.988741	0.007517
O14	O	0.409631	-0.655407	0.340850
O15	O	0.742964	-0.322074	0.674184
O16	O	0.076281	-0.861060	-0.120164
O17	O	0.409614	-0.527727	0.213170
O18	O	0.742947	-0.194393	0.546503
O19	O	0.076295	-1.103122	-0.106864
O20	O	0.409629	-0.769789	0.226469
O21	O	0.742962	-0.436455	0.559802
Cu22	Cu	0.090211	-0.982090	-0.113514
Cu23	Cu	0.423544	-0.648757	0.219820
Cu24	Cu	0.756877	-0.315423	0.553153
Cu25	Cu	-0.090115	-0.982101	-0.113516
Cu26	Cu	0.243218	-0.648767	0.219817
Cu27	Cu	0.576551	-0.315434	0.553151
O28	O	0.076278	-0.975441	-0.234545
O29	O	0.409612	-0.642108	0.098788
O30	O	0.742945	-0.308775	0.432122
C31	C	0.000038	-0.830090	-0.119626
C32	C	0.333372	-0.496756	0.213708
C33	C	0.666705	-0.163423	0.547041
C34	C	0.000033	-0.737794	-0.118011
C35	C	0.333366	-0.404461	0.215323
C36	C	0.666700	-0.071128	0.548656
N37	N	0.217042	-0.982089	-0.113512
N38	N	0.550376	-0.648755	0.219822
N39	N	0.883709	-0.315422	0.553155
N40	N	-0.216947	-0.982109	-0.113511
N41	N	0.116386	-0.648775	0.219822
N42	N	0.449719	-0.315442	0.553155
C43	C	0.000058	-0.988206	0.038491
C44	C	0.333391	-0.654873	0.371824
C45	C	0.666724	-0.321540	0.705158
C46	C	0.000059	-0.986591	0.130786
C47	C	0.333392	-0.653258	0.464120
C48	C	0.666726	-0.319925	0.797453
C49	C	0.452057	-1.038644	-0.056994
C50	C	0.785390	-0.705311	0.276340
C51	C	1.118723	-0.371978	0.609673
C52	C	0.548038	-1.038647	-0.056992
C53	C	0.881371	-0.705314	0.276342
C54	C	1.214704	-0.371980	0.609675
C55	C	0.548032	-0.925547	-0.170032
C56	C	0.881365	-0.592213	0.163301
C57	C	1.214699	-0.258880	0.496634
C58	C	0.452052	-0.925541	-0.170030
C59	C	0.785386	-0.592208	0.163304
C60	C	1.118719	-0.258874	0.496637
C61	C	0.404067	-0.982095	-0.113511
C62	C	0.737401	-0.648761	0.219822
C63	C	1.070734	-0.315428	0.553155
C64	C	0.596028	-0.982103	-0.113512
C65	C	0.929361	-0.648769	0.219822
C66	C	1.262695	-0.315436	0.553155
C67	C	0.700095	-0.982105	-0.113510
C68	C	1.033428	-0.648772	0.219823
C69	C	1.366762	-0.315438	0.553157
C70	C	0.299993	-0.982092	-0.113512
C71	C	0.633327	-0.648758	0.219822
C72	C	0.966660	-0.315425	0.553155
C73	C	0.000055	-1.134101	-0.107404
C74	C	0.333388	-0.800768	0.225929
C75	C	0.666722	-0.467435	0.559263
C76	C	0.000054	-1.226397	-0.109019
C77	C	0.333388	-0.893063	0.224314
C78	C	0.666721	-0.559730	0.557648
C79	C	0.000038	-0.515522	-0.190018
C80	C	0.333371	-0.182188	0.143315
C81	C	0.666704	0.151145	0.476648
C82	C	0.000044	-0.428801	-0.188494
C83	C	0.333377	-0.095468	0.144839
C84	C	0.666710	0.237865	0.478172
C85	C	0.000052	-0.448676	-0.037006
C86	C	0.333386	-0.115342	0.296328
C87	C	0.666719	0.217991	0.629661
C88	C	0.000053	-0.535394	-0.038530
C89	C	0.333386	-0.202061	0.294803
C90	C	0.666719	0.131272	0.628136
C91	C	0.000041	-0.568815	-0.115039
C92	C	0.333374	-0.235482	0.218294
C93	C	0.666708	0.097852	0.551627
C94	C	0.000046	-0.395376	-0.111990
C95	C	0.333380	-0.062042	0.221343
C96	C	0.666713	0.271291	0.554676
C97	C	0.000053	-0.301350	-0.110337
C98	C	0.333386	0.031984	0.222996
C99	C	0.666720	0.365317	0.556329
C100	C	0.000036	-0.662847	-0.116693
C101	C	0.333369	-0.329514	0.216641
C102	C	0.666703	0.003820	0.549974
C103	C	0.000035	-0.975984	-0.265521
C104	C	0.333369	-0.642651	0.067813
C105	C	0.666702	-0.309318	0.401146
C106	C	0.000028	-0.977600	-0.357816
C107	C	0.333362	-0.644266	-0.024483
C108	C	0.666695	-0.310933	0.308851
C109	C	0.000049	-1.058599	0.353059
C110	C	0.333382	-0.725266	0.686392
C111	C	0.666716	-0.391932	1.019725
C112	C	0.000041	-1.057075	0.439779
C113	C	0.333375	-0.723742	0.773112
C114	C	0.666708	-0.390408	1.106446
C115	C	0.000036	-0.905586	0.419905
C116	C	0.333369	-0.572253	0.753238
C117	C	0.666702	-0.238919	1.086571
C118	C	0.000037	-0.907111	0.333186
C119	C	0.333370	-0.573778	0.666519
C120	C	0.666703	-0.240444	0.999853
C121	C	0.000048	-0.983620	0.299766
C122	C	0.333381	-0.650287	0.633099
C123	C	0.666715	-0.316953	0.966432
C124	C	0.000039	-0.980571	0.473205
C125	C	0.333373	-0.647238	0.806538
C126	C	0.666706	-0.313904	1.139871
C127	C	0.000031	-0.978918	0.567231
C128	C	0.333364	-0.645585	0.900564
C129	C	0.666698	-0.312251	1.233897
C130	C	0.000055	-0.985273	0.205734
C131	C	0.333388	-0.651940	0.539067
C132	C	0.666721	-0.318607	0.872400
H133	H	0.412989	-1.084693	-0.010972
H134	H	0.746323	-0.751359	0.322362
H135	H	1.079656	-0.418026	0.655695
Br136	Br	0.613158	-0.848800	-0.246734
Br137	Br	0.946491	-0.515467	0.086599
Br138	Br	1.279825	-0.182133	0.419932
H139	H	0.000043	-0.385413	-0.249550
H140	H	0.333376	-0.052080	0.083783
H141	H	0.666710	0.281254	0.417117
Br142	Br	0.000069	-0.607728	0.063234
Br143	Br	0.333402	-0.274394	0.396568
Br144	Br	0.666735	0.058939	0.729901
Br145	Br	0.386916	-0.848783	-0.246731
Br146	Br	0.720250	-0.515450	0.086602
Br147	Br	1.053583	-0.182117	0.419936
Br148	Br	0.000037	-1.158837	0.512103
Br149	Br	0.333371	-0.825503	0.845437
Br150	Br	0.666704	-0.492170	1.178770
Br151	Br	0.000065	-1.162431	0.307705
Br152	Br	0.333398	-0.829098	0.641038
Br153	Br	0.666732	-0.495765	0.974371
Br154	Br	0.000017	-0.801758	0.465267
Br155	Br	0.333351	-0.468424	0.798600
Br156	Br	0.666684	-0.135091	1.131934
Br157	Br	0.000025	-0.560876	-0.293851
Br158	Br	0.333358	-0.227543	0.039482
Br159	Br	0.666692	0.105791	0.372816
H160	H	0.000067	-0.421454	0.025285
H161	H	0.333401	-0.088121	0.358619
H162	H	0.666734	0.245213	0.691952
H163	H	0.000033	-0.846050	0.289792
H164	H	0.333366	-0.512717	0.623126
H165	H	0.666700	-0.179384	0.956459
H166	H	0.587108	-1.084694	-0.010969
H167	H	0.920441	-0.751361	0.322365
H168	H	1.253775	-0.418027	0.655698
