data_functionalizedCrystal
_audit_creation_method	'MofGen! by Chris Wilmer'
_symmetry_space_group_name_H-M	'P1'
_symmetry_Int_Tables_number	1
_symmetry_cell_setting	triclinic
loop_
_symmetry_equiv_pos_as_xyz
  x,y,z
_cell_length_a	19.121175
_cell_length_b	12.759401
_cell_length_c	12.759399
_cell_angle_alpha	90.016641
_cell_angle_beta	92.416770
_cell_angle_gamma	87.544509
loop_
_atom_site_label
_atom_site_type_symbol
_atom_site_fract_x
_atom_site_fract_y
_atom_site_fract_z
Zn1	Zn	-0.397100	1.631535	-0.443580
Zn2	Zn	-0.279657	1.623950	-0.611781
Zn3	Zn	-0.279668	1.448360	-0.436122
Zn4	Zn	-0.397071	1.455822	-0.619220
O5	O	-0.338374	1.539917	-0.527676
O6	O	-0.381529	1.777550	-0.465900
O7	O	-0.181375	1.594361	-0.582245
O8	O	-0.295263	1.472710	-0.290091
O9	O	-0.295244	1.771978	-0.589477
O10	O	-0.381540	1.607287	-0.295570
O11	O	-0.181383	1.465356	-0.453190
O12	O	-0.295234	1.302328	-0.460403
O13	O	-0.495358	1.485428	-0.602155
O14	O	-0.381489	1.307811	-0.594924
O15	O	-0.495380	1.614523	-0.473113
O16	O	-0.295216	1.601597	-0.759788
O17	O	-0.381479	1.478074	-0.765253
C18	C	-0.338360	1.266949	-0.527662
C19	C	-0.338371	1.150173	-0.527683
C20	C	-0.521566	1.551654	-0.539296
C21	C	-0.599631	1.556655	-0.544247
C22	C	-0.383213	1.098188	-0.597825
C23	C	-0.383227	0.988465	-0.597830
C24	C	-0.293550	0.982720	-0.457546
C25	C	-0.293541	1.092441	-0.457537
C26	C	-0.636310	1.491842	-0.479383
C27	C	-0.709660	1.496537	-0.484044
C28	C	-0.746331	1.566052	-0.553566
C29	C	-0.709647	1.630868	-0.618438
C30	C	-0.636297	1.626167	-0.613781
C31	C	-0.967798	1.583603	-0.570993
C32	C	-1.041152	1.588302	-0.575642
C33	C	-1.041161	1.453968	-0.441250
C34	C	-0.967810	1.449278	-0.436594
C35	C	-0.931132	1.514090	-0.501470
C36	C	-0.821307	1.570856	-0.558330
C37	C	-0.856158	1.509280	-0.496711
C38	C	-0.155896	1.528286	-0.516025
C39	C	-0.077831	1.523488	-0.510778
C40	C	-0.338358	1.539851	-0.800642
C41	C	-0.338375	1.539921	-0.917420
C42	C	-0.338389	1.813951	-0.527690
C43	C	-0.338395	1.930728	-0.527697
C44	C	-0.293509	1.604319	-0.969404
C45	C	-0.293532	1.604388	-1.079130
C46	C	-0.383290	1.475652	-1.084877
C47	C	-0.383270	1.475589	-0.975153
C48	C	-0.338406	1.540012	-0.253644
C49	C	-0.338419	1.540053	-0.136869
H50	H	-0.419743	0.946145	-0.654946
O51	O	-0.245148	1.673855	-1.135206
H52	H	-0.209403	1.624619	-1.183008
H53	H	-0.937944	1.636366	-0.623831
H54	H	-0.257050	0.935702	-0.400438
H55	H	-1.071031	1.401201	-0.388432
H56	H	-0.851172	1.627454	-0.614936
H57	H	-0.419808	1.423148	-0.932825
O58	O	-1.080705	1.663283	-0.650632
H59	H	-1.114121	1.618379	-0.706189
H60	H	-0.256954	1.656704	-0.922400
O61	O	-0.245162	1.148522	-0.381895
H62	H	-0.213980	1.089946	-0.333136
H63	H	-0.419841	1.423273	-1.131897
H64	H	-0.419719	1.145190	-0.654940
H65	H	-0.739521	1.443755	-0.431228
O66	O	-0.596758	1.416869	-0.404393
H67	H	-0.634590	1.372584	-0.360078
H68	H	-0.739509	1.687464	-0.675049
O69	O	-0.928257	1.374320	-0.361592
H70	H	-0.966086	1.330041	-0.317266
H71	H	-0.826297	1.452678	-0.440110
O72	O	-0.596731	1.696082	-0.683731
H73	H	-0.634551	1.745220	-0.732847
