data_functionalizedCrystal
_audit_creation_method	'MofGen! by Chris Wilmer'
_symmetry_space_group_name_H-M	'P1'
_symmetry_Int_Tables_number	1
_symmetry_cell_setting	triclinic
loop_
_symmetry_equiv_pos_as_xyz
  x,y,z
_cell_length_a	17.038278
_cell_length_b	17.038272
_cell_length_c	15.500227
_cell_angle_alpha	86.966746
_cell_angle_beta	86.950586
_cell_angle_gamma	88.888972
loop_
_atom_site_label
_atom_site_type_symbol
_atom_site_fract_x
_atom_site_fract_y
_atom_site_fract_z
O1	O	1.052165	-0.167124	-0.071953
O2	O	1.552165	0.332876	0.428047
O3	O	0.824354	-0.164418	-0.071953
O4	O	1.324354	0.335582	0.428047
O5	O	0.936905	-0.051866	-0.071946
O6	O	1.436905	0.448134	0.428054
O7	O	0.939614	-0.279676	-0.071959
O8	O	1.439614	0.220324	0.428041
O9	O	0.930073	-0.058667	0.071942
O10	O	1.430073	0.441333	0.571942
O11	O	0.817522	-0.171219	0.071936
O12	O	1.317522	0.328781	0.571936
O13	O	1.045333	-0.173925	0.071936
O14	O	1.545333	0.326075	0.571936
Cu15	Cu	0.930804	-0.173193	0.085074
Cu16	Cu	1.430804	0.326807	0.585074
Cu17	Cu	0.938883	-0.165150	-0.085091
Cu18	Cu	1.438883	0.334850	0.414909
O19	O	0.932782	-0.286478	0.071929
O20	O	1.432782	0.213522	0.571929
C21	C	0.791645	-0.165356	-0.000009
C22	C	1.291645	0.334644	0.499991
C23	C	0.704361	-0.158009	-0.000008
C24	C	1.204361	0.341991	0.499992
C25	C	0.210936	-0.112871	-0.000009
C26	C	0.710936	0.387129	0.499991
C27	C	0.292947	-0.119781	-0.000004
C28	C	0.792947	0.380219	0.499996
C29	C	0.329347	-0.194154	-0.000013
C30	C	0.829347	0.305846	0.499987
C31	C	0.283731	-0.261622	-0.000017
C32	C	0.783731	0.238378	0.499983
C33	C	0.201721	-0.254712	-0.000016
C34	C	0.701721	0.245288	0.499984
C35	C	0.576735	-0.218567	-0.000012
C36	C	1.076735	0.281433	0.499988
C37	C	0.658751	-0.225472	-0.000015
C38	C	1.158751	0.274528	0.499985
C39	C	0.667962	-0.083630	-0.000001
C40	C	1.167962	0.416370	0.499999
C41	C	0.585950	-0.076726	-0.000005
C42	C	1.085950	0.423274	0.499995
C43	C	0.540340	-0.144194	-0.000005
C44	C	1.040340	0.355806	0.499995
C45	C	0.413176	-0.201219	-0.000010
C46	C	0.913176	0.298781	0.499990
C47	C	0.456513	-0.137129	-0.000001
C48	C	0.956513	0.362871	0.499999
C49	C	0.931026	-0.025973	-0.000002
C50	C	1.431026	0.474027	0.499998
C51	C	0.923678	0.061310	-0.000002
C52	C	1.423678	0.561310	0.499998
C53	C	1.078042	-0.172987	-0.000010
C54	C	1.578042	0.327013	0.499990
C55	C	1.165326	-0.180334	-0.000016
C56	C	1.665326	0.319666	0.499984
C57	C	0.938661	-0.312370	-0.000017
C58	C	1.438661	0.187630	0.499983
C59	C	0.946009	-0.399653	-0.000023
C60	C	1.446009	0.100347	0.499977
N61	N	0.925127	-0.178850	0.204758
N62	N	1.425127	0.321150	0.704758
C63	C	0.991142	0.106920	-0.000001
C64	C	1.491142	0.606920	0.499999
C65	C	0.984233	0.188932	-0.000009
C66	C	1.484233	0.688932	0.499991
C67	C	0.909860	0.225333	-0.000012
C68	C	1.409860	0.725333	0.499988
C69	C	0.842392	0.179717	-0.000016
C70	C	1.342392	0.679717	0.499984
C71	C	0.849301	0.097706	-0.000014
C72	C	1.349301	0.597706	0.499986
C73	C	0.885450	0.472721	-0.000024
C74	C	1.385450	0.972721	0.499976
C75	C	0.878545	0.554737	-0.000024
C76	C	1.378545	1.054737	0.499976
C77	C	1.020388	0.563947	-0.000019
C78	C	1.520388	1.063947	0.499981
C79	C	1.027291	0.481934	-0.000011
C80	C	1.527291	0.981934	0.499989
C81	C	0.959822	0.436326	-0.000020
C82	C	1.459822	0.936326	0.499980
C83	C	0.902797	0.309162	-0.000018
C84	C	1.402797	0.809162	0.499982
C85	C	0.966887	0.352498	-0.000020
C86	C	1.466887	0.852498	0.499980
N87	N	0.944566	-0.159487	-0.204775
N88	N	1.444566	0.340513	0.295225
C89	C	0.972838	-0.131178	0.250038
C90	C	1.472838	0.368822	0.750038
C91	C	0.968552	-0.135464	0.340611
C92	C	1.468552	0.364536	0.840611
C93	C	0.916559	-0.187427	0.385902
C94	C	1.416559	0.312573	0.885902
C95	C	0.868843	-0.235101	0.340616
C96	C	1.368843	0.264899	0.840616
C97	C	0.873125	-0.230811	0.250045
C98	C	1.373125	0.269189	0.750045
C99	C	0.901132	-0.202871	0.659368
C100	C	1.401132	0.297129	1.159368
C101	C	0.896855	-0.207160	0.749945
C102	C	1.396855	0.292840	1.249945
C103	C	0.996564	-0.107521	0.749933
C104	C	1.496564	0.392479	1.249933
C105	C	1.000845	-0.103238	0.659361
C106	C	1.500845	0.396762	1.159361
C107	C	0.953125	-0.150909	0.614083
C108	C	1.453125	0.349091	1.114083
C109	C	0.912179	-0.191811	0.478482
C110	C	1.412179	0.308189	0.978482
C111	C	0.957502	-0.146521	0.521505
C112	C	1.457502	0.353479	1.021505
H113	H	0.426872	-0.076574	-0.000004
H114	H	0.926872	0.423426	0.499996
H115	H	0.862278	-0.241688	0.622510
H116	H	1.362278	0.258312	1.122510
H117	H	0.869846	-0.234122	0.515365
H118	H	1.369846	0.265878	1.015365
H119	H	0.442823	-0.261774	-0.000020
H120	H	0.942823	0.238226	0.499980
C121	C	1.058037	-0.046070	0.609547
C122	C	1.558037	0.453930	1.109547
N123	N	1.101115	-0.003011	0.572027
N124	N	1.601115	0.496989	1.072027
C125	C	0.343115	-0.045566	0.000003
C126	C	0.843115	0.454434	0.500003
N127	N	0.380901	0.010337	0.000009
N128	N	0.880901	0.510337	0.500009
H129	H	0.705105	-0.028701	-0.000000
H130	H	1.205105	0.471299	0.500000
C131	C	1.049044	-0.055079	0.799746
C132	C	1.549044	0.444921	1.299746
N133	N	1.088572	-0.015575	0.837266
N134	N	1.588572	0.484425	1.337266
C135	C	0.811642	-0.292254	0.390440
C136	C	1.311642	0.207746	0.890440
N137	N	0.768556	-0.335302	0.427966
N138	N	1.268556	0.164698	0.927966
H139	H	0.181305	-0.052308	-0.000008
H140	H	0.681305	0.447692	0.499992
H141	H	1.075316	0.601090	-0.000014
H142	H	1.575316	1.101090	0.499986
C143	C	1.072958	0.066887	0.000002
C144	C	1.572958	0.566887	0.500002
N145	N	1.134585	0.036737	0.000001
N146	N	1.634585	0.536737	0.500001
H147	H	0.834272	-0.269630	0.213179
H148	H	1.334272	0.230370	0.713179
C149	C	0.698789	-0.307291	-0.000024
C150	C	1.198789	0.192709	0.499976
N151	N	0.728946	-0.368915	-0.000031
N152	N	1.228946	0.131085	0.499969
C153	C	1.014686	-0.089356	0.471681
C154	C	1.514686	0.410644	0.971681
N155	N	1.057757	-0.046299	0.434147
N156	N	1.557757	0.453701	0.934147
C157	C	1.030034	-0.074014	0.200226
C158	C	1.530034	0.425986	0.700226
N159	N	1.073114	-0.030953	0.162710
N160	N	1.573114	0.469047	0.662710
C161	C	1.048695	0.312455	-0.000012
C162	C	1.548695	0.812455	0.499988
N163	N	1.110313	0.282287	-0.000001
N164	N	1.610313	0.782287	0.499999
H165	H	0.539610	-0.273504	-0.000016
H166	H	1.039610	0.226496	0.499984
H167	H	1.039169	0.226064	-0.000007
H168	H	1.539169	0.726064	0.499993
C169	C	0.839653	-0.264323	0.799764
C170	C	1.339653	0.235677	1.299764
N171	N	0.796572	-0.307377	0.837287
N172	N	1.296572	0.192623	1.337287
H173	H	0.556319	-0.016164	0.000002
H174	H	1.056319	0.483836	0.500002
H175	H	0.313374	-0.322179	-0.000019
H176	H	0.813374	0.177821	0.499981
H177	H	0.164586	-0.309648	-0.000018
H178	H	0.664586	0.190352	0.499982
C179	C	0.760580	0.219760	-0.000012
C180	C	1.260580	0.719760	0.499988
N181	N	0.698957	0.249919	-0.000002
N182	N	1.198957	0.749919	0.499998
C183	C	1.109107	0.441900	-0.000007
C184	C	1.609107	0.941900	0.499993
N185	N	1.170731	0.411746	-0.000000
N186	N	1.670731	0.911746	0.500000
H187	H	0.817978	0.584371	-0.000012
H188	H	1.317978	1.084371	0.499988
H189	H	0.830512	0.435596	-0.000030
H190	H	1.330512	0.935596	0.499970
H191	H	0.842241	0.338809	-0.000018
H192	H	1.342241	0.838809	0.499982
H193	H	0.794365	0.060572	-0.000015
H194	H	1.294365	0.560572	0.499985
H195	H	1.007401	-0.096645	0.377477
H196	H	1.507401	0.403355	0.877477
