data_functionalizedCrystal
_audit_creation_method	'MofGen! by Chris Wilmer'
_symmetry_space_group_name_H-M	'P1'
_symmetry_Int_Tables_number	1
_symmetry_cell_setting	triclinic
loop_
_symmetry_equiv_pos_as_xyz
  x,y,z
_cell_length_a	17.699104
_cell_length_b	10.654551
_cell_length_c	16.776229
_cell_angle_alpha	89.996205
_cell_angle_beta	89.991971
_cell_angle_gamma	83.888440
loop_
_atom_site_label
_atom_site_type_symbol
_atom_site_fract_x
_atom_site_fract_y
_atom_site_fract_z
O1	O	1.005079	0.158933	-0.066299
O2	O	1.505079	0.658933	0.433701
O3	O	0.784834	0.179567	-0.066297
O4	O	1.284834	0.679567	0.433703
O5	O	0.900020	-0.013577	-0.066299
O6	O	1.400020	0.486423	0.433701
O7	O	0.889893	0.352077	-0.066298
O8	O	1.389893	0.852077	0.433702
O9	O	0.900005	-0.013589	0.066278
O10	O	1.400005	0.486411	0.566278
O11	O	0.784819	0.179555	0.066280
O12	O	1.284819	0.679555	0.566280
O13	O	1.005064	0.158921	0.066277
O14	O	1.505064	0.658921	0.566277
Zn15	Zn	0.894939	0.169237	0.087328
Zn16	Zn	1.394939	0.669237	0.587328
Zn17	Zn	0.894959	0.169252	-0.087348
Zn18	Zn	1.394959	0.669252	0.412652
O19	O	0.889878	0.352066	0.066279
O20	O	1.389878	0.852066	0.566279
C21	C	0.756625	0.178817	-0.000008
C22	C	1.256625	0.678817	0.499992
C23	C	0.672594	0.176586	-0.000008
C24	C	1.172594	0.676586	0.499992
C25	C	0.899269	-0.060368	-0.000012
C26	C	1.399269	0.439632	0.499988
C27	C	0.897044	-0.199772	-0.000017
C28	C	1.397044	0.300228	0.499983
C29	C	0.148364	0.277373	-0.000016
C30	C	0.648364	0.777373	0.499984
C31	C	0.227321	0.279462	-0.000018
C32	C	0.727321	0.779462	0.499982
C33	C	0.275217	0.166080	-0.000018
C34	C	0.775217	0.666080	0.499982
C35	C	0.244153	0.050600	-0.000024
C36	C	0.744153	0.550600	0.499976
C37	C	0.165197	0.048512	-0.000027
C38	C	0.665197	0.548512	0.499973
C39	C	0.562573	0.059017	-0.000011
C40	C	1.062573	0.559017	0.499989
C41	C	0.641533	0.061114	-0.000005
C42	C	1.141533	0.561114	0.499995
C43	C	0.624696	0.289968	-0.000002
C44	C	1.124696	0.789968	0.499998
C45	C	0.545740	0.287880	-0.000005
C46	C	1.045740	0.787880	0.499995
C47	C	0.514683	0.172401	-0.000015
C48	C	1.014683	0.672401	0.499985
C49	C	0.429069	0.170137	-0.000014
C50	C	0.929069	0.670137	0.499986
C51	C	0.360830	0.168342	-0.000013
C52	C	0.860830	0.668342	0.499987
C53	C	0.896008	-0.265260	-0.072284
C54	C	1.396008	0.234740	0.427716
C55	C	0.893911	-0.396244	-0.072280
C56	C	1.393911	0.103756	0.427720
C57	C	0.893888	-0.396242	0.072262
C58	C	1.393888	0.103758	0.572262
C59	C	0.895980	-0.265259	0.072258
C60	C	1.395980	0.234741	0.572258
C61	C	0.897072	-0.199773	-0.144559
C62	C	1.397072	0.300227	0.355441
C63	C	0.896038	-0.265261	-0.216831
C64	C	1.396038	0.234739	0.283169
C65	C	0.893940	-0.396245	-0.216827
C66	C	1.393940	0.103755	0.283173
C67	C	0.892878	-0.461741	-0.144551
C68	C	1.392878	0.038259	0.355449
C69	C	1.033273	0.159671	-0.000013
C70	C	1.533273	0.659671	0.499987
C71	C	1.117304	0.161903	-0.000019
C72	C	1.617304	0.661903	0.499981
C73	C	0.890629	0.398856	-0.000009
C74	C	1.390629	0.898856	0.499991
C75	C	0.892855	0.538261	-0.000009
C76	C	1.392855	1.038261	0.499991
N77	N	0.894930	0.169225	0.206539
N78	N	1.394930	0.669225	0.706539
N79	N	0.894974	0.169254	-0.206559
N80	N	1.394974	0.669254	0.293441
C81	C	0.945951	0.083736	0.248255
C82	C	1.445951	0.583736	0.748255
C83	C	0.945955	0.083735	0.331707
C84	C	1.445955	0.583735	0.831707
C85	C	0.894942	0.169230	0.373442
C86	C	1.394942	0.669230	0.873442
C87	C	0.843916	0.254723	0.331720
C88	C	1.343916	0.754723	0.831720
C89	C	0.843909	0.254717	0.248269
C90	C	1.343909	0.754717	0.748269
C91	C	0.843944	0.254748	0.668267
C92	C	1.343944	0.754748	1.168267
C93	C	0.843957	0.254750	0.751723
C94	C	1.343957	0.754750	1.251723
C95	C	0.945990	0.083765	0.751705
C96	C	1.445990	0.583765	1.251705
C97	C	0.945982	0.083759	0.668255
C98	C	1.445982	0.583759	1.168255
C99	C	0.894954	0.169248	0.626540
C100	C	1.394954	0.669248	1.126540
C101	C	0.894949	0.169246	0.536051
C102	C	1.394949	0.669246	1.036051
C103	C	0.894950	0.169238	0.463929
C104	C	1.394950	0.669238	0.963929
H105	H	0.109371	0.369703	-0.000010
H106	H	0.609371	0.869703	0.499990
C107	C	0.892723	-0.468294	0.151760
C108	C	1.392723	0.031706	0.651760
N109	N	0.891849	-0.522564	0.211639
N110	N	1.391849	-0.022564	0.711639
H111	H	0.987537	0.014152	0.785678
H112	H	1.487537	0.514152	1.285678
C113	C	0.261482	0.406489	-0.000003
C114	C	0.761482	0.906489	0.499997
N115	N	0.287211	0.502172	0.000012
N116	N	0.787211	1.002172	0.500012
H117	H	0.802362	0.324330	0.214304
H118	H	1.302362	0.824330	0.714304
C119	C	0.131033	-0.078515	-0.000028
C120	C	0.631033	0.421485	0.499972
N121	N	0.105302	-0.174195	-0.000030
N122	N	0.605302	0.325805	0.499970
H123	H	0.896807	-0.211935	0.131103
H124	H	1.396807	0.288065	0.631103
H125	H	0.891159	-0.568394	-0.144554
H126	H	1.391159	-0.068394	0.355446
C127	C	0.899307	-0.055672	-0.144569
C128	C	1.399307	0.444328	0.355431
N129	N	0.900965	0.052870	-0.144577
N130	N	1.400965	0.552870	0.355423
C131	C	0.493058	0.412610	0.000001
C132	C	0.993058	0.912610	0.500001
N133	N	0.453379	0.506559	0.000004
N134	N	0.953379	1.006559	0.500004
H135	H	0.283157	-0.041718	-0.000029
H136	H	0.783157	0.458282	0.499971
C137	C	1.002070	-0.010318	0.202355
C138	C	1.502070	0.489682	0.702355
N139	N	1.044338	-0.081166	0.167785
N140	N	1.544338	0.418834	0.667785
C141	C	0.897206	-0.193212	-0.296329
C142	C	1.397206	0.306788	0.203671
N143	N	0.898088	-0.138947	-0.356209
N144	N	1.398088	0.361053	0.143791
H145	H	0.649992	0.383996	0.000003
H146	H	1.149992	0.883996	0.500003
C147	C	0.528420	-0.068013	-0.000002
C148	C	1.028420	0.431987	0.499998
N149	N	0.502694	-0.163698	0.000011
N150	N	1.002694	0.336302	0.500011
H151	H	0.680530	-0.031222	-0.000008
H152	H	1.180530	0.468778	0.499992
H153	H	0.893090	-0.449559	-0.275674
H154	H	1.393090	0.050441	0.224326
C155	C	1.002063	-0.010340	0.377592
C156	C	1.502063	0.489660	0.877592
N157	N	1.044319	-0.081214	0.412151
N158	N	1.544319	0.418786	0.912151
H159	H	0.987524	0.014146	0.634277
H160	H	1.487524	0.514146	1.134277
H161	H	0.802413	0.324373	0.785702
H162	H	1.302413	0.824373	1.285702
C163	C	0.787911	0.348950	0.622391
C164	C	1.287911	0.848950	1.122391
N165	N	0.745739	0.419966	0.587835
N166	N	1.245739	0.919966	1.087835
C167	C	0.787794	0.348757	0.377631
C168	C	1.287794	0.848757	0.877631
N169	N	0.745522	0.419585	0.412210
N170	N	1.245522	0.919585	0.912210
