data_functionalizedCrystal
_audit_creation_method	'MofGen! by Chris Wilmer'
_symmetry_space_group_name_H-M	'P1'
_symmetry_Int_Tables_number	1
_symmetry_cell_setting	triclinic
loop_
_symmetry_equiv_pos_as_xyz
  x,y,z
_cell_length_a	16.956984
_cell_length_b	14.519709
_cell_length_c	15.455313
_cell_angle_alpha	92.679852
_cell_angle_beta	87.522272
_cell_angle_gamma	79.866782
loop_
_atom_site_label
_atom_site_type_symbol
_atom_site_fract_x
_atom_site_fract_y
_atom_site_fract_z
O1	O	1.054598	0.042507	0.072136
O2	O	0.822486	0.074882	0.072137
O3	O	0.944697	-0.076025	0.072129
O4	O	0.932388	0.193414	0.072144
O5	O	0.951677	-0.084630	-0.072134
O6	O	0.829467	0.066277	-0.072125
O7	O	1.061579	0.033902	-0.072127
Cu8	Cu	0.946160	0.049304	-0.085298
Cu9	Cu	0.937905	0.059480	0.085309
O10	O	0.939369	0.184810	-0.072118
C11	C	0.796271	0.072238	0.000006
C12	C	0.707757	0.077166	0.000006
C13	C	0.675556	-0.005243	-0.000000
C14	C	0.592387	-0.000606	0.000006
C15	C	0.541421	0.086441	0.000013
C16	C	0.573628	0.168857	0.000022
C17	C	0.656795	0.164219	0.000022
C18	C	0.291681	0.109397	0.000020
C19	C	0.208509	0.114028	0.000018
C20	C	0.227274	-0.055435	0.000004
C21	C	0.310442	-0.060065	-0.000001
C22	C	0.342641	0.022350	0.000012
N23	N	0.456409	0.091183	0.000017
N24	N	0.427651	0.017608	0.000014
C25	C	0.947613	-0.114643	-0.000003
C26	C	0.945895	-0.216890	-0.000003
C27	C	0.939565	-0.591290	0.000019
C28	C	0.941323	-0.487119	0.000013
C29	C	0.942730	-0.404093	0.000007
C30	C	0.944488	-0.299916	0.000002
C31	C	1.087794	0.036547	0.000006
C32	C	1.176307	0.031618	0.000012
C33	C	0.936452	0.223427	0.000015
C34	C	0.938170	0.325674	0.000021
N35	N	0.932099	0.066630	0.205305
N36	N	0.951973	0.042146	-0.205294
C37	C	0.984117	0.002628	0.250695
C38	C	0.979725	0.008034	0.341503
C39	C	0.923309	0.077439	0.386919
C40	C	0.871289	0.141448	0.341523
C41	C	0.875685	0.136045	0.250716
C42	C	0.904349	0.100752	0.658502
C43	C	0.899954	0.106148	0.749315
C44	C	1.008392	-0.027265	0.749290
C45	C	1.012781	-0.032664	0.658481
C46	C	0.960763	0.031347	0.613093
N47	N	0.918816	0.082964	0.479740
N48	N	0.965260	0.025825	0.520274
H49	H	0.532124	0.239732	0.000033
H50	H	0.717048	-0.076127	-0.000009
C51	C	0.327091	0.200049	0.000019
H52	H	0.284825	0.252552	0.000010
H53	H	0.356711	0.204774	0.050324
H54	H	0.361576	0.198757	-0.050297
H55	H	1.058718	-0.089179	0.621506
C56	C	1.036972	-0.062335	0.391434
H57	H	1.026292	-0.049162	0.452019
H58	H	1.029081	-0.124166	0.376560
H59	H	1.090879	-0.057066	0.376534
H60	H	0.833328	0.188164	0.213760
H61	H	0.201048	-0.122533	0.000003
H62	H	0.825357	0.197963	0.378506
C63	C	0.837891	0.182490	0.799276
H64	H	0.842716	0.176527	0.859857
H65	H	0.847246	0.242540	0.784417
H66	H	0.785416	0.175479	0.784384
C67	C	0.556969	-0.091257	-0.000010
H68	H	0.599234	-0.143763	-0.000027
H69	H	0.522482	-0.089980	0.050296
H70	H	0.527351	-0.095964	-0.050325
C71	C	1.065616	-0.097660	0.799219
H72	H	1.054925	-0.084500	0.859805
H73	H	1.057703	-0.159479	0.784326
H74	H	1.119532	-0.092417	0.784338
H75	H	0.351934	-0.130949	-0.000011
C76	C	0.152447	0.209784	0.000039
H77	H	0.183533	0.258205	0.000058
H78	H	0.122045	0.212124	-0.050266
H79	H	0.117182	0.218102	0.050355
H80	H	0.683012	0.231325	0.000023
C81	C	1.046174	-0.073719	0.200746
H82	H	1.076529	-0.111056	0.240788
H83	H	1.019227	-0.112123	0.165312
H84	H	1.081064	-0.045072	0.165331
H85	H	0.861992	0.152872	0.621554
