data_functionalizedCrystal
_audit_creation_method	'MofGen! by Chris Wilmer'
_symmetry_space_group_name_H-M	'P1'
_symmetry_Int_Tables_number	1
_symmetry_cell_setting	triclinic
loop_
_symmetry_equiv_pos_as_xyz
  x,y,z
_cell_length_a	12.645331
_cell_length_b	21.295417
_cell_length_c	12.645323
_cell_angle_alpha	90.033992
_cell_angle_beta	90.022676
_cell_angle_gamma	90.029485
loop_
_atom_site_label
_atom_site_type_symbol
_atom_site_fract_x
_atom_site_fract_y
_atom_site_fract_z
Zn1	Zn	1.620637	-0.250621	0.599379
Zn2	Zn	1.620479	-0.355896	0.422091
Zn3	Zn	1.443351	-0.250643	0.422123
Zn4	Zn	1.443294	-0.355855	0.599306
O5	O	1.531940	-0.303254	0.510725
O6	O	1.768963	-0.264595	0.575878
O7	O	1.596941	-0.341960	0.273748
O8	O	1.466959	-0.162550	0.445681
O9	O	1.768847	-0.341939	0.445625
O10	O	1.597210	-0.162535	0.575910
O11	O	1.466806	-0.264631	0.273772
O12	O	1.294996	-0.264591	0.445610
O13	O	1.466860	-0.341869	0.747663
O14	O	1.294954	-0.341890	0.575786
O15	O	1.597154	-0.264555	0.747717
O16	O	1.596884	-0.443980	0.445555
O17	O	1.466707	-0.443950	0.575754
C18	C	1.256510	-0.303239	0.510694
C19	C	1.138680	-0.303247	0.510706
C20	C	0.971108	-0.254395	0.429265
C21	C	1.093667	-0.254521	0.428906
C22	C	1.094135	-0.369560	0.480174
C23	C	0.971537	-0.369293	0.479618
C24	C	0.971537	-0.286418	0.622995
C25	C	1.094144	-0.284937	0.622372
C26	C	1.531801	-0.466805	0.510666
C27	C	1.531839	-0.536773	0.510677
C28	C	1.599682	-0.569635	0.442951
C29	C	1.599732	-0.635377	0.442975
C30	C	1.531919	-0.668256	0.510713
C31	C	1.464071	-0.635386	0.578452
C32	C	1.464031	-0.569645	0.578433
N33	N	1.439183	-0.771521	0.518784
N34	N	1.439224	-0.833972	0.518796
C35	C	1.532038	-0.866331	0.510774
N36	N	1.624811	-0.833879	0.502720
N37	N	1.624768	-0.771421	0.502703
C38	C	1.531956	-0.739541	0.510741
C39	C	1.599941	-0.970478	0.443071
C40	C	1.599993	-1.036221	0.443102
C41	C	1.464322	-1.036229	0.578573
C42	C	1.464280	-0.970487	0.578547
C43	C	1.532088	-0.937615	0.510791
C44	C	1.808445	-0.303269	0.510756
C45	C	1.926275	-0.303276	0.510770
C46	C	1.532018	-0.303205	0.787230
C47	C	1.532052	-0.303184	0.905061
C48	C	1.532109	-0.139063	0.510807
C49	C	1.532180	-0.069095	0.510842
C50	C	1.531923	-0.303257	0.235295
C51	C	1.532096	-0.303100	0.117466
C52	C	1.449831	-0.351594	1.072591
C53	C	1.450046	-0.351833	0.950031
C54	C	1.643744	-0.321189	0.949576
C55	C	1.643293	-0.321492	1.072174
C56	C	1.503635	-0.236500	1.072276
C57	C	1.501143	-0.236899	0.949670
H58	H	0.940659	-0.238907	0.650759
C59	C	1.674536	-0.934313	0.368559
H60	H	1.664787	-0.890453	0.378238
H61	H	1.745761	-0.945042	0.384147
H62	H	1.659066	-0.945128	0.297315
H63	H	1.468832	-0.401207	0.920704
H64	H	1.123290	-0.406953	0.537674
H65	H	1.706664	-0.287705	1.101861
C66	C	1.389730	-1.072385	0.653089
H67	H	1.349320	-1.043395	0.693425
H68	H	1.343578	-1.098075	0.612506
H69	H	1.430283	-1.097985	0.699328
H70	H	1.654982	-0.662138	0.387825
H71	H	1.124785	-0.384101	0.399012
C72	C	1.338164	-0.336605	0.909364
H73	H	1.292169	-0.330220	0.967771
H74	H	1.340436	-0.299610	0.867489
H75	H	1.312851	-0.370600	0.867758
C76	C	1.389477	-0.671550	0.652959
H77	H	1.399209	-0.715410	0.643263
H78	H	1.404946	-0.660738	0.724198
H79	H	1.318248	-0.660819	0.637369
H80	H	1.667420	-0.370178	1.100771
C81	C	1.389398	-0.533493	0.652929
H82	H	1.399090	-0.489632	0.643219
H83	H	1.318185	-0.544312	0.637357
H84	H	1.404892	-0.544225	0.724178
C85	C	1.728771	-0.274990	0.910225
H86	H	1.696831	-0.244240	0.866188
H87	H	1.761139	-0.254986	0.969094
H88	H	1.780791	-0.297246	0.871093
H89	H	1.563553	-0.200370	1.101300
C90	C	0.932826	-0.388598	0.368786
H91	H	0.992026	-0.396527	0.324522
H92	H	0.890969	-0.425517	0.374049
H93	H	0.891615	-0.355650	0.339399
C94	C	1.389638	-0.934337	0.653033
H95	H	1.349250	-0.963332	0.693373
H96	H	1.430144	-0.908647	0.699253
H97	H	1.343451	-0.908737	0.612419
H98	H	1.123787	-0.205348	0.448045
H99	H	1.366761	-0.340435	1.102068
C100	C	0.932369	-0.334509	0.705037
H101	H	0.888644	-0.364716	0.671120
H102	H	0.991324	-0.354983	0.736290
H103	H	0.892950	-0.313497	0.758302
H104	H	0.941662	-0.205074	0.448199
H105	H	1.123266	-0.236138	0.645395
C106	C	1.674624	-1.072369	0.368599
H107	H	1.714991	-1.043374	0.328240
H108	H	1.720813	-1.097972	0.409196
H109	H	1.634100	-1.098057	0.322381
C110	C	1.474946	-0.417876	1.114215
H111	H	1.535352	-0.416125	1.158817
H112	H	1.416244	-0.433304	1.153211
H113	H	1.488757	-0.445088	1.056292
C114	C	1.674280	-0.533479	0.368434
H115	H	1.714700	-0.562470	0.328109
H116	H	1.633742	-0.507873	0.322199
H117	H	1.720438	-0.507795	0.409031
C118	C	1.676897	-0.386272	0.908115
H119	H	1.622829	-0.402559	0.863690
H120	H	1.740687	-0.382535	0.868968
H121	H	1.687604	-0.413880	0.966119
H122	H	1.423608	-0.220088	1.103185
C123	C	1.390105	-0.218551	0.910372
H124	H	1.371856	-0.178413	0.937630
H125	H	1.389845	-0.217165	0.835289
H126	H	1.340104	-0.248754	0.933973
H127	H	1.556685	-0.198859	0.919059
H128	H	0.940256	-0.265413	0.346591
H129	H	1.122941	-0.265663	0.345743
C130	C	0.931459	-0.420161	0.556299
H131	H	0.856330	-0.420341	0.556484
H132	H	0.956677	-0.460069	0.534162
H133	H	0.956635	-0.411449	0.625566
C134	C	1.135520	-0.329531	0.708799
H135	H	1.180695	-0.360038	0.677774
H136	H	1.173853	-0.306116	0.760029
H137	H	1.077526	-0.349965	0.741901
