data_functionalizedCrystal
_audit_creation_method	'MofGen! by Chris Wilmer'
_symmetry_space_group_name_H-M	'P1'
_symmetry_Int_Tables_number	1
_symmetry_cell_setting	triclinic
loop_
_symmetry_equiv_pos_as_xyz
  x,y,z
_cell_length_a	12.759395
_cell_length_b	19.121063
_cell_length_c	12.759387
_cell_angle_alpha	92.402374
_cell_angle_beta	89.981185
_cell_angle_gamma	92.470426
loop_
_atom_site_label
_atom_site_type_symbol
_atom_site_fract_x
_atom_site_fract_y
_atom_site_fract_z
Zn1	Zn	1.588319	-0.279539	-0.611792
Zn2	Zn	1.580679	-0.397009	-0.443587
Zn3	Zn	1.412620	-0.279580	-0.436132
Zn4	Zn	1.405077	-0.396957	-0.619223
O5	O	1.496674	-0.338271	-0.527683
O6	O	1.734326	-0.295127	-0.589490
O7	O	1.558345	-0.381471	-0.295579
O8	O	1.442280	-0.181290	-0.453203
O9	O	1.728713	-0.381431	-0.465910
O10	O	1.571366	-0.181260	-0.582260
O11	O	1.434872	-0.295196	-0.290102
O12	O	1.264598	-0.295145	-0.460409
O13	O	1.429425	-0.381342	-0.765256
O14	O	1.259057	-0.381381	-0.594925
O15	O	1.564052	-0.295076	-0.759796
O16	O	1.551031	-0.495286	-0.473116
O17	O	1.422017	-0.495248	-0.602154
C18	C	1.223707	-0.338263	-0.527665
C19	C	1.106929	-0.338276	-0.527683
C20	C	1.484905	-0.520751	-0.539273
C21	C	1.479967	-0.598817	-0.544267
C22	C	1.101188	-0.428219	-0.667547
C23	C	1.043456	-0.473196	-0.737482
C24	C	0.933734	-0.473205	-0.737495
C25	C	0.881742	-0.428230	-0.667568
C26	C	0.939473	-0.383253	-0.597633
C27	C	1.049197	-0.383250	-0.597625
C28	C	0.945214	-0.293307	-0.457776
C29	C	1.054936	-0.293301	-0.457755
C30	C	0.893222	-0.248332	-0.387848
C31	C	0.950953	-0.203357	-0.317906
C32	C	1.060682	-0.203351	-0.317895
C33	C	1.112668	-0.248324	-0.387820
C34	C	1.544869	-0.635489	-0.479484
C35	C	1.540231	-0.708840	-0.484187
C36	C	1.470684	-0.745517	-0.553667
C37	C	1.405778	-0.708840	-0.618456
C38	C	1.410423	-0.635490	-0.613758
C39	C	1.453302	-0.966986	-0.571214
C40	C	1.448661	-1.040341	-0.575905
C41	C	1.583115	-1.040335	-0.441637
C42	C	1.587749	-0.966984	-0.436941
C43	C	1.522848	-0.930313	-0.501734
C44	C	1.465939	-0.820494	-0.558473
C45	C	1.527599	-0.855338	-0.496932
C46	C	1.770706	-0.338280	-0.527703
C47	C	1.887483	-0.338284	-0.527711
C48	C	1.496749	-0.338199	-0.801712
C49	C	1.496782	-0.338168	-0.918487
C50	C	1.508517	-0.155079	-0.516071
C51	C	1.513563	-0.077013	-0.511123
C52	C	1.368219	-0.248324	-0.912802
C53	C	1.303958	-0.203388	-0.964819
C54	C	1.303991	-0.203362	-1.074539
C55	C	1.368290	-0.248279	-1.132245
C56	C	1.432551	-0.293215	-1.080228
C57	C	1.432513	-0.293234	-0.970505
C58	C	1.561107	-0.383062	-1.085913
C59	C	1.561081	-0.383085	-0.976193
C60	C	1.625406	-0.427978	-1.143619
C61	C	1.689674	-0.472912	-1.091601
C62	C	1.689639	-0.472935	-0.981874
C63	C	1.625342	-0.428020	-0.924176
C64	C	1.496662	-0.338293	-0.254717
C65	C	1.496845	-0.338126	-0.137930
H66	H	1.190529	-0.428222	-0.667535
O67	O	1.373636	-1.079893	-0.650850
H68	H	1.318081	-1.113356	-0.605915
O69	O	0.774879	-0.248339	-0.387867
H70	H	0.748427	-0.209507	-0.327502
O71	O	1.390921	-0.860063	-0.633395
H72	H	1.409783	-0.845940	-0.714969
O73	O	1.619896	-0.595938	-0.404550
H74	H	1.675434	-0.562465	-0.449487
O75	O	0.871428	-0.521712	-0.812901
H76	H	0.819120	-0.557389	-0.768020
O77	O	1.602622	-0.815779	-0.422011
H78	H	1.557744	-0.782415	-0.366381
O79	O	1.122941	-0.154844	-0.242450
H80	H	1.105435	-0.099738	-0.257105
H81	H	1.368301	-0.248261	-1.221585
O82	O	1.099531	-0.521688	-0.812926
H83	H	1.185527	-0.514127	-0.801174
H84	H	1.349156	-0.738709	-0.675032
O85	O	1.662764	-0.927436	-0.361993
H86	H	1.617876	-0.894083	-0.306356
H87	H	0.792400	-0.428235	-0.667594
H88	H	1.400455	-0.937134	-0.623969
O89	O	1.625310	-0.428040	-0.805834
H90	H	1.600641	-0.481018	-0.780250
H91	H	1.251604	-0.166819	-0.917823
H92	H	1.593081	-0.738695	-0.431434
O93	O	0.894880	-0.154867	-0.242469
H94	H	0.808885	-0.162435	-0.254221
O95	O	1.231011	-0.248320	-0.387801
H96	H	1.260888	-0.234189	-0.466179
O97	O	1.340410	-0.595931	-0.683617
H98	H	1.291258	-0.633757	-0.732710
O99	O	1.653134	-1.079896	-0.371789
H100	H	1.604037	-1.113382	-0.320442
O101	O	1.368193	-0.248348	-0.794461
H102	H	1.312686	-0.209570	-0.763074
O103	O	1.234688	-0.154895	-1.130654
H104	H	1.189976	-0.123662	-1.072101
O105	O	1.625487	-0.427956	-1.261960
H106	H	1.545347	-0.442130	-1.291828
H107	H	1.742017	-0.509482	-1.138594
H108	H	1.741972	-0.509525	-0.939529
