data_functionalizedCrystal
_audit_creation_method	'MofGen! by Chris Wilmer'
_symmetry_space_group_name_H-M	'P1'
_symmetry_Int_Tables_number	1
_symmetry_cell_setting	triclinic
loop_
_symmetry_equiv_pos_as_xyz
  x,y,z
_cell_length_a	14.853558
_cell_length_b	13.330367
_cell_length_c	10.723024
_cell_angle_alpha	89.996558
_cell_angle_beta	95.950498
_cell_angle_gamma	90.007028
loop_
_atom_site_label
_atom_site_type_symbol
_atom_site_fract_x
_atom_site_fract_y
_atom_site_fract_z
O1	O	1.197234	0.083409	-0.162860
O2	O	0.934876	0.083413	-0.182280
O3	O	1.072107	0.083407	0.009068
O4	O	1.060003	0.083415	-0.354208
O5	O	1.072086	-0.083440	0.009072
O6	O	0.934856	-0.083434	-0.182275
O7	O	1.197214	-0.083439	-0.162856
Cu8	Cu	1.066033	-0.098671	-0.172565
Cu9	Cu	1.066057	0.098645	-0.172570
O10	O	1.059983	-0.083433	-0.354203
C11	C	0.901272	-0.000010	-0.181400
C12	C	0.801174	-0.000008	-0.178769
C13	C	0.754158	0.090944	-0.177538
C14	C	0.754135	-0.090959	-0.177518
C15	C	0.660088	-0.090961	-0.175040
C16	C	0.613072	-0.000009	-0.173809
C17	C	0.660103	0.090945	-0.175056
C18	C	0.613051	-0.181913	-0.173781
C19	C	0.518999	-0.181919	-0.171301
C20	C	0.471981	-0.090965	-0.170078
C21	C	0.519017	-0.000008	-0.171327
C22	C	0.472001	0.090944	-0.170095
C23	C	0.519036	0.181903	-0.171353
C24	C	0.613085	0.181898	-0.173833
C25	C	0.377931	-0.090961	-0.167598
C26	C	0.377946	0.090945	-0.167613
N27	N	1.066023	-0.237452	-0.172561
C28	C	1.005288	-0.710073	-0.257266
C29	C	1.126849	-0.710046	-0.087865
C30	C	1.126839	-0.605027	-0.087862
C31	C	1.066053	-0.552527	-0.172562
C32	C	1.005278	-0.605044	-0.257267
C33	C	1.187620	-0.552502	-0.003167
C34	C	1.187613	-0.447477	-0.003161
C35	C	1.126822	-0.394975	-0.087856
C36	C	1.066043	-0.447499	-0.172564
C37	C	1.005257	-0.394998	-0.257264
C38	C	0.944473	-0.447520	-0.341967
C39	C	0.944487	-0.552542	-0.341963
C40	C	1.126809	-0.289953	-0.087860
C41	C	1.005247	-0.289970	-0.257266
C42	C	1.230817	-0.000013	-0.163736
C43	C	1.330915	-0.000008	-0.166367
C44	C	1.071216	-0.000015	0.055560
C45	C	1.068580	-0.000012	0.194088
N46	N	1.066074	0.237427	-0.172565
C47	C	1.060874	-0.000008	-0.400696
C48	C	1.063509	-0.000005	-0.539224
C49	C	1.145368	-0.000012	0.269851
C50	C	1.142646	-0.000008	0.413027
H51	H	0.792457	0.165000	-0.178567
H52	H	1.237105	-0.404720	0.065809
O53	O	0.939734	-0.766710	-0.348629
H54	H	0.949952	-0.848560	-0.334409
O55	O	1.192338	-0.233309	0.003521
H56	H	1.182113	-0.151460	-0.010699
H57	H	0.792422	-0.165008	-0.178511
O58	O	0.468212	-0.279983	-0.170018
H59	H	0.493717	-0.323654	-0.085532
O60	O	0.978824	-0.000007	0.248558
H61	H	0.939927	-0.068008	0.216574
O62	O	1.229724	-0.000016	0.499254
H63	H	1.288107	-0.000027	0.442489
H64	H	1.213123	-0.000019	0.228717
H65	H	0.997770	-0.000012	0.395683
H66	H	0.651339	-0.255961	-0.174772
H67	H	0.339639	-0.165018	-0.166586
H68	H	1.237115	-0.595251	0.065788
O69	O	1.192412	-0.766672	0.003477
H70	H	1.234675	-0.712507	0.062370
O71	O	0.327250	0.189052	-0.166259
H72	H	0.337794	0.232674	-0.251712
O73	O	0.468324	0.280002	-0.170028
H74	H	0.395025	0.264714	-0.168094
O75	O	0.878918	-0.390884	-0.433323
H76	H	0.836656	-0.445043	-0.492229
O77	O	0.663814	0.279998	-0.175152
H78	H	0.737113	0.264715	-0.177059
O79	O	0.939683	-0.233336	-0.348613
H80	H	0.951768	-0.253476	-0.445923
O81	O	0.878941	-0.609187	-0.433329
H82	H	0.889171	-0.691035	-0.419109
