data_functionalizedCrystal
_audit_creation_method	'MofGen! by Chris Wilmer'
_symmetry_space_group_name_H-M	'P1'
_symmetry_Int_Tables_number	1
_symmetry_cell_setting	triclinic
loop_
_symmetry_equiv_pos_as_xyz
  x,y,z
_cell_length_a	12.759401
_cell_length_b	11.169416
_cell_length_c	11.169409
_cell_angle_alpha	89.969184
_cell_angle_beta	89.979279
_cell_angle_gamma	90.010501
loop_
_atom_site_label
_atom_site_type_symbol
_atom_site_fract_x
_atom_site_fract_y
_atom_site_fract_z
Zn1	Zn	1.606310	-0.477705	-0.678560
Zn2	Zn	2.106310	0.022295	-0.178560
Zn3	Zn	1.606211	-0.678446	-0.477882
Zn4	Zn	2.106211	-0.178446	0.022118
Zn5	Zn	1.430605	-0.477776	-0.477894
Zn6	Zn	1.930605	0.022224	0.022106
Zn7	Zn	1.430614	-0.678346	-0.678526
Zn8	Zn	1.930614	-0.178346	-0.178526
O9	O	1.518435	-0.578068	-0.578216
O10	O	2.018435	-0.078068	-0.078216
O11	O	1.753318	-0.504346	-0.651949
O12	O	2.253318	-0.004346	-0.151949
O13	O	1.582872	-0.651898	-0.309934
O14	O	2.082872	-0.151898	0.190066
O15	O	1.453951	-0.309817	-0.504532
O16	O	1.953951	0.190183	-0.004532
O17	O	1.753245	-0.651830	-0.504512
O18	O	2.253245	-0.151830	-0.004512
O19	O	1.583040	-0.309765	-0.651960
O20	O	2.083040	0.190235	-0.151960
O21	O	1.453855	-0.504467	-0.309942
O22	O	1.953855	-0.004467	0.190058
O23	O	1.283586	-0.504370	-0.504499
O24	O	1.783586	-0.004370	-0.004499
O25	O	1.453966	-0.651659	-0.846481
O26	O	1.953966	-0.151659	-0.346481
O27	O	1.283592	-0.651727	-0.651903
O28	O	1.783592	-0.151727	-0.151903
O29	O	1.583049	-0.504250	-0.846505
O30	O	2.083049	-0.004250	-0.346505
O31	O	1.582880	-0.846382	-0.504479
O32	O	2.082880	-0.346382	-0.004479
O33	O	1.453870	-0.846309	-0.651891
O34	O	1.953870	-0.346309	-0.151891
C35	C	1.245468	-0.578046	-0.578199
C36	C	1.745468	-0.078046	-0.078199
C37	C	1.128691	-0.578066	-0.578221
C38	C	1.628691	-0.078066	-0.078221
C39	C	1.073860	-0.654918	-0.654847
C40	C	1.573860	-0.154918	-0.154847
C41	C	0.964136	-0.654933	-0.654860
C42	C	1.464136	-0.154933	-0.154860
C43	C	0.964084	-0.501241	-0.501610
C44	C	1.464084	-0.001241	-0.001610
C45	C	1.073806	-0.501220	-0.501604
C46	C	1.573806	-0.001220	-0.001604
C47	C	1.073889	-0.743655	-0.743321
C48	C	1.573889	-0.243655	-0.243321
C49	C	0.964165	-0.743670	-0.743334
C50	C	1.464165	-0.243670	-0.243334
C51	C	1.518394	-0.889893	-0.578206
C52	C	2.018394	-0.389893	-0.078206
C53	C	1.518472	-1.023293	-0.578243
C54	C	2.018472	-0.523293	-0.078243
C55	C	1.792469	-0.578091	-0.578233
C56	C	2.292469	-0.078091	-0.078233
C57	C	1.909245	-0.578101	-0.578240
C58	C	2.409245	-0.078101	-0.078240
C59	C	1.518519	-0.577935	-0.891258
C60	C	2.018519	-0.077935	-0.391258
C61	C	1.518555	-0.577879	-1.024658
C62	C	2.018555	-0.077879	-0.524658
C63	C	1.518506	-0.265026	-0.578251
C64	C	2.018506	0.234974	-0.078251
C65	C	1.518536	-0.131626	-0.578266
C66	C	2.018536	0.368374	-0.078266
C67	C	1.518412	-0.578114	-0.266391
C68	C	2.018412	-0.078114	0.233609
C69	C	1.518579	-0.577833	-0.132991
C70	C	2.018579	-0.077833	0.367009
H71	H	1.107908	-0.831905	-0.709872
H72	H	1.607908	-0.331905	-0.209872
H73	H	0.930168	-0.710488	-0.831695
H74	H	1.430168	-0.210488	-0.331695
O75	O	0.924689	-0.866753	-0.710135
O76	O	1.424689	-0.366753	-0.210135
H77	H	0.992379	-0.926997	-0.693859
H78	H	1.492379	-0.426997	-0.193859
O79	O	1.132951	-0.418345	-0.418945
O80	O	1.632951	0.081655	0.081055
H81	H	1.076349	-0.364932	-0.365657
H82	H	1.576349	0.135068	0.134343
O83	O	0.904888	-0.418389	-0.418946
O84	O	1.404888	0.081611	0.081054
H85	H	0.819379	-0.431324	-0.431809
H86	H	1.319379	0.068676	0.068191
O87	O	1.113392	-0.710800	-0.866490
O88	O	1.613392	-0.210800	-0.366490
H89	H	1.045714	-0.694720	-0.926794
H90	H	1.545714	-0.194720	-0.426794
