data_functionalizedCrystal
_audit_creation_method	'MofGen! by Chris Wilmer'
_symmetry_space_group_name_H-M	'P1'
_symmetry_Int_Tables_number	1
_symmetry_cell_setting	triclinic
loop_
_symmetry_equiv_pos_as_xyz
  x,y,z
_cell_length_a	14.908783
_cell_length_b	29.839131
_cell_length_c	14.908308
_cell_angle_alpha	86.738717
_cell_angle_beta	90.211273
_cell_angle_gamma	93.332050
loop_
_atom_site_label
_atom_site_type_symbol
_atom_site_fract_x
_atom_site_fract_y
_atom_site_fract_z
Zn1	Zn	1.345201	-0.157134	0.587801
Zn2	Zn	1.353730	-0.227701	0.437429
Zn3	Zn	1.203514	-0.156647	0.428773
Zn4	Zn	1.194749	-0.236303	0.579049
O5	O	1.274298	-0.194446	0.508263
O6	O	1.472162	-0.163098	0.575140
O7	O	1.341041	-0.214471	0.310458
O8	O	1.222408	-0.093843	0.449909
O9	O	1.478429	-0.214943	0.464662
O10	O	1.326504	-0.094200	0.566746
O11	O	1.230678	-0.162269	0.304099
O12	O	1.076521	-0.170611	0.441422
O13	O	1.207469	-0.229605	0.706032
O14	O	1.070082	-0.229134	0.551829
O15	O	1.318005	-0.171439	0.712463
O16	O	1.332542	-0.291711	0.456175
O17	O	1.215740	-0.298031	0.560222
C18	C	1.040675	-0.200753	0.494737
C19	C	0.940729	-0.203463	0.488972
C20	C	0.746382	-0.154652	0.593355
C21	C	0.652473	-0.157197	0.587941
C22	C	0.659001	-0.211094	0.472726
C23	C	0.752910	-0.208549	0.478140
C24	C	0.796597	-0.180328	0.538457
C25	C	0.890507	-0.177786	0.543875
C26	C	0.897034	-0.231681	0.428656
C27	C	0.803125	-0.234225	0.423242
C28	C	1.274139	-0.311172	0.508209
C29	C	1.274151	-0.361106	0.508221
C30	C	1.335217	-0.667443	0.454175
C31	C	1.335326	-0.855114	0.454217
O32	O	1.387120	-0.876569	0.408224
N33	N	1.274481	-0.881885	0.508342
C34	C	1.213608	-0.861736	0.562464
O35	O	1.161864	-0.888813	0.608509
C36	C	1.213504	-0.674066	0.562427
C37	C	1.274347	-0.647297	0.508292
C38	C	1.396056	-0.640674	0.400045
C39	C	1.396025	-0.593759	0.400032
C40	C	1.335155	-0.573613	0.454149
C41	C	1.274316	-0.600382	0.508279
C42	C	1.152636	-0.653918	0.616554
C43	C	1.152617	-0.606997	0.616542
C44	C	1.213460	-0.580228	0.562407
C45	C	1.213415	-0.533321	0.562382
N46	N	1.274260	-0.506550	0.508257
C47	C	1.335130	-0.526695	0.454140
C48	C	1.213666	-0.960266	0.562479
C49	C	1.213691	-1.007183	0.562487
C50	C	1.335410	-1.000557	0.454240
C51	C	1.335380	-0.953639	0.454228
C52	C	1.274511	-0.933494	0.508354
C53	C	1.335060	-0.428171	0.454116
C54	C	1.335021	-0.381252	0.454104
C55	C	1.213305	-0.387882	0.562354
C56	C	1.213340	-0.434797	0.562362
C57	C	1.274225	-0.454940	0.508240
O58	O	1.161655	-0.511835	0.608358
O59	O	1.386880	-0.499611	0.408118
C60	C	1.335248	-0.714358	0.454189
C61	C	1.274410	-0.741127	0.508319
C62	C	1.213540	-0.720981	0.562435
C63	C	1.274434	-0.788044	0.508327
C64	C	1.335304	-0.808190	0.454211
C65	C	1.396149	-0.781418	0.400086
C66	C	1.396118	-0.734503	0.400072
C67	C	1.152694	-0.747752	0.616560
C68	C	1.152730	-0.794667	0.616569
C69	C	1.213600	-0.814813	0.562452
C70	C	1.508834	-0.188115	0.521842
C71	C	1.608779	-0.185417	0.527629
C72	C	1.260808	-0.201536	0.742784
C73	C	1.255059	-0.204557	0.842723
C74	C	1.274482	-0.077265	0.508338
C75	C	1.274561	-0.027329	0.508370
C76	C	1.287788	-0.187350	0.274657
C77	C	1.293711	-0.184198	0.174729
C78	C	1.359355	-0.149656	1.037217
C79	C	1.353956	-0.152493	1.131119
C80	C	1.238859	-0.213066	1.124430
C81	C	1.244258	-0.210229	1.030528
C82	C	1.304509	-0.178523	0.986925
C83	C	1.309911	-0.175689	0.893022
C84	C	1.194810	-0.236259	0.886335
C85	C	1.189412	-0.239096	0.980237
H86	H	0.767542	-0.257200	0.374131
O87	O	1.394578	-1.020058	0.401591
C88	C	1.515357	-1.008549	0.294283
C89	C	1.448383	-0.986403	0.353837
H90	H	1.558889	-0.981350	0.255672
H91	H	1.476882	-1.030223	0.244792
H92	H	1.559925	-1.030477	0.338352
H93	H	1.403798	-0.964454	0.309839
H94	H	1.486914	-0.964757	0.403333
H95	H	1.408418	-0.123842	1.001715
H96	H	0.781952	-0.131675	0.642472
H97	H	1.358972	-0.149873	0.857522
O98	O	1.131014	-0.269939	1.022645
C99	C	1.112733	-0.334107	1.127974
C100	C	1.178967	-0.299210	1.079995
H101	H	1.151475	-0.357775	1.174366
H102	H	1.074474	-0.354286	1.075938
H103	H	1.063201	-0.316069	1.169184
H104	H	1.228554	-0.317211	1.038786
H105	H	1.217160	-0.279031	1.132075
O106	O	1.093660	-0.679961	0.669202
C107	C	1.074524	-0.736879	0.789958
C108	C	1.141414	-0.707423	0.730374
H109	H	1.113106	-0.759083	0.839443
H110	H	1.029926	-0.758932	0.745994
H111	H	1.031011	-0.714403	0.828590
H112	H	1.184986	-0.729865	0.691732
H113	H	1.185950	-0.685366	0.774386
H114	H	0.937929	-0.252591	0.383961
H115	H	1.103051	-0.590598	0.660621
O116	O	0.932806	-0.150336	0.602486
C117	C	0.916412	-0.097166	0.716229
C118	C	0.868399	-0.128228	0.649877
H119	H	0.864360	-0.079291	0.754576
H120	H	0.962741	-0.071180	0.677611
H121	H	0.957689	-0.118061	0.765669
H122	H	0.827075	-0.107371	0.600421
H123	H	0.822124	-0.154216	0.688554
O124	O	1.154357	-0.460852	0.614992
C125	C	1.135221	-0.517782	0.735727
C126	C	1.202111	-0.488313	0.676165
H127	H	1.173804	-0.539984	0.785213
H128	H	1.090642	-0.539835	0.691747
H129	H	1.091688	-0.495314	0.774358
H130	H	1.245702	-0.510746	0.637524
H131	H	1.246627	-0.466256	0.720193
O132	O	0.616699	-0.238513	0.414062
C133	C	0.633070	-0.291727	0.300397
C134	C	0.681092	-0.260684	0.366778
H135	H	0.685109	-0.309667	0.262164
H136	H	0.591849	-0.270856	0.250862
H137	H	0.586687	-0.317664	0.339075
H138	H	0.727519	-0.234741	0.328175
H139	H	0.722256	-0.281584	0.416312
O140	O	1.394092	-0.355296	0.401389
C141	C	1.446619	-0.335127	0.251005
C142	C	1.379687	-0.364554	0.310597
H143	H	1.434984	-0.342595	0.177586
H144	H	1.518224	-0.342837	0.270982
H145	H	1.436158	-0.298136	0.260333
H146	H	1.390066	-0.401554	0.301300
H147	H	1.308107	-0.356805	0.290606
O148	O	1.141565	-0.264256	0.837343
C149	C	1.098919	-0.286754	0.689722
C150	C	1.159249	-0.255013	0.745094
H151	H	1.113208	-0.279299	0.615129
H152	H	1.025346	-0.281381	0.703921
H153	H	1.113585	-0.323108	0.709137
H154	H	1.144662	-0.218648	0.725712
H155	H	1.232804	-0.260425	0.730889
H156	H	1.398616	-0.128986	1.172063
O157	O	1.093657	-0.820734	0.669078
C158	C	1.039799	-0.895945	0.717146
C159	C	1.106721	-0.866479	0.657613
H160	H	1.050350	-0.932935	0.707911
H161	H	0.968189	-0.888277	0.697103
H162	H	1.051356	-0.888431	0.790553
H163	H	1.095246	-0.873976	0.584190
H164	H	1.178307	-0.874153	0.677732
H165	H	1.384640	-0.444565	0.410047
O166	O	1.394524	-0.927591	0.401773
C167	C	1.516646	-0.870944	0.396793
C168	C	1.449699	-0.900406	0.456302
H169	H	1.561285	-0.848964	0.440856
H170	H	1.478150	-0.848667	0.347368
H171	H	1.560109	-0.893416	0.358095
H172	H	1.406219	-0.877968	0.495058
H173	H	1.488250	-0.922686	0.505671
O174	O	1.455224	-0.567824	0.347431
C175	C	1.575930	-0.566222	0.240041
C176	C	1.508942	-0.595641	0.299582
H177	H	1.619366	-0.588699	0.201326
H178	H	1.620590	-0.544216	0.284039
H179	H	1.537377	-0.543965	0.190630
H180	H	1.547422	-0.617924	0.349002
H181	H	1.464284	-0.617617	0.255529
O182	O	1.180400	-0.243843	1.166938
C183	C	1.121008	-0.275020	1.308636
C184	C	1.187274	-0.240155	1.260613
H185	H	1.126530	-0.272044	1.384380
H186	H	1.137787	-0.310279	1.291150
H187	H	1.049594	-0.268528	1.285919
H188	H	1.258711	-0.246606	1.283303
H189	H	1.170418	-0.204908	1.278099
H190	H	0.611591	-0.136287	0.632642
O191	O	1.455327	-0.660245	0.347636
C192	C	1.577521	-0.709477	0.342745
C193	C	1.510428	-0.687350	0.402196
H194	H	1.622075	-0.731404	0.386831
H195	H	1.621053	-0.682282	0.304120
H196	H	1.539054	-0.731153	0.293255
H197	H	1.548822	-0.665677	0.451736
H198	H	1.466897	-0.714568	0.440757
H199	H	1.164138	-1.028975	0.606560
H200	H	1.164097	-0.943867	0.606556
H201	H	1.103128	-0.731354	0.660630
H202	H	1.445663	-0.712711	0.355991
O203	O	1.154101	-0.368380	0.614954
C204	C	1.033441	-0.379891	0.722396
C205	C	1.100416	-0.402036	0.662843
H206	H	0.990032	-0.407091	0.761144
H207	H	0.988754	-0.357990	0.678404
H208	H	1.072005	-0.358191	0.771779
H209	H	1.061925	-0.423757	0.613452
H210	H	1.145102	-0.423910	0.706891
H211	H	1.445710	-0.797829	0.356019
