data_functionalizedCrystal
_audit_creation_method	'MofGen! by Chris Wilmer'
_symmetry_space_group_name_H-M	'P1'
_symmetry_Int_Tables_number	1
_symmetry_cell_setting	triclinic
loop_
_symmetry_equiv_pos_as_xyz
  x,y,z
_cell_length_a	14.446369
_cell_length_b	20.875641
_cell_length_c	20.875625
_cell_angle_alpha	64.253531
_cell_angle_beta	92.969883
_cell_angle_gamma	57.583598
loop_
_atom_site_label
_atom_site_type_symbol
_atom_site_fract_x
_atom_site_fract_y
_atom_site_fract_z
Zr1	Zr	0.849920	0.702302	-0.058593
O2	O	0.687681	0.836147	-0.156128
O3	O	0.904345	0.568455	-0.032079
O4	O	0.887555	0.702306	-0.161017
O5	O	0.712380	0.702295	0.078371
O6	O	1.039883	0.702311	-0.161023
O7	O	0.704472	0.702296	-0.027190
O8	O	1.069918	0.462877	0.069624
O9	O	0.682346	0.941729	-0.152276
O10	O	1.035571	0.623514	-0.016685
O11	O	0.927792	0.623508	0.062098
O12	O	0.908024	0.781100	-0.089710
O13	O	0.800245	0.781095	-0.010928
Zr14	Zr	1.105479	0.702309	0.109755
Zr15	Zr	1.092866	0.702312	-0.058602
Zr16	Zr	0.862533	0.702300	0.109763
Zr17	Zr	0.841410	0.870694	-0.052450
Zr18	Zr	1.113989	0.533917	0.103612
O19	O	1.051053	0.836157	0.083241
O20	O	1.033119	0.836160	-0.156140
O21	O	0.705616	0.836143	0.083253
O22	O	1.267717	0.568464	0.207290
O23	O	1.249783	0.568468	-0.032091
O24	O	0.922280	0.568451	0.207302
O25	O	1.243018	0.702317	-0.027209
O26	O	1.067843	0.702306	0.212179
O27	O	0.915515	0.702300	0.212184
O28	O	1.250927	0.702315	0.078351
O29	O	0.875455	0.941737	-0.152283
O30	O	1.079943	0.462875	0.203445
O31	O	1.273053	0.462882	0.203438
O32	O	1.263027	0.462884	0.069617
O33	O	0.692371	0.941727	-0.018456
O34	O	0.885481	0.941735	-0.018463
O35	O	1.047375	0.623511	0.140872
O36	O	1.155153	0.623517	0.062090
O37	O	1.027606	0.781103	-0.010936
O38	O	0.919828	0.781098	0.067846
C39	C	0.988344	0.491673	0.017898
C40	C	0.991957	0.420187	0.015290
C41	C	0.937372	0.386614	0.055173
C42	C	0.940712	0.319482	0.052683
C43	C	0.998643	0.285920	0.010316
C44	C	1.053229	0.319500	-0.029572
C45	C	1.049882	0.386635	-0.027087
C46	C	1.014680	0.085139	-0.001531
C47	C	1.018026	0.017998	-0.004011
C48	C	0.905506	0.017986	0.078244
C49	C	0.902170	0.085118	0.080729
C50	C	0.956751	0.118695	0.040838
N51	N	1.002061	0.217299	0.007772
N52	N	0.953325	0.187320	0.043377
C53	C	0.673811	0.702294	0.025592
C54	C	0.570674	0.702290	0.025595
C55	C	0.504417	0.602911	0.071395
C56	C	0.611771	0.602844	0.071676
C57	C	0.496335	0.751657	0.063638
C58	C	0.389535	0.751026	0.063972
C59	C	0.378692	0.753075	-0.058299
C60	C	0.487469	0.751202	-0.058227
C61	C	1.281587	0.702317	0.025570
C62	C	1.384724	0.702321	0.025566
C63	C	0.961922	0.702309	-0.185007
C64	C	0.956568	0.702310	-0.256479
C65	C	0.967054	0.912938	0.033264
C66	C	0.963441	0.984425	0.035872
C67	C	1.037970	0.702315	-0.290059
C68	C	1.032943	0.702308	-0.357210
C69	C	0.946506	0.702302	-0.390783
C70	C	0.865100	0.702295	-0.357197
C71	C	0.870134	0.702296	-0.290044
C72	C	0.922458	0.702295	-0.591620
C73	C	0.917428	0.702297	-0.658779
C74	C	1.085273	0.702308	-0.658787
C75	C	1.090295	0.702313	-0.591635
C76	C	1.008892	0.702301	-0.558053
N77	N	0.941363	0.702298	-0.459424
N78	N	1.014042	0.702299	-0.489410
C79	C	0.993476	0.702302	0.236169
C80	C	0.998831	0.702301	0.307640
C81	C	1.292232	0.491685	0.017887
C82	C	1.398982	0.420202	0.015275
C83	C	1.004121	0.491670	0.228485
C84	C	1.013088	0.420183	0.297349
C85	C	1.308009	0.491682	0.228475
C86	C	1.420113	0.420198	0.297335
C87	C	0.647389	0.912930	-0.177313
C88	C	0.535285	0.984413	-0.246173
C89	C	0.663166	0.912926	0.033275
C90	C	0.556417	0.984409	0.035886
C91	C	0.951277	0.912941	-0.177324
C92	C	0.942310	0.984429	-0.246188
C93	C	1.386691	0.386632	-0.027077
C94	C	1.486983	0.319475	-0.029546
C95	C	1.599564	0.285886	0.010342
C96	C	1.611853	0.319464	0.052696
C97	C	1.511562	0.386623	0.055161
C98	C	1.079721	0.386613	0.370815
C99	C	1.088142	0.319452	0.435527
C100	C	1.029937	0.285857	0.426771
C101	C	0.963297	0.319434	0.353298
C102	C	0.954869	0.386598	0.288588
C103	C	1.529028	0.386631	0.288549
C104	C	1.634370	0.319474	0.353244
C105	C	1.630795	0.285880	0.426725
C106	C	1.521868	0.319453	0.435510
C107	C	1.416529	0.386614	0.370815
C108	C	0.426370	1.017988	-0.237387
C109	C	0.321027	1.085166	-0.302081
C110	C	0.324602	1.118764	-0.375562
C111	C	0.433529	1.085186	-0.384347
C112	C	0.538869	1.018014	-0.319653
C113	C	0.568707	1.017987	0.078232
C114	C	0.468413	1.085162	0.080684
C115	C	0.355830	1.118753	0.040793
C116	C	0.343543	1.085172	-0.001559
C117	C	0.443835	1.018003	-0.004014
C118	C	1.000530	1.018002	-0.237408
C119	C	0.992127	1.085163	-0.302106
C120	C	0.925497	1.118755	-0.375585
C121	C	0.867276	1.085175	-0.384363
C122	C	0.875686	1.018010	-0.319665
H123	H	0.861068	-0.009359	0.110719
H124	H	1.518975	0.292091	0.495346
O125	O	1.524830	0.422812	0.100859
H126	H	1.568572	0.453406	0.078220
O127	O	0.916413	1.191209	-0.445364
H128	H	0.968082	1.208914	-0.426906
O129	O	1.073558	0.121342	-0.044548
H130	H	1.006517	0.195439	-0.087284
H131	H	1.703530	0.292106	0.085172
O132	O	0.555319	0.703537	-0.095836
H133	H	0.589059	0.632050	-0.062220
H134	H	0.915909	0.292071	0.346180
H135	H	0.274176	1.173446	0.042798
O136	O	1.299056	0.422798	0.380294
H137	H	1.314281	0.388139	0.442260
O138	O	1.265273	0.422857	-0.070114
H139	H	1.197585	0.475197	-0.061290
H140	H	0.423437	0.990637	-0.177561
O141	O	1.080502	-0.018199	-0.049715
H142	H	1.117883	0.016434	-0.077043
O143	O	0.812890	0.981800	-0.329138
H144	H	0.748792	0.994687	-0.300040
H145	H	0.554351	0.717367	0.124867
O146	O	0.771865	0.702299	-0.393413
H147	H	0.716109	0.702292	-0.358776
H148	H	1.716578	0.231194	0.479397
O149	O	1.532910	0.422857	0.209301
H150	H	1.441369	0.475195	0.165782
O151	O	1.751847	0.283259	0.343761
H152	H	1.736626	0.317893	0.281795
H153	H	1.681218	0.231200	0.008330
O154	O	0.795454	1.121388	-0.463620
H155	H	0.756397	1.086750	-0.458867
O156	O	0.451990	0.848506	0.021762
H157	H	0.353875	0.895251	-0.000574
O158	O	0.203551	1.121359	-0.292599
H159	H	0.218774	1.086691	-0.230634
H160	H	1.127121	0.413958	0.377959
O161	O	1.108751	0.422850	-0.070109
H162	H	1.096678	0.475180	-0.061272
H163	H	0.666169	0.564125	0.045943
H164	H	1.142412	0.292122	0.495346
H165	H	1.100393	0.292174	-0.064073
O166	O	0.656354	0.981790	-0.329118
H167	H	0.665309	0.951189	-0.362842
H168	H	0.238818	1.173459	-0.428234
H169	H	0.436425	1.112550	-0.444182
O170	O	1.473718	0.283260	-0.075223
H171	H	1.378583	0.317891	-0.102531
H172	H	0.506912	0.563893	0.045788
H173	H	1.099228	0.702310	-0.384551
O174	O	0.690127	0.981776	0.121248
H175	H	0.681803	1.016430	0.151091
H176	H	1.054786	0.990662	-0.177584
O177	O	0.514629	0.551468	0.152771
H178	H	0.434829	0.596397	0.160719
O179	O	1.183531	0.702308	-0.555419
H180	H	1.239301	0.702300	-0.590047
O181	O	0.481679	1.121362	0.126374
H182	H	0.576818	1.086701	0.153711
H183	H	1.151548	0.702316	-0.686136
H184	H	1.039537	1.112497	-0.294943
O185	O	0.874936	0.422775	0.100902
H186	H	0.881804	0.475081	0.095949
O187	O	0.881761	0.283318	0.095651
H188	H	0.840899	0.317945	0.125519
H189	H	0.855006	0.112434	0.115235
H190	H	0.251865	1.112533	-0.034036
H191	H	0.433812	0.990666	-0.038494
H192	H	0.672346	0.563752	0.133490
O193	O	0.824210	0.702275	-0.694987
H194	H	0.768460	0.702255	-0.660348
H195	H	0.304745	0.823962	0.032939
O196	O	0.398506	0.704537	0.145828
H197	H	0.397309	0.742001	0.171012
O198	O	0.372589	0.710837	-0.099899
H199	H	0.373758	0.653206	-0.061265
O200	O	0.883123	0.422658	0.209372
H201	H	0.789852	0.453223	0.203615
O202	O	0.834654	0.702294	-0.555407
H203	H	0.773697	0.702303	-0.590042
H204	H	0.803849	0.702290	-0.262702
O205	O	1.131225	0.702292	-0.253841
H206	H	1.121055	0.702290	-0.201502
H207	H	0.294003	0.826307	-0.092648
O208	O	0.444814	0.847314	-0.107638
H209	H	0.482415	0.861789	-0.073068
O210	O	1.039053	0.213400	0.496568
H211	H	1.095184	0.195696	0.549121
