data_functionalizedCrystal
_audit_creation_method	'MofGen! by Chris Wilmer'
_symmetry_space_group_name_H-M	'P1'
_symmetry_Int_Tables_number	1
_symmetry_cell_setting	triclinic
loop_
_symmetry_equiv_pos_as_xyz
  x,y,z
_cell_length_a	17.038275
_cell_length_b	17.019380
_cell_length_c	16.098538
_cell_angle_alpha	91.149481
_cell_angle_beta	87.070567
_cell_angle_gamma	92.753252
loop_
_atom_site_label
_atom_site_type_symbol
_atom_site_fract_x
_atom_site_fract_y
_atom_site_fract_z
O1	O	-1.041332	0.167433	0.081128
O2	O	-0.707999	0.500766	0.414461
O3	O	-0.374665	0.834099	0.747794
O4	O	-0.813695	0.164720	0.080961
O5	O	-0.480362	0.498054	0.414295
O6	O	-0.147028	0.831387	0.747628
O7	O	-0.933445	0.052059	0.072872
O8	O	-0.600112	0.385393	0.406205
O9	O	-0.266779	0.718726	0.739539
O10	O	-0.921581	0.280093	0.089217
O11	O	-0.588248	0.613427	0.422550
O12	O	-0.254915	0.946760	0.755883
O13	O	-0.926450	0.058613	-0.065170
O14	O	-0.593117	0.391946	0.268163
O15	O	-0.259783	0.725280	0.601496
O16	O	-0.806700	0.171274	-0.057081
O17	O	-0.473366	0.504607	0.276252
O18	O	-0.140033	0.837940	0.609586
O19	O	-1.034337	0.173986	-0.056915
O20	O	-0.701003	0.507319	0.276419
O21	O	-0.367670	0.840653	0.609752
Zn22	Zn	-0.919407	0.173670	-0.078915
Zn23	Zn	-0.586074	0.507004	0.254418
Zn24	Zn	-0.252741	0.840337	0.587752
Zn25	Zn	-0.928624	0.165036	0.102962
Zn26	Zn	-0.595291	0.498369	0.436295
Zn27	Zn	-0.261957	0.831703	0.769628
O28	O	-0.914586	0.286647	-0.048826
O29	O	-0.581253	0.619980	0.284508
O30	O	-0.247919	0.953314	0.617841
C31	C	-0.781062	0.165531	0.011767
C32	C	-0.447729	0.498865	0.345100
C33	C	-0.114396	0.832198	0.678434
C34	C	-0.694249	0.158176	0.011251
C35	C	-0.360916	0.491509	0.344584
C36	C	-0.027583	0.824842	0.677917
C37	C	-0.644325	0.225705	0.016091
C38	C	-0.310992	0.559038	0.349424
C39	C	0.022342	0.892372	0.682758
C40	C	-0.562754	0.218790	0.015585
C41	C	-0.229421	0.552123	0.348919
C42	C	0.103912	0.885456	0.682252
C43	C	-0.531110	0.144344	0.010245
C44	C	-0.197777	0.477677	0.343578
C45	C	0.135556	0.811010	0.676912
C46	C	-0.581041	0.076809	0.005402
C47	C	-0.247708	0.410143	0.338735
C48	C	0.085626	0.743476	0.672068
C49	C	-0.662610	0.083726	0.005902
C50	C	-0.329276	0.417059	0.339235
C51	C	0.004057	0.750393	0.672568
C52	C	-0.285283	0.119910	0.008475
C53	C	0.048050	0.453243	0.341808
C54	C	0.381384	0.786576	0.675142
C55	C	-0.203708	0.112998	0.007978
C56	C	0.129625	0.446332	0.341311
C57	C	0.462959	0.779665	0.674645
C58	C	-0.185427	0.254979	0.018160
C59	C	0.147907	0.588313	0.351493
C60	C	0.481240	0.921646	0.684827
C61	C	-0.266998	0.261889	0.018665
C62	C	0.066335	0.595222	0.351998
C63	C	0.399669	0.928556	0.685331
C64	C	-0.316921	0.194355	0.013817
C65	C	0.016412	0.527688	0.347150
C66	C	0.349745	0.861021	0.680484
C67	C	-0.447733	0.137273	0.009730
C68	C	-0.114399	0.470607	0.343064
C69	C	0.218934	0.803940	0.676397
C70	C	-0.400297	0.201426	0.014326
C71	C	-0.066964	0.534760	0.347659
C72	C	0.266369	0.868093	0.680992
C73	C	-0.929359	0.026015	0.001751
C74	C	-0.596025	0.359348	0.335085
C75	C	-0.262692	0.692681	0.668418
C76	C	-0.927594	-0.061354	-0.004505
C77	C	-0.594261	0.271979	0.328828
C78	C	-0.260927	0.605312	0.662162
C79	C	-0.066970	0.173174	0.012285
C80	C	0.266364	0.506507	0.345618
C81	C	0.599697	0.839841	0.678952
C82	C	-0.153784	0.180528	0.012818
C83	C	0.179550	0.513861	0.346152
C84	C	0.512883	0.847194	0.679485
C85	C	-0.918673	0.312692	0.022297
C86	C	-0.585340	0.646025	0.355630
C87	C	-0.252006	0.979358	0.688964
C88	C	-0.920438	0.400060	0.028559
C89	C	-0.587104	0.733394	0.361892
C90	C	-0.253771	1.066727	0.695225
C91	C	-0.917453	0.444684	-0.043742
C92	C	-0.584120	0.778017	0.289592
C93	C	-0.250787	1.111351	0.622925
C94	C	-0.919102	0.526776	-0.037848
C95	C	-0.585769	0.860110	0.295485
C96	C	-0.252436	1.193443	0.628818
C97	C	-0.923741	0.564244	0.040346
C98	C	-0.590408	0.897577	0.373679
C99	C	-0.257074	1.230910	0.707013
C100	C	-0.926723	0.519614	0.112652
C101	C	-0.593390	0.852947	0.445985
C102	C	-0.260057	1.186281	0.779318
C103	C	-0.925069	0.437523	0.106758
C104	C	-0.591736	0.770857	0.440091
C105	C	-0.258402	1.104190	0.773424
C106	C	-0.928922	0.811926	0.061907
C107	C	-0.595589	1.145259	0.395240
C108	C	-0.262255	1.478592	0.728573
C109	C	-0.930579	0.894022	0.067795
C110	C	-0.597245	1.227355	0.401129
C111	C	-0.263912	1.560689	0.734462
C112	C	-0.922956	0.901179	-0.082705
C113	C	-0.589622	1.234512	0.250628
C114	C	-0.256289	1.567846	0.583961
C115	C	-0.921306	0.819086	-0.088593
C116	C	-0.587973	1.152419	0.244741
C117	C	-0.254640	1.485753	0.578074
C118	C	-0.924285	0.774464	-0.016287
C119	C	-0.590951	1.107797	0.317046
C120	C	-0.257618	1.441131	0.650380
C121	C	-0.925429	0.648155	0.046372
C122	C	-0.592096	0.981488	0.379705
C123	C	-0.258762	1.314822	0.713038
C124	C	-0.922591	0.690554	-0.022313
C125	C	-0.589258	1.023888	0.311020
C126	C	-0.255924	1.357221	0.644353
N127	N	-0.913123	0.179563	-0.203041
N128	N	-0.579790	0.512896	0.130292
N129	N	-0.246456	0.846230	0.463625
C130	C	-0.963969	0.131765	-0.250058
C131	C	-0.630635	0.465098	0.083275
C132	C	-0.297302	0.798431	0.416608
C133	C	-0.959580	0.135895	-0.336951
C134	C	-0.626246	0.469228	-0.003617
C135	C	-0.292913	0.802562	0.329716
C136	C	-0.904348	0.187828	-0.376824
C137	C	-0.571015	0.521161	-0.043491
C138	C	-0.237682	0.854495	0.289843
C139	C	-0.853497	0.235628	-0.329801
C140	C	-0.520164	0.568962	0.003532
C141	C	-0.186831	0.902295	0.336866
C142	C	-0.857883	0.231494	-0.242910
C143	C	-0.524550	0.564827	0.090423
C144	C	-0.191216	0.898160	0.423756
C145	C	-0.888449	0.202803	-0.638999
C146	C	-0.555116	0.536136	-0.305666
C147	C	-0.221783	0.869470	0.027668
C148	C	-0.884069	0.206936	-0.725896
C149	C	-0.550736	0.540269	-0.392562
C150	C	-0.217402	0.873602	-0.059229
C151	C	-0.990151	0.107201	-0.733040
C152	C	-0.656818	0.440534	-0.399706
C153	C	-0.323484	0.773868	-0.066373
C154	C	-0.994535	0.103074	-0.646147
C155	C	-0.661202	0.436408	-0.312813
C156	C	-0.327868	0.769741	0.020520
C157	C	-0.943681	0.150872	-0.599131
C158	C	-0.610348	0.484205	-0.265798
C159	C	-0.277015	0.817538	0.067535
C160	C	-0.899862	0.192053	-0.465642
C161	C	-0.566529	0.525386	-0.132309
C162	C	-0.233196	0.858719	0.201025
C163	C	-0.948164	0.146642	-0.510315
C164	C	-0.614831	0.479976	-0.176982
C165	C	-0.281497	0.813309	0.156351
N166	N	-0.934915	0.159137	0.227087
N167	N	-0.601581	0.492471	0.560421
N168	N	-0.268248	0.825804	0.893754
H169	H	-0.292757	0.322510	0.023023
H170	H	0.040577	0.655843	0.356356
H171	H	0.373910	0.989177	0.689689
C172	C	-0.917487	0.649338	-0.108325
C173	C	-0.584153	0.982671	0.225009
C174	C	-0.250820	1.316005	0.558342
N175	N	-0.913645	0.618287	-0.173109
N176	N	-0.580311	0.951620	0.160224
N177	N	-0.246978	1.284953	0.493558
C178	C	-0.932279	0.762847	0.141446
C179	C	-0.598946	1.096180	0.474779
C180	C	-0.265612	1.429513	0.808112
N181	N	-0.934836	0.725876	0.201358
N182	N	-0.601503	1.059209	0.534692
N183	N	-0.268170	1.392542	0.868025
H184	H	-0.839091	0.249229	-0.758356
H185	H	-0.505757	0.582562	-0.425023
H186	H	-0.172424	0.915896	-0.091689
H187	H	-0.993131	0.104355	-0.477848
H188	H	-0.659797	0.437689	-0.144515
H189	H	-0.326464	0.771022	0.188818
H190	H	-0.930496	0.550127	0.176319
H191	H	-0.597163	0.883460	0.509653
H192	H	-0.263829	1.216793	0.842986
H193	H	-0.927495	0.401192	0.165633
H194	H	-0.594161	0.734525	0.498966
H195	H	-0.260828	1.067859	0.832299
C196	C	-1.024728	0.074633	-0.206206
C197	C	-0.691394	0.407967	0.127127
C198	C	-0.358061	0.741300	0.460461
N199	N	-1.070490	0.031598	-0.173179
N200	N	-0.737157	0.364931	0.160154
N201	N	-0.403824	0.698264	0.493488
C202	C	-0.839104	0.249173	-0.509512
C203	C	-0.505771	0.582506	-0.176179
C204	C	-0.172438	0.915839	0.157155
N205	N	-0.793337	0.292191	-0.542558
N206	N	-0.460004	0.625525	-0.209225
N207	N	-0.126671	0.958858	0.124109
H208	H	-1.031553	0.068286	-0.771327
H209	H	-0.698219	0.401619	-0.437994
H210	H	-0.364886	0.734952	-0.104661
H211	H	-0.522109	0.273779	0.019528
H212	H	-0.188775	0.607113	0.352861
H213	H	0.144558	0.940446	0.686194
H214	H	-0.847044	0.241723	-0.600725
H215	H	-0.513710	0.575056	-0.267392
H216	H	-0.180377	0.908390	0.065941
C217	C	-0.916195	0.777879	-0.174612
C218	C	-0.582862	1.111213	0.158721
C219	C	-0.249528	1.444546	0.492054
N220	N	-0.912345	0.746842	-0.239404
N221	N	-0.579011	1.080176	0.093929
N222	N	-0.245678	1.413509	0.427263
H223	H	-0.929210	0.678670	0.110038
H224	H	-0.595877	1.012003	0.443371
H225	H	-0.262544	1.345336	0.776705
H226	H	-1.000982	0.096973	-0.375232
H227	H	-0.667648	0.430306	-0.041899
H228	H	-0.334315	0.763640	0.291435
C229	C	-0.792735	0.292748	-0.373665
C230	C	-0.459401	0.626081	-0.040332
C231	C	-0.126068	0.959414	0.293001
N232	N	-0.746967	0.335771	-0.406703
N233	N	-0.413633	0.669104	-0.073370
N234	N	-0.080300	1.002437	0.259963
C235	C	-0.679125	0.307602	0.021965
C236	C	-0.345791	0.640935	0.355298
C237	C	-0.012458	0.974268	0.688631
N238	N	-0.705333	0.369289	0.026385
N239	N	-0.372000	0.702622	0.359718
N240	N	-0.038667	1.035956	0.693051
H241	H	-0.913679	0.414184	-0.107416
H242	H	-0.580346	0.747518	0.225917
H243	H	-0.247013	1.080851	0.559251
H244	H	-0.555270	0.016194	0.001042
H245	H	-0.221936	0.349528	0.334375
H246	H	0.111397	0.682861	0.667708
C247	C	-0.130505	0.329262	0.023482
C248	C	0.202829	0.662595	0.356815
C249	C	0.536162	0.995929	0.690148
N250	N	-0.089136	0.385215	0.027485
N251	N	0.244197	0.718549	0.360819
N252	N	0.577530	1.051882	0.694152
H253	H	-1.039509	0.060786	-0.613684
H254	H	-0.706175	0.394120	-0.280351
H255	H	-0.372842	0.727453	0.052983
C256	C	-0.919669	0.950270	-0.162236
C257	C	-0.586335	1.283603	0.171097
C258	C	-0.253002	1.616937	0.504431
N259	N	-0.917188	0.987246	-0.222142
N260	N	-0.583854	1.320580	0.111191
N261	N	-0.250521	1.653913	0.444525
H262	H	-0.703258	0.028736	0.001961
H263	H	-0.369925	0.362069	0.335294
H264	H	-0.036592	0.695403	0.668627
H265	H	-0.816478	0.270415	-0.204630
H266	H	-0.483145	0.603748	0.128704
H267	H	-0.149812	0.937082	0.462037
H268	H	-0.325921	0.064918	0.004527
H269	H	0.007412	0.398252	0.337861
H270	H	0.340745	0.731585	0.671194
C271	C	-0.168903	0.031099	0.002104
C272	C	0.164431	0.364432	0.335437
C273	C	0.497764	0.697765	0.668770
N274	N	-0.142687	-0.030585	-0.002318
N275	N	0.190647	0.302748	0.331015
N276	N	0.523980	0.636082	0.664348
H277	H	-0.426065	0.262040	0.018669
H278	H	-0.092732	0.595373	0.352003
H279	H	0.240601	0.928707	0.685336
H280	H	-0.421958	0.076660	0.005359
H281	H	-0.088624	0.409994	0.338692
H282	H	0.244709	0.743327	0.672025
H283	H	-0.916683	0.563105	-0.096723
H284	H	-0.583350	0.896438	0.236610
H285	H	-0.250017	1.229772	0.569944
H286	H	-0.934355	0.924525	0.131474
H287	H	-0.601022	1.257858	0.464807
H288	H	-0.267689	1.591192	0.798141
