data_functionalizedCrystal
_audit_creation_method	'MofGen! by Chris Wilmer'
_symmetry_space_group_name_H-M	'P1'
_symmetry_Int_Tables_number	1
_symmetry_cell_setting	triclinic
loop_
_symmetry_equiv_pos_as_xyz
  x,y,z
_cell_length_a	14.044191
_cell_length_b	14.044220
_cell_length_c	16.176319
_cell_angle_alpha	89.992517
_cell_angle_beta	89.995217
_cell_angle_gamma	93.190327
loop_
_atom_site_label
_atom_site_type_symbol
_atom_site_fract_x
_atom_site_fract_y
_atom_site_fract_z
O1	O	1.277176	0.230203	-0.068710
O2	O	1.777176	0.730203	0.431290
O3	O	1.000504	0.221890	-0.068721
O4	O	1.500504	0.721890	0.431279
O5	O	1.134687	0.087710	-0.068707
O6	O	1.634687	0.587710	0.431293
O7	O	1.142993	0.364382	-0.068723
O8	O	1.642993	0.864382	0.431277
O9	O	1.134666	0.087699	0.068786
O10	O	1.634666	0.587699	0.568786
O11	O	1.000483	0.221879	0.068773
O12	O	1.500483	0.721879	0.568773
O13	O	1.277155	0.230192	0.068783
O14	O	1.777155	0.730192	0.568783
Cu15	Cu	1.138817	0.226034	0.081332
Cu16	Cu	1.638817	0.726034	0.581332
Cu17	Cu	1.138842	0.226047	-0.081270
Cu18	Cu	1.638842	0.726047	0.418730
O19	O	1.142972	0.364371	0.068770
O20	O	1.642972	0.864371	0.568770
C21	C	0.964872	0.218248	0.000025
C22	C	1.464872	0.718248	0.500025
C23	C	0.858728	0.207401	0.000021
C24	C	1.358728	0.707401	0.500021
C25	C	0.613270	0.264501	0.000026
C26	C	1.113270	0.764501	0.500026
C27	C	0.664395	0.187585	0.000029
C28	C	1.164395	0.687585	0.500029
C29	C	0.772532	0.198613	0.000025
C30	C	1.272532	0.698613	0.500025
C31	C	0.505123	0.253474	0.000030
C32	C	1.005123	0.753474	0.500030
C33	C	1.131041	0.052083	0.000039
C34	C	1.631041	0.552083	0.500039
C35	C	1.120197	-0.054060	0.000040
C36	C	1.620197	0.445940	0.500040
C37	C	1.100370	-0.248398	0.000027
C38	C	1.600370	0.251602	0.500027
C39	C	1.177285	-0.299526	0.000028
C40	C	1.677285	0.200474	0.500028
C41	C	1.166253	-0.407663	0.000021
C42	C	1.666253	0.092337	0.500021
C43	C	1.111400	-0.140252	0.000034
C44	C	1.611400	0.359748	0.500034
C45	C	1.312788	0.233834	0.000036
C46	C	1.812788	0.733834	0.500036
C47	C	1.418931	0.244681	0.000034
C48	C	1.918931	0.744681	0.500034
C49	C	1.146618	0.399998	0.000021
C50	C	1.646618	0.899998	0.500021
C51	C	1.157463	0.506142	0.000015
C52	C	1.657463	1.006142	0.500015
N53	N	1.138807	0.226025	0.195697
N54	N	1.638807	0.726025	0.695697
N55	N	1.138860	0.226050	-0.195635
N56	N	1.638860	0.726050	0.304365
C57	C	1.198245	0.166638	0.238967
C58	C	1.698245	0.666638	0.738967
C59	C	1.198250	0.166638	0.325514
C60	C	1.698250	0.666638	0.825514
C61	C	1.138821	0.226029	0.368790
C62	C	1.638821	0.726029	0.868790
C63	C	1.079376	0.285418	0.325514
C64	C	1.579376	0.785418	0.825514
C65	C	1.079367	0.285413	0.238968
C66	C	1.579367	0.785413	0.738968
C67	C	1.079410	0.285439	0.674542
C68	C	1.579410	0.785439	1.174542
C69	C	1.079426	0.285442	0.761094
C70	C	1.579426	0.785442	1.261094
C71	C	1.198293	0.166664	0.761088
C72	C	1.698293	0.666664	1.261088
C73	C	1.198284	0.166659	0.674543
C74	C	1.698284	0.666659	1.174543
C75	C	1.138836	0.226044	0.631274
C76	C	1.638836	0.726044	1.131274
C77	C	1.138830	0.226042	0.537430
C78	C	1.638830	0.726042	1.037430
C79	C	1.138831	0.226036	0.462632
C80	C	1.638831	0.726036	0.962632
H81	H	0.626952	0.113452	-0.000025
H82	H	1.126952	0.613452	0.499975
C83	C	1.263622	0.101301	0.191372
C84	C	1.763622	0.601301	0.691372
N85	N	1.312864	0.052084	0.155526
N86	N	1.812864	0.552084	0.655526
C87	C	0.663852	0.364645	0.000012
C88	C	1.163852	0.864645	0.500012
N89	N	0.701962	0.440072	-0.000003
N90	N	1.201962	0.940072	0.499997
H91	H	1.251419	-0.262085	-0.000025
H92	H	1.751419	0.237915	0.499975
C93	C	1.000225	-0.298977	0.000034
C94	C	1.500225	0.201023	0.500034
N95	N	0.924797	-0.337085	0.000047
N96	N	1.424797	0.162915	0.500047
H97	H	1.246648	0.118280	0.360744
H98	H	1.746648	0.618280	0.860744
C99	C	1.014039	0.350773	0.808695
C100	C	1.514039	0.850773	1.308695
N101	N	0.964792	0.399978	0.844548
N102	N	1.464792	0.899978	1.344548
C103	C	1.014150	0.350899	0.626958
C104	C	1.514150	0.850899	1.126958
N105	N	0.965040	0.400254	0.591115
N106	N	1.465040	0.900254	1.091115
C107	C	1.263658	0.101321	0.626944
C108	C	1.763658	0.601321	1.126944
N109	N	1.312896	0.052104	0.591095
N110	N	1.812896	0.552104	1.091095
C111	C	1.263679	0.101329	0.808691
C112	C	1.763679	0.601329	1.308691
N113	N	1.312927	0.052121	0.844544
N114	N	1.812927	0.552121	1.344544
C115	C	1.013993	0.350740	0.373120
C116	C	1.513993	0.850740	0.873120
N117	N	0.964745	0.399942	0.408976
N118	N	1.464745	0.899942	0.908976
C119	C	1.013988	0.350751	0.191372
C120	C	1.513988	0.850751	0.691372
N121	N	0.964744	0.399967	0.155523
N122	N	1.464744	0.899967	0.655523
