data_functionalizedCrystal
_audit_creation_method	'MofGen! by Chris Wilmer'
_symmetry_space_group_name_H-M	'P1'
_symmetry_Int_Tables_number	1
_symmetry_cell_setting	triclinic
loop_
_symmetry_equiv_pos_as_xyz
  x,y,z
_cell_length_a	15.712078
_cell_length_b	15.538191
_cell_length_c	9.130313
_cell_angle_alpha	90.002806
_cell_angle_beta	89.989988
_cell_angle_gamma	83.426622
loop_
_atom_site_label
_atom_site_type_symbol
_atom_site_fract_x
_atom_site_fract_y
_atom_site_fract_z
O1	O	1.000636	0.466173	-0.122049
O2	O	0.769284	0.401459	-0.121989
O3	O	0.929994	0.312203	-0.122038
O4	O	0.839925	0.555429	-0.122001
O5	O	0.929992	0.312206	0.121561
O6	O	0.769281	0.401462	0.121610
O7	O	1.000633	0.466176	0.121550
Cu8	Cu	0.884957	0.433819	0.143822
Cu9	Cu	0.884960	0.433816	-0.144262
O10	O	0.839923	0.555432	0.121598
C11	C	0.740397	0.390888	-0.000182
C12	C	0.654328	0.359376	-0.000161
C13	C	0.203291	0.626921	-0.000221
C14	C	0.122426	0.597291	-0.000262
C15	C	0.189623	0.448823	-0.000288
C16	C	0.270496	0.478440	-0.000254
C17	C	0.277322	0.567490	-0.000219
C18	C	0.344527	0.419010	-0.000252
C19	C	0.425392	0.448625	-0.000211
C20	C	0.432227	0.537671	-0.000171
C21	C	0.358188	0.597106	-0.000177
C22	C	0.337698	0.329960	-0.000277
C23	C	0.411729	0.270529	-0.000275
C24	C	0.492597	0.300145	-0.000244
C25	C	0.499432	0.389191	-0.000204
C26	C	0.566636	0.240710	-0.000237
C27	C	0.647502	0.270326	-0.000196
C28	C	0.580297	0.418806	-0.000163
C29	C	0.939417	0.280355	-0.000246
C30	C	0.967486	0.185453	-0.000267
C31	C	0.688621	-0.198417	-0.000164
C32	C	0.715016	-0.287589	-0.000167
C33	C	0.863485	-0.258879	-0.000206
C34	C	0.837102	-0.169703	-0.000210
C35	C	0.749668	-0.139480	-0.000187
C36	C	0.898149	-0.110766	-0.000233
C37	C	0.871768	-0.021598	-0.000229
C38	C	0.784339	0.008633	-0.000202
C39	C	0.723287	-0.050312	-0.000183
C40	C	0.985582	-0.140991	-0.000246
C41	C	1.046630	-0.082053	-0.000269
C42	C	1.020249	0.007117	-0.000276
C43	C	0.932820	0.037347	-0.000248
C44	C	1.081301	0.066061	-0.000294
C45	C	1.054920	0.155229	-0.000290
C46	C	0.906439	0.126515	-0.000244
C47	C	1.029521	0.476747	-0.000260
C48	C	1.115589	0.508259	-0.000291
C49	C	0.830500	0.587280	-0.000197
C50	C	0.802431	0.682182	-0.000185
N51	N	0.884961	0.433823	0.346445
N52	N	0.884965	0.433807	-0.346884
C53	C	0.956131	0.394325	0.423075
C54	C	0.956132	0.394314	0.576412
C55	C	0.813788	0.473306	0.576475
C56	C	0.813785	0.473311	0.423141
C57	C	1.038313	0.348722	0.423041
C58	C	1.038314	0.348711	0.576377
H59	H	0.561064	0.168206	-0.000247
H60	H	0.184052	0.376317	-0.000300
C61	C	0.689521	-0.437026	-0.000143
C62	C	0.647905	-0.352377	-0.000140
H63	H	0.648090	-0.477021	-0.000112
H64	H	0.724339	-0.445742	-0.085098
H65	H	0.724348	-0.445726	0.084799
H66	H	0.613083	-0.343674	-0.085088
H67	H	0.613073	-0.343657	0.084824
H68	H	0.498075	0.561783	-0.000131
H69	H	0.208848	0.699434	-0.000190
H70	H	0.271850	0.305850	-0.000293
H71	H	0.755839	0.505456	0.638937
C72	C	0.771759	0.129499	-0.125451
C73	C	0.810330	0.159747	-0.000233
H74	H	0.712428	0.150013	-0.125438
H75	H	0.797945	0.150009	-0.210386
H76	H	0.778733	0.067958	-0.125436
H77	H	0.803361	0.221288	-0.000254
H78	H	0.784135	0.139241	0.084723
H79	H	1.045979	0.279093	0.381415
C80	C	0.283643	0.740909	-0.000164
C81	C	0.365700	0.694992	-0.000146
H82	H	0.288285	0.801336	-0.000136
H83	H	0.253522	0.726277	-0.085125
H84	H	0.253479	0.726262	0.084772
H85	H	0.395862	0.709634	-0.085089
H86	H	0.395834	0.709631	0.084823
C87	C	1.040290	0.196789	0.526345
C88	C	1.039512	0.257006	0.640575
H89	H	1.041043	0.140175	0.565983
H90	H	0.990497	0.209762	0.467834
H91	H	1.089869	0.199583	0.467762
H92	H	0.989929	0.254217	0.699152
H93	H	1.089310	0.244029	0.699110
C94	C	1.150471	0.437330	0.473015
C95	C	1.106009	0.402208	0.358808
H96	H	1.192266	0.470346	0.433355
H97	H	1.111382	0.473654	0.531578
H98	H	1.177931	0.391806	0.531551
H99	H	1.078544	0.447733	0.300277
H100	H	1.145104	0.365882	0.300219
H101	H	1.093754	0.383323	0.617981
H102	H	0.762861	0.081240	-0.000190
H103	H	0.062147	0.645693	-0.000256
C104	C	0.359802	0.151100	-0.125573
C105	C	0.404220	0.172648	-0.000322
H106	H	0.355174	0.090671	-0.125607
H107	H	0.304144	0.182252	-0.125563
H108	H	0.389977	0.165754	-0.210494
H109	H	0.374042	0.158000	0.084600
H110	H	0.459889	0.141485	-0.000318
C111	C	0.777461	0.217520	-0.125397
C112	C	0.728886	0.205006	-0.000199
H113	H	0.827708	0.177196	-0.125387
H114	H	0.744539	0.209052	-0.210345
H115	H	0.793091	0.274796	-0.125351
H116	H	0.713250	0.147731	-0.000251
H117	H	0.761814	0.213467	0.084771
H118	H	0.585854	0.491320	-0.000132
C119	C	0.579159	-0.087642	-0.000163
C120	C	0.627178	-0.017081	-0.000172
H121	H	0.519829	-0.067124	-0.000149
H122	H	0.592540	-0.121825	-0.085107
H123	H	0.592534	-0.121821	0.084790
H124	H	0.613808	0.017095	-0.085131
H125	H	0.613791	0.017116	0.084781
C126	C	0.998160	-0.261864	-0.125480
C127	C	0.959589	-0.292105	-0.000239
H128	H	1.057493	-0.282371	-0.125497
H129	H	0.971979	-0.282386	-0.210399
H130	H	0.991179	-0.200323	-0.125467
H131	H	0.966565	-0.353646	-0.000257
H132	H	0.985779	-0.271587	0.084702
C133	C	1.153000	-0.205993	-0.000302
C134	C	1.142734	-0.115280	-0.000302
H135	H	1.212332	-0.226502	-0.000334
H136	H	1.126828	-0.226493	0.084655
H137	H	1.126814	-0.226501	-0.085243
H138	H	1.168915	-0.094772	0.084645
H139	H	1.168918	-0.094771	-0.085267
C140	C	1.215986	0.063069	-0.125549
C141	C	1.177405	0.032834	-0.000312
H142	H	1.275318	0.042560	-0.125551
H143	H	1.189810	0.042545	-0.210471
H144	H	1.209007	0.124610	-0.125542
H145	H	1.184379	-0.028707	-0.000325
H146	H	1.203589	0.053353	0.084632
H147	H	0.617424	-0.173808	-0.000156
H148	H	1.104631	0.203219	-0.000308
C149	C	0.721797	0.604662	0.375993
C150	C	0.735550	0.516725	0.338910
H151	H	0.673498	0.631464	0.323986
H152	H	0.711615	0.610301	0.478278
H153	H	0.770947	0.631860	0.350840
H154	H	0.686402	0.489525	0.364073
H155	H	0.745726	0.511080	0.236602
H156	H	1.007059	-0.213598	-0.000263
