data_functionalizedCrystal
_audit_creation_method	'MofGen! by Chris Wilmer'
_symmetry_space_group_name_H-M	'P1'
_symmetry_Int_Tables_number	1
_symmetry_cell_setting	triclinic
loop_
_symmetry_equiv_pos_as_xyz
  x,y,z
_cell_length_a	10.723024
_cell_length_b	17.000371
_cell_length_c	9.798715
_cell_angle_alpha	89.996414
_cell_angle_beta	89.996609
_cell_angle_gamma	80.033559
loop_
_atom_site_label
_atom_site_type_symbol
_atom_site_fract_x
_atom_site_fract_y
_atom_site_fract_z
O1	O	1.643448	0.111567	-0.113483
O2	O	1.278980	0.122246	-0.113488
O3	O	1.483845	0.001163	-0.113475
O4	O	1.438584	0.232649	-0.113495
O5	O	1.483830	0.001163	0.113507
O6	O	1.278966	0.122245	0.113494
O7	O	1.643434	0.111566	0.113499
Zn8	Zn	1.461198	0.116906	0.149535
Zn9	Zn	1.461216	0.116906	-0.149524
O10	O	1.438569	0.232649	0.113487
C11	C	1.232569	0.121468	0.000003
C12	C	1.094301	0.119143	0.000001
C13	C	1.486269	-0.028477	0.000015
C14	C	1.493497	-0.116796	0.000014
C15	C	1.010975	0.186895	-0.000005
C16	C	0.868067	0.184493	-0.000007
C17	C	1.382252	-0.149429	0.000007
C18	C	1.389052	-0.232415	0.000010
C19	C	1.507098	-0.282767	0.000012
C20	C	1.618352	-0.250129	0.000023
C21	C	1.611551	-0.167144	0.000029
C22	C	1.533369	-0.533769	0.000003
C23	C	1.540161	-0.616759	-0.000007
C24	C	1.310861	-0.599040	-0.000018
C25	C	1.304070	-0.516054	-0.000020
C26	C	1.415324	-0.483424	-0.000001
C27	C	1.514052	-0.367592	0.000011
C28	C	1.408369	-0.398600	0.000009
C29	C	1.689845	0.112343	0.000006
C30	C	1.828112	0.114669	-0.000002
C31	C	1.436145	0.262289	-0.000007
C32	C	1.428916	0.350608	-0.000015
N33	N	1.461194	0.116905	0.353635
N34	N	1.461230	0.116901	-0.353623
C35	C	1.547238	0.065842	0.421417
C36	C	1.547259	0.065839	0.578580
H37	H	1.045435	0.246677	-0.000003
H38	H	1.286126	-0.108438	-0.000001
O39	O	1.280950	-0.264074	-0.000243
C40	C	1.087023	-0.274272	-0.117809
C41	C	1.209419	-0.238384	-0.117712
H42	H	1.029143	-0.253503	-0.212758
H43	H	1.112075	-0.342235	-0.117893
H44	H	1.029194	-0.253600	-0.022779
H45	H	1.267306	-0.258994	-0.212726
H46	H	1.184279	-0.170425	-0.117557
O47	O	1.373284	0.168950	0.423350
C48	C	1.201235	0.185093	0.584814
C49	C	1.300754	0.126064	0.505976
H50	H	1.142551	0.150443	0.651614
H51	H	1.250916	0.224988	0.651792
H52	H	1.136501	0.223557	0.509312
H53	H	1.365517	0.087547	0.581380
H54	H	1.250990	0.086224	0.438977
O55	O	1.634995	0.013592	0.351885
C56	C	1.722713	-0.124347	0.307861
C57	C	1.623247	-0.065272	0.386681
H58	H	1.713266	-0.188121	0.335987
H59	H	1.707022	-0.115100	0.193496
H60	H	1.821560	-0.113547	0.335822
H61	H	1.524359	-0.076036	0.358835
H62	H	1.639049	-0.074533	0.501027
H63	H	1.059841	0.059361	-0.000029
O64	O	1.373507	0.169095	0.576707
C65	C	1.335633	0.277543	0.415282
C66	C	1.435111	0.218466	0.494084
H67	H	1.385400	0.317486	0.348483
H68	H	1.276992	0.242966	0.348304
H69	H	1.270844	0.315951	0.490807
H70	H	1.499983	0.180044	0.418657
H71	H	1.493659	0.253092	0.561082
H72	H	0.899681	0.056665	-0.000005
O73	O	0.782737	0.253713	-0.000257
C74	C	0.703814	0.376767	-0.117820
C75	C	0.800501	0.298394	-0.117722
H76	H	0.718160	0.412921	-0.212766
H77	H	0.603742	0.362548	-0.117910
H78	H	0.718018	0.412877	-0.022787
H79	H	0.786414	0.262246	-0.212739
H80	H	0.900538	0.312669	-0.117562
H81	H	1.207945	-0.475063	-0.000025
H82	H	1.623959	-0.507212	0.000015
H83	H	1.610165	-0.408597	0.000010
H84	H	1.220285	-0.625617	-0.000031
H85	H	1.636294	-0.657754	-0.000015
H86	H	1.714467	-0.291132	0.000033
H87	H	1.702138	-0.140576	0.000038
H88	H	1.620929	0.022125	0.636869
O89	O	1.293672	-0.349726	0.000245
C90	C	1.095563	-0.309221	0.117768
C91	C	1.225426	-0.364612	0.117696
H92	H	1.040338	-0.321248	0.212703
H93	H	1.109746	-0.244291	0.117862
H94	H	1.040429	-0.321157	0.022724
H95	H	1.280628	-0.352747	0.212725
H96	H	1.211153	-0.429524	0.117532
