data_functionalizedCrystal
_audit_creation_method	'MofGen! by Chris Wilmer'
_symmetry_space_group_name_H-M	'P1'
_symmetry_Int_Tables_number	1
_symmetry_cell_setting	triclinic
loop_
_symmetry_equiv_pos_as_xyz
  x,y,z
_cell_length_a	19.188925
_cell_length_b	19.188924
_cell_length_c	9.730223
_cell_angle_alpha	89.996615
_cell_angle_beta	89.998856
_cell_angle_gamma	83.142256
loop_
_atom_site_label
_atom_site_type_symbol
_atom_site_fract_x
_atom_site_fract_y
_atom_site_fract_z
O1	O	0.926141	0.087147	-0.114326
O2	O	0.722829	0.098885	-0.114323
O3	O	0.830355	-0.008640	-0.114308
O4	O	0.818615	0.194672	-0.114340
O5	O	0.830353	-0.008638	0.114272
O6	O	0.722828	0.098888	0.114257
O7	O	0.926140	0.087149	0.114254
Zn8	Zn	0.824484	0.093019	0.150548
Zn9	Zn	0.824485	0.093015	-0.150616
O10	O	0.818614	0.194675	0.114240
C11	C	0.696817	0.098507	-0.000032
C12	C	0.619313	0.097368	-0.000031
C13	C	0.057541	0.152832	-0.000043
C14	C	0.130364	0.153908	-0.000050
C15	C	0.175300	0.090816	-0.000038
C16	C	0.147408	0.026642	-0.000053
C17	C	0.074586	0.025568	-0.000059
N18	N	0.295978	0.045141	0.077780
N19	N	0.365155	0.046166	0.077789
C20	C	0.394709	0.094050	-0.000022
N21	N	0.352471	0.140881	-0.077824
N22	N	0.283287	0.139858	-0.077827
C23	C	0.254264	0.091974	-0.000032
C24	C	0.501557	0.159387	-0.000025
C25	C	0.574381	0.160461	-0.000041
C26	C	0.591424	0.033193	-0.000030
C27	C	0.518600	0.032121	-0.000027
C28	C	0.473671	0.095220	-0.000018
C29	C	0.829975	-0.034650	-0.000017
C30	C	0.828836	-0.112155	-0.000013
C31	C	0.828305	-0.148555	-0.124612
C32	C	0.827225	-0.221378	-0.124623
C33	C	0.826690	-0.257799	-0.000027
C34	C	0.827217	-0.221390	0.124589
C35	C	0.828290	-0.148567	0.124596
N36	N	0.864738	-0.377462	0.092706
N37	N	0.863720	-0.446640	0.092691
C38	C	0.823456	-0.477208	-0.000040
N39	N	0.784257	-0.435986	-0.092777
N40	N	0.785278	-0.366802	-0.092766
C41	C	0.825526	-0.336763	-0.000021
C42	C	0.821753	-0.592571	-0.124659
C43	C	0.820669	-0.665395	-0.124665
C44	C	0.820668	-0.665406	0.124551
C45	C	0.821745	-0.592583	0.124552
C46	C	0.822291	-0.556170	-0.000056
C47	C	0.952151	0.087528	-0.000039
C48	C	1.029656	0.088667	-0.000050
C49	C	0.818994	0.220684	-0.000055
C50	C	0.820133	0.298189	-0.000067
N51	N	0.824488	0.093021	0.356084
N52	N	0.824487	0.093008	-0.356153
C53	C	0.872112	0.045425	0.428017
C54	C	0.872110	0.045416	0.571900
C55	C	0.776857	0.140606	0.571905
C56	C	0.776856	0.140611	0.428024
C57	C	0.927107	-0.009531	0.428015
C58	C	0.927106	-0.009539	0.571898
H59	H	0.153073	0.206161	-0.000031
C60	C	0.768610	-0.118121	0.337011
C61	C	0.828877	-0.108552	0.261565
H62	H	0.768977	-0.093419	0.421574
H63	H	0.728090	-0.100729	0.285813
H64	H	0.767900	-0.166704	0.354832
H65	H	0.829585	-0.059969	0.243736
H66	H	0.869409	-0.125940	0.312775
H67	H	0.980624	0.001793	0.610945
H68	H	0.628010	-0.018178	-0.000030
C69	C	0.266607	-0.028218	-0.000017
C70	C	0.196799	-0.042710	-0.000033
H71	H	0.297097	-0.071036	-0.000001
H72	H	0.275040	-0.001900	-0.079722
H73	H	0.275028	-0.001897	0.079700
H74	H	0.188376	-0.069027	-0.079756
H75	H	0.188362	-0.069039	0.079681
H76	H	0.738077	0.179353	0.630494
H77	H	0.915818	-0.063061	0.388970
C78	C	0.883000	-0.518735	-0.269230
C79	C	0.822365	-0.552553	-0.261637
H80	H	0.883384	-0.494039	-0.353802
H81	H	0.883465	-0.486625	-0.195043
H82	H	0.923275	-0.552610	-0.264017
H83	H	0.782090	-0.518677	-0.266839
H84	H	0.821894	-0.584665	-0.335844
C85	C	0.048016	0.278737	-0.000052
C86	C	0.008156	0.222190	-0.000051
H87	H	0.017525	0.321555	-0.000068
H88	H	0.076768	0.276508	0.079659
H89	H	0.076780	0.276504	-0.079764
H90	H	-0.020605	0.224420	0.079666
H91	H	-0.020608	0.224420	-0.079770
H92	H	0.051883	-0.026685	-0.000065
C93	C	0.492023	0.285292	-0.000061
C94	C	0.452165	0.228743	-0.000043
H95	H	0.461530	0.328109	-0.000083
H96	H	0.520776	0.283068	0.079647
H97	H	0.520785	0.283056	-0.079775
H98	H	0.423406	0.230976	0.079678
H99	H	0.423399	0.230968	-0.079759
C100	C	0.823389	-0.480958	0.235212
C101	C	0.822336	-0.552567	0.261517
H102	H	0.823748	-0.456254	0.319774
H103	H	0.864269	-0.474475	0.184027
H104	H	0.782856	-0.463577	0.184015
H105	H	0.862872	-0.569949	0.312706
H106	H	0.781452	-0.559053	0.312724
H107	H	0.977604	0.006879	0.383385
H108	H	0.820233	-0.695030	-0.226132
C109	C	0.446603	-0.042918	-0.117534
C110	C	0.487947	-0.038414	-0.000024
H111	H	0.427684	-0.086468	-0.117538
H112	H	0.409423	-0.005502	-0.117528
H113	H	0.474667	-0.039850	-0.197232
H114	H	0.459881	-0.041476	0.079675
H115	H	0.525132	-0.075840	-0.000018
H116	H	0.597083	0.212714	-0.000046
C117	C	0.828196	-0.155864	-0.370949
C118	C	0.828894	-0.108530	-0.261581
H119	H	0.828554	-0.131151	-0.455506
H120	H	0.868483	-0.189714	-0.365769
H121	H	0.787070	-0.178820	-0.365755
H122	H	0.870023	-0.085577	-0.266770
H123	H	0.788603	-0.074667	-0.266764
H124	H	0.826779	-0.251048	0.226036
C125	C	0.825589	-0.333010	-0.235278
C126	C	0.826645	-0.261402	-0.261591
H127	H	0.825227	-0.357715	-0.319837
H128	H	0.866114	-0.350389	-0.184080
H129	H	0.784701	-0.339488	-0.184089
H130	H	0.867536	-0.254923	-0.312771
H131	H	0.786116	-0.244017	-0.312810
C132	C	0.818996	-0.777034	0.235196
C133	C	0.820060	-0.705429	0.261511
H134	H	0.818616	-0.801743	0.319755
H135	H	0.778123	-0.783504	0.183982
H136	H	0.859535	-0.794420	0.184023
H137	H	0.779517	-0.688043	0.312677
H138	H	0.860937	-0.698956	0.312747
C139	C	0.682700	0.234696	0.442488
C140	C	0.724502	0.192926	0.348955
H141	H	0.650380	0.266996	0.393671
H142	H	0.657683	0.205689	0.498605
H143	H	0.711687	0.259740	0.498607
H144	H	0.695515	0.167878	0.292842
H145	H	0.749520	0.221937	0.292815
H146	H	0.910739	-0.060058	0.616522
