data_functionalizedCrystal
_audit_creation_method	'MofGen! by Chris Wilmer'
_symmetry_space_group_name_H-M	'P1'
_symmetry_Int_Tables_number	1
_symmetry_cell_setting	triclinic
loop_
_symmetry_equiv_pos_as_xyz
  x,y,z
_cell_length_a	17.077404
_cell_length_b	21.295417
_cell_length_c	17.077396
_cell_angle_alpha	89.965973
_cell_angle_beta	89.983895
_cell_angle_gamma	90.028477
loop_
_atom_site_label
_atom_site_type_symbol
_atom_site_fract_x
_atom_site_fract_y
_atom_site_fract_z
Zn1	Zn	1.199996	-0.250638	-0.443793
Zn2	Zn	1.199890	-0.355913	-0.312516
Zn3	Zn	1.068733	-0.250658	-0.312544
Zn4	Zn	1.068678	-0.355870	-0.443743
O5	O	1.134324	-0.303270	-0.378149
O6	O	1.309828	-0.264613	-0.426389
O7	O	1.182471	-0.341977	-0.202673
O8	O	1.086212	-0.162566	-0.329987
O9	O	1.309751	-0.341958	-0.329940
O10	O	1.182650	-0.162551	-0.426415
O11	O	1.086110	-0.264646	-0.202693
O12	O	0.958878	-0.264604	-0.329938
O13	O	1.086119	-0.341884	-0.553596
O14	O	0.958838	-0.341903	-0.426329
O15	O	1.182597	-0.264571	-0.553633
O16	O	1.182418	-0.443996	-0.329891
O17	O	1.086017	-0.443965	-0.426302
C18	C	0.930376	-0.303252	-0.378131
C19	C	0.843126	-0.303259	-0.378142
C20	C	0.802177	-0.263057	-0.428440
C21	C	0.720197	-0.263061	-0.428443
C22	C	0.679167	-0.303271	-0.378153
C23	C	0.720122	-0.343475	-0.327850
C24	C	0.802101	-0.343467	-0.327843
C25	C	0.549252	-0.343489	-0.327870
C26	C	0.467267	-0.343498	-0.327877
C27	C	0.467348	-0.263083	-0.428470
C28	C	0.549327	-0.263076	-0.428463
C29	C	0.590276	-0.303280	-0.378161
C30	C	1.134221	-0.466821	-0.378105
C31	C	1.134249	-0.536789	-0.378113
C32	C	1.184490	-0.569651	-0.327963
C33	C	1.184526	-0.635394	-0.327981
C34	C	1.134309	-0.668272	-0.378140
C35	C	1.084064	-0.635402	-0.428300
C36	C	1.084035	-0.569660	-0.428286
N37	N	1.065640	-0.771535	-0.384118
N38	N	1.065670	-0.833987	-0.384127
C39	C	1.134396	-0.866346	-0.378185
N40	N	1.203093	-0.833895	-0.372220
N41	N	1.203061	-0.771438	-0.372207
C42	C	1.134336	-0.739557	-0.378161
C43	C	1.184681	-0.970494	-0.328052
C44	C	1.184719	-1.036238	-0.328075
C45	C	1.084250	-1.036244	-0.428390
C46	C	1.084219	-0.970502	-0.428371
C47	C	1.134434	-0.937631	-0.378198
C48	C	1.339068	-0.303288	-0.378167
C49	C	1.426318	-0.303296	-0.378175
C50	C	1.134364	-0.303221	-0.582893
C51	C	1.134380	-0.303200	-0.670143
C52	C	1.134449	-0.139079	-0.378210
C53	C	1.134502	-0.069111	-0.378236
C54	C	1.084220	-0.262929	-0.711143
C55	C	1.084233	-0.262915	-0.793124
C56	C	1.134410	-0.303169	-0.834103
C57	C	1.184573	-0.343444	-0.793097
C58	C	1.184555	-0.343461	-0.711118
C59	C	1.184607	-0.343405	-0.963967
C60	C	1.184625	-0.343387	-1.045952
C61	C	1.084285	-0.262859	-1.045973
C62	C	1.084267	-0.262876	-0.963994
C63	C	1.134431	-0.303150	-0.922994
C64	C	1.134330	-0.303273	-0.174201
C65	C	1.134465	-0.303116	-0.086952
H66	H	0.582590	-0.376226	-0.286906
H67	H	1.225407	-0.376249	-0.677737
H68	H	0.835578	-0.230316	-0.469394
O69	O	0.680353	-0.382622	-0.279037
C70	C	0.700350	-0.445377	-0.296059
H71	H	0.759884	-0.446705	-0.326224
H72	H	0.703118	-0.473547	-0.239342
H73	H	0.654218	-0.466624	-0.336374
O74	O	1.035366	-0.667308	-0.477136
C75	C	1.052455	-0.651174	-0.555383
H76	H	1.115154	-0.633057	-0.559398
H77	H	1.045689	-0.694390	-0.594166
H78	H	1.010341	-0.613031	-0.575859
H79	H	1.043385	-0.230125	-0.826502
O80	O	1.233348	-0.537819	-0.279210
C81	C	1.277688	-0.580927	-0.234937
H82	H	1.280402	-0.627769	-0.267100
H83	H	1.339534	-0.561898	-0.226618
H84	H	1.248985	-0.587972	-0.175294
O85	O	1.233534	-0.938656	-0.279294
C86	C	1.277878	-0.981762	-0.235023
H87	H	1.280603	-1.028602	-0.267191
H88	H	1.339720	-0.962727	-0.226697
H89	H	1.249170	-0.988815	-0.175383
H90	H	1.225424	-0.376222	-0.826468
O91	O	0.680540	-0.223990	-0.477377
C92	C	0.734333	-0.188490	-0.521752
H93	H	0.792758	-0.214274	-0.524406
H94	H	0.710672	-0.181839	-0.583616
H95	H	0.743069	-0.140651	-0.493117
H96	H	1.225636	-1.062993	-0.287238
O97	O	1.035527	-0.223678	-1.085675
C98	C	0.991226	-0.188161	-1.031926
H99	H	1.023370	-0.185998	-0.973494
H100	H	0.982897	-0.138558	-1.055633
H101	H	0.931588	-0.211207	-1.023191
H102	H	1.225484	-0.376165	-1.079315
O103	O	1.035496	-1.068271	-0.477044
C104	C	1.046312	-1.133344	-0.466322
H105	H	1.072059	-1.142344	-0.405767
H106	H	0.987524	-1.158368	-0.471604
H107	H	1.088098	-1.151939	-0.512923
H108	H	1.043305	-0.943744	-0.469204
H109	H	0.582731	-0.230337	-0.469418
H110	H	1.043412	-0.230095	-0.930631
O111	O	1.035337	-0.537706	-0.477085
C112	C	1.079978	-0.499602	-0.527800
H113	H	1.141809	-0.519367	-0.532710
H114	H	1.051551	-0.498836	-0.588185
H115	H	1.082673	-0.449792	-0.503518
O116	O	0.427611	-0.224092	-0.477444
C117	C	0.447680	-0.237920	-0.555644
H118	H	0.470188	-0.288212	-0.559486
H119	H	0.393785	-0.232539	-0.594443
H120	H	0.495292	-0.204191	-0.576238
O121	O	0.427531	-0.382575	-0.278951
C122	C	0.481250	-0.418067	-0.234561
H123	H	0.539699	-0.392276	-0.231893
H124	H	0.457531	-0.424719	-0.172702
H125	H	0.489959	-0.465906	-0.263191
O126	O	0.841969	-0.382552	-0.279096
C127	C	0.889373	-0.423259	-0.323689
H128	H	0.901685	-0.401117	-0.383227
H129	H	0.947005	-0.431656	-0.291691
H130	H	0.857761	-0.469922	-0.332207
O131	O	1.233397	-0.667360	-0.279363
C132	C	1.284076	-0.705351	-0.324085
H133	H	1.288914	-0.685498	-0.385907
H134	H	1.344491	-0.706090	-0.295722
H135	H	1.259806	-0.755183	-0.326790
H136	H	1.225462	-0.376195	-0.930587
O137	O	1.035402	-0.223807	-0.671461
C138	C	0.991145	-0.188251	-0.725233
H139	H	0.988423	-0.214022	-0.783659
H140	H	0.929297	-0.181537	-0.701547
H141	H	1.019926	-0.140441	-0.733973
