data_functionalizedCrystal
_audit_creation_method	'MofGen! by Chris Wilmer'
_symmetry_space_group_name_H-M	'P1'
_symmetry_Int_Tables_number	1
_symmetry_cell_setting	triclinic
loop_
_symmetry_equiv_pos_as_xyz
  x,y,z
_cell_length_a	14.044191
_cell_length_b	14.044220
_cell_length_c	16.776229
_cell_angle_alpha	89.992807
_cell_angle_beta	89.995052
_cell_angle_gamma	93.190327
loop_
_atom_site_label
_atom_site_type_symbol
_atom_site_fract_x
_atom_site_fract_y
_atom_site_fract_z
O1	O	1.277177	0.230202	-0.066253
O2	O	1.000504	0.221890	-0.066263
O3	O	1.134688	0.087710	-0.066250
O4	O	1.142993	0.364382	-0.066266
O5	O	1.134666	0.087700	0.066326
O6	O	1.000483	0.221879	0.066313
O7	O	1.277155	0.230192	0.066323
Zn8	Zn	1.138816	0.226034	0.087368
Zn9	Zn	1.138844	0.226048	-0.087308
O10	O	1.142972	0.364371	0.066311
C11	C	0.964872	0.218248	0.000024
C12	C	0.858728	0.207401	0.000020
C13	C	0.613270	0.264501	0.000025
C14	C	0.664395	0.187585	0.000028
C15	C	0.772532	0.198613	0.000024
C16	C	0.505123	0.253474	0.000029
C17	C	1.131041	0.052083	0.000038
C18	C	1.120197	-0.054060	0.000039
C19	C	1.100370	-0.248398	0.000026
C20	C	1.177285	-0.299526	0.000027
C21	C	1.166253	-0.407663	0.000020
C22	C	1.111400	-0.140252	0.000033
C23	C	1.312788	0.233834	0.000034
C24	C	1.418931	0.244681	0.000033
C25	C	1.146618	0.399998	0.000020
C26	C	1.157463	0.506142	0.000015
N27	N	1.138803	0.226025	0.206579
C28	C	1.198241	0.166638	0.248302
C29	C	1.198246	0.166638	0.331754
C30	C	1.138817	0.226030	0.373482
C31	C	1.079372	0.285419	0.331753
C32	C	1.079363	0.285413	0.248303
C33	C	1.079405	0.285442	0.668300
C34	C	1.079420	0.285445	0.751757
C35	C	1.198288	0.166667	0.751752
C36	C	1.198279	0.166661	0.668301
C37	C	1.138831	0.226046	0.626580
C38	C	1.138826	0.226044	0.536091
C39	C	1.138826	0.226038	0.463969
N40	N	1.138854	0.226053	0.793481
H41	H	0.626952	0.113452	-0.000024
O42	O	0.662856	0.362696	0.000009
H43	H	0.741240	0.356056	-0.000001
O44	O	1.002178	-0.297989	0.000026
H45	H	0.947529	-0.243857	0.000024
H46	H	1.031023	0.333810	0.785731
O47	O	1.015261	0.349470	0.203295
H48	H	0.973944	0.390778	0.246329
H49	H	1.246640	0.118279	0.214332
O50	O	1.275488	-0.249943	0.000045
H51	H	1.268858	-0.171558	0.000058
H52	H	1.246644	0.118281	0.365724
H53	H	1.246675	0.118302	0.634329
H54	H	1.246691	0.118309	0.785730
O55	O	1.015295	0.349496	0.623306
H56	H	1.033761	0.424958	0.639307
O57	O	1.015274	0.349484	0.376754
H58	H	1.025274	0.339522	0.441792
