data_functionalizedCrystal
_audit_creation_method	'MofGen! by Chris Wilmer'
_symmetry_space_group_name_H-M	'P1'
_symmetry_Int_Tables_number	1
_symmetry_cell_setting	triclinic
loop_
_symmetry_equiv_pos_as_xyz
  x,y,z
_cell_length_a	15.995300
_cell_length_b	15.995343
_cell_length_c	15.072220
_cell_angle_alpha	89.994148
_cell_angle_beta	89.985917
_cell_angle_gamma	83.480495
loop_
_atom_site_label
_atom_site_type_symbol
_atom_site_fract_x
_atom_site_fract_y
_atom_site_fract_z
O1	O	1.111019	0.107721	-0.073824
O2	O	0.867238	0.121092	-0.073820
O3	O	0.995796	-0.007483	-0.073806
O4	O	0.982461	0.236296	-0.073839
O5	O	0.995764	-0.007476	0.073759
O6	O	0.867206	0.121099	0.073745
O7	O	1.110987	0.107728	0.073741
Zn8	Zn	0.989092	0.114415	0.097172
Zn9	Zn	0.989133	0.114405	-0.097251
O10	O	0.982429	0.236303	0.073726
C11	C	0.836026	0.120551	-0.000037
C12	C	0.743074	0.118916	-0.000035
C13	C	0.572891	0.115896	-0.000041
C14	C	0.525422	0.207444	-0.000051
C15	C	0.428735	0.205774	-0.000388
C16	C	0.405334	0.112924	-0.000046
C17	C	0.446486	0.067500	-0.084141
C18	C	0.543120	0.069816	-0.084210
C19	C	0.543363	0.068469	0.083606
C20	C	0.446418	0.068478	0.084709
C21	C	0.310639	0.111240	-0.000052
C22	C	0.667586	0.117578	-0.000041
C23	C	0.995230	-0.038674	-0.000021
C24	C	0.993580	-0.131624	-0.000014
C25	C	0.990587	-0.301810	-0.000034
C26	C	0.897788	-0.325139	-0.000035
C27	C	0.896042	-0.421817	-0.000379
C28	C	0.987638	-0.469370	-0.000053
C29	C	1.034317	-0.440283	-0.084151
C30	C	1.035418	-0.343491	-0.084212
C31	C	1.036740	-0.343587	0.083603
C32	C	1.033314	-0.440082	0.084698
C33	C	0.985977	-0.564068	-0.000067
C34	C	0.992251	-0.207113	-0.000027
C35	C	1.142199	0.108270	-0.000045
C36	C	1.235151	0.109905	-0.000053
C37	C	0.982995	0.267494	-0.000060
C38	C	0.984645	0.360445	-0.000073
N39	N	0.989069	0.114421	0.229861
N40	N	0.989163	0.114393	-0.229940
C41	C	0.989132	0.114402	0.589062
C42	C	0.920112	0.182969	0.551448
C43	C	0.920270	0.183220	0.448622
C44	C	0.989100	0.114411	0.410858
C45	C	1.076466	0.133477	0.448145
C46	C	1.076080	0.133965	0.551003
C47	C	0.971564	0.026565	0.551175
C48	C	0.969560	0.027152	0.448311
C49	C	0.989088	0.114415	0.310145
C50	C	0.989150	0.114400	0.689776
H51	H	0.431081	0.000784	0.090045
O52	O	1.038213	-0.041014	0.583458
H53	H	1.008046	-0.088466	0.622151
H54	H	0.575145	0.000972	0.084424
H55	H	0.400899	0.241307	-0.061031
H56	H	0.859495	-0.440831	0.059888
O57	O	0.988334	-0.464715	0.167121
H58	H	0.933672	-0.497678	0.147816
O59	O	1.146154	0.070332	0.583966
H60	H	1.190480	0.102697	0.624739
H61	H	0.909241	0.008228	0.577169
H62	H	0.931175	0.247785	0.577277
O63	O	0.834243	0.168197	0.415228
H64	H	0.834268	0.168363	0.341586
O65	O	0.567427	0.113167	-0.167799
H66	H	0.534908	0.178249	-0.169523
O67	O	1.125560	-0.324199	-0.088963
H68	H	1.127020	-0.254988	-0.089036
O69	O	1.127215	-0.325030	0.084688
H70	H	1.159372	-0.354736	0.143919
O71	O	0.551400	0.255459	-0.079822
H72	H	0.495242	0.275347	-0.121179
H73	H	1.100151	-0.473042	0.090028
O74	O	0.585883	-0.019225	-0.088963
H75	H	0.537515	-0.063747	-0.091209
O76	O	0.833808	0.168194	0.584260
H77	H	0.839180	0.111825	0.627733
H78	H	1.129053	0.084864	0.423681
H79	H	1.003495	-0.316697	-0.147315
H80	H	0.905292	0.012682	0.423943
O81	O	0.408946	0.108762	-0.167373
H82	H	0.420606	0.175848	-0.168453
O83	O	1.097467	0.217367	0.414017
H84	H	1.045821	0.245609	0.370510
O85	O	0.935133	0.269560	0.416001
H86	H	0.880768	0.296101	0.375145
H87	H	0.432389	-0.000724	-0.087023
H88	H	0.861805	-0.297127	0.060266
O89	O	0.850912	-0.286705	-0.079771
H90	H	0.893424	-0.251067	-0.119407
O91	O	0.847899	-0.446234	-0.080699
H92	H	0.879315	-0.426835	-0.141799
O93	O	0.391002	0.253055	0.079438
H94	H	0.441808	0.277325	0.118629
H95	H	0.563848	0.098612	0.147366
O96	O	1.096585	0.218814	0.582769
H97	H	1.106678	0.259114	0.524665
H98	H	1.016565	-0.026262	0.422609
O99	O	0.410202	0.112419	0.167126
H100	H	0.363131	0.165688	0.147816
H101	H	1.101730	-0.472141	-0.087045
H102	H	1.007448	-0.315314	0.147369
O103	O	0.549900	0.256196	0.079806
H104	H	0.596164	0.215703	0.120357
H105	H	1.002315	-0.460365	-0.146976
