data_functionalizedCrystal
_audit_creation_method	'MofGen! by Chris Wilmer'
_symmetry_space_group_name_H-M	'P1'
_symmetry_Int_Tables_number	1
_symmetry_cell_setting	triclinic
loop_
_symmetry_equiv_pos_as_xyz
  x,y,z
_cell_length_a	18.627243
_cell_length_b	18.627245
_cell_length_c	18.627297
_cell_angle_alpha	59.997585
_cell_angle_beta	90.001510
_cell_angle_gamma	119.999685
loop_
_atom_site_label
_atom_site_type_symbol
_atom_site_fract_x
_atom_site_fract_y
_atom_site_fract_z
O1	O	0.611883	-0.513841	0.021357
O2	O	0.507488	-0.366832	-0.021256
O3	O	0.507484	-0.513838	0.125752
O4	O	0.611888	-0.366834	-0.125651
O5	O	0.388083	-0.633240	0.125751
O6	O	0.388087	-0.486233	-0.021256
O7	O	0.492482	-0.633242	0.021356
Cu8	Cu	0.429382	-0.570640	0.000050
Cu9	Cu	0.570588	-0.429434	0.000050
O10	O	0.492486	-0.486235	-0.125651
C11	C	0.386980	-0.226044	-0.030935
C12	C	0.431279	-0.137446	-0.024836
C13	C	0.300580	-0.269040	-0.031540
C14	C	0.386982	-0.356040	-0.030943
C15	C	0.431285	-0.406433	-0.024853
C16	C	0.300583	-0.398838	-0.031548
C17	C	0.256979	-0.356045	-0.030935
C18	C	0.162281	-0.406444	-0.024835
C19	C	0.430386	-0.269035	-0.031548
O20	O	-0.125719	-0.633251	0.021369
O21	O	0.125681	-0.486243	-0.021239
O22	O	-0.021314	-0.633255	0.125767
O23	O	0.021276	-0.486239	-0.125636
O24	O	-0.021317	-0.513858	0.125774
O25	O	0.125678	-0.366846	-0.021231
O26	O	-0.125722	-0.513854	0.021377
Cu27	Cu	-0.000023	-0.429448	0.000073
Cu28	Cu	-0.000019	-0.570649	0.000065
O29	O	0.021272	-0.366842	-0.125629
C30	C	0.612987	-0.356040	-0.386951
C31	C	0.568685	-0.406438	-0.431250
C32	C	0.699386	-0.269033	-0.430357
C33	C	0.612988	-0.356038	-0.256951
C34	C	0.568688	-0.406435	-0.162253
C35	C	0.699387	-0.269032	-0.300554
C36	C	0.742988	-0.226038	-0.386954
C37	C	0.837686	-0.137438	-0.431255
C38	C	0.569583	-0.398836	-0.300552
C39	C	0.742982	-0.644047	0.031065
C40	C	0.837678	-0.593652	0.024971
C41	C	0.699380	-0.731055	0.031674
C42	C	0.612983	-0.644043	0.031058
C43	C	0.568684	-0.593643	0.024957
C44	C	0.569578	-0.731050	0.031667
C45	C	0.612982	-0.774047	0.031064
C46	C	0.568682	-0.862649	0.024970
C47	C	0.699381	-0.601247	0.031668
O48	O	0.492478	0.104346	0.021375
O49	O	0.388078	-0.104446	-0.021232
O50	O	0.388083	-0.104458	0.125773
O51	O	0.492473	0.104358	-0.125630
O52	O	0.507487	-0.104454	0.125766
O53	O	0.507482	-0.104442	-0.021240
O54	O	0.611882	0.104350	0.021368
Cu55	Cu	0.570585	-0.000046	0.000063
Cu56	Cu	0.429376	-0.000051	0.000072
O57	O	0.611877	0.104362	-0.125638
O58	O	1.125688	0.104365	-0.492462
O59	O	0.874289	-0.104433	-0.388057
O60	O	1.021286	-0.104439	-0.388053
O61	O	0.978691	0.104371	-0.492466
O62	O	1.021283	-0.104442	-0.507453
O63	O	0.874286	-0.104436	-0.507457
O64	O	1.125685	0.104362	-0.611862
Cu65	Cu	0.999985	-0.000037	-0.570562
Cu66	Cu	0.999989	-0.000034	-0.429357
O67	O	0.978688	0.104368	-0.611867
O68	O	0.507485	-0.513838	-0.611849
O69	O	0.611885	-0.366837	-0.507452
O70	O	0.611882	-0.513842	-0.507444
O71	O	0.507487	-0.366833	-0.611857
O72	O	0.492480	-0.633244	-0.388041
O73	O	0.492482	-0.486240	-0.388049
O74	O	0.388082	-0.633240	-0.492446
Cu75	Cu	0.429380	-0.570642	-0.429345
Cu76	Cu	0.570587	-0.429435	-0.570553
O77	O	0.388085	-0.486235	-0.492454
C78	C	0.256980	-0.774037	0.387053
C79	C	0.162283	-0.862638	0.431354
C80	C	0.300582	-0.731043	0.430457
C81	C	0.386981	-0.644036	0.257051
C82	C	0.431282	-0.593639	0.162353
C83	C	0.430386	-0.601239	0.300653
C84	C	0.386981	-0.644036	0.387052
C85	C	0.431282	-0.593639	0.431351
C86	C	0.300582	-0.731043	0.300654
C87	C	-0.031002	-0.644069	0.387076
C88	C	-0.024905	-0.593677	0.431380
C89	C	-0.031606	-0.731075	0.430478
C90	C	-0.031005	-0.644060	0.257071
C91	C	-0.024913	-0.593659	0.162373
C92	C	-0.031609	-0.731067	0.300670
C93	C	-0.030998	-0.774065	0.387070
C94	C	-0.024898	-0.862666	0.431367
C95	C	-0.031613	-0.601268	0.300676
C96	C	0.030957	-0.226033	-0.386933
C97	C	0.024857	-0.137433	-0.431231
C98	C	0.031564	-0.269024	-0.430340
C99	C	0.030964	-0.356038	-0.256933
C100	C	0.024871	-0.406439	-0.162235
C101	C	0.031571	-0.398831	-0.300538
C102	C	0.030960	-0.356030	-0.386937
C103	C	0.024864	-0.406423	-0.431240
C104	C	0.031568	-0.269031	-0.300533
C105	C	0.386985	-0.356095	0.387059
C106	C	0.431287	-0.406495	0.431353
C107	C	0.300585	-0.398901	0.430467
C108	C	0.386983	-0.226079	0.257066
C109	C	0.431284	-0.137465	0.162371
C110	C	0.300583	-0.269082	0.300671
C111	C	0.256982	-0.356100	0.387067
C112	C	0.162284	-0.406505	0.431370
C113	C	0.430389	-0.269077	0.300663
O114	O	0.021327	-0.486273	0.611977
O115	O	-0.021299	-0.633279	0.507581
O116	O	0.125711	-0.486272	0.507563
O117	O	-0.125683	-0.633280	0.611996
O118	O	0.125697	-0.366871	0.388165
O119	O	-0.021314	-0.513878	0.388184
O120	O	0.021313	-0.366872	0.492580
Cu121	Cu	-0.000002	-0.429473	0.429480
Cu122	Cu	0.000015	-0.570678	0.570681
O123	O	-0.125697	-0.513879	0.492598
C124	C	0.742978	0.356003	-0.386932
C125	C	0.837676	0.406407	-0.431235
C126	C	0.699375	0.398804	-0.430331
C127	C	0.612977	0.225983	-0.256931
C128	C	0.568677	0.137368	-0.162235
C129	C	0.569571	0.268981	-0.300527
C130	C	0.612976	0.355999	-0.386923
C131	C	0.568674	0.406400	-0.431217
C132	C	0.699377	0.268985	-0.300536
H133	H	0.734391	-0.233053	-0.265546
H134	H	0.498583	0.232990	-0.265514
H135	H	0.498592	-0.767025	0.032638
H136	H	0.265563	-0.767012	0.265643
O137	O	-0.032609	-0.773914	0.258884
C138	C	0.041418	-0.823035	0.207231
C139	C	0.042662	-0.774478	0.254551
H140	H	0.102258	-0.823527	0.203729
H141	H	0.041159	-0.777316	0.137827
H142	H	-0.020129	-0.904285	0.245164
H143	H	0.104199	-0.693234	0.216691
H144	H	0.042874	-0.820273	0.323960
O145	O	0.032915	-0.482234	-0.258814
C146	C	0.110409	-0.554160	-0.187124
C147	C	0.108994	-0.459639	-0.234365
H148	H	0.171903	-0.535932	-0.167327
H149	H	0.110809	-0.577476	-0.233159
H150	H	0.049518	-0.619080	-0.125853
H151	H	0.169874	-0.394656	-0.295633
H152	H	0.108550	-0.436410	-0.188269
O153	O	-0.032604	-0.773870	0.515114
C154	C	0.041429	-0.751525	0.615896
C155	C	0.042674	-0.702945	0.520015
H156	H	0.102275	-0.694198	0.619893
H157	H	0.041158	-0.821194	0.639578
H158	H	-0.020112	-0.775134	0.659215
H159	H	0.104205	-0.679274	0.476629
H160	H	0.042898	-0.633319	0.496404
H161	H	0.032540	-0.233033	-0.501330
H162	H	0.734389	-0.767036	0.032654
H163	H	0.734382	0.468821	-0.501321
O164	O	0.741267	-0.517640	0.032708
C165	C	0.864340	-0.342789	-0.041376
C166	C	0.817010	-0.437405	-0.042648
H167	H	0.925577	-0.277889	-0.102304
H168	H	0.884167	-0.360905	0.020098
H169	H	0.818269	-0.319511	-0.041006
H170	H	0.863032	-0.460733	-0.043051
H171	H	0.797168	-0.419237	-0.104116
O172	O	0.258934	-0.225936	-0.032899
C173	C	0.258643	-0.076794	-0.110582
C174	C	0.305913	-0.125483	-0.109088
H175	H	0.296595	0.004422	-0.172183
H176	H	0.255005	-0.076233	-0.049786
H177	H	0.189287	-0.122564	-0.110905
H178	H	0.375290	-0.079753	-0.108794
H179	H	0.309481	-0.126060	-0.169879
H180	H	0.501378	-0.233093	0.265656
H181	H	0.501371	-0.531219	0.265638
O182	O	0.741250	-0.226102	-0.515014
C183	C	0.864303	-0.177064	-0.615843
C184	C	0.817012	-0.225673	-0.519940
H185	H	0.925555	-0.176720	-0.619854
H186	H	0.884101	-0.095773	-0.659194
H187	H	0.818217	-0.222781	-0.639472
H188	H	0.863048	-0.180037	-0.496230
H189	H	0.797199	-0.306972	-0.476647
H190	H	0.501377	-0.233045	-0.032532
O191	O	0.258905	-0.226015	0.258940
C192	C	0.258663	-0.076835	0.187233
C193	C	0.305941	-0.125486	0.234488
H194	H	0.296682	0.004456	0.167434
H195	H	0.189306	-0.122474	0.233259
H196	H	0.255028	-0.076457	0.125962
H197	H	0.309642	-0.125874	0.295757
H198	H	0.375271	-0.079833	0.188402
O199	O	-0.032900	-0.517826	0.258866
C200	C	-0.110418	-0.445904	0.187243
C201	C	-0.109058	-0.540463	0.234557
H202	H	-0.171994	-0.464180	0.167592
H203	H	-0.049598	-0.380994	0.125898
H204	H	-0.110691	-0.422552	0.233273
H205	H	-0.108815	-0.563907	0.188597
H206	H	-0.169873	-0.605314	0.295913
H207	H	0.032476	-0.233094	-0.265505
H208	H	0.498593	-0.468846	-0.265549
O209	O	0.258895	-0.773802	0.515115
C210	C	0.207206	-0.751489	0.615922
C211	C	0.254432	-0.702935	0.520016
H212	H	0.203566	-0.694222	0.619913
H213	H	0.245178	-0.775011	0.659242
H214	H	0.137851	-0.821216	0.639606
H215	H	0.323788	-0.633176	0.496252
H216	H	0.216394	-0.679485	0.476754
O217	O	0.258950	-0.482352	0.515192
C218	C	0.258650	-0.554302	0.664632
C219	C	0.305902	-0.459735	0.568718
H220	H	0.296581	-0.536044	0.707938
H221	H	0.255069	-0.619215	0.668714
H222	H	0.189272	-0.577641	0.688261
H223	H	0.375301	-0.436305	0.545028
H224	H	0.309413	-0.394881	0.564691
H225	H	0.734395	0.233017	-0.265530
H226	H	0.265581	-0.468849	-0.032526
