data_functionalizedCrystal
_audit_creation_method	'MofGen! by Chris Wilmer'
_symmetry_space_group_name_H-M	'P1'
_symmetry_Int_Tables_number	1
_symmetry_cell_setting	triclinic
loop_
_symmetry_equiv_pos_as_xyz
  x,y,z
_cell_length_a	11.792241
_cell_length_b	10.868271
_cell_length_c	11.792254
_cell_angle_alpha	90.005308
_cell_angle_beta	95.803993
_cell_angle_gamma	90.000539
loop_
_atom_site_label
_atom_site_type_symbol
_atom_site_fract_x
_atom_site_fract_y
_atom_site_fract_z
O1	O	-1.506915	0.102185	0.155568
O2	O	-1.173582	0.435518	0.488901
O3	O	-0.840249	0.768852	0.822234
O4	O	-1.176575	0.102218	0.171600
O5	O	-0.843242	0.435551	0.504934
O6	O	-0.509908	0.768884	0.838267
O7	O	-1.349754	0.102192	-0.001586
O8	O	-1.016421	0.435525	0.331748
O9	O	-0.683088	0.768858	0.665081
O10	O	-1.333736	0.102211	0.328754
O11	O	-1.000403	0.435544	0.662087
O12	O	-0.667070	0.768877	0.995420
O13	O	-1.349740	-0.102453	-0.001592
O14	O	-1.016407	0.230880	0.331741
O15	O	-0.683073	0.564214	0.665074
O16	O	-1.176561	-0.102427	0.171594
O17	O	-0.843227	0.230906	0.504927
O18	O	-0.509894	0.564240	0.838260
O19	O	-1.506901	-0.102460	0.155561
O20	O	-1.173568	0.230874	0.488894
O21	O	-0.840234	0.564207	0.822227
Zn22	Zn	-1.341729	-0.134935	0.163576
Zn23	Zn	-1.008395	0.198398	0.496909
Zn24	Zn	-0.675062	0.531732	0.830243
Zn25	Zn	-1.341748	0.134693	0.163585
Zn26	Zn	-1.008414	0.468026	0.496918
Zn27	Zn	-0.675081	0.801360	0.830252
O28	O	-1.333722	-0.102434	0.328747
O29	O	-1.000389	0.230899	0.662080
O30	O	-0.667055	0.564233	0.995413
C31	C	-1.134277	-0.000101	0.170590
C32	C	-0.800944	0.333233	0.503923
C33	C	-0.467610	0.666566	0.837257
C34	C	-1.008263	-0.000088	0.167576
C35	C	-0.674930	0.333245	0.500909
C36	C	-0.341596	0.666578	0.834242
C37	C	-0.777551	-0.000121	0.162033
C38	C	-0.444217	0.333212	0.495366
C39	C	-0.110884	0.666546	0.828699
C40	C	-0.905936	-0.000103	0.165112
C41	C	-0.572603	0.333230	0.498446
C42	C	-0.239269	0.666564	0.831779
N43	N	-1.341724	-0.318949	0.163569
N44	N	-1.008391	0.014384	0.496903
N45	N	-0.675057	0.347717	0.830236
C46	C	-1.341742	-0.569955	0.163583
C47	C	-1.008408	-0.236622	0.496916
C48	C	-0.675075	0.096711	0.830249
C49	C	-1.341728	-0.430278	0.163579
C50	C	-1.008395	-0.096944	0.496912
C51	C	-0.675062	0.236389	0.830245
C52	C	-0.549199	-0.000136	0.156571
C53	C	-0.215866	0.333198	0.489905
C54	C	0.117467	0.666531	0.823238
C55	C	-0.675213	-0.000131	0.159586
C56	C	-0.341880	0.333203	0.492919
C57	C	-0.008546	0.666536	0.826252
C58	C	-1.348738	-0.000130	-0.043880
C59	C	-1.015405	0.333203	0.289454
C60	C	-0.682071	0.666537	0.622787
C61	C	-1.345718	-0.000129	-0.169893
C62	C	-1.012385	0.333205	0.163441
C63	C	-0.679051	0.666538	0.496774
N64	N	-1.341761	0.318707	0.163583
N65	N	-1.008428	0.652040	0.496916
N66	N	-0.675094	0.985374	0.830250
C67	C	-1.343264	-0.000124	-0.272229
C68	C	-1.009931	0.333209	0.061104
C69	C	-0.676597	0.666543	0.394437
C70	C	-1.340196	-0.000112	-0.400616
C71	C	-1.006862	0.333221	-0.067283
C72	C	-0.673529	0.666554	0.266051
C73	C	-1.334738	-0.000109	0.371041
C74	C	-1.001405	0.333224	0.704374
C75	C	-0.668071	0.666557	1.037708
C76	C	-1.337758	-0.000103	0.497054
C77	C	-1.004425	0.333231	0.830387
C78	C	-0.671092	0.666564	1.163721
