data_functionalizedCrystal
_audit_creation_method	'MofGen! by Chris Wilmer'
_symmetry_space_group_name_H-M	'P1'
_symmetry_Int_Tables_number	1
_symmetry_cell_setting	triclinic
loop_
_symmetry_equiv_pos_as_xyz
  x,y,z
_cell_length_a	12.759401
_cell_length_b	18.215405
_cell_length_c	12.759393
_cell_angle_alpha	90.037569
_cell_angle_beta	90.018567
_cell_angle_gamma	90.023929
loop_
_atom_site_label
_atom_site_type_symbol
_atom_site_fract_x
_atom_site_fract_y
_atom_site_fract_z
Zn1	Zn	1.606181	-0.292960	0.593939
Zn2	Zn	1.606044	-0.416046	0.418241
Zn3	Zn	1.430483	-0.292996	0.418279
Zn4	Zn	1.430440	-0.415987	0.593882
O5	O	1.518287	-0.354497	0.506085
O6	O	1.753184	-0.309297	0.570641
O7	O	1.582716	-0.399763	0.271225
O8	O	1.453865	-0.190007	0.441620
O9	O	1.753083	-0.399728	0.441556
O10	O	1.582949	-0.189980	0.570677
O11	O	1.453732	-0.309359	0.271253
O12	O	1.283456	-0.309301	0.441565
O13	O	1.453792	-0.399627	0.740911
O14	O	1.283425	-0.399662	0.570580
O15	O	1.582908	-0.309240	0.740953
O16	O	1.582675	-0.519022	0.441501
O17	O	1.453659	-0.518979	0.570544
C18	C	1.245320	-0.354480	0.506071
C19	C	1.128543	-0.354490	0.506090
C20	C	1.073727	-0.307492	0.573408
C21	C	0.964002	-0.307506	0.573415
C22	C	0.963921	-0.401523	0.438781
C23	C	1.073643	-0.401505	0.438770
C24	C	1.073772	-0.253213	0.651141
C25	C	0.964048	-0.253228	0.651148
C26	C	1.518176	-0.545703	0.506035
C27	C	1.518225	-0.627502	0.506048
C28	C	1.585561	-0.815694	0.438979
C29	C	1.585608	-0.892553	0.439005
C30	C	1.451148	-0.892548	0.573267
C31	C	1.451107	-0.815691	0.573246
C32	C	1.518312	-0.777266	0.506096
C33	C	1.518400	-0.930982	0.506143
C34	C	1.518450	-1.014315	0.506171
C35	C	1.518263	-0.693927	0.506069
C36	C	1.792320	-0.354515	0.506101
C37	C	1.909097	-0.354523	0.506107
C38	C	1.518361	-0.354423	0.780119
C39	C	1.518392	-0.354391	0.896896
C40	C	1.518427	-0.162544	0.506159
C41	C	1.518487	-0.080745	0.506191
C42	C	1.518274	-0.354518	0.233118
C43	C	1.518447	-0.354342	0.116342
C44	C	1.585632	-0.307322	0.951781
C45	C	1.585657	-0.307295	1.061505
C46	C	1.451199	-0.401414	1.061449
C47	C	1.451170	-0.401436	0.951727
C48	C	1.663263	-0.252986	0.951815
C49	C	1.663288	-0.252959	1.061539
H50	H	1.118271	-0.439769	0.383943
H51	H	0.919209	-0.439801	0.383972
Br52	Br	1.123421	-0.158178	0.615072
H53	H	1.634188	-0.198806	1.095595
Br54	Br	1.130553	-0.287346	0.779865
Br55	Br	1.359944	-0.944700	0.664393
Br56	Br	0.907321	-0.162954	0.602820
Br57	Br	1.676884	-0.944704	0.347919
Br58	Br	0.914454	-0.278790	0.786702
H59	H	1.396345	-0.784400	0.627906
Br60	Br	1.676767	-0.763548	0.347849
H61	H	1.396413	-0.439762	0.907043
Br62	Br	1.359971	-0.465256	1.135868
H63	H	1.641509	-0.195992	0.922067
H64	H	1.740530	-0.273418	0.917776
H65	H	1.744655	-0.268225	1.091315
