data_functionalizedCrystal
_audit_creation_method	'MofGen! by Chris Wilmer'
_symmetry_space_group_name_H-M	'P1'
_symmetry_Int_Tables_number	1
_symmetry_cell_setting	triclinic
loop_
_symmetry_equiv_pos_as_xyz
  x,y,z
_cell_length_a	29.839131
_cell_length_b	17.077404
_cell_length_c	17.077396
_cell_angle_alpha	89.980499
_cell_angle_beta	89.968087
_cell_angle_gamma	90.041645
loop_
_atom_site_label
_atom_site_type_symbol
_atom_site_fract_x
_atom_site_fract_y
_atom_site_fract_z
Zn1	Zn	-0.178851	1.199954	-0.443824
Zn2	Zn	-0.253981	1.199818	-0.312550
Zn3	Zn	-0.178866	1.068685	-0.312572
Zn4	Zn	-0.253955	1.068611	-0.443774
O5	O	-0.216413	1.134267	-0.378180
O6	O	-0.188821	1.309782	-0.426422
O7	O	-0.244035	1.182398	-0.202706
O8	O	-0.115997	1.086186	-0.330013
O9	O	-0.244020	1.309683	-0.329976
O10	O	-0.115986	1.182628	-0.426443
O11	O	-0.188848	1.086055	-0.202722
O12	O	-0.188822	0.958829	-0.329964
O13	O	-0.243974	1.086059	-0.553627
O14	O	-0.243989	0.958774	-0.426358
O15	O	-0.188796	1.182556	-0.553664
O16	O	-0.316845	1.182325	-0.329927
O17	O	-0.316825	1.085928	-0.426336
C18	C	-0.216405	0.930319	-0.378158
C19	C	-0.216412	0.843069	-0.378168
C20	C	-0.245181	0.802071	-0.428279
C21	C	-0.245182	0.720091	-0.428292
C22	C	-0.216416	0.679110	-0.378188
C23	C	-0.187644	0.720114	-0.328074
C24	C	-0.187641	0.802093	-0.328066
C25	C	-0.187653	0.549244	-0.328093
C26	C	-0.187657	0.467259	-0.328100
C27	C	-0.245194	0.467242	-0.428319
C28	C	-0.245191	0.549221	-0.428311
C29	C	-0.216420	0.590219	-0.378196
C30	C	-0.333136	1.134125	-0.378141
C31	C	-0.383070	1.134136	-0.378151
C32	C	-0.692711	1.184552	-0.328053
C33	C	-0.880384	1.184649	-0.328083
O34	O	-0.904647	1.227402	-0.285459
N35	N	-0.903855	1.134430	-0.378239
C36	C	-0.880405	1.084186	-0.428394
O37	O	-0.904675	1.041479	-0.471061
C38	C	-0.692733	1.084094	-0.428367
C39	C	-0.669264	1.134311	-0.378203
C40	C	-0.669242	1.234766	-0.277893
C41	C	-0.622327	1.234738	-0.277883
C42	C	-0.598880	1.184497	-0.328033
C43	C	-0.622349	1.134283	-0.378193
C44	C	-0.669284	1.033855	-0.478526
C45	C	-0.622363	1.033837	-0.478516
C46	C	-0.598894	1.084055	-0.428352
C47	C	-0.551987	1.084014	-0.428332
N48	N	-0.528516	1.134233	-0.378177
C49	C	-0.551962	1.184475	-0.328027
C50	C	-0.978936	1.084237	-0.428404
C51	C	-1.025854	1.084259	-0.428410
C52	C	-1.025829	1.184723	-0.328100
C53	C	-0.978911	1.184697	-0.328090
C54	C	-0.955465	1.134457	-0.378248
C55	C	-0.453437	1.184412	-0.328009
C56	C	-0.406517	1.184378	-0.328001
C57	C	-0.406545	1.083917	-0.428314
C58	C	-0.453461	1.083948	-0.428319
C59	C	-0.476905	1.134202	-0.378164
O60	O	-0.527695	1.041290	-0.470941
O61	O	-0.527685	1.227188	-0.285378
C62	C	-0.739627	1.184580	-0.328063
C63	C	-0.763095	1.134366	-0.378223
C64	C	-0.739649	1.084125	-0.428373
C65	C	-0.810013	1.134388	-0.378229
C66	C	-0.833460	1.184630	-0.328079
C67	C	-0.809989	1.234849	-0.277923
C68	C	-0.763073	1.234822	-0.277913
C69	C	-0.763120	1.033905	-0.478529
C70	C	-0.810035	1.033937	-0.478534
C71	C	-0.833482	1.084178	-0.428384
C72	C	-0.099235	1.134431	-0.378236
C73	C	-0.049300	1.134500	-0.378260
C74	C	-0.216380	1.134314	-0.582924
C75	C	-0.216366	1.134335	-0.670174
C76	C	-0.216422	1.339011	-0.378202
C77	C	-0.216425	1.426261	-0.378212
C78	C	-0.187632	1.184582	-0.711185
C79	C	-0.187617	1.184592	-0.793165
C80	C	-0.216339	1.134357	-0.834134
C81	C	-0.245074	1.084104	-0.793117
C82	C	-0.245086	1.084091	-0.711138
C83	C	-0.245047	1.084135	-0.963987
C84	C	-0.245035	1.084149	-1.045972
C85	C	-0.187578	1.184636	-1.046014
C86	C	-0.187590	1.184624	-0.964035
C87	C	-0.216326	1.134371	-0.923025
C88	C	-0.216414	1.134265	-0.174232
C89	C	-0.216301	1.134397	-0.086983
H90	H	-0.268607	0.835432	-0.469077
H91	H	-0.268609	0.686714	-0.469097
C92	C	-1.051629	1.239994	-0.272939
N93	N	-1.071064	1.281626	-0.231398
H94	H	-0.164205	1.225534	-0.930681
C95	C	-0.156000	0.675032	-0.272962
N96	N	-0.132166	0.641077	-0.231448
H97	H	-0.268440	1.043202	-0.930599
C98	C	-0.155994	0.847190	-0.272938
N99	N	-0.132156	0.881157	-0.231415
C100	C	-0.276628	1.028883	-1.091036
N101	N	-0.300423	0.987255	-1.124978
C102	C	-0.276837	0.594298	-0.483423
N103	N	-0.300673	0.628250	-0.524935
H104	H	-0.164227	0.433895	-0.287311
C105	C	-0.953100	1.239942	-0.272908
N106	N	-0.933661	1.281556	-0.231344
H107	H	-0.268619	0.433857	-0.469126
C108	C	-0.276664	1.028837	-0.838185
N109	N	-0.300457	0.987209	-0.872130
C110	C	-0.380704	1.239619	-0.272810
N111	N	-0.361264	1.281225	-0.231240
C112	C	-0.479219	1.239690	-0.272831
N113	N	-0.498638	1.281320	-0.231266
H114	H	-0.164220	0.582622	-0.287291
H115	H	-0.603222	1.275632	-0.237037
C116	C	-0.156008	1.239870	-0.838273
N117	N	-0.132199	1.281508	-0.872248
C118	C	-0.695027	1.290036	-0.222715
N119	N	-0.714444	1.331664	-0.181146
H120	H	-0.268480	1.043166	-0.677748
H121	H	-1.044958	1.043360	-0.469252
H122	H	-0.959849	1.043323	-0.469250
C123	C	-0.695089	0.978613	-0.533715
N124	N	-0.714524	0.937003	-0.575287
H125	H	-0.829087	1.275756	-0.237087
C126	C	-0.596575	0.978568	-0.533696
N127	N	-0.577153	0.936937	-0.575256
C128	C	-0.479277	1.028704	-0.483499
N129	N	-0.498719	0.987099	-0.525069
H130	H	-0.387448	1.043008	-0.469143
H131	H	-0.743969	1.275713	-0.237065
H132	H	-0.829139	0.993037	-0.519383
H133	H	-0.744033	0.992994	-0.519368
H134	H	-0.164245	1.225492	-0.677834
C135	C	-0.155968	1.239914	-1.091128
N136	N	-0.132161	1.281550	-1.125111
