data_functionalizedCrystal
_audit_creation_method	'MofGen! by Chris Wilmer'
_symmetry_space_group_name_H-M	'P1'
_symmetry_Int_Tables_number	1
_symmetry_cell_setting	triclinic
loop_
_symmetry_equiv_pos_as_xyz
  x,y,z
_cell_length_a	18.050591
_cell_length_b	21.295412
_cell_length_c	18.050588
_cell_angle_alpha	89.974935
_cell_angle_beta	90.025567
_cell_angle_gamma	89.970494
loop_
_atom_site_label
_atom_site_type_symbol
_atom_site_fract_x
_atom_site_fract_y
_atom_site_fract_z
Zn1	Zn	1.135349	-0.356037	-0.295757
Zn2	Zn	1.385349	-0.106037	-0.045757
Zn3	Zn	1.635349	0.143963	0.204243
Zn4	Zn	1.885349	0.393963	0.454243
Zn5	Zn	1.135238	-0.250772	-0.419949
Zn6	Zn	1.385238	-0.000772	-0.169949
Zn7	Zn	1.635238	0.249228	0.080051
Zn8	Zn	1.885238	0.499228	0.330051
Zn9	Zn	1.011149	-0.250771	-0.295768
Zn10	Zn	1.261149	-0.000771	-0.045768
Zn11	Zn	1.511149	0.249229	0.204232
Zn12	Zn	1.761149	0.499229	0.454232
Zn13	Zn	1.011113	-0.355993	-0.419901
Zn14	Zn	1.261113	-0.105993	-0.169901
Zn15	Zn	1.511113	0.144007	0.080099
Zn16	Zn	1.761113	0.394007	0.330099
O17	O	1.073212	-0.303393	-0.357844
O18	O	1.323212	-0.053393	-0.107844
O19	O	1.573212	0.196607	0.142156
O20	O	1.823212	0.446607	0.392156
O21	O	1.239258	-0.342092	-0.312247
O22	O	1.489258	-0.092092	-0.062247
O23	O	1.739258	0.157908	0.187753
O24	O	1.989258	0.407908	0.437753
O25	O	1.118746	-0.162683	-0.403501
O26	O	1.368746	0.087317	-0.153501
O27	O	1.618746	0.337317	0.096499
O28	O	1.868746	0.587317	0.346499
O29	O	1.027686	-0.264752	-0.191842
O30	O	1.277686	-0.014752	0.058158
O31	O	1.527686	0.235248	0.308158
O32	O	1.777686	0.485248	0.558158
O33	O	1.239177	-0.264755	-0.403490
O34	O	1.489177	-0.014755	-0.153490
O35	O	1.739177	0.235245	0.096510
O36	O	1.989177	0.485245	0.346510
O37	O	1.118935	-0.342090	-0.191834
O38	O	1.368935	-0.092090	0.058166
O39	O	1.618935	0.157910	0.308166
O40	O	1.868935	0.407910	0.558166
O41	O	1.027579	-0.162681	-0.312266
O42	O	1.277579	0.087319	-0.062266
O43	O	1.527579	0.337319	0.187734
O44	O	1.777579	0.587319	0.437734
O45	O	0.907220	-0.264710	-0.312220
O46	O	1.157220	-0.014710	-0.062220
O47	O	1.407220	0.235290	0.187780
O48	O	1.657220	0.485290	0.437780
O49	O	1.027624	-0.444088	-0.403408
O50	O	1.277624	-0.194088	-0.153408
O51	O	1.527624	0.055912	0.096592
O52	O	1.777624	0.305912	0.346592
O53	O	0.907193	-0.342016	-0.403419
O54	O	1.157193	-0.092016	-0.153419
O55	O	1.407193	0.157984	0.096581
O56	O	1.657193	0.407984	0.346581
O57	O	1.118900	-0.444120	-0.312200
O58	O	1.368900	-0.194120	-0.062200
O59	O	1.618900	0.055880	0.187800
O60	O	1.868900	0.305880	0.437800
O61	O	1.118711	-0.264712	-0.523867
O62	O	1.368711	-0.014712	-0.273867
O63	O	1.618711	0.235288	-0.023867
O64	O	1.868711	0.485288	0.226133
O65	O	1.027517	-0.342018	-0.523832
O66	O	1.277517	-0.092018	-0.273832
O67	O	1.527517	0.157982	-0.023832
O68	O	1.777517	0.407982	0.226168
C69	C	0.880260	-0.303358	-0.357816
C70	C	1.130260	-0.053358	-0.107816
C71	C	1.380260	0.196642	0.142184
C72	C	1.630260	0.446642	0.392184
C73	C	0.797714	-0.303358	-0.357822
C74	C	1.047714	-0.053358	-0.107822
C75	C	1.297714	0.196642	0.142178
C76	C	1.547714	0.446642	0.392178
C77	C	0.598256	-0.261416	-0.308170
C78	C	0.848256	-0.011416	-0.058170
C79	C	1.098256	0.238584	0.191830
C80	C	1.348256	0.488584	0.441830
C81	C	0.548832	-0.245926	-0.375908
C82	C	0.798832	0.004074	-0.125908
C83	C	1.048832	0.254074	0.124092
C84	C	1.298832	0.504074	0.374092
C85	C	0.646584	-0.303387	-0.357845
C86	C	0.896584	-0.053387	-0.107845
C87	C	1.146584	0.196613	0.142155
C88	C	1.396584	0.446613	0.392155
C89	C	0.548926	-0.318875	-0.290131
C90	C	0.798926	-0.068875	-0.040131
C91	C	1.048926	0.181125	0.209869
C92	C	1.298926	0.431125	0.459869
C93	C	0.500599	-0.303413	-0.357861
C94	C	0.750599	-0.053413	-0.107861
C95	C	1.000599	0.196587	0.142139
C96	C	1.250599	0.446587	0.392139
C97	C	0.598247	-0.287867	-0.425618
C98	C	0.848247	-0.037867	-0.175618
C99	C	1.098247	0.212133	0.074382
C100	C	1.348247	0.462133	0.324382
C101	C	0.598345	-0.360843	-0.339796
C102	C	0.848345	-0.110843	-0.089796
C103	C	1.098345	0.139157	0.160204
C104	C	1.348345	0.389157	0.410204
C105	C	0.548943	-0.345375	-0.407579
C106	C	0.798943	-0.095375	-0.157579
C107	C	1.048943	0.154625	0.092421
C108	C	1.298943	0.404625	0.342421
C109	C	0.730682	-0.303370	-0.357835
C110	C	0.980682	-0.053370	-0.107835
C111	C	1.230682	0.196630	0.142165
C112	C	1.480682	0.446630	0.392165
C113	C	0.416502	-0.303430	-0.357878
C114	C	0.666502	-0.053430	-0.107878
C115	C	0.916502	0.196570	0.142122
C116	C	1.166502	0.446570	0.392122
C117	C	1.073270	-0.467583	-0.357798
C118	C	1.323270	-0.217583	-0.107798
C119	C	1.573270	0.032417	0.142202
C120	C	1.823270	0.282417	0.392202
C121	C	1.073295	-0.537552	-0.357778
C122	C	1.323295	-0.287552	-0.107778
C123	C	1.573295	-0.037552	0.142222
C124	C	1.823295	0.212448	0.392222
C125	C	1.025837	-0.570408	-0.310267
C126	C	1.275837	-0.320408	-0.060267
C127	C	1.525837	-0.070408	0.189733
C128	C	1.775837	0.179592	0.439733
C129	C	1.025834	-0.636150	-0.310253
C130	C	1.275834	-0.386150	-0.060253
C131	C	1.525834	-0.136150	0.189747
C132	C	1.775834	0.113850	0.439747
C133	C	1.073303	-0.669034	-0.357743
C134	C	1.323303	-0.419034	-0.107743
C135	C	1.573303	-0.169034	0.142257
C136	C	1.823303	0.080966	0.392257
C137	C	1.120764	-0.636170	-0.405263
C138	C	1.370764	-0.386170	-0.155263
C139	C	1.620764	-0.136170	0.094737
C140	C	1.870764	0.113830	0.344737
C141	C	1.120760	-0.570429	-0.405281
C142	C	1.370760	-0.320429	-0.155281
C143	C	1.620760	-0.070429	0.094719
C144	C	1.870760	0.179571	0.344719
N145	N	1.138313	-0.772279	-0.363419
N146	N	1.388313	-0.522279	-0.113419
N147	N	1.638313	-0.272279	0.136581
N148	N	1.888313	-0.022279	0.386581
N149	N	1.138315	-0.834730	-0.363398
N150	N	1.388315	-0.584730	-0.113398
N151	N	1.638315	-0.334730	0.136602
N152	N	1.888315	-0.084730	0.386602
C153	C	1.073317	-0.867109	-0.357693
C154	C	1.323317	-0.617109	-0.107693
C155	C	1.573317	-0.367109	0.142307
C156	C	1.823317	-0.117109	0.392307
N157	N	1.008315	-0.834677	-0.351996
N158	N	1.258315	-0.584677	-0.101996
N159	N	1.508315	-0.334677	0.148004
N160	N	1.758315	-0.084677	0.398004
N161	N	1.008314	-0.772220	-0.352013
N162	N	1.258314	-0.522220	-0.102013
N163	N	1.508314	-0.272220	0.147987
N164	N	1.758314	-0.022220	0.397987
C165	C	1.073312	-0.740320	-0.357729
C166	C	1.323312	-0.490320	-0.107729
C167	C	1.573312	-0.240320	0.142271
C168	C	1.823312	0.009680	0.392271
C169	C	1.025852	-0.971251	-0.310164
C170	C	1.275852	-0.721251	-0.060164
C171	C	1.525852	-0.471251	0.189836
C172	C	1.775852	-0.221251	0.439836
C173	C	1.025848	-1.036994	-0.310156
C174	C	1.275848	-0.786994	-0.060156
C175	C	1.525848	-0.536994	0.189844
C176	C	1.775848	-0.286994	0.439844
C177	C	1.120785	-1.037013	-0.405162
C178	C	1.370785	-0.787013	-0.155162
C179	C	1.620785	-0.537013	0.094838
C180	C	1.870785	-0.287013	0.344838
C181	C	1.120782	-0.971270	-0.405175
C182	C	1.370782	-0.721270	-0.155175
C183	C	1.620782	-0.471270	0.094825
C184	C	1.870782	-0.221270	0.344825
C185	C	1.073316	-0.938393	-0.357672
C186	C	1.323316	-0.688393	-0.107672
C187	C	1.573316	-0.438393	0.142328
C188	C	1.823316	-0.188393	0.392328
C189	C	1.266918	-0.303428	-0.357872
C190	C	1.516918	-0.053428	-0.107872
C191	C	1.766918	0.196572	0.142128
C192	C	2.016918	0.446572	0.392128
C193	C	1.349463	-0.303443	-0.357884
C194	C	1.599463	-0.053443	-0.107884
C195	C	1.849463	0.196557	0.142116
C196	C	2.099463	0.446557	0.392116
C197	C	1.073118	-0.303374	-0.550796
C198	C	1.323118	-0.053374	-0.300796
C199	C	1.573118	0.196626	-0.050796
C200	C	1.823118	0.446626	0.199204
C201	C	1.073146	-0.303387	-0.633342
C202	C	1.323146	-0.053387	-0.383342
C203	C	1.573146	0.196613	-0.133342
C204	C	1.823146	0.446613	0.116658
C205	C	1.073197	-0.139841	-0.357836
C206	C	1.323197	0.110159	-0.107836
C207	C	1.573197	0.360159	0.142164
C208	C	1.823197	0.610159	0.392164
C209	C	1.073316	-0.069874	-0.357647
C210	C	1.323316	0.180126	-0.107647
C211	C	1.573316	0.430126	0.142353
C212	C	1.823316	0.680126	0.392353
C213	C	1.023632	-0.345426	-0.882175
C214	C	1.273632	-0.095426	-0.632175
C215	C	1.523632	0.154574	-0.382175
C216	C	1.773632	0.404574	-0.132175
C217	C	1.091351	-0.360879	-0.832710
C218	C	1.341351	-0.110879	-0.582710
C219	C	1.591351	0.139121	-0.332710
C220	C	1.841351	0.389121	-0.082710
C221	C	1.073300	-0.303422	-0.930462
C222	C	1.323300	-0.053422	-0.680462
C223	C	1.573300	0.196578	-0.430462
C224	C	1.823300	0.446578	-0.180462
C225	C	1.005508	-0.287981	-0.832846
C226	C	1.255508	-0.037981	-0.582846
C227	C	1.505508	0.212019	-0.332846
C228	C	1.755508	0.462019	-0.082846
C229	C	1.073220	-0.303407	-0.784477
C230	C	1.323220	-0.053407	-0.534477
C231	C	1.573220	0.196593	-0.284477
C232	C	1.823220	0.446593	-0.034477
C233	C	1.141055	-0.318906	-0.882084
C234	C	1.391055	-0.068906	-0.632084
C235	C	1.641055	0.181094	-0.382084
C236	C	1.891055	0.431094	-0.132084
C237	C	1.055166	-0.245981	-0.882224
C238	C	1.305166	0.004019	-0.632224
C239	C	1.555166	0.254019	-0.382224
C240	C	1.805166	0.504019	-0.132224
C241	C	1.122932	-0.261412	-0.832781
C242	C	1.372932	-0.011412	-0.582781
C243	C	1.622932	0.238588	-0.332781
C244	C	1.872932	0.488588	-0.082781
C245	C	1.073344	-0.303433	-1.014560
C246	C	1.323344	-0.053433	-0.764560
C247	C	1.573344	0.196567	-0.514560
C248	C	1.823344	0.446567	-0.264560
C249	C	1.073183	-0.303396	-0.700381
C250	C	1.323183	-0.053396	-0.450381
C251	C	1.573183	0.196604	-0.200381
C252	C	1.823183	0.446604	0.049619
C253	C	1.073327	-0.303426	-0.164138
C254	C	1.323327	-0.053426	0.085862
C255	C	1.573327	0.196574	0.335862
C256	C	1.823327	0.446574	0.585862
C257	C	1.073376	-0.303440	-0.081592
C258	C	1.323376	-0.053440	0.168408
C259	C	1.573376	0.196560	0.418408
C260	C	1.823376	0.446560	0.668408
H261	H	0.619822	-0.274724	-0.482906
H262	H	0.869822	-0.024724	-0.232906
H263	H	1.119822	0.225276	0.017094
H264	H	1.369822	0.475276	0.267094
H265	H	0.527086	-0.197348	-0.391186
H266	H	0.777086	0.052652	-0.141186
H267	H	1.027086	0.302652	0.108814
H268	H	1.277086	0.552652	0.358814
C269	C	1.112030	-0.426490	-0.803323
C270	C	1.362030	-0.176490	-0.553323
C271	C	1.612030	0.073510	-0.303323
C272	C	1.862030	0.323510	-0.053323
H273	H	1.076721	-0.456293	-0.820231
H274	H	1.326721	-0.206293	-0.570231
H275	H	1.576721	0.043707	-0.320231
H276	H	1.826721	0.293707	-0.070231
H277	H	1.159819	-0.437744	-0.820906
H278	H	1.409819	-0.187744	-0.570906
H279	H	1.659819	0.062256	-0.320906
H280	H	1.909819	0.312256	-0.070906
H281	H	1.112290	-0.425912	-0.750698
H282	H	1.362290	-0.175912	-0.500698
H283	H	1.612290	0.074088	-0.250698
H284	H	1.862290	0.324088	-0.000698
C285	C	0.519867	-0.393335	-0.464399
C286	C	0.769867	-0.143335	-0.214399
C287	C	1.019867	0.106665	0.035601
C288	C	1.269867	0.356665	0.285601
H289	H	0.536846	-0.382239	-0.512462
H290	H	0.786846	-0.132239	-0.262462
H291	H	1.036846	0.117761	-0.012462
H292	H	1.286846	0.367761	0.237538
H293	H	0.537569	-0.434018	-0.451983
H294	H	0.787569	-0.184018	-0.201983
H295	H	1.037569	0.065982	0.048017
H296	H	1.287569	0.315982	0.298017
H297	H	0.467241	-0.393326	-0.463815
H298	H	0.717241	-0.143326	-0.213815
H299	H	0.967241	0.106674	0.036185
H300	H	1.217241	0.356674	0.286185
H301	H	0.987202	-0.944481	-0.271485
H302	H	1.237202	-0.694481	-0.021485
H303	H	1.487202	-0.444481	0.228515
H304	H	1.737202	-0.194481	0.478515
C305	C	0.973633	-0.672300	-0.257984
C306	C	1.223633	-0.422300	-0.007984
C307	C	1.473633	-0.172300	0.242016
C308	C	1.723633	0.077700	0.492016
H309	H	0.945368	-0.643303	-0.229693
H310	H	1.195368	-0.393303	0.020307
H311	H	1.445368	-0.143303	0.270307
H312	H	1.695368	0.106697	0.520307
H313	H	0.941258	-0.697931	-0.286375
H314	H	1.191258	-0.447931	-0.036375
H315	H	1.441258	-0.197931	0.213625
H316	H	1.691258	0.052069	0.463625
H317	H	1.002075	-0.697959	-0.225624
H318	H	1.252075	-0.447959	0.024376
H319	H	1.502075	-0.197959	0.274376
H320	H	1.752075	0.052041	0.524376
H321	H	1.159436	-1.063786	-0.443828
H322	H	1.409436	-0.813786	-0.193828
H323	H	1.659436	-0.563786	0.056172
H324	H	1.909436	-0.313786	0.306172
C325	C	0.627754	-0.426445	-0.319129
C326	C	0.877754	-0.176445	-0.069129
C327	C	1.127754	0.073555	0.180871
C328	C	1.377754	0.323555	0.430871
H329	H	0.610898	-0.437380	-0.270971
H330	H	0.860898	-0.187380	-0.020971
H331	H	1.110898	0.062620	0.229029
H332	H	1.360898	0.312620	0.479029
H333	H	0.610136	-0.456377	-0.353929
H334	H	0.860136	-0.206377	-0.103929
H335	H	1.110136	0.043623	0.146071
H336	H	1.360136	0.293623	0.396071
H337	H	0.680378	-0.426047	-0.319718
H338	H	0.930378	-0.176047	-0.069718
H339	H	1.180378	0.073953	0.180282
H340	H	1.430378	0.323953	0.430282
C341	C	1.034459	-0.180388	-0.911635
C342	C	1.284459	0.069612	-0.661635
C343	C	1.534459	0.319612	-0.411635
C344	C	1.784459	0.569612	-0.161635
H345	H	0.986280	-0.169484	-0.894809
H346	H	1.236280	0.080516	-0.644809
H347	H	1.486280	0.330516	-0.394809
H348	H	1.736280	0.580516	-0.144809
H349	H	1.069219	-0.150437	-0.893989
H350	H	1.319219	0.099563	-0.643989
H351	H	1.569219	0.349563	-0.393989
H352	H	1.819219	0.599563	-0.143989
H353	H	1.035083	-0.180783	-0.964258
H354	H	1.285083	0.069217	-0.714258
H355	H	1.535083	0.319217	-0.464258
H356	H	1.785083	0.569217	-0.214258
H357	H	1.198369	-0.332015	-0.903624
H358	H	1.448369	-0.082015	-0.653624
H359	H	1.698369	0.167985	-0.403624
H360	H	1.948369	0.417985	-0.153624
H361	H	0.527222	-0.331942	-0.232867
H362	H	0.777222	-0.081942	0.017133
H363	H	1.027222	0.168058	0.267133
H364	H	1.277222	0.418058	0.517133
H365	H	0.987184	-0.543643	-0.271589
H366	H	1.237184	-0.293643	-0.021589
H367	H	1.487184	-0.043643	0.228411
H368	H	1.737184	0.206357	0.478411
H369	H	1.159414	-0.662948	-0.443930
H370	H	1.409414	-0.412948	-0.193930
H371	H	1.659414	-0.162948	0.056070
H372	H	1.909414	0.087052	0.306070
C373	C	1.172971	-0.534286	-0.457541
C374	C	1.422971	-0.284286	-0.207541
C375	C	1.672971	-0.034286	0.042459
C376	C	1.922971	0.215714	0.292459
H377	H	1.201245	-0.563283	-0.485821
H378	H	1.451245	-0.313283	-0.235821
H379	H	1.701245	-0.063283	0.014179
H380	H	1.951245	0.186717	0.264179
H381	H	1.144543	-0.508620	-0.489899
H382	H	1.394543	-0.258620	-0.239899
H383	H	1.644543	-0.008620	0.010101
H384	H	1.894543	0.241380	0.260101
H385	H	1.205349	-0.508661	-0.429137
H386	H	1.455349	-0.258661	-0.179137
H387	H	1.705349	-0.008661	0.070863
H388	H	1.955349	0.241339	0.320863
H389	H	0.987196	-1.063745	-0.271469
H390	H	1.237196	-0.813745	-0.021469
H391	H	1.487196	-0.563745	0.228531
H392	H	1.737196	-0.313745	0.478531
H393	H	1.159429	-0.944519	-0.443862
H394	H	1.409429	-0.694519	-0.193862
H395	H	1.659429	-0.444519	0.056138
H396	H	1.909429	-0.194519	0.306138
H397	H	0.981716	-0.380981	-0.903861
H398	H	1.231716	-0.130981	-0.653861
H399	H	1.481716	0.119019	-0.403861
H400	H	1.731716	0.369019	-0.153861
C401	C	1.179687	-0.213422	-0.803651
C402	C	1.429687	0.036578	-0.553651
C403	C	1.679687	0.286578	-0.303651
C404	C	1.929687	0.536578	-0.053651
H405	H	1.154943	-0.182622	-0.774722
H406	H	1.404943	0.067378	-0.524722
H407	H	1.654943	0.317378	-0.274722
H408	H	1.904943	0.567378	-0.024722
H409	H	1.215472	-0.234362	-0.773968
H410	H	1.465472	0.015638	-0.523968
H411	H	1.715472	0.265638	-0.273968
H412	H	1.965472	0.515638	-0.023968
H413	H	1.203653	-0.193668	-0.844294
H414	H	1.453653	0.056332	-0.594294
H415	H	1.703653	0.306332	-0.344294
H416	H	1.953653	0.556332	-0.094294
C417	C	0.627516	-0.213419	-0.251486
C418	C	0.877516	0.036581	-0.001486
C419	C	1.127516	0.286581	0.248514
C420	C	1.377516	0.536581	0.498514
H421	H	0.610561	-0.172624	-0.264440
H422	H	0.860561	0.077376	-0.014440
H423	H	1.110561	0.327376	0.235560
H424	H	1.360561	0.577376	0.485560
H425	H	0.609904	-0.224011	-0.203499
H426	H	0.859904	0.025989	0.046501
H427	H	1.109904	0.275989	0.296501
H428	H	1.359904	0.525989	0.546501
H429	H	0.680142	-0.214004	-0.251562
H430	H	0.930142	0.035996	-0.001562
H431	H	1.180142	0.285996	0.248438
H432	H	1.430142	0.535996	0.498438
C433	C	0.928113	-0.270358	-0.803599
C434	C	1.178113	-0.020358	-0.553599
C435	C	1.428113	0.229642	-0.303599
C436	C	1.678113	0.479642	-0.053599
H437	H	0.892917	-0.300254	-0.820513
H438	H	1.142917	-0.050254	-0.570513
H439	H	1.392917	0.199746	-0.320513
H440	H	1.642917	0.449746	-0.070513
H441	H	0.928771	-0.270112	-0.750978
H442	H	1.178771	-0.020112	-0.500978
H443	H	1.428771	0.229888	-0.250978
H444	H	1.678771	0.479888	-0.000978
H445	H	0.914898	-0.229844	-0.821271
H446	H	1.164898	0.020156	-0.571271
H447	H	1.414898	0.270156	-0.321271
H448	H	1.664898	0.520156	-0.071271
