data_functionalizedCrystal
_audit_creation_method	'MofGen! by Chris Wilmer'
_symmetry_space_group_name_H-M	'P1'
_symmetry_Int_Tables_number	1
_symmetry_cell_setting	triclinic
loop_
_symmetry_equiv_pos_as_xyz
  x,y,z
_cell_length_a	27.731994
_cell_length_b	27.732048
_cell_length_c	14.586319
_cell_angle_alpha	89.991275
_cell_angle_beta	90.002590
_cell_angle_gamma	82.631595
loop_
_atom_site_label
_atom_site_type_symbol
_atom_site_fract_x
_atom_site_fract_y
_atom_site_fract_z
O1	O	0.640944	0.057392	-0.076119
O2	O	0.500146	0.066165	-0.076151
O3	O	0.574918	-0.008620	-0.076117
O4	O	0.566172	0.132176	-0.076154
O5	O	0.574913	-0.008621	0.076364
O6	O	0.500141	0.066163	0.076330
O7	O	0.640939	0.057391	0.076361
Cu8	Cu	0.570540	0.061777	0.090268
Cu9	Cu	0.570546	0.061778	-0.090058
O10	O	0.566167	0.132175	0.076327
C11	C	0.482137	0.065984	0.000085
C12	C	0.428480	0.065442	0.000074
C13	C	0.574732	-0.026627	0.000126
C14	C	0.574179	-0.080282	0.000133
C15	C	0.095759	0.062025	0.083227
C16	C	-0.105899	0.059964	0.083238
O17	O	-0.131974	0.059676	0.153926
N18	N	-0.131111	0.059708	0.000121
C19	C	-0.105905	0.059965	-0.083005
O20	O	-0.131976	0.059695	-0.153701
C21	C	0.095753	0.062023	-0.083015
C22	C	0.120961	0.062283	0.000108
C23	C	0.120968	0.062285	0.166343
C24	C	0.171379	0.062803	0.166340
C25	C	0.196581	0.063061	0.083220
C26	C	0.171372	0.062801	0.000104
C27	C	0.120958	0.062276	-0.166139
C28	C	0.171376	0.062790	-0.166134
C29	C	0.196585	0.063050	-0.083012
C30	C	0.246986	0.063578	-0.083018
N31	N	0.272198	0.063833	0.000099
C32	C	0.246996	0.063575	0.083218
C33	C	-0.211779	0.058885	-0.082993
C34	C	-0.262193	0.058372	-0.082991
C35	C	-0.262183	0.058370	0.083252
C36	C	-0.211768	0.058887	0.083249
C37	C	-0.186566	0.059141	0.000124
C38	C	0.352863	0.064663	0.083204
C39	C	0.403278	0.065183	0.083193
C40	C	0.403264	0.065183	-0.083049
C41	C	0.352853	0.064665	-0.083039
C42	C	0.327654	0.064404	0.000095
O43	O	0.273093	0.063860	-0.153669
O44	O	0.273077	0.063834	0.153903
C45	C	0.045348	0.061507	0.083231
C46	C	0.020139	0.061247	0.000115
C47	C	0.045341	0.061506	-0.083004
C48	C	-0.030275	0.060734	0.000117
C49	C	-0.055478	0.060476	0.083237
C50	C	-0.030266	0.060731	0.166354
C51	C	0.020146	0.061249	0.166350
C52	C	0.020129	0.061250	-0.166121
C53	C	-0.030282	0.060733	-0.166111
C54	C	-0.055484	0.060474	-0.082992
C55	C	0.614884	-0.419105	0.000096
C56	C	0.612833	-0.620764	0.000082
O57	O	0.650055	-0.652027	0.000051
N58	N	0.568496	-0.639879	0.000073
C59	C	0.524670	-0.608576	0.000061
O60	O	0.486912	-0.629462	0.000044
C61	C	0.526721	-0.406918	0.000068
C62	C	0.571061	-0.387805	0.000086
C63	C	0.659220	-0.399992	0.000113
C64	C	0.659732	-0.349580	0.000121
C65	C	0.615908	-0.318281	0.000112
C66	C	0.571573	-0.337394	0.000095
C67	C	0.482895	-0.375615	0.000049
C68	C	0.483412	-0.325198	0.000049
C69	C	0.527751	-0.306086	0.000067
C70	C	0.528262	-0.255683	0.000094
N71	N	0.572598	-0.236567	0.000103
C72	C	0.616421	-0.267867	0.000112
C73	C	0.523596	-0.714450	0.000060
C74	C	0.523083	-0.764864	0.000060
C75	C	0.611246	-0.777049	0.000079
C76	C	0.611759	-0.726633	0.000085
C77	C	0.567932	-0.695335	0.000069
C78	C	0.617494	-0.161998	0.000130
C79	C	0.618002	-0.111581	0.000143
C80	C	0.529839	-0.099401	0.000118
C81	C	0.529331	-0.149813	0.000111
C82	C	0.573162	-0.181111	0.000114
O83	O	0.491060	-0.224391	0.000115
O84	O	0.654174	-0.246971	0.000109
C85	C	0.614372	-0.469517	0.000087
C86	C	0.570036	-0.488629	0.000070
C87	C	0.526213	-0.457330	0.000061
C88	C	0.569523	-0.539043	0.000070
C89	C	0.613346	-0.570343	0.000079
C90	C	0.657683	-0.551228	0.000088
C91	C	0.658195	-0.500816	0.000096
C92	C	0.481876	-0.476445	0.000051
C93	C	0.481367	-0.526857	0.000044
C94	C	0.525191	-0.558157	0.000053
C95	C	0.658949	0.057571	0.000123
C96	C	0.712605	0.058114	0.000128
C97	C	0.566353	0.150182	0.000082
C98	C	0.566906	0.203837	0.000069
N99	N	0.570539	0.061776	0.217100
N100	N	0.570550	0.061776	-0.216890
C101	C	0.603658	0.028672	0.452122
C102	C	0.603660	0.028671	0.548103
C103	C	0.537427	0.094881	0.548082
C104	C	0.537424	0.094879	0.452102
C105	C	0.570542	0.061775	0.404125
C106	C	0.570547	0.061776	0.596085
C107	C	0.570548	0.061775	0.700153
C108	C	0.570540	0.061776	0.300051
H109	H	0.423800	0.065397	0.150885
Br110	Br	0.422716	-0.401540	0.000021
Br111	Br	0.492474	0.139804	0.386956
H112	H	0.494160	-0.073908	0.000114
H113	H	0.630625	0.001715	0.587179
Br114	Br	0.318671	0.064307	0.196030
H115	H	0.487905	-0.688970	0.000046
H116	H	0.630625	0.001717	0.413060
Br117	Br	-0.177562	0.059240	0.196062
Br118	Br	0.718373	-0.474886	0.000116
Br119	Br	0.054325	0.061599	-0.278938
H120	H	0.191900	0.063012	0.234027
H121	H	0.446189	-0.450966	0.000042
H122	H	0.100454	0.062074	0.234033
Br123	Br	0.462906	-0.790795	0.000056
H124	H	-0.282715	0.058167	-0.150678
Br125	Br	-0.296396	0.058019	0.196057
Br126	Br	-0.177583	0.059230	-0.195818
Br127	Br	0.492483	0.139806	0.613197
H128	H	0.447722	-0.299716	0.000034
Br129	Br	0.671935	-0.700701	0.000112
H130	H	0.493226	-0.165375	0.000122
Br131	Br	0.205576	0.063132	-0.278954
H132	H	0.100442	0.062064	-0.233827
Br133	Br	0.670720	-0.819536	0.000089
H134	H	0.332326	0.064461	-0.150724
Br135	Br	0.437477	0.065531	-0.195849
H136	H	0.040666	0.061461	0.234037
H137	H	-0.050794	0.060523	0.234033
H138	H	0.445258	-0.542413	0.000037
H139	H	-0.050803	0.060525	-0.233805
H140	H	0.694908	-0.425472	0.000117
H141	H	0.653186	-0.187475	0.000129
Br142	Br	0.719910	-0.323651	0.000121
Br143	Br	0.678181	-0.085647	0.000169
H144	H	0.693365	-0.576720	0.000100
