data_functionalizedCrystal
_audit_creation_method	'MofGen! by Chris Wilmer'
_symmetry_space_group_name_H-M	'P1'
_symmetry_Int_Tables_number	1
_symmetry_cell_setting	triclinic
loop_
_symmetry_equiv_pos_as_xyz
  x,y,z
_cell_length_a	16.120444
_cell_length_b	12.759395
_cell_length_c	12.759387
_cell_angle_alpha	90.020509
_cell_angle_beta	92.864319
_cell_angle_gamma	87.071990
loop_
_atom_site_label
_atom_site_type_symbol
_atom_site_fract_x
_atom_site_fract_y
_atom_site_fract_z
Zn1	Zn	-0.331830	-1.584980	-0.615172
Zn2	Zn	0.168170	-1.084980	-0.115172
Zn3	Zn	-0.471267	-1.575924	-0.448387
Zn4	Zn	0.028733	-1.075924	0.051613
Zn5	Zn	-0.331875	-1.409275	-0.439512
Zn6	Zn	0.168125	-0.909275	0.060488
Zn7	Zn	-0.471207	-1.400328	-0.624022
Zn8	Zn	0.028793	-0.900328	-0.124022
O9	O	-0.401545	-1.492627	-0.531773
O10	O	0.098455	-0.992627	-0.031773
O11	O	-0.350332	-1.730799	-0.593058
O12	O	0.149668	-1.230799	-0.093058
O13	O	-0.452820	-1.553773	-0.300191
O14	O	0.047180	-1.053773	0.199809
O15	O	-0.215203	-1.440116	-0.455395
O16	O	0.284797	-0.940116	0.044605
O17	O	-0.452776	-1.724146	-0.470522
O18	O	0.047224	-1.224146	0.029478
O19	O	-0.215170	-1.569206	-0.584452
O20	O	0.284830	-1.069206	-0.084452
O21	O	-0.350409	-1.431336	-0.293671
O22	O	0.149591	-0.931336	0.206329
O23	O	-0.350352	-1.261067	-0.463977
O24	O	0.149648	-0.761067	0.036023
O25	O	-0.452675	-1.424868	-0.769867
O26	O	0.047325	-0.924868	-0.269867
O27	O	-0.452719	-1.254494	-0.599536
O28	O	0.047281	-0.754494	-0.099536
O29	O	-0.350274	-1.560530	-0.763364
O30	O	0.149726	-1.060530	-0.263364
O31	O	-0.587925	-1.545097	-0.479104
O32	O	-0.087925	-1.045097	0.020896
O33	O	-0.587881	-1.416087	-0.608142
O34	O	-0.087881	-0.916087	-0.108142
C35	C	-0.401534	-1.219660	-0.531755
C36	C	0.098466	-0.719660	-0.031755
C37	C	-0.401550	-1.102882	-0.531773
C38	C	0.098450	-0.602882	-0.031773
C39	C	-0.401463	-1.492711	-0.805802
C40	C	0.098537	-0.992711	-0.305802
C41	C	-0.401428	-1.492747	-0.922576
C42	C	0.098572	-0.992747	-0.422576
C43	C	-0.618153	-1.478667	-0.545569
C44	C	-0.118153	-0.978667	-0.045569
C45	C	-0.710819	-1.472792	-0.551506
C46	C	-0.210819	-0.972792	-0.051506
C47	C	-0.921763	-1.523365	-0.501201
C48	C	-0.421763	-1.023365	-0.001201
C49	C	-0.880475	-1.462083	-0.562357
C50	C	-0.380475	-0.962083	-0.062357
C51	C	-0.786070	-1.468043	-0.556318
C52	C	-0.286070	-0.968043	-0.056318
C53	C	-1.016177	-1.517406	-0.507238
C54	C	-0.516177	-1.017406	-0.007238
C55	C	-0.184090	-1.506669	-0.517947
C56	C	0.315910	-1.006669	-0.017947
C57	C	-0.091424	-1.512653	-0.512054
C58	C	0.408576	-1.012653	-0.012054
C59	C	-0.401555	-1.766659	-0.531793
C60	C	0.098445	-1.266659	-0.031793
C61	C	-0.401560	-1.883436	-0.531801
C62	C	0.098440	-1.383436	-0.031801
C63	C	-0.508317	-1.096065	-0.672724
C64	C	-0.008317	-0.596065	-0.172724
C65	C	-0.561707	-1.037795	-0.743203
C66	C	-0.061707	-0.537795	-0.243203
C67	C	-0.561717	-0.928073	-0.743217
C68	C	-0.061717	-0.428073	-0.243217
C69	C	-0.508330	-0.876618	-0.672746
C70	C	-0.008330	-0.376618	-0.172746
C71	C	-0.454940	-0.934888	-0.602267
C72	C	0.045060	-0.434888	-0.102267
C73	C	-0.454937	-1.044613	-0.602259
C74	C	0.045063	-0.544613	-0.102259
C75	C	-0.348170	-0.941706	-0.461322
C76	C	0.151830	-0.441706	0.038678
C77	C	-0.348163	-1.051428	-0.461302
C78	C	0.151837	-0.551428	0.038698
C79	C	-0.294782	-0.890251	-0.390851
C80	C	0.205218	-0.390251	0.109149
C81	C	-0.241395	-0.948521	-0.320365
C82	C	0.258605	-0.448521	0.179635
C83	C	-0.241388	-1.058249	-0.320354
C84	C	0.258612	-0.558249	0.179646
C85	C	-0.294773	-1.109697	-0.390823
C86	C	0.205227	-0.609697	0.109177
C87	C	-0.294806	-1.634022	-0.915826
C88	C	0.205194	-1.134022	-0.415826
C89	C	-0.241482	-1.704674	-0.967310
C90	C	0.258518	-1.204674	-0.467310
C91	C	-0.241452	-1.704702	-1.077030
C92	C	0.258548	-1.204702	-0.577030
C93	C	-0.294749	-1.634067	-1.135268
C94	C	0.205251	-1.134067	-0.635268
C95	C	-0.348073	-1.563414	-1.083783
C96	C	0.151927	-1.063414	-0.583783
C97	C	-0.348099	-1.563397	-0.974061
C98	C	0.151901	-1.063397	-0.474061
C99	C	-0.454689	-1.422137	-1.090533
C100	C	0.045311	-0.922137	-0.590533
C101	C	-0.454725	-1.422113	-0.980814
C102	C	0.045275	-0.922113	-0.480814
C103	C	-0.507987	-1.351502	-1.148771
C104	C	-0.007987	-0.851502	-0.648771
C105	C	-0.561316	-1.280853	-1.097287
C106	C	-0.061316	-0.780853	-0.597287
C107	C	-0.561345	-1.280829	-0.987560
C108	C	-0.061345	-0.780829	-0.487560
C109	C	-0.508049	-1.351460	-0.929329
C110	C	-0.008049	-0.851460	-0.429329
C111	C	-0.401566	-1.492607	-0.258807
C112	C	0.098434	-0.992607	0.241193
C113	C	-0.401366	-1.492789	-0.142018
C114	C	0.098634	-0.992789	0.357982
H115	H	-0.916029	-1.405143	-0.619250
H116	H	-0.416029	-0.905143	-0.119250
H117	H	-0.886213	-1.580301	-0.444310
H118	H	-0.386213	-1.080301	0.055690
F119	F	-0.618096	-1.205624	-0.932775
F120	F	-0.118096	-0.705624	-0.432775
H121	H	-0.508320	-1.185406	-0.672713
H122	H	-0.008320	-0.685406	-0.172713
F123	F	-0.618028	-1.205682	-1.159272
F124	F	-0.118028	-0.705682	-0.659272
F125	F	-0.508079	-1.351445	-0.812555
F126	F	-0.008079	-0.851445	-0.312555
F127	F	-0.618527	-1.092564	-0.818195
F128	F	-0.118527	-0.592564	-0.318195
H129	H	-0.294774	-1.199038	-0.390817
H130	H	0.205226	-0.699038	0.109183
H131	H	-0.507955	-1.351526	-1.238110
H132	H	-0.007955	-0.851526	-0.738110
F133	F	-0.294844	-1.634010	-0.799052
F134	F	0.205156	-1.134010	-0.299052
H135	H	-0.605188	-0.880630	-0.800612
H136	H	-0.105188	-0.380630	-0.300612
F137	F	-0.508333	-0.759842	-0.672776
F138	F	-0.008333	-0.259842	-0.172776
H139	H	-0.198087	-1.762182	-0.919881
H140	H	0.301913	-1.262182	-0.419881
H141	H	-0.294791	-0.800909	-0.390871
H142	H	0.205209	-0.300909	0.109129
F143	F	-0.184688	-1.779884	-1.131825
F144	F	0.315312	-1.279884	-0.631825
H145	H	-0.294712	-1.634087	-1.224607
H146	H	0.205288	-1.134087	-0.724607
H147	H	-0.197928	-0.906618	-0.262998
H148	H	0.302072	-0.406618	0.237002
H149	H	-0.197905	-1.105687	-0.262968
H150	H	0.302095	-0.605687	0.237032
