data_functionalizedCrystal
_audit_creation_method	'MofGen! by Chris Wilmer'
_symmetry_space_group_name_H-M	'P1'
_symmetry_Int_Tables_number	1
_symmetry_cell_setting	triclinic
loop_
_symmetry_equiv_pos_as_xyz
  x,y,z
_cell_length_a	19.188933
_cell_length_b	19.188930
_cell_length_c	12.503572
_cell_angle_alpha	93.506241
_cell_angle_beta	86.495071
_cell_angle_gamma	83.145175
loop_
_atom_site_label
_atom_site_type_symbol
_atom_site_fract_x
_atom_site_fract_y
_atom_site_fract_z
O1	O	0.930181	0.083124	-0.089296
O2	O	0.726871	0.094856	-0.089308
O3	O	0.834392	-0.012665	-0.089281
O4	O	0.822660	0.190644	-0.089323
O5	O	0.826306	-0.004565	0.089359
O6	O	0.718784	0.102956	0.089332
O7	O	0.922095	0.091223	0.089344
Cu8	Cu	0.819701	0.097829	0.105649
Cu9	Cu	0.829264	0.088250	-0.105613
O10	O	0.814574	0.198744	0.089317
C11	C	0.696817	0.098526	0.000011
C12	C	0.619312	0.097384	0.000008
C13	C	0.070464	0.084824	-0.097356
C14	C	0.143289	0.085892	-0.097360
C15	C	0.175298	0.090845	0.000016
C16	C	0.134479	0.094711	0.097404
C17	C	0.061657	0.093636	0.097405
N18	N	0.281037	0.135549	0.072489
N19	N	0.350215	0.136572	0.072481
C20	C	0.394706	0.094083	0.000017
N21	N	0.367406	0.050541	-0.072455
N22	N	0.298221	0.049521	-0.072449
C23	C	0.254261	0.092011	0.000025
C24	C	0.514482	0.091369	-0.097369
C25	C	0.587308	0.092433	-0.097370
C26	C	0.578496	0.101259	0.097397
C27	C	0.505672	0.100188	0.097395
C28	C	0.473669	0.095247	0.000008
C29	C	0.829969	-0.034626	0.000042
C30	C	0.828828	-0.112130	0.000052
C31	C	0.891918	-0.157053	0.000060
C32	C	0.890847	-0.229878	0.000043
C33	C	0.826681	-0.257775	0.000039
C34	C	0.763583	-0.212842	0.000024
C35	C	0.764656	-0.140020	0.000030
N36	N	0.774882	-0.363024	0.060830
N37	N	0.773867	-0.432203	0.060826
C38	C	0.823444	-0.477185	0.000017
N39	N	0.874085	-0.450375	-0.060776
N40	N	0.875102	-0.381190	-0.060767
C41	C	0.825511	-0.336738	0.000031
C42	C	0.885378	-0.601073	0.000005
C43	C	0.884305	-0.673899	-0.000019
C44	C	0.757038	-0.656861	-0.000027
C45	C	0.758114	-0.584038	-0.000014
C46	C	0.822285	-0.556148	0.000007
C47	C	0.952149	0.087554	0.000023
C48	C	1.029654	0.088695	0.000019
C49	C	0.818997	0.220705	-0.000009
C50	C	0.820138	0.298209	-0.000025
N51	N	0.812980	0.104566	0.254240
N52	N	0.835991	0.081508	-0.254204
C53	C	0.803094	0.114481	0.473353
C54	C	0.845876	0.071595	0.526690
C55	C	0.840374	0.077112	0.648612
C56	C	0.808594	0.108965	0.351420
H57	H	0.472443	0.103342	0.176688
H58	H	0.886634	0.030735	0.480788
F59	F	0.749823	0.167887	0.533345
H60	H	0.944172	-0.134351	0.000074
F61	F	0.951458	-0.721711	-0.000016
H62	H	0.942225	-0.266461	0.000046
F63	F	0.480420	0.086106	-0.201015
H64	H	0.711339	-0.235561	0.000018
H65	H	0.176522	0.082745	-0.176657
F66	F	0.688748	-0.686547	-0.000037
H67	H	0.937631	-0.578364	0.000018
F68	F	0.690963	-0.536225	-0.000019
F69	F	0.036409	0.079561	-0.201003
H70	H	0.160545	0.098742	0.176688
F71	F	0.612558	0.106521	0.201033
F72	F	0.630743	0.088307	-0.201015
F73	F	0.697504	-0.092207	0.000021
F74	F	0.018221	0.097758	0.201050
