data_functionalizedCrystal
_audit_creation_method	'MofGen! by Chris Wilmer'
_symmetry_space_group_name_H-M	'P1'
_symmetry_Int_Tables_number	1
_symmetry_cell_setting	triclinic
loop_
_symmetry_equiv_pos_as_xyz
  x,y,z
_cell_length_a	10.654547
_cell_length_b	14.971486
_cell_length_c	13.448316
_cell_angle_alpha	90.002432
_cell_angle_beta	90.009247
_cell_angle_gamma	84.050092
loop_
_atom_site_label
_atom_site_type_symbol
_atom_site_fract_x
_atom_site_fract_y
_atom_site_fract_z
O1	O	-1.666500	-0.125639	-0.082710
O2	O	-1.300894	-0.137606	-0.082708
O3	O	-1.493496	-0.001476	-0.082702
O4	O	-1.473898	-0.261769	-0.082716
O5	O	-1.493464	-0.001479	0.082682
O6	O	-1.300861	-0.137609	0.082676
O7	O	-1.666468	-0.125642	0.082674
Cu8	Cu	-1.483661	-0.131626	0.097776
Cu9	Cu	-1.483700	-0.131622	-0.097810
O10	O	-1.473865	-0.261773	0.082668
C11	C	-1.254089	-0.136728	-0.000016
C12	C	-1.114674	-0.134098	-0.000015
C13	C	-1.713272	-0.126520	-0.000020
C14	C	-1.852687	-0.129150	-0.000027
C15	C	-0.852743	-0.129136	-0.180334
C16	C	-0.918265	-0.130371	-0.270485
C17	C	-1.049256	-0.132850	-0.270482
C18	C	-1.114728	-0.134090	-0.180319
C19	C	-1.049205	-0.132855	-0.090168
C20	C	-0.918211	-0.130379	-0.090181
C21	C	-1.049151	-0.132863	0.090136
C22	C	-0.918159	-0.130391	0.090136
C23	C	-1.114623	-0.134103	0.180299
C24	C	-1.049100	-0.132874	0.270452
C25	C	-0.918101	-0.130397	0.270446
C26	C	-0.852637	-0.129156	0.180287
C27	C	-1.492603	0.031852	-0.000010
C28	C	-1.489977	0.131163	-0.000011
C29	C	-1.474758	-0.295100	-0.000026
C30	C	-1.477384	-0.394412	-0.000031
N31	N	-1.483644	-0.131628	0.235340
C32	C	-1.603126	0.187772	-0.000011
C33	C	-1.600650	0.281085	-0.000021
C34	C	-1.485025	0.317787	-0.000024
C35	C	-1.371867	0.261171	-0.000027
C36	C	-1.374344	0.167860	-0.000024
C37	C	-1.366713	0.455662	-0.000031
C38	C	-1.364236	0.548980	-0.000032
C39	C	-1.593019	0.568887	-0.000027
C40	C	-1.595496	0.475576	-0.000024
C41	C	-1.482338	0.418966	-0.000026
N42	N	-1.483728	-0.131613	-0.235374
C43	C	-1.569024	-0.071359	0.712561
C44	C	-1.569014	-0.071365	0.608458
C45	C	-1.483700	-0.131621	0.556422
C46	C	-1.398399	-0.191881	0.608494
C47	C	-1.398416	-0.191879	0.712595
C48	C	-1.398366	-0.191880	0.391514
C49	C	-1.398347	-0.191882	0.287405
C50	C	-1.568964	-0.071367	0.287377
C51	C	-1.568981	-0.071365	0.391478
C52	C	-1.483679	-0.131624	0.443543
H53	H	-0.746081	-0.127130	-0.180345
H54	H	-1.692787	0.327173	-0.000018
C55	C	-1.304552	-0.258163	0.551250
N56	N	-1.233860	-0.308085	0.508134
C57	C	-0.846237	-0.129006	-0.369660
N58	N	-0.791988	-0.127976	-0.444358
H59	H	-1.689648	0.445696	-0.000015
C60	C	-1.121121	-0.134266	0.369621
N61	N	-1.175371	-0.135328	0.444316
H62	H	-1.274567	0.409572	-0.000034
H63	H	-0.745976	-0.127144	0.180273
H64	H	-1.685157	0.614983	-0.000029
C65	C	-1.304580	-0.258160	0.769866
N66	N	-1.233902	-0.308087	0.813001
H67	H	-1.638470	-0.022303	0.566068
H68	H	-1.102605	-0.133854	-0.343891
C69	C	-1.258828	-0.136781	-0.180322
N70	N	-1.367367	-0.138800	-0.180323
H71	H	-1.221284	-0.136115	0.180295
C72	C	-0.846036	-0.129041	0.369622
N73	N	-0.791761	-0.128021	0.444323
H74	H	-1.277723	0.291062	-0.000036
H75	H	-1.697281	0.157897	-0.000002
C76	C	-1.237042	0.589350	-0.000047
N77	N	-1.141238	0.619757	-0.000063
C78	C	-1.662875	-0.005070	0.769792
N79	N	-1.733569	0.044860	0.812895
C80	C	-1.662809	-0.005064	0.448716
N81	N	-1.733477	0.044878	0.491828
C82	C	-1.249871	0.105590	-0.000022
N83	N	-1.156114	0.058689	-0.000023
H84	H	-1.638420	-0.022302	0.244980
C85	C	-1.304409	-0.258103	0.230167
N86	N	-1.233622	-0.307959	0.187055
H87	H	-1.328908	-0.240953	0.433901
