data_functionalizedCrystal
_audit_creation_method	'MofGen! by Chris Wilmer'
_symmetry_space_group_name_H-M	'P1'
_symmetry_Int_Tables_number	1
_symmetry_cell_setting	triclinic
loop_
_symmetry_equiv_pos_as_xyz
  x,y,z
_cell_length_a	16.109301
_cell_length_b	16.109301
_cell_length_c	15.186229
_cell_angle_alpha	90.007249
_cell_angle_beta	90.002208
_cell_angle_gamma	96.538519
loop_
_atom_site_label
_atom_site_type_symbol
_atom_site_fract_x
_atom_site_fract_y
_atom_site_fract_z
O1	O	-1.103127	0.106869	0.073176
O2	O	-0.603127	0.606869	0.573176
O3	O	-0.861065	0.120168	0.073190
O4	O	-0.361065	0.620168	0.573190
O5	O	-0.988746	-0.007512	0.073174
O6	O	-0.488746	0.492488	0.573174
O7	O	-0.975446	0.234550	0.073192
O8	O	-0.475446	0.734550	0.573192
O9	O	-0.988745	-0.007520	-0.073284
O10	O	-0.488745	0.492480	0.426716
O11	O	-0.861064	0.120161	-0.073267
O12	O	-0.361064	0.620161	0.426733
O13	O	-1.103126	0.106861	-0.073282
O14	O	-0.603126	0.606861	0.426718
Zn15	Zn	-0.982095	0.113510	-0.096528
Zn16	Zn	-0.482095	0.613510	0.403472
Zn17	Zn	-0.982096	0.113520	0.096436
Zn18	Zn	-0.482096	0.613520	0.596436
O19	O	-0.975445	0.234542	-0.073265
O20	O	-0.475445	0.734542	0.426735
C21	C	-0.988206	-0.038491	-0.000056
C22	C	-0.488206	0.461509	0.499944
C23	C	-0.986591	-0.130786	-0.000057
C24	C	-0.486591	0.369214	0.499943
C25	C	-0.830090	0.119626	-0.000037
C26	C	-0.330090	0.619626	0.499963
C27	C	-0.737794	0.118011	-0.000032
C28	C	-0.237794	0.618011	0.499968
C29	C	-1.058599	-0.353059	-0.000047
C30	C	-0.558599	0.146941	0.499953
C31	C	-1.057075	-0.439779	-0.000040
C32	C	-0.557075	0.060221	0.499960
C33	C	-0.905586	-0.419905	-0.000034
C34	C	-0.405586	0.080095	0.499966
C35	C	-0.907111	-0.333186	-0.000035
C36	C	-0.407111	0.166814	0.499965
C37	C	-0.983620	-0.299766	-0.000046
C38	C	-0.483620	0.200234	0.499954
C39	C	-0.980571	-0.473205	-0.000038
C40	C	-0.480571	0.026795	0.499962
C41	C	-0.978918	-0.567231	-0.000030
C42	C	-0.478918	-0.067231	0.499970
C43	C	-0.985273	-0.205734	-0.000052
C44	C	-0.485273	0.294266	0.499948
C45	C	-1.134101	0.107404	-0.000053
C46	C	-0.634101	0.607404	0.499947
C47	C	-1.226397	0.109019	-0.000052
C48	C	-0.726397	0.609019	0.499948
C49	C	-0.515522	0.190018	-0.000036
C50	C	-0.015522	0.690018	0.499964
C51	C	-0.428801	0.188494	-0.000042
C52	C	0.071199	0.688494	0.499958
C53	C	-0.448676	0.037006	-0.000050
C54	C	0.051324	0.537006	0.499950
C55	C	-0.535394	0.038530	-0.000051
C56	C	-0.035394	0.538530	0.499949
C57	C	-0.568815	0.115039	-0.000039
C58	C	-0.068815	0.615039	0.499961
C59	C	-0.395376	0.111990	-0.000045
C60	C	0.104624	0.611990	0.499955
C61	C	-0.301350	0.110337	-0.000051
C62	C	0.198650	0.610337	0.499949
C63	C	-0.662847	0.116693	-0.000035
C64	C	-0.162847	0.616693	0.499965
C65	C	-0.975984	0.265521	-0.000034
C66	C	-0.475984	0.765521	0.499966
C67	C	-0.977600	0.357816	-0.000027
C68	C	-0.477600	0.857816	0.499973
N69	N	-0.982097	0.113521	0.228129
N70	N	-0.482097	0.613521	0.728129
N71	N	-0.982100	0.113502	-0.228220
N72	N	-0.482100	0.613502	0.271780
C73	C	-1.038743	0.057093	0.453844
C74	C	-0.538743	0.557093	0.953844
C75	C	-1.038746	0.057091	0.546034
C76	C	-0.538746	0.557091	1.046034
C77	C	-0.925451	0.169936	0.546058
C78	C	-0.425451	0.669936	1.046058
C79	C	-0.925453	0.169942	0.453870
C80	C	-0.425453	0.669942	0.953870
C81	C	-0.982099	0.113515	0.407765
C82	C	-0.482099	0.613515	0.907765
C83	C	-0.982099	0.113508	0.592143
C84	C	-0.482099	0.613508	1.092143
C85	C	-0.982101	0.113506	0.692099
C86	C	-0.482101	0.613506	1.192099
C87	C	-0.982098	0.113518	0.307803
C88	C	-0.482098	0.613518	0.807803
H89	H	-1.120897	-0.325851	-0.000054
H90	H	-0.620897	0.174149	0.499946
O91	O	-1.137944	-0.497263	-0.000052
O92	O	-0.637944	0.002737	0.499948
H93	H	-1.191398	-0.459451	-0.000068
H94	H	-0.691398	0.040549	0.499932
O95	O	-0.864369	0.230824	0.404173
O96	O	-0.364369	0.730824	0.904173
H97	H	-0.799590	0.220097	0.421850
H98	H	-0.299590	0.720097	0.921850
O99	O	-0.864353	0.230777	0.595800
O100	O	-0.364353	0.730777	1.095800
H101	H	-0.874795	0.295635	0.578136
H102	H	-0.374795	0.795635	1.078136
O103	O	-0.826234	-0.275700	-0.000045
O104	O	-0.326234	0.224300	0.499955
H105	H	-0.789613	-0.287574	0.059644
H106	H	-0.289613	0.212426	0.559644
O107	O	-1.099833	-0.003778	0.595730
O108	O	-0.599833	0.496222	1.095730
H109	H	-1.090321	0.005697	0.667580
H110	H	-0.590321	0.505697	1.167580
H111	H	-0.843295	-0.447127	-0.000027
H112	H	-0.343295	0.052873	0.499973
H113	H	-1.084869	0.011148	0.416308
H114	H	-0.584869	0.511148	0.916308
O115	O	-0.551573	0.272534	-0.000042
O116	O	-0.051573	0.772534	0.499958
H117	H	-0.499942	0.324415	-0.000053
H118	H	0.000058	0.824415	0.499947
O119	O	-0.371318	0.269364	-0.000036
O120	O	0.128682	0.769364	0.499964
H121	H	-0.409130	0.322817	-0.000023
H122	H	0.090870	0.822817	0.499977
H123	H	-0.578788	-0.022530	-0.000056
H124	H	-0.078788	0.477470	0.499944
O125	O	-0.412631	-0.045513	-0.000056
O126	O	0.087369	0.454487	0.499944
H127	H	-0.343376	-0.033979	-0.000047
H128	H	0.156624	0.466021	0.499953
