data_functionalizedCrystal
_audit_creation_method	'MofGen! by Chris Wilmer'
_symmetry_space_group_name_H-M	'P1'
_symmetry_Int_Tables_number	1
_symmetry_cell_setting	triclinic
loop_
_symmetry_equiv_pos_as_xyz
  x,y,z
_cell_length_a	8.559649
_cell_length_b	8.597213
_cell_length_c	7.088929
_cell_angle_alpha	91.336194
_cell_angle_beta	95.344185
_cell_angle_gamma	77.624681
loop_
_atom_site_label
_atom_site_type_symbol
_atom_site_fract_x
_atom_site_fract_y
_atom_site_fract_z
O1	O	0.287610	1.998338	0.488143
O2	O	0.298332	1.547628	0.413905
O3	O	0.061665	1.812691	0.457563
O4	O	0.524277	1.733275	0.444486
O5	O	0.029963	1.848123	0.145423
O6	O	0.266630	1.583060	0.101766
O7	O	0.255908	2.033770	0.176004
Cu8	Cu	0.258375	1.811650	0.110384
Cu9	Cu	0.295866	1.769748	0.479525
O10	O	0.492575	1.768707	0.132346
C11	C	0.279564	1.508177	0.248419
C12	C	0.270852	1.337840	0.220363
C13	C	-0.013519	1.836425	0.302488
C14	C	-0.190313	1.854338	0.305449
C15	C	0.567760	1.744972	0.287425
C16	C	0.744555	1.727058	0.284476
C17	C	0.274677	2.073220	0.341493
C18	C	0.283390	2.243555	0.369562
N19	N	0.232005	1.841133	-0.149248
N20	N	0.322224	1.740278	0.739159
H21	H	0.300802	1.293144	0.518754
N22	N	0.249044	1.275605	0.033196
N23	N	0.241767	1.132679	0.009904
H24	H	0.226369	1.088721	-0.122280
H25	H	-0.269816	1.977024	0.325642
H26	H	0.138517	1.945673	-0.213686
H27	H	0.415717	1.635755	-0.196410
H28	H	-0.175952	1.604382	0.264264
