data_functionalizedCrystal
_audit_creation_method	'MofGen! by Chris Wilmer'
_symmetry_space_group_name_H-M	'P1'
_symmetry_Int_Tables_number	1
_symmetry_cell_setting	triclinic
loop_
_symmetry_equiv_pos_as_xyz
  x,y,z
_cell_length_a	13.339070
_cell_length_b	15.944545
_cell_length_c	11.804365
_cell_angle_alpha	101.829237
_cell_angle_beta	74.875130
_cell_angle_gamma	99.562733
loop_
_atom_site_label
_atom_site_type_symbol
_atom_site_fract_x
_atom_site_fract_y
_atom_site_fract_z
O1	O	1.362750	0.408898	-0.099092
O2	O	1.068219	0.353627	-0.099082
O3	O	1.223528	0.260864	-0.099073
O4	O	1.207441	0.501661	-0.099101
O5	O	1.182641	0.285251	0.098981
O6	O	1.027332	0.378014	0.098972
O7	O	1.321863	0.433285	0.098962
Cu8	Cu	1.170864	0.407876	0.117050
Cu9	Cu	1.219218	0.379036	-0.117171
O10	O	1.166554	0.526048	0.098953
C11	C	1.010085	0.356484	-0.000054
C12	C	0.897781	0.328654	-0.000049
C13	C	0.533006	0.545041	-0.000093
C14	C	0.638522	0.571190	-0.000101
C15	C	0.703342	0.510559	-0.000088
C16	C	0.662636	0.423773	-0.000067
C17	C	0.557112	0.397620	-0.000069
C18	C	0.727448	0.363137	-0.000063
C19	C	0.686742	0.276352	-0.000043
C20	C	0.581228	0.250203	-0.000044
C21	C	0.516408	0.310835	-0.000057
C22	C	0.832971	0.389291	-0.000062
C23	C	0.857077	0.241869	-0.000038
C24	C	0.751562	0.215720	-0.000030
C25	C	1.202417	0.241608	-0.000045
C26	C	1.200417	0.147896	-0.000042
C27	C	1.098177	-0.146563	-0.000062
C28	C	1.167631	-0.096516	-0.097715
C29	C	1.193293	-0.189413	-0.000075
C30	C	1.127345	-0.072494	0.097550
C31	C	1.196788	-0.023682	-0.000057
C32	C	1.262738	-0.140610	-0.097809
C33	C	1.222420	-0.116584	0.097544
C34	C	1.291948	-0.066556	-0.000133
C35	C	1.191277	-0.284887	-0.000087
C36	C	1.198812	0.071789	-0.000054
C37	C	1.379997	0.430427	-0.000069
C38	C	1.492302	0.458256	-0.000081
C39	C	1.187665	0.545303	-0.000078
C40	C	1.189667	0.639014	-0.000089
N41	N	1.136862	0.428162	0.281789
N42	N	1.253227	0.358745	-0.281910
C43	C	1.334878	0.310015	0.655749
C44	C	1.360600	0.294665	0.531089
C45	C	1.304667	0.328038	0.468758
C46	C	1.223010	0.376763	0.531099
C47	C	1.197291	0.392121	0.655772
C48	C	1.167080	0.410143	0.468780
C49	C	1.085422	0.458869	0.531122
C50	C	1.059708	0.474223	0.655782
C51	C	1.115640	0.440851	0.718113
C52	C	1.192798	0.394786	0.344108
C53	C	1.055211	0.476892	0.344130
C54	C	1.029490	0.492242	0.468791
H55	H	0.430488	0.289548	-0.000050
H56	H	0.909855	0.192497	-0.000032
O57	O	1.140226	-0.085222	-0.196281
C58	C	1.223378	-0.036336	-0.264351
H59	H	1.299877	-0.042659	-0.242548
H60	H	1.228362	-0.061182	-0.363119
H61	H	1.209134	0.034364	-0.242432
O62	O	1.000706	0.509262	0.283725
C63	C	0.894283	0.475960	0.314190
H64	H	0.875732	0.454764	0.404713
H65	H	0.843585	0.527989	0.318451
H66	H	0.877475	0.418200	0.244043
O67	O	1.389353	0.277703	0.716237
C68	C	1.495786	0.310968	0.685725
H69	H	1.503356	0.374113	0.651447
H70	H	1.529642	0.323254	0.767699
H71	H	1.540423	0.262435	0.613360
H72	H	1.016284	-0.181313	-0.000155
H73	H	1.245509	-0.126016	0.180103
O74	O	1.329834	0.313161	0.347664
C75	C	1.434443	0.347549	0.305984
H76	H	1.479226	0.353110	0.377814
H77	H	1.472359	0.303146	0.222586
H78	H	1.436333	0.414198	0.283848
H79	H	0.718406	0.145056	-0.000023
H80	H	0.963003	0.531916	0.519564
H81	H	0.866102	0.459952	-0.000074
O82	O	1.271990	0.347300	0.283652
C83	C	1.249220	0.264090	0.314220
H84	H	1.161149	0.249015	0.348482
H85	H	1.277773	0.214523	0.232279
H86	H	1.290326	0.261443	0.386614
H87	H	0.789257	0.531855	-0.000097
O88	O	1.090487	0.455810	0.839212
C89	C	1.006444	0.505996	0.880875
H90	H	0.961005	0.497732	0.809044
H91	H	0.952379	0.483994	0.964284
H92	H	1.037988	0.576842	0.902987
O93	O	0.980264	0.521439	0.716286
C94	C	0.886411	0.480659	0.685830
H95	H	0.892985	0.409072	0.651574
H96	H	0.818728	0.488565	0.767826
H97	H	0.871625	0.511362	0.613465
H98	H	0.671658	0.641850	-0.000127
O99	O	1.330895	-0.176098	-0.196378
C100	C	1.328182	-0.264697	-0.195208
H101	H	1.250314	-0.288938	-0.137331
H102	H	1.337125	-0.302086	-0.289888
H103	H	1.394911	-0.274713	-0.157461
O104	O	1.389749	-0.025223	-0.000354
C105	C	1.427785	0.014083	-0.102462
H106	H	1.359155	0.025215	-0.136084
H107	H	1.475661	0.078586	-0.078993
H108	H	1.479297	-0.029766	-0.174875
O109	O	0.469888	0.603825	-0.000056
C110	C	0.368036	0.562125	-0.000089
H111	H	0.356248	0.499826	0.037418
H112	H	0.308356	0.606338	0.057399
H113	H	0.357145	0.546494	-0.095108
H114	H	0.548093	0.179535	-0.000041
O115	O	1.058947	-0.037171	0.196016
C116	C	0.956952	-0.078394	0.195633
H117	H	0.961413	-0.145215	0.138450
H118	H	0.912468	-0.084894	0.290600
H119	H	0.914501	-0.038408	0.157541
H120	H	1.427085	0.254994	0.480335
