data_functionalizedCrystal
_audit_creation_method	'MofGen! by Chris Wilmer'
_symmetry_space_group_name_H-M	'P1'
_symmetry_Int_Tables_number	1
_symmetry_cell_setting	triclinic
loop_
_symmetry_equiv_pos_as_xyz
  x,y,z
_cell_length_a	13.262390
_cell_length_b	11.792241
_cell_length_c	11.804365
_cell_angle_alpha	101.912841
_cell_angle_beta	62.657606
_cell_angle_gamma	84.317877
loop_
_atom_site_label
_atom_site_type_symbol
_atom_site_fract_x
_atom_site_fract_y
_atom_site_fract_z
O1	O	1.519377	0.016679	-0.591129
O2	O	1.191265	0.057786	-0.484861
O3	O	1.363282	-0.128544	-0.540565
O4	O	1.347361	0.203010	-0.535425
O5	O	1.317996	-0.079537	-0.327844
O6	O	1.145980	0.106794	-0.272140
O7	O	1.474091	0.065687	-0.378408
Cu8	Cu	1.305901	0.090715	-0.305851
Cu9	Cu	1.359456	0.032758	-0.557418
O10	O	1.302075	0.252017	-0.322704
C11	C	1.126617	0.084493	-0.364896
C12	C	1.001454	0.091044	-0.324358
C13	C	0.747392	0.002632	-0.673926
C14	C	0.864990	-0.003528	-0.712015
C15	C	0.899112	0.020114	-0.615104
C16	C	0.815624	0.049918	-0.480097
C17	C	0.698015	0.056070	-0.442005
C18	C	0.849735	0.073552	-0.383183
C19	C	0.766247	0.103356	-0.248176
C20	C	0.648650	0.109508	-0.210090
C21	C	0.614528	0.085865	-0.307001
C22	C	0.967344	0.067400	-0.421276
C23	C	0.917967	0.120838	-0.189355
C24	C	0.800368	0.126999	-0.151266
C25	C	1.339639	-0.146255	-0.433881
C26	C	1.336645	-0.272040	-0.432912
C27	C	1.331144	-0.502336	-0.431151
C28	C	1.334200	-0.374182	-0.432130
C29	C	1.538740	0.038980	-0.498376
C30	C	1.663905	0.032427	-0.538922
C31	C	1.325719	0.269728	-0.429391
C32	C	1.328714	0.395511	-0.430368
N33	N	1.268241	0.131478	-0.128915
N34	N	1.397125	-0.008014	-0.734357
C35	C	1.487559	-0.105922	0.174012
C36	C	1.516048	-0.136763	0.040125
C37	C	1.454098	-0.069706	-0.002142
C38	C	1.363656	0.028199	0.089492
C39	C	1.335171	0.059049	0.223390
C40	C	1.301709	0.095265	0.047236
C41	C	1.211267	0.193169	0.138870
C42	C	1.182786	0.224014	0.272754
C43	C	1.244736	0.156957	0.315021
C44	C	1.330195	0.064415	-0.086662
C45	C	1.177806	0.229385	-0.037284
C46	C	1.149318	0.260227	0.096603
H47	H	0.719598	-0.016625	-0.752816
C48	C	1.555695	-0.179671	0.220516
N49	N	1.607019	-0.235224	0.255544
H50	H	1.221538	0.182064	0.424043
H51	H	1.127363	0.283992	-0.071696
C52	C	1.083302	0.331716	0.373547
N53	N	1.008368	0.412836	0.449463
C54	C	1.049831	0.367919	0.197417
N55	N	0.974895	0.449031	0.273351
H56	H	0.732376	0.151265	-0.041341
H57	H	1.035309	0.043136	-0.531199
H58	H	0.994867	0.015098	-0.646125
C59	C	0.956820	-0.036323	-0.860518
N60	N	1.025989	-0.061029	-0.972378
H61	H	0.518772	0.090883	-0.275995
H62	H	0.580677	0.133755	-0.100160
C63	C	0.955493	0.146855	-0.082745
N64	N	0.983767	0.166449	-0.002453
H65	H	1.477297	-0.094822	-0.111160
C66	C	1.429672	-0.043284	-0.187442
N67	N	1.504601	-0.124411	-0.263349
C68	C	1.615525	-0.244460	-0.060660
N69	N	1.690454	-0.325585	-0.136573
