data_functionalizedCrystal
_audit_creation_method	'MofGen! by Chris Wilmer'
_symmetry_space_group_name_H-M	'P1'
_symmetry_Int_Tables_number	1
_symmetry_cell_setting	triclinic
loop_
_symmetry_equiv_pos_as_xyz
  x,y,z
_cell_length_a	16.120530
_cell_length_b	16.959454
_cell_length_c	16.959447
_cell_angle_alpha	89.973182
_cell_angle_beta	87.084811
_cell_angle_gamma	87.115788
loop_
_atom_site_label
_atom_site_type_symbol
_atom_site_fract_x
_atom_site_fract_y
_atom_site_fract_z
Zn1	Zn	1.274555	-0.376020	-0.508157
Zn2	Zn	1.274467	-0.508209	-0.375982
Zn3	Zn	1.135142	-0.369341	-0.369297
Zn4	Zn	1.135111	-0.501448	-0.501426
O5	O	1.204818	-0.438755	-0.438716
O6	O	1.391209	-0.399180	-0.496238
O7	O	1.255961	-0.489822	-0.264483
O8	O	1.153685	-0.259619	-0.387736
O9	O	1.391144	-0.496298	-0.399130
O10	O	1.256111	-0.264526	-0.489756
O11	O	1.153599	-0.387796	-0.259572
O12	O	1.018472	-0.381241	-0.381210
O13	O	1.153632	-0.484776	-0.612931
O14	O	1.018449	-0.478299	-0.478285
O15	O	1.256081	-0.392624	-0.617876
O16	O	1.255931	-0.617920	-0.392604
O17	O	1.153547	-0.612953	-0.484767
C18	C	1.204749	-0.644118	-0.438699
C19	C	1.204795	-0.731976	-0.438722
C20	C	0.988210	-0.428312	-0.428292
C21	C	0.895544	-0.423864	-0.423851
C22	C	1.151584	-1.100900	-0.486703
C23	C	1.258285	-1.106017	-0.390820
C24	C	1.258256	-1.023470	-0.390811
C25	C	1.204889	-0.979634	-0.438748
C26	C	1.151552	-1.018345	-0.486694
C27	C	1.311586	-0.984751	-0.342860
C28	C	1.311558	-0.902199	-0.342849
C29	C	1.258196	-0.858362	-0.390791
C30	C	1.204857	-0.897079	-0.438739
C31	C	1.151490	-0.853243	-0.486677
C32	C	1.098155	-0.891958	-0.534630
C33	C	1.098189	-0.974508	-0.534637
C34	C	1.258162	-0.775812	-0.390784
C35	C	1.151458	-0.770688	-0.486668
C36	C	0.725882	-0.415724	-0.415751
C37	C	0.684595	-0.461843	-0.461738
C38	C	0.590190	-0.457314	-0.457231
C39	C	0.820296	-0.420252	-0.420257
C40	C	1.422273	-0.449238	-0.449181
C41	C	1.514939	-0.453706	-0.453640
C42	C	1.204863	-0.438691	-0.644886
C43	C	1.204882	-0.438664	-0.732744
C44	C	1.204911	-0.232591	-0.438751
C45	C	1.204951	-0.144736	-0.438766
C46	C	1.151661	-0.385464	-1.101672
C47	C	1.258250	-0.491704	-1.106774
C48	C	1.258236	-0.491722	-1.024227
C49	C	1.204932	-0.438611	-0.980399
C50	C	1.151643	-0.385482	-1.019118
C51	C	1.311519	-0.544855	-0.985502
C52	C	1.311506	-0.544876	-0.902951
C53	C	1.258205	-0.491760	-0.859121
C54	C	1.204914	-0.438629	-0.897845
C55	C	1.151611	-0.385517	-0.854016
C56	C	1.098323	-0.332381	-0.892739
C57	C	1.098342	-0.332366	-0.975288
C58	C	1.258186	-0.491775	-0.776572
C59	C	1.151593	-0.385535	-0.771462
C60	C	1.204822	-0.438763	-0.233350
C61	C	1.204964	-0.438575	-0.145500
H62	H	1.054700	-0.856257	-0.573657
H63	H	1.108162	-1.132426	-0.525748
H64	H	1.054765	-1.006038	-0.573677
C65	C	1.370146	-0.603272	-1.033712
H66	H	1.362531	-0.595644	-1.088422
H67	H	1.357918	-0.655795	-1.019587
H68	H	1.426168	-0.594405	-1.022882
C69	C	1.039683	-0.273969	-0.844526
H70	H	1.007943	-0.242325	-0.879405
H71	H	1.071577	-0.241077	-0.813857
H72	H	1.003336	-0.302476	-0.810576
C73	C	1.092754	-0.722475	-0.539401
H74	H	1.060995	-0.757356	-0.567955
H75	H	1.124611	-0.691762	-0.575393
H76	H	1.056429	-0.688569	-0.507382
H77	H	1.301642	-0.534951	-1.142463
H78	H	1.354895	-0.588143	-0.871430
H79	H	1.301577	-0.535032	-0.745048
C80	C	0.732616	-0.519783	-0.519495
H81	H	0.694296	-0.548122	-0.547759
H82	H	0.766560	-0.555779	-0.490786
H83	H	0.766614	-0.491187	-0.555584
H84	H	1.301728	-1.141712	-0.351786
H85	H	0.690330	-0.372843	-0.372997
H86	H	1.108189	-0.342281	-0.735783
C87	C	1.370294	-1.032970	-0.290145
H88	H	1.362684	-1.087679	-0.297030
H89	H	1.358133	-1.018905	-0.236436
H90	H	1.426297	-1.022086	-0.304464
H91	H	1.054958	-0.289107	-1.006823
C92	C	1.093047	-0.327022	-1.144261
H93	H	1.100685	-0.334617	-1.199702
H94	H	1.105266	-0.274506	-1.131330
H95	H	1.037020	-0.335899	-1.128033
H96	H	1.354987	-0.870683	-0.303804
H97	H	1.301582	-0.744294	-0.351738
