data_functionalizedCrystal
_audit_creation_method	'MofGen! by Chris Wilmer'
_symmetry_space_group_name_H-M	'P1'
_symmetry_Int_Tables_number	1
_symmetry_cell_setting	triclinic
loop_
_symmetry_equiv_pos_as_xyz
  x,y,z
_cell_length_a	12.837943
_cell_length_b	11.295483
_cell_length_c	12.837942
_cell_angle_alpha	85.469583
_cell_angle_beta	94.828940
_cell_angle_gamma	94.538773
loop_
_atom_site_label
_atom_site_type_symbol
_atom_site_fract_x
_atom_site_fract_y
_atom_site_fract_z
O1	O	-1.408689	-0.099003	-0.265788
O2	O	-0.908689	0.400997	0.234212
O3	O	-1.105556	-0.099010	-0.252345
O4	O	-0.605556	0.400990	0.247655
O5	O	-1.250401	-0.098999	-0.107500
O6	O	-0.750401	0.401001	0.392500
O7	O	-1.263845	-0.099013	-0.410633
O8	O	-0.763845	0.400987	0.089367
O9	O	-1.237676	0.099051	-0.120201
O10	O	-0.737676	0.599051	0.379799
O11	O	-1.092832	0.099040	-0.265045
O12	O	-0.592832	0.599040	0.234955
O13	O	-1.395965	0.099047	-0.278489
O14	O	-0.895965	0.599047	0.221511
Cu15	Cu	-1.243237	0.117127	-0.272927
Cu16	Cu	-0.743237	0.617127	0.227073
Cu17	Cu	-1.258285	-0.117090	-0.257907
Cu18	Cu	-0.758285	0.382910	0.242093
O19	O	-1.251121	0.099037	-0.423333
O20	O	-0.751121	0.599037	0.076667
C21	C	-1.060125	0.000014	-0.254153
C22	C	-0.560125	0.500014	0.245847
C23	C	-0.943710	0.000012	-0.240609
C24	C	-0.443710	0.500012	0.259391
N25	N	-1.232661	0.281863	-0.283491
N26	N	-0.732661	0.781863	0.216509
C27	C	-1.441396	0.000021	-0.276680
C28	C	-0.941396	0.500021	0.223320
C29	C	-1.557812	0.000015	-0.290224
C30	C	-1.057812	0.500015	0.209776
C31	C	-1.239497	0.000025	-0.074781
C32	C	-0.739497	0.500025	0.425219
C33	C	-1.225953	0.000023	0.041634
C34	C	-0.725953	0.500023	0.541634
C35	C	-0.718835	0.000021	-0.403439
C36	C	-0.218835	0.500021	0.096561
C37	C	-0.609453	0.000020	-0.390717
C38	C	-0.109453	0.500020	0.109283
C39	C	-0.615561	0.000016	-0.202446
C40	C	-0.115561	0.500016	0.297554
C41	C	-0.724943	0.000017	-0.215167
C42	C	-0.224943	0.500017	0.284833
C43	C	-0.776576	0.000018	-0.315667
C44	C	-0.276576	0.500018	0.184333
C45	C	-0.885961	0.000011	-0.328387
C46	C	-0.385961	0.500011	0.171613
C47	C	-0.892066	0.000016	-0.140117
C48	C	-0.392066	0.500016	0.359883
C49	C	-0.782684	0.000015	-0.127396
C50	C	-0.282684	0.500015	0.372604
N51	N	-1.268868	-0.281825	-0.247335
N52	N	-0.768868	0.218175	0.252665
C53	C	-1.344996	0.531161	-0.171231
C54	C	-0.844996	1.031161	0.328769
C55	C	-1.337012	0.655824	-0.179223
C56	C	-0.837012	1.155824	0.320777
C57	C	-1.208702	0.655854	-0.307459
C58	C	-0.708702	1.155854	0.192541
C59	C	-1.216687	0.531191	-0.299467
C60	C	-0.716687	1.031191	0.200533
C61	C	-1.284837	0.468849	-0.231353
C62	C	-0.784837	0.968849	0.268647
C63	C	-1.292826	0.344183	-0.223367
C64	C	-0.792826	0.844183	0.276633
C65	C	-1.164512	0.344216	-0.351597
C66	C	-0.664512	0.844216	0.148403
C67	C	-1.156528	0.468879	-0.359589
C68	C	-0.656528	0.968879	0.140411
C69	C	-1.262024	0.000010	-0.456052
C70	C	-0.762024	0.500010	0.043948
C71	C	-1.275569	0.000004	-0.572467
C72	C	-0.775569	0.500004	-0.072467
C73	C	-1.388784	0.000002	0.266509
C74	C	-0.888784	0.500002	0.766509
C75	C	-1.376062	-0.000000	0.375892
C76	C	-0.876062	0.500000	0.875892
C77	C	-1.187791	0.000008	0.369784
C78	C	-0.687791	0.500008	0.869784
C79	C	-1.200512	0.000010	0.260402
C80	C	-0.700512	0.500010	0.760402
C81	C	-1.301011	0.000009	0.208768
C82	C	-0.801011	0.500009	0.708768
C83	C	-1.313731	0.000020	0.099383
C84	C	-0.813731	0.500020	0.599383
C85	C	-1.125461	0.000019	0.093278
C86	C	-0.625461	0.500019	0.593278
C87	C	-1.112740	0.000017	0.202660
C88	C	-0.612740	0.500017	0.702660
H89	H	-0.928000	0.000014	-0.410219
H90	H	-0.428000	0.500014	0.089781
Cl91	Cl	-1.440071	0.000026	0.034473
Cl92	Cl	-0.940071	0.500026	0.534473
Cl93	Cl	-1.123021	0.734240	-0.393072
Cl94	Cl	-0.623021	1.234240	0.106928
Cl95	Cl	-0.986405	0.000008	0.267582
Cl96	Cl	-0.486405	0.500008	0.767582
Cl97	Cl	-1.015111	0.000043	0.020681
Cl98	Cl	-0.515111	0.500043	0.520681
H99	H	-1.400494	0.480401	-0.115777
H100	H	-0.900494	0.980401	0.384223
H101	H	-1.447536	-0.000010	0.422901
H102	H	-0.947536	0.499990	0.922901
H103	H	-0.760876	0.000020	-0.485269
H104	H	-0.260876	0.500020	0.014731
H105	H	-0.740628	0.000028	-0.045572
H106	H	-0.240628	0.500028	0.454428
Cl107	Cl	-0.536867	0.000027	-0.501065
Cl108	Cl	-0.036867	0.500027	-0.001065
H109	H	-1.105969	-0.000004	0.411844
H110	H	-0.605969	0.499996	0.911844
Cl111	Cl	-1.378502	0.265812	-0.137741
Cl112	Cl	-0.878502	0.765812	0.362259
Cl113	Cl	-0.550631	0.000031	-0.076115
Cl114	Cl	-0.050631	0.500031	0.423885
H115	H	-1.385998	0.706555	-0.130265
H116	H	-0.885998	1.206555	0.369735
Cl117	Cl	-1.070855	0.547261	-0.445212
Cl118	Cl	-0.570855	1.047261	0.054788
H119	H	-0.939091	0.000006	-0.068646
H120	H	-0.439091	0.500006	0.431354
Cl121	Cl	-1.088888	0.265870	-0.427188
Cl122	Cl	-0.588888	0.765870	0.072812
Cl123	Cl	-1.515120	0.000030	0.201593
Cl124	Cl	-1.015120	0.500030	0.701593
