data_functionalizedCrystal
_audit_creation_method	'MofGen! by Chris Wilmer'
_symmetry_space_group_name_H-M	'P1'
_symmetry_Int_Tables_number	1
_symmetry_cell_setting	triclinic
loop_
_symmetry_equiv_pos_as_xyz
  x,y,z
_cell_length_a	14.971486
_cell_length_b	12.837942
_cell_length_c	13.448316
_cell_angle_alpha	89.994234
_cell_angle_beta	89.998199
_cell_angle_gamma	89.221535
loop_
_atom_site_label
_atom_site_type_symbol
_atom_site_fract_x
_atom_site_fract_y
_atom_site_fract_z
O1	O	1.198338	0.135106	-0.082576
O2	O	0.939302	0.151285	-0.082603
O3	O	1.063076	-0.007715	-0.082584
O4	O	1.074564	0.294105	-0.082595
O5	O	1.063058	-0.007724	0.082800
O6	O	0.939284	0.151275	0.082781
O7	O	1.198320	0.135096	0.082808
Cu8	Cu	1.068800	0.143185	0.097895
Cu9	Cu	1.068822	0.143196	-0.097690
O10	O	1.074546	0.294095	0.082789
C11	C	0.905907	0.150556	0.000086
C12	C	0.806427	0.148388	0.000075
C13	C	0.757077	0.241796	0.000073
C14	C	0.663606	0.239752	0.000088
C15	C	0.619486	0.144300	0.000098
C16	C	0.668842	0.050885	0.000103
C17	C	0.762313	0.052930	0.000095
C18	C	0.474021	0.046630	0.000117
C19	C	0.380545	0.044585	0.000123
C20	C	0.375314	0.233453	0.000110
C21	C	0.468784	0.235497	0.000102
C22	C	0.518135	0.142082	0.000105
C23	C	1.059187	-0.046345	0.000107
C24	C	1.047612	-0.161436	0.000104
C25	C	1.186755	-0.402222	0.000098
C26	C	1.175884	-0.510362	0.000095
C27	C	1.015001	-0.485856	0.000089
C28	C	1.025872	-0.377717	0.000092
C29	C	1.111751	-0.335904	0.000098
C30	C	1.122621	-0.227763	0.000108
C31	C	0.961739	-0.203260	0.000094
C32	C	0.950868	-0.311399	0.000091
C33	C	1.231715	0.135824	0.000117
C34	C	1.331195	0.137993	0.000121
C35	C	1.078436	0.332726	0.000096
C36	C	1.090010	0.447817	0.000092
N37	N	1.068792	0.143176	0.235460
N38	N	1.068837	0.143197	-0.235255
C39	C	1.123620	0.072800	0.287508
C40	C	1.123626	0.072799	0.391612
C41	C	1.068807	0.143180	0.443664
C42	C	1.013972	0.213559	0.391608
C43	C	1.013963	0.213554	0.287507
C44	C	1.013998	0.213566	0.608588
C45	C	1.014008	0.213573	0.712697
C46	C	1.123661	0.072811	0.712693
C47	C	1.123651	0.072806	0.608592
C48	C	1.068818	0.143187	0.556543
H49	H	0.514200	-0.029439	0.000121
C50	C	0.953686	0.290988	0.551336
H51	H	0.921046	0.332914	0.597245
H52	H	0.913266	0.253626	0.510734
H53	H	0.989549	0.334206	0.510719
C54	C	1.258387	-0.583308	0.000101
H55	H	1.311088	-0.542914	0.000112
H56	H	1.257496	-0.625998	-0.057571
H57	H	1.257486	-0.626006	0.057782
C58	C	1.183969	-0.004615	0.769942
H59	H	1.176117	0.005456	0.839396
H60	H	1.244630	0.006758	0.752875
H61	H	1.168352	-0.073828	0.752887
C62	C	0.953655	0.290972	0.230253
H63	H	0.921014	0.332896	0.276162
H64	H	0.913237	0.253605	0.189654
H65	H	0.989514	0.334192	0.189633
H66	H	1.168271	0.015493	0.433989
H67	H	1.168264	0.015492	0.245134
H68	H	0.632913	-0.026834	0.000125
H69	H	0.969333	0.270861	0.433995
H70	H	0.945081	-0.519920	0.000073
C71	C	1.183950	-0.004612	0.551335
H72	H	1.216602	-0.046534	0.597241
H73	H	1.224358	0.032753	0.510711
H74	H	1.148081	-0.047833	0.510740
C75	C	0.953647	0.290924	0.769953
H76	H	0.920961	0.332811	0.724047
H77	H	0.989452	0.334172	0.810584
H78	H	0.913255	0.253483	0.810542
C79	C	0.332010	-0.060407	0.000147
H80	H	0.269275	-0.048242	0.000142
H81	H	0.348403	-0.098868	0.057827
H82	H	0.348399	-0.098880	-0.057527
C83	C	0.805601	0.346795	0.000062
H84	H	0.762819	0.402132	0.000072
H85	H	0.841953	0.351525	-0.057613
H86	H	0.841956	0.351514	0.057740
C87	C	0.856407	-0.357395	0.000080
H88	H	0.813295	-0.302407	0.000074
H89	H	0.848816	-0.399083	0.057748
H90	H	0.848828	-0.399057	-0.057605
C91	C	0.879232	-0.130308	0.000085
H92	H	0.898003	-0.059914	0.000081
H93	H	0.844391	-0.143003	0.057753
H94	H	0.844408	-0.142989	-0.057600
H95	H	0.623429	0.315815	0.000086
H96	H	0.335129	0.309515	0.000112
C97	C	0.517315	0.340492	0.000094
H98	H	0.474539	0.395834	0.000103
H99	H	0.553670	0.345218	-0.057580
H100	H	0.553668	0.345205	0.057773
H101	H	1.192549	-0.193721	0.000116
C102	C	0.816598	-0.049819	0.000088
H103	H	0.776936	-0.106960	0.000084
H104	H	0.853174	-0.052954	0.057756
H105	H	0.853164	-0.052939	-0.057597
H106	H	1.256681	-0.368178	0.000113
