data_functionalizedCrystal
_audit_creation_method	'MofGen! by Chris Wilmer'
_symmetry_space_group_name_H-M	'P1'
_symmetry_Int_Tables_number	1
_symmetry_cell_setting	triclinic
loop_
_symmetry_equiv_pos_as_xyz
  x,y,z
_cell_length_a	6.817900
_cell_length_b	16.256275
_cell_length_c	27.923559
_cell_angle_alpha	96.632311
_cell_angle_beta	98.965071
_cell_angle_gamma	103.500333
loop_
_atom_site_label
_atom_site_type_symbol
_atom_site_fract_x
_atom_site_fract_y
_atom_site_fract_z
V1	V	-3.976802	-0.118299	-0.151443
O2	O	-3.965223	0.004446	-0.148382
O3	O	-3.928701	-0.233376	-0.150578
O4	O	-3.906593	-0.117023	-0.217414
O5	O	-3.987485	-0.112712	-0.081083
V6	V	-4.463217	-0.103553	-0.143006
O7	O	-4.231716	-0.150645	-0.169948
O8	O	-4.658499	-0.071207	-0.124501
O9	O	-4.288110	0.011524	-0.143871
O10	O	-4.592192	-0.226298	-0.146067
O11	O	-4.569930	-0.109140	-0.213366
O12	O	-4.310219	-0.104829	-0.077035
C13	C	-3.774481	-0.261412	-0.148233
C14	C	-3.816295	-0.355492	-0.147965
C15	C	-4.106622	-0.587329	-0.149842
C16	C	-4.060080	-0.652608	-0.188618
C17	C	-3.892760	-0.527736	-0.147467
C18	C	-4.013791	-0.630093	-0.108225
C19	C	-3.966635	-0.694116	-0.146984
C20	C	-3.845687	-0.591785	-0.186280
C21	C	-3.799401	-0.569256	-0.105850
C22	C	-3.752716	-0.634509	-0.144634
C23	C	-3.850208	-0.431889	-0.147746
C24	C	-4.009174	-0.789961	-0.146709
C25	C	-3.746279	-0.112991	-0.233489
C26	C	-3.770161	-0.112709	-0.287422
C27	C	-3.956441	-0.188621	-0.628919
C28	C	-4.046309	-0.187612	-0.831626
O29	O	-4.090280	-0.253443	-0.863829
N30	N	-4.019599	-0.109925	-0.849928
C31	C	-3.970431	-0.032486	-0.817550
O32	O	-3.949795	0.033614	-0.837768
C33	C	-3.880579	-0.033496	-0.614844
C34	C	-3.907272	-0.111188	-0.596545
C35	C	-3.983134	-0.266306	-0.610620
C36	C	-3.960657	-0.266557	-0.559946
C37	C	-3.911488	-0.189124	-0.527571
C38	C	-3.884795	-0.111439	-0.545871
C39	C	-3.831426	0.043942	-0.582466
C40	C	-3.808970	0.043682	-0.531787
C41	C	-3.835663	-0.034009	-0.513488
C42	C	-3.813149	-0.034256	-0.462822
N43	N	-3.839859	-0.111943	-0.444520
C44	C	-3.889028	-0.189377	-0.476895
C45	C	-4.017604	-0.031961	-0.923974
C46	C	-4.040063	-0.031708	-0.974650
C47	C	-4.115944	-0.186834	-0.988723
C48	C	-4.093469	-0.187086	-0.938046
C49	C	-4.044314	-0.109647	-0.905672
C50	C	-3.841821	-0.189899	-0.370475
C51	C	-3.819330	-0.190143	-0.319796
C52	C	-3.743463	-0.035017	-0.305727
C53	C	-3.765940	-0.034772	-0.356402
C54	C	-3.815129	-0.112220	-0.388775
O55	O	-3.769204	0.031539	-0.430592
O56	O	-3.909700	-0.255468	-0.456668
C57	C	-3.978918	-0.188370	-0.679593
C58	C	-3.952226	-0.110685	-0.697893
C59	C	-3.903056	-0.033251	-0.665518
C60	C	-3.974685	-0.110432	-0.748569
C61	C	-4.023855	-0.187866	-0.780943
C62	C	-4.050565	-0.265552	-0.762642
C63	C	-4.028088	-0.265803	-0.711968
C64	C	-3.876346	0.044435	-0.683820
C65	C	-3.898824	0.044680	-0.734494
C66	C	-3.947993	-0.032753	-0.766869
C67	C	-4.105673	0.039555	-0.146215
C68	C	-4.043097	0.133635	-0.146486
C69	C	-4.133876	-0.108863	-0.060958
C70	C	-4.089233	-0.109141	-0.007024
H71	H	-4.085312	-0.647222	-0.075238
O72	O	-3.755924	0.127213	-0.496872
H73	H	-3.608311	0.133978	-0.471601
O74	O	-4.206553	-0.700487	-0.234975
H75	H	-4.346661	-0.739948	-0.225277
O76	O	-3.653029	-0.521280	-0.059505
H77	H	-3.722819	-0.536330	-0.027172
H78	H	-3.841064	-0.253411	-0.304900
O79	O	-3.894826	-0.273427	-0.405389
H80	H	-3.909575	-0.327481	-0.384142
H81	H	-3.877068	0.107951	-0.749388
H82	H	-3.836314	0.107492	-0.657465
H83	H	-3.744215	0.028490	-0.371302
O84	O	-3.989459	-0.350353	-0.540211
H85	H	-4.027440	-0.404148	-0.571243
H86	H	-4.023178	-0.329366	-0.636975
H87	H	-4.255823	-0.566478	-0.152097
H88	H	-4.115206	-0.250349	-0.923151
H89	H	-4.155976	-0.249883	-1.015091
O90	O	-3.690426	0.048500	-0.270805
H91	H	-3.540982	0.088912	-0.275306
H92	H	-4.049827	-0.329068	-0.697074
O93	O	-4.103612	-0.349074	-0.797564
H94	H	-4.114769	-0.335837	-0.835875
O95	O	-4.011169	0.052089	-0.994384
H96	H	-3.973195	0.105887	-0.963353
H97	H	-3.603352	-0.655218	-0.142441
O98	O	-3.751201	-0.569266	-0.230033
H99	H	-3.720797	-0.499114	-0.229905
O100	O	-3.964551	0.051568	-0.889057
H101	H	-3.949731	0.105624	-0.910302
H102	H	-3.809670	0.107207	-0.597356
