data_functionalizedCrystal
_audit_creation_method	'MofGen! by Chris Wilmer'
_symmetry_space_group_name_H-M	'P1'
_symmetry_Int_Tables_number	1
_symmetry_cell_setting	triclinic
loop_
_symmetry_equiv_pos_as_xyz
  x,y,z
_cell_length_a	25.639243
_cell_length_b	25.639240
_cell_length_c	25.639233
_cell_angle_alpha	89.974071
_cell_angle_beta	89.984038
_cell_angle_gamma	90.035481
loop_
_atom_site_label
_atom_site_type_symbol
_atom_site_fract_x
_atom_site_fract_y
_atom_site_fract_z
Zn1	Zn	0.799247	-0.208176	-0.295630
Zn2	Zn	1.299247	0.291824	0.204370
Zn3	Zn	0.799179	-0.295595	-0.208183
Zn4	Zn	1.299179	0.204405	0.291817
Zn5	Zn	0.711823	-0.208180	-0.208203
Zn6	Zn	1.211823	0.291820	0.291797
Zn7	Zn	0.711777	-0.295587	-0.295582
Zn8	Zn	1.211777	0.204413	0.204418
O9	O	0.755506	-0.251885	-0.251900
O10	O	1.255506	0.248115	0.248100
O11	O	0.872403	-0.219775	-0.284041
O12	O	1.372403	0.280225	0.215959
O13	O	0.787582	-0.284004	-0.135020
O14	O	1.287582	0.215996	0.364980
O15	O	0.723467	-0.135014	-0.219829
O16	O	1.223467	0.364986	0.280171
O17	O	0.872353	-0.284001	-0.219794
O18	O	1.372353	0.215999	0.280206
O19	O	0.787697	-0.135012	-0.284061
O20	O	1.287697	0.364988	0.215939
O21	O	0.723402	-0.219781	-0.135035
O22	O	1.223402	0.280219	0.364965
O23	O	0.638652	-0.219772	-0.219783
O24	O	1.138652	0.280228	0.280217
O25	O	0.723389	-0.283987	-0.368754
O26	O	1.223389	0.216013	0.131246
O27	O	0.638618	-0.283990	-0.283980
O28	O	1.138618	0.216010	0.216020
O29	O	0.787653	-0.219767	-0.368789
O30	O	1.287653	0.280233	0.131211
O31	O	0.787538	-0.368759	-0.219749
O32	O	1.287538	0.131241	0.280251
O33	O	0.723324	-0.368753	-0.283960
O34	O	1.223324	0.131247	0.216040
C35	C	0.619664	-0.251881	-0.251879
C36	C	1.119664	0.248119	0.248121
C37	C	0.561550	-0.251892	-0.251882
C38	C	1.061550	0.248108	0.248118
C39	C	0.201207	-0.218495	-0.285409
C40	C	0.701207	0.281505	0.214591
C41	C	0.146603	-0.218494	-0.285412
C42	C	0.646603	0.281506	0.214588
O43	O	0.118383	-0.190088	-0.313891
O44	O	0.618383	0.309912	0.186109
N45	N	0.119267	-0.251883	-0.251914
N46	N	0.619267	0.248117	0.248086
C47	C	0.146539	-0.285271	-0.218407
C48	C	0.646539	0.214729	0.281593
O49	O	0.118274	-0.313670	-0.189914
O50	O	0.618274	0.186330	0.310086
C51	C	0.201142	-0.285268	-0.218401
C52	C	0.701142	0.214732	0.281599
C53	C	0.228475	-0.251881	-0.251905
C54	C	0.728475	0.248119	0.248095
C55	C	0.228540	-0.185109	-0.318909
C56	C	0.728540	0.314891	0.181091
C57	C	0.283140	-0.185111	-0.318907
C58	C	0.783140	0.314889	0.181093
C59	C	0.310408	-0.218497	-0.285403
C60	C	0.810408	0.281503	0.214597
C61	C	0.283076	-0.251882	-0.251903
C62	C	0.783076	0.248118	0.248097
C63	C	0.228413	-0.318653	-0.184892
C64	C	0.728413	0.181347	0.315108
C65	C	0.283020	-0.318647	-0.184889
C66	C	0.783020	0.181353	0.315111
C67	C	0.310353	-0.285260	-0.218393
C68	C	0.810353	0.214740	0.281607
C69	C	0.364944	-0.285270	-0.218396
C70	C	0.864944	0.214730	0.281604
N71	N	0.392279	-0.251881	-0.251894
N72	N	0.892279	0.248119	0.248106
C73	C	0.365011	-0.218494	-0.285398
C74	C	0.865011	0.281506	0.214602
C75	C	0.031869	-0.285273	-0.218420
C76	C	0.531869	0.214727	0.281580
C77	C	-0.022734	-0.285279	-0.218428
C78	C	0.477266	0.214721	0.281572
C79	C	-0.022667	-0.218501	-0.285432
C80	C	0.477333	0.281499	0.214568
C81	C	0.031937	-0.218498	-0.285427
C82	C	0.531937	0.281502	0.214573
C83	C	0.059204	-0.251884	-0.251918
C84	C	0.559204	0.248116	0.248082
C85	C	0.479676	-0.218500	-0.285390
C86	C	0.979676	0.281500	0.214610
C87	C	0.534282	-0.218506	-0.285386
C88	C	1.034282	0.281494	0.214614
C89	C	0.534210	-0.285281	-0.218380
C90	C	1.034210	0.214719	0.281620
C91	C	0.479609	-0.285278	-0.218385
C92	C	0.979609	0.214722	0.281615
C93	C	0.452344	-0.251883	-0.251892
C94	C	0.952344	0.248117	0.248108
O95	O	0.393198	-0.313659	-0.189930
O96	O	0.893198	0.186341	0.310070
O97	O	0.393283	-0.190095	-0.313881
O98	O	0.893283	0.309905	0.186119
C99	C	0.755433	-0.387727	-0.251859
C100	C	1.255433	0.112273	0.248141
C101	C	0.755449	-0.445841	-0.251859
C102	C	1.255449	0.054159	0.248141
C103	C	0.788967	-0.806164	-0.285405
C104	C	1.288967	-0.306164	0.214595
C105	C	0.788983	-0.860769	-0.285416
C106	C	1.288983	-0.360769	0.214584
O107	O	0.817394	-0.888972	-0.313897
O108	O	1.317394	-0.388972	0.186103
N109	N	0.755579	-0.888124	-0.251950
N110	N	1.255579	-0.388124	0.248050
C111	C	0.722154	-0.860871	-0.218475
C112	C	1.222154	-0.360871	0.281525
O113	O	0.693742	-0.889153	-0.190011
O114	O	1.193742	-0.389153	0.309989
C115	C	0.722136	-0.806268	-0.218467
C116	C	1.222136	-0.306268	0.281533
C117	C	0.755546	-0.778916	-0.251932
C118	C	1.255546	-0.278916	0.248068
C119	C	0.822374	-0.778812	-0.318867
C120	C	1.322374	-0.278812	0.181133
C121	C	0.822359	-0.724212	-0.318856
C122	C	1.322359	-0.224212	0.181144
C123	C	0.788938	-0.696963	-0.285383
C124	C	1.288938	-0.196963	0.214617
C125	C	0.755531	-0.724315	-0.251920
C126	C	1.255531	-0.224315	0.248080
C127	C	0.688708	-0.779017	-0.184996
C128	C	1.188708	-0.279017	0.315004
C129	C	0.688693	-0.724410	-0.184991
C130	C	1.188693	-0.224410	0.315009
C131	C	0.722103	-0.697058	-0.218455
C132	C	1.222103	-0.197058	0.281545
C133	C	0.722095	-0.642466	-0.218435
C134	C	1.222095	-0.142466	0.281565
N135	N	0.755499	-0.615112	-0.251901
N136	N	1.255499	-0.115112	0.248099
C137	C	0.788920	-0.642360	-0.285375
C138	C	1.288920	-0.142360	0.214625
C139	C	0.722193	-0.975542	-0.218494
C140	C	1.222193	-0.475542	0.281506
C141	C	0.722213	-1.030144	-0.218499
C142	C	1.222213	-0.530144	0.281501
C143	C	0.789041	-1.030038	-0.285441
C144	C	1.289041	-0.530038	0.214559
C145	C	0.789024	-0.975435	-0.285433
C146	C	1.289024	-0.475435	0.214567
C147	C	0.755597	-0.948187	-0.251960
C148	C	1.255597	-0.448187	0.248040
C149	C	0.788887	-0.527695	-0.285348
C150	C	1.288887	-0.027695	0.214652
C151	C	0.788870	-0.473090	-0.285332
C152	C	1.288870	0.026910	0.214668
C153	C	0.722040	-0.473201	-0.218392
C154	C	1.222040	0.026799	0.281608
C155	C	0.722058	-0.527801	-0.218406
C156	C	1.222058	-0.027801	0.281594
C157	C	0.755483	-0.555047	-0.251888
C158	C	1.255483	-0.055047	0.248112
O159	O	0.693697	-0.614229	-0.189971
O160	O	1.193697	-0.114229	0.310029
O161	O	0.817322	-0.614072	-0.313839
O162	O	1.317322	-0.114072	0.186161
C163	C	0.891879	-0.251888	-0.251921
C164	C	1.391879	0.248112	0.248079
C165	C	0.949993	-0.251890	-0.251930
C166	C	1.449993	0.248110	0.248070
C167	C	0.755523	-0.251875	-0.388273
C168	C	1.255523	0.248125	0.111727
C169	C	0.755530	-0.251871	-0.446387
C170	C	1.255530	0.248129	0.053613
C171	C	0.755595	-0.115511	-0.251952
C172	C	1.255595	0.384489	0.248048
C173	C	0.755633	-0.057397	-0.251975
C174	C	1.255633	0.442603	0.248025
C175	C	0.789035	-0.218333	-0.806774
C176	C	1.289035	0.281667	-0.306774
C177	C	0.789041	-0.218318	-0.861378
C178	C	1.289041	0.281682	-0.361378
O179	O	0.817486	-0.189864	-0.889635
O180	O	1.317486	0.310136	-0.389635
N181	N	0.755588	-0.251749	-0.888669
N182	N	1.255588	0.248251	-0.388669
C183	C	0.722122	-0.285192	-0.861354
C184	C	1.222122	0.214808	-0.361354
O185	O	0.693668	-0.313626	-0.889581
O186	O	1.193668	0.186374	-0.389581
C187	C	0.722114	-0.285204	-0.806750
C188	C	1.222114	0.214796	-0.306750
C189	C	0.755573	-0.251775	-0.779462
C190	C	1.255573	0.248225	-0.279462
C191	C	0.822491	-0.184906	-0.779485
C192	C	1.322491	0.315094	-0.279485
C193	C	0.822485	-0.184921	-0.724884
C194	C	1.322485	0.315079	-0.224884
C195	C	0.789023	-0.218363	-0.697572
C196	C	1.289023	0.281637	-0.197572
C197	C	0.755567	-0.251790	-0.724861
C198	C	1.255567	0.248210	-0.224861
C199	C	0.688646	-0.318644	-0.779436
C200	C	1.188646	0.181356	-0.279436
C201	C	0.688640	-0.318653	-0.724828
C202	C	1.188640	0.181347	-0.224828
C203	C	0.722099	-0.285223	-0.697540
C204	C	1.222099	0.214777	-0.197540
C205	C	0.722099	-0.285247	-0.642949
C206	C	1.222099	0.214753	-0.142949
N207	N	0.755552	-0.251817	-0.615657
N208	N	1.255552	0.248183	-0.115657
C209	C	0.789014	-0.218375	-0.642969
C210	C	1.289014	0.281625	-0.142969
C211	C	0.722143	-0.285165	-0.976024
C212	C	1.222143	0.214835	-0.476024
C213	C	0.722154	-0.285157	-1.030627
C214	C	1.222154	0.214843	-0.530627
C215	C	0.789072	-0.218282	-1.030647
C216	C	1.289072	0.281718	-0.530647
C217	C	0.789063	-0.218293	-0.976044
C218	C	1.289063	0.281707	-0.476044
C219	C	0.755596	-0.251735	-0.948733
C220	C	1.255596	0.248265	-0.448733
C221	C	0.789000	-0.218410	-0.528304
C222	C	1.289000	0.281590	-0.028304
C223	C	0.788992	-0.218429	-0.473699
C224	C	1.288992	0.281571	0.026301
C225	C	0.722072	-0.285302	-0.473683
C226	C	1.222072	0.214698	0.026317
C227	C	0.722081	-0.285285	-0.528283
C228	C	1.222081	0.214715	-0.028283
C229	C	0.755547	-0.251834	-0.555593
C230	C	1.255547	0.248166	-0.055593
O231	O	0.693668	-0.313686	-0.614657
O232	O	1.193668	0.186314	-0.114657
O233	O	0.817459	-0.189941	-0.614735
O234	O	1.317459	0.310059	-0.114735
C235	C	0.755520	-0.251856	-0.116057
C236	C	1.255520	0.248144	0.383943
C237	C	0.755614	-0.251713	-0.057943
C238	C	1.255614	0.248287	0.442057
H239	H	0.305389	-0.157922	-0.346188
H240	H	0.805389	0.342078	0.153812
C241	C	0.858650	-0.694614	-0.355250
C242	C	1.358650	-0.194614	0.144750
C243	C	0.887909	-0.730174	-0.384573
C244	C	1.387909	-0.230174	0.115427
C245	C	0.921341	-0.702931	-0.418112
C246	C	1.421341	-0.202931	0.081888
H247	H	0.881488	-0.673302	-0.335331
H248	H	1.381488	-0.173302	0.164669
H249	H	0.838640	-0.673330	-0.378038
H250	H	1.338640	-0.173330	0.121962
H251	H	0.907917	-0.751449	-0.361788
H252	H	1.407917	-0.251449	0.138212
H253	H	0.865085	-0.751486	-0.404503
H254	H	1.365085	-0.251486	0.095497
H255	H	0.901331	-0.681647	-0.440901
H256	H	1.401331	-0.181647	0.059099
H257	H	0.944175	-0.681621	-0.398189
H258	H	1.444175	-0.181621	0.101811
H259	H	0.941193	-0.727054	-0.438015
H260	H	1.441193	-0.227054	0.061985
H261	H	0.694830	-0.312531	-0.451436
H262	H	1.194830	0.187469	0.048564
H263	H	0.694830	-0.451006	-0.191137
H264	H	1.194830	0.048994	0.308863
H265	H	0.816241	-0.191207	-0.451483
H266	H	1.316241	0.308793	0.048517
H267	H	0.849730	-0.157699	-0.702671
H268	H	1.349730	0.342301	-0.202671
H269	H	0.556534	-0.191317	-0.312670
H270	H	1.056534	0.308683	0.187330
H271	H	0.457354	-0.312470	-0.191110
H272	H	0.957354	0.187530	0.308890
H273	H	0.816254	-1.052233	-0.312698
H274	H	1.316254	-0.552233	0.187302
C275	C	0.450174	-0.182227	-0.321829
C276	C	0.950174	0.317773	0.178171
C277	C	0.485806	-0.153004	-0.351174
C278	C	0.985806	0.346996	0.148826
C279	C	0.458648	-0.119593	-0.384754
C280	C	0.958648	0.380407	0.115246
H281	H	0.428878	-0.159366	-0.301939
H282	H	0.928878	0.340634	0.198061
H283	H	0.428881	-0.202250	-0.344602
H284	H	0.928881	0.297750	0.155398
H285	H	0.507090	-0.132983	-0.328404
H286	H	1.007090	0.367017	0.171596
H287	H	0.507104	-0.175852	-0.371075
H288	H	1.007104	0.324148	0.128925
H289	H	0.437356	-0.139617	-0.407527
H290	H	0.937356	0.360383	0.092473
H291	H	0.437353	-0.096735	-0.364860
H292	H	0.937353	0.403265	0.135140
H293	H	0.482821	-0.099765	-0.404672
H294	H	0.982821	0.400235	0.095328
C295	C	0.199035	-0.148840	-0.355347
C296	C	0.699035	0.351160	0.144653
C297	C	0.234669	-0.119616	-0.384689
C298	C	0.734669	0.380384	0.115311
C299	C	0.207513	-0.086205	-0.418271
C300	C	0.707513	0.413795	0.081729
H301	H	0.177736	-0.125979	-0.335458
H302	H	0.677736	0.374021	0.164542
H303	H	0.177744	-0.168864	-0.378122
H304	H	0.677744	0.331136	0.121878
H305	H	0.255950	-0.099594	-0.361917
H306	H	0.755950	0.400406	0.138083
H307	H	0.255969	-0.142463	-0.404588
H308	H	0.755969	0.357537	0.095412
H309	H	0.186223	-0.106229	-0.441046
H310	H	0.686223	0.393771	0.058954
H311	H	0.186215	-0.063348	-0.398378
H312	H	0.686215	0.436652	0.101622
H313	H	0.231686	-0.066376	-0.438187
H314	H	0.731686	0.433624	0.061813
C315	C	0.685854	-1.059808	-0.182226
C316	C	1.185854	-0.559808	0.317774
C317	C	0.634113	-1.046570	-0.193569
C318	C	1.134113	-0.546570	0.306431
C319	C	0.600602	-1.073889	-0.160171
C320	C	1.100602	-0.573889	0.339829
H321	H	0.693459	-1.050896	-0.147084
H322	H	1.193459	-0.550896	0.352916
H323	H	0.690610	-1.096237	-0.187027
H324	H	1.190610	-0.596237	0.312973
H325	H	0.629360	-1.010150	-0.188764
H326	H	1.129360	-0.510150	0.311236
H327	H	0.626492	-1.055484	-0.228705
H328	H	1.126492	-0.555484	0.271295
H329	H	0.605357	-1.110317	-0.164972
H330	H	1.105357	-0.610317	0.335028
H331	H	0.608211	-1.064974	-0.125032
H332	H	1.108211	-0.564974	0.374968
H333	H	0.565492	-1.064914	-0.167866
H334	H	1.065492	-0.564914	0.332134
H335	H	0.849590	-0.800992	-0.346129
H336	H	1.349590	-0.300992	0.153871
H337	H	0.816249	-0.191169	-0.550533
H338	H	1.316249	0.308831	-0.050533
H339	H	0.054187	-0.191310	-0.312708
H340	H	0.554187	0.308690	0.187292
C341	C	-0.052473	-0.321449	-0.182027
C342	C	0.447527	0.178551	0.317973
C343	C	-0.083824	-0.291799	-0.148581
C344	C	0.416176	0.208201	0.351419
C345	C	-0.111230	-0.325100	-0.115043
C346	C	0.388770	0.174900	0.384957
H347	H	-0.028469	-0.341344	-0.162026
H348	H	0.471531	0.158656	0.337974
H349	H	-0.073811	-0.344252	-0.201970
H350	H	0.426189	0.155748	0.298030
H351	H	-0.062487	-0.269005	-0.128640
H352	H	0.437513	0.230995	0.371360
H353	H	-0.107837	-0.271905	-0.168568
H354	H	0.392163	0.228095	0.331432
H355	H	-0.132568	-0.347904	-0.134986
H356	H	0.367432	0.152096	0.365014
H357	H	-0.087222	-0.344994	-0.095045
H358	H	0.412778	0.155006	0.404955
H359	H	-0.132508	-0.304989	-0.092349
H360	H	0.367492	0.195011	0.407651
C361	C	0.825312	-0.945835	-0.321828
C362	C	1.325312	-0.445835	0.178172
C363	C	0.854574	-0.981392	-0.351150
C364	C	1.354574	-0.481392	0.148850
C365	C	0.888003	-0.954147	-0.384691
C366	C	1.388003	-0.454147	0.115309
H367	H	0.848148	-0.924520	-0.301909
H368	H	1.348148	-0.424520	0.198091
H369	H	0.805300	-0.924553	-0.344617
H370	H	1.305300	-0.424553	0.155383
H371	H	0.874585	-1.002664	-0.328365
H372	H	1.374585	-0.502664	0.171635
H373	H	0.831752	-1.002708	-0.371080
H374	H	1.331752	-0.502708	0.128920
H375	H	0.867991	-0.932866	-0.407479
H376	H	1.367991	-0.432866	0.092521
H377	H	0.910835	-0.932833	-0.364768
H378	H	1.410835	-0.432833	0.135232
H379	H	0.907857	-0.978268	-0.404593
H380	H	1.407857	-0.478268	0.095407
H381	H	-0.044878	-0.191315	-0.312711
H382	H	0.455122	0.308685	0.187289
C383	C	0.061376	-0.321587	-0.182023
C384	C	0.561376	0.178413	0.317977
C385	C	0.025745	-0.350835	-0.152702
C386	C	0.525745	0.149165	0.347298
C387	C	0.052905	-0.384297	-0.119174
C388	C	0.552905	0.115703	0.380826
H389	H	0.082683	-0.301615	-0.159229
H390	H	0.582683	0.198385	0.340771
H391	H	0.082658	-0.344426	-0.201966
H392	H	0.582658	0.155574	0.298034
H393	H	0.004472	-0.327999	-0.132761
H394	H	0.504472	0.172001	0.367239
H395	H	0.004437	-0.370818	-0.175483
H396	H	0.504437	0.129182	0.324517
H397	H	0.074187	-0.407136	-0.139117
H398	H	0.574187	0.092864	0.360883
H399	H	0.074211	-0.364321	-0.096383
H400	H	0.574211	0.135679	0.403617
H401	H	0.028733	-0.404149	-0.099279
H402	H	0.528733	0.095851	0.400721
C403	C	0.198842	-0.354919	-0.148454
C404	C	0.698842	0.145081	0.351546
C405	C	0.234420	-0.384139	-0.119104
C406	C	0.734420	0.115861	0.380896
C407	C	0.207199	-0.417548	-0.085523
C408	C	0.707199	0.082452	0.414477
H409	H	0.177530	-0.377782	-0.168345
H410	H	0.677530	0.122218	0.331655
H411	H	0.177559	-0.334894	-0.125685
H412	H	0.677559	0.165106	0.374315
H413	H	0.255693	-0.404162	-0.141870
H414	H	0.755693	0.095838	0.358130
H415	H	0.255732	-0.361290	-0.099203
H416	H	0.755732	0.138710	0.400797
H417	H	0.185916	-0.397523	-0.062754
H418	H	0.685916	0.102477	0.437246
H419	H	0.185888	-0.440408	-0.105418
H420	H	0.685888	0.059592	0.394582
H421	H	0.231334	-0.437374	-0.065602
H422	H	0.731334	0.062626	0.434398
H423	H	0.661471	-0.702227	-0.157734
H424	H	1.161471	-0.202227	0.342266
H425	H	0.816101	-0.549872	-0.312616
H426	H	1.316101	-0.049872	0.187384
H427	H	0.305218	-0.345834	-0.157601
H428	H	0.805218	0.154166	0.342399
C429	C	0.858884	-0.148576	-0.809038
C430	C	1.358884	0.351424	-0.309038
C431	C	0.888186	-0.119319	-0.773442
C432	C	1.388186	0.380681	-0.273442
C433	C	0.921727	-0.085852	-0.800642
C434	C	1.421727	0.414148	-0.300642
H435	H	0.838967	-0.125739	-0.830345
H436	H	1.338967	0.374261	-0.330345
H437	H	0.881686	-0.168561	-0.830323
H438	H	1.381686	0.331439	-0.330323
H439	H	0.865387	-0.099335	-0.752166
H440	H	1.365387	0.400665	-0.252166
H441	H	0.908113	-0.142142	-0.752133
H442	H	1.408113	0.357858	-0.252133
H443	H	0.944529	-0.105837	-0.821927
H444	H	1.444529	0.394163	-0.321927
H445	H	0.901806	-0.063019	-0.821948
H446	H	1.401806	0.436981	-0.321948
H447	H	0.941615	-0.066001	-0.776495
H448	H	1.441615	0.433999	-0.276495
H449	H	0.694974	-0.953360	-0.191232
H450	H	1.194974	-0.453360	0.308768
H451	H	0.816308	-0.191071	-0.953829
H452	H	1.316308	0.308929	-0.453829
H453	H	0.661503	-0.801277	-0.157745
H454	H	1.161503	-0.301277	0.342255
H455	H	0.694857	-0.550072	-0.191153
H456	H	1.194857	-0.050072	0.308847
C457	C	0.825339	-0.181985	-1.060401
C458	C	1.325339	0.318015	-0.560401
C459	C	0.818169	-0.189120	-1.114060
C460	C	1.318169	0.310880	-0.614060
C461	C	0.851560	-0.155688	-1.141486
C462	C	1.351560	0.344312	-0.641486
H463	H	0.860487	-0.189599	-1.051525
H464	H	1.360487	0.310401	-0.551525
H465	H	0.817698	-0.146847	-1.051488
H466	H	1.317698	0.353153	-0.551488
H467	H	0.825813	-0.224250	-1.122969
H468	H	1.325813	0.275750	-0.622969
H469	H	0.783028	-0.181502	-1.122952
H470	H	1.283028	0.318498	-0.622952
H471	H	0.843919	-0.120551	-1.132574
H472	H	1.343919	0.379449	-0.632574
H473	H	0.886706	-0.163306	-1.132606
H474	H	1.386706	0.336694	-0.632606
H475	H	0.846696	-0.160522	-1.177897
H476	H	1.346696	0.339478	-0.677897
C477	C	0.685773	-0.321476	-1.060156
C478	C	1.185773	0.178524	-0.560156
C479	C	0.656461	-0.350755	-1.024544
C480	C	1.156461	0.149245	-0.524544
C481	C	0.622934	-0.384211	-1.051725
C482	C	1.122934	0.115789	-0.551725
H483	H	0.705701	-0.344300	-1.081458
H484	H	1.205701	0.155700	-0.581458
H485	H	0.662977	-0.301482	-1.081445
H486	H	1.162977	0.198518	-0.581445
H487	H	0.679254	-0.370747	-1.003264
H488	H	1.179254	0.129253	-0.503264
H489	H	0.636523	-0.327945	-1.003241
H490	H	1.136523	0.172055	-0.503241
H491	H	0.600138	-0.364217	-1.073014
H492	H	1.100138	0.135783	-0.573014
H493	H	0.642866	-0.407031	-1.073026
H494	H	1.142866	0.092969	-0.573026
H495	H	0.603039	-0.404077	-1.027566
H496	H	1.103039	0.095923	-0.527566
H497	H	0.661400	-0.345866	-0.801645
H498	H	1.161400	0.154134	-0.301645
H499	H	0.694889	-0.312400	-0.953791
H500	H	1.194889	0.187600	-0.453791
H501	H	0.661380	-0.345880	-0.702595
H502	H	1.161380	0.154120	-0.202595
C503	C	0.563916	-0.321469	-0.182024
C504	C	1.063916	0.178531	0.317976
C505	C	0.617584	-0.314308	-0.189185
C506	C	1.117584	0.185692	0.310815
C507	C	0.644967	-0.347627	-0.155695
C508	C	1.144967	0.152373	0.344305
H509	H	0.555016	-0.356633	-0.189569
H510	H	1.055016	0.143367	0.310431
H511	H	0.554991	-0.313756	-0.146899
H512	H	1.054991	0.186244	0.353101
H513	H	0.626505	-0.322024	-0.224302
H514	H	1.126505	0.177976	0.275698
H515	H	0.626500	-0.279150	-0.181635
H516	H	1.126500	0.220850	0.318365
H517	H	0.636042	-0.339914	-0.120570
H518	H	1.136042	0.160086	0.379430
H519	H	0.636062	-0.382789	-0.163243
H520	H	1.136062	0.117211	0.336757
H521	H	0.681383	-0.342769	-0.160545
H522	H	1.181383	0.157231	0.339455
H523	H	0.816079	-0.450821	-0.312583
H524	H	1.316079	0.049179	0.187417
C525	C	0.685702	-0.321602	-0.557820
C526	C	1.185702	0.178398	-0.057820
C527	C	0.656389	-0.350885	-0.522211
C528	C	1.156389	0.149115	-0.022211
C529	C	0.622862	-0.384338	-0.549397
C530	C	1.122862	0.115662	-0.049397
H531	H	0.705629	-0.344423	-0.579125
H532	H	1.205629	0.155577	-0.079125
H533	H	0.662906	-0.301606	-0.579107
H534	H	1.162906	0.198394	-0.079107
H535	H	0.679182	-0.370880	-0.500934
H536	H	1.179182	0.129120	-0.000934
H537	H	0.636451	-0.328078	-0.500906
H538	H	1.136451	0.171922	-0.000906
H539	H	0.600067	-0.364342	-0.570683
H540	H	1.100067	0.135658	-0.070683
H541	H	0.642794	-0.407156	-0.570701
H542	H	1.142794	0.092844	-0.070701
H543	H	0.602967	-0.404207	-0.525241
H544	H	1.102967	0.095793	-0.025241
