data_functionalizedCrystal
_audit_creation_method	'MofGen! by Chris Wilmer'
_symmetry_space_group_name_H-M	'P1'
_symmetry_Int_Tables_number	1
_symmetry_cell_setting	triclinic
loop_
_symmetry_equiv_pos_as_xyz
  x,y,z
_cell_length_a	12.759400
_cell_length_b	12.759401
_cell_length_c	18.101376
_cell_angle_alpha	90.057634
_cell_angle_beta	89.911859
_cell_angle_gamma	89.995030
loop_
_atom_site_label
_atom_site_type_symbol
_atom_site_fract_x
_atom_site_fract_y
_atom_site_fract_z
Zn1	Zn	-0.417506	-1.606729	-0.418751
Zn2	Zn	-0.593419	-1.606542	-0.294931
Zn3	Zn	-0.417759	-1.430915	-0.294927
Zn4	Zn	-0.593149	-1.431054	-0.418735
O5	O	-0.505458	-1.518810	-0.356836
O6	O	-0.440849	-1.753725	-0.402334
O7	O	-0.570336	-1.583109	-0.191297
O8	O	-0.270705	-1.454257	-0.311358
O9	O	-0.570091	-1.753588	-0.311364
O10	O	-0.270519	-1.583427	-0.402330
O11	O	-0.441280	-1.454076	-0.191294
O12	O	-0.441018	-1.283913	-0.311342
O13	O	-0.569630	-1.454494	-0.522370
O14	O	-0.569875	-1.284015	-0.402303
O15	O	-0.440587	-1.583562	-0.522382
O16	O	-0.740404	-1.583243	-0.311349
O17	O	-0.740205	-1.454313	-0.402307
C18	C	-0.505445	-1.245843	-0.356821
C19	C	-0.505465	-1.129066	-0.356832
C20	C	-0.231425	-1.518848	-0.356845
C21	C	-0.114648	-1.518864	-0.356849
C22	C	-0.778426	-1.518801	-0.356843
C23	C	-0.895202	-1.518894	-0.356870
C24	C	-0.505050	-1.519064	-0.549998
C25	C	-0.504876	-1.519173	-0.632313
C26	C	-0.059881	-1.451623	-0.309489
C27	C	0.049843	-1.451635	-0.309501
C28	C	0.050023	-1.586137	-0.404236
C29	C	-0.059699	-1.586119	-0.404227
C30	C	-0.505472	-1.792843	-0.356851
C31	C	-0.505478	-1.909620	-0.356857
C32	C	-0.572664	-1.074285	-0.404121
C33	C	-0.572668	-0.964561	-0.404136
C34	C	-0.438272	-0.964409	-0.309566
C35	C	-0.438263	-1.074131	-0.309556
C36	C	-0.505789	-1.518617	-0.164425
C37	C	-0.505667	-1.518713	-0.082111
C38	C	-0.505141	-1.519018	0.216979
C39	C	-0.585523	-1.601028	0.185695
C40	C	-0.585994	-1.600705	0.100078
C41	C	-0.505402	-1.518867	0.068597
C42	C	-0.536210	-1.408411	0.099873
C43	C	-0.536644	-1.408974	0.185518
C44	C	-0.393813	-1.546461	0.185169
C45	C	-0.394532	-1.548822	0.099517
C46	C	-0.505548	-1.518775	-0.015262
C47	C	-0.504998	-1.519102	0.300839
H48	H	-0.104618	-1.396856	-0.270912
H49	H	-0.479585	-1.345643	0.079485
H50	H	-0.371311	-1.630108	0.079059
H51	H	-0.333919	-1.486716	0.205395
H52	H	-0.668539	-1.582564	0.079767
H53	H	0.094431	-1.396880	-0.270936
H54	H	-0.616803	-1.384584	0.078603
C55	C	-0.696307	-1.576889	0.214997
C56	C	-0.785578	-1.552204	0.160567
C57	C	-0.896363	-1.528062	0.189869
C58	C	-0.917876	-1.528605	0.273601
C59	C	-0.828602	-1.553290	0.328037
C60	C	-0.717818	-1.577432	0.298735
H61	H	-0.769655	-1.551802	0.098579
H62	H	-0.962449	-1.509789	0.149571
H63	H	-0.999885	-1.510733	0.295292
H64	H	-0.844525	-1.553692	0.390025
H65	H	-0.651732	-1.595706	0.339032
C66	C	-0.309304	-1.473868	0.070558
C67	C	-0.216943	-1.517056	0.024903
C68	C	-0.131716	-1.442092	-0.004053
C69	C	-0.138850	-1.323938	0.012645
C70	C	-0.231215	-1.280743	0.058302
C71	C	-0.316442	-1.355708	0.087258
H72	H	-0.211659	-1.604526	0.012540
H73	H	-0.063342	-1.474068	-0.037851
H74	H	-0.075760	-1.268445	-0.008790
H75	H	-0.236499	-1.193273	0.070666
H76	H	-0.384816	-1.323731	0.121057
C77	C	-0.646590	-0.904301	-0.456153
C78	C	-0.720504	-0.964732	-0.508154
C79	C	-0.794428	-0.904473	-0.560175
C80	C	-0.794438	-0.783783	-0.560195
C81	C	-0.720521	-0.723345	-0.508192
C82	C	-0.646597	-0.783605	-0.456171
H83	H	-0.720500	-1.054080	-0.508141
H84	H	-0.849147	-0.949214	-0.598670
H85	H	-0.849161	-0.739176	-0.598704
H86	H	-0.720526	-0.633997	-0.508205
H87	H	-0.591879	-0.738864	-0.417676
C88	C	-0.356025	-1.653404	0.214143
C89	C	-0.425783	-1.717185	0.267069
C90	C	-0.388008	-1.824133	0.296044
C91	C	-0.280476	-1.867299	0.272094
C92	C	-0.210711	-1.803518	0.219165
C93	C	-0.248486	-1.696570	0.190190
H94	H	-0.505391	-1.685231	0.284801
H95	H	-0.439653	-1.871348	0.335226
H96	H	-0.252513	-1.946468	0.293543
H97	H	-0.131104	-1.835472	0.201433
H98	H	-0.196841	-1.649355	0.151009
H99	H	-0.383560	-0.919668	-0.271075
C100	C	-0.364343	-1.134402	-0.257534
C101	C	-0.409859	-1.209744	-0.199338
C102	C	-0.335940	-1.270017	-0.147321
C103	C	-0.216505	-1.254947	-0.153501
C104	C	-0.170982	-1.179601	-0.211699
C105	C	-0.244901	-1.119328	-0.263716
H106	H	-0.498277	-1.220903	-0.194762
H107	H	-0.369639	-1.325793	-0.104239
H108	H	-0.161786	-1.299564	-0.114995
H109	H	-0.082564	-1.168442	-0.216276
H110	H	-0.211202	-1.063552	-0.306798
C111	C	-0.559546	-1.712123	0.213337
C112	C	-0.640505	-1.773536	0.259276
C113	C	-0.614522	-1.884632	0.286925
C114	C	-0.507580	-1.934314	0.268636
C115	C	-0.426614	-1.872900	0.222695
C116	C	-0.452597	-1.761804	0.195045
H117	H	-0.719676	-1.736759	0.272817
H118	H	-0.674459	-1.930095	0.320934
H119	H	-0.488345	-2.016554	0.289103
H120	H	-0.347442	-1.909677	0.209153
H121	H	-0.392660	-1.716341	0.161037
H122	H	-0.566623	-1.682637	0.078926
H123	H	-0.618050	-1.385608	0.205676
H124	H	0.094774	-1.640897	-0.442809
H125	H	-0.104291	-1.640874	-0.442799
H126	H	-0.627381	-1.119010	-0.442619
C127	C	-0.461067	-1.323666	0.213496
C128	C	-0.344128	-1.328134	0.192556
C129	C	-0.268561	-1.242821	0.220533
C130	C	-0.309934	-1.153040	0.269448
C131	C	-0.426878	-1.148568	0.290390
C132	C	-0.502445	-1.233881	0.262414
H133	H	-0.313496	-1.394599	0.156344
H134	H	-0.181991	-1.246132	0.205030
H135	H	-0.253995	-1.089886	0.290158
H136	H	-0.457510	-1.082103	0.326603
H137	H	-0.589015	-1.230569	0.277917
