data_functionalizedCrystal
_audit_creation_method	'MofGen! by Chris Wilmer'
_symmetry_space_group_name_H-M	'P1'
_symmetry_Int_Tables_number	1
_symmetry_cell_setting	triclinic
loop_
_symmetry_equiv_pos_as_xyz
  x,y,z
_cell_length_a	23.196402
_cell_length_b	31.640172
_cell_length_c	23.196401
_cell_angle_alpha	90.003128
_cell_angle_beta	60.007332
_cell_angle_gamma	59.994159
loop_
_atom_site_label
_atom_site_type_symbol
_atom_site_fract_x
_atom_site_fract_y
_atom_site_fract_z
Zr1	Zr	0.630904	0.407217	-0.075692
O2	O	0.751179	0.339720	-0.167729
O3	O	0.510639	0.427902	-0.047481
O4	O	0.630902	0.427890	-0.167747
O5	O	0.630914	0.339748	0.047408
O6	O	0.630889	0.497447	-0.167758
O7	O	0.630916	0.339732	-0.047463
O8	O	0.415761	0.497469	0.047376
O9	O	0.846043	0.339727	-0.167726
O10	O	0.560093	0.488641	-0.035454
O11	O	0.560101	0.436744	0.035356
O12	O	0.701695	0.436730	-0.106242
O13	O	0.701703	0.384832	-0.035433
Zr14	Zr	0.630882	0.518179	0.075600
Zr15	Zr	0.630884	0.518152	-0.075709
Zr16	Zr	0.630902	0.407243	0.075617
Zr17	Zr	0.782201	0.407228	-0.075687
Zr18	Zr	0.479584	0.518168	0.075594
O19	O	0.751147	0.497494	0.047389
O20	O	0.751150	0.497456	-0.167753
O21	O	0.751175	0.339757	0.047413
O22	O	0.510607	0.585676	0.167637
O23	O	0.510610	0.585638	-0.047505
O24	O	0.510635	0.427940	0.167661
O25	O	0.630871	0.585647	-0.047500
O26	O	0.630884	0.497506	0.167655
O27	O	0.630896	0.427949	0.167665
O28	O	0.630870	0.585664	0.047371
O29	O	0.846027	0.427906	-0.167739
O30	O	0.415759	0.497490	0.167647
O31	O	0.415743	0.585669	0.167633
O32	O	0.415745	0.585648	0.047363
O33	O	0.846041	0.339748	-0.047455
O34	O	0.846025	0.427927	-0.047469
O35	O	0.560090	0.488666	0.106149
O36	O	0.560082	0.540564	0.035340
O37	O	0.701685	0.488652	-0.035448
O38	O	0.701693	0.436754	0.035361
C39	C	0.441643	0.462684	-0.000053
C40	C	0.377413	0.462679	-0.000056
C41	C	0.294977	0.501008	0.052199
C42	C	0.234617	0.501012	0.052206
C43	C	0.256697	0.462690	-0.000054
C44	C	0.339148	0.424354	-0.052313
C45	C	0.399506	0.424349	-0.052314
C46	C	0.201113	0.450747	-0.063844
C47	C	0.140754	0.450756	-0.063843
C48	C	0.070536	0.462704	-0.000051
C49	C	0.060674	0.474654	0.063745
C50	C	0.121032	0.474648	0.063744
C51	C	0.191255	0.462691	-0.000058
C52	C	-0.077354	0.501039	0.052215
C53	C	-0.137713	0.501039	0.052222
C54	C	-0.033179	0.424383	-0.052302
C55	C	0.027177	0.424381	-0.052303
C56	C	0.005085	0.462712	-0.000045
C57	C	0.630918	0.323934	-0.000025
C58	C	0.630926	0.276839	-0.000018
C59	C	0.630876	-0.059425	0.052232
C60	C	0.630899	0.117556	0.052243
O61	O	0.630869	0.140457	0.096710
N62	N	0.630903	0.139681	-0.000023
C63	C	0.630896	0.117560	-0.052292
O64	O	0.630891	0.140443	-0.096743
C65	C	0.630867	-0.059419	-0.052300
C66	C	0.630871	-0.081544	-0.000035
C67	C	0.630879	-0.081551	0.104493
C68	C	0.630878	-0.125795	0.104487
C69	C	0.630873	-0.147914	0.052221
C70	C	0.630870	-0.125789	-0.000040
C71	C	0.630854	-0.081537	-0.104566
C72	C	0.630844	-0.125784	-0.104562
C73	C	0.630849	-0.147909	-0.052297
C74	C	0.630863	-0.192152	-0.052312
N75	N	0.630859	-0.214277	-0.000047
C76	C	0.630864	-0.192158	0.052220
C77	C	0.630913	0.210476	-0.052286
C78	C	0.630922	0.254720	-0.052285
C79	C	0.630923	0.254714	0.052251
C80	C	0.630920	0.210467	0.052247
C81	C	0.630909	0.188351	-0.000020
C82	C	0.630862	-0.285075	0.052204
C83	C	0.630864	-0.329324	0.052192
C84	C	0.630858	-0.329313	-0.052341
C85	C	0.630860	-0.285068	-0.052332
C86	C	0.630860	-0.262950	-0.000053
O87	O	0.630884	-0.215076	-0.096751
O88	O	0.630851	-0.215042	0.096673
C89	C	0.630877	-0.015181	0.052237
C90	C	0.630874	0.006945	-0.000024
C91	C	0.630869	-0.015174	-0.052290
C92	C	0.630883	0.051189	-0.000023
C93	C	0.630887	0.073308	0.052244
C94	C	0.630883	0.051183	0.104509
C95	C	0.630882	0.006938	0.104504
C96	C	0.630873	0.006951	-0.104556
C97	C	0.630875	0.051195	-0.104547
C98	C	0.630880	0.073314	-0.052280
C99	C	0.820143	0.462712	-0.000039
C100	C	0.884372	0.462717	-0.000037
C101	C	0.630896	0.462665	-0.189311
C102	C	0.630897	0.462653	-0.253545
C103	C	0.630868	0.601462	-0.000067
C104	C	0.630859	0.648557	-0.000074
C105	C	0.704809	0.435559	-0.320669
C106	C	0.704811	0.435572	-0.381024
C107	C	0.630895	0.462673	-0.374252
C108	C	0.556972	0.489773	-0.307116
C109	C	0.556973	0.489764	-0.246762
C110	C	0.574269	0.458819	-0.441570
C111	C	0.574271	0.458825	-0.501924
C112	C	0.630888	0.462705	-0.560399
C113	C	0.687517	0.466569	-0.558521
C114	C	0.687518	0.466559	-0.498167
C115	C	0.630885	0.462686	-0.439690
C116	C	0.704807	0.435624	-0.692970
C117	C	0.704806	0.435640	-0.753325
C118	C	0.556965	0.489839	-0.679414
C119	C	0.556969	0.489825	-0.619061
C120	C	0.630893	0.462715	-0.625844
C121	C	0.630890	0.462731	0.189218
C122	C	0.630889	0.462742	0.253453
C123	C	0.441618	0.601448	-0.000074
C124	C	0.377380	0.648538	-0.000084
C125	C	0.441640	0.462717	0.189211
C126	C	0.377409	0.462724	0.253443
C127	C	0.441615	0.601481	0.189190
C128	C	0.377376	0.648582	0.253415
C129	C	0.820171	0.323915	-0.189283
C130	C	0.884410	0.276813	-0.253508
C131	C	0.820168	0.323948	-0.000018
C132	C	0.884406	0.276858	-0.000009
C133	C	0.820146	0.462679	-0.189304
C134	C	0.884376	0.462672	-0.253536
C135	C	0.347218	0.643549	-0.037048
C136	C	0.286868	0.687791	-0.037071
C137	C	0.256676	0.737022	-0.000125
C138	C	0.286844	0.742010	0.036840
C139	C	0.347197	0.697768	0.036859
C140	C	0.347241	0.489829	0.320567
C141	C	0.286897	0.489834	0.380926
C142	C	0.256720	0.462735	0.374159
C143	C	0.286895	0.435625	0.307028
C144	C	0.347241	0.435618	0.246671
C145	C	0.347204	0.697796	0.246614
C146	C	0.286853	0.742058	0.306955
C147	C	0.256671	0.737104	0.374096
C148	C	0.286848	0.687885	0.380895
C149	C	0.347202	0.643625	0.320555
C150	C	0.914589	0.227599	-0.246707
C151	C	0.974959	0.183338	-0.307047
C152	C	1.005144	0.188292	-0.374188
C153	C	0.974963	0.237511	-0.380988
C154	C	0.914598	0.281771	-0.320648
C155	C	0.914574	0.281846	0.036949
C156	C	0.974940	0.237604	0.036956
C157	C	1.005134	0.188374	0.000008
C158	C	0.974964	0.183386	-0.036955
C159	C	0.914602	0.227628	-0.036965
C160	C	0.914534	0.489776	-0.246746
C161	C	0.974878	0.489780	-0.307094
C162	C	1.005066	0.462677	-0.374229
C163	C	0.974902	0.435572	-0.381017
C164	C	0.914556	0.435571	-0.320671
H165	H	0.258291	0.441013	-0.115795
O166	O	-0.009353	0.383048	-0.108667
H167	H	0.027300	0.384922	-0.161364
H168	H	0.207526	0.773148	0.423222
H169	H	0.262336	0.511911	0.435581
O170	O	0.191582	0.784738	-0.000150
H171	H	0.136582	0.808114	0.054877
H172	H	0.262265	0.683859	0.435569
H173	H	0.371797	0.413547	0.192018
O174	O	0.379783	0.590455	-0.076911
H175	H	0.368200	0.568999	-0.039604
H176	H	0.890008	0.413497	-0.326209
O177	O	0.477240	0.519052	-0.546663
H178	H	0.473699	0.549001	-0.517393
H179	H	0.496781	0.511905	-0.673898
O180	O	0.254270	0.795109	0.076695
H181	H	0.207228	0.825030	0.070475
O182	O	0.271146	0.542348	0.108566
H183	H	0.326964	0.535909	0.099786
H184	H	0.167485	0.532225	0.094760
H185	H	0.765004	0.413485	-0.326198
H186	H	0.890027	0.321842	-0.326194
O187	O	1.007459	0.242993	0.076838
H188	H	1.074033	0.224141	0.039541
O189	O	0.379726	0.590543	0.327894
H190	H	0.348585	0.594540	0.384720
H191	H	0.630832	-0.143787	-0.147123
O192	O	0.882025	0.334942	0.076791
H193	H	0.913163	0.330970	0.102478
H194	H	0.999548	0.241538	-0.435661
H195	H	0.999431	0.511852	-0.301553
O196	O	0.881978	0.519019	-0.174342
H197	H	0.893571	0.491673	-0.145068
H198	H	0.371747	0.701837	0.066964
H199	H	0.207583	0.462744	0.423312
O200	O	1.070251	0.140552	-0.439268
H201	H	1.125245	0.140578	-0.471130
O202	O	-0.015053	0.487537	0.132558
H203	H	-0.055363	0.485527	0.121844
H204	H	0.094303	0.393172	-0.094858
O205	O	1.070165	0.462672	-0.439316
H206	H	1.086067	0.486068	-0.423309
O207	O	1.070216	0.140657	0.000044
H208	H	1.086103	0.152402	0.031966
H209	H	0.371770	0.701840	0.191950
H210	H	-0.095343	0.532248	0.094770
O211	O	1.007473	0.406333	-0.453430
H212	H	1.054510	0.410885	-0.494246
O213	O	0.748585	0.470756	-0.621587
H214	H	0.811264	0.437634	-0.641349
O215	O	0.630915	0.278582	0.108632
H216	H	0.686179	0.249831	0.106074
O217	O	1.007533	0.130286	-0.076805
H218	H	1.054568	0.100365	-0.070578
H219	H	0.262316	0.413562	0.301529
H220	H	0.528164	0.455676	-0.503449
H221	H	0.262288	0.782130	0.301406
O222	O	0.254330	0.682407	-0.076936
H223	H	0.285456	0.640740	-0.102610
O224	O	0.882037	0.222251	-0.174293
H225	H	0.932701	0.200778	-0.168147
O226	O	0.110408	0.487528	0.132545
H227	H	0.051446	0.495833	0.176907
H228	H	0.890042	0.223559	-0.067059
H229	H	-0.204840	0.532251	0.094779
O230	O	0.151390	0.437867	-0.132647
H231	H	0.210364	0.429547	-0.177007
O232	O	1.007486	0.130257	-0.299699
H233	H	1.034957	0.125770	-0.270371
O234	O	0.362971	0.383024	-0.108687
H235	H	0.307151	0.389471	-0.099914
H236	H	0.466633	0.393134	-0.094866
H237	H	0.630860	-0.267070	0.094775
O238	O	0.630853	-0.353184	0.108573
H239	H	0.630843	-0.330362	0.144923
H240	H	0.764997	0.413578	-0.807981
O241	O	0.630854	-0.149647	0.160873
H242	H	0.630842	-0.126821	0.197220
O243	O	0.630906	0.186624	-0.108666
H244	H	0.686168	0.146198	-0.138796
H245	H	0.630880	-0.063544	0.147058
O246	O	0.630907	0.186613	0.108628
H247	H	0.686172	0.174842	0.106067
O248	O	0.630927	0.278579	-0.108660
H249	H	0.630914	0.255764	-0.144998
H250	H	0.630849	-0.063528	-0.147124
H251	H	0.630857	-0.347330	-0.094898
O252	O	0.630858	-0.261201	-0.108702
H253	H	0.630851	-0.284016	-0.145045
H254	H	0.630885	-0.011073	0.147063
O255	O	0.513204	0.454630	-0.378501
H256	H	0.473838	0.451936	-0.389951
O257	O	0.379786	0.519057	0.327874
H258	H	0.348669	0.537899	0.384695
H259	H	0.630892	0.069198	0.147065
H260	H	0.630867	-0.011055	-0.147117
O261	O	0.630876	0.075056	-0.160924
H262	H	0.575601	0.086831	-0.158349
O263	O	0.784533	0.406342	-0.453435
H264	H	0.835936	0.387486	-0.448011
O265	O	0.477241	0.519009	-0.299796
H266	H	0.473696	0.491660	-0.325527
O267	O	0.748578	0.470738	-0.496129
H268	H	0.787945	0.473443	-0.546924
O269	O	0.784533	0.406392	-0.700275
H270	H	0.835932	0.387560	-0.757094
O271	O	0.477250	0.518983	-0.174357
H272	H	0.425849	0.537829	-0.179783
