data_functionalizedCrystal
_audit_creation_method	'MofGen! by Chris Wilmer'
_symmetry_space_group_name_H-M	'P1'
_symmetry_Int_Tables_number	1
_symmetry_cell_setting	triclinic
loop_
_symmetry_equiv_pos_as_xyz
  x,y,z
_cell_length_a	12.759401
_cell_length_b	12.759400
_cell_length_c	12.759393
_cell_angle_alpha	90.030490
_cell_angle_beta	90.020938
_cell_angle_gamma	90.016209
loop_
_atom_site_label
_atom_site_type_symbol
_atom_site_fract_x
_atom_site_fract_y
_atom_site_fract_z
Zn1	Zn	1.606266	-0.418173	0.594020
Zn2	Zn	2.106266	0.081827	1.094020
Zn3	Zn	1.606158	-0.593888	0.418340
Zn4	Zn	2.106158	-0.093888	0.918340
Zn5	Zn	1.430565	-0.418229	0.418355
Zn6	Zn	1.930565	0.081771	0.918355
Zn7	Zn	1.430557	-0.593815	0.593978
Zn8	Zn	1.930557	-0.093815	1.093978
O9	O	1.518387	-0.506026	0.506173
O10	O	2.018387	-0.006026	1.006173
O11	O	1.753273	-0.441489	0.570727
O12	O	2.253273	0.058511	1.070727
O13	O	1.582823	-0.570641	0.271321
O14	O	2.082823	-0.070641	0.771321
O15	O	1.453921	-0.271200	0.441682
O16	O	1.953921	0.228800	0.941682
O17	O	1.753193	-0.570587	0.441656
O18	O	2.253193	-0.070587	0.941656
O19	O	1.583008	-0.271159	0.570742
O20	O	2.083008	0.228841	1.070742
O21	O	1.453816	-0.441584	0.271332
O22	O	1.953816	0.058416	0.771332
O23	O	1.283543	-0.441513	0.441640
O24	O	1.783543	0.058487	0.941640
O25	O	1.453908	-0.570461	0.741004
O26	O	1.953908	-0.070461	1.241004
O27	O	1.283537	-0.570516	0.570669
O28	O	1.783537	-0.070516	1.070669
O29	O	1.583000	-0.441418	0.741036
O30	O	2.083000	0.058582	1.241036
O31	O	1.582815	-0.740900	0.441615
O32	O	2.082815	-0.240900	0.941615
O33	O	1.453802	-0.740846	0.570655
O34	O	1.953802	-0.240846	1.070655
C35	C	1.245419	-0.506013	0.506152
C36	C	1.745419	-0.006013	1.006152
C37	C	1.128643	-0.506033	0.506168
C38	C	1.628643	-0.006033	1.006168
C39	C	1.518324	-0.778994	0.506151
C40	C	2.018324	-0.278994	1.006151
C41	C	1.518394	-0.895770	0.506177
C42	C	2.018394	-0.395770	1.006177
C43	C	1.073805	-0.573307	0.573248
C44	C	1.573805	-0.073307	1.073248
C45	C	0.964081	-0.573311	0.573269
C46	C	1.464081	-0.073311	1.073269
C47	C	0.964042	-0.438764	0.439122
C48	C	1.464042	0.061236	0.939122
C49	C	1.073764	-0.438756	0.439107
C50	C	1.573764	0.061244	0.939107
C51	C	1.585645	-0.950625	0.439060
C52	C	2.085645	-0.450625	0.939060
C53	C	1.585710	-1.060349	0.439093
C54	C	2.085710	-0.560349	0.939093
C55	C	1.451262	-1.060353	0.573362
C56	C	1.951262	-0.560353	1.073362
C57	C	1.451204	-0.950631	0.573334
C58	C	1.951204	-0.450631	1.073334
C59	C	1.663264	-0.950624	0.361538
C60	C	2.163264	-0.450624	0.861538
C61	C	1.663329	-1.060348	0.361570
C62	C	2.163329	-0.560348	0.861570
C63	C	1.792420	-0.506040	0.506195
C64	C	2.292420	-0.006040	1.006195
C65	C	1.909197	-0.506046	0.506204
C66	C	2.409197	-0.006046	1.006204
C67	C	1.518465	-0.505925	0.780207
C68	C	2.018465	-0.005925	1.280207
C69	C	1.518499	-0.505882	0.896984
C70	C	2.018499	-0.005882	1.396984
C71	C	1.518478	-0.231993	0.506218
C72	C	2.018478	0.268007	1.006218
C73	C	1.518517	-0.115216	0.506238
C74	C	2.018517	0.384784	1.006238
C75	C	1.518369	-0.506051	0.233206
C76	C	2.018369	-0.006051	0.733206
C77	C	1.518539	-0.505798	0.116430
C78	C	2.018539	-0.005798	0.616430
C79	C	1.585722	-0.438679	0.951864
C80	C	2.085722	0.061321	1.451864
C81	C	1.585740	-0.438633	1.061588
C82	C	2.085740	0.061367	1.561588
C83	C	1.451308	-0.573004	1.061542
C84	C	1.951308	-0.073004	1.561542
C85	C	1.451285	-0.573044	0.951820
C86	C	1.951285	-0.073044	1.451820
H87	H	0.919437	-0.628090	0.627893
H88	H	1.419437	-0.128090	1.127893
O89	O	1.378743	-0.645511	0.892632
O90	O	1.878743	-0.145511	1.392632
H91	H	1.396716	-0.727971	0.913662
H92	H	1.896716	-0.227971	1.413662
O93	O	1.378780	-1.119523	0.645779
O94	O	1.878780	-0.619523	1.145779
H95	H	1.390110	-1.205036	0.634518
H96	H	1.890110	-0.705036	1.134518
O97	O	1.658209	-0.366242	0.892712
O98	O	2.158209	0.133758	1.392712
H99	H	1.640217	-0.283775	0.913773
H100	H	2.140217	0.216225	1.413773
H101	H	1.396587	-0.627687	1.106203
H102	H	1.896587	-0.127687	1.606203
O103	O	1.658241	-0.366151	1.120791
O104	O	2.158241	0.133849	1.620791
H105	H	1.740690	-0.384191	1.099757
H106	H	2.240690	0.115809	1.599757
O107	O	1.624702	-0.905649	0.259106
O108	O	2.124702	-0.405649	0.759106
H109	H	1.543297	-0.932635	0.244446
H110	H	2.043297	-0.432635	0.744446
O111	O	0.904844	-0.366211	0.366791
O112	O	1.404844	0.133789	0.866791
H113	H	0.961413	-0.319421	0.320151
H114	H	1.461413	0.180579	0.820151
H115	H	1.744608	-0.920765	0.383391
H116	H	2.244608	-0.420765	0.883391
O117	O	1.133001	-0.645853	0.645587
O118	O	1.633001	-0.145853	1.145587
H119	H	1.076431	-0.692625	0.692243
H120	H	1.576431	-0.192625	1.192243
O121	O	1.765719	-1.105326	0.400268
O122	O	2.265719	-0.605326	0.900268
H123	H	1.819955	-1.040439	0.420753
H124	H	2.319955	-0.540439	0.920753
O125	O	1.132923	-0.366209	0.366738
O126	O	1.632923	0.133791	0.866738
H127	H	1.076330	-0.319445	0.320091
H128	H	1.576330	0.180555	0.820091
H129	H	1.396452	-0.905969	0.627995
H130	H	1.896452	-0.405969	1.127995
H131	H	1.641590	-1.090209	0.280189
H132	H	2.141590	-0.590209	0.780189
