data_functionalizedCrystal
_audit_creation_method	'MofGen! by Chris Wilmer'
_symmetry_space_group_name_H-M	'P1'
_symmetry_Int_Tables_number	1
_symmetry_cell_setting	triclinic
loop_
_symmetry_equiv_pos_as_xyz
  x,y,z
_cell_length_a	13.032831
_cell_length_b	12.759399
_cell_length_c	12.759393
_cell_angle_alpha	90.030906
_cell_angle_beta	82.805415
_cell_angle_gamma	97.179985
loop_
_atom_site_label
_atom_site_type_symbol
_atom_site_fract_x
_atom_site_fract_y
_atom_site_fract_z
Zn1	Zn	1.597759	0.622507	-0.797711
Zn2	Zn	1.597649	0.798209	-0.622016
Zn3	Zn	1.422988	0.600212	-0.599765
Zn4	Zn	1.422979	0.775797	-0.775385
O5	O	1.510344	0.699181	-0.698719
O6	O	1.743987	0.664525	-0.793060
O7	O	1.574438	0.771993	-0.472037
O8	O	1.446221	0.456155	-0.626054
O9	O	1.743907	0.793612	-0.663977
O10	O	1.574625	0.472535	-0.771484
O11	O	1.446115	0.626526	-0.455690
O12	O	1.276744	0.604794	-0.604406
O13	O	1.446206	0.755414	-0.925373
O14	O	1.276737	0.733795	-0.733433
O15	O	1.574616	0.642793	-0.941776
O16	O	1.574429	0.942251	-0.642329
O17	O	1.446099	0.925785	-0.755008
C18	C	1.238822	0.664444	-0.664082
C19	C	1.122663	0.649609	-0.649290
C20	C	1.510280	0.972141	-0.698687
C21	C	1.510348	1.088926	-0.698720
C22	C	1.510422	0.699091	-0.972762
C23	C	1.510455	0.699052	-1.089543
C24	C	1.070900	0.706924	-0.706439
C25	C	0.950845	0.691593	-0.691152
C26	C	1.782926	0.734055	-0.733491
C27	C	1.899084	0.748916	-0.748309
C28	C	1.510437	0.425160	-0.698778
C29	C	1.510476	0.308388	-0.698803
C30	C	1.577245	1.152336	-0.640134
C31	C	1.577313	1.262069	-0.640178
C32	C	1.443575	1.244970	-0.757396
C33	C	1.443514	1.135240	-0.757357
C34	C	1.577324	0.640400	-1.152949
C35	C	1.577341	0.640357	-1.262675
C36	C	1.443619	0.757627	-1.245581
C37	C	1.443597	0.757663	-1.135856
C38	C	1.510326	0.699204	-0.425749
C39	C	1.510495	0.698972	-0.308995
H40	H	1.115465	0.767341	-0.766688
H41	H	1.631790	0.592594	-1.314295
H42	H	1.631789	1.313694	-0.592473
O43	O	0.897734	0.619365	-0.619389
C44	C	0.864157	0.436344	-0.564400
C45	C	0.924355	0.518021	-0.645756
H46	H	0.885674	0.354392	-0.585675
H47	H	0.776792	0.436736	-0.564884
H48	H	0.885495	0.457457	-0.482356
H49	H	0.903104	0.496964	-0.727839
H50	H	1.011705	0.517614	-0.645179
O51	O	1.378587	0.814588	-1.290397
C52	C	1.246002	0.930966	-1.261866
C53	C	1.319579	0.866478	-1.210976
H54	H	1.198291	0.972953	-1.197680
H55	H	1.191315	0.875769	-1.306238
H56	H	1.293994	0.991978	-1.319377
H57	H	1.271671	0.805462	-1.153419
H58	H	1.374269	0.921741	-1.166671
O59	O	1.069549	0.577385	-0.577532
C60	C	1.035972	0.394364	-0.522542
C61	C	1.096169	0.476041	-0.603898
H62	H	1.057489	0.312413	-0.543818
H63	H	0.948607	0.394756	-0.523026
H64	H	1.057310	0.415478	-0.440498
H65	H	1.074919	0.454985	-0.685981
H66	H	1.183520	0.475634	-0.603321
H67	H	1.389138	0.805423	-1.084228
H68	H	1.631667	1.114631	-0.592390
O69	O	0.952395	0.820988	-0.820114
C70	C	1.120661	0.901900	-0.900901
C71	C	1.060418	0.820265	-0.819529
H72	H	1.208008	0.901326	-0.900471
H73	H	1.099324	0.983914	-0.879609
H74	H	1.099239	0.880842	-0.982927
H75	H	1.081808	0.841224	-0.737474
H76	H	1.081760	0.738274	-0.840911
O77	O	1.378796	1.290096	-0.814415
C78	C	1.364733	1.412030	-0.954528
C79	C	1.438217	1.361026	-0.890022
H80	H	1.412746	1.469370	-1.015686
H81	H	1.310158	1.456574	-0.899356
H82	H	1.316885	1.347835	-0.996345
H83	H	1.486132	1.425154	-0.848197
H84	H	1.492723	1.316457	-0.945245
O85	O	1.378427	1.073785	-0.814292
C86	C	1.245831	1.068401	-0.930614
C87	C	1.319462	1.138119	-0.866163
H88	H	1.198155	1.120388	-0.972586
H89	H	1.191114	1.010147	-0.875392
H90	H	1.293778	1.023051	-0.991642
H91	H	1.271600	1.183536	-0.805131
H92	H	1.374183	1.196307	-0.921450
O93	O	1.642293	0.583365	-1.108125
C94	C	1.774966	0.467088	-1.136671
C95	C	1.701426	0.531619	-1.187564
H96	H	1.822809	0.425252	-1.200876
H97	H	1.727045	0.405969	-1.079224
H98	H	1.829540	0.522340	-1.092232
H99	H	1.646836	0.476450	-1.232059
H100	H	1.749412	0.592748	-1.244954
