data_functionalizedCrystal
_audit_creation_method	'MofGen! by Chris Wilmer'
_symmetry_space_group_name_H-M	'P1'
_symmetry_Int_Tables_number	1
_symmetry_cell_setting	triclinic
loop_
_symmetry_equiv_pos_as_xyz
  x,y,z
_cell_length_a	8.597366
_cell_length_b	19.188924
_cell_length_c	7.088929
_cell_angle_alpha	83.795552
_cell_angle_beta	103.954530
_cell_angle_gamma	84.244959
loop_
_atom_site_label
_atom_site_type_symbol
_atom_site_fract_x
_atom_site_fract_y
_atom_site_fract_z
O1	O	2.100685	0.095883	0.187044
O2	O	1.635923	0.107282	0.110480
O3	O	1.881724	-0.000065	0.150995
O4	O	1.854884	0.203230	0.146529
O5	O	1.914573	-0.014443	0.474385
O6	O	1.668772	0.092904	0.433869
O7	O	2.133534	0.081505	0.510434
Cu8	Cu	1.904153	0.085891	0.501680
Cu9	Cu	1.865305	0.102895	0.119234
O10	O	1.887733	0.188852	0.469918
C11	C	1.592888	0.099670	0.262379
C12	C	1.415716	0.098402	0.233193
C13	C	1.897282	-0.033266	0.312549
C14	C	1.894679	-0.110773	0.312125
C15	C	1.875558	-0.139335	0.135645
C16	C	1.873088	-0.212159	0.135224
C17	C	1.889772	-0.256420	0.311298
C18	C	1.908887	-0.227849	0.487800
C19	C	1.911340	-0.155026	0.488214
N20	N	1.990074	-0.381854	0.456824
N21	N	1.987746	-0.451033	0.456419
C22	C	1.882377	-0.475834	0.310061
N23	N	1.779442	-0.428842	0.164097
N24	N	1.781778	-0.359657	0.164497
C25	C	1.887112	-0.335386	0.310869
C26	C	1.860574	-0.583359	0.133111
C27	C	1.858095	-0.656184	0.132696
C28	C	1.893910	-0.671874	0.485280
C29	C	1.896373	-0.599050	0.485688
C30	C	1.879712	-0.554797	0.309599
C31	C	2.176569	0.089117	0.358530
C32	C	2.353740	0.090386	0.387703
C33	C	1.872175	0.222053	0.308360
C34	C	1.874776	0.299560	0.308771
N35	N	1.931488	0.073931	0.770673
N36	N	1.837982	0.114850	-0.149758
H37	H	1.861987	-0.103308	-0.007741
H38	H	1.436231	0.084493	0.542336
C39	C	1.837869	-0.189338	-0.213260
C40	C	1.852007	-0.243561	-0.058787
H41	H	1.824844	-0.208725	-0.333032
H42	H	1.746546	-0.155873	-0.221055
H43	H	1.932645	-0.166652	-0.190464
H44	H	1.757225	-0.266244	-0.081575
H45	H	1.943338	-0.277039	-0.050994
C46	C	1.838417	-0.760847	-0.024495
C47	C	1.837069	-0.687582	-0.061308
H48	H	1.825426	-0.780229	-0.144270
H49	H	1.938412	-0.781386	0.063192
H50	H	1.752306	-0.770611	0.032530
H51	H	1.923188	-0.677818	-0.118320
H52	H	1.737061	-0.667037	-0.149028
H53	H	1.741075	0.157253	0.752623
H54	H	1.922466	-0.263891	0.631160
H55	H	2.028413	0.031530	0.868305
H56	H	1.846999	-0.547325	-0.010272
C57	C	1.144528	0.103515	0.034951
C58	C	1.304377	0.106355	0.024449
H59	H	1.075787	0.108430	-0.093924
H60	H	1.137150	0.059402	0.104986
H61	H	1.112232	0.140796	0.100888
H62	H	1.336677	0.069070	-0.041476
H63	H	1.311762	0.150474	-0.045616
H64	H	1.926904	-0.131772	0.631929
H65	H	1.907482	-0.707911	0.628641
H66	H	1.911957	-0.575796	0.629399
