data_functionalizedCrystal
_audit_creation_method	'MofGen! by Chris Wilmer'
_symmetry_space_group_name_H-M	'P1'
_symmetry_Int_Tables_number	1
_symmetry_cell_setting	triclinic
loop_
_symmetry_equiv_pos_as_xyz
  x,y,z
_cell_length_a	16.974848
_cell_length_b	16.956984
_cell_length_c	26.210047
_cell_angle_alpha	89.996330
_cell_angle_beta	86.335011
_cell_angle_gamma	100.265217
loop_
_atom_site_label
_atom_site_type_symbol
_atom_site_fract_x
_atom_site_fract_y
_atom_site_fract_z
O1	O	-1.042510	0.101671	0.085482
O2	O	-0.811457	0.114607	0.075941
O3	O	-0.940865	-0.007955	0.081281
O4	O	-0.913102	0.224232	0.080142
O5	O	-0.940840	-0.007936	-0.003578
O6	O	-0.811433	0.114626	-0.008918
O7	O	-1.042485	0.101690	0.000623
Cu8	Cu	-0.926957	0.108160	-0.011896
Cu9	Cu	-0.926986	0.108137	0.088460
O10	O	-0.913077	0.224251	-0.004717
C11	C	-0.782019	0.114123	0.032297
C12	C	-0.694339	0.112642	0.028676
C13	C	-0.200786	0.104336	0.003330
C14	C	-0.283170	0.105727	0.006733
C15	C	-0.324378	0.106406	0.054692
C16	C	-0.283194	0.105703	0.099251
C17	C	-0.200810	0.104317	0.095847
C18	C	-0.570771	0.110553	0.069831
C19	C	-0.653161	0.111936	0.073231
C20	C	-0.653132	0.111962	-0.019287
C21	C	-0.570747	0.110572	-0.022686
C22	C	-0.529570	0.109873	0.021873
N23	N	-0.408588	0.107826	0.058172
N24	N	-0.445359	0.108459	0.018393
C25	C	-0.942274	-0.037655	0.038911
C26	C	-0.946501	-0.126180	0.039086
C27	C	-0.875832	-0.158190	0.036170
C28	C	-0.879808	-0.241369	0.036333
C29	C	-0.954454	-0.292537	0.039415
C30	C	-1.025127	-0.260523	0.042329
C31	C	-1.021150	-0.177345	0.042163
C32	C	-0.974138	-0.542331	0.040231
C33	C	-0.978110	-0.625514	0.040399
C34	C	-0.832790	-0.606354	0.034401
C35	C	-0.828820	-0.523176	0.034238
C36	C	-0.899494	-0.491168	0.037150
N37	N	-0.958520	-0.377560	0.039583
N38	N	-0.895427	-0.406147	0.036978
C39	C	-0.071925	0.102168	0.044267
C40	C	-0.159608	0.103630	0.047886
C41	C	-0.911668	0.253951	0.037655
C42	C	-0.907442	0.342477	0.037483
N43	N	-0.926942	0.108175	-0.082480
C44	C	-0.984281	0.053879	-0.432628
C45	C	-0.984299	0.053868	-0.646286
O46	O	-1.033021	0.007707	-0.671897
N47	N	-0.926991	0.108120	-0.675372
C48	C	-0.869671	0.162374	-0.651041
O49	O	-0.820922	0.208513	-0.680683
C50	C	-0.869650	0.162381	-0.437384
C51	C	-0.926967	0.108131	-0.408300
C52	C	-1.041593	-0.000367	-0.403545
C53	C	-1.041590	-0.000361	-0.350133
C54	C	-0.984276	0.053891	-0.325806
C55	C	-0.926965	0.108137	-0.354889
C56	C	-0.812327	0.216631	-0.413054
C57	C	-0.812326	0.216627	-0.359636
C58	C	-0.869643	0.162377	-0.330552
C59	C	-0.869648	0.162396	-0.277150
N60	N	-0.926956	0.108144	-0.248064
C61	C	-0.984270	0.053892	-0.272392
C62	C	-0.869687	0.162368	-0.763214
C63	C	-0.869693	0.162367	-0.816627
C64	C	-0.984321	0.053860	-0.811869
C65	C	-0.984317	0.053865	-0.758454
C66	C	-0.926995	0.108116	-0.734127
C67	C	-0.984261	0.053910	-0.160224
C68	C	-0.984256	0.053923	-0.106808
C69	C	-0.869626	0.162427	-0.111571
C70	C	-0.869634	0.162417	-0.164982
C71	C	-0.926955	0.108152	-0.189307
O72	O	-0.820947	0.208527	-0.251505
O73	O	-1.033001	0.007748	-0.242741
C74	C	-0.984284	0.053873	-0.486040
C75	C	-0.926972	0.108119	-0.515123
C76	C	-0.869658	0.162371	-0.490795
C77	C	-0.926978	0.108118	-0.568537
C78	C	-0.984292	0.053866	-0.592865
C79	C	-1.041600	-0.000386	-0.563779
C80	C	-1.041598	-0.000379	-0.510367
C81	C	-0.812350	0.216622	-0.519881
C82	C	-0.812357	0.216612	-0.573293
C83	C	-0.869671	0.162360	-0.597620
N84	N	-0.927007	0.108115	0.159045
H85	H	-0.167284	0.103744	0.132129
H86	H	-0.537205	0.110002	-0.061739
N87	N	-0.158709	0.103652	-0.045664
N88	N	-0.156949	0.160003	-0.076704
H89	H	-0.127235	0.159522	-0.111308
H90	H	-0.537255	0.109981	0.106114
H91	H	-0.775252	-0.632424	0.032030
N92	N	-0.807620	-0.274063	0.033349
N93	N	-0.758511	-0.258353	-0.004447
H94	H	-0.707524	-0.281442	-0.006555
N95	N	-0.752565	-0.470922	0.031087
N96	N	-0.689472	-0.499513	0.028481
H97	H	-0.635615	-0.462610	0.026256
N98	N	-1.054357	-0.677793	0.043551
N99	N	-1.072797	-0.726344	0.080085
H100	H	-1.126644	-0.763266	0.082312
N101	N	-0.811145	0.217807	-0.738370
N102	N	-0.832991	0.267304	-0.707666
H103	H	-0.791648	0.306463	-0.690122
N104	N	-0.811083	0.217852	-0.086723
N105	N	-0.807337	0.291563	-0.092844
H106	H	-0.765987	0.330705	-0.075294
H107	H	-1.078696	-0.151284	0.044536
H108	H	-1.031686	-0.516281	0.042603
N109	N	-0.325243	0.106424	-0.038777
N110	N	-0.382168	0.051010	-0.046741
H111	H	-0.411886	0.051499	-0.078883
H112	H	-0.316751	0.106260	0.138300
N113	N	-0.799576	-0.105937	0.033029
N114	N	-0.736486	-0.134532	0.030427
H115	H	-0.682627	-0.097631	0.028208
N116	N	-1.042805	-0.001508	-0.077108
N117	N	-1.093965	-0.049950	-0.098841
H118	H	-1.135311	-0.089102	-0.077868
H119	H	-1.088265	-0.044549	-0.423347
H120	H	-0.686667	0.112534	-0.055564
N121	N	-1.101370	-0.312798	0.045472
N122	N	-1.104912	-0.387063	0.045621
H123	H	-1.158760	-0.423983	0.047842
H124	H	-1.088270	-0.044557	-0.583595
H125	H	-1.030937	0.009721	-0.180023
H126	H	-0.686709	0.112496	0.112287
N127	N	-0.753762	0.272048	-0.334796
N128	N	-0.702595	0.320475	-0.360774
H129	H	-0.661235	0.359618	-0.343233
N130	N	-1.100197	-0.055725	-0.320435
N131	N	-1.151397	-0.104118	-0.342170
H132	H	-1.192811	-0.143201	-0.321198
H133	H	-1.030989	0.009690	-0.734777
N134	N	-1.042850	-0.001565	-0.836733
N135	N	-1.042829	-0.001561	-0.884425
H136	H	-1.084155	-0.040711	-0.901988
N137	N	-0.811150	0.217799	-0.846324
N138	N	-0.759984	0.266232	-0.824590
H139	H	-0.718633	0.305381	-0.845561
N140	N	-0.753777	0.272058	-0.442745
N141	N	-0.702613	0.320487	-0.421007
H142	H	-0.661259	0.359636	-0.441976
N143	N	-0.753804	0.272020	-0.603005
N144	N	-0.753801	0.272010	-0.650696
H145	H	-0.712445	0.311135	-0.671681
N146	N	-0.811085	0.217839	-0.194686
N147	N	-0.759915	0.266273	-0.172955
H148	H	-0.718557	0.305410	-0.193930
N149	N	-1.100152	-0.055800	-0.480671
N150	N	-1.151315	-0.104232	-0.502408
H151	H	-1.192672	-0.143378	-0.481438
H152	H	-0.765676	0.260800	-0.500078
