data_functionalizedCrystal
_audit_creation_method	'MofGen! by Chris Wilmer'
_symmetry_space_group_name_H-M	'P1'
_symmetry_Int_Tables_number	1
_symmetry_cell_setting	triclinic
loop_
_symmetry_equiv_pos_as_xyz
  x,y,z
_cell_length_a	6.817900
_cell_length_b	9.514072
_cell_length_c	11.102193
_cell_angle_alpha	88.635780
_cell_angle_beta	108.604059
_cell_angle_gamma	118.843421
loop_
_atom_site_label
_atom_site_type_symbol
_atom_site_fract_x
_atom_site_fract_y
_atom_site_fract_z
V1	V	-4.170264	-0.222216	-0.397253
O2	O	-4.067727	0.010666	-0.388667
O3	O	-4.204780	-0.440605	-0.395522
O4	O	-4.146136	-0.218803	-0.570059
O5	O	-4.126777	-0.212671	-0.212920
V6	V	-4.640003	-0.194360	-0.375086
O7	O	-4.461759	-0.283320	-0.445879
O8	O	-4.798706	-0.133255	-0.326460
O9	O	-4.382281	0.024030	-0.376817
O10	O	-4.859937	-0.427242	-0.383672
O11	O	-4.800888	-0.203904	-0.559419
O12	O	-4.440925	-0.197773	-0.202280
C13	C	-4.069166	-0.493844	-0.389509
C14	C	-4.178835	-0.672380	-0.389245
C15	C	-3.994359	-0.210911	-0.612148
C16	C	-4.056463	-0.209565	-0.753424
C17	C	-4.254562	-0.503723	-0.791069
C18	C	-4.382777	-0.650162	-0.876262
C19	C	-4.441127	-0.648889	-1.009002
C20	C	-4.371258	-0.501160	-1.056551
C21	C	-4.243042	-0.354721	-0.971359
C22	C	-4.184696	-0.356009	-0.838617
C23	C	-4.044961	-0.060568	-0.933715
C24	C	-3.986594	-0.061837	-0.800973
C25	C	-3.975091	0.087161	-0.981264
C26	C	-3.846859	0.233605	-0.896071
C27	C	-3.788508	0.232326	-0.763323
C28	C	-3.858379	0.084603	-0.715781
C29	C	-4.181240	0.077260	-0.382826
C30	C	-4.050811	0.255794	-0.383099
C31	C	-4.256046	-0.205670	-0.160185
C32	C	-4.173176	-0.207007	-0.018907
H33	H	-4.207029	-0.504773	-0.682986
O34	O	-4.566037	-0.791109	-1.091829
C35	C	-4.782533	-0.806769	-1.175942
H36	H	-4.832358	-0.729029	-1.129575
H37	H	-4.930163	-0.939399	-1.196181
H38	H	-4.760145	-0.764547	-1.270083
H39	H	-4.022626	0.088187	-1.089350
O40	O	-4.409622	-0.761857	-0.395124
C41	C	-4.434953	-0.704195	-0.288390
H42	H	-4.253735	-0.638008	-0.207352
H43	H	-4.565966	-0.811012	-0.254007
H44	H	-4.505641	-0.616941	-0.317501
H45	H	-3.857268	-0.669101	-0.377975
H46	H	-4.439663	-0.770441	-0.837532
O47	O	-3.779410	0.376977	-0.942426
C48	C	-3.984106	0.378897	-1.024229
H49	H	-4.137802	0.248843	-1.062503
H50	H	-3.943470	0.443747	-1.108226
H51	H	-4.036567	0.445651	-0.968109
H52	H	-3.684116	0.351575	-0.693966
H53	H	-4.418804	-0.500138	-1.164638
O54	O	-3.801838	0.083559	-0.586822
C55	C	-3.904939	0.156136	-0.538347
H56	H	-3.939691	0.240209	-0.605916
H57	H	-3.777450	0.229303	-0.438898
H58	H	-4.081038	0.057589	-0.531028
