data_functionalizedCrystal
_audit_creation_method	'MofGen! by Chris Wilmer'
_symmetry_space_group_name_H-M	'P1'
_symmetry_Int_Tables_number	1
_symmetry_cell_setting	triclinic
loop_
_symmetry_equiv_pos_as_xyz
  x,y,z
_cell_length_a	11.169417
_cell_length_b	12.759399
_cell_length_c	12.759393
_cell_angle_alpha	90.028437
_cell_angle_beta	89.981660
_cell_angle_gamma	89.983517
loop_
_atom_site_label
_atom_site_type_symbol
_atom_site_fract_x
_atom_site_fract_y
_atom_site_fract_z
Zn1	Zn	1.834901	0.418180	-0.594000
Zn2	Zn	1.834777	0.593899	-0.418330
Zn3	Zn	1.634192	0.418237	-0.418340
Zn4	Zn	1.634176	0.593820	-0.593971
O5	O	1.734511	0.506034	-0.506160
O6	O	2.002834	0.441498	-0.570704
O7	O	1.808124	0.570654	-0.271310
O8	O	1.660875	0.271208	-0.441657
O9	O	2.002743	0.570598	-0.441640
O10	O	1.808335	0.271166	-0.570714
O11	O	1.660755	0.441596	-0.271317
O12	O	1.466240	0.441519	-0.441630
O13	O	1.660847	0.570464	-0.740996
O14	O	1.466228	0.570519	-0.570666
O15	O	1.808319	0.441422	-0.741017
O16	O	1.808108	0.740909	-0.441613
O17	O	1.660727	0.740851	-0.570656
C18	C	1.422687	0.506018	-0.506147
C19	C	1.289287	0.506036	-0.506166
C20	C	1.734435	0.779001	-0.506153
C21	C	1.734512	0.895778	-0.506185
C22	C	1.811338	0.950635	-0.439070
C23	C	1.811409	1.060359	-0.439108
C24	C	1.657820	1.060359	-0.573381
C25	C	1.657755	0.950637	-0.573347
C26	C	1.900008	0.950636	-0.361545
C27	C	1.900079	1.060360	-0.361584
C28	C	2.047554	0.506051	-0.506174
C29	C	2.180954	0.506058	-0.506180
C30	C	1.734595	0.505928	-0.780194
C31	C	1.734631	0.505883	-0.896970
C32	C	1.734616	1.232000	-0.506204
C33	C	1.734649	1.115224	-0.506258
C34	C	1.811430	0.438684	-0.951845
C35	C	1.811459	0.438646	-1.061569
C36	C	1.657886	0.573014	-1.061534
C37	C	1.657852	0.573046	-0.951812
C38	C	1.900098	0.361111	-0.951866
C39	C	1.900127	0.361073	-1.061590
C40	C	1.734497	0.506064	-0.233193
C41	C	1.734693	0.505813	-0.116417
H42	H	1.595209	0.905973	-0.628007
H43	H	1.992931	0.920777	-0.383395
H44	H	1.595311	0.627762	-0.907137
C45	C	1.866501	0.251205	-0.911649
H46	H	1.866493	0.251230	-0.837191
H47	H	1.789066	0.233013	-0.936458
H48	H	1.923240	0.201568	-0.936474
H49	H	1.988369	0.390278	-0.917831
C50	C	1.573438	0.646894	-1.121859
H51	H	1.527689	0.686915	-1.073460
H52	H	1.619338	0.692660	-1.164659
H53	H	1.521169	0.606679	-1.164661
C54	C	1.855063	0.904763	-0.257090
H55	H	1.856540	0.830399	-0.260631
H56	H	1.905437	0.927759	-0.201696
H57	H	1.775461	0.927819	-0.244513
H58	H	1.866870	0.283764	-1.095634
C59	C	1.866521	1.100710	-0.251658
H60	H	1.852660	1.042847	-0.206426
H61	H	1.930175	1.142046	-0.224676
H62	H	1.796003	1.142118	-0.256058
C63	C	2.025684	0.390534	-1.101827
H64	H	2.077298	0.402686	-1.043918
H65	H	2.056617	0.334844	-1.143202
H66	H	2.020590	0.452273	-1.143174
H67	H	1.988387	1.094304	-0.390797
C68	C	1.573389	1.120707	-0.647247
H69	H	1.584425	1.193911	-0.637652
H70	H	1.590898	1.102653	-0.717844
H71	H	1.492743	1.102797	-0.631798
