data_functionalizedCrystal
_audit_creation_method	'MofGen! by Chris Wilmer'
_symmetry_space_group_name_H-M	'P1'
_symmetry_Int_Tables_number	1
_symmetry_cell_setting	triclinic
loop_
_symmetry_equiv_pos_as_xyz
  x,y,z
_cell_length_a	19.288864
_cell_length_b	11.295501
_cell_length_c	19.288865
_cell_angle_alpha	94.616591
_cell_angle_beta	83.136245
_cell_angle_gamma	94.625353
loop_
_atom_site_label
_atom_site_type_symbol
_atom_site_fract_x
_atom_site_fract_y
_atom_site_fract_z
O1	O	0.925526	0.099423	0.090825
O2	O	0.723262	0.099344	0.102510
O3	O	0.830237	0.099362	-0.004464
O4	O	0.818550	0.099405	0.197798
O5	O	0.821906	-0.098694	-0.012788
O6	O	0.714931	-0.098712	0.094186
O7	O	0.917195	-0.098633	0.082501
Cu8	Cu	0.815302	-0.116757	0.087583
Cu9	Cu	0.825154	0.117468	0.097427
O10	O	0.810220	-0.098651	0.189475
C11	C	0.693219	0.000305	0.097971
C12	C	0.616115	0.000274	0.096841
C13	C	0.571420	0.000306	0.159610
C14	C	0.498973	0.000319	0.158550
C15	C	0.471226	0.000324	0.094718
C16	C	0.515930	0.000285	0.031941
C17	C	0.588375	0.000260	0.033002
C18	C	0.365884	0.069741	0.047457
C19	C	0.293440	0.069773	0.046398
C20	C	0.247783	0.000395	0.091442
C21	C	0.274577	-0.069000	0.137556
C22	C	0.347021	-0.069025	0.138618
C23	C	0.392673	0.000350	0.093560
C24	C	0.124533	0.000439	0.153066
C25	C	0.052085	0.000445	0.152003
C26	C	0.069044	0.000423	0.025392
C27	C	0.141490	0.000405	0.026456
C28	C	0.169230	0.000419	0.090295
N29	N	0.808378	-0.281497	0.080659
C30	C	0.881921	-0.530741	0.154222
C31	C	0.876694	-0.655408	0.148984
C32	C	0.792700	-0.655500	0.064941
C33	C	0.797928	-0.530833	0.070179
C34	C	0.842539	-0.468458	0.114822
C35	C	0.847762	-0.343789	0.120064
C36	C	0.763772	-0.343884	0.036018
C37	C	0.758545	-0.468551	0.030779
C38	C	0.947237	0.000409	0.087039
C39	C	1.024343	0.000448	0.088170
C40	C	0.825696	0.000331	-0.034502
C41	C	0.824566	0.000320	-0.111607
N42	N	0.832084	0.282208	0.104346
C43	C	0.887335	0.000339	-0.156302
C44	C	0.886275	0.000357	-0.228748
C45	C	0.822442	0.000333	-0.256497
C46	C	0.759665	0.000320	-0.211791
C47	C	0.760727	0.000314	-0.139346
C48	C	0.769343	-0.069062	-0.367701
C49	C	0.768283	-0.069063	-0.440145
C50	C	0.819163	0.000358	-0.479941
C51	C	0.871114	0.069764	-0.447286
C52	C	0.872176	0.069758	-0.374841
C53	C	0.821283	0.000340	-0.335051
C54	C	0.880787	0.000399	-0.603192
C55	C	0.879725	0.000424	-0.675639
C56	C	0.753113	0.000376	-0.658681
C57	C	0.754177	0.000362	-0.586235
C58	C	0.818016	0.000368	-0.558495
C59	C	0.814761	0.000383	0.219513
C60	C	0.815891	0.000402	0.296618
H61	H	0.594000	0.000319	0.211593
Br62	Br	0.427841	0.163902	-0.013682
H63	H	0.237404	-0.125495	0.174235
Br64	Br	0.698005	-0.553213	-0.029805
H65	H	0.462575	0.000341	0.209666
Br66	Br	0.710315	-0.259351	-0.017451
Br67	Br	0.383384	-0.163202	0.201196
Br68	Br	0.942461	-0.446082	0.214808
Br69	Br	0.732165	-0.740173	0.004356
Br70	Br	0.973974	0.000379	-0.118657
H71	H	0.727909	-0.125599	-0.335304
H72	H	0.147119	0.000433	0.205047
Br73	Br	0.930147	-0.739932	0.202454
Br74	Br	0.697784	-0.163263	-0.484457
H75	H	0.930841	0.000446	-0.712030
Br76	Br	0.971467	0.000388	-0.289418
H77	H	0.914475	0.126273	-0.348256
Br78	Br	0.908304	-0.259136	0.180650
Br79	Br	0.673034	0.000303	-0.249447
H80	H	0.932769	0.000409	-0.580605
H81	H	0.709612	0.000298	-0.102954
Br82	Br	0.940171	0.163984	-0.501286
Br83	Br	0.666480	0.000355	-0.696331
Br84	Br	0.668986	0.000335	-0.525572
Br85	Br	0.478275	0.000279	-0.054690
H86	H	0.046456	0.000501	-0.026579
Br87	Br	0.202152	0.000365	-0.058736
Br88	Br	-0.008576	0.000478	0.237197
H89	H	0.271631	0.126283	0.008852
H90	H	0.624766	0.000235	-0.018114
