data_functionalizedCrystal
_audit_creation_method	'MofGen! by Chris Wilmer'
_symmetry_space_group_name_H-M	'P1'
_symmetry_Int_Tables_number	1
_symmetry_cell_setting	triclinic
loop_
_symmetry_equiv_pos_as_xyz
  x,y,z
_cell_length_a	6.817900
_cell_length_b	17.078509
_cell_length_c	17.110486
_cell_angle_alpha	96.905903
_cell_angle_beta	99.060439
_cell_angle_gamma	99.306544
loop_
_atom_site_label
_atom_site_type_symbol
_atom_site_fract_x
_atom_site_fract_y
_atom_site_fract_z
V1	V	-3.956142	-0.109531	-0.246640
O2	O	-3.966417	0.005507	-0.242028
O3	O	-3.887544	-0.217415	-0.244874
O4	O	-3.886340	-0.107739	-0.354245
O5	O	-3.967630	-0.104929	-0.131900
V6	V	-4.445161	-0.095784	-0.232926
O7	O	-4.205346	-0.139687	-0.276724
O8	O	-4.646154	-0.065628	-0.202843
O9	O	-4.290552	0.012101	-0.234692
O10	O	-4.552283	-0.210821	-0.237539
O11	O	-4.551070	-0.100386	-0.347666
O12	O	-4.291757	-0.097575	-0.125322
C13	C	-3.728324	-0.243718	-0.240963
C14	C	-3.753381	-0.331915	-0.240237
C15	C	-3.874979	-0.827932	-0.235730
C16	C	-3.851452	-0.745063	-0.236416
C17	C	-4.020240	-0.707668	-0.240699
C18	C	-4.212571	-0.753147	-0.244305
C19	C	-4.236098	-0.836016	-0.243624
C20	C	-3.969239	-0.460262	-0.243162
C21	C	-3.945696	-0.377388	-0.243839
C22	C	-3.584578	-0.369309	-0.235952
C23	C	-3.608120	-0.452179	-0.235268
C24	C	-3.800450	-0.497652	-0.238877
N25	N	-3.996195	-0.622962	-0.241398
N26	N	-3.824494	-0.582356	-0.238184
C27	C	-3.726787	-0.103815	-0.380475
C28	C	-3.750865	-0.103064	-0.468442
C29	C	-3.942723	-0.106671	-0.513797
C30	C	-3.965335	-0.105965	-0.596451
C31	C	-3.796089	-0.101658	-0.633749
C32	C	-3.604215	-0.098048	-0.588387
C33	C	-3.581603	-0.098749	-0.505734
C34	C	-3.855328	-0.099340	-0.883105
C35	C	-3.877956	-0.098642	-0.965765
C36	C	-4.239074	-0.106557	-0.973823
C37	C	-4.216447	-0.107262	-0.891168
C38	C	-4.024575	-0.103649	-0.845813
C39	C	-3.819199	-0.100939	-0.718234
C40	C	-4.001466	-0.104362	-0.761328
C41	C	-4.113114	0.038400	-0.238601
C42	C	-4.067294	0.126595	-0.239333
C43	C	-4.114652	-0.101502	-0.099087
C44	C	-4.069813	-0.102249	-0.011120
H45	H	-4.125841	-0.497276	-0.246099
H46	H	-3.681403	-0.097435	-0.748612
H47	H	-3.427990	-0.332277	-0.233015
H48	H	-4.083152	-0.346942	-0.247319
F49	F	-4.169538	-0.109812	-0.644719
F50	F	-4.392210	-0.713347	-0.248868
F51	F	-4.396586	-0.111849	-0.851480
H52	H	-3.694851	-0.708042	-0.233481
H53	H	-4.392699	-0.873039	-0.246559
H54	H	-4.395290	-0.109498	-1.010759
H55	H	-3.425368	-0.095792	-0.468803
F56	F	-3.428464	-0.491969	-0.230693
H57	H	-4.080547	-0.110184	-0.483436
H58	H	-3.740124	-0.095132	-0.996129
F59	F	-3.651129	-0.095511	-0.834848
F60	F	-3.424090	-0.093464	-0.628084
H61	H	-3.737530	-0.858373	-0.232245
F62	F	-4.181582	-0.108944	-0.721631
