data_functionalizedCrystal
_audit_creation_method	'MofGen! by Chris Wilmer'
_symmetry_space_group_name_H-M	'P1'
_symmetry_Int_Tables_number	1
_symmetry_cell_setting	triclinic
loop_
_symmetry_equiv_pos_as_xyz
  x,y,z
_cell_length_a	19.121241
_cell_length_b	25.639240
_cell_length_c	19.120904
_cell_angle_alpha	87.584599
_cell_angle_beta	90.124528
_cell_angle_gamma	92.466443
loop_
_atom_site_label
_atom_site_type_symbol
_atom_site_fract_x
_atom_site_fract_y
_atom_site_fract_z
Zn1	Zn	1.054837	-0.188777	0.442205
Zn2	Zn	1.388170	0.144557	0.775538
Zn3	Zn	1.721504	0.477890	1.108871
Zn4	Zn	1.059743	-0.272333	0.324973
Zn5	Zn	1.393076	0.061001	0.658306
Zn6	Zn	1.726410	0.394334	0.991639
Zn7	Zn	0.942604	-0.188466	0.319974
Zn8	Zn	1.275937	0.144867	0.653308
Zn9	Zn	1.609270	0.478200	0.986641
Zn10	Zn	0.937550	-0.279740	0.437160
Zn11	Zn	1.270884	0.053594	0.770493
Zn12	Zn	1.604217	0.386927	1.103826
O13	O	0.998684	-0.232329	0.381078
O14	O	1.332017	0.101004	0.714411
O15	O	1.665350	0.434338	1.047745
O16	O	1.153596	-0.196891	0.430857
O17	O	1.486929	0.136443	0.764190
O18	O	1.820263	0.469776	1.097524
O19	O	1.048372	-0.257978	0.226205
O20	O	1.381705	0.075356	0.559538
O21	O	1.715039	0.408689	0.892872
O22	O	0.957553	-0.115341	0.336208
O23	O	1.290887	0.217992	0.669541
O24	O	1.624220	0.551326	1.002875
O25	O	1.157200	-0.258279	0.344727
O26	O	1.490533	0.075055	0.678060
O27	O	1.823867	0.408388	1.011394
O28	O	1.040011	-0.115569	0.426010
O29	O	1.373344	0.217764	0.759344
O30	O	1.706677	0.551098	1.092677
O31	O	0.962310	-0.196362	0.222533
O32	O	1.295644	0.136972	0.555866
O33	O	1.628977	0.470305	0.889200
O34	O	0.843825	-0.203544	0.331316
O35	O	1.177159	0.129789	0.664650
O36	O	1.510492	0.463123	0.997983
O37	O	0.948941	-0.270903	0.535934
O38	O	1.282274	0.062430	0.869267
O39	O	1.615608	0.395764	1.202600
O40	O	0.840113	-0.270602	0.417412
O41	O	1.173446	0.062731	0.750745
O42	O	1.506779	0.396065	1.084078
O43	O	1.035111	-0.204073	0.539640
O44	O	1.368444	0.129260	0.872973
O45	O	1.701778	0.462594	1.206307
O46	O	1.043472	-0.346482	0.339835
O47	O	1.376805	-0.013148	0.673168
O48	O	1.710139	0.320185	1.006502
O49	O	0.953698	-0.351924	0.422258
O50	O	1.287031	-0.018590	0.755592
O51	O	1.620365	0.314743	1.088925
C52	C	0.816531	-0.237844	0.373275
C53	C	1.149864	0.095490	0.706608
C54	C	1.483197	0.428823	1.039941
C55	C	0.738604	-0.240216	0.369953
C56	C	1.071938	0.093117	0.703286
C57	C	1.405271	0.426451	1.036620
C58	C	0.700115	-0.209424	0.413304
C59	C	1.033449	0.123909	0.746637
C60	C	1.366782	0.457242	1.079971
C61	C	0.626895	-0.211651	0.410177
C62	C	0.960229	0.121683	0.743510
C63	C	1.293562	0.455016	1.076844
C64	C	0.592165	-0.244672	0.363702
C65	C	0.925499	0.088661	0.697035
C66	C	1.258832	0.421995	1.030368
C67	C	0.630660	-0.275465	0.320346
C68	C	0.963993	0.057869	0.653679
C69	C	1.297326	0.391202	0.987012
C70	C	0.703878	-0.273235	0.323470
C71	C	1.037212	0.060098	0.656803
C72	C	1.370545	0.393432	0.990137
C73	C	0.371186	-0.252997	0.352019
C74	C	0.704520	0.080336	0.685352
C75	C	1.037853	0.413669	1.018685
C76	C	0.297962	-0.255226	0.348899
C77	C	0.631296	0.078108	0.682233
C78	C	0.964629	0.411441	1.015566
C79	C	0.294203	-0.191411	0.438730
C80	C	0.627536	0.141923	0.772063
C81	C	0.960870	0.475256	1.105397
C82	C	0.367423	-0.189186	0.441853
C83	C	0.700757	0.144147	0.775186
C84	C	1.034090	0.477480	1.108520
C85	C	0.405911	-0.219977	0.398495
C86	C	0.739244	0.113356	0.731828
C87	C	1.072578	0.446690	1.065161
C88	C	0.517323	-0.246950	0.360506
C89	C	0.850656	0.086384	0.693839
C90	C	1.183990	0.419717	1.027172
C91	C	0.480752	-0.217696	0.401688
C92	C	0.814086	0.115637	0.735021
C93	C	1.147419	0.448970	1.068354
C94	C	0.998587	-0.368174	0.381058
C95	C	1.331921	-0.034841	0.714391
C96	C	1.665254	0.298493	1.047724
C97	C	0.998609	-0.426288	0.381075
C98	C	1.331943	-0.092954	0.714408
C99	C	1.665276	0.240379	1.047742
C100	C	1.041613	-0.677548	0.427884
C101	C	1.374946	-0.344215	0.761217
C102	C	1.708280	-0.010881	1.094550
C103	C	1.041592	-0.622944	0.427877
C104	C	1.374926	-0.289611	0.761211
C105	C	1.708259	0.043723	1.094544
O106	O	1.078076	-0.594766	0.467649
O107	O	1.411409	-0.261433	0.800982
O108	O	1.744743	0.071901	1.134315
N109	N	0.998686	-0.595560	0.381087
N110	N	1.332019	-0.262226	0.714421
N111	N	1.665352	0.071107	1.047754
C112	C	0.955802	-0.622781	0.334295
C113	C	1.289136	-0.289448	0.667629
C114	C	1.622469	0.043885	1.000962
O115	O	0.919306	-0.594475	0.294496
O116	O	1.252639	-0.261141	0.627829
O117	O	1.585972	0.072192	0.961162
C118	C	0.955827	-0.677384	0.334299
C119	C	1.289161	-0.344051	0.667632
C120	C	1.622494	-0.010717	1.000965
C121	C	0.998732	-0.704766	0.381097
C122	C	1.332065	-0.371433	0.714430
C123	C	1.665398	-0.038099	1.047763
C124	C	1.084514	-0.704930	0.474677
C125	C	1.417848	-0.371597	0.808011
C126	C	1.751181	-0.038263	1.141344
C127	C	1.084534	-0.759530	0.474684
C128	C	1.417867	-0.426197	0.808017
C129	C	1.751201	-0.092864	1.141351
C130	C	1.041653	-0.786748	0.427897
C131	C	1.374986	-0.453415	0.761231
C132	C	1.708319	-0.120082	1.094564
C133	C	0.998751	-0.759366	0.381104
C134	C	1.332085	-0.426033	0.714437
C135	C	1.665418	-0.092700	1.047770
C136	C	0.912948	-0.704605	0.287504
C137	C	1.246282	-0.371271	0.620837
C138	C	1.579615	-0.037938	0.954171
C139	C	0.912977	-0.759211	0.287511
C140	C	1.246311	-0.425877	0.620844
C141	C	1.579644	-0.092544	0.954178
C142	C	0.955882	-0.786593	0.334309
C143	C	1.289215	-0.453260	0.667643
C144	C	1.622548	-0.119926	1.000976
C145	C	0.955889	-0.841184	0.334324
C146	C	1.289223	-0.507851	0.667657
C147	C	1.622556	-0.174518	1.000990
N148	N	0.998796	-0.868569	0.381114
N149	N	1.332129	-0.535236	0.714447
N150	N	1.665463	-0.201902	1.047781
C151	C	1.041678	-0.841351	0.427901
C152	C	1.375011	-0.508018	0.761234
C153	C	1.708344	-0.174684	1.094567
C154	C	0.955754	-0.508112	0.334291
C155	C	1.289087	-0.174779	0.667624
C156	C	1.622421	0.158555	1.000958
C157	C	0.955725	-0.453511	0.334291
C158	C	1.289058	-0.120177	0.667624
C159	C	1.622391	0.213156	1.000957
C160	C	1.041516	-0.453677	0.427872
C161	C	1.374849	-0.120344	0.761205
C162	C	1.708182	0.212989	1.094538
C163	C	1.041541	-0.508280	0.427875
C164	C	1.374874	-0.174947	0.761209
C165	C	1.708208	0.158387	1.094542
C166	C	0.998661	-0.535497	0.381081
C167	C	1.331994	-0.202163	0.714415
C168	C	1.665327	0.131170	1.047748
C169	C	1.041715	-0.956015	0.427912
C170	C	1.375049	-0.622682	0.761245
C171	C	1.708382	-0.289348	1.094579
C172	C	1.041729	-1.010620	0.427917
C173	C	1.375062	-0.677287	0.761250
C174	C	1.708396	-0.343954	1.094583
C175	C	0.955941	-1.010449	0.334333
C176	C	1.289274	-0.677115	0.667667
C177	C	1.622608	-0.343782	1.001000
C178	C	0.955924	-0.955849	0.334331
C179	C	1.289258	-0.622515	0.667664
C180	C	1.622591	-0.289182	1.000997
C181	C	0.998817	-0.928633	0.381123
C182	C	1.332150	-0.595300	0.714456
C183	C	1.665484	-0.261966	1.047789
O184	O	0.919427	-0.869397	0.294571
O185	O	1.252760	-0.536064	0.627904
O186	O	1.586093	-0.202730	0.961238
O187	O	1.078175	-0.869664	0.467687
O188	O	1.411508	-0.536330	0.801021
O189	O	1.744842	-0.202997	1.134354
C190	C	1.181548	-0.226793	0.388912
C191	C	1.514881	0.106540	0.722246
C192	C	1.848214	0.439874	1.055579
C193	C	1.259473	-0.224434	0.392251
C194	C	1.592807	0.108899	0.725584
C195	C	1.926140	0.442233	1.058917
C196	C	0.990915	-0.238349	0.563935
C197	C	1.324248	0.094984	0.897269
C198	C	1.657582	0.428318	1.230602
C199	C	0.987605	-0.240914	0.641858
C200	C	1.320938	0.092419	0.975192
C201	C	1.654271	0.425752	1.308525
C202	C	0.998798	-0.095953	0.381114
C203	C	1.332132	0.237380	0.714448
C204	C	1.665465	0.570713	1.047781
C205	C	0.998847	-0.037838	0.381130
C206	C	1.332181	0.295495	0.714463
C207	C	1.665514	0.628828	1.047797
C208	C	1.006462	-0.226293	0.198933
C209	C	1.339796	0.107040	0.532267
C210	C	1.673129	0.440373	0.865600
C211	C	1.009909	-0.223577	0.121017
C212	C	1.343242	0.109757	0.454350
C213	C	1.676575	0.443090	0.787683
C214	C	1.030911	-0.207326	0.680398
C215	C	1.364244	0.126007	1.013731
C216	C	1.697578	0.459340	1.347064
C217	C	1.027792	-0.209735	0.753614
C218	C	1.361125	0.123598	1.086948
C219	C	1.694459	0.456932	1.420281
C220	C	0.981369	-0.245735	0.788290
C221	C	1.314703	0.087599	1.121624
C222	C	1.648036	0.420932	1.454957
C223	C	0.938058	-0.279324	0.749746
C224	C	1.271391	0.054009	1.083079
C225	C	1.604725	0.387343	1.416413
C226	C	0.941174	-0.276912	0.676530
C227	C	1.274508	0.056421	1.009864
C228	C	1.607841	0.389754	1.343197
C229	C	0.969713	-0.254754	1.009257
C230	C	1.303047	0.078579	1.342590
C231	C	1.636380	0.411912	1.675923
C232	C	0.966602	-0.257165	1.082477
C233	C	1.299935	0.076169	1.415811
C234	C	1.633269	0.409502	1.749144
C235	C	1.056335	-0.187575	1.086341
C236	C	1.389669	0.145759	1.419674
C237	C	1.723002	0.479092	1.753007
C238	C	1.059450	-0.185168	1.013124
C239	C	1.392783	0.148165	1.346457
C240	C	1.726117	0.481498	1.679791
C241	C	1.016136	-0.218756	0.974586
C242	C	1.349470	0.114578	1.307919
C243	C	1.682803	0.447911	1.641252
C244	C	0.978182	-0.248199	0.863130
C245	C	1.311515	0.085135	1.196463
C246	C	1.644848	0.418468	1.529796
C247	C	1.019321	-0.216289	0.899748
C248	C	1.352654	0.117045	1.233081
C249	C	1.685988	0.450378	1.566414
H250	H	0.489038	-0.273835	0.322665
H251	H	0.822371	0.059498	0.655999
H252	H	1.155704	0.392831	0.989332
H253	H	1.076643	-0.933862	0.466014
H254	H	1.409977	-0.600529	0.799347
H255	H	1.743310	-0.267196	1.132680
O256	O	0.894462	-0.313140	0.634963
O257	O	1.227795	0.020193	0.968297
O258	O	1.561128	0.353527	1.301630
H259	H	0.904421	-0.305411	0.578226
H260	H	1.237754	0.027922	0.911560
H261	H	1.571088	0.361256	1.244893
H262	H	0.920780	-0.431220	0.296191
H263	H	1.254114	-0.097887	0.629524
H264	H	1.587447	0.235446	0.962857
H265	H	1.057115	-0.186976	0.871511
H266	H	1.390448	0.146357	1.204845
H267	H	1.723782	0.479691	1.538178
H268	H	1.097254	-0.155855	0.984896
H269	H	1.430588	0.177478	1.318229
H270	H	1.763921	0.510812	1.651563
O271	O	1.130815	-0.789061	0.525153
O272	O	1.464149	-0.455728	0.858487
O273	O	1.797482	-0.122394	1.191820
H274	H	1.160631	-0.760953	0.557677
H275	H	1.493964	-0.427620	0.891010
H276	H	1.827298	-0.094287	1.224343
O277	O	0.404883	-0.153563	0.491969
O278	O	0.738216	0.179771	0.825302
O279	O	1.071550	0.513104	1.158636
H280	H	0.365818	-0.132519	0.521582
H281	H	0.699151	0.200814	0.854916
H282	H	1.032485	0.534148	1.188249
O283	O	0.518205	-0.182079	0.451812
O284	O	0.851538	0.151255	0.785146
O285	O	1.184871	0.484588	1.118479
H286	H	0.550041	-0.205681	0.488849
H287	H	0.883374	0.127653	0.822182
H288	H	1.216707	0.460986	1.155515
O289	O	0.909492	-0.537461	0.283820
O290	O	1.242826	-0.204128	0.617153
O291	O	1.576159	0.129205	0.950487
H292	H	0.942421	-0.560192	0.249515
H293	H	1.275755	-0.226859	0.582848
H294	H	1.609088	0.106475	0.916182
H295	H	1.119437	-0.682774	0.512777
H296	H	1.452770	-0.349441	0.846110
H297	H	1.786104	-0.016107	1.179443
O298	O	0.585380	-0.178440	0.456933
O299	O	0.918713	0.154894	0.790266
O300	O	1.252046	0.488227	1.123600
H301	H	0.621830	-0.155108	0.489780
H302	H	0.955163	0.178225	0.823114
H303	H	1.288497	0.511558	1.156447
O304	O	1.087820	-0.537813	0.478344
O305	O	1.421154	-0.204479	0.811677
O306	O	1.754487	0.128854	1.145011
H307	H	1.117634	-0.509707	0.510872
H308	H	1.450968	-0.176374	0.844205
H309	H	1.784301	0.156959	1.177538
O310	O	0.887985	-0.318150	0.787147
O311	O	1.221319	0.015183	1.120480
O312	O	1.554652	0.348517	1.453814
H313	H	0.858389	-0.341097	0.748045
H314	H	1.191723	-0.007764	1.081379
H315	H	1.525056	0.325570	1.414712
H316	H	0.920980	-0.933554	0.296231
H317	H	1.254314	-0.600221	0.629564
H318	H	1.587647	-0.266887	0.962897
O319	O	0.916522	-0.295988	1.119884
O320	O	1.249856	0.037345	1.453217
O321	O	1.583189	0.370679	1.786550
H322	H	0.929096	-0.336200	1.106335
H323	H	1.262429	-0.002866	1.439668
H324	H	1.595762	0.330467	1.773001
O325	O	0.737567	-0.173804	0.463430
O326	O	1.070900	0.159529	0.796764
O327	O	1.404234	0.492862	1.130097
H328	H	0.769402	-0.197401	0.500474
H329	H	1.102735	0.135932	0.833808
H330	H	1.436068	0.469266	1.167141
H331	H	0.402514	-0.278070	0.316714
H332	H	0.735848	0.055264	0.650047
H333	H	1.069181	0.388597	0.983381
H334	H	0.262858	-0.166342	0.474029
H335	H	0.596192	0.166991	0.807362
H336	H	0.929525	0.500325	1.140696
H337	H	1.076665	-1.032912	0.466030
H338	H	1.409999	-0.699579	0.799363
H339	H	1.743332	-0.366246	1.132696
O340	O	1.087777	-0.424316	0.478331
O341	O	1.421111	-0.090983	0.811664
O342	O	1.754444	0.242351	1.144997
H343	H	1.080555	-0.381747	0.470456
H344	H	1.413888	-0.048414	0.803789
H345	H	1.747222	0.284919	1.137122
H346	H	0.269687	-0.282118	0.311053
H347	H	0.603021	0.051216	0.644387
H348	H	0.936354	0.384549	0.977720
H349	H	0.878012	-0.682318	0.249397
H350	H	1.211346	-0.348984	0.582730
H351	H	1.544679	-0.015651	0.916063
H352	H	0.878059	-0.781368	0.249404
H353	H	1.211393	-0.448035	0.582738
H354	H	1.544726	-0.114701	0.916071
H355	H	0.921026	-1.032620	0.296242
H356	H	1.254360	-0.699286	0.629576
H357	H	1.587693	-0.365953	0.962909
O358	O	0.593207	-0.311080	0.270215
O359	O	0.926540	0.022253	0.603548
O360	O	1.259873	0.355587	0.936881
H361	H	0.535826	-0.307461	0.275329
H362	H	0.869159	0.025872	0.608662
H363	H	1.202493	0.359205	0.941995
O364	O	0.922963	-0.290953	0.967692
O365	O	1.256296	0.042380	1.301026
O366	O	1.589630	0.375713	1.634359
H367	H	0.890152	-0.316384	1.004107
H368	H	1.223485	0.016949	1.337440
H369	H	1.556819	0.350283	1.670774
O370	O	0.745397	-0.306446	0.276714
O371	O	1.078730	0.026887	0.610048
O372	O	1.412064	0.360221	0.943381
H373	H	0.708948	-0.329786	0.243876
H374	H	1.042281	0.003547	0.577209
H375	H	1.375614	0.336881	0.910543
H376	H	1.068716	-0.178013	0.652170
H377	H	1.402049	0.155320	0.985503
H378	H	1.735382	0.488654	1.318837
O379	O	1.074505	-0.173511	0.795185
O380	O	1.407838	0.159822	1.128518
O381	O	1.741171	0.493155	1.461851
H382	H	1.107316	-0.148079	0.758772
H383	H	1.440649	0.185254	1.092106
H384	H	1.773982	0.518588	1.425439
H385	H	0.940387	-0.277512	0.891371
H386	H	1.273721	0.055821	1.224704
H387	H	1.607054	0.389155	1.558038
O388	O	1.103030	-0.151334	1.127904
O389	O	1.436364	0.181999	1.461237
O390	O	1.769697	0.515333	1.794571
H391	H	1.093057	-0.159050	1.184641
H392	H	1.426391	0.174283	1.517974
H393	H	1.759724	0.507617	1.851307
