data_functionalizedCrystal
_audit_creation_method	'MofGen! by Chris Wilmer'
_symmetry_space_group_name_H-M	'P1'
_symmetry_Int_Tables_number	1
_symmetry_cell_setting	triclinic
loop_
_symmetry_equiv_pos_as_xyz
  x,y,z
_cell_length_a	23.096457
_cell_length_b	21.606444
_cell_length_c	21.606444
_cell_angle_alpha	60.001331
_cell_angle_beta	90.000061
_cell_angle_gamma	59.998565
loop_
_atom_site_label
_atom_site_type_symbol
_atom_site_fract_x
_atom_site_fract_y
_atom_site_fract_z
Zr1	Zr	0.557754	0.677461	-0.081223
O2	O	0.465300	0.806582	-0.180042
O3	O	0.586097	0.548342	-0.050932
O4	O	0.586090	0.677466	-0.180051
O5	O	0.465312	0.677454	0.050931
O6	O	0.681370	0.677468	-0.180054
O7	O	0.465307	0.677458	-0.050923
O8	O	0.681383	0.446488	0.050915
O9	O	0.465299	0.908433	-0.180038
O10	O	0.669291	0.601451	-0.038013
O11	O	0.598188	0.601447	0.038002
O12	O	0.598179	0.753473	-0.114018
O13	O	0.527076	0.753469	-0.038002
Zr14	Zr	0.709723	0.677457	0.081217
Zr15	Zr	0.709715	0.677464	-0.081229
Zr16	Zr	0.557762	0.677454	0.081223
Zr17	Zr	0.557753	0.839901	-0.081217
Zr18	Zr	0.709725	0.515017	0.081212
O19	O	0.681380	0.806576	0.050927
O20	O	0.681369	0.806586	-0.180050
O21	O	0.465311	0.806572	0.050935
O22	O	0.802177	0.548336	0.180036
O23	O	0.802167	0.548346	-0.050941
O24	O	0.586108	0.548332	0.180044
O25	O	0.802165	0.677464	-0.050936
O26	O	0.681387	0.677452	0.180045
O27	O	0.586107	0.677450	0.180049
O28	O	0.802170	0.677460	0.050918
O29	O	0.586088	0.908435	-0.180043
O30	O	0.681390	0.446483	0.180037
O31	O	0.802178	0.446485	0.180033
O32	O	0.802172	0.446491	0.050910
O33	O	0.465305	0.908427	-0.050916
O34	O	0.586094	0.908429	-0.050921
O35	O	0.669298	0.601445	0.114012
O36	O	0.740401	0.601449	0.037997
O37	O	0.669289	0.753471	-0.038008
O38	O	0.598186	0.753467	0.038007
C39	C	0.633741	0.474271	-0.000009
C40	C	0.633741	0.405311	-0.000012
C41	C	0.670855	0.372916	-0.039692
C42	C	0.670857	0.308116	-0.039687
C43	C	0.633742	0.275716	-0.000005
C44	C	0.596627	0.308114	0.039680
C45	C	0.596629	0.372909	0.039679
C46	C	0.596619	0.046805	0.039686
C47	C	0.596618	-0.017992	0.039682
C48	C	0.670847	-0.017988	-0.039679
C49	C	0.670849	0.046806	-0.039681
C50	C	0.633738	0.079195	0.000008
C51	C	0.633736	0.149458	0.000003
C52	C	0.633738	0.205460	-0.000005
C53	C	0.443658	0.677456	0.000005
C54	C	0.379147	0.677454	0.000007
C55	C	0.385961	0.598103	0.039674
C56	C	0.325345	0.598101	0.039677
C57	C	0.257916	0.677456	-0.000001
C58	C	0.251105	0.756819	-0.039669
C59	C	0.311720	0.756818	-0.039665
N60	N	0.135117	0.736526	-0.064577
N61	N	0.077537	0.736522	-0.064580
C62	C	0.075283	0.677464	-0.000015
N63	N	0.132790	0.618398	0.064552
N64	N	0.190376	0.618400	0.064553
C65	C	0.192185	0.677466	-0.000010
C66	C	0.016374	0.598106	0.039659
C67	C	-0.044244	0.598108	0.039665
C68	C	-0.118485	0.756827	-0.039689
C69	C	-0.057867	0.756823	-0.039687
C70	C	0.009560	0.677460	-0.000015
C71	C	0.823819	0.677462	-0.000010
C72	C	0.888330	0.677464	-0.000013
C73	C	0.633729	0.677468	-0.203197
C74	C	0.633726	0.677471	-0.272160
C75	C	0.633737	0.880647	0.000004
C76	C	0.633736	0.949607	0.000006
C77	C	0.596606	0.756824	-0.344232
C78	C	0.596612	0.756822	-0.409027
C79	C	0.633734	0.677465	-0.401748
C80	C	0.670859	0.598105	-0.329668
C81	C	0.670856	0.598109	-0.264875
C82	C	0.670870	0.598090	-0.590971
C83	C	0.670868	0.598093	-0.655772
C84	C	0.596625	0.756803	-0.735123
C85	C	0.596623	0.756806	-0.670330
C86	C	0.633750	0.677447	-0.598256
C87	C	0.633744	0.677451	-0.527999
C88	C	0.633736	0.677460	-0.472004
C89	C	0.633748	0.677450	0.203192
C90	C	0.633751	0.677447	0.272154
C91	C	0.823821	0.474274	-0.000017
C92	C	0.888333	0.405315	-0.000022
C93	C	0.633750	0.474262	0.203185
C94	C	0.633754	0.405299	0.272145
C95	C	0.823831	0.474266	0.203178
C96	C	0.888346	0.405304	0.272135
C97	C	0.443647	0.880652	-0.203183
C98	C	0.379131	0.949614	-0.272141
C99	C	0.443656	0.880644	0.000011
C100	C	0.379144	0.949603	0.000016
C101	C	0.633727	0.880656	-0.203191
C102	C	0.633723	0.949619	-0.272151
C103	C	0.881510	0.372933	-0.039707
C104	C	0.942120	0.308147	-0.039727
C105	C	1.009553	0.275741	-0.000056
C106	C	1.016375	0.308131	0.039631
C107	C	0.955765	0.372919	0.039645
C108	C	0.670875	0.372912	0.344213
C109	C	0.670876	0.308123	0.409015
C110	C	0.633760	0.275718	0.401747
C111	C	0.596635	0.308111	0.329672
C112	C	0.596630	0.372903	0.264872
C113	C	0.955765	0.372921	0.264839
C114	C	1.016390	0.308133	0.329626
C115	C	1.009594	0.275724	0.401708
C116	C	0.942169	0.308114	0.409003
C117	C	0.881545	0.372905	0.344217
C118	C	0.311713	0.982005	-0.264845
C119	C	0.251088	1.046813	-0.329632
C120	C	0.257883	1.079225	-0.401714
C121	C	0.325308	1.046832	-0.409008
C122	C	0.385932	0.982029	-0.344222
C123	C	0.385967	0.981992	0.039695
C124	C	0.325357	1.046795	0.039696
C125	C	0.257924	1.079203	0.000023
C126	C	0.251102	1.046811	-0.039660
C127	C	0.311712	0.982013	-0.039666
C128	C	0.670846	0.982004	-0.264859
C129	C	0.670856	1.046793	-0.329648
C130	C	0.633739	1.079201	-0.401729
C131	C	0.596614	1.046810	-0.409019
C132	C	0.596609	0.982017	-0.344231
H133	H	0.566393	-0.044370	0.071998
H134	H	0.701078	0.281739	-0.071997
H135	H	0.701099	0.399290	0.350145
H136	H	1.071285	0.281768	0.323673
H137	H	1.058964	0.222967	0.454455
H138	H	0.566396	0.821421	-0.793816
N139	N	0.710875	0.081756	-0.082485
H140	H	0.734389	0.051400	-0.107621
H141	H	0.748193	0.070480	-0.046055
N142	N	0.178370	1.081755	-0.082434
H143	H	0.141015	1.127710	-0.076396
H144	H	0.172763	1.032262	-0.061585
N145	N	0.934845	0.273154	0.486750
H146	H	0.983484	0.227193	0.526679
H147	H	0.908049	0.246309	0.492758
H148	H	0.566386	0.821439	-0.467710
H149	H	0.633749	1.131960	-0.454477
N150	N	0.710922	0.273190	0.486746
H151	H	0.734439	0.303547	0.481511
H152	H	0.748238	0.208145	0.515359
N153	N	0.556567	0.842414	-0.352081
H154	H	0.504642	0.877109	-0.380706
H155	H	0.576095	0.877036	-0.380681
H156	H	0.196193	1.073177	-0.323678
N157	N	1.074917	0.205857	-0.000075
H158	H	1.104097	0.152083	0.053658
H159	H	1.104040	0.228477	-0.022693
H160	H	0.633770	0.222960	0.454517
N161	N	0.963134	0.407839	0.082454
H162	H	0.939643	0.472881	0.046071
H163	H	1.015065	0.377410	0.107575
H164	H	-0.063418	0.821440	-0.071993
H165	H	0.208578	1.131966	0.000034
H166	H	0.306146	0.955644	-0.071975
N167	N	0.710882	0.947059	-0.187121
H168	H	0.734400	0.977411	-0.192344
H169	H	0.748196	0.882014	-0.158512
N170	N	0.304374	0.842407	-0.082454
H171	H	0.252461	0.892681	-0.107590
H172	H	0.327906	0.845861	-0.122343
N173	N	0.556599	0.407852	0.187130
H174	H	0.519250	0.472895	0.158486
H175	H	0.533124	0.377443	0.192402
H176	H	0.826608	0.399317	-0.072021
N177	N	0.963107	0.407875	0.187100
H178	H	0.914477	0.453836	0.147157
H179	H	0.989917	0.358392	0.181094
N180	N	1.089108	0.273176	0.082415
H181	H	1.126462	0.227217	0.076382
H182	H	1.094731	0.246329	0.137905
H183	H	0.826652	0.399263	0.350168
N184	N	0.710887	-0.052929	-0.082479
H185	H	0.691410	-0.003490	-0.137984
H186	H	0.705248	-0.098907	-0.076399
H187	H	0.330833	1.073230	-0.467705
N188	N	0.556579	1.081769	-0.486764
H189	H	0.590623	1.070497	-0.515416
H190	H	0.519233	1.146802	-0.515343
H191	H	0.306166	0.955619	-0.206158
N192	N	0.192493	1.149118	-0.471587
H193	H	0.148755	1.164713	-0.456020
H194	H	0.192520	1.126523	-0.502748
N195	N	0.556565	0.947092	-0.352101
H196	H	0.533054	0.977460	-0.407596
H197	H	0.519245	0.958374	-0.326951
N198	N	0.556609	0.273151	0.321839
H199	H	0.562254	0.227187	0.373829
H200	H	0.576104	0.246308	0.293193
H201	H	-0.173386	0.821440	-0.071996
N202	N	0.556582	0.081735	0.082485
H203	H	0.519227	0.146778	0.046098
H204	H	0.590670	0.070396	0.122416
H205	H	0.440826	0.955657	-0.350172
N206	N	0.458693	0.947046	0.082487
H207	H	0.453808	0.977409	0.107617
H208	H	0.485456	0.958323	0.046051
N209	N	0.332724	1.081723	0.082500
H210	H	0.384640	1.051350	0.107636
H211	H	0.309192	1.070451	0.122390
H212	H	0.701086	1.073160	-0.323697
H213	H	0.701100	0.533467	-0.649837
N214	N	0.710881	0.407864	-0.082498
H215	H	0.734394	0.377506	-0.107633
H216	H	0.748200	0.396588	-0.046070
H217	H	0.566411	0.281725	0.071993
H218	H	0.566406	0.399286	0.071988
N219	N	0.458679	0.512502	0.082464
H220	H	0.464356	0.477804	0.137968
H221	H	0.496007	0.524604	0.076392
H222	H	0.196200	0.821430	-0.071975
N223	N	0.332686	0.512512	0.082463
H224	H	0.384598	0.462237	0.107596
H225	H	0.309151	0.509066	0.046022
N226	N	0.934757	0.273208	-0.082522
H227	H	0.958238	0.284493	-0.122462
H228	H	0.882829	0.303578	-0.107593
H229	H	0.071276	0.533484	0.071979
H230	H	-0.038690	0.533488	0.071971
H231	H	0.701102	0.533471	-0.532294
N232	N	0.556584	0.842397	-0.678181
H233	H	0.533072	0.892669	-0.733672
H234	H	0.590669	0.845850	-0.653024
H235	H	0.701088	0.533492	-0.323746
H236	H	0.701083	0.533491	-0.206190
