data_functionalizedCrystal
_audit_creation_method	'MofGen! by Chris Wilmer'
_symmetry_space_group_name_H-M	'P1'
_symmetry_Int_Tables_number	1
_symmetry_cell_setting	triclinic
loop_
_symmetry_equiv_pos_as_xyz
  x,y,z
_cell_length_a	12.811438
_cell_length_b	12.837942
_cell_length_c	14.048226
_cell_angle_alpha	89.994377
_cell_angle_beta	84.562091
_cell_angle_gamma	89.411773
loop_
_atom_site_label
_atom_site_type_symbol
_atom_site_fract_x
_atom_site_fract_y
_atom_site_fract_z
O1	O	1.406657	0.139694	-0.200585
O2	O	1.102590	0.154881	-0.174340
O3	O	1.247881	-0.003644	-0.186875
O4	O	1.261366	0.298220	-0.188050
O5	O	1.247861	-0.003654	-0.028551
O6	O	1.102570	0.154872	-0.016016
O7	O	1.406637	0.139685	-0.042262
Zn8	Zn	1.254600	0.147277	-0.004002
Zn9	Zn	1.254627	0.147289	-0.212600
O10	O	1.261345	0.298210	-0.029727
C11	C	1.063390	0.154025	-0.091795
C12	C	0.946617	0.151476	-0.081716
C13	C	0.782019	0.147878	0.018787
C14	C	0.891738	0.150274	0.009321
C15	C	0.891769	0.150285	-0.163292
C16	C	0.782050	0.147889	-0.153826
C17	C	0.727179	0.146684	-0.062783
C18	C	0.617458	0.144281	-0.053318
C19	C	0.617490	0.144299	-0.225930
C20	C	0.727209	0.146695	-0.235396
C21	C	1.243316	-0.042289	-0.107320
C22	C	1.229729	-0.157425	-0.106149
C23	C	1.393060	-0.397678	-0.120267
C24	C	1.380300	-0.505859	-0.119167
C25	C	1.191449	-0.481970	-0.102857
C26	C	1.204209	-0.373789	-0.103956
C27	C	1.305018	-0.331647	-0.112661
C28	C	1.317778	-0.223464	-0.113753
C29	C	1.128928	-0.199577	-0.097450
C30	C	1.116167	-0.307758	-0.096350
C31	C	1.445836	0.140541	-0.124809
C32	C	1.562610	0.143090	-0.134894
C33	C	1.265911	0.336855	-0.109283
C34	C	1.279497	0.451991	-0.110461
N35	N	1.254589	0.147268	0.138359
N36	N	1.254645	0.147290	-0.354962
C37	C	1.318949	0.077102	0.182625
C38	C	1.318957	0.077101	0.282282
C39	C	1.254608	0.147272	0.337671
C40	C	1.190241	0.217442	0.293400
C41	C	1.190229	0.217436	0.193745
C42	C	1.190272	0.217449	0.501111
C43	C	1.190285	0.217456	0.600773
C44	C	1.318999	0.077114	0.589648
C45	C	1.318988	0.077109	0.489993
C46	C	1.254621	0.147280	0.445729
H47	H	0.936385	0.151249	0.075744
O48	O	1.475257	-0.577083	-0.127360
H49	H	1.547495	-0.529600	-0.133588
H50	H	1.399861	-0.189155	-0.120837
O51	O	0.950952	0.151594	-0.261485
H52	H	0.932190	0.080541	-0.301252
O53	O	1.501782	-0.352213	-0.129656
H54	H	1.560861	-0.416304	-0.134765
H55	H	1.371408	0.019979	0.625694
H56	H	1.109375	-0.516301	-0.095780
O57	O	0.722594	0.146728	0.116876
H58	H	0.745719	0.076639	0.156442
O59	O	0.786392	0.147973	-0.333590
H60	H	0.871901	0.149827	-0.326471
H61	H	1.034091	-0.342085	-0.089267
H62	H	1.057238	-0.145802	-0.091248
H63	H	1.137884	0.274596	0.645867
H64	H	0.572827	0.143331	-0.292351
H65	H	1.371354	0.019965	0.137532
H66	H	1.371363	0.019966	0.318322
O67	O	1.120799	0.293098	0.145990
H68	H	1.170022	0.343713	0.096305
O69	O	1.120856	0.293136	0.453362
H70	H	1.076121	0.341942	0.508617
H71	H	1.371390	0.019975	0.444895
O72	O	1.120845	0.293137	0.353137
H73	H	1.037660	0.279522	0.341221
O74	O	0.558268	0.142990	0.044872
H75	H	0.614839	0.144236	0.100002
