data_functionalizedCrystal
_audit_creation_method	'MofGen! by Chris Wilmer'
_symmetry_space_group_name_H-M	'P1'
_symmetry_Int_Tables_number	1
_symmetry_cell_setting	triclinic
loop_
_symmetry_equiv_pos_as_xyz
  x,y,z
_cell_length_a	12.594517
_cell_length_b	12.594516
_cell_length_c	12.594509
_cell_angle_alpha	89.972125
_cell_angle_beta	89.985695
_cell_angle_gamma	90.011773
loop_
_atom_site_label
_atom_site_type_symbol
_atom_site_fract_x
_atom_site_fract_y
_atom_site_fract_z
Zn1	Zn	1.627298	-0.423711	-0.601663
Zn2	Zn	2.127298	0.076289	-0.101663
Zn3	Zn	1.627202	-0.601722	-0.423686
Zn4	Zn	2.127202	-0.101722	0.076314
Zn5	Zn	1.449302	-0.423757	-0.423714
Zn6	Zn	1.949302	0.076243	0.076286
Zn7	Zn	1.449297	-0.601648	-0.601638
Zn8	Zn	1.949297	-0.101648	-0.101638
O9	O	1.538275	-0.512710	-0.512675
O10	O	2.038275	-0.012710	-0.012675
O11	O	1.776231	-0.447336	-0.578053
O12	O	2.276231	0.052664	-0.078053
O13	O	1.603565	-0.578164	-0.274744
O14	O	2.103565	-0.078164	0.225256
O15	O	1.472956	-0.274805	-0.447342
O16	O	1.972956	0.225195	0.052658
O17	O	1.776161	-0.578120	-0.447294
O18	O	2.276161	-0.078120	0.052706
O19	O	1.603729	-0.274772	-0.578080
O20	O	2.103729	0.225228	-0.078080
O21	O	1.472863	-0.447415	-0.274764
O22	O	1.972863	0.052585	0.225236
O23	O	1.300356	-0.447343	-0.447317
O24	O	1.800356	0.052657	0.052683
O25	O	1.472948	-0.577994	-0.750587
O26	O	1.972948	-0.077994	-0.250587
O27	O	1.300352	-0.578039	-0.578037
O28	O	1.800352	-0.078039	-0.078037
O29	O	1.603724	-0.447265	-0.750606
O30	O	2.103724	0.052735	-0.250606
O31	O	1.603561	-0.750658	-0.447269
O32	O	2.103561	-0.250658	0.052731
O33	O	1.472855	-0.750604	-0.578010
O34	O	1.972855	-0.250604	-0.078010
C35	C	1.261734	-0.512689	-0.512678
C36	C	1.761734	-0.012689	-0.012678
C37	C	1.143429	-0.512706	-0.512704
C38	C	1.643429	-0.012706	-0.012704
C39	C	1.003441	-0.583920	-0.583671
C40	C	1.503441	-0.083920	-0.083671
C41	C	1.074213	-0.609828	-0.486529
C42	C	1.574213	-0.109828	0.013471
C43	C	1.074228	-0.486845	-0.609835
C44	C	1.574228	0.013155	-0.109835
C45	C	1.003415	-0.538698	-0.415479
C46	C	1.503415	-0.038698	0.084521
C47	C	1.003424	-0.415671	-0.538850
C48	C	1.503424	0.084329	-0.038850
C49	C	1.074164	-0.441542	-0.441642
C50	C	1.574164	0.058458	0.058358
C51	C	1.538226	-0.789251	-0.512657
C52	C	2.038226	-0.289251	-0.012657
C53	C	1.538302	-0.907556	-0.512684
C54	C	2.038302	-0.407556	-0.012684
C55	C	1.609475	-0.976800	-0.441650
C56	C	2.109475	-0.476800	0.058350
C57	C	1.635486	-1.047496	-0.538797
C58	C	2.135486	-0.547496	-0.038797
C59	C	1.512424	-1.047658	-0.415600
C60	C	2.012424	-0.547658	0.084400
C61	C	1.564362	-0.976694	-0.609882
C62	C	2.064362	-0.476694	-0.109882
C63	C	1.441256	-0.976850	-0.486619
C64	C	1.941256	-0.476850	0.013381
C65	C	1.467229	-1.047515	-0.583833
C66	C	1.967229	-0.547515	-0.083833
C67	C	1.815896	-0.512731	-0.512673
C68	C	2.315896	-0.012731	-0.012673
C69	C	1.934201	-0.512740	-0.512672
C70	C	2.434201	-0.012740	-0.012672
C71	C	1.538346	-0.512616	-0.790296
C72	C	2.038346	-0.012616	-0.290296
C73	C	1.538377	-0.512577	-0.908602
C74	C	2.038377	-0.012577	-0.408602
C75	C	1.538354	-0.235089	-0.512717
C76	C	2.038354	0.264911	-0.012717
C77	C	1.538387	-0.116783	-0.512735
C78	C	2.038387	0.383217	-0.012735
C79	C	1.467270	-0.583640	-0.977845
C80	C	1.967270	-0.083640	-0.477845
C81	C	1.564392	-0.609646	-1.048623
C82	C	2.064392	-0.109646	-0.548623
C83	C	1.441330	-0.486506	-1.048622
C84	C	1.941330	0.013494	-0.548622
C85	C	1.635550	-0.538634	-0.977822
C86	C	2.135550	-0.038634	-0.477822
C87	C	1.512422	-0.415449	-0.977815
C88	C	2.012422	0.084551	-0.477815
C89	C	1.609612	-0.441418	-1.048562
C90	C	2.109612	0.058582	-0.548562
C91	C	1.538265	-0.512726	-0.236134
C92	C	2.038265	-0.012726	0.263866
C93	C	1.538441	-0.512465	-0.117829
C94	C	2.038441	-0.012465	0.382171
H95	H	0.972441	-0.560685	-0.333301
H96	H	1.472441	-0.060685	0.166699
Cl97	Cl	1.122254	-0.453051	-0.736674
Cl98	Cl	1.622254	0.046949	-0.236674
Cl99	Cl	1.702412	-0.928855	-0.348988
Cl100	Cl	2.202412	-0.428855	0.151012
Cl101	Cl	1.314579	-0.452531	-1.096639
Cl102	Cl	1.814579	0.047469	-0.596639
H103	H	1.105021	-0.381333	-0.381545
H104	H	1.605021	0.118667	0.118455
H105	H	1.717593	-1.078531	-0.560871
H106	H	2.217593	-0.578531	-0.060871
H107	H	1.407077	-1.078369	-0.643995
H108	H	1.907077	-0.578369	-0.143995
Cl109	Cl	0.955373	-0.288990	-0.573070
Cl110	Cl	1.455373	0.211010	-0.073070
Cl111	Cl	1.762338	-0.572763	-0.930015
Cl112	Cl	2.262338	-0.072763	-0.430015
Cl113	Cl	1.598373	-0.928780	-0.736709
Cl114	Cl	2.098373	-0.428780	-0.236709
Cl115	Cl	1.314520	-0.928903	-0.452497
Cl116	Cl	1.814520	-0.428903	0.047503
H117	H	1.490502	-1.078828	-0.333476
H118	H	1.990502	-0.578828	0.166524
Cl119	Cl	1.478431	-0.288741	-0.929753
Cl120	Cl	1.978431	0.211259	-0.429753
H121	H	1.407184	-0.643829	-0.946795
H122	H	1.907184	-0.143829	-0.446795
H123	H	1.105307	-0.691903	-0.464393
H124	H	1.605307	-0.191903	0.035607
Cl125	Cl	1.598341	-0.736387	-1.096647
Cl126	Cl	2.098341	-0.236387	-0.596647
H127	H	0.972388	-0.644175	-0.643623
H128	H	1.472388	-0.144175	-0.143623
Cl129	Cl	1.702597	-0.348562	-1.096208
Cl130	Cl	2.202597	0.151438	-0.596208
