data_functionalizedCrystal
_audit_creation_method	'MofGen! by Chris Wilmer'
_symmetry_space_group_name_H-M	'P1'
_symmetry_Int_Tables_number	1
_symmetry_cell_setting	triclinic
loop_
_symmetry_equiv_pos_as_xyz
  x,y,z
_cell_length_a	11.792241
_cell_length_b	11.792241
_cell_length_c	10.268362
_cell_angle_alpha	90.000374
_cell_angle_beta	89.994572
_cell_angle_gamma	95.806584
loop_
_atom_site_label
_atom_site_type_symbol
_atom_site_fract_x
_atom_site_fract_y
_atom_site_fract_z
O1	O	0.155569	-1.506909	-0.108174
O2	O	0.171602	-1.176568	-0.108205
O3	O	-0.001585	-1.349755	-0.108180
O4	O	0.328756	-1.333722	-0.108199
O5	O	-0.001593	-1.349740	0.108421
O6	O	0.171594	-1.176553	0.108396
O7	O	0.155561	-1.506894	0.108426
Cu8	Cu	0.163577	-1.341722	0.128188
Cu9	Cu	0.163586	-1.341740	-0.127967
O10	O	0.328748	-1.333707	0.108401
C11	C	-0.043880	-1.348740	0.000120
C12	C	-0.169894	-1.345726	0.000119
C13	C	0.170591	-1.134269	0.000092
C14	C	0.167576	-1.008255	0.000080
C15	C	0.156572	-1.549192	0.000127
C16	C	0.159587	-1.675206	0.000130
C17	C	-0.400606	-1.340183	0.000096
C18	C	-0.272221	-1.343262	0.000108
C19	C	0.371043	-1.334721	0.000099
C20	C	0.497057	-1.337736	0.000092
N21	N	0.163571	-1.341717	0.308354
C22	C	0.162034	-0.777543	0.000118
C23	C	0.165113	-0.905928	0.000097
N24	N	0.163584	-1.341753	-0.308133
C25	C	0.163583	-1.341734	0.574025
C26	C	0.163580	-1.341721	0.426187
