data_functionalizedCrystal
_audit_creation_method	'MofGen! by Chris Wilmer'
_symmetry_space_group_name_H-M	'P1'
_symmetry_Int_Tables_number	1
_symmetry_cell_setting	triclinic
loop_
_symmetry_equiv_pos_as_xyz
  x,y,z
_cell_length_a	19.188933
_cell_length_b	19.188924
_cell_length_c	14.586319
_cell_angle_alpha	89.994146
_cell_angle_beta	89.997913
_cell_angle_gamma	83.143767
loop_
_atom_site_label
_atom_site_type_symbol
_atom_site_fract_x
_atom_site_fract_y
_atom_site_fract_z
O1	O	0.926141	0.087173	-0.076214
O2	O	1.426141	0.587173	0.423786
O3	O	0.722829	0.098906	-0.076223
O4	O	1.222829	0.598906	0.423777
O5	O	0.830355	-0.008616	-0.076207
O6	O	1.330355	0.491384	0.423793
O7	O	0.818616	0.194696	-0.076230
O8	O	1.318616	0.694696	0.423770
O9	O	0.830347	-0.008618	0.076273
O10	O	1.330347	0.491382	0.576273
O11	O	0.722822	0.098905	0.076258
O12	O	1.222822	0.598905	0.576258
O13	O	0.926133	0.087172	0.076267
O14	O	1.426133	0.587172	0.576267
Cu15	Cu	0.824477	0.093038	0.090185
Cu16	Cu	1.324477	0.593038	0.590185
Cu17	Cu	0.824486	0.093040	-0.090141
Cu18	Cu	1.324486	0.593040	0.409859
O19	O	0.818608	0.194694	0.076251
O20	O	1.318608	0.694694	0.576251
C21	C	0.696815	0.098525	0.000016
C22	C	1.196815	0.598525	0.500016
C23	C	0.619310	0.097384	0.000013
C24	C	1.119310	0.597384	0.500013
C25	C	0.829972	-0.034628	0.000034
C26	C	1.329972	0.465372	0.500034
C27	C	0.828833	-0.112133	0.000036
C28	C	1.328833	0.387867	0.500036
C29	C	0.066059	0.089240	-0.083093
C30	C	0.566059	0.589240	0.416907
C31	C	0.138883	0.090308	-0.083097
C32	C	0.638883	0.590308	0.416903
C33	C	0.175296	0.090844	0.000020
C34	C	0.675296	0.590844	0.500020
C35	C	0.138881	0.090295	0.083147
C36	C	0.638881	0.590295	0.583147
C37	C	0.066060	0.089219	0.083148
C38	C	0.566060	0.589219	0.583148
N39	N	0.284312	0.132262	0.061883
N40	N	0.784312	0.632262	0.561883
N41	N	0.353490	0.133285	0.061876
N42	N	0.853490	0.633285	0.561876
C43	C	0.394705	0.094082	0.000021
C44	C	0.894705	0.594082	0.500021
N45	N	0.364128	0.053827	-0.061841
N46	N	0.864128	0.553827	0.438159
N47	N	0.294944	0.052807	-0.061837
N48	N	0.794944	0.552807	0.438163
C49	C	0.254260	0.092010	0.000028
C50	C	0.754260	0.592010	0.500028
C51	C	0.510076	0.095785	-0.083104
C52	C	1.010076	0.595785	0.416896
C53	C	0.582902	0.096849	-0.083105
C54	C	1.082902	0.596849	0.416895
C55	C	0.582898	0.096843	0.083142
C56	C	1.082898	0.596843	0.583142
C57	C	0.510074	0.095772	0.083139
C58	C	1.010074	0.595772	0.583139
C59	C	0.473667	0.095246	0.000014
C60	C	0.973667	0.595246	0.500014
C61	C	0.828306	-0.148531	-0.083081
C62	C	1.328306	0.351469	0.416919
C63	C	0.827226	-0.221353	-0.083088
C64	C	1.327226	0.278647	0.416912
C65	C	0.826687	-0.257777	0.000027
C66	C	1.326687	0.242223	0.500027
C67	C	0.827211	-0.221370	0.083155
C68	C	1.327211	0.278630	0.583155
C69	C	0.828284	-0.148548	0.083160
C70	C	1.328284	0.351452	0.583160
N71	N	0.864732	-0.377441	0.061889
N72	N	1.364732	0.122559	0.561889
N73	N	0.863714	-0.446619	0.061879
N74	N	1.363714	0.053381	0.561879
C75	C	0.823453	-0.477186	0.000018
C76	C	1.323453	0.022814	0.500018
N77	N	0.784257	-0.435963	-0.061847
N78	N	1.284257	0.064037	0.438153
N79	N	0.785278	-0.366779	-0.061840
N80	N	1.285278	0.133221	0.438160
C81	C	0.825523	-0.336741	0.000031
C82	C	1.325523	0.163259	0.500031
C83	C	0.821754	-0.592547	-0.083113
C84	C	1.321754	-0.092547	0.416887
C85	C	0.820669	-0.665370	-0.083116
C86	C	1.320669	-0.165370	0.416884
C87	C	0.820662	-0.665386	0.083130
C88	C	1.320662	-0.165386	0.583130
C89	C	0.821739	-0.592563	0.083131
C90	C	1.321739	-0.092563	0.583131
C91	C	0.822288	-0.556149	0.000007
C92	C	1.322288	-0.056149	0.500007
C93	C	0.952148	0.087553	0.000025
C94	C	1.452148	0.587553	0.500025
C95	C	1.029653	0.088694	0.000023
C96	C	1.529653	0.588694	0.500023
C97	C	0.818991	0.220706	0.000008
C98	C	1.318991	0.720706	0.500008
C99	C	0.820130	0.298211	-0.000000
C100	C	1.320130	0.798211	0.500000
N101	N	0.824476	0.093036	0.217017
N102	N	1.324476	0.593036	0.717017
N103	N	0.824492	0.093036	-0.216973
N104	N	1.324492	0.593036	0.283027
C105	C	0.872104	0.045441	0.452030
C106	C	1.372104	0.545441	0.952030
C107	C	0.872106	0.045440	0.548011
C108	C	1.372106	0.545440	1.048011
C109	C	0.776860	0.140634	0.548007
C110	C	1.276860	0.640634	1.048007
C111	C	0.776855	0.140631	0.452027
C112	C	1.276855	0.640631	0.952027
C113	C	0.824481	0.093036	0.404042
C114	C	1.324481	0.593036	0.904042
C115	C	0.824488	0.093037	0.596002
C116	C	1.324488	0.593037	1.096002
C117	C	0.824489	0.093035	0.700069
C118	C	1.324489	0.593035	1.200069
C119	C	0.824478	0.093036	0.299968
C120	C	1.324478	0.593036	0.799968
H121	H	0.036421	0.088809	-0.150781
H122	H	0.536421	0.588809	0.349219
H123	H	0.738071	0.179389	0.412953
H124	H	1.238071	0.679389	0.912953
H125	H	0.612544	0.097288	-0.150790
H126	H	1.112544	0.597288	0.349210
H127	H	0.820218	-0.695041	0.150804
H128	H	1.320218	-0.195041	0.650804
H129	H	0.036417	0.088778	0.150833
H130	H	0.536417	0.588778	0.650833
H131	H	0.168531	0.090756	-0.150782
H132	H	0.668531	0.590756	0.349218
N133	N	0.820153	-0.702551	-0.168028
N134	N	1.320153	-0.202551	0.331972
N135	N	0.868767	-0.749768	-0.186562
N136	N	1.368767	-0.249768	0.313438
H137	H	0.868407	-0.776027	-0.246534
H138	H	1.368407	-0.276027	0.253466
H139	H	0.822197	-0.562896	-0.150797
H140	H	1.322197	-0.062896	0.349203
H141	H	0.826770	-0.251030	0.150828
H142	H	1.326770	0.248970	0.650828
N143	N	0.920753	-0.003185	0.597016
N144	N	1.420753	0.496815	1.097016
N145	N	0.963267	-0.045678	0.554156
N146	N	1.463267	0.454322	1.054156
H147	H	0.997626	-0.080023	0.588765
H148	H	1.497626	0.419977	1.088765
N149	N	0.728217	0.189243	0.597039
N150	N	1.228217	0.689243	1.097039
N151	N	0.728228	0.189240	0.682735
N152	N	1.228228	0.689240	1.182735
H153	H	0.693874	0.223572	0.717364
H154	H	1.193874	0.723572	1.217364
N155	N	0.828868	-0.111326	-0.167980
N156	N	1.328868	0.388674	0.332020
N157	N	0.878673	-0.077276	-0.186519
N158	N	1.378673	0.422724	0.313481
H159	H	0.879071	-0.050998	-0.246480
H160	H	1.379071	0.449002	0.253520
H161	H	0.168534	0.090730	0.150821
H162	H	0.668534	0.590730	0.650821
H163	H	0.910883	0.006685	0.412962
H164	H	1.410883	0.506685	0.912962
N165	N	0.472893	0.095244	-0.168018
N166	N	0.972893	0.595244	0.331982
N167	N	0.505413	0.095722	-0.242226
N168	N	1.005413	0.595722	0.257774
H169	H	0.479156	0.095339	-0.302198
H170	H	0.979156	0.595339	0.197802
N171	N	0.620096	0.097382	0.168037
N172	N	1.120096	0.597382	0.668037
N173	N	0.685115	0.098337	0.168026
N174	N	1.185115	0.598337	0.668026
H175	H	0.711390	0.098715	0.227986
H176	H	1.211390	0.598715	0.727986
N177	N	0.472893	0.095232	0.168052
N178	N	0.972893	0.595232	0.668052
N179	N	0.474442	0.144557	0.223700
N180	N	0.974442	0.644557	0.723700
H181	H	0.448185	0.144175	0.283675
H182	H	0.948185	0.644175	0.783675
N183	N	0.826684	-0.258532	-0.168003
N184	N	1.326684	0.241468	0.331997
N185	N	0.827172	-0.226010	-0.242211
N186	N	1.327172	0.273990	0.257789
H187	H	0.826790	-0.252266	-0.302183
H188	H	1.326790	0.247734	0.197817
H189	H	0.822174	-0.562929	0.150814
H190	H	1.322174	-0.062929	0.650814
N191	N	0.828819	-0.111374	0.168075
N192	N	1.328819	0.388626	0.668075
N193	N	0.828331	-0.143899	0.242281
N194	N	1.328331	0.356101	0.742281
H195	H	0.828710	-0.117645	0.302255
H196	H	1.328710	0.382355	0.802255
