data_functionalizedCrystal
_audit_creation_method	'MofGen! by Chris Wilmer'
_symmetry_space_group_name_H-M	'P1'
_symmetry_Int_Tables_number	1
_symmetry_cell_setting	triclinic
loop_
_symmetry_equiv_pos_as_xyz
  x,y,z
_cell_length_a	16.992694
_cell_length_b	17.038272
_cell_length_c	15.455313
_cell_angle_alpha	92.858370
_cell_angle_beta	87.142206
_cell_angle_gamma	90.889890
loop_
_atom_site_label
_atom_site_type_symbol
_atom_site_fract_x
_atom_site_fract_y
_atom_site_fract_z
O1	O	1.054714	0.163265	-0.072022
O2	O	1.554714	0.663265	0.427978
O3	O	0.826308	0.161438	-0.072048
O4	O	1.326308	0.661438	0.427952
O5	O	0.939153	0.048451	-0.072029
O6	O	1.439153	0.548451	0.427971
O7	O	0.941869	0.276252	-0.072042
O8	O	1.441869	0.776252	0.427958
O9	O	0.932698	0.054884	0.072232
O10	O	1.432698	0.554884	0.572232
O11	O	0.819853	0.167870	0.072213
O12	O	1.319853	0.667870	0.572213
O13	O	1.048259	0.169698	0.072239
O14	O	1.548259	0.669698	0.572239
Cu15	Cu	0.933466	0.169371	0.085398
Cu16	Cu	1.433466	0.669371	0.585398
Cu17	Cu	0.941100	0.161764	-0.085207
Cu18	Cu	1.441100	0.661764	0.414793
O19	O	0.935414	0.282684	0.072219
O20	O	1.435414	0.782684	0.572219
C21	C	0.793711	0.162304	0.000079
C22	C	1.293711	0.662304	0.500079
C23	C	0.706200	0.155293	0.000070
C24	C	1.206200	0.655293	0.500070
C25	C	0.660471	0.222933	0.000066
C26	C	1.160471	0.722933	0.500066
C27	C	0.578245	0.216342	0.000079
C28	C	1.078245	0.716342	0.500079
C29	C	0.541748	0.142110	0.000088
C30	C	1.041748	0.642110	0.500088
C31	C	0.587482	0.074465	0.000094
C32	C	1.087482	0.574465	0.500094
C33	C	0.669707	0.081058	0.000088
C34	C	1.169707	0.581058	0.500088
C35	C	0.296326	0.114789	0.000113
C36	C	0.796326	0.614789	0.500113
C37	C	0.214095	0.108202	0.000117
C38	C	0.714095	0.608202	0.500117
C39	C	0.204863	0.250079	0.000103
C40	C	0.704863	0.750079	0.500103
C41	C	0.287091	0.256665	0.000091
C42	C	0.787091	0.756665	0.500091
C43	C	0.332818	0.189020	0.000102
C44	C	0.832818	0.689020	0.500102
N45	N	0.457699	0.135371	0.000098
N46	N	0.957699	0.635371	0.500098
N47	N	0.416865	0.195760	0.000098
N48	N	0.916865	0.695760	0.500098
C49	C	0.933456	0.022384	0.000102
C50	C	1.433456	0.522384	0.500102
C51	C	0.926089	-0.064871	0.000101
C52	C	1.426089	0.435129	0.500101
C53	C	0.993729	-0.110741	0.000109
C54	C	1.493729	0.389259	0.500109
C55	C	0.986802	-0.192726	0.000100
C56	C	1.486802	0.307274	0.500100
C57	C	0.912235	-0.228840	0.000089
C58	C	1.412235	0.271160	0.500089
C59	C	0.844590	-0.182964	0.000078
C60	C	1.344590	0.317036	0.500078
C61	C	0.851518	-0.100981	0.000080
C62	C	1.351518	0.399019	0.500080
C63	C	0.887761	-0.476134	0.000074
C64	C	1.387761	0.023866	0.500074
C65	C	0.880838	-0.558124	0.000074
C66	C	1.380838	-0.058124	0.500074
C67	C	1.023051	-0.567881	0.000095
C68	C	1.523051	-0.067881	0.500095
C69	C	1.029972	-0.485895	0.000103
C70	C	1.529972	0.014105	0.500103
C71	C	0.962327	-0.440026	0.000087
C72	C	1.462327	0.059974	0.500087
C73	C	0.905153	-0.312642	0.000082
C74	C	1.405153	0.187358	0.500082
C75	C	0.969410	-0.356226	0.000087
C76	C	1.469410	0.143774	0.500087
C77	C	1.080856	0.168831	0.000109
C78	C	1.580856	0.668831	0.500109
C79	C	1.168367	0.175842	0.000113
C80	C	1.668367	0.675842	0.500113
C81	C	0.941110	0.308751	0.000087
C82	C	1.441110	0.808751	0.500087
C83	C	0.948478	0.396006	0.000082
C84	C	1.448478	0.896006	0.500082
N85	N	0.928103	0.174722	0.205393
N86	N	1.428103	0.674722	0.705393
N87	N	0.946469	0.156408	-0.205202
N88	N	1.446469	0.656408	0.294798
C89	C	0.976063	0.126741	0.250795
C90	C	1.476063	0.626741	0.750795
C91	C	0.972014	0.130795	0.341602
C92	C	1.472014	0.630795	0.841602
C93	C	0.920010	0.182835	0.387005
C94	C	1.420010	0.682835	0.887005
C95	C	0.872045	0.230817	0.341597
C96	C	1.372045	0.730817	0.841597
C97	C	0.876090	0.226759	0.250791
C98	C	1.376090	0.726759	0.750791
C99	C	0.902549	0.200332	0.658584
C100	C	1.402549	0.700332	1.158584
C101	C	0.898510	0.204388	0.749396
C102	C	1.398510	0.704388	1.249396
C103	C	0.998479	0.104365	0.749395
C104	C	1.498479	0.604365	1.249395
C105	C	1.002522	0.100314	0.658588
C106	C	1.502522	0.600314	1.158588
C107	C	0.954554	0.148294	0.613187
C108	C	1.454554	0.648294	1.113187
N109	N	0.915872	0.186981	0.479825
N110	N	1.415872	0.686981	0.979825
N111	N	0.958688	0.144143	0.520369
N112	N	1.458688	0.644143	1.020369
H113	H	0.333548	0.059707	0.000122
H114	H	0.833548	0.559707	0.500122
C115	C	0.762568	-0.222687	0.000068
C116	C	1.262568	0.277313	0.500068
H117	H	0.768128	-0.278083	0.000077
H118	H	1.268128	0.221917	0.500077
H119	H	0.736736	-0.209488	-0.050241
H120	H	1.236736	0.290512	0.449759
H121	H	0.732239	-0.205003	0.050379
H122	H	1.232239	0.294997	0.550379
C123	C	0.841302	0.261631	0.799342
C124	C	1.341302	0.761631	1.299342
H125	H	0.845772	0.257182	0.859924
H126	H	1.345772	0.757182	1.359924
H127	H	0.788846	0.249125	0.784476
H128	H	1.288846	0.749125	1.284476
H129	H	0.854011	0.313908	0.784448
H130	H	1.354011	0.813908	1.284448
H131	H	1.044869	0.057940	0.621622
H132	H	1.544869	0.557940	1.121622
C133	C	0.547338	-0.007188	0.000103
C134	C	1.047338	0.492812	0.500103
H135	H	0.491819	-0.001428	0.000097
H136	H	0.991819	0.498572	0.500097
H137	H	0.560466	-0.033013	0.050410
H138	H	1.060466	0.466987	0.550410
H139	H	0.564957	-0.037496	-0.050210
H140	H	1.064957	0.462504	0.449790
C141	C	0.527944	0.290744	0.000066
C142	C	1.027944	0.790744	0.500066
H143	H	0.473746	0.276189	0.000080
H144	H	0.973746	0.776189	0.500080
H145	H	0.541766	0.318722	-0.050247
H146	H	1.041766	0.818722	0.449753
H147	H	0.537279	0.323219	0.050373
H148	H	1.037279	0.823219	0.550373
H149	H	1.041882	-0.230070	0.000109
H150	H	1.541882	0.269930	0.500109
C151	C	1.051230	0.051585	0.799337
C152	C	1.551230	0.551585	1.299337
H153	H	1.041371	0.061448	0.859920
H154	H	1.541371	0.561448	1.359920
H155	H	1.105012	0.062756	0.784447
H156	H	1.605012	0.562756	1.284447
H157	H	1.039840	-0.002020	0.784464
H158	H	1.539840	0.497980	1.284464
H159	H	0.863493	0.239400	0.621625
H160	H	1.363493	0.739400	1.121625
H161	H	0.796438	-0.063634	0.000073
H162	H	1.296438	0.436366	0.500073
C163	C	1.051431	-0.316507	0.000101
C164	C	1.551431	0.183493	0.500101
H165	H	1.090728	-0.355564	0.000103
H166	H	1.590728	0.144436	0.500103
H167	H	1.054831	-0.282486	0.050409
H168	H	1.554831	0.217514	0.550409
H169	H	1.059340	-0.286969	-0.050211
H170	H	1.559340	0.213031	0.449789
H171	H	1.011066	0.091725	0.378568
H172	H	1.511066	0.591725	0.878568
H173	H	0.844440	-0.342055	0.000075
H174	H	1.344440	0.157945	0.500075
C175	C	0.798812	-0.597849	0.000047
C176	C	1.298812	-0.097849	0.500047
H177	H	0.759517	-0.558790	0.000027
H178	H	1.259517	-0.058790	0.500027
H179	H	0.790894	-0.627390	0.050350
H180	H	1.290894	-0.127390	0.550350
H181	H	0.795418	-0.631866	-0.050270
H182	H	1.295418	-0.131866	0.449730
H183	H	0.316801	0.317112	0.000074
H184	H	0.816801	0.817112	0.500074
C185	C	1.097453	-0.618337	0.000099
C186	C	1.597453	-0.118337	0.500099
H187	H	1.082651	-0.672337	0.000088
H188	H	1.582651	-0.172337	0.500088
H189	H	1.125557	-0.604668	0.050407
H190	H	1.625557	-0.104668	0.550407
H191	H	1.130050	-0.609144	-0.050213
H192	H	1.630050	-0.109144	0.449787
H193	H	0.167624	0.305152	0.000096
H194	H	0.667624	0.805152	0.500096
H195	H	0.706939	0.025978	0.000090
H196	H	1.206939	0.525978	0.500090
H197	H	0.832680	-0.438798	0.000062
H198	H	1.332680	0.061202	0.500062
H199	H	0.837035	0.265828	0.213825
H200	H	1.337035	0.765828	0.713825
H201	H	1.054449	-0.081343	0.000124
H202	H	1.554449	0.418657	0.500124
C203	C	1.111996	-0.446175	0.000104
C204	C	1.611996	0.053825	0.500104
H205	H	1.151289	-0.485237	0.000098
H206	H	1.651289	0.014763	0.500098
H207	H	1.115407	-0.412154	0.050410
H208	H	1.615407	0.087846	0.550410
H209	H	1.119900	-0.416640	-0.050211
H210	H	1.619900	0.083360	0.449789
H211	H	0.690181	0.283381	0.000058
H212	H	1.190181	0.783381	0.500058
H213	H	1.018414	0.084369	0.213834
H214	H	1.518414	0.584369	0.713834
C215	C	0.814842	0.288060	0.391537
C216	C	1.314842	0.788060	0.891537
H217	H	0.819308	0.283613	0.452121
H218	H	1.319308	0.783613	0.952121
H219	H	0.762387	0.275557	0.376667
H220	H	1.262387	0.775557	0.876667
H221	H	0.827556	0.340336	0.376642
H222	H	1.327556	0.840336	0.876642
H223	H	0.184383	0.047750	0.000123
H224	H	0.684383	0.547750	0.500123
