data_functionalizedCrystal
_audit_creation_method	'MofGen! by Chris Wilmer'
_symmetry_space_group_name_H-M	'P1'
_symmetry_Int_Tables_number	1
_symmetry_cell_setting	triclinic
loop_
_symmetry_equiv_pos_as_xyz
  x,y,z
_cell_length_a	16.109301
_cell_length_b	15.944551
_cell_length_c	14.586319
_cell_angle_alpha	89.995256
_cell_angle_beta	89.999213
_cell_angle_gamma	83.480109
loop_
_atom_site_label
_atom_site_type_symbol
_atom_site_fract_x
_atom_site_fract_y
_atom_site_fract_z
O1	O	1.103166	0.107966	-0.076184
O2	O	0.861108	0.121403	-0.076199
O3	O	0.988747	-0.007593	-0.076183
O4	O	0.975527	0.236961	-0.076200
O5	O	0.988738	-0.007595	0.076298
O6	O	0.861099	0.121401	0.076282
O7	O	1.103157	0.107964	0.076296
Cu8	Cu	0.982127	0.114682	0.090212
Cu9	Cu	0.982138	0.114685	-0.090114
O10	O	0.975518	0.236960	0.076280
C11	C	0.830129	0.120857	0.000039
C12	C	0.737833	0.119226	0.000034
C13	C	0.988194	-0.038887	0.000057
C14	C	0.986548	-0.132133	0.000058
C15	C	0.515584	0.191975	0.000040
C16	C	0.428863	0.190435	0.000046
C17	C	0.448688	0.037387	0.000053
C18	C	0.535407	0.038927	0.000053
C19	C	0.568853	0.116224	0.000042
C20	C	0.395412	0.113143	0.000047
C21	C	0.301386	0.111473	0.000054
C22	C	0.662885	0.117894	0.000037
C23	C	0.903499	-0.346962	0.000040
C24	C	0.942060	-0.407993	0.075225
C25	C	0.983572	-0.302858	0.000051
C26	C	0.942088	-0.407975	-0.075109
C27	C	0.980691	-0.467769	0.000040
C28	C	1.022155	-0.362660	0.075297
C29	C	1.022171	-0.362636	-0.075104
C30	C	1.060790	-0.423649	0.000099
C31	C	0.985229	-0.207856	0.000058
C32	C	0.979039	-0.562770	0.000039
C33	C	1.134136	0.108510	0.000056
C34	C	1.226432	0.110141	0.000055
C35	C	0.976071	0.268254	0.000038
C36	C	0.977717	0.361500	0.000031
N37	N	0.982126	0.114680	0.217044
N38	N	0.982146	0.114680	-0.216946
C39	C	1.038663	0.057580	0.452057
C40	C	1.038666	0.057578	0.548038
C41	C	0.925602	0.171783	0.548034
C42	C	0.925597	0.171780	0.452054
C43	C	0.982132	0.114680	0.404068
C44	C	0.982140	0.114680	0.596029
C45	C	0.982142	0.114679	0.700096
C46	C	0.982129	0.114680	0.299995
H47	H	0.542812	0.254914	0.000037
H48	H	1.127313	-0.456830	0.000145
C49	C	1.067890	-0.335451	-0.160974
N50	N	1.102319	-0.314972	-0.225659
C51	C	0.370271	0.273767	0.000047
N52	N	0.326139	0.336537	0.000051
H53	H	0.421446	-0.025546	0.000067
C54	C	0.594007	-0.044409	0.000056
N55	N	0.638144	-0.107176	0.000061
C56	C	1.100847	-0.005238	0.399276
N57	N	1.147682	-0.052558	0.359524
C58	C	0.813712	-0.301928	0.000137
N59	N	0.746087	-0.268006	0.000216
C60	C	0.896301	-0.435149	0.161087
N61	N	0.861830	-0.455601	0.225755
C62	C	1.067862	-0.335673	0.161265
N63	N	1.102284	-0.315343	0.226017
C64	C	0.896322	-0.435093	-0.160978
N65	N	0.861845	-0.455515	-0.225651
H66	H	0.879574	0.218274	0.587113
C67	C	1.100848	-0.005243	0.600822
N68	N	1.147684	-0.052565	0.640577
C69	C	0.863442	0.234635	0.399263
N70	N	0.816642	0.281988	0.359501
