data_functionalizedCrystal
_audit_creation_method	'MofGen! by Chris Wilmer'
_symmetry_space_group_name_H-M	'P1'
_symmetry_Int_Tables_number	1
_symmetry_cell_setting	triclinic
loop_
_symmetry_equiv_pos_as_xyz
  x,y,z
_cell_length_a	21.295419
_cell_length_b	21.295417
_cell_length_c	12.759387
_cell_angle_alpha	89.960308
_cell_angle_beta	89.978804
_cell_angle_gamma	90.045308
loop_
_atom_site_label
_atom_site_type_symbol
_atom_site_fract_x
_atom_site_fract_y
_atom_site_fract_z
Zn1	Zn	0.962335	-0.250320	-0.594016
Zn2	Zn	0.962243	-0.355605	-0.418312
Zn3	Zn	0.857064	-0.250381	-0.418345
Zn4	Zn	0.857027	-0.355583	-0.593944
O5	O	0.909667	-0.302972	-0.506154
O6	O	1.050412	-0.264270	-0.570724
O7	O	0.948268	-0.341682	-0.271295
O8	O	0.871082	-0.162284	-0.441692
O9	O	1.050345	-0.341623	-0.441636
O10	O	0.948424	-0.162239	-0.570756
O11	O	0.870993	-0.264374	-0.271320
O12	O	0.768970	-0.264352	-0.441623
O13	O	0.871020	-0.341585	-0.740975
O14	O	0.768943	-0.341644	-0.570634
O15	O	0.948389	-0.264249	-0.741027
O16	O	0.948233	-0.443692	-0.441567
O17	O	0.870931	-0.443675	-0.570602
C18	C	0.746116	-0.303003	-0.506125
C19	C	0.676148	-0.303031	-0.506137
C20	C	0.909585	-0.466524	-0.506096
C21	C	0.909607	-0.536492	-0.506106
C22	C	0.643339	-0.262819	-0.573457
C23	C	0.577596	-0.262802	-0.573461
C24	C	0.544665	-0.303008	-0.506156
C25	C	0.577482	-0.343222	-0.438823
C26	C	0.643224	-0.343234	-0.438813
N27	N	0.441390	-0.358087	-0.497945
N28	N	0.378939	-0.358074	-0.497960
C29	C	0.346591	-0.302975	-0.506179
N30	N	0.379053	-0.247888	-0.514403
N31	N	0.441510	-0.247902	-0.514393
C32	C	0.473380	-0.303000	-0.506159
C33	C	0.242496	-0.262742	-0.573508
C34	C	0.176752	-0.262724	-0.573504
C35	C	0.176640	-0.343150	-0.438871
C36	C	0.242382	-0.343162	-0.438869
C37	C	0.275306	-0.302959	-0.506193
C38	C	0.949894	-0.569346	-0.438986
C39	C	0.949923	-0.635089	-0.439010
C40	C	0.909655	-0.667975	-0.506143
C41	C	0.869365	-0.635112	-0.573276
C42	C	0.869342	-0.569371	-0.573258
N43	N	0.854588	-0.771254	-0.514142
N44	N	0.854612	-0.833705	-0.514153
C45	C	0.909725	-0.866049	-0.506203
N46	N	0.964815	-0.833582	-0.498220
N47	N	0.964789	-0.771125	-0.498204
C48	C	0.909677	-0.739260	-0.506170
C49	C	0.950048	-0.970189	-0.439105
C50	C	0.950078	-1.035933	-0.439136
C51	C	0.869515	-1.035955	-0.573396
C52	C	0.869490	-0.970212	-0.573371
C53	C	0.909755	-0.937333	-0.506219
C54	C	1.073858	-0.302942	-0.506184
C55	C	1.143826	-0.302930	-0.506197
C56	C	0.909767	-0.138782	-0.506236
C57	C	0.909810	-0.068814	-0.506270
C58	C	0.909710	-0.302907	-0.780188
C59	C	0.909728	-0.302880	-0.896965
C60	C	0.829267	-0.222374	-0.897009
C61	C	0.789049	-0.182108	-0.951892
C62	C	0.789067	-0.182085	-1.061613
C63	C	0.829308	-0.222334	-1.116455
C64	C	0.869527	-0.262599	-1.061572
C65	C	0.869505	-0.262616	-0.951848
C66	C	0.949984	-0.343107	-1.061528
C67	C	0.949969	-0.343128	-0.951806
C68	C	0.990225	-0.383356	-1.116369
C69	C	1.030448	-0.423619	-1.061486
C70	C	1.030428	-0.423640	-0.951758
C71	C	0.990188	-0.383394	-0.896923
C72	C	0.909661	-0.302992	-0.233187
C73	C	0.909765	-0.302842	-0.116411
H74	H	0.670141	-0.230082	-0.628277
C75	C	0.278474	-0.387403	-0.364827
H76	H	0.249448	-0.411350	-0.324748
H77	H	0.304132	-0.363297	-0.319121
H78	H	0.304102	-0.414865	-0.404938
H79	H	1.063181	-0.456427	-0.907079
H80	H	0.836730	-1.062730	-0.628062
H81	H	0.150040	-0.229975	-0.628323
H82	H	0.269304	-0.230002	-0.628320
H83	H	0.836535	-0.542620	-0.627916
C84	C	1.074710	-0.467885	-1.121806
H85	H	1.098661	-0.491869	-1.073409
H86	H	1.102157	-0.443793	-1.164632
H87	H	1.050614	-0.495312	-1.164583
C88	C	0.994191	-0.533183	-0.365135
H89	H	1.018193	-0.562170	-0.325170
H90	H	0.970121	-0.507586	-0.319314
H91	H	1.021600	-0.507489	-0.405369
C92	C	0.744789	-0.137836	-0.891565
H93	H	0.750541	-0.143610	-0.818358
H94	H	0.702490	-0.147045	-0.909535
H95	H	0.754042	-0.095535	-0.909577
H96	H	0.990170	-0.383404	-0.807582
C97	C	0.825070	-0.671284	-0.647118
H98	H	0.830849	-0.715143	-0.637508
H99	H	0.834255	-0.660464	-0.717720
H100	H	0.782774	-0.660565	-0.631667
H101	H	0.982837	-0.943418	-0.384429
H102	H	0.829253	-0.222383	-0.807667
H103	H	0.829314	-0.222317	-1.205796
C104	C	0.744827	-0.137799	-1.121991
H105	H	0.750600	-0.143556	-1.195191
H106	H	0.754061	-0.095505	-1.104042
H107	H	0.702520	-0.147025	-1.104002
C108	C	0.541495	-0.218571	-0.647518
H109	H	0.497627	-0.224321	-0.637876
H110	H	0.552279	-0.227837	-0.718077
H111	H	0.552303	-0.176263	-0.632272
H112	H	0.982888	-1.062682	-0.384480
H113	H	0.982732	-0.661844	-0.384353
C114	C	0.825166	-0.934071	-0.647190
H115	H	0.801183	-0.963070	-0.687170
H116	H	0.849218	-0.908371	-0.692998
H117	H	0.797740	-0.908480	-0.606940
C118	C	0.541261	-0.387450	-0.364794
H119	H	0.497409	-0.381690	-0.374449
H120	H	0.552022	-0.378193	-0.294229
H121	H	0.552001	-0.429760	-0.380046
C122	C	0.679315	-0.387474	-0.364767
H123	H	0.650290	-0.411420	-0.324685
H124	H	0.704976	-0.363370	-0.319063
H125	H	0.704941	-0.414937	-0.404881
C126	C	0.140424	-0.387379	-0.364842
H127	H	0.096571	-0.381617	-0.374493
H128	H	0.151187	-0.378124	-0.294277
H129	H	0.151162	-0.429688	-0.380099
C130	C	0.990061	-0.383522	-1.237058
H131	H	1.019725	-0.413318	-1.261856
H132	H	1.000923	-0.342952	-1.262237
H133	H	0.949376	-0.394466	-1.261539
