data_functionalizedCrystal
_audit_creation_method	'MofGen! by Chris Wilmer'
_symmetry_space_group_name_H-M	'P1'
_symmetry_Int_Tables_number	1
_symmetry_cell_setting	triclinic
loop_
_symmetry_equiv_pos_as_xyz
  x,y,z
_cell_length_a	12.594517
_cell_length_b	19.121063
_cell_length_c	12.594509
_cell_angle_alpha	87.594190
_cell_angle_beta	90.021327
_cell_angle_gamma	92.468805
loop_
_atom_site_label
_atom_site_type_symbol
_atom_site_fract_x
_atom_site_fract_y
_atom_site_fract_z
Zn1	Zn	1.609106	-0.279596	0.619881
Zn2	Zn	1.601367	-0.397059	0.449473
Zn3	Zn	1.431108	-0.279626	0.441911
Zn4	Zn	1.423466	-0.397010	0.627400
O5	O	1.516262	-0.338323	0.534666
O6	O	1.757025	-0.295185	0.597293
O7	O	1.578742	-0.381514	0.299526
O8	O	1.461157	-0.181338	0.459208
O9	O	1.751339	-0.381485	0.472096
O10	O	1.591931	-0.181315	0.589961
O11	O	1.453653	-0.295237	0.293971
O12	O	1.281149	-0.295189	0.466499
O13	O	1.448132	-0.381402	0.775346
O14	O	1.275534	-0.381431	0.602777
O15	O	1.584521	-0.295138	0.769822
O16	O	1.571331	-0.495337	0.479386
O17	O	1.440628	-0.495301	0.610109
C18	C	1.239722	-0.338309	0.534634
C19	C	1.121416	-0.338319	0.534646
C20	C	1.055190	-0.291349	0.460657
C21	C	0.980217	-0.355414	0.438606
C22	C	0.985587	-0.274285	0.556717
C23	C	1.047999	-0.402419	0.512547
C24	C	1.053378	-0.321246	0.630701
C25	C	0.978435	-0.385356	0.608690
C26	C	1.504339	-0.520803	0.546407
C27	C	1.499336	-0.598868	0.551466
C28	C	1.565089	-0.635539	0.485838
C29	C	1.560390	-0.708890	0.490602
C30	C	1.489932	-0.745569	0.560988
C31	C	1.424176	-0.708893	0.626623
C32	C	1.428881	-0.635544	0.621864
C33	C	1.472323	-0.967038	0.578765
C34	C	1.467620	-1.040393	0.583517
C35	C	1.603835	-1.040385	0.447497
C36	C	1.608530	-0.967034	0.442740
C37	C	1.542779	-0.930365	0.508378
C38	C	1.485124	-0.820546	0.565857
C39	C	1.547592	-0.855389	0.503514
C40	C	1.793882	-0.338337	0.534699
C41	C	1.912187	-0.338343	0.534713
C42	C	1.516337	-0.338261	0.812283
C43	C	1.516369	-0.338235	0.930587
C44	C	1.528260	-0.155130	0.522903
C45	C	1.533373	-0.077064	0.517890
C46	C	1.516251	-0.338333	0.258126
C47	C	1.516438	-0.338162	0.139810
C48	C	1.442211	-0.385127	1.002843
C49	C	1.538217	-0.402288	1.074740
C50	C	1.420442	-0.321032	1.069487
C51	C	1.612424	-0.355429	1.000927
C52	C	1.494585	-0.274143	0.995667
C53	C	1.590659	-0.291280	1.067530
H54	H	0.945025	-0.425134	0.671292
H55	H	1.085502	-0.306771	0.711878
H56	H	1.339288	-0.306512	1.099641
O57	O	1.676828	-0.931378	0.374252
C58	C	1.696540	-0.848603	0.225227
C59	C	1.619077	-0.888950	0.302710
H60	H	1.649881	-0.814279	0.167381
H61	H	1.742710	-0.887385	0.179063
H62	H	1.754395	-0.814238	0.271935
H63	H	1.561157	-0.923315	0.256084
H64	H	1.572984	-0.850129	0.348876
O65	O	1.624484	-0.744382	0.426897
C66	C	1.804215	-0.766612	0.376966
C67	C	1.731699	-0.726397	0.449160
H68	H	1.890913	-0.752098	0.394956
H69	H	1.786606	-0.752208	0.290176
H70	H	1.788802	-0.825349	0.392374
H71	H	1.747071	-0.667652	0.433847
H72	H	1.749323	-0.740860	0.535927
H73	H	1.653471	-0.251593	1.095834
H74	H	0.957978	-0.220129	0.575322
H75	H	1.622458	-0.605680	0.428518
O76	O	1.667751	-1.075898	0.383640
C77	C	1.803408	-1.068148	0.248281
C78	C	1.731060	-1.027844	0.320520
H79	H	1.854628	-1.029313	0.197246
H80	H	1.752424	-1.102524	0.194737
H81	H	1.856789	-1.102452	0.299445
H82	H	1.677666	-0.993501	0.269440
H83	H	1.782108	-0.993511	0.374070
H84	H	1.088788	-0.251666	0.398014
O85	O	1.080577	-0.467059	0.490043
C86	C	1.079494	-0.558303	0.363714
C87	C	1.042504	-0.485103	0.389079
H88	H	1.048745	-0.572909	0.282076
H89	H	1.047153	-0.598422	0.426375
H90	H	1.170043	-0.557747	0.363891
H91	H	0.951962	-0.485591	0.388888
H92	H	1.074923	-0.445015	0.326414
H93	H	1.410257	-1.070255	0.640852
H94	H	1.418783	-0.937188	0.632208
H95	H	1.366812	-0.738763	0.683937
H96	H	0.948119	-0.369870	0.357403
O97	O	1.364905	-0.600028	0.685658
C98	C	1.229360	-0.607772	0.821131
C99	C	1.301730	-0.648079	0.748916
H100	H	1.178281	-0.646604	0.872310
H101	H	1.175857	-0.573502	0.770050
H102	H	1.280431	-0.573362	0.874549
H103	H	1.250742	-0.682528	0.695486
H104	H	1.355239	-0.682306	0.800061
H105	H	1.604963	-0.825523	0.446209
H106	H	1.427755	-0.850418	0.623164
H107	H	1.379541	-0.424844	0.974345
O108	O	1.472339	-0.209561	0.954405
C109	C	1.346024	-0.118429	0.942489
C110	C	1.371088	-0.191580	0.989272
H111	H	1.264173	-0.103862	0.970678
H112	H	1.346913	-0.118948	0.852011
H113	H	1.408479	-0.078298	0.970202
H114	H	1.308660	-0.231752	0.961639
H115	H	1.370237	-0.191003	1.079744
H116	H	1.556680	-0.456457	1.109336
O117	O	1.709186	-0.372851	0.964948
C118	C	1.817724	-0.392393	0.812384
C119	C	1.708090	-0.372667	0.852989
H120	H	1.816881	-0.392236	0.721861
H121	H	1.836495	-0.446845	0.845617
H122	H	1.880990	-0.352648	0.839623
H123	H	1.644753	-0.412364	0.825765
H124	H	1.689410	-0.318197	0.819764
