data_functionalizedCrystal
_audit_creation_method	'MofGen! by Chris Wilmer'
_symmetry_space_group_name_H-M	'P1'
_symmetry_Int_Tables_number	1
_symmetry_cell_setting	triclinic
loop_
_symmetry_equiv_pos_as_xyz
  x,y,z
_cell_length_a	10.723024
_cell_length_b	26.210047
_cell_length_c	27.732064
_cell_angle_alpha	90.000589
_cell_angle_beta	83.558646
_cell_angle_gamma	90.016140
loop_
_atom_site_label
_atom_site_type_symbol
_atom_site_fract_x
_atom_site_fract_y
_atom_site_fract_z
O1	O	1.654415	0.042421	0.067789
O2	O	1.290995	0.042422	0.074277
O3	O	1.483982	0.042423	0.000707
O4	O	1.461429	0.042419	0.141359
O5	O	1.483921	-0.042435	0.000707
O6	O	1.290935	-0.042436	0.074277
O7	O	1.654355	-0.042438	0.067788
Cu8	Cu	1.472640	-0.050185	0.071033
Cu9	Cu	1.472711	0.050169	0.071033
O10	O	1.461369	-0.042439	0.141359
C11	C	1.244485	-0.000007	0.073805
C12	C	1.105989	-0.000006	0.072392
N13	N	1.472599	-0.120769	0.071032
C14	C	1.029309	-0.000007	0.113558
C15	C	0.886166	-0.000006	0.112099
C16	C	1.547809	-0.473284	0.100610
C17	C	1.547846	-0.686943	0.100610
O18	O	1.611763	-0.714566	0.125752
N19	N	1.472741	-0.713663	0.071028
C20	C	1.397627	-0.686965	0.041442
O21	O	1.333757	-0.714595	0.016278
C22	C	1.397598	-0.473307	0.041440
C23	C	1.472698	-0.446590	0.071027
C24	C	1.622904	-0.446567	0.130194
C25	C	1.622889	-0.393155	0.130196
C26	C	1.547778	-0.366461	0.100613
C27	C	1.472683	-0.393179	0.071029
C28	C	1.322492	-0.446611	0.011852
C29	C	1.322494	-0.393193	0.011854
C30	C	1.397594	-0.366475	0.041441
C31	C	1.397558	-0.313073	0.041448
N32	N	1.472663	-0.286353	0.071030
C33	C	1.547773	-0.313047	0.100612
C34	C	1.397646	-0.799138	0.041446
C35	C	1.397652	-0.852553	0.041447
C36	C	1.547872	-0.852527	0.100614
C37	C	1.547859	-0.799112	0.100615
C38	C	1.472751	-0.772418	0.071028
C39	C	1.547735	-0.200879	0.100614
C40	C	1.547709	-0.147463	0.100615
C41	C	1.397494	-0.147494	0.041446
C42	C	1.397514	-0.200905	0.041447
C43	C	1.472644	-0.227597	0.071033
O44	O	1.333684	-0.285417	0.016315
O45	O	1.611655	-0.285408	0.125765
C46	C	1.547824	-0.526696	0.100608
C47	C	1.472729	-0.553413	0.071024
C48	C	1.397618	-0.526719	0.041442
C49	C	1.472734	-0.606827	0.071025
C50	C	1.547844	-0.633521	0.100608
C51	C	1.622949	-0.606801	0.130189
C52	C	1.622934	-0.553390	0.130191
C53	C	1.322513	-0.553439	0.011860
C54	C	1.322533	-0.606850	0.011861
C55	C	1.397644	-0.633545	0.041444
C56	C	1.700865	-0.000008	0.068261
C57	C	1.839361	-0.000005	0.069673
C58	C	1.483475	-0.000004	-0.017303
C59	C	1.482040	0.000000	-0.070966
N60	N	1.472762	0.120753	0.071030
C61	C	1.358225	0.000003	-0.448808
C62	C	1.363507	0.000004	-0.247115
O63	O	1.267431	0.000024	-0.216459
N64	N	1.477944	0.000003	-0.227277
C65	C	1.591069	0.000006	-0.257865
O66	O	1.688526	0.000011	-0.236364
C67	C	1.585786	0.000009	-0.459558
C68	C	1.471341	0.000004	-0.479393
C69	C	1.243790	-0.000001	-0.468644
C70	C	1.242471	-0.000004	-0.519064
C71	C	1.355587	-0.000003	-0.549649
C72	C	1.470022	0.000001	-0.529813
C73	C	1.698910	0.000016	-0.490145
C74	C	1.697579	0.000018	-0.540571
C75	C	1.583134	0.000013	-0.560406
C76	C	1.581819	-0.000000	-0.610818
N77	N	1.467382	-0.000000	-0.630656
C78	C	1.354266	-0.000001	-0.600071
C79	C	1.593835	0.000003	-0.151974
C80	C	1.595156	0.000002	-0.101551
C81	C	1.367593	0.000000	-0.090804
C82	C	1.366273	-0.000002	-0.141228
C83	C	1.479398	0.000004	-0.171812
C84	C	1.351504	-0.000008	-0.705958
C85	C	1.350195	-0.000013	-0.756383
C86	C	1.577757	-0.000009	-0.767126
C87	C	1.579067	-0.000006	-0.716705
C88	C	1.465930	-0.000004	-0.686122
O89	O	1.677844	-0.000015	-0.641503
O90	O	1.256823	0.000005	-0.621582
C91	C	1.359544	0.000006	-0.398388
C92	C	1.473980	0.000010	-0.378552
C93	C	1.587096	0.000011	-0.409137
C94	C	1.475301	0.000008	-0.328129
C95	C	1.362185	0.000007	-0.297545
C96	C	1.247748	0.000007	-0.317383
C97	C	1.246428	0.000005	-0.367803
C98	C	1.701533	0.000011	-0.389299
C99	C	1.702843	0.000013	-0.338878
C100	C	1.589727	0.000012	-0.308293
C101	C	1.461876	-0.000010	0.159369
C102	C	1.463311	-0.000012	0.213032
H103	H	0.820280	-0.000005	0.147341
N104	N	1.082699	-0.000009	0.161678
H105	H	1.135983	-0.031466	0.164163
H106	H	1.135967	0.031469	0.164133
H107	H	1.672257	-0.000010	-0.700555
H108	H	1.336338	-0.125750	0.017362
H109	H	1.065665	0.000008	0.036068
H110	H	1.261350	-0.531710	-0.012231
H111	H	0.905240	-0.000001	0.034430
N112	N	1.628714	-0.118647	0.132527
H113	H	1.676301	-0.143666	0.151264
H114	H	1.690108	-0.096476	0.111669
H115	H	1.608913	-0.222605	0.124705
H116	H	1.336346	-0.222660	0.017361
H117	H	1.684049	-0.371407	0.154287
H118	H	1.261339	-0.468355	-0.012241
H119	H	1.684074	-0.468296	0.154284
H120	H	1.688348	-0.000002	-0.085406
H121	H	1.609011	-0.777362	0.124708
N122	N	1.703941	-0.524577	0.162100
H123	H	1.751521	-0.549599	0.180837
H124	H	1.765341	-0.502408	0.141243
H125	H	1.609025	-0.874270	0.124703
N126	N	1.316648	-0.881366	0.009537
H127	H	1.269076	-0.856346	-0.009204
H128	H	1.371517	-0.903518	-0.013898
N129	N	1.316633	-0.770351	0.009532
H130	H	1.269060	-0.795388	-0.009204
H131	H	1.255226	-0.748197	0.030387
H132	H	1.261332	-0.371462	-0.012241
N133	N	1.703957	-0.635598	0.162099
H134	H	1.692561	-0.673489	0.157605
H135	H	1.794882	-0.626251	0.152870
H136	H	1.261365	-0.628599	-0.012231
N137	N	1.226754	-0.000024	-0.777777
H138	H	1.155298	-0.000024	-0.750747
H139	H	1.221259	0.031431	-0.798466
H140	H	1.259377	-0.000006	-0.681063
H141	H	1.669853	-0.000010	-0.792037
H142	H	1.149278	-0.000004	-0.535209
N143	N	1.823549	0.000007	-0.422279
H144	H	1.828053	-0.031452	-0.443436
H145	H	1.828039	0.031482	-0.443412
N146	N	1.121776	-0.000001	-0.435660
H147	H	1.049093	-0.000004	-0.455885
H148	H	1.117342	-0.031461	-0.414507
N149	N	1.242839	-0.000009	-0.162620
H150	H	1.171388	-0.000012	-0.135589
H151	H	1.237342	0.031449	-0.183305
H152	H	1.275490	-0.000003	-0.065893
H153	H	1.685960	0.000007	-0.176872
N154	N	1.819594	0.000025	-0.573558
H155	H	1.892286	0.000028	-0.553338
H156	H	1.823992	-0.031433	-0.594712
H157	H	1.792103	0.000020	-0.474005
H158	H	1.796045	0.000013	-0.322733
N159	N	1.122991	-0.000005	-0.389193
H160	H	1.051543	-0.000006	-0.362161
H161	H	1.117490	0.031452	-0.409881
H162	H	1.155644	0.000003	-0.292472
