data_functionalizedCrystal
_audit_creation_method	'MofGen! by Chris Wilmer'
_symmetry_space_group_name_H-M	'P1'
_symmetry_Int_Tables_number	1
_symmetry_cell_setting	triclinic
loop_
_symmetry_equiv_pos_as_xyz
  x,y,z
_cell_length_a	10.489741
_cell_length_b	10.489711
_cell_length_c	8.140239
_cell_angle_alpha	90.000176
_cell_angle_beta	89.999967
_cell_angle_gamma	84.533091
loop_
_atom_site_label
_atom_site_type_symbol
_atom_site_fract_x
_atom_site_fract_y
_atom_site_fract_z
O1	O	1.694031	0.179968	-0.136497
O2	O	1.322834	0.196861	-0.136521
O3	O	1.516899	0.002815	-0.136513
O4	O	1.499966	0.374015	-0.136505
O5	O	1.516888	0.002812	0.136714
O6	O	1.322823	0.196859	0.136706
O7	O	1.694021	0.179966	0.136730
Zn8	Zn	1.508420	0.188412	0.180099
Zn9	Zn	1.508434	0.188415	-0.179890
O10	O	1.499956	0.374013	0.136722
C11	C	1.515623	-0.044719	0.000096
C12	C	1.511821	-0.186350	0.000082
C13	C	1.275297	0.195584	0.000089
C14	C	1.133668	0.191767	0.000079
C15	C	1.628525	-0.368737	0.000106
C16	C	1.570224	-0.276594	0.134816
C17	C	1.570204	-0.276615	-0.134565
C18	C	1.446682	-0.346545	0.134934
C19	C	1.446678	-0.346576	-0.134567
C20	C	1.388288	-0.254461	0.000176
C21	C	1.065541	0.068301	0.000092
C22	C	0.973413	0.126626	-0.134618
C23	C	0.973437	0.126653	0.134762
C24	C	1.043406	0.250143	-0.134743
C25	C	1.043438	0.250153	0.134759
C26	C	0.951338	0.308568	0.000015
C27	C	1.741558	0.181243	0.000116
C28	C	1.883187	0.185060	0.000115
C29	C	1.501232	0.421546	0.000109
C30	C	1.505034	0.563178	0.000113
N31	N	1.508420	0.188409	0.425781
N32	N	1.508445	0.188408	-0.425572
H33	H	1.730027	-0.418427	0.000245
H34	H	1.622483	-0.245655	-0.248449
O35	O	0.932416	0.057438	0.285635
H36	H	0.882958	-0.026764	0.247693
O37	O	1.131268	-0.066187	-0.000072
H38	H	1.192659	-0.080280	-0.110876
O39	O	0.932319	0.057436	-0.285473
H40	H	0.978467	-0.042280	-0.285200
O41	O	1.084226	0.319243	-0.285812
H42	H	1.189799	0.321477	-0.284685
H43	H	1.622473	-0.245608	0.248710
O44	O	0.885862	0.443157	-0.000045
H45	H	0.913899	0.494088	-0.111972
H46	H	1.286696	-0.204995	0.000244
O47	O	1.377534	-0.387340	0.285979
H48	H	1.375257	-0.492908	0.284842
O49	O	1.084579	0.319281	0.285627
H50	H	0.999223	0.350081	0.361458
O51	O	1.377559	-0.387742	-0.285429
H52	H	1.429031	-0.360063	-0.397097
