data_functionalizedCrystal
_audit_creation_method	'MofGen! by Chris Wilmer'
_symmetry_space_group_name_H-M	'P1'
_symmetry_Int_Tables_number	1
_symmetry_cell_setting	triclinic
loop_
_symmetry_equiv_pos_as_xyz
  x,y,z
_cell_length_a	23.532407
_cell_length_b	22.610064
_cell_length_c	23.532407
_cell_angle_alpha	90.000603
_cell_angle_beta	97.151326
_cell_angle_gamma	89.998238
loop_
_atom_site_label
_atom_site_type_symbol
_atom_site_fract_x
_atom_site_fract_y
_atom_site_fract_z
O1	O	-0.755264	0.049102	0.069127
O2	O	-0.589400	0.049123	0.079130
O3	O	-0.677333	0.049101	-0.008803
O4	O	-0.667330	0.049124	0.157060
O5	O	-0.677318	-0.049268	-0.008790
O6	O	-0.589385	-0.049246	0.079143
O7	O	-0.755248	-0.049267	0.069140
Zn8	Zn	-0.672314	-0.064875	0.074143
Zn9	Zn	-0.672334	0.064731	0.074127
O10	O	-0.667315	-0.049245	0.157073
C11	C	-0.568176	-0.000059	0.078882
C12	C	-0.504959	-0.000051	0.078116
N13	N	-0.672304	-0.153327	0.074155
C14	C	-0.105856	-0.000063	0.125350
C15	C	-0.046456	-0.000066	0.124638
O16	O	-0.009711	-0.000081	0.168424
N17	N	-0.023830	-0.000072	0.072362
C18	C	-0.060607	-0.000081	0.020794
O19	O	-0.035908	-0.000087	-0.023737
C20	C	-0.120006	-0.000083	0.021506
C21	C	-0.142629	-0.000071	0.073785
C22	C	-0.128479	-0.000052	0.177625
C23	C	-0.187876	-0.000049	0.178336
C24	C	-0.224649	-0.000056	0.126772
C25	C	-0.202025	-0.000067	0.074496
C26	C	-0.156783	-0.000096	-0.030062
C27	C	-0.216185	-0.000098	-0.029345
C28	C	-0.238808	-0.000086	0.022934
C29	C	-0.298194	-0.000071	0.023643
N30	N	-0.320820	-0.000065	0.075920
C31	C	-0.284048	-0.000058	0.127484
C32	C	0.064135	-0.000078	0.019302
C33	C	0.123533	-0.000073	0.018589
C34	C	0.137680	-0.000059	0.122434
C35	C	0.078281	-0.000060	0.123146
C36	C	0.041509	-0.000073	0.071578
C37	C	-0.408784	-0.000050	0.128974
C38	C	-0.468186	-0.000043	0.129680
C39	C	-0.482329	-0.000060	0.025836
C40	C	-0.422932	-0.000063	0.025129
C41	C	-0.386160	-0.000060	0.076702
O42	O	-0.334974	-0.000059	-0.020119
O43	O	-0.308755	-0.000060	0.172007
C44	C	-0.711273	-0.561978	0.035196
C45	C	-0.711276	-0.623898	0.035191
O46	O	-0.744384	-0.655925	0.002076
N47	N	-0.672334	-0.654864	0.074115
C48	C	-0.633383	-0.623907	0.113041
O49	O	-0.600259	-0.655932	0.146147
C50	C	-0.633377	-0.561988	0.113042
C51	C	-0.672326	-0.531026	0.074120
C52	C	-0.750218	-0.531016	-0.003724
C53	C	-0.750215	-0.469100	-0.003719
C54	C	-0.711268	-0.438147	0.035206
C55	C	-0.672323	-0.469110	0.074125
C56	C	-0.594424	-0.531033	0.151965
C57	C	-0.594422	-0.469110	0.151962
C58	C	-0.633370	-0.438147	0.113040
C59	C	-0.633374	-0.376242	0.113054
N60	N	-0.672316	-0.345276	0.074131
C61	C	-0.711263	-0.376228	0.035207
C62	C	-0.633396	-0.753941	0.113035
C63	C	-0.633403	-0.815859	0.113037
C64	C	-0.711296	-0.815845	0.035187
C65	C	-0.711291	-0.753927	0.035188
C66	C	-0.672338	-0.722975	0.074112
C67	C	-0.711255	-0.246201	0.035220
C68	C	-0.711251	-0.184280	0.035230
C69	C	-0.633357	-0.184299	0.113078
C70	C	-0.633363	-0.246214	0.113071
C71	C	-0.672314	-0.277164	0.074137
O72	O	-0.600281	-0.344175	0.146151
O73	O	-0.744376	-0.344196	0.002101
C74	C	0.223528	-0.000079	0.069388
C75	C	0.160311	-0.000068	0.070154
C76	C	-0.677071	-0.000085	-0.030013
C77	C	-0.676305	-0.000089	-0.093230
N78	N	-0.672349	0.153183	0.074111
C79	C	-0.723539	-0.000063	-0.492333
C80	C	-0.722827	-0.000058	-0.551733
O81	O	-0.766613	-0.000042	-0.588478
N82	N	-0.670551	-0.000052	-0.574359
C83	C	-0.618983	-0.000044	-0.537582
O84	O	-0.574452	-0.000038	-0.562281
C85	C	-0.619695	-0.000045	-0.478183
C86	C	-0.671974	-0.000057	-0.455560
C87	C	-0.775814	-0.000075	-0.469710
C88	C	-0.776525	-0.000080	-0.410313
C89	C	-0.724961	-0.000074	-0.373541
C90	C	-0.672685	-0.000063	-0.396164
C91	C	-0.568127	-0.000033	-0.441406
C92	C	-0.568844	-0.000033	-0.382004
C93	C	-0.621123	-0.000045	-0.359381
C94	C	-0.621832	-0.000062	-0.299995
N95	N	-0.674109	-0.000069	-0.277369
C96	C	-0.725673	-0.000075	-0.314141
C97	C	-0.617491	-0.000043	-0.662324
C98	C	-0.616778	-0.000046	-0.721722
C99	C	-0.720623	-0.000059	-0.735869
C100	C	-0.721335	-0.000060	-0.676470
C101	C	-0.669767	-0.000049	-0.639698
C102	C	-0.727163	-0.000087	-0.189405
C103	C	-0.727869	-0.000095	-0.130003
C104	C	-0.624025	-0.000079	-0.115860
C105	C	-0.623318	-0.000074	-0.175257
C106	C	-0.674891	-0.000076	-0.212029
O107	O	-0.578070	-0.000076	-0.263215
O108	O	-0.770196	-0.000073	-0.289434
C109	C	-0.667577	-0.000058	0.178283
C110	C	-0.668343	-0.000049	0.241500
H111	H	-0.486602	-0.000034	0.172254
H112	H	-0.404512	-0.000064	-0.017441
H113	H	-0.601648	-0.159087	0.144772
O114	O	-0.092787	0.000062	0.227734
C115	C	-0.103023	0.051008	0.259486
H116	H	-0.123490	0.086607	0.229289
H117	H	-0.133097	0.039495	0.292268
C118	C	-0.020793	0.030398	0.327765
C119	C	-0.045926	0.074124	0.290676
H120	H	0.014426	0.044656	0.347007
H121	H	-0.013898	-0.003926	0.306375
H122	H	-0.045861	0.020808	0.355078
H123	H	-0.020862	0.083708	0.263359
H124	H	-0.052816	0.108451	0.312062
H125	H	-0.743005	-0.728720	0.003494
H126	H	-0.770443	-0.000107	-0.111587
H127	H	-0.781929	-0.443894	-0.035414
O128	O	-0.788111	-0.560986	-0.041558
C129	C	-0.822467	-0.520367	-0.075913
H130	H	-0.822962	-0.476232	-0.052560
H131	H	-0.804220	-0.513783	-0.118130
C132	C	-0.883368	-0.598720	-0.116645
C133	C	-0.883980	-0.544513	-0.087959
H134	H	-0.921312	-0.613615	-0.124078
H135	H	-0.860221	-0.626086	-0.093501
H136	H	-0.868160	-0.593226	-0.151822
H137	H	-0.899182	-0.550009	-0.052780
H138	H	-0.907132	-0.517149	-0.111098
H139	H	-0.512280	-0.000064	-0.016146
O140	O	-0.373151	-0.000016	0.179124
C141	C	-0.405867	-0.000019	0.225410
H142	H	-0.450282	0.018601	0.210684
H143	H	-0.410009	-0.047207	0.241460
C144	C	-0.321459	0.015701	0.292269
C145	C	-0.376009	0.038575	0.274183
H146	H	-0.303041	0.039505	0.322356
H147	H	-0.299417	0.015701	0.261085
H148	H	-0.324918	-0.023622	0.305640
H149	H	-0.372549	0.077895	0.260806
H150	H	-0.398050	0.038583	0.305366
O151	O	-0.251928	-0.000212	-0.079426
C152	C	-0.286721	-0.051149	-0.082110
H153	H	-0.264808	-0.086754	-0.052853
H154	H	-0.329839	-0.039626	-0.067628
C155	C	-0.322994	-0.030530	-0.180061
C156	C	-0.296078	-0.074262	-0.144131
H157	H	-0.328769	-0.044787	-0.218318
H158	H	-0.299555	0.003788	-0.178252
H159	H	-0.358923	-0.020931	-0.167985
H160	H	-0.260147	-0.083855	-0.156202
H161	H	-0.319511	-0.108583	-0.145943
O162	O	0.056403	-0.000079	0.173980
C163	C	0.101604	-0.000055	0.219335
H164	H	0.141871	-0.018677	0.203604
H165	H	0.110093	0.047141	0.235217
C166	C	0.035660	-0.015753	0.287997
C167	C	0.085116	-0.038630	0.268677
H168	H	0.025490	-0.039545	0.318435
H169	H	0.005207	-0.015767	0.257441
H170	H	0.042741	0.023577	0.301228
H171	H	0.078032	-0.077956	0.255440
H172	H	0.115568	-0.038623	0.299232
H173	H	-0.742969	-0.159072	0.003535
H174	H	-0.562709	-0.556234	0.183658
O175	O	0.145437	0.000002	-0.032231
C176	C	0.126626	0.050952	-0.063642
H177	H	0.085513	0.067941	-0.048358
H178	H	0.161038	0.086626	-0.056854
C179	C	0.165625	0.014601	-0.146541
C180	C	0.115126	0.035465	-0.127772
H181	H	0.158534	0.005049	-0.186100
H182	H	0.178300	-0.019724	-0.125379
H183	H	0.194296	0.044333	-0.140880
H184	H	0.086458	0.005731	-0.133428
H185	H	0.102445	0.069785	-0.148937
O186	O	0.028359	-0.000002	-0.030758
C187	C	-0.006415	0.050953	-0.033467
H188	H	-0.009178	0.067941	0.011717
H189	H	0.012989	0.086625	-0.059363
C190	C	-0.063486	0.014611	-0.117980
C191	C	-0.066884	0.035473	-0.062484
H192	H	-0.100785	0.005064	-0.135881
H193	H	-0.040058	-0.019717	-0.116156
H194	H	-0.047314	0.044342	-0.139552
H195	H	-0.083049	0.005740	-0.040911
H196	H	-0.090316	0.069796	-0.064305
O197	O	-0.134886	-0.000033	-0.080884
C198	C	-0.153701	0.050911	-0.112302
H199	H	-0.194812	0.067904	-0.097015
H200	H	-0.119289	0.086585	-0.105524
C201	C	-0.114714	0.014544	-0.195201
C202	C	-0.165209	0.035412	-0.176429
H203	H	-0.121810	0.004985	-0.234758
H204	H	-0.102036	-0.019778	-0.174034
H205	H	-0.086042	0.044276	-0.189549
H206	H	-0.193877	0.005678	-0.182075
H207	H	-0.177892	0.069728	-0.197599
O208	O	-0.595518	-0.845840	0.150872
C209	C	-0.561155	-0.805235	0.185235
H210	H	-0.560648	-0.761098	0.161888
H211	H	-0.579405	-0.798650	0.227450
C212	C	-0.500275	-0.883609	0.225962
C213	C	-0.499648	-0.829400	0.197284
H214	H	-0.462335	-0.898516	0.233396
H215	H	-0.523427	-0.910966	0.202812
H216	H	-0.515486	-0.878114	0.261138
H217	H	-0.484444	-0.834898	0.162106
H218	H	-0.476492	-0.802044	0.220428
H219	H	0.167632	-0.000055	0.164421
O220	O	-0.517292	0.000008	-0.463277
C221	C	-0.471940	0.000003	-0.418073
H222	H	-0.487683	0.018618	-0.377809
H223	H	-0.456040	-0.047186	-0.409579
C224	C	-0.403278	0.015730	-0.484010
C225	C	-0.422613	0.038599	-0.434558
H226	H	-0.372849	0.039536	-0.494179
H227	H	-0.433832	0.015732	-0.514466
H228	H	-0.390032	-0.023594	-0.476926
H229	H	-0.435865	0.077919	-0.441646
H230	H	-0.392060	0.038605	-0.404104
O231	O	-0.749147	-0.276168	-0.002621
C232	C	-0.783505	-0.235552	-0.036977
H233	H	-0.784008	-0.191418	-0.013621
H234	H	-0.765254	-0.228961	-0.079190
C235	C	-0.844393	-0.313910	-0.077720
C236	C	-0.845014	-0.259706	-0.049031
H237	H	-0.882334	-0.328809	-0.085158
H238	H	-0.821244	-0.341274	-0.054576
H239	H	-0.829181	-0.308410	-0.112894
H240	H	-0.860219	-0.265207	-0.013855
H241	H	-0.868167	-0.232342	-0.072170
H242	H	-0.743008	-0.841058	0.003492
H243	H	-0.601653	-0.271425	0.144770
H244	H	-0.562700	-0.443912	0.183658
H245	H	-0.206289	-0.000039	0.220908
H246	H	-0.601677	-0.728743	0.144736
O247	O	-0.825960	-0.000109	-0.505345
C248	C	-0.872245	-0.000103	-0.472627
H249	H	-0.857517	-0.018721	-0.428212
H250	H	-0.888296	0.047086	-0.468485
C251	C	-0.939107	-0.015827	-0.557033
C252	C	-0.921018	-0.038698	-0.502482
H253	H	-0.969194	-0.039631	-0.575449
H254	H	-0.907924	-0.015828	-0.579076
H255	H	-0.952479	0.023497	-0.553573
H256	H	-0.907640	-0.078018	-0.505943
H257	H	-0.952200	-0.038704	-0.480440
H258	H	-0.769159	-0.000087	-0.219338
H259	H	-0.582043	-0.000076	-0.085909
O260	O	-0.827275	-0.000006	-0.388276
C261	C	-0.830811	0.050949	-0.354355
H262	H	-0.785840	0.067935	-0.339304
H263	H	-0.856155	0.086622	-0.380744
C264	C	-0.916416	0.014610	-0.320471
C265	C	-0.861183	0.035470	-0.301981
H266	H	-0.935154	0.005064	-0.288165
H267	H	-0.914036	-0.019718	-0.343326
H268	H	-0.937530	0.044342	-0.342462
H269	H	-0.840068	0.005737	-0.279996
H270	H	-0.863560	0.069793	-0.279121
O271	O	-0.772169	-0.000040	-0.654592
C272	C	-0.817524	-0.000061	-0.699793
H273	H	-0.801793	0.018561	-0.740059
H274	H	-0.833407	-0.047256	-0.708284
C275	C	-0.886186	0.015640	-0.633849
C276	C	-0.866865	0.038516	-0.683303
H277	H	-0.916623	0.039434	-0.623677
H278	H	-0.855630	0.015652	-0.603395
H279	H	-0.899417	-0.023689	-0.640931
H280	H	-0.853628	0.077841	-0.676218
H281	H	-0.897420	0.038511	-0.713755
O282	O	-0.567342	-0.000067	-0.626686
C283	C	-0.521054	-0.000047	-0.659400
H284	H	-0.535773	-0.018670	-0.703815
H285	H	-0.505020	0.047148	-0.663543
C286	C	-0.454193	-0.015747	-0.574990
C287	C	-0.472269	-0.038625	-0.629540
H288	H	-0.424098	-0.039541	-0.556570
H289	H	-0.485377	-0.015758	-0.552949
H290	H	-0.440835	0.023581	-0.578450
H291	H	-0.485633	-0.077949	-0.626079
H292	H	-0.441086	-0.038621	-0.651579
H293	H	-0.762610	-0.000062	-0.765821
H294	H	-0.574207	-0.000047	-0.740136
H295	H	-0.526850	-0.000023	-0.352066
H296	H	-0.580748	-0.000081	-0.193677
