data_functionalizedCrystal
_audit_creation_method	'MofGen! by Chris Wilmer'
_symmetry_space_group_name_H-M	'P1'
_symmetry_Int_Tables_number	1
_symmetry_cell_setting	triclinic
loop_
_symmetry_equiv_pos_as_xyz
  x,y,z
_cell_length_a	13.033293
_cell_length_b	13.897447
_cell_length_c	13.033255
_cell_angle_alpha	97.154119
_cell_angle_beta	74.801189
_cell_angle_gamma	97.189355
loop_
_atom_site_label
_atom_site_type_symbol
_atom_site_fract_x
_atom_site_fract_y
_atom_site_fract_z
Zn1	Zn	1.700258	-0.279484	-0.807168
Zn2	Zn	2.200258	0.220516	-0.307168
Zn3	Zn	1.677586	-0.422639	-0.629545
Zn4	Zn	2.177586	0.077361	-0.129545
Zn5	Zn	1.500066	-0.279504	-0.606974
Zn6	Zn	2.000066	0.220496	-0.106974
Zn7	Zn	1.522581	-0.458892	-0.784516
Zn8	Zn	2.022581	0.041108	-0.284516
O9	O	1.600123	-0.360130	-0.707051
O10	O	2.100123	0.139870	-0.207051
O11	O	1.845902	-0.283294	-0.802532
O12	O	2.345902	0.216706	-0.302532
O13	O	1.635127	-0.388488	-0.477913
O14	O	2.135127	0.111512	0.022087
O15	O	1.526687	-0.144516	-0.633564
O16	O	2.026687	0.355484	-0.133564
O17	O	1.829245	-0.388469	-0.672033
O18	O	2.329245	0.111531	-0.172033
O19	O	1.673767	-0.144502	-0.780645
O20	O	2.173767	0.355498	-0.280645
O21	O	1.504704	-0.283327	-0.461330
O22	O	2.004704	0.216673	0.038670
O23	O	1.354402	-0.318480	-0.611599
O24	O	1.854402	0.181520	-0.111599
O25	O	1.565061	-0.450257	-0.936159
O26	O	2.065061	0.049743	-0.436159
O27	O	1.370944	-0.450276	-0.742039
O28	O	1.870944	0.049724	-0.242039
O29	O	1.695599	-0.318447	-0.952801
O30	O	2.195599	0.181553	-0.452801
O31	O	1.656959	-0.562433	-0.650069
O32	O	2.156959	-0.062433	-0.150069
O33	O	1.543078	-0.589068	-0.763926
O34	O	2.043078	-0.089068	-0.263926
C35	C	1.324129	-0.388315	-0.671913
C36	C	1.824129	0.111685	-0.171913
C37	C	1.206061	-0.400398	-0.656906
C38	C	1.706061	0.099602	-0.156906
C39	C	1.161676	-0.353848	-0.714883
C40	C	1.661676	0.146152	-0.214883
C41	C	1.039647	-0.366335	-0.699374
C42	C	1.539647	0.133665	-0.199374
C43	C	1.600033	-0.610750	-0.707015
C44	C	2.100033	-0.110750	-0.207015
C45	C	1.600097	-0.717961	-0.707048
C46	C	2.100097	-0.217961	-0.207048
C47	C	1.600151	-0.805028	-0.707079
C48	C	2.100151	-0.305028	-0.207079
C49	C	1.600229	-0.914255	-0.707115
C50	C	2.100229	-0.414255	-0.207115
C51	C	1.877195	-0.331836	-0.742327
C52	C	2.377195	0.168164	-0.242327
C53	C	1.995266	-0.319779	-0.757359
C54	C	2.495266	0.180221	-0.257359
C55	C	1.635371	-0.388394	-0.984098
C56	C	2.135371	0.111606	-0.484098
C57	C	1.650391	-0.400438	-1.102159
C58	C	2.150391	0.099562	-0.602159
C59	C	1.600245	-0.108530	-0.707114
C60	C	2.100245	0.391470	-0.207114
C61	C	1.600297	-0.001313	-0.707140
C62	C	2.100297	0.498687	-0.207140
C63	C	1.608088	-0.366222	-1.268617
C64	C	2.108088	0.133778	-0.768617
C65	C	1.592554	-0.353772	-1.146594
C66	C	2.092554	0.146228	-0.646594
C67	C	1.565073	-0.331900	-0.431089
C68	C	2.065073	0.168100	0.068911
C69	C	1.550259	-0.319563	-0.313055
C70	C	2.050259	0.180437	0.186945
H71	H	1.669092	-0.415392	-1.320908
H72	H	2.169092	0.084608	-0.820908
H73	H	1.153718	-0.449494	-0.595785
H74	H	1.653718	0.050506	-0.095785
H75	H	1.531538	-0.304608	-1.094305
H76	H	2.031538	0.195392	-0.594305
O77	O	1.723311	-0.458946	-1.164585
O78	O	2.223311	0.041054	-0.664585
C79	C	1.800042	-0.403519	-1.237508
C80	C	2.300042	0.096481	-0.737508
H81	H	1.802389	-0.323482	-1.204869
H82	H	2.302389	0.176518	-0.704869
H83	H	1.881951	-0.430183	-1.249256
H84	H	2.381951	0.069817	-0.749256
H85	H	1.777832	-0.412071	-1.317364
H86	H	2.277832	0.087929	-0.817364
H87	H	0.987307	-0.415435	-0.638249
H88	H	1.487307	0.084565	-0.138249
H89	H	1.489246	-0.270401	-1.260763
H90	H	1.989246	0.229599	-0.760763
O91	O	1.224270	-0.295342	-0.787785
O92	O	1.724270	0.204658	-0.287785
C93	C	1.332174	-0.295885	-0.787027
C94	C	1.832174	0.204115	-0.287027
H95	H	1.342750	-0.365186	-0.753994
H96	H	1.842750	0.134814	-0.253994
H97	H	1.384555	-0.293277	-0.871933
H98	H	1.884555	0.206723	-0.371933
H99	H	1.356473	-0.229631	-0.734544
H100	H	1.856473	0.270369	-0.234544
O101	O	1.057756	-0.261344	-0.830401
O102	O	1.557756	0.238656	-0.330401
C103	C	1.130662	-0.316819	-0.906984
C104	C	1.630662	0.183181	-0.406984
H105	H	1.097968	-0.396860	-0.909170
H106	H	1.597968	0.103140	-0.409170
H107	H	1.142460	-0.290253	-0.988970
H108	H	1.642460	0.209747	-0.488970
H109	H	1.210509	-0.308202	-0.884743
H110	H	1.710509	0.191798	-0.384743
