data_functionalizedCrystal
_audit_creation_method	'MofGen! by Chris Wilmer'
_symmetry_space_group_name_H-M	'P1'
_symmetry_Int_Tables_number	1
_symmetry_cell_setting	triclinic
loop_
_symmetry_equiv_pos_as_xyz
  x,y,z
_cell_length_a	17.077404
_cell_length_b	18.050589
_cell_length_c	17.077395
_cell_angle_alpha	89.976617
_cell_angle_beta	89.984359
_cell_angle_gamma	90.028446
loop_
_atom_site_label
_atom_site_type_symbol
_atom_site_fract_x
_atom_site_fract_y
_atom_site_fract_z
Zn1	Zn	1.199996	-0.295664	-0.443864
Zn2	Zn	1.199899	-0.419859	-0.312606
Zn3	Zn	1.068736	-0.295688	-0.312612
Zn4	Zn	1.068683	-0.419817	-0.443830
O5	O	1.134329	-0.357757	-0.378228
O6	O	1.309830	-0.312146	-0.426464
O7	O	1.182482	-0.403414	-0.202760
O8	O	1.086211	-0.191760	-0.330039
O9	O	1.309759	-0.403392	-0.330030
O10	O	1.182646	-0.191743	-0.426469
O11	O	1.086117	-0.312186	-0.202764
O12	O	0.958882	-0.312146	-0.330006
O13	O	1.086120	-0.403321	-0.553681
O14	O	0.958843	-0.403344	-0.426412
O15	O	1.182595	-0.312106	-0.553706
O16	O	1.182431	-0.523778	-0.329997
O17	O	1.086027	-0.523748	-0.426407
C18	C	0.930381	-0.357744	-0.378206
C19	C	0.843131	-0.357756	-0.378216
C20	C	0.802141	-0.405314	-0.428333
C21	C	0.720161	-0.405316	-0.428346
C22	C	0.679172	-0.357762	-0.378236
C23	C	0.720167	-0.310199	-0.328116
C24	C	0.802146	-0.310194	-0.328108
C25	C	0.549297	-0.310213	-0.328135
C26	C	0.467313	-0.310219	-0.328142
C27	C	0.467312	-0.405335	-0.428373
C28	C	0.549291	-0.405330	-0.428365
C29	C	0.590281	-0.357767	-0.378244
C30	C	1.134234	-0.550709	-0.378215
C31	C	1.134265	-0.633255	-0.378236
C32	C	1.081892	-0.832716	-0.430645
C33	C	1.062762	-0.882156	-0.359016
C34	C	1.134342	-0.784385	-0.378246
C35	C	1.153511	-0.882027	-0.449883
C36	C	1.134415	-0.930370	-0.378262
C37	C	1.115174	-0.832738	-0.306579
C38	C	1.205957	-0.832604	-0.397495
C39	C	1.186854	-0.882022	-0.325816
C40	C	1.134298	-0.700287	-0.378238
C41	C	1.134459	-1.014467	-0.378262
C42	C	1.339073	-0.357771	-0.378250
C43	C	1.426323	-0.357777	-0.378260
C44	C	1.134362	-0.357707	-0.582972
C45	C	1.134377	-0.357685	-0.670222
C46	C	1.134445	-0.164051	-0.378258
C47	C	1.134495	-0.081506	-0.378271
C48	C	1.184698	-0.310089	-1.046051
C49	C	1.184682	-0.310115	-0.964070
C50	C	1.134441	-0.357615	-0.923071
C51	C	1.084219	-0.405097	-0.964057
C52	C	1.084240	-0.405074	-1.046036
C53	C	1.084178	-0.405140	-0.793187
C54	C	1.084157	-0.405162	-0.711202
C55	C	1.184621	-0.310181	-0.711221
C56	C	1.184641	-0.310158	-0.793200
C57	C	1.134418	-0.357639	-0.834180
C58	C	1.134340	-0.357754	-0.174280
C59	C	1.134478	-0.357566	-0.087031
H60	H	0.835508	-0.444040	-0.469136
F61	F	0.983644	-0.910603	-0.337736
F62	F	0.676541	-0.259584	-0.274790
H63	H	1.231240	-0.903536	-0.281460
H64	H	1.098920	-0.811177	-0.245986
F65	F	0.423690	-0.259610	-0.274806
H66	H	0.582669	-0.271476	-0.287328
F67	F	1.030688	-0.455720	-0.667569
F68	F	0.845770	-0.259574	-0.274767
F69	F	1.030725	-0.455677	-0.836799
F70	F	1.285054	-0.804135	-0.418800
F71	F	1.174664	-0.910329	-0.529059
F72	F	1.238165	-0.259525	-1.089678
F73	F	1.030790	-0.455608	-1.089649
F74	F	1.238134	-0.259583	-0.920460
H75	H	1.225549	-0.271476	-0.826580
F76	F	1.023834	-0.804416	-0.488483
H77	H	1.043316	-0.443776	-0.930669
F78	F	0.676540	-0.455933	-0.481689
F79	F	0.592913	-0.455947	-0.481692
H80	H	0.433934	-0.444060	-0.469186
F81	F	1.238091	-0.259663	-0.667607
