data_functionalizedCrystal
_audit_creation_method	'MofGen! by Chris Wilmer'
_symmetry_space_group_name_H-M	'P1'
_symmetry_Int_Tables_number	1
_symmetry_cell_setting	triclinic
loop_
_symmetry_equiv_pos_as_xyz
  x,y,z
_cell_length_a	18.215407
_cell_length_b	13.897448
_cell_length_c	13.897441
_cell_angle_alpha	90.030599
_cell_angle_beta	90.022034
_cell_angle_gamma	90.018140
loop_
_atom_site_label
_atom_site_type_symbol
_atom_site_fract_x
_atom_site_fract_y
_atom_site_fract_z
Zn1	Zn	1.125125	-0.383973	0.545415
Zn2	Zn	1.375125	-0.133973	0.795415
Zn3	Zn	1.625125	0.116027	1.045415
Zn4	Zn	1.875125	0.366027	1.295415
Zn5	Zn	1.125044	-0.545294	0.384116
Zn6	Zn	1.375044	-0.295294	0.634116
Zn7	Zn	1.625044	-0.045294	0.884116
Zn8	Zn	1.875044	0.204706	1.134116
Zn9	Zn	1.002053	-0.384016	0.384129
Zn10	Zn	1.252053	-0.134016	0.634129
Zn11	Zn	1.502053	0.115984	0.884129
Zn12	Zn	1.752053	0.365984	1.134129
Zn13	Zn	1.002039	-0.545229	0.545365
Zn14	Zn	1.252039	-0.295229	0.795365
Zn15	Zn	1.502039	-0.045229	1.045365
Zn16	Zn	1.752039	0.204771	1.295365
O17	O	1.063565	-0.464628	0.464756
O18	O	1.313565	-0.214628	0.714756
O19	O	1.563565	0.035372	0.964756
O20	O	1.813565	0.285372	1.214756
O21	O	1.228098	-0.405382	0.524033
O22	O	1.478098	-0.155382	0.774033
O23	O	1.728098	0.094618	1.024033
O24	O	1.978098	0.344618	1.274033
O25	O	1.108701	-0.523946	0.249136
O26	O	1.358701	-0.273946	0.499136
O27	O	1.608701	-0.023946	0.749136
O28	O	1.858701	0.226054	0.999136
O29	O	1.018418	-0.249029	0.405551
O30	O	1.268418	0.000971	0.655551
O31	O	1.518418	0.250971	0.905551
O32	O	1.768418	0.500971	1.155551
O33	O	1.228039	-0.523904	0.405528
O34	O	1.478039	-0.273904	0.655528
O35	O	1.728039	-0.023904	0.905528
O36	O	1.978039	0.226096	1.155528
O37	O	1.108839	-0.248997	0.524046
O38	O	1.358839	0.001003	0.774046
O39	O	1.608839	0.251003	1.024046
O40	O	1.858839	0.501003	1.274046
O41	O	1.018340	-0.405456	0.249146
O42	O	1.268340	-0.155456	0.499146
O43	O	1.518340	0.094544	0.749146
O44	O	1.768340	0.344544	0.999146
O45	O	0.899066	-0.405392	0.405502
O46	O	1.149066	-0.155392	0.655502
O47	O	1.399066	0.094608	0.905502
O48	O	1.649066	0.344608	1.155502
O49	O	1.018394	-0.523792	0.680353
O50	O	1.268394	-0.273792	0.930353
O51	O	1.518394	-0.023792	1.180353
O52	O	1.768394	0.226208	1.430353
O53	O	0.899056	-0.523834	0.523962
O54	O	1.149056	-0.273834	0.773962
O55	O	1.399056	-0.023834	1.023962
O56	O	1.649056	0.226166	1.273962
O57	O	1.108825	-0.405318	0.680390
O58	O	1.358825	-0.155318	0.930390
O59	O	1.608825	0.094682	1.180390
O60	O	1.858825	0.344682	1.430390
O61	O	1.108687	-0.680267	0.405480
O62	O	1.358687	-0.430267	0.655480
O63	O	1.608687	-0.180267	0.905480
O64	O	1.858687	0.069733	1.155480
O65	O	1.018316	-0.680219	0.523949
O66	O	1.268316	-0.430219	0.773949
O67	O	1.518316	-0.180219	1.023949
O68	O	1.768316	0.069781	1.273949
C69	C	0.872359	-0.464611	0.464729
C70	C	1.122359	-0.214611	0.714729
C71	C	1.372359	0.035389	0.964729
C72	C	1.622359	0.285389	1.214729
C73	C	0.790560	-0.464628	0.464740
C74	C	1.040560	-0.214628	0.714740
C75	C	1.290560	0.035372	0.964740
C76	C	1.540560	0.285372	1.214740
C77	C	0.602380	-0.526397	0.526344
C78	C	0.852380	-0.276397	0.776344
C79	C	1.102380	-0.026397	1.026344
C80	C	1.352380	0.223603	1.276344
C81	C	0.525521	-0.526400	0.526356
C82	C	0.775521	-0.276400	0.776356
C83	C	1.025521	-0.026400	1.026356
C84	C	1.275521	0.223600	1.276356
C85	C	0.525502	-0.402876	0.403190
C86	C	0.775502	-0.152876	0.653190
C87	C	1.025502	0.097124	0.903190
C88	C	1.275502	0.347124	1.153190
C89	C	0.602359	-0.402869	0.403183
C90	C	0.852359	-0.152869	0.653183
C91	C	1.102359	0.097131	0.903183
C92	C	1.352359	0.347131	1.153183
C93	C	0.640796	-0.464635	0.464759
C94	C	0.890796	-0.214635	0.714759
C95	C	1.140796	0.035365	0.964759
C96	C	1.390796	0.285365	1.214759
C97	C	0.487080	-0.464645	0.464777
C98	C	0.737080	-0.214645	0.714777
C99	C	0.987080	0.035355	0.964777
C100	C	1.237080	0.285355	1.214777
C101	C	0.403747	-0.464648	0.464790
C102	C	0.653747	-0.214648	0.714790
C103	C	0.903747	0.035352	0.964790
C104	C	1.153747	0.285352	1.214790
C105	C	0.724135	-0.464631	0.464748
C106	C	0.974135	-0.214631	0.714748
C107	C	1.224135	0.035369	0.964748
C108	C	1.474135	0.285369	1.214748
C109	C	1.063511	-0.715242	0.464728
C110	C	1.313511	-0.465242	0.714728
C111	C	1.563511	-0.215242	0.964728
C112	C	1.813511	0.034758	1.214728
C113	C	1.063556	-0.822456	0.464749
C114	C	1.313556	-0.572456	0.714749
C115	C	1.563556	-0.322456	0.964749
C116	C	1.813556	-0.072456	1.214749
C117	C	1.063633	-1.018751	0.464809
C118	C	1.313633	-0.768751	0.714809
C119	C	1.563633	-0.518751	0.964809
C120	C	1.813633	-0.268751	1.214809
C121	C	1.063588	-0.909519	0.464778
C122	C	1.313588	-0.659519	0.714778
C123	C	1.563588	-0.409519	0.964778
C124	C	1.813588	-0.159519	1.214778
C125	C	1.255518	-0.464645	0.464785
C126	C	1.505518	-0.214645	0.714785
C127	C	1.755518	0.035355	0.964785
C128	C	2.005518	0.285355	1.214785
C129	C	1.337317	-0.464653	0.464797
C130	C	1.587317	-0.214653	0.714797
C131	C	1.837317	0.035347	0.964797
C132	C	2.087317	0.285347	1.214797
C133	C	1.063617	-0.464543	0.716349
C134	C	1.313617	-0.214543	0.966349
C135	C	1.563617	0.035457	1.216349
C136	C	1.813617	0.285457	1.466349
C137	C	1.063639	-0.464506	0.823563
C138	C	1.313639	-0.214506	1.073563
C139	C	1.563639	0.035494	1.323563
C140	C	1.813639	0.285494	1.573563
C141	C	1.063639	-0.213035	0.464805
C142	C	1.313639	0.036965	0.714805
C143	C	1.563639	0.286965	0.964805
C144	C	1.813639	0.536965	1.214805
C145	C	1.063670	-0.105821	0.464826
C146	C	1.313670	0.144179	0.714826
C147	C	1.563670	0.394179	0.964826
C148	C	1.813670	0.644179	1.214826
C149	C	1.063555	-0.464643	0.214142
C150	C	1.313555	-0.214643	0.464142
C151	C	1.563555	0.035357	0.714142
C152	C	1.813555	0.285357	0.964142
C153	C	1.063676	-0.464408	0.106928
C154	C	1.313676	-0.214408	0.356928
C155	C	1.563676	0.035592	0.606928
C156	C	1.813676	0.285592	0.856928
C157	C	1.063659	-0.464441	1.019859
C158	C	1.313659	-0.214441	1.269859
C159	C	1.563659	0.035559	1.519859
C160	C	1.813659	0.285559	1.769859
C161	C	1.063646	-0.464480	0.910626
C162	C	1.313646	-0.214480	1.160626
C163	C	1.563646	0.035520	1.410626
C164	C	1.813646	0.285520	1.660626
H165	H	0.494197	-0.352590	0.353056
H166	H	0.744197	-0.102590	0.603056
H167	H	0.994197	0.147410	0.853056
H168	H	1.244197	0.397410	1.103056
H169	H	0.633673	-0.576689	0.576485
H170	H	0.883673	-0.326689	0.826485
H171	H	1.133673	-0.076689	1.076485
H172	H	1.383673	0.173311	1.326485
H173	H	0.633639	-0.352568	0.353033
H174	H	0.883639	-0.102568	0.603033
H175	H	1.133639	0.147432	0.853033
H176	H	1.383639	0.397432	1.103033
C177	C	0.483266	-0.594353	0.594095
C178	C	0.733266	-0.344353	0.844095
C179	C	0.983266	-0.094353	1.094095
C180	C	1.233266	0.155647	1.344095
N181	N	0.451441	-0.645540	0.645117
N182	N	0.701441	-0.395540	0.895117
N183	N	0.951441	-0.145540	1.145117
N184	N	1.201441	0.104460	1.395117
