data_functionalizedCrystal
_audit_creation_method	'MofGen! by Chris Wilmer'
_symmetry_space_group_name_H-M	'P1'
_symmetry_Int_Tables_number	1
_symmetry_cell_setting	triclinic
loop_
_symmetry_equiv_pos_as_xyz
  x,y,z
_cell_length_a	33.510554
_cell_length_b	33.509711
_cell_length_c	33.506470
_cell_angle_alpha	60.004186
_cell_angle_beta	60.008358
_cell_angle_gamma	59.994760
loop_
_atom_site_label
_atom_site_type_symbol
_atom_site_fract_x
_atom_site_fract_y
_atom_site_fract_z
O1	O	0.055430	-0.583081	0.487524
O2	O	0.020931	-0.453975	0.392819
O3	O	0.102693	-0.535652	0.392731
O4	O	-0.026332	-0.501404	0.487613
O5	O	0.129823	-0.508526	0.419767
O6	O	0.048062	-0.426850	0.419856
O7	O	0.082561	-0.555956	0.514561
Cu8	Cu	0.067789	-0.488926	0.469677
Cu9	Cu	0.035703	-0.521005	0.437703
O10	O	0.000799	-0.474279	0.514649
N11	N	0.090357	-0.466366	0.492168
N12	N	0.013139	-0.543569	0.415212
C13	C	0.143028	-0.279707	0.544737
C14	C	0.143165	-0.413746	0.678712
C15	C	0.143043	-0.413725	0.544739
C16	C	0.277090	-0.413694	0.544637
C17	C	0.157791	-0.323929	0.559462
C18	C	0.157869	-0.398994	0.634489
C19	C	0.232865	-0.398963	0.559407
C20	C	0.157801	-0.398982	0.559463
C21	C	0.124237	-0.223419	0.525994
C22	C	0.124262	-0.432490	0.525997
C23	C	0.176583	-0.380217	0.578205
C24	C	0.358938	-0.399566	0.501510
C25	C	0.410104	-0.416609	0.484423
C26	C	0.410135	-0.499402	0.515995
C27	C	0.358969	-0.482358	0.533084
C28	C	0.136554	-0.197822	0.475693
C29	C	0.119469	-0.146653	0.458657
C30	C	0.077755	-0.146680	0.542223
C31	C	0.094840	-0.197850	0.559260
C32	C	0.073954	-0.420144	0.538396
C33	C	0.056884	-0.437203	0.521352
C34	C	0.140427	-0.478952	0.479524
C35	C	0.157498	-0.461894	0.496561
C36	C	0.074158	-0.420182	0.760618
C37	C	0.057149	-0.437256	0.811786
C38	C	0.140732	-0.479014	0.811717
C39	C	0.157740	-0.461942	0.760547
C40	C	0.124452	-0.432525	0.734999
C41	C	0.333372	-0.432439	0.525839
C42	C	-0.020612	-0.577650	0.170305
C43	C	-0.020943	-0.788098	0.380897
C44	C	-0.020912	-0.577638	0.380991
C45	C	-0.231336	-0.577418	0.380585
C46	C	-0.129735	-0.611383	0.346870
C47	C	-0.054722	-0.611464	0.347017
C48	C	-0.073450	-0.630202	0.328195
C49	C	-0.087616	-0.712029	0.371239
C50	C	-0.070599	-0.763199	0.388315
C51	C	0.012191	-0.763282	0.356872
C52	C	-0.004828	-0.712113	0.339795
C53	C	-0.155381	-0.623711	0.397158
C54	C	-0.206547	-0.606601	0.414133
C55	C	-0.206417	-0.564839	0.330529
C56	C	-0.155251	-0.581949	0.313554
C57	C	-0.067051	-0.561160	0.334643
C58	C	-0.050026	-0.544131	0.351759
C59	C	-0.008343	-0.627704	0.393612
C60	C	-0.025368	-0.644736	0.376502
C61	C	-0.066922	-0.561168	0.246303
C62	C	-0.049794	-0.544141	0.195134
C63	C	-0.008048	-0.627719	0.195183
C64	C	-0.025175	-0.644745	0.246352
C65	C	-0.054614	-0.611468	0.271911
C66	C	-0.054732	-0.686488	0.346980
C67	C	-0.002117	-0.558258	0.114025
C68	C	-0.002879	-0.844379	0.399940
C69	C	-0.002504	-0.558243	0.399473
C70	C	-0.287615	-0.558285	0.398601
N71	N	0.434975	-0.466279	0.491900
O72	O	0.591199	-0.470749	0.375150
O73	O	0.591395	-0.565767	0.504116
O74	O	0.591311	-0.565550	0.422329
O75	O	0.591283	-0.470966	0.456937
O76	O	0.510024	-0.538522	0.449509
O77	O	0.510108	-0.538739	0.531297
O78	O	0.509913	-0.443721	0.402330
Cu79	Cu	0.502588	-0.488762	0.469295
Cu80	Cu	0.598719	-0.520726	0.437151
O81	O	0.509997	-0.443938	0.484117
N82	N	0.666332	-0.543209	0.414541
N83	N	0.090323	-0.121809	0.492157
O84	O	-0.026342	0.034503	0.487582
O85	O	0.102626	0.034543	0.392540
O86	O	0.020797	0.034507	0.392812
O87	O	0.055487	0.034539	0.487310
O88	O	0.047933	-0.046785	0.419900
O89	O	0.129763	-0.046749	0.419628
O90	O	0.000794	-0.046789	0.514670
Cu91	Cu	0.067756	-0.054192	0.469623
Cu92	Cu	0.035664	0.041946	0.437588
O93	O	0.082623	-0.046753	0.514399
N94	N	0.013091	0.109564	0.415054
N95	N	0.090671	-0.466416	0.836606
O96	O	0.086120	-0.583065	0.992910
O97	O	-0.008880	-0.454051	0.992954
O98	O	-0.008658	-0.535864	0.992931
O99	O	0.085897	-0.501252	0.992933
O100	O	0.018407	-0.508749	0.911642
O101	O	0.018185	-0.426936	0.911665
O102	O	0.113185	-0.555949	0.911621
Cu103	Cu	0.068156	-0.488967	0.904221
Cu104	Cu	0.036148	-0.521034	1.000355
O105	O	0.112963	-0.474136	0.911644
N106	N	0.013633	-0.543590	1.067970
C107	C	0.031262	-0.424144	0.393290
C108	C	0.132513	-0.525291	0.393180
C109	C	0.072229	-0.585787	0.514090
C110	C	-0.029022	-0.484640	0.514200
C111	C	0.550775	-0.565338	0.533954
C112	C	0.550672	-0.565070	0.432670
C113	C	0.550530	-0.444149	0.372492
C114	C	0.550635	-0.444418	0.473776
C115	C	0.132408	-0.005998	0.392963
C116	C	0.031106	-0.006142	0.393333
C117	C	-0.029021	-0.006147	0.514213
C118	C	0.072314	-0.006104	0.513878
C119	C	-0.008430	-0.424240	0.952316
C120	C	-0.008150	-0.525550	0.952271
C121	C	0.112735	-0.585760	0.952260
C122	C	0.112461	-0.484444	0.952286
H123	H	0.016194	-0.427197	0.832639
H124	H	0.550826	-0.595166	0.570996
H125	H	0.023675	-0.006147	0.363643
C126	C	0.550686	-0.605210	0.422670
H127	H	0.550641	-0.593260	0.390315
H128	H	0.579056	-0.632992	0.426283
H129	H	0.522360	-0.614136	0.445239
C130	C	0.182573	-0.535146	0.352929
H131	H	0.203087	-0.567496	0.364779
H132	H	0.178297	-0.531471	0.325161
H133	H	0.197222	-0.512553	0.344020
H134	H	-0.037843	-0.532946	0.952238
C135	C	0.021309	-0.374045	0.353103
H136	H	0.049574	-0.373907	0.324672
H137	H	-0.005353	-0.368118	0.345493
H138	H	0.013573	-0.349201	0.364351
C139	C	0.082345	-0.006094	0.553988
H140	H	0.054105	-0.006098	0.582444
H141	H	0.109020	-0.034434	0.561580
H142	H	0.090091	0.022266	0.542687
C143	C	0.152593	-0.474440	0.952277
H144	H	0.140647	-0.442071	0.952281
H145	H	0.161512	-0.496990	0.980616
H146	H	0.180379	-0.478078	0.923918
C147	C	-0.079054	-0.006162	0.554521
H148	H	-0.099606	-0.006170	0.542733
H149	H	-0.074751	-0.034508	0.582294
H150	H	-0.093678	0.022192	0.563398
C151	C	0.168886	-0.225946	0.439100
H152	H	0.173767	-0.203371	0.406702
H153	H	0.199569	-0.245900	0.443989
H154	H	0.153261	-0.245913	0.444031
H155	H	0.079602	-0.622875	0.543835
C156	C	0.182329	-0.005653	0.352545
H157	H	0.182330	-0.005592	0.324159
H158	H	0.188111	0.022771	0.344944
H159	H	0.207341	-0.033928	0.363592
H160	H	-0.038255	-0.387188	0.952329
C161	C	0.153028	-0.635812	0.952240
H162	H	0.141223	-0.656351	0.952238
H163	H	0.180796	-0.631527	0.923890
H164	H	0.161918	-0.650442	0.980588
H165	H	0.550629	-0.414708	0.481180
C166	C	0.037539	-0.387823	0.732519
H167	H	0.005150	-0.382921	0.755106
H168	H	0.042434	-0.357149	0.712559
H169	H	0.042438	-0.403446	0.712562
H170	H	0.167840	-0.502959	0.832516
C171	C	-0.079082	-0.474789	0.554451
H172	H	-0.079156	-0.503090	0.582851
H173	H	-0.085028	-0.448143	0.562097
H174	H	-0.103947	-0.467066	0.543237
C175	C	0.213066	-0.475518	0.732370
H176	H	0.230453	-0.495476	0.754916
H177	H	0.221445	-0.492873	0.712407
H178	H	0.221432	-0.446575	0.712410
C179	C	0.550447	-0.403847	0.322460
H180	H	0.550436	-0.415656	0.301926
H181	H	0.522083	-0.376088	0.326771
H182	H	0.578780	-0.394939	0.307810
H183	H	0.015920	-0.427139	0.531437
C184	C	0.037393	-0.387800	0.570771
H185	H	0.004987	-0.382886	0.575708
H186	H	0.042338	-0.403429	0.601428
H187	H	0.042294	-0.357124	0.555145
H188	H	0.198463	-0.471942	0.486461
C189	C	0.176991	-0.511298	0.447147
H190	H	0.209397	-0.516205	0.442203
H191	H	0.172091	-0.541972	0.462768
H192	H	0.172045	-0.495665	0.416487
H193	H	0.338156	-0.509129	0.552896
H194	H	0.430920	-0.389838	0.464614
C195	C	0.438290	-0.554311	0.523961
H196	H	0.415736	-0.571450	0.540902
H197	H	0.458229	-0.559051	0.493213
H198	H	0.458272	-0.566309	0.542693
H199	H	0.338097	-0.358917	0.495611
H200	H	0.129496	-0.125810	0.417697
H201	H	0.084809	-0.218687	0.600218
C202	C	0.045422	-0.118550	0.578813
H203	H	0.037012	-0.084409	0.561462
H204	H	0.016504	-0.126951	0.598794
H205	H	0.062809	-0.126933	0.598751
C206	C	-0.063345	-0.488807	0.166972
H207	H	-0.083334	-0.471431	0.189525
H208	H	-0.034401	-0.480446	0.147054
H209	H	-0.080670	-0.480409	0.146968
H210	H	-0.090896	-0.534066	0.267110
H211	H	0.015913	-0.654818	0.174378
H212	H	-0.015148	-0.685706	0.267200
H213	H	-0.060067	-0.503170	0.341685
C214	C	0.023946	-0.664305	0.426040
H215	H	0.028846	-0.696702	0.430958
H216	H	0.054623	-0.659425	0.410470
H217	H	0.008282	-0.659374	0.456708
H218	H	-0.090949	-0.534065	0.310634
H219	H	-0.015331	-0.685697	0.386578
H220	H	0.052828	-0.784146	0.351024
C221	C	0.031347	-0.684018	0.313113
H222	H	0.063504	-0.706609	0.311286
H223	H	0.030090	-0.664063	0.281040
H224	H	0.022768	-0.664054	0.330558
H225	H	-0.128252	-0.691169	0.377093
C226	C	-0.106771	-0.791296	0.415010
H227	H	-0.089487	-0.825441	0.424150
H228	H	-0.130222	-0.782886	0.443428
H229	H	-0.122915	-0.782902	0.393919
C230	C	-0.127311	-0.656089	0.433801
H231	H	-0.093165	-0.664518	0.416489
H232	H	-0.135716	-0.638728	0.453770
H233	H	-0.135730	-0.685004	0.453747
C234	C	-0.234763	-0.620156	0.469452
H235	H	-0.268890	-0.605747	0.474790
H236	H	-0.226410	-0.654677	0.483838
H237	H	-0.226400	-0.608395	0.483853
C238	C	-0.234489	-0.532465	0.293886
H239	H	-0.268635	-0.524041	0.311199
H240	H	-0.226070	-0.503553	0.273934
H241	H	-0.226086	-0.549834	0.273922
C242	C	-0.127038	-0.568394	0.258235
H243	H	-0.149563	-0.548417	0.240825
H244	H	-0.107068	-0.551064	0.249883
H245	H	-0.107083	-0.597343	0.249868
