data_functionalizedCrystal
_audit_creation_method	'MofGen! by Chris Wilmer'
_symmetry_space_group_name_H-M	'P1'
_symmetry_Int_Tables_number	1
_symmetry_cell_setting	triclinic
loop_
_symmetry_equiv_pos_as_xyz
  x,y,z
_cell_length_a	13.635800
_cell_length_b	15.866870
_cell_length_c	11.102302
_cell_angle_alpha	69.483356
_cell_angle_beta	108.605901
_cell_angle_gamma	77.344085
loop_
_atom_site_label
_atom_site_type_symbol
_atom_site_fract_x
_atom_site_fract_y
_atom_site_fract_z
V1	V	2.060044	-0.132638	0.458394
O2	O	2.035077	0.006372	0.385729
O3	O	2.052637	-0.262996	0.516754
O4	O	2.048369	-0.130598	0.630260
O5	O	2.039374	-0.126943	0.271437
V6	V	2.298059	-0.116010	0.428562
O7	O	2.198892	-0.169111	0.523833
O8	O	2.384310	-0.079537	0.363123
O9	O	2.193863	0.014348	0.370203
O10	O	2.381725	-0.255020	0.501228
O11	O	2.377428	-0.121705	0.615520
O12	O	2.198131	-0.118050	0.256696
V13	V	2.560044	-0.132638	0.458394
O14	O	2.535077	0.006372	0.385729
O15	O	2.552637	-0.262996	0.516754
O16	O	2.548369	-0.130598	0.630260
O17	O	2.539374	-0.126943	0.271437
V18	V	2.798059	-0.116010	0.428562
O19	O	2.698892	-0.169111	0.523833
O20	O	2.884310	-0.079537	0.363123
O21	O	2.693863	0.014348	0.370203
O22	O	2.881725	-0.255020	0.501228
O23	O	2.877428	-0.121705	0.615520
O24	O	2.698131	-0.118050	0.256696
C25	C	1.978817	-0.294775	0.525390
C26	C	2.013488	-0.401345	0.574251
C27	C	1.974908	-0.683426	0.121019
C28	C	2.007494	-0.783570	0.166975
C29	C	2.068537	-0.810923	0.412553
C30	C	2.035951	-0.710780	0.366618
C31	C	1.989138	-0.647039	0.220849
C32	C	2.050181	-0.674393	0.466448
C33	C	2.017603	-0.574259	0.420516
C34	C	1.970793	-0.510512	0.274754
C35	C	1.956560	-0.546905	0.174918
C36	C	2.097001	-0.738136	0.612216
C37	C	2.111232	-0.701749	0.712046
C38	C	2.078645	-0.601613	0.666114
C39	C	2.031836	-0.537866	0.520353
C40	C	2.092879	-0.565220	0.765951
C41	C	2.060300	-0.465086	0.720019
C42	C	1.999258	-0.437732	0.474421
C43	C	1.973373	-0.125887	0.670176
C44	C	2.004580	-0.125082	0.811082
C45	C	2.099354	0.046122	0.361565
C46	C	2.054303	0.152691	0.312713
C47	C	2.104798	-0.122764	0.216775
C48	C	2.063209	-0.123564	0.075866
C49	C	2.478817	-0.294775	0.525390
C50	C	2.513488	-0.401345	0.574251
C51	C	2.140716	-0.128727	1.018395
C52	C	2.111403	-0.129490	0.886004
C53	C	1.927070	-0.119921	0.868564
C54	C	1.956386	-0.119166	1.000957
C55	C	2.621945	-0.456279	0.605837
C56	C	2.654541	-0.556416	0.651768
C57	C	2.578676	-0.601615	0.666103
C58	C	2.470211	-0.546673	0.634518
C59	C	2.437619	-0.446540	0.588597
C60	C	2.473373	-0.125887	0.670176
C61	C	2.504580	-0.125082	0.811082
C62	C	2.599354	0.046122	0.361565
C63	C	2.554303	0.152691	0.312713
C64	C	2.604798	-0.122764	0.216775
C65	C	2.563209	-0.123564	0.075866
C66	C	2.618341	0.207624	0.281131
C67	C	2.576017	0.307760	0.235206
C68	C	2.469659	0.352959	0.220874
C69	C	2.405617	0.298019	0.252456
C70	C	2.447937	0.197886	0.298370
C71	C	2.611402	-0.129492	0.885996
C72	C	2.640717	-0.128732	1.018389
C73	C	2.456381	-0.119157	1.000943
C74	C	2.427064	-0.119910	0.868548
H75	H	1.961122	-0.385828	0.355721
C76	C	2.646481	0.368178	0.200489
C77	C	2.760928	0.345379	0.316690
C78	C	2.831394	0.405792	0.281977
C79	C	2.787414	0.489005	0.131063
C80	C	2.672961	0.511809	0.014852
C81	C	2.602495	0.451395	0.049565
H82	H	2.793490	0.283776	0.428415
H83	H	2.916120	0.388911	0.368006
H84	H	2.839577	0.533727	0.105367
H85	H	2.640399	0.573412	-0.096872
H86	H	2.517769	0.468277	-0.036463
H87	H	1.944272	-0.428977	0.237360
H88	H	2.319016	0.334835	0.240778
H89	H	1.893266	-0.114964	1.047752
C90	C	2.773849	-0.616834	0.686487
C91	C	2.874486	-0.620107	0.804244
C92	C	2.993792	-0.680521	0.838958
C93	C	3.012461	-0.737662	0.755915
C94	C	2.911821	-0.734391	0.638151
C95	C	2.792515	-0.673977	0.603438
H96	H	2.860669	-0.577806	0.865723
H97	H	3.068292	-0.682942	0.926135
H98	H	3.100778	-0.782384	0.781612
H99	H	2.925638	-0.776692	0.576672
H100	H	2.718015	-0.671556	0.516261
C101	C	2.614534	-0.711762	0.716603
C102	C	2.733837	-0.772179	0.751330
C103	C	2.769701	-0.882326	0.801824
C104	C	2.686262	-0.932055	0.817590
C105	C	2.566952	-0.871638	0.782862
C106	C	2.531088	-0.761492	0.732369
H107	H	2.795610	-0.735367	0.739660
H108	H	2.858022	-0.927050	0.827532
H109	H	2.712810	-1.013592	0.854968
H110	H	2.505178	-0.908451	0.794532
H111	H	2.442766	-0.716767	0.706661
H112	H	1.995899	-0.813190	0.085669
C113	C	2.423119	0.463106	0.170378
C114	C	2.493573	0.523523	0.135653
C115	C	2.447042	0.633669	0.085162
C116	C	2.330056	0.683399	0.069397
C117	C	2.259594	0.622982	0.104123
C118	C	2.306125	0.512836	0.154614
H119	H	2.580180	0.486710	0.147323
H120	H	2.499203	0.678393	0.059456
H121	H	2.295610	0.764936	0.032021
H122	H	2.172987	0.659795	0.092453
H123	H	2.253964	0.468112	0.180320
H124	H	1.918424	-0.495002	0.056217
H125	H	2.340072	-0.116311	0.807545
H126	H	2.683731	-0.419491	0.594164
H127	H	1.936772	-0.631523	0.002319
H128	H	2.106659	-0.862835	0.531238
H129	H	2.727699	-0.132322	1.079379
H130	H	2.123528	-0.819671	0.649609
H131	H	2.408450	-0.583490	0.646197
H132	H	2.227699	-0.132314	1.079386
H133	H	2.149354	-0.753660	0.830732
H134	H	2.131007	-0.617133	0.884637
H135	H	2.071904	-0.435460	0.801313
H136	H	2.174520	-0.133696	0.839219
H137	H	2.349301	-0.401818	0.562875
H138	H	1.840093	-0.116339	0.807555
H139	H	2.704946	0.170837	0.292794
H140	H	2.395786	0.153164	0.324093
H141	H	2.674521	-0.133702	0.839211
H142	H	2.393275	-0.114948	1.047750
