data_functionalizedCrystal
_audit_creation_method	'MofGen! by Chris Wilmer'
_symmetry_space_group_name_H-M	'P1'
_symmetry_Int_Tables_number	1
_symmetry_cell_setting	triclinic
loop_
_symmetry_equiv_pos_as_xyz
  x,y,z
_cell_length_a	21.395362
_cell_length_b	19.121379
_cell_length_c	21.395356
_cell_angle_alpha	87.588859
_cell_angle_beta	89.970281
_cell_angle_gamma	87.529441
loop_
_atom_site_label
_atom_site_type_symbol
_atom_site_fract_x
_atom_site_fract_y
_atom_site_fract_z
Zn1	Zn	-0.208609	-1.073717	-0.313509
Zn2	Zn	0.291391	-0.573717	0.186491
Zn3	Zn	-0.313390	-1.073612	-0.208732
Zn4	Zn	0.186610	-0.573612	0.291268
Zn5	Zn	-0.213094	-0.956260	-0.213203
Zn6	Zn	0.286906	-0.456260	0.286797
Zn7	Zn	-0.317822	-0.956225	-0.317926
Zn8	Zn	0.182178	-0.456225	0.182074
O9	O	-0.263229	-1.014953	-0.263343
O10	O	0.236771	-0.514953	0.236657
O11	O	-0.218776	-1.171986	-0.295890
O12	O	0.281224	-0.671986	0.204110
O13	O	-0.300107	-1.058015	-0.121648
O14	O	0.199893	-0.558015	0.378352
O15	O	-0.124819	-0.971899	-0.226531
O16	O	0.375181	-0.471899	0.273469
O17	O	-0.295758	-1.171909	-0.218911
O18	O	0.204242	-0.671909	0.281089
O19	O	-0.121524	-1.058195	-0.300226
O20	O	0.378476	-0.558195	0.199774
O21	O	-0.226421	-0.971797	-0.124933
O22	O	0.273579	-0.471797	0.375067
O23	O	-0.230719	-0.857972	-0.230814
O24	O	0.269281	-0.357972	0.269186
O25	O	-0.303313	-0.971840	-0.405017
O26	O	0.196687	-0.471840	0.094983
O27	O	-0.307662	-0.857946	-0.307754
O28	O	0.192338	-0.357946	0.192246
O29	O	-0.223075	-1.058161	-0.401772
O30	O	0.276925	-0.558161	0.098228
O31	O	-0.401658	-1.057982	-0.223194
O32	O	0.098342	-0.557982	0.276806
O33	O	-0.404914	-0.971738	-0.303419
O34	O	0.095086	-0.471738	0.196581
C35	C	-0.270158	-0.832475	-0.270249
C36	C	0.229842	-0.332475	0.229751
C37	C	-0.273138	-0.754411	-0.273219
C38	C	0.226862	-0.254411	0.226781
C39	C	-0.234417	-0.717728	-0.234621
C40	C	0.265583	-0.217728	0.265379
C41	C	-0.237222	-0.644378	-0.237411
C42	C	0.262778	-0.144378	0.262589
C43	C	-0.278746	-0.607711	-0.278803
C44	C	0.221254	-0.107711	0.221197
C45	C	-0.317471	-0.644399	-0.317402
C46	C	0.182529	-0.144399	0.182598
C47	C	-0.314668	-0.717748	-0.314608
C48	C	0.185332	-0.217748	0.185392
C49	C	-0.289217	-0.386245	-0.289236
C50	C	0.210783	0.113755	0.210764
C51	C	-0.292015	-0.312891	-0.292028
C52	C	0.207985	0.187109	0.207972
C53	C	-0.211767	-0.312875	-0.212036
C54	C	0.288233	0.187125	0.287964
C55	C	-0.208966	-0.386226	-0.209249
C56	C	0.291034	0.113774	0.290751
C57	C	-0.247693	-0.422907	-0.247846
C58	C	0.252307	0.077093	0.252154
C59	C	-0.281612	-0.532736	-0.281657
C60	C	0.218388	-0.032736	0.218343
C61	C	-0.244829	-0.497881	-0.244988
C62	C	0.255171	0.002119	0.255012
C63	C	-0.426020	-1.014864	-0.263314
C64	C	0.073980	-0.514864	0.236686
C65	C	-0.495660	-1.014889	-0.263320
C66	C	0.004340	-0.514889	0.236680
C67	C	-0.526602	-1.059798	-0.301722
C68	C	-0.026602	-0.559798	0.198278
C69	C	-0.592036	-1.059822	-0.301737
C70	C	-0.092036	-0.559822	0.198263
C71	C	-0.626526	-1.014946	-0.263337
C72	C	-0.126526	-0.514946	0.236663
C73	C	-0.595577	-0.970029	-0.224933
C74	C	-0.095577	-0.470029	0.275067
C75	C	-0.530144	-0.970001	-0.224924
C76	C	-0.030144	-0.470001	0.275076
C77	C	-0.730444	-1.009480	-0.207106
C78	C	-0.230444	-0.509480	0.292894
C79	C	-0.795875	-1.009514	-0.207113
C80	C	-0.295875	-0.509514	0.292887
C81	C	-0.828344	-1.015030	-0.263364
C82	C	-0.328344	-0.515030	0.236636
C83	C	-0.795372	-1.020527	-0.319609
C84	C	-0.295372	-0.520527	0.180391
C85	C	-0.729939	-1.020499	-0.319601
C86	C	-0.229939	-0.520499	0.180399
C87	C	-0.697478	-1.014972	-0.263343
C88	C	-0.197478	-0.514972	0.236657
C89	C	-0.930237	-1.059967	-0.301786
C90	C	-0.430237	-0.559967	0.198214
C91	C	-0.995673	-1.059987	-0.301801
C92	C	-0.495673	-0.559987	0.198199
C93	C	-0.999212	-0.970197	-0.224991
C94	C	-0.499212	-0.470197	0.275009
C95	C	-0.933778	-0.970174	-0.224981
C96	C	-0.433778	-0.470174	0.275019
C97	C	-0.899294	-1.015062	-0.263378
C98	C	-0.399294	-0.515062	0.236622
C99	C	-0.099801	-1.015063	-0.263384
C100	C	0.400199	-0.515063	0.236616
C101	C	-0.030158	-1.015109	-0.263402
C102	C	0.469842	-0.515109	0.236598
C103	C	-0.263188	-1.015009	-0.426764
C104	C	0.236812	-0.515009	0.073236
C105	C	-0.263170	-1.015032	-0.496404
C106	C	0.236830	-0.515032	0.003596
C107	C	-0.256269	-0.198144	-0.256403
C108	C	0.243731	0.301856	0.243597
C109	C	-0.253294	-0.276209	-0.253430
C110	C	0.246706	0.223791	0.246570
C111	C	-0.224797	-0.970150	-0.530817
C112	C	0.275203	-0.470150	-0.030817
C113	C	-0.224785	-0.970148	-0.596253
C114	C	0.275215	-0.470148	-0.096253
C115	C	-0.263140	-1.015040	-0.627272
C116	C	0.236860	-0.515040	-0.127272
C117	C	-0.301522	-1.059925	-0.592851
C118	C	0.198478	-0.559925	-0.092851
C119	C	-0.301537	-1.059921	-0.527417
C120	C	0.198463	-0.559921	-0.027417
C121	C	-0.265659	-1.078320	-0.728557
C122	C	0.234341	-0.578320	-0.228557
C123	C	-0.265640	-1.078325	-0.793990
C124	C	0.234360	-0.578325	-0.293990
C125	C	-0.263098	-1.015052	-0.829093
C126	C	0.236902	-0.515052	-0.329093
C127	C	-0.260562	-0.951771	-0.798755
C128	C	0.239438	-0.451771	-0.298755
C129	C	-0.260577	-0.951767	-0.733321
C130	C	0.239423	-0.451767	-0.233321
C131	C	-0.263129	-1.015049	-0.698224
C132	C	0.236871	-0.515049	-0.198224
C133	C	-0.224710	-0.970163	-0.934459
C134	C	0.275290	-0.470163	-0.434459
C135	C	-0.224702	-0.970160	-0.999896
C136	C	0.275298	-0.470160	-0.499896
C137	C	-0.301435	-1.059943	-0.996492
C138	C	0.198565	-0.559943	-0.496492
C139	C	-0.301446	-1.059940	-0.931057
C140	C	0.198554	-0.559940	-0.431057
C141	C	-0.263080	-1.015051	-0.900044
C142	C	0.236920	-0.515051	-0.400044
C143	C	-0.263223	-1.014939	-0.100556
C144	C	0.236777	-0.514939	0.399444
C145	C	-0.263059	-1.015051	-0.030910
C146	C	0.236941	-0.515051	0.469090
H147	H	-0.175158	-0.416075	-0.175539
H148	H	0.324842	0.083925	0.324461
H149	H	-0.346199	-0.747614	-0.346038
H150	H	0.153801	-0.247614	0.153962
H151	H	-0.180238	-0.283002	-0.180612
H152	H	0.319762	0.216998	0.319388
C153	C	-0.892302	-1.109336	-0.344031
C154	C	-0.392302	-0.609336	0.155969
N155	N	-0.863732	-1.146518	-0.375852
N156	N	-0.363732	-0.646518	0.124148
H157	H	-0.351283	-0.614539	-0.351101
H158	H	0.148717	-0.114539	0.148899
H159	H	-0.258514	-0.900241	-0.708622
H160	H	0.241486	-0.400241	-0.208622
H161	H	-0.315420	-0.502874	-0.315358
H162	H	0.184580	-0.002874	0.184642
H163	H	-1.027294	-0.933654	-0.193730
H164	H	-0.527294	-0.433654	0.306270
C165	C	-1.029708	-1.109396	-0.344046
C166	C	-0.529708	-0.609396	0.155954
N167	N	-1.055343	-1.146614	-0.375863
N168	N	-0.555343	-0.646614	0.124137
C169	C	-0.899741	-0.920766	-0.182739
C170	C	-0.399741	-0.420766	0.317261
N171	N	-0.874106	-0.883546	-0.150924
N172	N	-0.374106	-0.383546	0.349076
H173	H	-0.193456	-0.933607	-1.027914
H174	H	0.306544	-0.433607	-0.527914
H175	H	-0.822716	-1.005042	-0.161315
H176	H	-0.322716	-0.505042	0.338685
H177	H	-0.325828	-0.283039	-0.325738
H178	H	0.174172	0.216961	0.174262
H179	H	-0.704013	-1.004986	-0.161297
H180	H	-0.204013	-0.504986	0.338703
C181	C	-0.182598	-0.920766	-0.496707
C182	C	0.317402	-0.420766	0.003293
N183	N	-0.150815	-0.883567	-0.471015
N184	N	0.349185	-0.383567	0.028985
H185	H	-0.623664	-0.933489	-0.193669
H186	H	-0.123664	-0.433489	0.306331
C187	C	-0.188738	-0.758054	-0.189087
C188	C	0.311262	-0.258054	0.310913
N189	N	-0.154333	-0.788426	-0.154788
N190	N	0.345667	-0.288426	0.345212
H191	H	-0.504951	-0.933430	-0.193652
H192	H	-0.004951	-0.433430	0.306348
C193	C	-0.182567	-0.920776	-0.634115
C194	C	0.317433	-0.420776	-0.134115
N195	N	-0.150766	-0.883590	-0.662630
N196	N	0.349234	-0.383590	-0.162630
C197	C	-0.343597	-1.109356	-1.030608
C198	C	0.156403	-0.609356	-0.530608
N199	N	-0.375345	-1.146587	-1.056308
N200	N	0.124655	-0.646587	-0.556308
H201	H	-0.267724	-1.129850	-0.699982
H202	H	0.232276	-0.629850	-0.199982
H203	H	-0.320752	-0.416102	-0.320664
H204	H	0.179248	0.083898	0.179336
H205	H	-0.258488	-0.900247	-0.827334
H206	H	0.241512	-0.400247	-0.327334
C207	C	-0.182513	-0.920778	-0.900343
C208	C	0.317487	-0.420778	-0.400343
N209	N	-0.150731	-0.883579	-0.874648
N210	N	0.349269	-0.383579	-0.374648
C211	C	-0.488673	-1.109181	-0.343956
C212	C	0.011327	-0.609181	0.156044
N213	N	-0.460103	-1.146378	-0.375765
N214	N	0.039897	-0.646378	0.124235
C215	C	-0.199151	-0.538217	-0.199462
C216	C	0.300849	-0.038217	0.300538
N217	N	-0.164743	-0.568604	-0.165176
N218	N	0.335257	-0.068604	0.334824
C219	C	-0.343739	-1.109311	-0.489561
C220	C	0.156261	-0.609311	0.010439
N221	N	-0.375521	-1.146518	-0.461046
N222	N	0.124479	-0.646518	0.038954
C223	C	-0.626078	-1.109230	-0.343981
C224	C	-0.126078	-0.609230	0.156019
N225	N	-0.651717	-1.146445	-0.375799
N226	N	-0.151717	-0.646445	0.124201
C227	C	-0.343638	-1.109339	-0.893200
C228	C	0.156362	-0.609339	-0.393200
N229	N	-0.375413	-1.146554	-0.864686
N230	N	0.124587	-0.646554	-0.364686
C231	C	-0.268428	-1.147935	-0.827355
C232	C	0.231572	-0.647935	-0.327355
N233	N	-0.270529	-1.200367	-0.852485
N234	N	0.229471	-0.700367	-0.352485
H235	H	-0.205695	-0.614514	-0.205978
H236	H	0.294305	-0.114514	0.294022
C237	C	-0.693673	-1.026540	-0.381469
C238	C	-0.193673	-0.526540	0.118531
N239	N	-0.666357	-1.031087	-0.428070
N240	N	-0.166357	-0.531087	0.071930
C241	C	-0.831083	-1.026593	-0.381491
C242	C	-0.331083	-0.526593	0.118509
N243	N	-0.857983	-1.031161	-0.428099
N244	N	-0.357983	-0.531161	0.071901
C245	C	-0.343801	-1.109210	-0.626977
C246	C	0.156199	-0.609210	-0.126977
N247	N	-0.375681	-1.146298	-0.652682
N248	N	0.124319	-0.646298	-0.152682
