data_functionalizedCrystal
_audit_creation_method	'MofGen! by Chris Wilmer'
_symmetry_space_group_name_H-M	'P1'
_symmetry_Int_Tables_number	1
_symmetry_cell_setting	triclinic
loop_
_symmetry_equiv_pos_as_xyz
  x,y,z
_cell_length_a	10.723024
_cell_length_b	10.723023
_cell_length_c	15.186229
_cell_angle_alpha	89.997261
_cell_angle_beta	89.996943
_cell_angle_gamma	84.467709
loop_
_atom_site_label
_atom_site_type_symbol
_atom_site_fract_x
_atom_site_fract_y
_atom_site_fract_z
O1	O	1.657186	0.175026	-0.073221
O2	O	1.294034	0.191779	-0.073224
O3	O	1.483987	0.001826	-0.073219
O4	O	1.467233	0.364979	-0.073226
O5	O	1.483974	0.001823	0.073239
O6	O	1.294021	0.191776	0.073234
O7	O	1.657173	0.175023	0.073236
Zn8	Zn	1.475595	0.183399	0.096488
Zn9	Zn	1.475612	0.183403	-0.096475
O10	O	1.467220	0.364976	0.073231
C11	C	1.247528	0.190558	0.000005
C12	C	1.108973	0.186911	0.000004
C13	C	0.917217	0.073603	0.000004
C14	C	1.060420	0.077371	0.000005
C15	C	1.482762	-0.044675	0.000009
C16	C	1.479114	-0.183229	0.000006
C17	C	1.477495	-0.244994	-0.075864
C18	C	1.473725	-0.388197	-0.075869
C19	C	1.703679	0.176243	0.000006
C20	C	1.842234	0.179891	0.000002
C21	C	1.468445	0.411477	0.000002
C22	C	1.472093	0.550031	-0.000001
N23	N	1.475593	0.183396	0.228181
N24	N	1.475624	0.183396	-0.228168
C25	C	1.559733	0.099314	0.453906
C26	C	1.559737	0.099311	0.546096
C27	C	1.391475	0.267482	0.546100
C28	C	1.391466	0.267478	0.453912
C29	C	1.475602	0.183395	0.407818
C30	C	1.475615	0.183397	0.592195
C31	C	1.475618	0.183394	0.692151
C32	C	1.475597	0.183396	0.307855
H33	H	1.124853	-0.013619	0.000002
Br34	Br	1.001596	0.338583	-0.000011
H35	H	1.322950	0.335948	0.416385
H36	H	1.478894	-0.191854	-0.140816
Br37	Br	0.847525	-0.082722	0.000017
H38	H	0.884055	0.273677	0.000005
H39	H	1.322974	0.335943	0.583640
Br40	Br	1.673915	-0.014801	0.391352
Br41	Br	1.471420	-0.476719	-0.184139
H42	H	1.477702	-0.236367	0.064958
Br43	Br	1.474428	-0.361458	0.108273
Br44	Br	1.673913	-0.014811	0.608643
