data_functionalizedCrystal
_audit_creation_method	'MofGen! by Chris Wilmer'
_symmetry_space_group_name_H-M	'P1'
_symmetry_Int_Tables_number	1
_symmetry_cell_setting	triclinic
loop_
_symmetry_equiv_pos_as_xyz
  x,y,z
_cell_length_a	18.050591
_cell_length_b	19.121111
_cell_length_c	18.050582
_cell_angle_alpha	92.417072
_cell_angle_beta	90.020922
_cell_angle_gamma	87.533405
loop_
_atom_site_label
_atom_site_type_symbol
_atom_site_fract_x
_atom_site_fract_y
_atom_site_fract_z
Zn1	Zn	1.122669	0.279734	0.432640
Zn2	Zn	1.622669	0.779734	0.932640
Zn3	Zn	1.117280	0.397178	0.313744
Zn4	Zn	1.617280	0.897178	0.813744
Zn5	Zn	0.998488	0.279737	0.308452
Zn6	Zn	1.498488	0.779737	0.808452
Zn7	Zn	0.993138	0.397141	0.437878
Zn8	Zn	1.493138	0.897141	0.937878
O9	O	1.057894	0.338447	0.373178
O10	O	1.557894	0.838447	0.873178
O11	O	1.225878	0.295327	0.416891
O12	O	1.725878	0.795327	0.916891
O13	O	1.101506	0.381616	0.209118
O14	O	1.601506	0.881616	0.709118
O15	O	1.019456	0.181452	0.320519
O16	O	1.519456	0.681452	0.820519
O17	O	1.221919	0.381613	0.329539
O18	O	1.721919	0.881613	0.829539
O19	O	1.110691	0.181449	0.411760
O20	O	1.610691	0.681449	0.911760
O21	O	1.014230	0.295332	0.205230
O22	O	1.514230	0.795332	0.705230
O23	O	0.893855	0.295296	0.325597
O24	O	1.393855	0.795296	0.825597
O25	O	1.010337	0.381550	0.541107
O26	O	1.510337	0.881550	1.041107
O27	O	0.889924	0.381552	0.420686
O28	O	1.389924	0.881552	0.920686
O29	O	1.105503	0.295291	0.537259
O30	O	1.605503	0.795291	1.037259
O31	O	1.096318	0.495458	0.334618
O32	O	1.596318	0.995458	0.834618
O33	O	1.005112	0.495430	0.425818
O34	O	1.505112	0.995430	0.925818
C35	C	0.864943	0.338421	0.373136
C36	C	1.364943	0.838421	0.873136
C37	C	0.782397	0.338427	0.373137
C38	C	1.282397	0.838427	0.873137
C39	C	0.585065	0.291466	0.321539
C40	C	1.085065	0.791466	0.821539
C41	C	0.532754	0.355526	0.306150
C42	C	1.032754	0.855526	0.806150
C43	C	0.631266	0.338448	0.373171
C44	C	1.131266	0.838448	0.873171
C45	C	0.536494	0.274410	0.388559
C46	C	1.036494	0.774410	0.888559
C47	C	0.485280	0.338463	0.373203
C48	C	0.985280	0.838463	0.873203
C49	C	0.580041	0.402542	0.357749
C50	C	1.080041	0.902542	0.857749
C51	C	0.583787	0.321383	0.440187
C52	C	1.083787	0.821383	0.940187
C53	C	0.531496	0.385487	0.424826
C54	C	1.031496	0.885487	0.924826
C55	C	0.715365	0.338439	0.373151
C56	C	1.215365	0.838439	0.873151
C57	C	0.401183	0.338480	0.373223
C58	C	0.901183	0.838480	0.873223
C59	C	1.049570	0.520928	0.381377
C60	C	1.549570	1.020928	0.881377
C61	C	1.046077	0.598994	0.384909
C62	C	1.546077	1.098994	0.884909
C63	C	1.091959	0.635661	0.339124
C64	C	1.591959	1.135661	0.839124
C65	C	1.088678	0.709012	0.342450
C66	C	1.588678	1.209012	0.842450
C67	C	1.039511	0.745696	0.391558
C68	C	1.539511	1.245696	0.891558
C69	C	0.993627	0.709024	0.437348
C70	C	1.493627	1.209024	0.937348
C71	C	0.996912	0.635674	0.434025
C72	C	1.496912	1.135674	0.934025
C73	C	1.027217	0.967166	0.403968
C74	C	1.527217	1.467166	0.903968
C75	C	1.023934	1.040521	0.407287
C76	C	1.523934	1.540521	0.907287
C77	C	1.118987	1.040504	0.312390
C78	C	1.618987	1.540504	0.812390
C79	C	1.122264	0.967153	0.309068
C80	C	1.622264	1.467153	0.809068
C81	C	1.076383	0.930487	0.354860
C82	C	1.576383	1.430487	0.854860
C83	C	1.036154	0.820673	0.394958
C84	C	1.536154	1.320673	0.894958
C85	C	1.079744	0.855512	0.351464
C86	C	1.579744	1.355512	0.851464
C87	C	1.251598	0.338474	0.373221
C88	C	1.751598	0.838474	0.873221
C89	C	1.334144	0.338485	0.373240
C90	C	1.834144	0.838485	0.873240
C91	C	1.057925	0.338416	0.566883
C92	C	1.557925	0.838416	1.066883
C93	C	1.057938	0.338403	0.649428
C94	C	1.557938	0.838403	1.149428
C95	C	1.066265	1.155254	0.364974
C96	C	1.566265	1.655254	0.864974
C97	C	1.069816	1.077188	0.361502
C98	C	1.569816	1.577188	0.861502
C99	C	1.057909	0.338428	0.180225
C100	C	1.557909	0.838428	0.680225
C101	C	1.058049	0.338243	0.097672
C102	C	1.558049	0.838243	0.597672
C103	C	1.006227	0.385246	0.850968
C104	C	1.506227	0.885246	1.350968
C105	C	1.073208	0.402419	0.901141
C106	C	1.573208	0.902419	1.401141
C107	C	1.057977	0.338349	0.800556
C108	C	1.557977	0.838349	1.300556
C109	C	0.991034	0.321157	0.897464
C110	C	1.491034	0.821157	1.397464
C111	C	1.058008	0.338299	0.946539
C112	C	1.558008	0.838299	1.446539
C113	C	1.124991	0.355556	0.849643
C114	C	1.624991	0.855556	1.349643
C115	C	1.042773	0.274264	0.845961
C116	C	1.542773	0.774264	1.345961
C117	C	1.109802	0.291412	0.896110
C118	C	1.609802	0.791412	1.396110
C119	C	1.057957	0.338380	0.716459
C120	C	1.557957	0.838380	1.216459
C121	C	1.058035	0.338268	1.030634
C122	C	1.558035	0.838268	1.530634
H123	H	0.608514	0.251778	0.277832
H124	H	1.108514	0.751778	0.777832
O125	O	1.138160	0.748563	0.293065
O126	O	1.638160	1.248563	0.793065
H127	H	1.172893	0.710731	0.258351
H128	H	1.672893	1.210731	0.758351
H129	H	0.606195	0.306918	0.496828
H130	H	1.106195	0.806918	0.996828
H131	H	1.181630	0.370137	0.828704
H132	H	1.681630	0.870137	1.328704
O133	O	0.511029	0.202669	0.405793
O134	O	1.011029	0.702669	0.905793
H135	H	0.532549	0.163766	0.362844
H136	H	1.032549	0.663766	0.862844
O137	O	1.167845	0.238849	0.922284
O138	O	1.667845	0.738849	1.422284
H139	H	1.223339	0.253265	0.903053
H140	H	1.723339	0.753265	1.403053
H141	H	0.962502	0.424957	0.831081
H142	H	1.462502	0.924957	1.331081
O143	O	1.090266	0.474173	0.933135
O144	O	1.590266	0.974173	1.433135
H145	H	1.098218	0.510076	0.887328
H146	H	1.598218	1.010076	1.387328
H147	H	0.989858	0.937319	0.441253
H148	H	1.489858	1.437319	0.941253
H149	H	1.029875	0.220105	0.821802
H150	H	1.529875	0.720105	1.321802
H151	H	1.131993	0.605798	0.299132
H152	H	1.631993	1.105798	0.799132
O153	O	0.916031	0.301911	0.925321
O154	O	1.416031	0.801911	1.425321
H155	H	0.873165	0.340936	0.907296
H156	H	1.373165	0.840936	1.407296
H157	H	1.162300	0.937286	0.269081
H158	H	1.662300	1.437286	0.769081
H159	H	1.156342	1.070365	0.275110
H160	H	1.656342	1.570365	0.775110
H161	H	0.510365	0.369971	0.249490
H162	H	1.010365	0.869971	0.749490
O163	O	0.970903	1.080097	0.460253
O164	O	1.470903	1.580097	0.960253
H165	H	0.984239	1.065991	0.517916
H166	H	1.484239	1.565991	1.017916
H167	H	0.599175	0.456720	0.344684
H168	H	1.099175	0.956720	0.844684
H169	H	0.959551	0.605821	0.471308
H170	H	1.459551	1.105821	0.971308
O171	O	0.500591	0.438179	0.482679
O172	O	1.000591	0.938179	0.982679
H173	H	0.518055	0.491267	0.469738
H174	H	1.018055	0.991267	0.969738
H175	H	0.953597	0.738898	0.477335
H176	H	1.453597	1.238898	0.977335
O177	O	1.132783	0.815946	0.298511
O178	O	1.632783	1.315946	0.798511
H179	H	1.101065	0.782571	0.259181
H180	H	1.601065	1.282571	0.759181
H181	H	0.996120	0.850549	0.434940
H182	H	1.496120	1.350549	0.934940
