data_functionalizedCrystal
_audit_creation_method	'MofGen! by Chris Wilmer'
_symmetry_space_group_name_H-M	'P1'
_symmetry_Int_Tables_number	1
_symmetry_cell_setting	triclinic
loop_
_symmetry_equiv_pos_as_xyz
  x,y,z
_cell_length_a	12.759395
_cell_length_b	29.839131
_cell_length_c	29.839125
_cell_angle_alpha	89.974637
_cell_angle_beta	89.991212
_cell_angle_gamma	90.035074
loop_
_atom_site_label
_atom_site_type_symbol
_atom_site_fract_x
_atom_site_fract_y
_atom_site_fract_z
Zn1	Zn	1.606008	-0.178918	-0.253943
Zn2	Zn	1.605869	-0.254030	-0.178803
Zn3	Zn	1.430339	-0.178915	-0.178830
Zn4	Zn	1.430236	-0.254022	-0.253909
O5	O	1.518113	-0.216471	-0.216371
O6	O	1.753011	-0.188887	-0.243979
O7	O	1.582569	-0.244068	-0.115939
O8	O	1.453744	-0.116048	-0.188819
O9	O	1.752908	-0.244071	-0.188774
O10	O	1.582807	-0.116051	-0.244005
O11	O	1.453608	-0.188881	-0.115959
O12	O	1.283304	-0.188873	-0.188786
O13	O	1.453568	-0.244057	-0.316780
O14	O	1.283229	-0.244054	-0.243946
O15	O	1.582707	-0.188879	-0.316806
O16	O	1.582469	-0.316896	-0.188740
O17	O	1.453432	-0.316890	-0.243920
C18	C	1.245146	-0.216462	-0.216366
C19	C	1.128369	-0.216469	-0.216374
C20	C	1.128456	-0.159099	-0.273952
C21	C	1.073639	-0.130419	-0.302744
C22	C	0.963918	-0.130427	-0.302750
C23	C	0.909011	-0.159117	-0.273959
C24	C	0.963828	-0.187797	-0.245166
C25	C	1.073552	-0.187786	-0.245165
C26	C	0.963740	-0.245164	-0.187587
C27	C	1.073462	-0.245159	-0.187583
C28	C	0.908833	-0.273854	-0.158796
C29	C	0.963650	-0.302537	-0.130005
C30	C	1.073378	-0.302528	-0.130001
C31	C	1.128279	-0.273839	-0.158790
C32	C	1.517953	-0.333194	-0.216333
C33	C	1.517980	-0.383128	-0.216332
C34	C	1.585302	-0.692738	-0.245147
C35	C	1.585416	-0.880411	-0.245174
O36	O	1.642498	-0.904647	-0.269645
N37	N	1.518291	-0.903913	-0.216421
C38	C	1.451129	-0.880494	-0.187661
O39	O	1.394031	-0.904791	-0.163209
C40	C	1.451010	-0.692822	-0.187637
C41	C	1.518147	-0.669322	-0.216389
C42	C	1.652432	-0.669238	-0.273897
C43	C	1.652406	-0.622323	-0.273888
C44	C	1.585251	-0.598907	-0.245130
C45	C	1.518122	-0.622407	-0.216380
C46	C	1.383844	-0.669404	-0.158880
C47	C	1.383818	-0.622483	-0.158877
C48	C	1.450954	-0.598983	-0.187629
C49	C	1.450941	-0.552076	-0.187612
N50	N	1.518066	-0.528574	-0.216366
C51	C	1.585221	-0.551989	-0.245124
C52	C	1.451197	-0.979025	-0.187675
C53	C	1.451228	-1.025943	-0.187681
C54	C	1.585514	-1.025856	-0.245194
C55	C	1.585488	-0.978938	-0.245186
C56	C	1.518322	-0.955523	-0.216428
C57	C	1.585163	-0.453463	-0.245103
C58	C	1.585135	-0.406544	-0.245091
C59	C	1.450846	-0.406635	-0.187579
C60	C	1.450878	-0.453550	-0.187590
C61	C	1.518040	-0.476963	-0.216355
O62	O	1.393881	-0.527811	-0.163157
O63	O	1.642294	-0.527685	-0.269580
C64	C	1.585327	-0.739653	-0.245156
C65	C	1.518197	-0.763153	-0.216406
C66	C	1.451042	-0.739738	-0.187648
C67	C	1.518228	-0.810071	-0.216412
C68	C	1.585383	-0.833487	-0.245170
C69	C	1.652507	-0.809985	-0.273923
C70	C	1.652482	-0.763069	-0.273914
C71	C	1.383918	-0.763240	-0.158894
C72	C	1.383949	-0.810155	-0.158905
C73	C	1.451104	-0.833571	-0.187664
C74	C	1.792146	-0.216481	-0.216377
C75	C	1.908923	-0.216484	-0.216379
C76	C	1.518141	-0.216467	-0.333549
C77	C	1.518154	-0.216465	-0.383484
C78	C	1.518303	-0.099293	-0.216419
C79	C	1.518383	-0.049358	-0.216439
C80	C	1.585467	-0.187659	-0.693144
C81	C	1.585519	-0.187621	-0.880817
O82	O	1.642673	-0.163171	-0.905095
N83	N	1.518293	-0.216345	-0.904269
C84	C	1.451044	-0.245079	-0.880801
O85	O	1.393857	-0.269507	-0.905055
C86	C	1.450987	-0.245115	-0.693128
C87	C	1.518226	-0.216392	-0.669678
C88	C	1.652699	-0.158938	-0.669694
C89	C	1.652689	-0.158949	-0.622778
C90	C	1.585448	-0.187682	-0.599313
C91	C	1.518216	-0.216403	-0.622763
C92	C	1.383734	-0.273846	-0.669661
C93	C	1.383724	-0.273852	-0.622739
C94	C	1.450962	-0.245129	-0.599289
C95	C	1.450965	-0.245148	-0.552382
N96	N	1.518191	-0.216423	-0.528929
C97	C	1.585432	-0.187690	-0.552395
C98	C	1.451080	-0.245059	-0.979331
C99	C	1.451095	-0.245051	-1.026249
C100	C	1.585569	-0.187591	-1.026262
C101	C	1.585559	-0.187602	-0.979343
C102	C	1.518306	-0.216335	-0.955879
C103	C	1.585408	-0.187717	-0.453869
C104	C	1.585395	-0.187733	-0.406949
C105	C	1.450918	-0.245190	-0.406940
C106	C	1.450934	-0.245177	-0.453856
C107	C	1.518182	-0.216436	-0.477319
O108	O	1.393832	-0.269581	-0.528074
O109	O	1.642594	-0.163259	-0.528133
C110	C	1.585477	-0.187647	-0.740059
C111	C	1.518245	-0.216369	-0.763509
C112	C	1.451003	-0.245101	-0.740044
C113	C	1.518260	-0.216360	-0.810427
C114	C	1.585502	-0.187627	-0.833892
C115	C	1.652728	-0.158903	-0.810440
C116	C	1.652718	-0.158915	-0.763524
C117	C	1.383777	-0.273826	-0.763496
C118	C	1.383793	-0.273812	-0.810412
C119	C	1.451035	-0.245079	-0.833877
C120	C	1.518145	-0.216443	-0.099649
C121	C	1.518337	-0.216318	-0.049714
H122	H	0.919286	-0.107070	-0.326193
N123	N	1.654233	-0.158266	-0.955385
N124	N	1.721149	-0.174076	-0.929199
H125	H	1.769652	-0.153356	-0.912280
N126	N	0.796933	-0.159113	-0.273964
N127	N	0.748003	-0.133501	-0.299670
H128	H	0.668846	-0.133498	-0.299673
N129	N	1.315224	-0.598567	-0.129493
N130	N	1.352218	-0.572392	-0.100872
H131	H	1.303777	-0.555501	-0.080118
H132	H	1.328981	-0.297236	-0.688746
H133	H	1.118357	-0.107059	-0.326185
H134	H	1.329231	-0.744179	-0.135476
N135	N	1.382218	-0.274530	-0.382965
N136	N	1.285278	-0.271539	-0.388200
H137	H	1.236752	-0.292258	-0.371266
N138	N	1.653739	-0.382545	-0.274455
N139	N	1.750689	-0.387759	-0.271507
H140	H	1.799143	-0.370813	-0.292245
H141	H	1.217797	-0.159087	-0.273948
N142	N	1.721360	-0.129611	-0.598820
N143	N	1.788281	-0.145418	-0.572635
H144	H	1.836780	-0.124696	-0.555715
H145	H	1.118004	-0.325882	-0.106553
N146	N	1.654092	-0.158391	-0.383003
N147	N	1.714122	-0.132739	-0.403964
H148	H	1.762639	-0.112016	-0.387054
N149	N	1.315259	-0.693398	-0.129509
N150	N	1.322268	-0.688176	-0.088056
H151	H	1.273821	-0.705119	-0.067313
N152	N	0.796756	-0.273857	-0.158794
N153	N	0.747810	-0.238802	-0.149478
H154	H	0.668654	-0.238805	-0.149476
N155	N	1.721089	-0.833908	-0.303306
N156	N	1.714041	-0.828650	-0.344758
H157	H	1.762469	-0.845548	-0.365511
H158	H	0.918936	-0.325892	-0.106564
N159	N	1.654100	-0.158355	-0.477824
N160	N	1.714117	-0.132715	-0.456874
H161	H	1.762634	-0.111978	-0.473792
N162	N	1.315380	-0.834164	-0.129533
N163	N	1.352393	-0.860351	-0.100922
H164	H	1.303963	-0.877306	-0.080181
H165	H	1.640321	-0.164196	-1.045376
N166	N	1.382421	-0.274400	-1.050193
N167	N	1.322391	-0.300050	-1.029230
H168	H	1.273883	-0.320778	-1.046139
H169	H	1.217620	-0.273827	-0.158788
N170	N	1.653771	-0.477368	-0.274490
N171	N	1.713699	-0.456373	-0.300155
H172	H	1.762157	-0.473255	-0.320908
H173	H	1.707071	-0.603192	-0.297301
H174	H	1.707117	-0.688298	-0.297318
N175	N	1.654074	-0.954942	-0.274557
N176	N	1.714030	-0.975860	-0.300229
H177	H	1.762473	-0.958916	-0.320974
N178	N	1.654091	-1.049780	-0.274579
N179	N	1.647033	-1.044523	-0.316030
H180	H	1.695457	-1.061422	-0.336785
N181	N	1.382662	-1.049937	-0.158301
N182	N	1.322713	-1.029019	-0.132626
H183	H	1.274283	-1.045964	-0.111876
H184	H	1.396502	-0.959964	-0.164256
N185	N	1.721395	-0.129565	-0.739582
N186	N	1.714490	-0.088111	-0.744839
H187	H	1.762995	-0.067380	-0.727933
H188	H	1.396218	-0.472685	-0.164174
H189	H	1.396173	-0.387562	-0.164163
H190	H	1.707150	-0.743939	-0.297327
H191	H	1.707455	-0.135538	-0.688794
H192	H	1.396316	-0.268459	-0.960231
N193	N	1.315011	-0.303202	-0.598779
N194	N	1.254986	-0.328842	-0.619726
H195	H	1.206458	-0.349571	-0.602805
H196	H	1.396193	-0.268569	-0.472950
N197	N	1.721414	-0.129558	-0.834421
N198	N	1.721405	-0.129558	-0.876312
H199	H	1.769908	-0.108833	-0.893251
N200	N	1.315108	-0.303161	-0.834356
N201	N	1.255079	-0.328812	-0.813393
H202	H	1.206566	-0.349538	-0.830301
H203	H	1.329021	-0.297225	-0.744396
