data_functionalizedCrystal
_audit_creation_method	'MofGen! by Chris Wilmer'
_symmetry_space_group_name_H-M	'P1'
_symmetry_Int_Tables_number	1
_symmetry_cell_setting	triclinic
loop_
_symmetry_equiv_pos_as_xyz
  x,y,z
_cell_length_a	12.827893
_cell_length_b	16.120444
_cell_length_c	12.827885
_cell_angle_alpha	92.864681
_cell_angle_beta	89.980728
_cell_angle_gamma	92.926647
loop_
_atom_site_label
_atom_site_type_symbol
_atom_site_fract_x
_atom_site_fract_y
_atom_site_fract_z
Zn1	Zn	1.576498	-0.331863	-0.611895
Zn2	Zn	1.567496	-0.471299	-0.446001
Zn3	Zn	1.401737	-0.331905	-0.437172
Zn4	Zn	1.392833	-0.471238	-0.620697
O5	O	1.484641	-0.401576	-0.528941
O6	O	1.721540	-0.350369	-0.589900
O7	O	1.545466	-0.452851	-0.298596
O8	O	1.432413	-0.215233	-0.452971
O9	O	1.714925	-0.452811	-0.468018
O10	O	1.560810	-0.215203	-0.581339
O11	O	1.423684	-0.350438	-0.292110
O12	O	1.254320	-0.350379	-0.461506
O13	O	1.417238	-0.452706	-0.765763
O14	O	1.247779	-0.452746	-0.596341
O15	O	1.552176	-0.350309	-0.759296
O16	O	1.536833	-0.587957	-0.476553
O17	O	1.408508	-0.587912	-0.604902
C18	C	1.213132	-0.401561	-0.528921
C19	C	1.096978	-0.401574	-0.528939
C20	C	0.921934	-0.452321	-0.595583
C21	C	1.041985	-0.452308	-0.595567
C22	C	1.470756	-0.618184	-0.542663
C23	C	1.464911	-0.710850	-0.548569
C24	C	1.515215	-0.921795	-0.498532
C25	C	1.454260	-0.880507	-0.559361
C26	C	1.460188	-0.786101	-0.553355
C27	C	1.509289	-1.016209	-0.504537
C28	C	1.757210	-0.401592	-0.528962
C29	C	1.873363	-0.401599	-0.528971
C30	C	1.484718	-0.401496	-0.801507
C31	C	1.484751	-0.401462	-0.917658
C32	C	1.498609	-0.184122	-0.515188
C33	C	1.504561	-0.091456	-0.509328
C34	C	1.424510	-0.350775	-0.966232
C35	C	1.424543	-0.350739	-1.086280
C36	C	1.484628	-0.401596	-0.257433
C37	C	1.484813	-0.401395	-0.141267
H38	H	1.397622	-0.916060	-0.615950
C39	C	1.554462	-0.460054	-0.981530
C40	C	1.504932	-0.525428	-1.060724
C41	C	1.574646	-0.584021	-1.124594
C42	C	1.693889	-0.577241	-1.109269
C43	C	1.743426	-0.511864	-1.030072
C44	C	1.673712	-0.453270	-0.966203
H45	H	1.416655	-0.530450	-1.072071
H46	H	1.537975	-0.632418	-1.183221
H47	H	1.745496	-0.620615	-1.156550
H48	H	1.831703	-0.506842	-1.018725
H49	H	1.710383	-0.404874	-0.907575
H50	H	1.372973	-0.307340	-1.128065
H51	H	1.083767	-0.495729	-0.652601
C52	C	1.591723	-0.873772	-0.422082
C53	C	1.597610	-0.778001	-0.416109
C54	C	1.674113	-0.729967	-0.339659
C55	C	1.744730	-0.777704	-0.269182
C56	C	1.738845	-0.873480	-0.275153
C57	C	1.662341	-0.921514	-0.351603
H58	H	1.545333	-0.742659	-0.468282
H59	H	1.678469	-0.659067	-0.335240
H60	H	1.801362	-0.742146	-0.212590
H61	H	1.791122	-0.908823	-0.222980
H62	H	1.657986	-0.992415	-0.356023
C63	C	0.858054	-0.511000	-0.672650
C64	C	0.738013	-0.510928	-0.672558
C65	C	0.674137	-0.569608	-0.749629
C66	C	0.730301	-0.628361	-0.826792
C67	C	0.850349	-0.628436	-0.826887
C68	C	0.914225	-0.569755	-0.749816
H69	H	0.696431	-0.467433	-0.615435
H70	H	0.585270	-0.569552	-0.749558
H71	H	0.683016	-0.671800	-0.883844
H72	H	0.891931	-0.671930	-0.884010
H73	H	1.003093	-0.569811	-0.749887
C74	C	1.040550	-0.342904	-0.451887
C75	C	0.969690	-0.277555	-0.493241
C76	C	0.913253	-0.218884	-0.416189
C77	C	0.927676	-0.225563	-0.297785
C78	C	0.998539	-0.290915	-0.256425
C79	C	1.054976	-0.349585	-0.333477
H80	H	0.959010	-0.272608	-0.580896
H81	H	0.860795	-0.170507	-0.446807
H82	H	0.885898	-0.182132	-0.240747
H83	H	1.009218	-0.295861	-0.168770
H84	H	1.107434	-0.397963	-0.302859
H85	H	1.536394	-0.444789	-1.099489
C86	C	1.354796	-0.292186	-0.902360
C87	C	1.354861	-0.292308	-0.782322
C88	C	1.285142	-0.233718	-0.718452
C89	C	1.215359	-0.175006	-0.774621
C90	C	1.215292	-0.174881	-0.894665
C91	C	1.285010	-0.233472	-0.958535
H92	H	1.406521	-0.335772	-0.740737
H93	H	1.285193	-0.233810	-0.629587
H94	H	1.163750	-0.131634	-0.727341
H95	H	1.163632	-0.131417	-0.936250
H96	H	1.284960	-0.233379	-1.047400
H97	H	0.920656	-0.358168	-0.471926
