data_functionalizedCrystal
_audit_creation_method	'MofGen! by Chris Wilmer'
_symmetry_space_group_name_H-M	'P1'
_symmetry_Int_Tables_number	1
_symmetry_cell_setting	triclinic
loop_
_symmetry_equiv_pos_as_xyz
  x,y,z
_cell_length_a	10.967819
_cell_length_b	9.730217
_cell_length_c	10.654549
_cell_angle_alpha	90.001513
_cell_angle_beta	95.398505
_cell_angle_gamma	77.866987
loop_
_atom_site_label
_atom_site_type_symbol
_atom_site_fract_x
_atom_site_fract_y
_atom_site_fract_z
O1	O	1.657246	-0.506796	-0.176166
O2	O	1.294090	-0.420787	-0.193022
O3	O	1.484014	-0.465763	-0.001854
O4	O	1.467321	-0.461820	-0.367334
O5	O	1.484000	-0.237179	-0.001856
O6	O	1.294075	-0.192204	-0.193024
O7	O	1.657231	-0.278213	-0.176168
Zn8	Zn	1.475651	-0.198916	-0.184596
Zn9	Zn	1.475670	-0.500084	-0.184594
O10	O	1.467307	-0.233237	-0.367336
C11	C	1.247582	-0.295482	-0.191795
C12	C	1.109025	-0.262667	-0.188123
N13	N	1.475647	0.006622	-0.184596
C14	C	0.904059	-0.332559	-0.182701
C15	C	1.047266	-0.366467	-0.186488
C16	C	1.643924	0.254497	-0.015359
C17	C	1.728036	0.162619	0.069260
C18	C	1.728021	0.018743	0.069264
C19	C	1.643887	-0.033257	-0.015363
C20	C	1.559774	0.058620	-0.099982
C21	C	1.559796	0.202498	-0.099974
C22	C	1.391535	0.098500	-0.269215
C23	C	1.391542	0.242378	-0.269215
C24	C	1.307401	0.046499	-0.353842
C25	C	1.223281	0.138379	-0.438457
C26	C	1.223299	0.282263	-0.438456
C27	C	1.307430	0.334255	-0.353834
C28	C	1.703739	-0.403520	-0.177394
C29	C	1.842296	-0.436345	-0.181067
C30	C	1.482780	-0.351182	0.044943
C31	C	1.479109	-0.350317	0.184385
N32	N	1.475676	0.294378	-0.184589
C33	C	1.468541	-0.347820	-0.414133
C34	C	1.472212	-0.348694	-0.553575
C35	C	1.699324	-0.402466	0.474400
C36	C	1.814605	-0.429766	0.422879
C37	C	1.818059	-0.430586	0.291862
C38	C	1.706219	-0.404098	0.212361
C39	C	1.590937	-0.376798	0.263882
C40	C	1.587496	-0.375985	0.394904
C41	C	1.363828	-0.323017	0.235907
C42	C	1.360372	-0.322207	0.366924
C43	C	1.251988	-0.296530	0.156406
C44	C	1.136703	-0.269239	0.207926
C45	C	1.133255	-0.268422	0.338952
C46	C	1.245090	-0.294907	0.418445
H47	H	0.850914	-0.218601	-0.181304
C48	C	1.013697	-0.240109	0.120478
H49	H	1.032265	-0.244509	0.035071
H50	H	0.966458	-0.149219	0.136205
H51	H	0.966488	-0.308657	0.136194
H52	H	1.905663	-0.451327	0.487623
H53	H	1.055887	-0.148700	-0.186726
C54	C	1.643929	0.412759	-0.015355
H55	H	1.581780	0.460031	-0.077864
H56	H	1.723836	0.426375	-0.033274
H57	H	1.626151	0.449514	0.065081
H58	H	1.709041	-0.404751	0.105681
H59	H	0.895439	-0.550303	-0.182479
C60	C	1.820572	0.219823	0.162345
H61	H	1.808531	0.318671	0.150236
H62	H	1.903970	0.176473	0.147941
H63	H	1.806285	0.199631	0.246294
H64	H	1.100404	-0.480433	-0.187900
C65	C	1.820539	-0.082324	0.162343
H66	H	1.870644	-0.030754	0.212747
H67	H	1.872861	-0.150863	0.116683
H68	H	1.775180	-0.127691	0.215042
C69	C	1.130752	0.383324	-0.531517
H70	H	1.080637	0.331745	-0.581899
H71	H	1.176072	0.428723	-0.584221
H72	H	1.078424	0.451839	-0.485829
H73	H	1.643890	-0.150412	-0.015365
H74	H	1.307397	-0.070654	-0.353840
C75	C	1.255784	-0.297434	0.012290
H76	H	1.340457	-0.317500	-0.007011
H77	H	1.214618	-0.207977	-0.022520
H78	H	1.214631	-0.367412	-0.022508
H79	H	1.039378	-0.246176	0.380891
C80	C	1.130747	0.081176	-0.531533
H81	H	1.142785	-0.017669	-0.519410
H82	H	1.145014	0.101375	-0.615480
H83	H	1.047345	0.124518	-0.517110
H84	H	1.242293	-0.294252	0.525128
C85	C	1.307456	0.492513	-0.353832
H86	H	1.369614	0.510316	-0.291321
H87	H	1.227558	0.544012	-0.335910
H88	H	1.325241	0.520837	-0.434266
C89	C	1.695531	-0.401579	0.618516
H90	H	1.778645	-0.421258	0.658484
H91	H	1.652814	-0.471174	0.642983
H92	H	1.652809	-0.311741	0.642995
C93	C	1.944861	-0.460610	0.235179
H94	H	1.930892	-0.457293	0.145764
H95	H	1.990968	-0.551236	0.262395
H96	H	1.990943	-0.391798	0.262395
