data_functionalizedCrystal
_audit_creation_method	'MofGen! by Chris Wilmer'
_symmetry_space_group_name_H-M	'P1'
_symmetry_Int_Tables_number	1
_symmetry_cell_setting	triclinic
loop_
_symmetry_equiv_pos_as_xyz
  x,y,z
_cell_length_a	25.639243
_cell_length_b	25.639239
_cell_length_c	25.639233
_cell_angle_alpha	89.981253
_cell_angle_beta	90.015962
_cell_angle_gamma	89.958590
loop_
_atom_site_label
_atom_site_type_symbol
_atom_site_fract_x
_atom_site_fract_y
_atom_site_fract_z
Zn1	Zn	0.799225	0.208176	0.295656
Zn2	Zn	0.799149	0.295595	0.208220
Zn3	Zn	0.711801	0.208180	0.208229
Zn4	Zn	0.711746	0.295587	0.295619
O5	O	0.755480	0.251885	0.251931
O6	O	0.872380	0.219775	0.284069
O7	O	0.787553	0.284004	0.135056
O8	O	0.723453	0.135014	0.219846
O9	O	0.872324	0.284001	0.219830
O10	O	0.787683	0.135012	0.284077
O11	O	0.723379	0.219781	0.135063
O12	O	0.638629	0.219772	0.219810
O13	O	0.723360	0.283987	0.368789
O14	O	0.638589	0.283990	0.284016
O15	O	0.787630	0.219767	0.368816
O16	O	0.787499	0.368759	0.219795
O17	O	0.723286	0.368753	0.284007
C18	C	0.619638	0.251881	0.251910
C19	C	0.561524	0.251892	0.251914
C20	C	0.201184	0.218495	0.285436
C21	C	0.146580	0.218494	0.285439
O22	O	0.118363	0.190088	0.313915
N23	N	0.119241	0.251883	0.251945
C24	C	0.146510	0.285271	0.218443
O25	O	0.118242	0.313670	0.189954
C26	C	0.201113	0.285268	0.218437
C27	C	0.228449	0.251881	0.251937
C28	C	0.228520	0.185109	0.318932
C29	C	0.283121	0.185111	0.318930
C30	C	0.310385	0.218497	0.285431
C31	C	0.283049	0.251882	0.251934
C32	C	0.228380	0.318653	0.184932
C33	C	0.282987	0.318647	0.184929
C34	C	0.310323	0.285260	0.218429
C35	C	0.364915	0.285270	0.218432
N36	N	0.392253	0.251881	0.251926
C37	C	0.364989	0.218494	0.285425
C38	C	0.031839	0.285273	0.218456
C39	C	-0.022763	0.285279	0.218464
C40	C	-0.022689	0.218501	0.285460
C41	C	0.031914	0.218499	0.285454
C42	C	0.059178	0.251884	0.251950
C43	C	0.479654	0.218500	0.285417
C44	C	0.534259	0.218506	0.285413
C45	C	0.534180	0.285281	0.218415
C46	C	0.479580	0.285278	0.218421
C47	C	0.452318	0.251883	0.251924
O48	O	0.393166	0.313659	0.189969
O49	O	0.393263	0.190095	0.313904
C50	C	0.755392	0.387727	0.251907
C51	C	0.755403	0.445841	0.251914
C52	C	0.755497	0.251875	0.388304
C53	C	0.755504	0.251871	0.446418
C54	C	0.891853	0.251888	0.251952
C55	C	0.949967	0.251890	0.251961
C56	C	0.755583	0.115512	0.251967
C57	C	0.755627	0.057397	0.251982
C58	C	0.789004	0.806195	0.218553
C59	C	0.789024	0.860799	0.218560
O60	O	0.817502	0.889028	0.190169
N61	N	0.755572	0.888124	0.251966
C62	C	0.722102	0.860841	0.285371
O63	O	0.693651	0.889096	0.313786
C64	C	0.722085	0.806238	0.285366
C65	C	0.755535	0.778916	0.251954
C66	C	0.822452	0.778873	0.185144
C67	C	0.822431	0.724273	0.185137
C68	C	0.788962	0.696994	0.218538
C69	C	0.755514	0.724315	0.251946
C70	C	0.688617	0.778956	0.318773
C71	C	0.688603	0.724349	0.318765
C72	C	0.722053	0.697027	0.285354
C73	C	0.722024	0.642436	0.285340
N74	N	0.755475	0.615112	0.251934
C75	C	0.788944	0.642390	0.218533
C76	C	0.722141	0.975511	0.285379
C77	C	0.722155	1.030114	0.285381
C78	C	0.789078	1.030068	0.218571
C79	C	0.789061	0.975465	0.218566
C80	C	0.755593	0.948187	0.251973
C81	C	0.788897	0.527725	0.218519
C82	C	0.788872	0.473120	0.218513
C83	C	0.721951	0.473170	0.285325
C84	C	0.721974	0.527771	0.285329
C85	C	0.755452	0.555047	0.251925
O86	O	0.693562	0.614173	0.313718
O87	O	0.817396	0.614128	0.190127
C88	C	0.755494	0.251856	0.116089
C89	C	0.755588	0.251713	0.057975
C90	C	0.789012	0.218333	0.806801
C91	C	0.789019	0.218318	0.861405
O92	O	0.817466	0.189864	0.889659
N93	N	0.755562	0.251749	0.888701
C94	C	0.722093	0.285192	0.861389
O95	O	0.693636	0.313626	0.889620
C96	C	0.722084	0.285204	0.806786
C97	C	0.755547	0.251775	0.779493
C98	C	0.822472	0.184906	0.779508
C99	C	0.822466	0.184921	0.724908
C100	C	0.789001	0.218363	0.697600
C101	C	0.755541	0.251790	0.724893
C102	C	0.688613	0.318644	0.779475
C103	C	0.688607	0.318653	0.724868
C104	C	0.722069	0.285223	0.697576
C105	C	0.722070	0.285247	0.642984
N106	N	0.755526	0.251817	0.615689
C107	C	0.788992	0.218375	0.642996
C108	C	0.722113	0.285165	0.976060
C109	C	0.722124	0.285157	1.030662
C110	C	0.789049	0.218282	1.030675
C111	C	0.789041	0.218293	0.976071
C112	C	0.755570	0.251735	0.948764
C113	C	0.788977	0.218410	0.528331
C114	C	0.788970	0.218429	0.473726
C115	C	0.722043	0.285302	0.473719
C116	C	0.722052	0.285285	0.528319
C117	C	0.755521	0.251834	0.555624
O118	O	0.693635	0.313686	0.614696
O119	O	0.817439	0.189941	0.614759
H120	H	0.206327	0.157919	0.346212
C121	C	0.061982	0.181769	0.322300
C122	C	0.054491	0.186123	0.381730
C123	C	0.084555	0.149391	0.418577
C124	C	0.122110	0.108304	0.395993
C125	C	0.129603	0.103948	0.336560
C126	C	0.099538	0.140680	0.299714
H127	H	0.026689	0.216540	0.398451
H128	H	0.079008	0.152616	0.462574
H129	H	0.144365	0.081112	0.423269
H130	H	0.157405	0.073531	0.319840
H131	H	0.105085	0.137455	0.255717
H132	H	0.694883	0.953304	0.312581
C133	C	0.651791	0.355445	0.694834
C134	C	0.674410	0.396507	0.657300
C135	C	0.637597	0.433301	0.627267
C136	C	0.578164	0.429033	0.634769
C137	C	0.555541	0.387969	0.672305
C138	C	0.592354	0.351175	0.702337
H139	H	0.718409	0.399668	0.651745
H140	H	0.654344	0.463700	0.599480
H141	H	0.550912	0.456270	0.612537
H142	H	0.511542	0.384808	0.677859
H143	H	0.575607	0.320776	0.730124
C144	C	-0.052685	0.181773	0.322310
C145	C	-0.090227	0.204492	0.363317
C146	C	-0.120223	0.167767	0.400167
C147	C	-0.112678	0.108323	0.396009
C148	C	-0.075135	0.085600	0.354999
C149	C	-0.045138	0.122325	0.318150
H150	H	-0.095813	0.248499	0.366397
H151	H	-0.148015	0.184588	0.430524
H152	H	-0.134883	0.081137	0.423287
H153	H	-0.069548	0.041593	0.351920
H154	H	-0.017346	0.105504	0.287792
C155	C	0.685178	0.557826	0.322083
C156	C	0.707825	0.595313	0.363162
C157	C	0.671033	0.625362	0.399921
C158	C	0.611595	0.617923	0.395602
C159	C	0.588945	0.580434	0.354521
C160	C	0.625737	0.550385	0.317761
H161	H	0.751827	0.600821	0.366361
H162	H	0.687800	0.653114	0.430332
H163	H	0.584360	0.640167	0.422813
H164	H	0.544943	0.574926	0.351322
H165	H	0.608970	0.522633	0.287351
C166	C	0.825796	0.181618	0.558362
C167	C	0.885228	0.185895	0.550856
C168	C	0.922049	0.149107	0.580887
C169	C	0.899438	0.108041	0.618423
C170	C	0.840003	0.103762	0.625930
C171	C	0.803182	0.140550	0.595899
H172	H	0.901968	0.216296	0.523069
H173	H	0.966047	0.152275	0.575329
H174	H	0.926695	0.080808	0.640653
H175	H	0.823262	0.073361	0.653718
H176	H	0.759184	0.137382	0.601457
H177	H	0.849724	0.157671	0.801736
C178	C	0.825859	0.181489	1.060719
C179	C	0.885293	0.185754	1.053227
C180	C	0.922100	0.148964	1.083273
C181	C	0.899473	0.107909	1.120810
C182	C	0.840035	0.103643	1.128304
C183	C	0.803228	0.140433	1.098258
H184	H	0.902047	0.216147	1.025438
H185	H	0.966100	0.152123	1.077725
H186	H	0.926720	0.080675	1.143051
H187	H	0.823282	0.073250	1.156093
H188	H	0.759228	0.137274	1.103806
H189	H	0.694881	0.312384	1.052880
H190	H	0.694857	0.312400	0.953830
H191	H	0.849714	0.157699	0.702691
H192	H	0.694699	0.450951	0.312518
C193	C	0.651799	0.355407	0.809496
C194	C	0.610777	0.332727	0.847026
C195	C	0.573959	0.369488	0.877049
C196	C	0.578163	0.428929	0.869542
C197	C	0.619187	0.451613	0.832010
C198	C	0.656005	0.414852	0.801987
H199	H	0.607663	0.288722	0.852585
H200	H	0.543590	0.352696	0.904833
H201	H	0.550908	0.456142	0.891767
H202	H	0.622300	0.495617	0.826451
H203	H	0.686373	0.431644	0.774203
H204	H	0.816111	0.450876	0.191304
C205	C	0.651822	0.809002	0.355527
C206	C	0.674462	0.846497	0.396603
C207	C	0.637665	0.876544	0.433359
C208	C	0.578228	0.869096	0.429039
C209	C	0.555585	0.831599	0.387961
C210	C	0.592382	0.801553	0.351205
H211	H	0.718463	0.852012	0.399802
H212	H	0.654427	0.904302	0.463767
H213	H	0.550989	0.891338	0.456248
H214	H	0.511584	0.826084	0.384762
H215	H	0.575620	0.773795	0.320797
C216	C	0.061827	0.322007	0.181605
C217	C	0.099344	0.363089	0.204182
C218	C	0.129328	0.399822	0.167330
C219	C	0.121796	0.395472	0.107902
C220	C	0.084278	0.354387	0.085321
C221	C	0.054293	0.317655	0.122173
H222	H	0.104921	0.366311	0.248177
H223	H	0.157102	0.430236	0.184046
H224	H	0.143992	0.422663	0.080622
H225	H	0.078701	0.351165	0.041326
H226	H	0.026520	0.287241	0.105457
H227	H	0.694912	1.052354	0.312583
C228	C	0.825846	0.181518	0.946052
C229	C	0.821624	0.122079	0.953571
C230	C	0.858431	0.085301	0.923555
C231	C	0.899459	0.107961	0.886019
C232	C	0.903682	0.167403	0.878497
C233	C	0.866876	0.204181	0.908514
H234	H	0.791251	0.105302	0.981359
H235	H	0.855304	0.041298	0.929123
H236	H	0.926705	0.080736	0.863799
H237	H	0.934055	0.184180	0.850710
H238	H	0.870003	0.248184	0.902946
H239	H	0.816300	0.953223	0.191360
H240	H	0.661350	0.702142	0.345971
H241	H	0.694809	0.312510	0.550542
H242	H	0.694798	0.312531	0.451475
H243	H	0.556514	0.191317	0.312694
C244	C	0.312977	0.355374	0.148074
C245	C	0.305449	0.351017	0.088645
C246	C	0.335438	0.387744	0.051792
C247	C	0.372954	0.428829	0.074367
C248	C	0.380483	0.433188	0.133799
C249	C	0.350495	0.396460	0.170652
H250	H	0.277676	0.320602	0.071931
H251	H	0.329864	0.384517	0.007796
H252	H	0.395153	0.456016	0.047086
H253	H	0.408256	0.463602	0.150513
H254	H	0.356068	0.399687	0.214648
H255	H	0.305373	0.157922	0.346208
C256	C	0.449670	0.181768	0.322271
C257	C	0.412131	0.204483	0.363283
C258	C	0.382147	0.167754	0.400140
C259	C	0.389703	0.108311	0.395984
C260	C	0.427245	0.085593	0.354970
C261	C	0.457228	0.122322	0.318114
H262	H	0.406536	0.248489	0.366361
H263	H	0.354357	0.184571	0.430501
H264	H	0.367508	0.081122	0.423267
H265	H	0.432840	0.041587	0.351892
H266	H	0.485019	0.105505	0.287753
C267	C	-0.052829	0.322010	0.181618
C268	C	-0.045333	0.317655	0.122188
C269	C	-0.075396	0.354385	0.085339
C270	C	-0.112955	0.395471	0.107919
C271	C	-0.120452	0.399828	0.167351
C272	C	-0.090389	0.363098	0.204201
H273	H	-0.017529	0.287239	0.105471
H274	H	-0.069846	0.351160	0.041343
H275	H	-0.135209	0.422661	0.080641
H276	H	-0.148257	0.430244	0.184069
H277	H	-0.095939	0.366323	0.248197
C278	C	0.564178	0.322004	0.181567
C279	C	0.624239	0.321998	0.181565
C280	C	0.654239	0.358718	0.144713
C281	C	0.624176	0.395444	0.107863
C282	C	0.564111	0.395452	0.107864
C283	C	0.534112	0.358732	0.144715
H284	H	0.646496	0.294809	0.208844
H285	H	0.698703	0.358712	0.144712
H286	H	0.646384	0.422627	0.080583
H287	H	0.541855	0.422640	0.080584
H288	H	0.489648	0.358738	0.144716
C289	C	0.825719	0.557724	0.181772
C290	C	0.821483	0.550241	0.122330
C291	C	0.858301	0.580240	0.085580
C292	C	0.899354	0.617722	0.108270
C293	C	0.903591	0.625207	0.167715
C294	C	0.866774	0.595208	0.204465
H295	H	0.791091	0.522493	0.105531
H296	H	0.855164	0.574699	0.041575
H297	H	0.926609	0.639929	0.081065
H298	H	0.933983	0.652954	0.184514
H299	H	0.869911	0.600749	0.248470
H300	H	0.206133	0.345840	0.157652
C301	C	0.859271	0.808873	0.148398
C302	C	0.855037	0.801384	0.088957
C303	C	0.891856	0.831379	0.052204
C304	C	0.932908	0.868862	0.074892
C305	C	0.937144	0.876353	0.134336
C306	C	0.900325	0.846359	0.171088
H307	H	0.824645	0.773634	0.072159
H308	H	0.888720	0.825833	0.008200
H309	H	0.960164	0.891066	0.047685
H310	H	0.967536	0.904103	0.151133
H311	H	0.903461	0.851904	0.215093
H312	H	0.457322	0.312470	0.191149
H313	H	0.849670	0.702031	0.157932
H314	H	0.816333	1.052289	0.191376
H315	H	0.816221	0.191207	0.451507
