data_functionalizedCrystal
_audit_creation_method	'MofGen! by Chris Wilmer'
_symmetry_space_group_name_H-M	'P1'
_symmetry_Int_Tables_number	1
_symmetry_cell_setting	triclinic
loop_
_symmetry_equiv_pos_as_xyz
  x,y,z
_cell_length_a	10.723023
_cell_length_b	10.723023
_cell_length_c	9.798715
_cell_angle_alpha	89.997861
_cell_angle_beta	89.996770
_cell_angle_gamma	84.467548
loop_
_atom_site_label
_atom_site_type_symbol
_atom_site_fract_x
_atom_site_fract_y
_atom_site_fract_z
O1	O	1.657187	0.175020	-0.113474
O2	O	1.294035	0.191774	-0.113479
O3	O	1.483988	0.001821	-0.113471
O4	O	1.467234	0.364973	-0.113482
O5	O	1.483974	0.001820	0.113511
O6	O	1.294021	0.191774	0.113503
O7	O	1.657173	0.175019	0.113508
Zn8	Zn	1.475595	0.183396	0.149544
Zn9	Zn	1.475613	0.183397	-0.149515
O10	O	1.467220	0.364973	0.113500
C11	C	1.247528	0.190555	0.000011
C12	C	1.108974	0.186908	0.000009
C13	C	1.047194	0.185281	0.117592
C14	C	0.903991	0.181512	0.117592
C15	C	1.482762	-0.044679	0.000019
C16	C	1.479115	-0.183233	0.000014
C17	C	1.477496	-0.244999	-0.117571
C18	C	1.473727	-0.388202	-0.117578
C19	C	1.703680	0.176239	0.000015
C20	C	1.842234	0.179886	0.000008
C21	C	1.468446	0.411473	0.000007
C22	C	1.472093	0.550027	0.000003
N23	N	1.475591	0.183395	0.353644
N24	N	1.475627	0.183388	-0.353615
C25	C	1.555347	0.103288	0.421424
C26	C	1.555367	0.103283	0.578587
H27	H	1.100321	0.186673	0.218258
H28	H	1.477702	-0.236370	0.100678
C29	C	1.383373	0.276048	0.567652
N30	N	1.313886	0.345838	0.508339
C31	C	1.647556	0.010614	0.342639
N32	N	1.717003	-0.059196	0.283300
H33	H	0.850862	0.180120	0.218259
H34	H	0.895354	0.181292	-0.100664
C35	C	1.037209	0.185017	-0.135992
N36	N	0.983158	0.183595	-0.238432
H37	H	1.478896	-0.191861	-0.218235
C38	C	1.471846	-0.459957	-0.253584
N39	N	1.470427	-0.514005	-0.356027
C40	C	1.647617	0.010626	0.657329
N41	N	1.717100	-0.059167	0.716642
C42	C	1.473971	-0.378226	0.136013
N43	N	1.475382	-0.324177	0.238456
H44	H	1.407319	0.251971	0.411965
