data_functionalizedCrystal
_audit_creation_method	'MofGen! by Chris Wilmer'
_symmetry_space_group_name_H-M	'P1'
_symmetry_Int_Tables_number	1
_symmetry_cell_setting	triclinic
loop_
_symmetry_equiv_pos_as_xyz
  x,y,z
_cell_length_a	16.625547
_cell_length_b	21.295417
_cell_length_c	16.625539
_cell_angle_alpha	89.967674
_cell_angle_beta	89.975178
_cell_angle_gamma	90.029639
loop_
_atom_site_label
_atom_site_type_symbol
_atom_site_fract_x
_atom_site_fract_y
_atom_site_fract_z
Zn1	Zn	1.232640	-0.250609	-0.455978
Zn2	Zn	1.482640	-0.000609	-0.205978
Zn3	Zn	1.732640	0.249391	0.044022
Zn4	Zn	1.982640	0.499391	0.294022
Zn5	Zn	1.232526	-0.355882	-0.321136
Zn6	Zn	1.482526	-0.105882	-0.071136
Zn7	Zn	1.732526	0.144118	0.178864
Zn8	Zn	1.982526	0.394118	0.428864
Zn9	Zn	1.097802	-0.250631	-0.321149
Zn10	Zn	1.347802	-0.000631	-0.071149
Zn11	Zn	1.597802	0.249369	0.178851
Zn12	Zn	1.847802	0.499369	0.428851
Zn13	Zn	1.097755	-0.355844	-0.455916
Zn14	Zn	1.347755	-0.105844	-0.205916
Zn15	Zn	1.597755	0.144156	0.044084
Zn16	Zn	1.847755	0.394156	0.294084
O17	O	1.165181	-0.303242	-0.388545
O18	O	1.415181	-0.053242	-0.138545
O19	O	1.665181	0.196758	0.111455
O20	O	1.915181	0.446758	0.361455
O21	O	1.345457	-0.264581	-0.438112
O22	O	1.595457	-0.014581	-0.188112
O23	O	1.845457	0.235419	0.061888
O24	O	2.095457	0.485419	0.311888
O25	O	1.214627	-0.341946	-0.208305
O26	O	1.464627	-0.091946	0.041695
O27	O	1.714627	0.158054	0.291695
O28	O	1.964627	0.408054	0.541695
O29	O	1.115755	-0.162539	-0.339066
O30	O	1.365755	0.087461	-0.089066
O31	O	1.615755	0.337461	0.160934
O32	O	1.865755	0.587461	0.410934
O33	O	1.345374	-0.341925	-0.339044
O34	O	1.595374	-0.091925	-0.089044
O35	O	1.845374	0.158075	0.160956
O36	O	2.095374	0.408075	0.410956
O37	O	1.214821	-0.162523	-0.438124
O38	O	1.464821	0.087477	-0.188124
O39	O	1.714821	0.337477	0.061876
O40	O	1.964821	0.587477	0.311876
O41	O	1.115645	-0.264618	-0.208315
O42	O	1.365645	-0.014618	0.041685
O43	O	1.615645	0.235382	0.291685
O44	O	1.865645	0.485382	0.541685
O45	O	0.984963	-0.264581	-0.339005
O46	O	1.234963	-0.014581	-0.089005
O47	O	1.484963	0.235419	0.160995
O48	O	1.734963	0.485419	0.410995
O49	O	1.115676	-0.341859	-0.568757
O50	O	1.365676	-0.091859	-0.318757
O51	O	1.615676	0.158141	-0.068757
O52	O	1.865676	0.408141	0.181243
O53	O	0.984929	-0.341881	-0.438018
O54	O	1.234929	-0.091881	-0.188018
O55	O	1.484929	0.158119	0.061982
O56	O	1.734929	0.408119	0.311982
O57	O	1.214775	-0.264544	-0.568802
O58	O	1.464775	-0.014544	-0.318802
O59	O	1.714775	0.235456	-0.068802
O60	O	1.964775	0.485456	0.181198
O61	O	1.214581	-0.443967	-0.338983
O62	O	1.464581	-0.193967	-0.088983
O63	O	1.714581	0.056033	0.161017
O64	O	1.964581	0.306033	0.411017
O65	O	1.115566	-0.443939	-0.438006
O66	O	1.365566	-0.193939	-0.188006
O67	O	1.615566	0.056061	0.061994
O68	O	1.865566	0.306061	0.311994
C69	C	0.955690	-0.303229	-0.388507
C70	C	1.205690	-0.053229	-0.138507
C71	C	1.455690	0.196771	0.111493
C72	C	1.705690	0.446771	0.361493
C73	C	0.866069	-0.303239	-0.388510
C74	C	1.116069	-0.053239	-0.138510
C75	C	1.366069	0.196761	0.111490
C76	C	1.616069	0.446761	0.361490
C77	C	0.793286	-0.303241	-0.388519
C78	C	1.043286	-0.053241	-0.138519
C79	C	1.293286	0.196759	0.111481
C80	C	1.543286	0.446759	0.361481
C81	C	0.701978	-0.303244	-0.388540
C82	C	0.951978	-0.053244	-0.138540
C83	C	1.201978	0.196756	0.111460
C84	C	1.451978	0.446756	0.361460
C85	C	0.629201	-0.303250	-0.388560
C86	C	0.879201	-0.053250	-0.138560
C87	C	1.129201	0.196750	0.111440
C88	C	1.379201	0.446750	0.361440
C89	C	0.537887	-0.303254	-0.388579
C90	C	0.787887	-0.053254	-0.138579
C91	C	1.037887	0.196746	0.111421
C92	C	1.287887	0.446746	0.361421
C93	C	1.165078	-0.466793	-0.388504
C94	C	1.415078	-0.216793	-0.138504
C95	C	1.665078	0.033207	0.111496
C96	C	1.915078	0.283207	0.361496
C97	C	1.165108	-0.536761	-0.388513
C98	C	1.415108	-0.286761	-0.138513
C99	C	1.665108	-0.036761	0.111487
C100	C	1.915108	0.213239	0.361487
C101	C	1.216661	-0.569563	-0.440130
C102	C	1.466661	-0.319563	-0.190130
C103	C	1.716661	-0.069563	0.059870
C104	C	1.966661	0.180437	0.309870
C105	C	1.216690	-0.635305	-0.440150
C106	C	1.466690	-0.385305	-0.190150
C107	C	1.716690	-0.135305	0.059850
C108	C	1.966690	0.114695	0.309850
C109	C	1.165173	-0.668244	-0.388539
C110	C	1.415173	-0.418244	-0.138539
C111	C	1.665173	-0.168244	0.111461
C112	C	1.915173	0.081756	0.361461
C113	C	1.113610	-0.635435	-0.336919
C114	C	1.363610	-0.385435	-0.086919
C115	C	1.613610	-0.135435	0.163081
C116	C	1.863610	0.114565	0.413081
C117	C	1.113577	-0.569694	-0.336906
C118	C	1.363577	-0.319694	-0.086906
C119	C	1.613577	-0.069694	0.163094
C120	C	1.863577	0.180306	0.413094
N121	N	1.159082	-0.771508	-0.317973
N122	N	1.409082	-0.521508	-0.067973
N123	N	1.659082	-0.271508	0.182027
N124	N	1.909082	-0.021508	0.432027
N125	N	1.159117	-0.833959	-0.317987
N126	N	1.409117	-0.583959	-0.067987
N127	N	1.659117	-0.333959	0.182013
N128	N	1.909117	-0.083959	0.432013
C129	C	1.165267	-0.866319	-0.388575
C130	C	1.415267	-0.616319	-0.138575
C131	C	1.665267	-0.366319	0.111425
C132	C	1.915267	-0.116319	0.361425
N133	N	1.171396	-0.833868	-0.459150
N134	N	1.421396	-0.583868	-0.209150
N135	N	1.671396	-0.333868	0.040850
N136	N	1.921396	-0.083868	0.290850
N137	N	1.171364	-0.771410	-0.459134
N138	N	1.421364	-0.521410	-0.209134
N139	N	1.671364	-0.271410	0.040866
N140	N	1.921364	-0.021410	0.290866
C141	C	1.165203	-0.739529	-0.388547
C142	C	1.415203	-0.489529	-0.138547
C143	C	1.665203	-0.239529	0.111453
C144	C	1.915203	0.010471	0.361453
C145	C	1.216855	-0.970405	-0.440218
C146	C	1.466855	-0.720405	-0.190218
C147	C	1.716855	-0.470405	0.059782
C148	C	1.966855	-0.220405	0.309782
C149	C	1.216877	-1.036149	-0.440239
C150	C	1.466877	-0.786149	-0.190239
C151	C	1.716877	-0.536149	0.059761
C152	C	1.966877	-0.286149	0.309761
C153	C	1.113801	-1.036278	-0.337000
C154	C	1.363801	-0.786278	-0.087000
C155	C	1.613801	-0.536278	0.163000
C156	C	1.863801	-0.286278	0.413000
C157	C	1.113774	-0.970535	-0.336986
C158	C	1.363774	-0.720535	-0.086986
C159	C	1.613774	-0.470535	0.163014
C160	C	1.863774	-0.220535	0.413014
C161	C	1.165305	-0.937603	-0.388594
C162	C	1.415305	-0.687603	-0.138594
C163	C	1.665305	-0.437603	0.111406
C164	C	1.915305	-0.187603	0.361406
C165	C	1.375490	-0.303254	-0.388583
C166	C	1.625490	-0.053254	-0.138583
C167	C	1.875490	0.196746	0.111417
C168	C	2.125490	0.446746	0.361417
C169	C	1.465111	-0.303260	-0.388600
C170	C	1.715111	-0.053260	-0.138600
C171	C	1.965111	0.196740	0.111400
C172	C	2.215111	0.446740	0.361400
C173	C	1.165233	-0.303195	-0.598854
C174	C	1.415233	-0.053195	-0.348854
C175	C	1.665233	0.196805	-0.098854
C176	C	1.915233	0.446805	0.151146
C177	C	1.165256	-0.303175	-0.688475
C178	C	1.415256	-0.053175	-0.438475
C179	C	1.665256	0.196825	-0.188475
C180	C	1.915256	0.446825	0.061525
C181	C	1.165306	-0.139051	-0.388603
C182	C	1.415306	0.110949	-0.138603
C183	C	1.665306	0.360949	0.111397
C184	C	1.915306	0.610949	0.361397
C185	C	1.165359	-0.069083	-0.388628
C186	C	1.415359	0.180917	-0.138628
C187	C	1.665359	0.430917	0.111372
C188	C	1.915359	0.680917	0.361372
C189	C	1.165293	-0.303104	-1.016651
C190	C	1.415293	-0.053104	-0.766651
C191	C	1.665293	0.196896	-0.516651
C192	C	1.915293	0.446896	-0.266651
C193	C	1.165280	-0.303126	-0.925342
C194	C	1.415280	-0.053126	-0.675342
C195	C	1.665280	0.196874	-0.425342
C196	C	1.915280	0.446874	-0.175342
C197	C	1.165275	-0.303140	-0.852566
C198	C	1.415275	-0.053140	-0.602566
C199	C	1.665275	0.196860	-0.352566
C200	C	1.915275	0.446860	-0.102566
C201	C	1.165261	-0.303161	-0.761251
C202	C	1.415261	-0.053161	-0.511251
C203	C	1.665261	0.196839	-0.261251
C204	C	1.915261	0.446839	-0.011251
C205	C	1.165175	-0.303243	-0.179054
C206	C	1.415175	-0.053243	0.070946
C207	C	1.665175	0.196757	0.320946
C208	C	1.915175	0.446757	0.570946
C209	C	1.165309	-0.303086	-0.089433
C210	C	1.415309	-0.053086	0.160567
C211	C	1.665309	0.196914	0.410567
C212	C	1.915309	0.446914	0.660567
H213	H	1.258664	-0.662017	-0.482192
H214	H	1.508664	-0.412017	-0.232192
H215	H	1.758664	-0.162017	0.017808
H216	H	2.008664	0.087983	0.267808
H217	H	1.071662	-0.662258	-0.294898
H218	H	1.321662	-0.412258	-0.044898
H219	H	1.571662	-0.162258	0.205102
H220	H	1.821662	0.087742	0.455102
O221	O	1.272483	-1.071533	-0.495915
O222	O	1.522483	-0.821533	-0.245915
O223	O	1.772483	-0.571533	0.004085
O224	O	2.022483	-0.321533	0.254085
H225	H	1.308312	-1.037585	-0.531791
H226	H	1.558312	-0.787585	-0.281791
H227	H	1.808312	-0.537585	-0.031791
H228	H	2.058312	-0.287585	0.218209
O229	O	1.058238	-1.071794	-0.281327
O230	O	1.308238	-0.821794	-0.031327
O231	O	1.558238	-0.571794	0.218673
O232	O	1.808238	-0.321794	0.468673
H233	H	1.066925	-1.123019	-0.290002
H234	H	1.316925	-0.873019	-0.040002
H235	H	1.566925	-0.623019	0.209998
H236	H	1.816925	-0.373019	0.459998
O237	O	1.058176	-0.935158	-0.281299
O238	O	1.308176	-0.685158	-0.031299
O239	O	1.558176	-0.435158	0.218701
O240	O	1.808176	-0.185158	0.468701
H241	H	1.017111	-0.905218	-0.317336
H242	H	1.267111	-0.655218	-0.067336
H243	H	1.517111	-0.405218	0.182664
H244	H	1.767111	-0.155218	0.432664
H245	H	1.258619	-0.542751	-0.482154
H246	H	1.508619	-0.292751	-0.232154
H247	H	1.758619	-0.042751	0.017846
H248	H	2.008619	0.207249	0.267846
O249	O	1.057981	-0.534309	-0.281221
O250	O	1.307981	-0.284309	-0.031221
O251	O	1.557981	-0.034309	0.218779
O252	O	1.807981	0.215691	0.468779
H253	H	1.022166	-0.568255	-0.245330
H254	H	1.272166	-0.318255	0.004670
H255	H	1.522166	-0.068255	0.254670
H256	H	1.772166	0.181745	0.504670
H257	H	1.258812	-0.943591	-0.482243
H258	H	1.508812	-0.693591	-0.232243
H259	H	1.758812	-0.443591	0.017757
H260	H	2.008812	-0.193591	0.267757
