data_functionalizedCrystal
_audit_creation_method	'MofGen! by Chris Wilmer'
_symmetry_space_group_name_H-M	'P1'
_symmetry_Int_Tables_number	1
_symmetry_cell_setting	triclinic
loop_
_symmetry_equiv_pos_as_xyz
  x,y,z
_cell_length_a	13.897448
_cell_length_b	16.959455
_cell_length_c	16.959447
_cell_angle_alpha	90.027292
_cell_angle_beta	89.971905
_cell_angle_gamma	89.987315
loop_
_atom_site_label
_atom_site_type_symbol
_atom_site_fract_x
_atom_site_fract_y
_atom_site_fract_z
Zn1	Zn	-0.384137	-1.208425	-0.447111
Zn2	Zn	-0.545451	-1.208345	-0.314934
Zn3	Zn	-0.384158	-1.076245	-0.314927
Zn4	Zn	-0.545377	-1.076224	-0.447051
O5	O	-0.464781	-1.142310	-0.381006
O6	O	-0.405558	-1.319026	-0.429605
O7	O	-0.524095	-1.190797	-0.204322
O8	O	-0.249173	-1.093822	-0.332483
O9	O	-0.524075	-1.318967	-0.332496
O10	O	-0.249158	-1.190934	-0.429598
O11	O	-0.405594	-1.093744	-0.204317
O12	O	-0.405522	-0.965632	-0.332425
O13	O	-0.523949	-1.093785	-0.557670
O14	O	-0.523969	-0.965616	-0.429497
O15	O	-0.405486	-1.190913	-0.557714
O16	O	-0.680423	-1.190776	-0.332438
O17	O	-0.680369	-1.093707	-0.429504
C18	C	-0.464741	-0.936944	-0.380954
C19	C	-0.464746	-0.849087	-0.380951
C20	C	-0.526403	-0.477570	-0.330377
C21	C	-0.403182	-0.477653	-0.431655
C22	C	-0.403169	-0.560199	-0.431640
C23	C	-0.464776	-0.601434	-0.380994
C24	C	-0.526395	-0.560124	-0.330363
C25	C	-0.341558	-0.601516	-0.482276
C26	C	-0.341544	-0.684066	-0.482264
C27	C	-0.403147	-0.725303	-0.431614
C28	C	-0.464767	-0.683988	-0.380980
C29	C	-0.526374	-0.725223	-0.330334
C30	C	-0.587990	-0.683909	-0.279695
C31	C	-0.587997	-0.601360	-0.279712
C32	C	-0.403140	-0.807852	-0.431597
C33	C	-0.526365	-0.807777	-0.330319
C34	C	-0.715395	-1.142252	-0.380983
C35	C	-0.822609	-1.142300	-0.380999
C36	C	-1.018904	-1.142383	-0.381049
C37	C	-0.909672	-1.142335	-0.381024
C38	C	-0.213188	-1.142389	-0.381046
C39	C	-0.105974	-1.142423	-0.381063
C40	C	-0.464707	-1.142356	-0.587174
C41	C	-0.464675	-1.142376	-0.675031
C42	C	-0.464811	-0.348478	-0.381043
C43	C	-0.464796	-0.436335	-0.381023
C44	C	-0.526357	-1.192917	-0.716309
C45	C	-0.402968	-1.091848	-0.716306
C46	C	-0.402940	-1.091862	-0.798852
C47	C	-0.464622	-1.142403	-0.840130
C48	C	-0.526333	-1.192930	-0.798863
C49	C	-0.341238	-1.041329	-0.840125
C50	C	-0.341208	-1.041340	-0.922676
C51	C	-0.402886	-1.091886	-0.963956
C52	C	-0.464598	-1.142416	-0.922684
C53	C	-0.526280	-1.192957	-0.963962
C54	C	-0.587988	-1.243492	-0.922691
C55	C	-0.588011	-1.243476	-0.840143
C56	C	-0.402863	-1.091902	-1.046505
C57	C	-0.526256	-1.192971	-1.046516
C58	C	-0.464785	-1.142310	-0.175639
C59	C	-0.464545	-1.142443	-0.087783
H60	H	-0.638155	-0.717493	-0.238463
Cl61	Cl	-0.264129	-0.549674	-0.545951
Cl62	Cl	-0.325691	-0.859786	-0.495255
Cl63	Cl	-0.665453	-0.549418	-0.216061
H64	H	-0.291372	-0.717697	-0.523497
H65	H	-0.576567	-0.443928	-0.289146
H66	H	-0.353030	-0.444074	-0.472893
H67	H	-0.576596	-1.234063	-0.682703
Cl68	Cl	-0.665535	-1.307021	-0.974594
Cl69	Cl	-0.603799	-1.256516	-1.098402
H70	H	-0.352623	-1.050756	-1.080104
H71	H	-0.576530	-0.841345	-0.289074
H72	H	-0.352755	-1.050695	-0.682692
Cl73	Cl	-0.263649	-0.977799	-0.974552
H74	H	-0.638251	-1.284618	-0.806533
H75	H	-0.291026	-1.000176	-0.806510
