data_functionalizedCrystal
_audit_creation_method	'MofGen! by Chris Wilmer'
_symmetry_space_group_name_H-M	'P1'
_symmetry_Int_Tables_number	1
_symmetry_cell_setting	triclinic
loop_
_symmetry_equiv_pos_as_xyz
  x,y,z
_cell_length_a	25.639242
_cell_length_b	12.759399
_cell_length_c	12.759393
_cell_angle_alpha	90.027929
_cell_angle_beta	89.970171
_cell_angle_gamma	89.990848
loop_
_atom_site_label
_atom_site_type_symbol
_atom_site_fract_x
_atom_site_fract_y
_atom_site_fract_z
Zn1	Zn	0.799356	0.418347	-0.594327
Zn2	Zn	0.799305	0.594066	-0.418659
Zn3	Zn	0.711920	0.418386	-0.418632
Zn4	Zn	0.711915	0.593968	-0.594265
O5	O	0.755624	0.506192	-0.506471
O6	O	0.872515	0.441680	-0.571061
O7	O	0.787693	0.570818	-0.271634
O8	O	0.723543	0.271359	-0.441953
O9	O	0.872477	0.570780	-0.441999
O10	O	0.787782	0.271331	-0.571035
O11	O	0.723492	0.441747	-0.271614
O12	O	0.638754	0.441653	-0.441893
O13	O	0.723534	0.570615	-0.741294
O14	O	0.638751	0.570653	-0.570930
O15	O	0.787777	0.441586	-0.741340
O16	O	0.787688	0.741074	-0.441938
O17	O	0.723484	0.741002	-0.570956
C18	C	0.619782	0.506147	-0.506402
C19	C	0.561668	0.506153	-0.506398
C20	C	0.310467	0.438909	-0.439397
C21	C	0.365072	0.438899	-0.439384
O22	O	0.393302	0.381664	-0.382358
N23	N	0.392394	0.506167	-0.506451
C24	C	0.365109	0.573440	-0.573543
O25	O	0.393362	0.630655	-0.630588
C26	C	0.310505	0.573444	-0.573561
C27	C	0.283186	0.506180	-0.506482
C28	C	0.283148	0.371650	-0.372325
C29	C	0.228547	0.371661	-0.372337
C30	C	0.201266	0.438932	-0.439422
C31	C	0.228585	0.506191	-0.506494
C32	C	0.283221	0.640711	-0.640658
C33	C	0.228614	0.640709	-0.640670
C34	C	0.201295	0.573445	-0.573591
C35	C	0.146704	0.573473	-0.573591
N36	N	0.119382	0.506206	-0.506524
C37	C	0.146663	0.438935	-0.439439
C38	C	0.479779	0.573426	-0.573502
C39	C	0.534382	0.573429	-0.573479
C40	C	0.534341	0.438886	-0.439321
C41	C	0.479737	0.438890	-0.439339
C42	C	0.452457	0.506159	-0.506435
C43	C	0.031998	0.438965	-0.439470
C44	C	-0.022608	0.438985	-0.439485
C45	C	-0.022562	0.573524	-0.573646
C46	C	0.032039	0.573507	-0.573628
C47	C	0.059317	0.506220	-0.506536
O48	O	0.118438	0.630677	-0.630591
O49	O	0.118403	0.381721	-0.382414
C50	C	0.755594	0.779159	-0.506466
C51	C	0.755629	0.895936	-0.506499
C52	C	0.789099	0.950800	-0.439400
C53	C	0.789133	1.060524	-0.439444
C54	C	0.722223	1.060510	-0.573688
C55	C	0.722192	0.950788	-0.573649
C56	C	0.850848	1.210414	-0.402088
C57	C	0.884313	1.265282	-0.334973
C58	C	0.892357	1.229746	-0.232463
C59	C	0.866929	1.139343	-0.197048
C60	C	0.833459	1.084480	-0.264157
C61	C	0.825425	1.120015	-0.366682
C62	C	0.660477	0.800895	-0.610993
C63	C	0.627005	0.746031	-0.678099
C64	C	0.618955	0.781566	-0.780610
C65	C	0.644375	0.871972	-0.816022
C66	C	0.677847	0.926836	-0.748917
C67	C	0.685897	0.891294	-0.646406
C68	C	0.891997	0.506237	-0.506540
C69	C	0.950111	0.506256	-0.506569
C70	C	0.755661	0.506085	-0.780504
C71	C	0.755676	0.506040	-0.897281
C72	C	0.755670	1.232158	-0.506516
C73	C	0.755695	1.115382	-0.506581
C74	C	0.722259	0.438820	-0.952132
C75	C	0.722271	0.438788	-1.061856
C76	C	0.789122	0.573198	-1.061868
C77	C	0.789107	0.573235	-0.952146
C78	C	0.660636	0.401177	-1.211782
C79	C	0.627224	0.333941	-1.266637
C80	C	0.619209	0.231435	-1.231038
C81	C	0.644615	0.196145	-1.140586
C82	C	0.678031	0.263376	-1.085736
C83	C	0.686036	0.365896	-1.121334
C84	C	0.850742	0.610835	-0.802218
C85	C	0.884162	0.678061	-0.747367
C86	C	0.892182	0.780568	-0.782964
C87	C	0.866786	0.815855	-0.873420
C88	C	0.833366	0.748629	-0.928271
C89	C	0.825345	0.646123	-0.892666
C90	C	0.755618	0.506222	-0.233503
C91	C	0.755704	0.505971	-0.116727
H92	H	0.305354	0.316864	-0.317696
O93	O	0.924832	1.282941	-0.167116
C94	C	0.963348	1.292540	0.004847
C95	C	0.926546	1.232208	-0.069031
H96	H	0.964754	1.251535	0.084158
H97	H	0.948393	1.376011	0.015564
H98	H	1.004174	1.294703	-0.030522
H99	H	0.885710	1.229964	-0.033722
H100	H	0.941544	1.148770	-0.079745
H101	H	0.919401	0.835299	-0.738300
H102	H	0.905018	1.338888	-0.363818
H103	H	0.816341	0.627905	-1.106553
O104	O	0.058549	0.373755	-0.374241
C105	C	0.120119	0.359452	-0.232343
C106	C	0.090091	0.433410	-0.306169
H107	H	0.145620	0.407655	-0.177274
H108	H	0.145737	0.304576	-0.280593
H109	H	0.091198	0.311365	-0.184458
H110	H	0.118975	0.481565	-0.354070
H111	H	0.064466	0.488217	-0.257859
H112	H	0.556620	0.628213	-0.628090
O113	O	0.202000	0.306481	-0.307036
C114	C	0.140321	0.292220	-0.165200
C115	C	0.170351	0.366151	-0.239094
H116	H	0.114718	0.340431	-0.110265
H117	H	0.169195	0.244186	-0.117185
H118	H	0.114791	0.237293	-0.213505
H119	H	0.195881	0.421141	-0.190869
H120	H	0.141449	0.414110	-0.287113
H121	H	0.904847	0.649317	-0.673721
H122	H	0.638091	0.112670	-1.111615
O123	O	0.668209	0.766441	-0.511358
C124	C	0.629061	0.725893	-0.344506
C125	C	0.620236	0.764947	-0.457305
H126	H	0.590280	0.724651	-0.300778
H127	H	0.657325	0.780637	-0.302559
H128	H	0.646112	0.643398	-0.346700
H129	H	0.603168	0.847426	-0.455206
H130	H	0.591991	0.710131	-0.499207
O131	O	0.874668	0.915410	-0.907982
C132	C	0.936878	1.042857	-0.969561
C133	C	0.928022	0.930092	-0.930412
H134	H	0.980011	1.054757	-0.987728
H135	H	0.924203	1.100757	-0.906411
H136	H	0.912962	1.056518	-1.043604
H137	H	0.951935	0.916329	-0.856388
H138	H	0.940681	0.872251	-0.993627
O139	O	0.202034	0.705960	-0.705813
C140	C	0.117935	0.765655	-0.765257
C141	C	0.147970	0.691687	-0.691452
H142	H	0.074219	0.754157	-0.753657
H143	H	0.128661	0.747297	-0.850023
H144	H	0.128696	0.850336	-0.746678
H145	H	0.137225	0.606982	-0.709937
H146	H	0.137241	0.710136	-0.606708
O147	O	0.689706	0.373671	-0.898881
C148	C	0.600773	0.322620	-0.865325
C149	C	0.637582	0.396480	-0.925674
H150	H	0.558624	0.341019	-0.886981
H151	H	0.606457	0.334194	-0.777468
H152	H	0.609997	0.237905	-0.886903
H153	H	0.628381	0.481222	-0.904184
H154	H	0.631892	0.384814	-1.013516
H155	H	0.844307	1.239350	-0.485564
H156	H	0.698719	0.234641	-1.012095
O157	O	0.453282	0.373446	-0.374151
C158	C	0.459020	0.240047	-0.241037
C159	C	0.489041	0.314096	-0.314826
H160	H	0.487918	0.192059	-0.193037
H161	H	0.433492	0.185093	-0.289318
H162	H	0.433419	0.288231	-0.186072
H163	H	0.514671	0.265996	-0.369805
H164	H	0.514536	0.369053	-0.266480
H165	H	0.873477	1.110422	-0.113569
H166	H	0.606310	0.672413	-0.649260
O167	O	0.636599	0.906666	-0.915558
C168	C	0.657386	1.037341	-1.045300
C169	C	0.666232	0.998181	-0.932544
H170	H	0.681347	1.111323	-1.059076
H171	H	0.614261	1.055541	-1.057211
H172	H	0.670027	0.974091	-1.103117
H173	H	0.653620	1.061385	-0.874656
H174	H	0.709359	0.979950	-0.920720
H175	H	0.592003	0.176691	-1.275709
H176	H	0.698547	1.000447	-0.777759
H177	H	0.591698	0.736886	-0.835246
O178	O	0.689758	1.113958	-0.638807
C179	C	0.660171	1.282983	-0.698401
C180	C	0.696958	1.222588	-0.624585
H181	H	0.665987	1.370822	-0.686944
H182	H	0.617999	1.261563	-0.679852
H183	H	0.669317	1.261265	-0.783119
H184	H	0.687859	1.244274	-0.539843
H185	H	0.739119	1.244013	-0.643225
H186	H	0.606538	0.362684	-1.340284
H187	H	-0.044849	0.384209	-0.384858
H188	H	0.667153	0.484649	-1.240768
O189	O	0.842966	0.511189	-0.767816
C190	C	0.849924	0.326921	-0.806863
C191	C	0.858741	0.439715	-0.845962
H192	H	0.862684	0.269104	-0.870016
H193	H	0.806788	0.314868	-0.788811
H194	H	0.873806	0.313291	-0.732771
H195	H	0.834890	0.453423	-0.920077
H196	H	0.901888	0.451714	-0.863942
O197	O	0.808717	0.783085	-1.016096
C198	C	0.795033	0.926828	-1.135382
C199	C	0.822969	0.887952	-1.035893
H200	H	0.806553	1.011609	-1.151432
H201	H	0.751023	0.921817	-1.123615
H202	H	0.806868	0.875800	-1.204802
H203	H	0.811176	0.938948	-0.966427
H204	H	0.866972	0.892939	-1.047750
H205	H	0.556563	0.384108	-0.384699
H206	H	0.305455	0.695486	-0.695280
O207	O	0.453338	0.638735	-0.638819
C208	C	0.436675	0.689915	-0.817455
C209	C	0.466657	0.615908	-0.743602
H210	H	0.447424	0.671471	-0.902189
H211	H	0.447414	0.774622	-0.798942
H212	H	0.392957	0.678391	-0.805903
H213	H	0.510382	0.627338	-0.755114
H214	H	0.455875	0.531227	-0.762133
O215	O	0.821507	0.897468	-0.374069
C216	C	0.828546	0.773651	-0.232235
C217	C	0.791783	0.833998	-0.306139
H218	H	0.804529	0.722305	-0.177310
H219	H	0.852465	0.831668	-0.184209
H220	H	0.855867	0.722247	-0.280533
H221	H	0.764430	0.885404	-0.257922
H222	H	0.767900	0.775925	-0.354168
H223	H	0.054283	0.628287	-0.628241
H224	H	-0.044784	0.628297	-0.628261
H225	H	0.812757	1.010875	-0.235324
