data_functionalizedCrystal
_audit_creation_method	'MofGen! by Chris Wilmer'
_symmetry_space_group_name_H-M	'P1'
_symmetry_Int_Tables_number	1
_symmetry_cell_setting	triclinic
loop_
_symmetry_equiv_pos_as_xyz
  x,y,z
_cell_length_a	15.297475
_cell_length_b	18.215404
_cell_length_c	18.215399
_cell_angle_alpha	89.972485
_cell_angle_beta	99.684492
_cell_angle_gamma	99.673678
loop_
_atom_site_label
_atom_site_type_symbol
_atom_site_fract_x
_atom_site_fract_y
_atom_site_fract_z
Zn1	Zn	1.379216	0.488000	0.610484
Zn2	Zn	1.879216	0.988000	1.110484
Zn3	Zn	1.379107	0.611055	0.487403
Zn4	Zn	1.879107	1.111055	0.987403
Zn5	Zn	1.228350	0.466692	0.466170
Zn6	Zn	1.728350	0.966692	0.966170
Zn7	Zn	1.228311	0.589692	0.589177
Zn8	Zn	1.728311	1.089692	1.089177
O9	O	1.303746	0.538860	0.538309
O10	O	1.803746	1.038860	1.038309
O11	O	1.505449	0.522181	0.611960
O12	O	2.005449	1.022181	1.111960
O13	O	1.359079	0.591928	0.381598
O14	O	1.859079	1.091928	0.881598
O15	O	1.248425	0.366543	0.485345
O16	O	1.748425	0.866543	0.985345
O17	O	1.505368	0.612590	0.521533
O18	O	2.005368	1.112590	1.021533
O19	O	1.359266	0.382197	0.591371
O20	O	1.859266	0.882197	1.091371
O21	O	1.248318	0.485865	0.365998
O22	O	1.748318	0.985865	0.865998
O23	O	1.102097	0.465150	0.464684
O24	O	1.602097	0.965150	0.964684
O25	O	1.248358	0.576179	0.694992
O26	O	1.748358	1.076179	1.194992
O27	O	1.102069	0.555518	0.555057
O28	O	1.602069	1.055518	1.055057
O29	O	1.359228	0.501466	0.710646
O30	O	1.859228	1.001466	1.210646
O31	O	1.359041	0.711197	0.500873
O32	O	1.859041	1.211197	1.000873
O33	O	1.248252	0.695502	0.575645
O34	O	1.748252	1.195502	1.075645
C35	C	1.303655	0.730053	0.538270
C36	C	1.803655	1.230053	1.038270
C37	C	1.303698	0.811858	0.538290
C38	C	1.803698	1.311858	1.038290
C39	C	1.069349	0.505704	0.505255
C40	C	1.569349	1.005704	1.005255
C41	C	0.969073	0.491538	0.491132
C42	C	1.469073	0.991538	0.991132
C43	C	1.361526	1.008220	0.499472
C44	C	1.861526	1.508220	0.999472
C45	C	1.361568	1.085085	0.499500
C46	C	1.861568	1.585085	0.999500
C47	C	1.246103	1.068767	0.577270
C48	C	1.746103	1.568767	1.077270
C49	C	1.246067	0.991904	0.577246
C50	C	1.746067	1.491904	1.077246
C51	C	1.303777	0.961633	0.538343
C52	C	1.803777	1.461633	1.038343
C53	C	1.303856	1.115360	0.538395
C54	C	1.803856	1.615360	1.038395
C55	C	1.303901	1.198700	0.538425
C56	C	1.803901	1.698700	1.038425
C57	C	1.303733	0.878288	0.538313
C58	C	1.803733	1.378288	1.038313
C59	C	0.686451	0.640114	0.639249
C60	C	1.186451	1.140114	1.139249
C61	C	0.780666	0.653430	0.652516
C62	C	1.280666	1.153430	1.152516
C63	C	0.827772	0.612958	0.612172
C64	C	1.327772	1.112958	1.112172
C65	C	0.780655	0.559168	0.558557
C66	C	1.280655	1.059168	1.058557
C67	C	0.686431	0.545856	0.545285
C68	C	1.186431	1.045856	1.045285
C69	C	0.827752	0.518699	0.518207
C70	C	1.327752	1.018699	1.018207
C71	C	0.780635	0.464910	0.464592
C72	C	1.280635	0.964910	0.964592
C73	C	0.686420	0.451599	0.451323
C74	C	1.186420	0.951599	0.951323
C75	C	0.639314	0.492071	0.491667
C76	C	1.139314	0.992071	0.991667
C77	C	0.921976	0.532012	0.531480
C78	C	1.421976	1.032012	1.031480
C79	C	0.921955	0.437753	0.437515
C80	C	1.421955	0.937753	0.937515
C81	C	0.827741	0.424438	0.424248
C82	C	1.327741	0.924438	0.924248
C83	C	1.539058	0.572145	0.571491
C84	C	2.039058	1.072145	1.071491
C85	C	1.639334	0.586330	0.585632
C86	C	2.139334	1.086330	1.085632
C87	C	1.303801	0.538817	0.730269
C88	C	1.803801	1.038817	1.230269
C89	C	1.303824	0.538798	0.812071
C90	C	1.803824	1.038798	1.312071
C91	C	1.303867	1.346924	0.538380
C92	C	1.803867	1.846924	1.038380
C93	C	1.303934	1.265134	0.538447
C94	C	1.803934	1.765134	1.038447
C95	C	1.303743	0.538857	0.347102
C96	C	1.803743	1.038857	0.847102
C97	C	1.303894	0.538692	0.265325
C98	C	1.803894	1.038692	0.765325
C99	C	1.361575	0.499854	1.008421
C100	C	1.861575	0.999854	1.508421
C101	C	1.361586	0.499834	1.085281
C102	C	1.861586	0.999834	1.585281
C103	C	1.246137	0.577638	1.068969
C104	C	1.746137	1.077638	1.568969
C105	C	1.246123	0.577653	0.992110
C106	C	1.746123	1.077653	1.492110
C107	C	1.303847	0.538763	0.961838
C108	C	1.803847	1.038763	1.461838
C109	C	1.303872	0.538728	1.115558
C110	C	1.803872	1.038728	1.615558
C111	C	1.303883	0.538707	1.198893
C112	C	1.803883	1.038707	1.698893
C113	C	1.303834	0.538783	0.878497
C114	C	1.803834	1.038783	1.378497
H115	H	1.408518	0.983575	0.467796
H116	H	1.908518	1.483575	0.967796
N117	N	0.776914	0.366438	0.366409
N118	N	1.276914	0.866438	0.866409
H119	H	0.737843	0.326854	0.390869
H120	H	1.237843	0.826854	0.890869
H121	H	0.737853	0.390849	0.326767
H122	H	1.237853	0.890849	0.826767
N123	N	0.972782	0.590022	0.589307
N124	N	1.472782	1.090022	1.089307
H125	H	1.011903	0.565689	0.628977
H126	H	1.511903	1.065689	1.128977
H127	H	1.011792	0.629590	0.564781
H128	H	1.511792	1.129590	1.064781
N129	N	1.183853	1.101413	0.619222
N130	N	1.683853	1.601413	1.119222
H131	H	1.220502	1.138437	0.658528
H132	H	1.720502	1.638437	1.158528
H133	H	1.142094	1.127401	0.583350
H134	H	1.642094	1.627401	1.083350
N135	N	1.183879	0.619570	1.101632
N136	N	1.683879	1.119570	1.601632
H137	H	1.220523	0.658850	1.138685
H138	H	1.720523	1.158850	1.638685
H139	H	1.147307	0.644172	1.060418
H140	H	1.647307	1.144172	1.560418
H141	H	0.648089	0.673065	0.672088
H142	H	1.148089	1.173065	1.172088
H143	H	1.408595	1.123014	0.467849
H144	H	1.908595	1.623014	0.967849
N145	N	0.972750	0.394100	0.393992
N146	N	1.472750	0.894100	0.893992
H147	H	1.039586	0.410693	0.410537
H148	H	1.539586	0.910693	0.910537
H149	H	0.956307	0.339231	0.403222
H150	H	1.456307	0.839231	0.903222
H151	H	1.408575	0.468185	0.983776
H152	H	1.908575	0.968185	1.483776
N153	N	1.183838	0.619603	0.941858
N154	N	1.683838	1.119603	1.441858
H155	H	1.147272	0.644237	0.972696
H156	H	1.647272	1.144237	1.472696
H157	H	1.220521	0.658859	0.915127
H158	H	1.720521	1.158859	1.415127
H159	H	1.199040	0.953970	0.608903
H160	H	1.699040	1.453970	1.108903
N161	N	1.423857	0.457867	1.135515
N162	N	1.923857	0.957867	1.635515
H163	H	1.465654	0.493676	1.173295
H164	H	1.965654	0.993676	1.673295
H165	H	1.387158	0.418570	1.162189
H166	H	1.887158	0.918570	1.662189
H167	H	0.904486	0.623802	0.622977
H168	H	1.404486	1.123802	1.122977
H169	H	0.819022	0.697227	0.696168
H170	H	1.319022	1.197227	1.196168
N171	N	0.537694	0.477718	0.477346
N172	N	1.037694	0.977718	0.977346
H173	H	0.515007	0.511521	0.511039
H174	H	1.015007	1.011521	1.011039
H175	H	0.515053	0.487963	0.423620
H176	H	1.015053	0.987963	0.923620
N177	N	0.635598	0.393594	0.393488
N178	N	1.135598	0.893594	0.893488
H179	H	0.679733	0.369975	0.369943
H180	H	1.179733	0.869975	0.869943
H181	H	0.596532	0.354057	0.418002
H182	H	1.096532	0.854057	0.918002
