data_functionalizedCrystal
_audit_creation_method	'MofGen! by Chris Wilmer'
_symmetry_space_group_name_H-M	'P1'
_symmetry_Int_Tables_number	1
_symmetry_cell_setting	triclinic
loop_
_symmetry_equiv_pos_as_xyz
  x,y,z
_cell_length_a	12.759401
_cell_length_b	18.215405
_cell_length_c	18.215399
_cell_angle_alpha	89.969449
_cell_angle_beta	90.016498
_cell_angle_gamma	89.974954
loop_
_atom_site_label
_atom_site_type_symbol
_atom_site_fract_x
_atom_site_fract_y
_atom_site_fract_z
Zn1	Zn	1.606160	0.292989	0.416037
Zn2	Zn	1.606030	0.416060	0.292965
Zn3	Zn	1.430468	0.293012	0.292992
Zn4	Zn	1.430420	0.416018	0.415997
O5	O	1.518269	0.354520	0.354498
O6	O	1.753164	0.309322	0.399717
O7	O	1.582707	0.399765	0.189984
O8	O	1.453849	0.190025	0.309342
O9	O	1.753068	0.399742	0.309297
O10	O	1.582929	0.190008	0.399743
O11	O	1.453723	0.309362	0.190004
O12	O	1.283441	0.309322	0.309303
O13	O	1.453766	0.399671	0.518987
O14	O	1.283405	0.399694	0.399675
O15	O	1.582882	0.309282	0.519016
O16	O	1.582659	0.519039	0.309258
O17	O	1.453640	0.519008	0.399649
C18	C	1.245302	0.354506	0.354488
C19	C	1.128525	0.354518	0.354501
C20	C	1.518159	0.545726	0.354462
C21	C	1.518207	0.627525	0.354472
C22	C	1.518333	0.354469	0.546451
C23	C	1.518361	0.354447	0.628250
C24	C	1.073672	0.401650	0.401480
C25	C	0.963948	0.401660	0.401488
C26	C	0.963940	0.307403	0.307532
C27	C	1.073662	0.307390	0.307528
C28	C	1.128535	0.448778	0.448452
C29	C	1.073682	0.495915	0.495434
C30	C	0.963958	0.495924	0.495442
C31	C	0.909087	0.448797	0.448468
C32	C	1.792303	0.354534	0.354508
C33	C	1.909079	0.354540	0.354513
C34	C	1.518409	0.162567	0.354549
C35	C	1.518469	0.080768	0.354571
C36	C	1.585546	0.815710	0.307492
C37	C	1.585592	0.892569	0.307510
C38	C	1.451128	0.892577	0.401557
C39	C	1.451087	0.815720	0.401542
C40	C	1.518294	0.777288	0.354505
C41	C	1.518382	0.931004	0.354538
C42	C	1.518433	1.014338	0.354558
C43	C	1.518245	0.693949	0.354487
C44	C	1.518266	0.354517	0.163292
C45	C	1.518442	0.354332	0.081493
C46	C	1.585616	0.307338	0.816460
C47	C	1.585628	0.307316	0.893319
C48	C	1.451180	0.401443	0.893277
C49	C	1.451163	0.401461	0.816420
C50	C	1.518387	0.354409	0.778013
C51	C	1.518416	0.354370	0.931729
C52	C	1.518429	0.354347	1.015063
C53	C	1.518373	0.354431	0.694674
H54	H	1.217878	0.448777	0.448450
H55	H	1.396323	0.784435	0.439830
C56	C	1.659549	0.255580	0.774212
H57	H	1.649919	0.262335	0.722931
H58	H	1.644208	0.206130	0.786822
H59	H	1.730138	0.266353	0.786812
C60	C	1.659480	0.773438	0.255761
H61	H	1.699545	0.807331	0.227770
H62	H	1.619308	0.743501	0.223662
H63	H	1.705218	0.743412	0.283943
C64	C	1.659585	0.255541	0.935607
H65	H	1.699620	0.227528	0.901724
H66	H	1.619428	0.223466	0.965595
H67	H	1.705351	0.283694	0.965585
H68	H	1.396408	0.923877	0.439851
H69	H	1.640357	0.923849	0.269227
H70	H	1.396410	0.439791	0.785116
C71	C	1.134035	0.547752	0.547099
H72	H	1.207238	0.541003	0.540361
H73	H	1.116089	0.537054	0.596568
H74	H	1.116021	0.597187	0.536229
C75	C	0.903617	0.547766	0.547121
H76	H	0.830412	0.541020	0.540403
H77	H	0.921572	0.597196	0.536258
H78	H	0.921632	0.537055	0.596589
C79	C	0.788393	0.448791	0.448494
H80	H	0.763580	0.483609	0.483204
H81	H	0.763620	0.401315	0.461312
H82	H	0.763521	0.461459	0.400983
C83	C	0.903585	0.255573	0.255861
H84	H	0.830382	0.262336	0.262588
H85	H	0.921589	0.206137	0.266720
H86	H	0.921539	0.266282	0.206392
C87	C	1.377250	0.453202	0.935527
H88	H	1.386895	0.446457	0.986807
H89	H	1.306663	0.442436	0.922930
H90	H	1.392599	0.502654	0.922915
C91	C	1.134005	0.255543	0.255856
H92	H	1.085617	0.227483	0.227876
H93	H	1.176830	0.223513	0.284072
H94	H	1.176784	0.283648	0.223734
