data_functionalizedCrystal
_audit_creation_method	'MofGen! by Chris Wilmer'
_symmetry_space_group_name_H-M	'P1'
_symmetry_Int_Tables_number	1
_symmetry_cell_setting	triclinic
loop_
_symmetry_equiv_pos_as_xyz
  x,y,z
_cell_length_a	17.640280
_cell_length_b	15.297475
_cell_length_c	15.296720
_cell_angle_alpha	91.617114
_cell_angle_beta	89.704419
_cell_angle_gamma	112.532054
loop_
_atom_site_label
_atom_site_type_symbol
_atom_site_fract_x
_atom_site_fract_y
_atom_site_fract_z
Zn1	Zn	-0.622537	-1.417125	0.611407
Zn2	Zn	-0.122537	-0.917125	1.111407
Zn3	Zn	-0.737717	-1.472679	0.443610
Zn4	Zn	-0.237717	-0.972679	0.943610
Zn5	Zn	-0.577601	-1.284185	0.447963
Zn6	Zn	-0.077601	-0.784185	0.947963
Zn7	Zn	-0.729855	-1.298838	0.566194
Zn8	Zn	-0.229855	-0.798838	1.066194
O9	O	-0.666928	-1.368207	0.517293
O10	O	-0.166928	-0.868207	1.017293
O11	O	-0.659913	-1.552884	0.606249
O12	O	-0.159913	-1.052884	1.106249
O13	O	-0.700962	-1.464792	0.324484
O14	O	-0.200962	-0.964792	0.824484
O15	O	-0.471640	-1.272438	0.490387
O16	O	0.028360	-0.772438	0.990387
O17	O	-0.744535	-1.593699	0.482969
O18	O	-0.244535	-1.093699	0.982969
O19	O	-0.504655	-1.370108	0.610469
O20	O	-0.004655	-0.870108	1.110469
O21	O	-0.583325	-1.326306	0.327682
O22	O	-0.083325	-0.826306	0.827682
O23	O	-0.575701	-1.157739	0.446546
O24	O	-0.075701	-0.657739	0.946546
O25	O	-0.731134	-1.297411	0.691895
O26	O	-0.231134	-0.797411	1.191895
O27	O	-0.687561	-1.168505	0.533410
O28	O	-0.187561	-0.668505	1.033410
O29	O	-0.652289	-1.384317	0.725113
O30	O	-0.152289	-0.884317	1.225113
O31	O	-0.848596	-1.479001	0.439128
O32	O	-0.348596	-0.979001	0.939128
O33	O	-0.842819	-1.351280	0.529189
O34	O	-0.342819	-0.851280	1.029189
C35	C	-0.625902	-1.129832	0.485544
C36	C	-0.125902	-0.629832	0.985544
C37	C	-0.608374	-1.027857	0.471978
C38	C	-0.108374	-0.527857	0.971978
C39	C	-0.874735	-1.422781	0.478802
C40	C	-0.374735	-0.922781	0.978802
C41	C	-0.963653	-1.446208	0.462375
C42	C	-0.463653	-0.946208	0.962375
C43	C	-0.695847	-1.336302	0.740410
C44	C	-0.195847	-0.836302	1.240410
C45	C	-0.708171	-1.322705	0.835489
C46	C	-0.208171	-0.822705	1.335489
C47	C	-1.241111	-1.190566	0.642449
C48	C	-0.741111	-0.690566	1.142449
C49	C	-1.324661	-1.212585	0.626986
C50	C	-0.824661	-0.712585	1.126986
C51	C	-1.330638	-1.345637	0.533325
C52	C	-0.830638	-0.845637	1.033325
C53	C	-1.247088	-1.323632	0.548783
C54	C	-0.747088	-0.823632	1.048783
C55	C	-1.202331	-1.246095	0.603345
C56	C	-0.702331	-0.746095	1.103345
C57	C	-1.208307	-1.379161	0.509680
C58	C	-0.708307	-0.879161	1.009680
C59	C	-1.124764	-1.357155	0.525133
C60	C	-0.624764	-0.857155	1.025133
C61	C	-1.080001	-1.279619	0.579690
C62	C	-0.580001	-0.779619	1.079690
C63	C	-1.118787	-1.224088	0.618798
C64	C	-0.618787	-0.724088	1.118798
C65	C	-1.253065	-1.456695	0.455113
C66	C	-0.753065	-0.956695	0.955113
C67	C	-1.214284	-1.512223	0.416010
C68	C	-0.714284	-1.012223	0.916010
C69	C	-1.130740	-1.490221	0.431468
C70	C	-0.630740	-0.990221	0.931468
C71	C	-1.085977	-1.412686	0.486025
C72	C	-0.585977	-0.912686	0.986025
C73	C	-1.091954	-1.545752	0.392360
C74	C	-0.591954	-1.045752	0.892360
C75	C	-1.008410	-1.523746	0.407814
C76	C	-0.508410	-1.023746	0.907814
C77	C	-1.002434	-1.390679	0.501479
C78	C	-0.502434	-0.890679	1.001479
C79	C	-0.458316	-1.313441	0.555957
C80	C	0.041684	-0.813441	1.055957
C81	C	-0.369418	-1.290104	0.572433
C82	C	0.130582	-0.790104	1.072433
C83	C	-0.708114	-1.607512	0.549167
C84	C	-0.208114	-1.107512	1.049167
C85	C	-0.725665	-1.709490	0.562750
C86	C	-0.225665	-1.209490	1.062750
C87	C	-0.792215	-0.763060	0.614251
C88	C	-0.292215	-0.263060	1.114251
C89	C	-0.808690	-0.858873	0.626993
C90	C	-0.308690	-0.358873	1.126993
C91	C	-0.758612	-0.901123	0.588241
C92	C	-0.258612	-0.401123	1.088241
C93	C	-0.692057	-0.847552	0.536744
C94	C	-0.192057	-0.347552	1.036744
C95	C	-0.675584	-0.751731	0.523995
C96	C	-0.175584	-0.251731	1.023995
C97	C	-0.641981	-0.889795	0.497984
C98	C	-0.141981	-0.389795	0.997984
C99	C	-0.575426	-0.836223	0.446487
C100	C	-0.075426	-0.336223	0.946487
C101	C	-0.558956	-0.740412	0.433741
C102	C	-0.058956	-0.240412	0.933741
C103	C	-0.609034	-0.698161	0.472493
C104	C	-0.109034	-0.198161	0.972493
C105	C	-0.658454	-0.985615	0.510734
C106	C	-0.158454	-0.485615	1.010734
C107	C	-0.541823	-0.974287	0.420477
C108	C	-0.041823	-0.474287	0.920477
C109	C	-0.525349	-0.878474	0.407735
C110	C	-0.025349	-0.378474	0.907735
C111	C	-0.638072	-1.400025	0.295063
C112	C	-0.138072	-0.900025	0.795063
C113	C	-0.625554	-1.413740	0.200050
C114	C	-0.125554	-0.913740	0.700050
C115	C	-0.578714	-1.465377	1.172680
C116	C	-0.078714	-0.965377	1.672680
C117	C	-0.567138	-1.478158	1.083349
C118	C	-0.067138	-0.978158	1.583349
C119	C	-0.602395	-1.439295	1.021380
C120	C	-0.102395	-0.939295	1.521380
C121	C	-0.649231	-1.387651	1.048750
C122	C	-0.149231	-0.887651	1.548750
C123	C	-0.660813	-1.374876	1.138089
C124	C	-0.160813	-0.874876	1.638089
C125	C	-0.684494	-1.348794	0.986789
C126	C	-0.184494	-0.848794	1.486789
C127	C	-0.731330	-1.297150	1.014159
C128	C	-0.231330	-0.797150	1.514159
C129	C	-0.742910	-1.284376	1.103490
C130	C	-0.242910	-0.784376	1.603490
C131	C	-0.707653	-1.323238	1.165459
C132	C	-0.207653	-0.823238	1.665459
C133	C	-0.672911	-1.361569	0.897450
C134	C	-0.172911	-0.861569	1.397450
C135	C	-0.755010	-1.271068	0.862859
C136	C	-0.255010	-0.771068	1.362859
C137	C	-0.766587	-1.258288	0.952190
C138	C	-0.266587	-0.758288	1.452190
H139	H	-0.965993	-1.327546	0.545916
H140	H	-0.465993	-0.827546	1.045916
Cl141	Cl	-1.184842	-1.093096	0.711051
Cl142	Cl	-0.684842	-0.593096	1.211051
Cl143	Cl	-0.534406	-1.514236	1.250585
Cl144	Cl	-0.034406	-1.014236	1.750585
Cl145	Cl	-0.975035	-1.252135	0.599344
Cl146	Cl	-0.475035	-0.752135	1.099344
H147	H	-0.862881	-0.902485	0.668921
H148	H	-0.362881	-0.402485	1.168921
Cl149	Cl	-0.614033	-1.426490	0.863052
Cl150	Cl	-0.114033	-0.926490	1.363052
Cl151	Cl	-0.799341	-1.222216	0.784960
Cl152	Cl	-0.299341	-0.722216	1.284960
H153	H	-0.772030	-0.979139	0.598619
H154	H	-0.272030	-0.479139	1.098619
H155	H	-0.717076	-1.312836	1.238201
H156	H	-0.217076	-0.812836	1.738201
H157	H	-1.367089	-1.408766	0.488898
H158	H	-0.867089	-0.908766	0.988898
H159	H	-1.082346	-1.160955	0.663235
H160	H	-0.582346	-0.660955	1.163235
H161	H	-0.781055	-1.242333	1.125770
H162	H	-0.281055	-0.742333	1.625770
H163	H	-0.804721	-1.216238	0.974487
H164	H	-0.304721	-0.716238	1.474487
H165	H	-0.504770	-0.696799	0.391798
H166	H	-0.004770	-0.196799	0.891798
H167	H	-1.356236	-1.167370	0.658845
H168	H	-0.856236	-0.667370	1.158845
H169	H	-0.712644	-1.029224	0.552664
H170	H	-0.212644	-0.529224	1.052664
H171	H	-0.471159	-0.834842	0.365805
H172	H	0.028841	-0.334842	0.865805
H173	H	-0.501047	-1.008687	0.388920
H174	H	-0.001047	-0.508687	0.888920
Cl175	Cl	-0.508261	-1.543078	1.048947
Cl176	Cl	-0.008261	-1.043078	1.548947
Cl177	Cl	-0.587837	-1.455360	0.909077
Cl178	Cl	-0.087837	-0.955360	1.409077
H179	H	-0.832985	-0.728652	0.645792
H180	H	-0.332985	-0.228652	1.145792
H181	H	-1.250736	-1.575352	0.371583
H182	H	-0.750736	-1.075352	0.871583
Cl183	Cl	-1.358102	-1.484388	0.435722
Cl184	Cl	-0.858102	-0.984388	0.935722
Cl185	Cl	-0.588321	-0.577704	0.456483
Cl186	Cl	-0.088321	-0.077704	0.956483
H187	H	-1.128405	-1.608877	0.347929
H188	H	-0.628405	-1.108877	0.847929
H189	H	-0.976835	-1.568963	0.375970
H190	H	-0.476835	-1.068963	0.875970
