data_functionalizedCrystal
_audit_creation_method	'MofGen! by Chris Wilmer'
_symmetry_space_group_name_H-M	'P1'
_symmetry_Int_Tables_number	1
_symmetry_cell_setting	triclinic
loop_
_symmetry_equiv_pos_as_xyz
  x,y,z
_cell_length_a	14.044220
_cell_length_b	11.792254
_cell_length_c	10.268362
_cell_angle_alpha	90.001515
_cell_angle_beta	89.999929
_cell_angle_gamma	88.693738
loop_
_atom_site_label
_atom_site_type_symbol
_atom_site_fract_x
_atom_site_fract_y
_atom_site_fract_z
O1	O	-1.259125	-0.273764	-0.108163
O2	O	-0.983104	-0.263885	-0.108196
O3	O	-1.127806	-0.104283	-0.108169
O4	O	-1.114423	-0.433366	-0.108189
O5	O	-1.127793	-0.104287	0.108431
O6	O	-0.983090	-0.263889	0.108405
O7	O	-1.259111	-0.273768	0.108438
Cu8	Cu	-1.121099	-0.268829	0.128199
Cu9	Cu	-1.121116	-0.268824	-0.127957
O10	O	-1.114409	-0.433370	0.108411
C11	C	-0.947761	-0.259563	0.000100
C12	C	-0.842468	-0.246664	0.000088
C13	C	-1.126956	-0.061915	0.000130
C14	C	-1.124433	0.064335	0.000129
C15	C	-1.294455	-0.278090	0.000139
C16	C	-1.399747	-0.290989	0.000142
C17	C	-0.649685	-0.223082	0.000115
C18	C	-0.592525	-0.314566	0.000115
C19	C	-0.485254	-0.301445	0.000130
C20	C	-0.756966	-0.236201	0.000100
C21	C	-1.115259	-0.475738	0.000108
C22	C	-1.117782	-0.601988	0.000101
C23	C	-1.122383	0.166864	0.000124
C24	C	-1.119819	0.295491	0.000112
N25	N	-1.121095	-0.268833	0.308364
N26	N	-1.121128	-0.268812	-0.308123
C27	C	-1.121102	-0.268834	0.426207
C28	C	-1.121113	-0.268825	0.574045
H29	H	-0.624152	-0.402743	0.000103
O30	O	-0.611805	-0.117975	0.000061
C31	C	-0.468784	-0.008908	0.000147
C32	C	-0.511571	-0.128004	0.000185
H33	H	-0.387739	-0.016976	0.000275
H34	H	-0.493406	0.039224	-0.090526
H35	H	-0.493541	0.039205	0.090768
H36	H	-0.486833	-0.176211	-0.090375
H37	H	-0.486952	-0.176050	0.090918
