data_functionalizedCrystal
_audit_creation_method	'MofGen! by Chris Wilmer'
_symmetry_space_group_name_H-M	'P1'
_symmetry_Int_Tables_number	1
_symmetry_cell_setting	triclinic
loop_
_symmetry_equiv_pos_as_xyz
  x,y,z
_cell_length_a	16.992695
_cell_length_b	16.974897
_cell_length_c	14.586319
_cell_angle_alpha	93.655081
_cell_angle_beta	90.002484
_cell_angle_gamma	92.972379
loop_
_atom_site_label
_atom_site_type_symbol
_atom_site_fract_x
_atom_site_fract_y
_atom_site_fract_z
O1	O	-0.099985	1.055450	0.154456
O2	O	0.233349	1.388783	0.487789
O3	O	0.566682	1.722116	0.821123
O4	O	-0.112701	0.826050	0.137453
O5	O	0.220633	1.159383	0.470787
O6	O	0.553966	1.492716	0.804120
O7	O	0.007799	0.939830	0.145895
O8	O	0.341132	1.273163	0.479228
O9	O	0.674466	1.606497	0.812561
O10	O	-0.220484	0.941669	0.146015
O11	O	0.112849	1.275003	0.479348
O12	O	0.446182	1.608336	0.812681
O13	O	0.007801	0.939822	-0.006587
O14	O	0.341134	1.273155	0.326746
O15	O	0.674467	1.606488	0.660080
O16	O	-0.112699	0.826041	-0.015028
O17	O	0.220634	1.159375	0.318305
O18	O	0.553968	1.492708	0.651639
O19	O	-0.099983	1.055441	0.001974
O20	O	0.233350	1.388774	0.335308
O21	O	0.566684	1.722108	0.668641
Cu22	Cu	-0.106341	0.940740	-0.020450
Cu23	Cu	0.226993	1.274074	0.312884
Cu24	Cu	0.560326	1.607407	0.646217
Cu25	Cu	-0.106343	0.940750	0.159877
Cu26	Cu	0.226990	1.274084	0.493211
Cu27	Cu	0.560324	1.607417	0.826544
O28	O	-0.220483	0.941661	-0.006467
O29	O	0.112851	1.274994	0.326867
O30	O	0.446184	1.608327	0.660200
C31	C	-0.112214	0.796557	0.059027
C32	C	0.221119	1.129890	0.392361
C33	C	0.554453	1.463223	0.725694
C34	C	-0.110757	0.708689	0.052516
C35	C	0.222576	1.042023	0.385849
C36	C	0.555909	1.375356	0.719182
C37	C	-0.110076	0.667406	0.132567
C38	C	0.223257	1.000740	0.465900
C39	C	0.556591	1.334073	0.799234
C40	C	-0.108720	0.584845	0.126435
C41	C	0.224614	0.918178	0.459768
C42	C	0.557947	1.251511	0.793102
C43	C	-0.108039	0.543568	0.040251
C44	C	0.225294	0.876901	0.373584
C45	C	0.558627	1.210234	0.706917
C46	C	-0.108723	0.584856	-0.039807
C47	C	0.224610	0.918189	0.293526
C48	C	0.557943	1.251523	0.626860
C49	C	-0.110085	0.667416	-0.033674
C50	C	0.223248	1.000749	0.299659
C51	C	0.556581	1.334083	0.632993
C52	C	-0.103972	0.296650	0.012996
C53	C	0.229361	0.629983	0.346329
C54	C	0.562695	0.963317	0.679662
C55	C	-0.102608	0.214085	0.006869
C56	C	0.230726	0.547418	0.340202
C57	C	0.564059	0.880751	0.673535
C58	C	-0.102606	0.214079	0.173112
C59	C	0.230728	0.547412	0.506445
C60	C	0.564061	0.880745	0.839778
C61	C	-0.103963	0.296640	0.179237
C62	C	0.229371	0.629974	0.512570
C63	C	0.562704	0.963307	0.845904
C64	C	-0.104651	0.337921	0.099179
C65	C	0.228683	0.671255	0.432513
C66	C	0.562016	1.004588	0.765846
N67	N	-0.106651	0.459176	0.033981
N68	N	0.226683	0.792510	0.367314
N69	N	0.560016	1.125843	0.700647
N70	N	-0.106045	0.422311	0.105450
N71	N	0.227288	0.755644	0.438784
N72	N	0.560622	1.088977	0.772117
C73	C	-0.249694	0.944031	0.069947
C74	C	0.083640	1.277364	0.403281
C75	C	0.416973	1.610698	0.736614
C76	C	-0.336731	0.951091	0.070465
C77	C	-0.003397	1.284424	0.403798
C78	C	0.329936	1.617757	0.737131
C79	C	-0.387041	0.882976	0.065417
C80	C	-0.053708	1.216309	0.398750
C81	C	0.279626	1.549642	0.732083
C82	C	-0.468821	0.889614	0.065920
C83	C	-0.135487	1.222947	0.399253
C84	C	0.197846	1.556280	0.732587
C85	C	-0.500289	0.964367	0.071465
C86	C	-0.166955	1.297700	0.404798
C87	C	0.166378	1.631034	0.738132
C88	C	-0.449972	1.032487	0.076516
C89	C	-0.116638	1.365820	0.409850
C90	C	0.216695	1.699154	0.743183
C91	C	-0.368194	1.025848	0.076019
C92	C	-0.034860	1.359182	0.409353
C93	C	0.298473	1.692515	0.742686
C94	C	-0.743858	0.991882	0.073525
C95	C	-0.410525	1.325215	0.406859
C96	C	-0.077191	1.658548	0.740192
C97	C	-0.825643	0.998515	0.074019
C98	C	-0.492309	1.331848	0.407353
C99	C	-0.158976	1.665182	0.740686
C100	C	-0.844486	0.855641	0.063425
C101	C	-0.511153	1.188974	0.396758
C102	C	-0.177819	1.522308	0.730091
C103	C	-0.762705	0.849009	0.062923
C104	C	-0.429372	1.182342	0.396256
C105	C	-0.096039	1.515676	0.729589
C106	C	-0.712396	0.917129	0.067979
C107	C	-0.379062	1.250462	0.401312
C108	C	-0.045729	1.583796	0.734645
N109	N	-0.583880	0.971154	0.071977
N110	N	-0.250547	1.304487	0.405310
N111	N	0.082786	1.637821	0.738644
N112	N	-0.628806	0.910341	0.067473
N113	N	-0.295472	1.243675	0.400807
N114	N	0.037861	1.577008	0.734140
C115	C	0.037010	0.937460	0.069482
C116	C	0.370343	1.270793	0.402816
C117	C	0.703677	1.604126	0.736149
C118	C	0.124047	0.930400	0.068971
C119	C	0.457380	1.263734	0.402304
C120	C	0.790714	1.597067	0.735638
C121	C	-0.100470	1.084934	0.080403
C122	C	0.232864	1.418267	0.413736
C123	C	0.566197	1.751601	0.747069
C124	C	-0.101926	1.172802	0.086920
C125	C	0.231407	1.506135	0.420254
C126	C	0.564740	1.839468	0.753587
N127	N	-0.106339	0.940739	-0.147281
N128	N	0.226995	1.274072	0.186052
N129	N	0.560328	1.607406	0.519385
C130	C	-0.052999	0.991140	-0.378549
C131	C	0.280334	1.324473	-0.045215
C132	C	0.613667	1.657807	0.288118
C133	C	-0.052997	0.991142	-0.474530
C134	C	0.280336	1.324475	-0.141196
C135	C	0.613669	1.657809	0.192137
C136	C	-0.159681	0.890351	-0.482017
C137	C	0.173653	1.223685	-0.148683
C138	C	0.506986	1.557018	0.184650
C139	C	-0.159678	0.890346	-0.386038
C140	C	0.173655	1.223679	-0.052704
C141	C	0.506989	1.557012	0.280629
C142	C	-0.106338	0.940744	-0.334306
C143	C	0.226995	1.274078	-0.000972
C144	C	0.560328	1.607411	0.332361
C145	C	-0.106339	0.940752	-0.526266
C146	C	0.226994	1.274086	-0.192933
C147	C	0.560328	1.607419	0.140401
C148	C	-0.106337	0.940754	-0.630333
C149	C	0.226996	1.274088	-0.297000
C150	C	0.560329	1.607421	0.036334
C151	C	-0.106339	0.940742	-0.230232
C152	C	0.226994	1.274075	0.103101
C153	C	0.560328	1.607408	0.436434
N154	N	-0.106339	0.940758	0.286710
N155	N	0.226995	1.274091	0.620043
N156	N	0.560328	1.607424	0.953376
H157	H	-0.110627	0.701008	0.202748
H158	H	0.222706	1.034342	0.536081
H159	H	0.556039	1.367675	0.869415
O160	O	-0.483906	1.113117	0.082498
O161	O	-0.150572	1.446450	0.415831
O162	O	0.182761	1.779784	0.749164
H163	H	-0.549224	1.106292	0.081986
H164	H	-0.215890	1.439625	0.415319
H165	H	0.117443	1.772958	0.748652
H166	H	-0.102047	0.180458	0.238290
H167	H	0.231286	0.513792	0.571623
H168	H	0.564619	0.847125	0.904956
O169	O	-0.108354	0.540136	-0.132659
O170	O	0.224979	0.873469	0.200675
O171	O	0.558313	1.206802	0.534008
H172	H	-0.054447	0.506012	-0.139348
H173	H	0.278886	0.839345	0.193986
H174	H	0.612220	1.172679	0.527319
O175	O	-0.728764	0.768382	0.056939
O176	O	-0.395431	1.101716	0.390272
O177	O	-0.062097	1.435049	0.723605
H178	H	-0.777488	0.722131	0.053517
H179	H	-0.444155	1.055465	0.386851
H180	H	-0.110822	1.388798	0.720184
O181	O	-0.110827	0.711942	-0.120019
O182	O	0.222506	1.045276	0.213315
O183	O	0.555840	1.378609	0.546648
H184	H	-0.058042	0.753233	-0.120931
H185	H	0.275292	1.086566	0.212402
H186	H	0.608625	1.419899	0.545736
H187	H	-0.108165	0.551236	0.191622
H188	H	0.225168	0.884569	0.524955
H189	H	0.558502	1.217902	0.858288
O190	O	0.004553	1.045475	-0.322757
O191	O	0.337886	1.378808	0.010576
O192	O	0.671219	1.712141	0.343910
H193	H	-0.004403	1.037005	-0.248583
H194	H	0.328930	1.370338	0.084751
H195	H	0.662263	1.703672	0.418084
H196	H	-0.885456	0.800182	0.059309
H197	H	-0.552123	1.133515	0.392643
H198	H	-0.218790	1.466848	0.725976
O199	O	-0.101882	0.169559	-0.086091
O200	O	0.231451	0.502892	0.247242
O201	O	0.564785	0.836225	0.580576
H202	H	-0.102598	0.212133	-0.140731
H203	H	0.230736	0.545466	0.192602
H204	H	0.564069	0.878799	0.525936
H205	H	-0.851260	1.059391	0.078534
H206	H	-0.517927	1.392725	0.411868
H207	H	-0.184593	1.726058	0.745201
O208	O	-0.217213	0.835991	-0.338307
O209	O	0.116120	1.169325	-0.004974
O210	O	0.449454	1.502658	0.328359
H211	H	-0.254312	0.800956	-0.390402
H212	H	0.079021	1.134289	-0.057068
H213	H	0.412354	1.467623	0.276265
O214	O	0.004522	1.045507	-0.522252
O215	O	0.337856	1.378840	-0.188919
O216	O	0.671189	1.712174	0.144415
H217	H	0.041604	1.080555	-0.470151
H218	H	0.374937	1.413889	-0.136818
H219	H	0.708271	1.747222	0.196515
H220	H	-0.361427	0.822104	0.060891
H221	H	-0.028093	1.155437	0.394224
H222	H	0.305240	1.488770	0.727557
O223	O	-0.104700	0.341161	0.272193
O224	O	0.228633	0.674494	0.605526
O225	O	0.561967	1.007828	0.938859
H226	H	-0.104005	0.298583	0.326829
H227	H	0.229329	0.631916	0.660163
H228	H	0.562662	0.965249	0.993496
H229	H	-0.104527	0.330251	-0.052193
H230	H	0.228806	0.663585	0.281140
H231	H	0.562140	0.996918	0.614474
H232	H	-0.509781	0.834147	0.061812
H233	H	-0.176447	1.167480	0.395146
H234	H	0.156886	1.500814	0.728479
O235	O	-0.689600	1.065350	0.078958
O236	O	-0.356266	1.398683	0.412291
O237	O	-0.022933	1.732016	0.745624
H238	H	-0.725223	1.118443	0.082881
H239	H	-0.391890	1.451777	0.416214
H240	H	-0.058557	1.785110	0.749548
H241	H	-0.327231	1.081315	0.080134
H242	H	0.006102	1.414648	0.413467
H243	H	0.339436	1.747982	0.746801
H244	H	-0.203110	0.849319	-0.524146
H245	H	0.130224	1.182652	-0.190813
H246	H	0.463557	1.515986	0.142521
