data_functionalizedCrystal
_audit_creation_method	'MofGen! by Chris Wilmer'
_symmetry_space_group_name_H-M	'P1'
_symmetry_Int_Tables_number	1
_symmetry_cell_setting	triclinic
loop_
_symmetry_equiv_pos_as_xyz
  x,y,z
_cell_length_a	6.817900
_cell_length_b	11.102289
_cell_length_c	15.185551
_cell_angle_alpha	93.563763
_cell_angle_beta	104.266010
_cell_angle_gamma	108.605707
loop_
_atom_site_label
_atom_site_type_symbol
_atom_site_fract_x
_atom_site_fract_y
_atom_site_fract_z
V1	V	-4.061644	-0.176696	-0.283395
O2	O	-4.021627	0.007609	-0.278001
O3	O	-4.038762	-0.349510	-0.281457
O4	O	-4.016668	-0.174364	-0.406993
O5	O	-4.043874	-0.168749	-0.151595
V6	V	-4.541522	-0.154605	-0.267631
O7	O	-4.330899	-0.225153	-0.317975
O8	O	-4.722465	-0.106147	-0.233050
O9	O	-4.341197	0.018209	-0.269569
O10	O	-4.698937	-0.338910	-0.273025
O11	O	-4.676690	-0.162552	-0.399431
O12	O	-4.363291	-0.156936	-0.144032
C13	C	-3.889860	-0.391626	-0.276986
C14	C	-3.952461	-0.532907	-0.276225
C15	C	-4.165081	-0.605768	-0.280402
C16	C	-4.223893	-0.738517	-0.279694
C17	C	-3.857444	-0.725532	-0.270630
C18	C	-3.798638	-0.592786	-0.271344
C19	C	-4.376646	-0.613265	-0.285631
C20	C	-4.435458	-0.746014	-0.284924
C21	C	-3.861676	-0.168209	-0.437119
C22	C	-3.906355	-0.167447	-0.538162
C23	C	-3.985237	-0.283517	-0.598614
C24	C	-3.869439	-0.050658	-0.572652
C25	C	-3.911406	-0.049937	-0.667586
C26	C	-3.990287	-0.166008	-0.728039
C27	C	-4.027203	-0.282800	-0.693557
C28	C	-3.874474	0.066853	-0.702074
C29	C	-3.916438	0.067579	-0.797013
C30	C	-3.995335	-0.048494	-0.857468
C31	C	-4.032253	-0.165290	-0.822981
C32	C	-4.111134	-0.281361	-0.883434
C33	C	-4.148068	-0.398160	-0.848950
C34	C	-4.106100	-0.398872	-0.754012
C35	C	-4.037303	-0.047781	-0.952406
C36	C	-4.153100	-0.280643	-0.978377
C37	C	-4.153442	0.060319	-0.274037
C38	C	-4.070080	0.201598	-0.274804
C39	C	-4.181626	-0.163096	-0.113901
C40	C	-4.116184	-0.163852	-0.012858
H41	H	-4.387995	-0.559844	-0.221545
O42	O	-3.880934	0.180941	-0.830622
C43	C	-4.075820	0.182302	-0.889140
H44	H	-4.190403	0.079310	-0.916103
H45	H	-4.041690	0.233445	-0.949415
H46	H	-4.152955	0.235252	-0.849221
O47	O	-4.229463	-0.393306	-1.037182
C48	C	-4.083114	-0.393847	-1.088453
H49	H	-3.981091	-0.290643	-1.089935
H50	H	-4.176272	-0.443976	-1.161698
H51	H	-3.973640	-0.447360	-1.055185
O52	O	-4.020598	-0.396982	-0.565150
C53	C	-3.891752	-0.461420	-0.591823
H54	H	-3.848024	-0.425838	-0.655659
H55	H	-3.984980	-0.569306	-0.607830
H56	H	-3.738068	-0.441226	-0.533548
O57	O	-4.141289	-0.512304	-0.720507
C58	C	-4.012342	-0.576661	-0.747183
H59	H	-3.968787	-0.541117	-0.811059
H60	H	-4.105407	-0.684567	-0.763128
H61	H	-3.858566	-0.556343	-0.688936
O62	O	-4.496521	-0.590717	-0.364471
C63	C	-4.717052	-0.642443	-0.369043
H64	H	-4.742727	-0.721801	-0.324453
H65	H	-4.815418	-0.683996	-0.443310
H66	H	-4.771338	-0.563363	-0.343066
O67	O	-4.225052	-0.510886	-0.907724
C68	C	-4.426809	-0.523440	-0.967840
H69	H	-4.502967	-0.461806	-0.934937
H70	H	-4.536930	-0.628431	-0.981891
H71	H	-4.403681	-0.490238	-1.035301
O72	O	-4.509793	-0.775815	-0.210907
C73	C	-4.568844	-0.909525	-0.210316
H74	H	-4.605222	-0.960902	-0.282932
H75	H	-4.718416	-0.944627	-0.184912
H76	H	-4.430650	-0.931167	-0.162629
H77	H	-3.805204	0.043842	-0.523426
O78	O	-3.592100	-0.521851	-0.267171
C79	C	-3.503835	-0.427220	-0.188214
H80	H	-3.639676	-0.407136	-0.165887
H81	H	-3.394656	-0.335059	-0.204583
H82	H	-3.405799	-0.462941	-0.130326
H83	H	-4.007243	0.047314	-0.980479
O84	O	-4.578799	-0.815435	-0.365164
C85	C	-4.770182	-0.891895	-0.347563
H86	H	-4.733679	-0.908005	-0.272730
H87	H	-4.838322	-0.988582	-0.394500
H88	H	-4.893303	-0.840930	-0.361226
O89	O	-3.798188	0.179547	-0.643321
C90	C	-3.944476	0.180059	-0.592012
H91	H	-4.111646	0.110006	-0.631073
H92	H	-3.951183	0.281007	-0.580917
H93	H	-3.888893	0.149578	-0.522559
H94	H	-3.732215	-0.774302	-0.266657
