data_functionalizedCrystal
_audit_creation_method	'MofGen! by Chris Wilmer'
_symmetry_space_group_name_H-M	'P1'
_symmetry_Int_Tables_number	1
_symmetry_cell_setting	triclinic
loop_
_symmetry_equiv_pos_as_xyz
  x,y,z
_cell_length_a	31.640172
_cell_length_b	31.640172
_cell_length_c	23.196401
_cell_angle_alpha	60.005432
_cell_angle_beta	90.008017
_cell_angle_gamma	60.000198
loop_
_atom_site_label
_atom_site_type_symbol
_atom_site_fract_x
_atom_site_fract_y
_atom_site_fract_z
Zr1	Zr	0.407227	0.462545	-0.075670
O2	O	0.339735	0.550720	-0.167716
O3	O	0.427909	0.374376	-0.047453
O4	O	0.427900	0.462544	-0.167722
O5	O	0.339760	0.462551	0.047424
O6	O	0.497457	0.462537	-0.167726
O7	O	0.339744	0.462552	-0.047447
O8	O	0.497473	0.304820	0.047413
O9	O	0.339744	0.620267	-0.167715
O10	O	0.488649	0.410634	-0.035421
O11	O	0.436752	0.410638	0.035383
O12	O	0.436742	0.514445	-0.106218
O13	O	0.384845	0.514450	-0.035414
Zr14	Zr	0.518188	0.462532	0.075633
Zr15	Zr	0.518162	0.462534	-0.075676
Zr16	Zr	0.407254	0.462543	0.075639
Zr17	Zr	0.407243	0.573465	-0.075668
Zr18	Zr	0.518173	0.351612	0.075631
O19	O	0.497506	0.550701	0.047417
O20	O	0.497469	0.550704	-0.167725
O21	O	0.339772	0.550718	0.047426
O22	O	0.585681	0.374357	0.167680
O23	O	0.585643	0.374360	-0.047462
O24	O	0.427947	0.374374	0.167688
O25	O	0.585655	0.462527	-0.047461
O26	O	0.497515	0.462533	0.167686
O27	O	0.427959	0.462540	0.167690
O28	O	0.585672	0.462525	0.047411
O29	O	0.427922	0.620258	-0.167720
O30	O	0.497494	0.304819	0.167684
O31	O	0.585672	0.304810	0.167679
O32	O	0.585650	0.304811	0.047408
O33	O	0.339765	0.620266	-0.047445
O34	O	0.427943	0.620257	-0.047450
O35	O	0.488674	0.410632	0.106182
O36	O	0.540570	0.410628	0.035377
O37	O	0.488663	0.514439	-0.035420
O38	O	0.436767	0.514443	0.035385
C39	C	0.462689	0.323794	-0.000020
C40	C	0.462682	0.276706	-0.000021
C41	C	0.489808	-0.015338	-0.036971
C42	C	0.489818	-0.192334	-0.036970
O43	O	0.512876	-0.215241	-0.068377
N44	N	0.462728	-0.214461	-0.000013
C45	C	0.435636	-0.192339	0.036951
O46	O	0.412599	-0.215225	0.068392
C47	C	0.435629	-0.015347	0.036955
C48	C	0.462717	0.006782	-0.000011
C49	C	0.516894	0.006790	-0.073933
C50	C	0.516888	0.051038	-0.073936
C51	C	0.489797	0.073159	-0.036977
C52	C	0.462711	0.051030	-0.000014
C53	C	0.408540	0.006771	0.073922
C54	C	0.408542	0.051021	0.073921
C55	C	0.435630	0.073150	0.036955
C56	C	0.435615	0.117399	0.036942
N57	N	0.462705	0.139526	-0.000015
C58	C	0.489796	0.117406	-0.036975
C59	C	0.435641	-0.285261	0.036946
C60	C	0.435642	-0.329508	0.036944
C61	C	0.489825	-0.329501	-0.036977
C62	C	0.489821	-0.285251	-0.036979
C63	C	0.462731	-0.263135	-0.000012
C64	C	0.489783	0.210331	-0.036979
C65	C	0.489773	0.254586	-0.036981
C66	C	0.435593	0.254573	0.036943
C67	C	0.435600	0.210324	0.036942
C68	C	0.462699	0.188203	-0.000020
O69	O	0.412574	0.140329	0.068339
O70	O	0.512839	0.140290	-0.068398
C71	C	0.489813	-0.059587	-0.036968
C72	C	0.462727	-0.081715	-0.000006
C73	C	0.435636	-0.059595	0.036954
C74	C	0.462728	-0.125962	-0.000007
C75	C	0.489819	-0.148083	-0.036967
C76	C	0.516909	-0.125956	-0.073925
C77	C	0.516904	-0.081707	-0.073927
C78	C	0.408546	-0.081722	0.073911
C79	C	0.408553	-0.125970	0.073911
C80	C	0.435644	-0.148090	0.036951
C81	C	0.323946	0.462553	-0.000011
C82	C	0.276852	0.462558	-0.000008
C83	C	-0.015163	0.462528	-0.052282
C84	C	-0.192149	0.462521	-0.052288
O85	O	-0.215030	0.462495	-0.096720
N86	N	-0.214271	0.462522	-0.000023
C87	C	-0.192141	0.462520	0.052250
O88	O	-0.215015	0.462514	0.096708
C89	C	-0.015153	0.462523	0.052257
C90	C	0.006963	0.462529	-0.000015
C91	C	0.006954	0.462533	-0.104550
C92	C	0.051196	0.462538	-0.104550
C93	C	0.073322	0.462539	-0.052283
C94	C	0.051205	0.462534	-0.000015
C95	C	0.006978	0.462518	0.104532
C96	C	0.051228	0.462517	0.104530
C97	C	0.073344	0.462522	0.052258
C98	C	0.117573	0.462539	0.052251
N99	N	0.139695	0.462539	-0.000013
C100	C	0.117569	0.462538	-0.052281
C101	C	-0.285063	0.462520	0.052241
C102	C	-0.329310	0.462520	0.052239
C103	C	-0.329315	0.462520	-0.052298
C104	C	-0.285069	0.462524	-0.052298
C105	C	-0.262941	0.462519	-0.000024
C106	C	0.210481	0.462550	-0.052278
C107	C	0.254726	0.462557	-0.052275
C108	C	0.254728	0.462555	0.052263
C109	C	0.210486	0.462550	0.052259
C110	C	0.188364	0.462546	-0.000015
O111	O	0.140484	0.462559	0.096665
O112	O	0.140457	0.462531	-0.096723
C113	C	-0.059405	0.462523	-0.052282
C114	C	-0.081522	0.462519	-0.000014
C115	C	-0.059396	0.462519	0.052253
C116	C	-0.125769	0.462519	-0.000017
C117	C	-0.147895	0.462518	-0.052284
C118	C	-0.125773	0.462518	-0.104549
C119	C	-0.081531	0.462523	-0.104549
C120	C	-0.081518	0.462520	0.104518
C121	C	-0.125760	0.462515	0.104513
C122	C	-0.147886	0.462515	0.052246
C123	C	0.601470	0.462524	-0.000026
C124	C	0.648564	0.462520	-0.000028
C125	C	0.462675	0.462541	-0.189283
C126	C	0.462663	0.462542	-0.253517
C127	C	0.462727	0.601283	-0.000016
C128	C	0.462733	0.648371	-0.000015
C129	C	0.435571	0.516728	-0.320646
C130	C	0.435584	0.516729	-0.381001
C131	C	0.462683	0.462540	-0.374224
C132	C	0.489781	0.408346	-0.307083
C133	C	0.489771	0.408347	-0.246730
C134	C	0.458828	0.421026	-0.441541
C135	C	0.458834	0.421028	-0.501895
C136	C	0.462715	0.462535	-0.560371
C137	C	0.466581	0.504052	-0.558494
C138	C	0.466571	0.504052	-0.498141
C139	C	0.462696	0.462533	-0.439662
C140	C	0.435636	0.516727	-0.692946
C141	C	0.435653	0.516725	-0.753301
C142	C	0.489846	0.408341	-0.679381
C143	C	0.489833	0.408344	-0.619028
C144	C	0.462725	0.462539	-0.625816
C145	C	0.462741	0.462536	0.189246
C146	C	0.462752	0.462536	0.253481
C147	C	0.601450	0.323780	-0.000028
C148	C	0.648538	0.276687	-0.000031
C149	C	0.462722	0.323792	0.189244
C150	C	0.462727	0.276703	0.253478
C151	C	0.601484	0.323778	0.189236
C152	C	0.648583	0.276684	0.253468
C153	C	0.323932	0.601299	-0.189273
C154	C	0.276833	0.648393	-0.253504
C155	C	0.323965	0.601297	-0.000009
C156	C	0.276877	0.648391	-0.000005
C157	C	0.462694	0.601285	-0.189281
C158	C	0.462689	0.648374	-0.253514
C159	C	0.643549	0.254574	-0.036995
C160	C	0.687789	0.210331	-0.037013
C161	C	0.737018	0.188198	-0.000061
C162	C	0.742006	0.210315	0.036904
C163	C	0.697767	0.254560	0.036917
C164	C	0.489831	0.254586	0.320605
C165	C	0.489834	0.210347	0.380966
C166	C	0.462735	0.188222	0.374197
C167	C	0.435627	0.210344	0.307063
C168	C	0.435621	0.254585	0.246704
C169	C	0.697795	0.254566	0.246672
C170	C	0.742054	0.210322	0.307019
C171	C	0.737100	0.188194	0.374160
C172	C	0.687882	0.210317	0.380954
C173	C	0.643624	0.254563	0.320608
C174	C	0.227620	0.670517	-0.246709
C175	C	0.183361	0.714775	-0.307055
C176	C	0.188316	0.736905	-0.374196
C177	C	0.237534	0.714779	-0.380990
C178	C	0.281791	0.670525	-0.320645
C179	C	0.281867	0.670508	0.036953
C180	C	0.237627	0.714763	0.036953
C181	C	0.188398	0.736897	-0.000000
C182	C	0.183409	0.714779	-0.036963
C183	C	0.227649	0.670527	-0.036967
C184	C	0.489794	0.670485	-0.246723
C185	C	0.489799	0.714724	-0.307072
C186	C	0.462697	0.736856	-0.374211
C187	C	0.435591	0.714741	-0.381001
C188	C	0.435589	0.670499	-0.320653
H189	H	0.272731	0.462563	-0.094844
H190	H	0.511910	0.192341	0.435623
C191	C	0.590239	0.278470	0.328140
C192	C	0.595380	0.249605	0.399857
C193	C	0.546214	0.271605	0.406827
H194	H	0.571800	0.320239	0.306193
H195	H	0.571842	0.271195	0.306174
H196	H	0.613770	0.256885	0.421813
H197	H	0.613810	0.207837	0.421818
H198	H	0.527817	0.264329	0.384862
H199	H	0.527779	0.313373	0.384877
H200	H	0.549696	0.252019	0.455487
C201	C	0.785028	0.140069	0.000020
C202	C	0.784896	0.089270	0.029222
C203	C	0.829116	0.044917	0.029317
H204	H	0.785066	0.154492	-0.047038
H205	H	0.815078	0.130009	0.027347
H206	H	0.754854	0.099329	0.001895
H207	H	0.784866	0.074829	0.076283
H208	H	0.859166	0.034857	0.056644
H209	H	0.829150	0.059346	-0.017743
H210	H	0.829035	0.010443	0.049136
H211	H	0.223576	0.652501	-0.192045
H212	H	0.386486	-0.063717	0.104011
H213	H	0.241561	0.732803	-0.435664
C214	C	0.140323	0.784967	-0.439796
C215	C	0.155190	0.799626	-0.500055
C216	C	0.110992	0.843901	-0.560495
H217	H	0.120274	0.770520	-0.439888
H218	H	0.120309	0.819513	-0.439833
H219	H	0.175195	0.765087	-0.500019
H220	H	0.175233	0.814082	-0.499987
H221	H	0.090978	0.878446	-0.560532
H222	H	0.090946	0.829450	-0.560580
H223	H	0.121072	0.853856	-0.601388
H224	H	0.321947	0.652489	0.067049
H225	H	0.511864	0.652473	-0.192060
H226	H	-0.063506	0.462519	0.147081
H227	H	0.683717	0.192329	-0.067114
C228	C	-0.260955	0.462430	-0.108940
C229	C	-0.209975	0.411291	-0.077114
C230	C	-0.187745	0.411186	-0.129271
H231	H	-0.280410	0.462400	-0.140094
H232	H	-0.260995	0.497077	-0.134749
H233	H	-0.209938	0.376653	-0.051317
H234	H	-0.190507	0.411310	-0.045965
H235	H	-0.187784	0.445833	-0.155080
H236	H	-0.207204	0.411158	-0.160422
H237	H	-0.153151	0.376492	-0.107684
C238	C	-0.017025	0.462412	-0.161203
C239	C	-0.016842	0.411262	-0.129395
C240	C	-0.038919	0.411130	-0.181569
H241	H	-0.051635	0.497039	-0.187051
H242	H	0.002493	0.462382	-0.192320
H243	H	-0.036361	0.411297	-0.098290
H244	H	0.017762	0.376626	-0.103551
H245	H	-0.019401	0.411100	-0.212686
H246	H	-0.073528	0.445760	-0.207414
H247	H	-0.038794	0.376423	-0.159995
H248	H	0.469719	0.537855	-0.496614
H249	H	0.511845	0.364225	-0.301569
C250	C	0.462767	0.784806	-0.439754
C251	C	0.484173	0.763283	-0.479861
C252	C	0.484253	0.807436	-0.540235
H253	H	0.428269	0.819358	-0.467138
H254	H	0.482811	0.794798	-0.426118
H255	H	0.464129	0.753299	-0.493498
H256	H	0.518673	0.728736	-0.452499
H257	H	0.504296	0.817428	-0.526599
H258	H	0.449753	0.841985	-0.567613
H259	H	0.498780	0.792837	-0.567452
C260	C	0.462663	0.140206	0.439649
C261	C	0.433120	0.125569	0.419362
C262	C	0.433040	0.081344	0.479639
H263	H	0.497160	0.105641	0.466992
H264	H	0.448140	0.154708	0.466953
H265	H	0.447644	0.111065	0.392070
H266	H	0.398619	0.160122	0.392027
H267	H	0.418517	0.095846	0.506943
H268	H	0.467539	0.046782	0.506978
H269	H	0.412992	0.071411	0.465882
C270	C	0.075147	0.462506	-0.161339
C271	C	0.046301	0.462487	-0.207094
C272	C	0.068351	0.462447	-0.259411
H273	H	0.075079	0.497163	-0.187235
H274	H	0.109740	0.427825	-0.139891
H275	H	0.011717	0.497165	-0.228540
H276	H	0.046367	0.427834	-0.181218
H277	H	0.102945	0.427766	-0.237963
H278	H	0.068282	0.497104	-0.285301
H279	H	0.048786	0.462429	-0.290458
H280	H	0.143291	0.732782	-0.301510
C281	C	0.454734	0.375866	-0.503836
C282	C	0.496545	0.317945	-0.449661
C283	C	0.492786	0.276328	-0.451430
H284	H	0.423250	0.381016	-0.497488
H285	H	0.455316	0.381770	-0.548133
H286	H	0.495958	0.312044	-0.405374
H287	H	0.528035	0.312776	-0.455996
H288	H	0.493368	0.282231	-0.495727
H289	H	0.461300	0.281483	-0.445084
H290	H	0.521156	0.237024	-0.414677
H291	H	0.603468	0.272595	-0.067094
H292	H	0.701839	0.272575	0.192008
C293	C	0.406117	0.186419	0.299684
C294	C	0.353596	0.233331	0.262728
C295	C	0.326400	0.211307	0.255931
H296	H	0.419431	0.169160	0.274591
H297	H	0.409975	0.156920	0.345239
H298	H	0.349741	0.262820	0.217181
H299	H	0.340267	0.250595	0.287810
H300	H	0.330258	0.181808	0.301486
H301	H	0.339718	0.194048	0.230839
H302	H	0.290761	0.243132	0.230862
H303	H	0.223579	0.652521	-0.067060
H304	H	0.511871	0.732726	-0.301530
H305	H	-0.011023	0.462513	0.147097
H306	H	0.192475	0.462545	-0.094843
C307	C	0.795412	0.186370	0.077047
C308	C	0.790321	0.215207	0.109417
C309	C	0.839508	0.193163	0.146402
H310	H	0.813834	0.144601	0.112058
H311	H	0.813807	0.193634	0.045159
H312	H	0.771934	0.207938	0.141302
H313	H	0.771908	0.256975	0.074422
H314	H	0.857902	0.200428	0.114514
H315	H	0.857926	0.151395	0.181409
H316	H	0.836060	0.212730	0.168364
H317	H	0.701837	0.272559	0.067021
H318	H	0.241698	0.732764	0.067055
H319	H	0.413551	0.272587	0.192048
C320	C	0.335176	0.646557	-0.328176
C321	C	0.330036	0.675401	-0.399893
C322	C	0.379201	0.653334	-0.406864
H323	H	0.353623	0.653792	-0.306227
H324	H	0.353566	0.604785	-0.306213
H325	H	0.311654	0.717164	-0.421847
H326	H	0.311598	0.668170	-0.421857
H327	H	0.397591	0.611562	-0.384901
H328	H	0.397644	0.660570	-0.384912
H329	H	0.375720	0.672898	-0.455524
H330	H	0.782125	0.192314	0.301474
H331	H	0.413500	0.560858	-0.326178
C332	C	0.140431	0.784918	0.000127
C333	C	0.155344	0.799532	0.040422
C334	C	0.111174	0.843758	0.040568
H335	H	0.120374	0.819491	-0.046918
H336	H	0.120413	0.770424	0.019952
H337	H	0.175354	0.814028	0.020596
H338	H	0.175395	0.764973	0.087472
H339	H	0.091156	0.829265	0.060393
H340	H	0.091119	0.878328	-0.006479
H341	H	0.121286	0.853676	0.067913
H342	H	0.413525	0.732767	-0.435674
H343	H	0.413593	0.560852	-0.807962
H344	H	0.511831	0.272602	-0.067085
H345	H	0.413515	0.652501	-0.326192
H346	H	0.469739	0.537853	-0.606108
C347	C	0.519212	0.186419	-0.077183
C348	C	0.542917	0.215287	-0.109565
C349	C	0.570022	0.193283	-0.146618
H350	H	0.544895	0.144651	-0.045356
H351	H	0.495829	0.193688	-0.112191
H352	H	0.566297	0.208013	-0.074561
H353	H	0.517245	0.257054	-0.141403
H354	H	0.546640	0.200553	-0.181627
H355	H	0.595703	0.151516	-0.114787
H356	H	0.586105	0.212871	-0.168599
H357	H	0.413563	0.560855	-0.698473
H358	H	0.511899	0.272595	0.326130
C359	C	0.785138	0.140242	0.439698
C360	C	0.785038	0.161767	0.479799
C361	C	0.829288	0.117613	0.540168
H362	H	0.785196	0.105691	0.467087
H363	H	0.815167	0.130248	0.426054
H364	H	0.755016	0.171752	0.493443
H365	H	0.784987	0.196312	0.452431
H366	H	0.859317	0.107620	0.526524
H367	H	0.829342	0.083065	0.567551
H368	H	0.829228	0.132213	0.567381
C369	C	0.129990	0.738689	-0.077014
C370	C	0.124405	0.691765	-0.049985
C371	C	0.075203	0.713765	-0.086862
H372	H	0.104313	0.768193	-0.071737
H373	H	0.126083	0.755933	-0.125644
H374	H	0.128306	0.674530	-0.001367
H375	H	0.150070	0.662258	-0.055262
H376	H	0.071297	0.731008	-0.135492
H377	H	0.049531	0.743268	-0.081583
H378	H	0.071409	0.681929	-0.068533
C379	C	0.546356	0.074957	-0.114078
C380	C	0.570092	0.046094	-0.146423
C381	C	0.597251	0.068102	-0.183399
H382	H	0.523018	0.116725	-0.149102
H383	H	0.572026	0.067685	-0.082188
H384	H	0.544425	0.053370	-0.178311
H385	H	0.593438	0.004327	-0.111415
H386	H	0.622921	0.060830	-0.151509
H387	H	0.573909	0.109869	-0.218420
H388	H	0.613362	0.048518	-0.205345
C389	C	0.546387	-0.017329	-0.113936
C390	C	0.584155	-0.078892	-0.066777
C391	C	0.611337	-0.101122	-0.103607
H392	H	0.523055	-0.010139	-0.148912
H393	H	0.562547	0.002157	-0.135925
H394	H	0.567996	-0.098372	-0.044799
H395	H	0.607498	-0.086099	-0.031800
H396	H	0.627498	-0.081636	-0.125596
H397	H	0.588002	-0.093928	-0.138582
H398	H	0.636969	-0.142893	-0.071614
H399	H	0.413521	0.560856	-0.435667
H400	H	0.511878	-0.267236	-0.067079
C401	C	0.186463	0.462455	0.109030
C402	C	0.186634	0.411312	0.146955
C403	C	0.164509	0.411202	0.199257
H404	H	0.205945	0.462428	0.140224
H405	H	0.151849	0.497100	0.087582
H406	H	0.221242	0.376677	0.168402
H407	H	0.167149	0.411329	0.115780
H408	H	0.129895	0.445847	0.177810
H409	H	0.183994	0.411176	0.230446
H410	H	0.164618	0.376506	0.224991
C411	C	0.519321	-0.353636	-0.076968
C412	C	0.557079	-0.415199	-0.029786
C413	C	0.584268	-0.437456	-0.066592
H414	H	0.495992	-0.346451	-0.111941
H415	H	0.535491	-0.334163	-0.098959
H416	H	0.540910	-0.434666	-0.007807
H417	H	0.580420	-0.422401	0.005187
H418	H	0.600438	-0.417983	-0.088583
H419	H	0.560935	-0.430267	-0.101564
H420	H	0.609893	-0.479228	-0.034584
C421	C	-0.260960	0.462397	0.109062
C422	C	-0.209986	0.411245	0.147016
C423	C	-0.187771	0.411111	0.199369
H424	H	-0.260980	0.497023	0.087679
H425	H	-0.280445	0.462366	0.140224
H426	H	-0.190506	0.411281	0.115860
H427	H	-0.209951	0.376611	0.168415
H428	H	-0.207257	0.411080	0.230530
H429	H	-0.187795	0.445739	0.177979
H430	H	-0.153186	0.376403	0.225131
H431	H	0.538966	-0.143971	-0.104022
C432	C	0.406225	-0.353478	0.077154
C433	C	0.382517	-0.324645	0.109539
C434	C	0.355424	-0.346720	0.146603
H435	H	0.380544	-0.346241	0.045333
H436	H	0.429615	-0.395251	0.112161
H437	H	0.359128	-0.282881	0.074537
H438	H	0.408186	-0.331880	0.141371
H439	H	0.378814	-0.388493	0.181610
H440	H	0.329745	-0.339482	0.114777
H441	H	0.339338	-0.327164	0.168587
C442	C	0.406178	-0.261128	0.076958
C443	C	0.368430	-0.199560	0.029794
C444	C	0.341280	-0.177308	0.066625
H445	H	0.389998	-0.280576	0.098967
H446	H	0.429548	-0.268342	0.111921
H447	H	0.345064	-0.192352	-0.005157
H448	H	0.384596	-0.180098	0.007783
H449	H	0.364650	-0.184521	0.101588
H450	H	0.325104	-0.196759	0.088632
H451	H	0.315669	-0.135531	0.034631
H452	H	0.386483	-0.011239	0.104025
H453	H	0.386481	0.069027	0.104024
H454	H	0.683856	0.192294	0.435628
H455	H	0.069243	0.462511	0.147100
H456	H	0.413536	0.192313	0.067033
H457	H	0.538961	-0.063693	-0.104028
C458	C	0.406139	0.278713	0.076951
C459	C	0.368394	0.340282	0.029788
C460	C	0.341260	0.362540	0.066624
H461	H	0.389959	0.259270	0.098974
H462	H	0.429519	0.271499	0.111904
H463	H	0.345018	0.347492	-0.005152
H464	H	0.384560	0.359741	0.007763
H465	H	0.364639	0.355326	0.101576
H466	H	0.325083	0.343093	0.088645
H467	H	0.315650	0.404317	0.034630
H468	H	0.386490	-0.143980	0.104010
C469	C	-0.353300	0.462390	-0.108941
C470	C	-0.353111	0.411236	-0.077103
C471	C	-0.375194	0.411087	-0.129254
H472	H	-0.387911	0.497014	-0.134787
H473	H	-0.333787	0.462355	-0.140065
H474	H	-0.372624	0.411277	-0.045992
H475	H	-0.318506	0.376604	-0.051262
H476	H	-0.355682	0.411051	-0.160377
H477	H	-0.409805	0.445713	-0.155097
H478	H	-0.375065	0.376377	-0.107660
C479	C	-0.353315	0.462615	0.108967
C480	C	-0.368110	0.513750	0.105633
C481	C	-0.390215	0.513850	0.157890
H482	H	-0.382859	0.462645	0.101547
H483	H	-0.328723	0.427965	0.154102
H484	H	-0.392700	0.548390	0.060508
H485	H	-0.338575	0.513730	0.113061
H486	H	-0.365623	0.479201	0.203025
H487	H	-0.419756	0.513879	0.150465
H488	H	-0.400251	0.548542	0.155639
C489	C	0.278849	0.462522	0.108971
C490	C	0.322339	0.462508	0.097789
C491	C	0.344579	0.462465	0.150023
H492	H	0.254323	0.497176	0.106861
H493	H	0.288970	0.427838	0.154101
H494	H	0.312216	0.497188	0.052670
H495	H	0.346876	0.427857	0.099905
H496	H	0.354700	0.427782	0.195153
H497	H	0.320049	0.497120	0.147909
H498	H	0.374092	0.462450	0.142447
H499	H	-0.143797	0.462521	-0.147109
C500	C	-0.149853	0.462634	0.161169
C501	C	-0.200828	0.513781	0.129356
C502	C	-0.223032	0.513910	0.181527
H503	H	-0.149828	0.428005	0.187014
H504	H	-0.130364	0.462666	0.192289
H505	H	-0.220313	0.513743	0.098248
H506	H	-0.200868	0.548418	0.103516
H507	H	-0.203542	0.513942	0.212647
H508	H	-0.223004	0.479278	0.207369
H509	H	-0.257619	0.548615	0.159950
C510	C	0.519312	0.349532	-0.546120
C511	C	0.557064	0.346349	-0.509287
C512	C	0.584233	0.292176	-0.442123
H513	H	0.495969	0.347235	-0.520978
H514	H	0.535484	0.317237	-0.550689
H515	H	0.540893	0.378635	-0.504716
H516	H	0.580417	0.348636	-0.534408
H517	H	0.600405	0.259881	-0.446692
H518	H	0.560887	0.289884	-0.416987
H519	H	0.609854	0.290007	-0.417126
H520	H	0.511911	0.364219	-0.673862
C521	C	0.454506	0.376024	-0.378126
C522	C	0.408020	0.383868	-0.398163
C523	C	0.404019	0.342430	-0.339762
H524	H	0.482796	0.336654	-0.361136
H525	H	0.455025	0.381972	-0.341910
H526	H	0.407505	0.377915	-0.434367
H527	H	0.379722	0.423230	-0.415146
H528	H	0.404539	0.348378	-0.303547
H529	H	0.432311	0.303062	-0.322776
H530	H	0.372477	0.347750	-0.353348
H531	H	-0.063527	0.462527	-0.147114
H532	H	0.511834	0.364220	-0.192069
