data_functionalizedCrystal
_audit_creation_method	'MofGen! by Chris Wilmer'
_symmetry_space_group_name_H-M	'P1'
_symmetry_Int_Tables_number	1
_symmetry_cell_setting	triclinic
loop_
_symmetry_equiv_pos_as_xyz
  x,y,z
_cell_length_a	8.497374
_cell_length_b	8.497374
_cell_length_c	13.033409
_cell_angle_alpha	82.825162
_cell_angle_beta	82.808507
_cell_angle_gamma	90.000262
loop_
_atom_site_label
_atom_site_type_symbol
_atom_site_fract_x
_atom_site_fract_y
_atom_site_fract_z
Zn1	Zn	0.585210	-0.934193	1.597618
Zn2	Zn	0.321448	-1.197941	1.597627
Zn3	Zn	0.354990	-0.900720	1.422915
Zn4	Zn	0.618736	-1.164477	1.422907
O5	O	0.470096	-1.049333	1.510267
O6	O	0.522153	-0.997193	1.743854
O7	O	0.105134	-1.158510	1.574458
O8	O	0.385536	-0.684398	1.446089
O9	O	0.328369	-1.190967	1.743861
O10	O	0.554677	-0.708990	1.574443
O11	O	0.129777	-0.940143	1.446098
O12	O	0.418045	-0.907694	1.276679
O13	O	0.835053	-1.133933	1.446076
O14	O	0.611818	-1.101475	1.276674
O15	O	0.810421	-0.964745	1.574435
O16	O	0.360878	-1.414264	1.574451
O17	O	0.579294	-1.389678	1.446085
C18	C	0.522210	-0.997322	1.238759
C19	C	0.544543	-0.975110	1.122607
C20	C	0.881578	-1.049333	1.510259
C21	C	1.060222	-1.049351	1.510261
C22	C	0.481552	-1.037978	0.950774
C23	C	0.458463	-1.060941	1.070823
C24	C	0.470105	-0.637851	1.510258
C25	C	0.470110	-0.459207	1.510258
C26	C	0.417779	-1.101547	1.782835
C27	C	0.395485	-1.123798	1.898987
H28	H	0.367687	-1.151430	1.115358
C29	C	0.274208	-1.244325	0.958229
C30	C	0.123239	-1.204720	0.931712
C31	C	0.011482	-1.315729	0.986252
H32	H	0.274561	-1.243830	1.031040
H33	H	0.300444	-1.346995	0.940385
H34	H	0.097010	-1.102078	0.949563
H35	H	0.122835	-1.205226	0.858910
H36	H	0.037717	-1.418398	0.968407
H37	H	0.011849	-1.315226	1.059060
H38	H	-0.090961	-1.288881	0.968260
C39	C	0.602717	-0.917568	0.891262
C40	C	0.715628	-0.995154	0.828607
C41	C	0.827259	-0.884279	0.773762
H42	H	0.653896	-0.866642	0.939198
H43	H	0.550665	-0.840663	0.848604
H44	H	0.767675	-1.072031	0.871261
H45	H	0.664497	-1.046073	0.780651
H46	H	0.775207	-0.807373	0.731104
H47	H	0.878426	-0.833359	0.821705
H48	H	0.903874	-0.936902	0.731237
H49	H	0.635332	-0.884634	1.078074
