data_functionalizedCrystal
_audit_creation_method	'MofGen! by Chris Wilmer'
_symmetry_space_group_name_H-M	'P1'
_symmetry_Int_Tables_number	1
_symmetry_cell_setting	triclinic
loop_
_symmetry_equiv_pos_as_xyz
  x,y,z
_cell_length_a	19.805407
_cell_length_b	13.897448
_cell_length_c	19.805399
_cell_angle_alpha	90.025019
_cell_angle_beta	90.019573
_cell_angle_gamma	90.017692
loop_
_atom_site_label
_atom_site_type_symbol
_atom_site_fract_x
_atom_site_fract_y
_atom_site_fract_z
Zn1	Zn	1.034777	-0.384037	0.382732
Zn2	Zn	1.034709	-0.545343	0.269549
Zn3	Zn	0.921591	-0.384064	0.269556
Zn4	Zn	0.921572	-0.545292	0.382695
O5	O	0.978162	-0.464684	0.326133
O6	O	1.129484	-0.405445	0.367730
O7	O	1.019683	-0.523982	0.174833
O8	O	0.936642	-0.249079	0.284588
O9	O	1.129434	-0.523956	0.284575
O10	O	1.019799	-0.249059	0.367737
O11	O	0.936576	-0.405490	0.174839
O12	O	0.826872	-0.405441	0.284552
O13	O	0.936609	-0.523869	0.477417
O14	O	0.826858	-0.523894	0.367675
O15	O	1.019780	-0.405395	0.477443
O16	O	1.019664	-0.680318	0.284539
O17	O	0.936543	-0.680280	0.367668
C18	C	0.802306	-0.464666	0.326111
C19	C	0.727074	-0.464681	0.326118
C20	C	0.978113	-0.715298	0.326113
C21	C	0.978154	-0.822512	0.326128
C22	C	0.691740	-0.526453	0.369330
C23	C	0.621052	-0.526454	0.369339
C24	C	0.585699	-0.464688	0.326133
C25	C	0.621037	-0.402910	0.282919
C26	C	0.691725	-0.402904	0.282913
C27	C	0.335964	-0.402931	0.282941
C28	C	0.265272	-0.402944	0.282949
C29	C	0.265292	-0.526481	0.369367
C30	C	0.335979	-0.526476	0.369362
C31	C	0.371311	-0.464694	0.326151
C32	C	0.447960	-0.464692	0.326142
C33	C	0.509051	-0.464695	0.326138
C34	C	0.978225	-1.018807	0.326170
C35	C	0.978183	-0.909575	0.326149
C36	C	1.154705	-0.464703	0.326155
C37	C	1.229937	-0.464711	0.326165
C38	C	0.978200	-0.464623	0.502676
C39	C	0.978216	-0.464597	0.577908
C40	C	0.978230	-0.213091	0.326167
C41	C	0.978259	-0.105877	0.326182
C42	C	0.978163	-0.464675	0.150277
C43	C	0.978278	-0.464429	0.075045
C44	C	1.021524	-0.402905	0.613267
C45	C	1.021531	-0.402877	0.683955
C46	C	0.978233	-0.464547	0.719283
C47	C	0.934920	-0.526242	0.683919
C48	C	0.934910	-0.526264	0.613232
C49	C	0.934958	-0.526152	0.968993
C50	C	0.934973	-0.526127	1.039685
C51	C	1.021579	-0.402765	1.039716
C52	C	1.021570	-0.402787	0.969029
C53	C	0.978255	-0.464478	0.933671
C54	C	0.978247	-0.464507	0.857022
C55	C	0.978244	-0.464524	0.795931
H56	H	0.720520	-0.576753	0.404511
C57	C	1.069155	-0.335067	0.574410
C58	C	1.122279	-0.376882	0.525821
C59	C	1.169909	-0.309039	0.486966
C60	C	1.164415	-0.199380	0.496700
C61	C	1.111288	-0.157558	0.545292
C62	C	1.063658	-0.225402	0.584146
H63	H	1.126348	-0.458064	0.518613
H64	H	1.209237	-0.339998	0.450995
H65	H	1.199673	-0.149158	0.467938
H66	H	1.107219	-0.076377	0.552500
H67	H	1.024330	-0.194442	0.620117
H68	H	0.899638	-0.576490	0.584444
H69	H	0.364723	-0.352632	0.247751
C70	C	0.730593	-0.334955	0.235378
C71	C	0.779162	-0.376642	0.182184
C72	C	0.818029	-0.308685	0.134650
C73	C	0.808327	-0.199042	0.140310
C74	C	0.759756	-0.157349	0.193507
C75	C	0.720889	-0.225305	0.241041
H76	H	0.786346	-0.457811	0.177991
H77	H	0.853984	-0.339550	0.095270
H78	H	0.837099	-0.148737	0.105122
H79	H	0.752572	-0.076180	0.197699
H80	H	0.684934	-0.194441	0.280421
H81	H	1.056830	-0.352573	0.940268
H82	H	0.236489	-0.352641	0.247765
H83	H	0.899699	-0.576398	0.940213
H84	H	0.592247	-0.352615	0.247743
H85	H	1.056799	-0.352644	0.712742
H86	H	1.056846	-0.352530	1.068513
H87	H	0.899712	-0.576347	1.068447
C88	C	0.887291	-0.594080	0.722778
C89	C	0.887302	-0.594064	0.800531
C90	C	0.839673	-0.661906	0.839388
C91	C	0.792033	-0.729765	0.800491
C92	C	0.792020	-0.729784	0.722734
C93	C	0.839649	-0.661942	0.683877
H94	H	0.922569	-0.543828	0.829328
H95	H	0.839683	-0.661892	0.896949
H96	H	0.756776	-0.779986	0.829255
H97	H	0.756753	-0.780020	0.693936
H98	H	0.839640	-0.661956	0.626316
H99	H	0.364760	-0.576775	0.404542
C100	C	0.582185	-0.594405	0.416873
C101	C	0.621071	-0.662351	0.464395
C102	C	0.582204	-0.730303	0.511933
C103	C	0.504451	-0.730308	0.511948
C104	C	0.465560	-0.662360	0.464423
C105	C	0.504427	-0.594408	0.416886
H106	H	0.678632	-0.662349	0.464386
H107	H	0.610994	-0.780603	0.547113
H108	H	0.475679	-0.780610	0.547138
H109	H	0.407999	-0.662362	0.464433
H110	H	0.475637	-0.544108	0.381705
H111	H	0.236515	-0.576783	0.404554
