data_functionalizedCrystal
_audit_creation_method	'MofGen! by Chris Wilmer'
_symmetry_space_group_name_H-M	'P1'
_symmetry_Int_Tables_number	1
_symmetry_cell_setting	triclinic
loop_
_symmetry_equiv_pos_as_xyz
  x,y,z
_cell_length_a	17.699077
_cell_length_b	17.699083
_cell_length_c	15.186229
_cell_angle_alpha	90.001174
_cell_angle_beta	90.005045
_cell_angle_gamma	83.281795
loop_
_atom_site_label
_atom_site_type_symbol
_atom_site_fract_x
_atom_site_fract_y
_atom_site_fract_z
O1	O	1.004080	0.095685	0.073219
O2	O	0.783701	0.108142	0.073223
O3	O	0.900117	-0.008276	0.073213
O4	O	0.887665	0.212103	0.073229
O5	O	0.900104	-0.008270	-0.073244
O6	O	0.783688	0.108148	-0.073234
O7	O	1.004067	0.095691	-0.073239
Zn8	Zn	0.893875	0.101921	-0.096490
Zn9	Zn	0.893893	0.101912	0.096474
O10	O	0.887651	0.212109	-0.073228
C11	C	0.755498	0.107700	-0.000005
C12	C	0.671479	0.106363	-0.000003
C13	C	0.632004	0.105736	-0.079838
C14	C	0.553062	0.104468	-0.079839
C15	C	0.513595	0.103832	-0.000005
C16	C	0.553076	0.104456	0.079836
C17	C	0.632017	0.105719	0.079837
C18	C	0.234712	0.099363	0.079838
C19	C	0.155765	0.098102	0.079831
C20	C	0.155757	0.098112	-0.079838
C21	C	0.234699	0.099375	-0.079838
C22	C	0.274173	0.099995	0.000002
C23	C	0.359772	0.101369	0.000003
C24	C	0.427997	0.102464	-0.000004
C25	C	0.899664	-0.036470	-0.000016
C26	C	0.898326	-0.120488	-0.000016
C27	C	0.966659	-0.169110	-0.000019
C28	C	0.965397	-0.248054	-0.000011
C29	C	0.895800	-0.278373	-0.000007
C30	C	0.827461	-0.229744	-0.000001
C31	C	0.828724	-0.150803	-0.000003
C32	C	0.822366	-0.548107	0.000006
C33	C	0.821108	-0.627055	0.000005
C34	C	0.959039	-0.645358	-0.000002
C35	C	0.960302	-0.566417	-0.000004
C36	C	0.891963	-0.517795	0.000006
C37	C	0.893333	-0.432196	-0.000001
C38	C	0.894430	-0.363971	-0.000006
C39	C	1.032271	0.096133	-0.000009
C40	C	1.116289	0.097470	-0.000004
C41	C	0.888104	0.240303	0.000002
C42	C	0.889443	0.324321	0.000008
N43	N	0.893868	0.101926	-0.228182
C44	C	0.939700	0.147760	-0.453903
C45	C	0.939708	0.147755	-0.546092
C46	C	0.848073	0.056061	-0.546106
C47	C	0.848069	0.056063	-0.453918
C48	C	0.893881	0.101917	-0.407819
C49	C	0.893893	0.101910	-0.592197
C50	C	0.893902	0.101904	-0.692153
C51	C	0.893874	0.101923	-0.307856
N52	N	0.893906	0.101901	0.228167
H53	H	0.520936	0.103932	0.144839
H54	H	0.810774	0.018730	-0.583652
N55	N	0.748660	-0.495674	0.000013
H56	H	0.760015	-0.441063	0.000018
H57	H	0.718334	-0.505482	0.054310
H58	H	0.977003	0.185097	-0.416371
N59	N	0.674563	0.106423	-0.165951
H60	H	0.713542	0.060048	-0.169515
H61	H	0.701041	0.153878	-0.169457
H62	H	0.810758	0.018728	-0.416396
N63	N	0.510483	0.103790	-0.165945
H64	H	0.547530	0.103852	-0.216520
H65	H	0.471866	0.150439	-0.169686
H66	H	0.977019	0.185084	-0.583610
H67	H	0.266828	0.099897	-0.144848
H68	H	0.664157	0.106230	0.144846
H69	H	0.123633	0.097583	0.144846
N70	N	0.113176	0.097438	-0.165951
H71	H	0.085798	0.050537	-0.168991
H72	H	0.150331	0.097009	-0.216471
N73	N	0.277283	0.100025	0.165947
H74	H	0.240300	0.099432	0.216519
H75	H	0.303817	0.147447	0.169437
H76	H	1.021041	-0.287639	-0.000015
N77	N	1.041726	-0.136414	-0.000032
H78	H	1.071664	-0.154151	0.054259
H79	H	1.032096	-0.079032	-0.000069
N80	N	1.035366	-0.533715	-0.000015
H81	H	1.078465	-0.576497	-0.000015
H82	H	1.038898	-0.501358	0.054277
H83	H	0.764431	-0.651737	0.000006
N84	N	1.032750	-0.697800	-0.000013
H85	H	1.021393	-0.752411	-0.000009
H86	H	1.063097	-0.687997	0.054276
N87	N	0.752395	-0.262441	0.000009
H88	H	0.761962	-0.319829	0.000006
H89	H	0.722494	-0.244644	-0.054283
H90	H	0.773080	-0.111214	-0.000001
