data_functionalizedCrystal
_audit_creation_method	'MofGen! by Chris Wilmer'
_symmetry_space_group_name_H-M	'P1'
_symmetry_Int_Tables_number	1
_symmetry_cell_setting	triclinic
loop_
_symmetry_equiv_pos_as_xyz
  x,y,z
_cell_length_a	17.699083
_cell_length_b	9.065218
_cell_length_c	7.540329
_cell_angle_alpha	90.003038
_cell_angle_beta	89.995522
_cell_angle_gamma	95.850550
loop_
_atom_site_label
_atom_site_type_symbol
_atom_site_fract_x
_atom_site_fract_y
_atom_site_fract_z
O1	O	0.110973	-1.957110	-0.147491
O2	O	0.610973	-1.457110	0.352509
O3	O	0.120075	-1.527555	-0.147494
O4	O	0.620075	-1.027555	0.352506
O5	O	0.005430	-1.754468	-0.147477
O6	O	0.505430	-1.254468	0.352523
O7	O	0.225619	-1.730196	-0.147508
O8	O	0.725619	-1.230196	0.352492
O9	O	0.005428	-1.754455	0.147488
O10	O	0.505428	-1.254455	0.647488
O11	O	0.120074	-1.527542	0.147471
O12	O	0.620074	-1.027542	0.647471
O13	O	0.110971	-1.957096	0.147474
O14	O	0.610971	-1.457096	0.647474
Cu15	Cu	0.115522	-1.742318	0.174405
Cu16	Cu	0.615522	-1.242318	0.674405
Cu17	Cu	0.115524	-1.742334	-0.174425
Cu18	Cu	0.615524	-1.242334	0.325575
O19	O	0.225617	-1.730183	0.147457
O20	O	0.725617	-1.230183	0.647457
C21	C	0.119200	-1.472588	-0.000012
C22	C	0.619200	-0.972588	0.499988
C23	C	0.116584	-1.308822	-0.000012
C24	C	0.616584	-0.808822	0.499988
C25	C	-0.022775	-1.753592	0.000006
C26	C	0.477225	-1.253592	0.500006
C27	C	-0.106813	-1.750983	0.000007
C28	C	0.393187	-1.250983	0.500007
C29	C	0.111847	-2.012064	-0.000012
C30	C	0.611847	-1.512064	0.499988
C31	C	0.114463	-2.175829	-0.000023
C32	C	0.614463	-1.675829	0.499977
C33	C	-0.154396	-1.884176	0.000010
C34	C	0.345604	-1.384176	0.500010
C35	C	-0.233358	-1.881716	-0.000006
C36	C	0.266642	-1.381716	0.499994
C37	C	-0.264737	-1.746060	-0.000012
C38	C	0.235263	-1.246060	0.499988
C39	C	-0.217149	-1.612857	-0.000021
C40	C	0.282851	-1.112857	0.499979
C41	C	-0.138188	-1.615319	-0.000018
C42	C	0.361812	-1.115319	0.499982
C43	C	-0.535589	-1.602925	-0.000035
C44	C	-0.035589	-1.102925	0.499965
C45	C	-0.614556	-1.600474	-0.000033
C46	C	-0.114556	-1.100474	0.499967
C47	C	-0.630760	-1.869322	-0.000023
C48	C	-0.130760	-1.369322	0.499977
C49	C	-0.551799	-1.871784	-0.000020
C50	C	-0.051799	-1.371784	0.499980
C51	C	-0.504217	-1.738581	-0.000038
C52	C	-0.004217	-1.238581	0.499962
C53	C	-0.418597	-1.741251	-0.000025
C54	C	0.081403	-1.241251	0.499975
C55	C	-0.350355	-1.743390	-0.000013
C56	C	0.149645	-1.243390	0.499987
C57	C	0.253822	-1.731059	-0.000030
C58	C	0.753822	-1.231059	0.499970
C59	C	0.337860	-1.733669	-0.000042
C60	C	0.837860	-1.233669	0.499958
N61	N	0.115521	-1.742317	0.419754
N62	N	0.615521	-1.242317	0.919754
N63	N	0.115520	-1.742346	-0.419774
N64	N	0.615520	-1.242346	0.080226
H65	H	-0.128854	-1.994642	0.000026
H66	H	0.371146	-1.494642	0.500026
C67	C	-0.649070	-1.451235	-0.000055
C68	C	-0.149070	-0.951235	0.499945
N69	N	-0.675066	-1.338835	-0.000072
N70	N	-0.175066	-0.838835	0.499928
C71	C	-0.517287	-2.021015	-0.000013
C72	C	-0.017287	-1.521015	0.499987
N73	N	-0.491294	-2.133419	-0.000016
N74	N	0.008706	-1.633419	0.499984
H75	H	-0.669510	-1.977782	-0.000018
H76	H	-0.169510	-1.477782	0.499982
C77	C	-0.251668	-1.463634	-0.000013
C78	C	0.248332	-0.963634	0.499987
N79	N	-0.277667	-1.351237	0.000006
N80	N	0.222333	-0.851237	0.500006
H81	H	-0.099446	-1.506859	-0.000021
H82	H	0.400554	-1.006859	0.499979
C83	C	-0.285696	-2.028239	0.000027
C84	C	0.214304	-1.528239	0.500027
N85	N	-0.325116	-2.138608	0.000060
N86	N	0.174884	-1.638608	0.500060
C87	C	-0.483259	-1.456398	-0.000065
C88	C	0.016741	-0.956398	0.499935
N89	N	-0.443842	-1.346026	-0.000092
N90	N	0.056158	-0.846026	0.499908
