data_functionalizedCrystal
_audit_creation_method	'MofGen! by Chris Wilmer'
_symmetry_space_group_name_H-M	'P1'
_symmetry_Int_Tables_number	1
_symmetry_cell_setting	triclinic
loop_
_symmetry_equiv_pos_as_xyz
  x,y,z
_cell_length_a	16.109318
_cell_length_b	10.654545
_cell_length_c	15.186229
_cell_angle_alpha	89.998599
_cell_angle_beta	90.000224
_cell_angle_gamma	83.976995
loop_
_atom_site_label
_atom_site_type_symbol
_atom_site_fract_x
_atom_site_fract_y
_atom_site_fract_z
O1	O	1.104082	0.161523	-0.073151
O2	O	0.862142	0.181588	-0.073168
O3	O	0.988674	-0.011259	-0.073158
O4	O	0.977550	0.354370	-0.073160
O5	O	0.988666	-0.011261	0.073299
O6	O	0.862133	0.181586	0.073289
O7	O	1.104074	0.161520	0.073307
Zn8	Zn	0.983102	0.171552	0.096551
Zn9	Zn	0.983113	0.171556	-0.096413
O10	O	0.977541	0.354367	0.073297
C11	C	0.831158	0.180770	0.000058
C12	C	0.738849	0.178322	0.000052
C13	C	0.439733	0.170416	-0.079767
C14	C	0.526468	0.172708	-0.079772
C15	C	0.526477	0.172688	0.079904
C16	C	0.439745	0.170387	0.079908
C17	C	0.396374	0.169258	0.000070
C18	C	0.569842	0.173851	0.000061
C19	C	0.663883	0.176336	0.000055
C20	C	0.302326	0.166770	0.000075
C21	C	0.987853	-0.058047	0.000069
C22	C	0.985409	-0.197457	0.000063
C23	C	0.985428	-0.197463	-0.159609
C24	C	0.984292	-0.262960	-0.239445
C25	C	0.981996	-0.393948	-0.239446
C26	C	0.980832	-0.459441	-0.159603
C27	C	0.981968	-0.393944	-0.079767
C28	C	0.984267	-0.262954	-0.079774
C29	C	0.981943	-0.393937	0.079903
C30	C	0.984245	-0.262950	0.079907
C31	C	0.980779	-0.459430	0.159747
C32	C	0.981921	-0.393934	0.239584
C33	C	0.984218	-0.262938	0.239582
C34	C	0.985381	-0.197453	0.159742
C35	C	1.135058	0.162338	0.000078
C36	C	1.227367	0.164786	0.000079
C37	C	0.978363	0.401155	0.000068
C38	C	0.980807	0.540566	0.000068
N39	N	0.983101	0.171549	0.228244
N40	N	0.983122	0.171549	-0.228105
C41	C	1.039149	0.086185	0.453971
C42	C	1.039151	0.086182	0.546161
C43	C	0.927068	0.256917	0.546161
C44	C	0.927062	0.256913	0.453973
C45	C	0.983107	0.171549	0.407881
C46	C	0.983115	0.171550	0.592258
C47	C	0.983118	0.171547	0.692214
C48	C	0.983104	0.171549	0.307918
H49	H	0.987307	-0.090808	-0.159616
C50	C	0.517739	0.172517	-0.237601
C51	C	0.574127	0.173991	-0.167532
H52	H	0.547163	0.173316	-0.291782
H53	H	0.489829	0.098436	-0.234284
H54	H	0.477992	0.244814	-0.234265
H55	H	0.613870	0.101689	-0.170865
H56	H	0.602051	0.248080	-0.170850
H57	H	0.985238	-0.209621	-0.304451
C58	C	0.877316	0.332744	0.687480
C59	C	0.865473	0.350759	0.596830
H60	H	0.839293	0.390688	0.718757
H61	H	0.867801	0.248938	0.702590
H62	H	0.932884	0.346411	0.702572
H63	H	0.809907	0.337082	0.581737
H64	H	0.874981	0.434585	0.581714
C65	C	0.333474	0.275664	0.172550
C66	C	0.392073	0.169106	0.167669
H67	H	0.304041	0.274860	0.226725
H68	H	0.361391	0.349740	0.169246
H69	H	0.295241	0.274643	0.124996
H70	H	0.430311	0.170132	0.215220
H71	H	0.364156	0.095011	0.170982
C72	C	0.982125	-0.380778	0.397417
C73	C	0.980639	-0.465922	0.327341
H74	H	0.981329	-0.425225	0.451594
H75	H	1.031419	-0.339290	0.394106
H76	H	0.934625	-0.320085	0.394083
H77	H	1.028142	-0.526609	0.330671
H78	H	0.931339	-0.507429	0.330653
C79	C	0.659436	0.176223	0.150797
C80	C	0.574152	0.173948	0.167658
H81	H	0.688864	0.177012	0.204976
H82	H	0.679563	0.103418	0.117999
H83	H	0.667719	0.249795	0.117992
H84	H	0.565868	0.100370	0.200458
H85	H	0.554018	0.246761	0.200470
H86	H	0.981063	-0.447274	-0.304455
H87	H	1.084784	0.016670	0.583685
H88	H	0.404423	0.169495	-0.144776
H89	H	0.881422	0.326427	0.416444
C90	C	1.048869	-0.661224	-0.116118
C91	C	0.978300	-0.603424	-0.159599
H92	H	1.047300	-0.750112	-0.116110
H93	H	1.097781	-0.641194	-0.145602
H94	H	1.049375	-0.631578	-0.057147
H95	H	0.977797	-0.633063	-0.218572
H96	H	0.929375	-0.623464	-0.130116
C97	C	0.906164	-0.632945	0.116259
C98	C	0.978260	-0.603415	0.159744
H99	H	0.904616	-0.721837	0.116255
H100	H	0.858288	-0.593735	0.145738
H101	H	0.906701	-0.603306	0.057287
H102	H	0.977719	-0.633046	0.218718
H103	H	1.026148	-0.642640	0.130266
C104	C	0.915438	-0.101490	0.332198
C105	C	0.985462	-0.190943	0.327341
H106	H	0.916204	-0.057052	0.386379
H107	H	0.916469	-0.043746	0.284656
H108	H	0.866151	-0.143012	0.328866
H109	H	1.034749	-0.149419	0.330665
H110	H	0.984439	-0.248695	0.374895
H111	H	0.987255	-0.090797	0.159733
H112	H	1.084783	0.016674	0.416445
