data_functionalizedCrystal
_audit_creation_method	'MofGen! by Chris Wilmer'
_symmetry_space_group_name_H-M	'P1'
_symmetry_Int_Tables_number	1
_symmetry_cell_setting	triclinic
loop_
_symmetry_equiv_pos_as_xyz
  x,y,z
_cell_length_a	17.038278
_cell_length_b	16.109301
_cell_length_c	14.586319
_cell_angle_alpha	90.005214
_cell_angle_beta	90.003614
_cell_angle_gamma	87.285991
loop_
_atom_site_label
_atom_site_type_symbol
_atom_site_fract_x
_atom_site_fract_y
_atom_site_fract_z
O1	O	-1.037364	-0.180528	-0.076252
O2	O	-0.537364	0.319472	0.423748
O3	O	-0.809734	-0.177664	-0.076253
O4	O	-0.309734	0.322336	0.423747
O5	O	-0.929802	-0.058509	-0.076243
O6	O	-0.429802	0.441491	0.423757
O7	O	-0.917296	-0.299683	-0.076262
O8	O	-0.417296	0.200317	0.423738
O9	O	-0.929794	-0.058507	0.076238
O10	O	-0.429794	0.441493	0.576238
O11	O	-0.809725	-0.177661	0.076228
O12	O	-0.309725	0.322339	0.576228
O13	O	-1.037356	-0.180526	0.076228
O14	O	-0.537356	0.319474	0.576228
Cu15	Cu	-0.923540	-0.179093	0.090151
Cu16	Cu	-0.423540	0.320907	0.590151
Cu17	Cu	-0.923550	-0.179096	-0.090175
Cu18	Cu	-0.423550	0.320904	0.409825
O19	O	-0.917287	-0.299681	0.076219
O20	O	-0.417287	0.200319	0.576219
C21	C	-0.929291	-0.027497	-0.000002
C22	C	-0.429291	0.472503	0.499998
C23	C	-0.927773	0.064906	-0.000001
C24	C	-0.427773	0.564906	0.499999
C25	C	-0.780601	-0.175056	-0.000012
C26	C	-0.280601	0.324944	0.499988
C27	C	-0.693808	-0.167277	-0.000012
C28	C	-0.193808	0.332723	0.499988
C29	C	-1.066488	-0.183134	-0.000014
C30	C	-0.566488	0.316866	0.499986
C31	C	-1.153281	-0.190912	-0.000020
C32	C	-0.653281	0.309088	0.499980
C33	C	-0.203397	-0.119492	-0.000012
C34	C	0.296603	0.380508	0.499988
C35	C	-0.284947	-0.126807	-0.000007
C36	C	0.215053	0.373193	0.499993
C37	C	-0.316380	-0.205543	-0.000017
C38	C	0.183620	0.294457	0.499983
C39	C	-0.266258	-0.276969	-0.000023
C40	C	0.233742	0.223031	0.499977
C41	C	-0.184709	-0.269653	-0.000021
C42	C	0.315291	0.230347	0.499979
C43	C	-0.562137	-0.231387	-0.000016
C44	C	-0.062137	0.268613	0.499984
C45	C	-0.643693	-0.238698	-0.000021
C46	C	-0.143693	0.261302	0.499979
C47	C	-0.662376	-0.088535	-0.000003
C48	C	-0.162376	0.411465	0.499997
C49	C	-0.580825	-0.081226	-0.000007
C50	C	-0.080825	0.418774	0.499993
C51	C	-0.530710	-0.152652	-0.000008
C52	C	-0.030710	0.347348	0.499992
C53	C	-0.399738	-0.213022	-0.000015
C54	C	0.100262	0.286978	0.499985
C55	C	-0.447354	-0.145173	-0.000003
C56	C	0.052646	0.354827	0.499997
C57	C	-0.917798	-0.330693	-0.000024
C58	C	-0.417798	0.169307	0.499976
C59	C	-0.919317	-0.423096	-0.000031
C60	C	-0.419317	0.076904	0.499969
N61	N	-0.923539	-0.179091	0.216983
N62	N	-0.423539	0.320909	0.716983
C63	C	-0.995487	0.282370	-0.000015
C64	C	-0.495487	0.782370	0.499985
C65	C	-0.994054	0.369192	-0.000023
C66	C	-0.494054	0.869192	0.499977
C67	C	-0.851597	0.359434	-0.000020
C68	C	-0.351597	0.859434	0.499980
C69	C	-0.853031	0.272613	-0.000019
C70	C	-0.353031	0.772613	0.499981
C71	C	-0.924978	0.234084	-0.000012
C72	C	-0.424978	0.734084	0.499988
C73	C	-0.922111	0.407726	-0.000020
C74	C	-0.422111	0.907726	0.499980
C75	C	-0.920557	0.501863	-0.000029
C76	C	-0.420557	1.001863	0.499971
C77	C	-0.926533	0.139941	-0.000005
C78	C	-0.426533	0.639941	0.499995
N79	N	-0.923557	-0.179092	-0.217007
N80	N	-0.423557	0.320908	0.282993
C81	C	-0.976723	-0.126350	0.451993
C82	C	-0.476723	0.373650	0.951993
C83	C	-0.976725	-0.126348	0.547975
C84	C	-0.476725	0.373652	1.047975
C85	C	-0.870368	-0.231836	0.547976
C86	C	-0.370368	0.268164	1.047976
C87	C	-0.870362	-0.231833	0.451996
C88	C	-0.370362	0.268167	0.951996
C89	C	-0.923544	-0.179091	0.404007
C90	C	-0.423544	0.320909	0.904007
C91	C	-0.923552	-0.179092	0.595968
C92	C	-0.423552	0.320908	1.095968
C93	C	-0.923554	-0.179091	0.700035
C94	C	-0.423554	0.320909	1.200035
C95	C	-0.923541	-0.179091	0.299934
C96	C	-0.423541	0.320909	0.799934
H97	H	-0.325749	-0.068649	0.000004
H98	H	0.174251	0.431351	0.500004
H99	H	-0.827069	-0.274779	0.587058
H100	H	-0.327069	0.225221	1.087058
N101	N	-0.812996	-0.288714	0.400232
N102	N	-0.312996	0.211286	0.900232
H103	H	-0.779309	-0.322129	0.445195
H104	H	-0.279309	0.177871	0.945195
H105	H	-0.842911	-0.327602	0.360395
H106	H	-0.342911	0.172398	0.860395
H107	H	-0.177811	-0.055377	-0.000009
H108	H	0.322189	0.444623	0.499991
H109	H	-0.795610	0.233297	-0.000018
H110	H	-0.295610	0.733297	0.499982
H111	H	-1.051470	0.408504	-0.000028
H112	H	-0.551470	0.908504	0.499972
N113	N	-0.433647	-0.297940	-0.000037
N114	N	0.066353	0.202060	0.499963
H115	H	-0.415377	-0.329487	-0.056569
H116	H	0.084623	0.170513	0.443431
H117	H	-0.415361	-0.329432	0.056518
H118	H	0.084639	0.170568	0.556518
N119	N	-1.034092	-0.069471	0.599727
N120	N	-0.534092	0.430529	1.099727
H121	H	-1.004238	-0.030522	0.639558
H122	H	-0.504238	0.469478	1.139558
H123	H	-1.067764	-0.036122	0.554697
H124	H	-0.567764	0.463878	1.054697
H125	H	-0.703188	-0.030385	-0.000001
H126	H	-0.203188	0.469615	0.499999
N127	N	-0.546924	0.003696	0.000007
N128	N	-0.046924	0.503696	0.500007
H129	H	-0.591048	0.047832	0.000016
H130	H	-0.091048	0.547832	0.500016
H131	H	-0.513493	0.009996	0.056536
H132	H	-0.013493	0.509996	0.556536
N133	N	-1.034060	-0.069452	0.400222
N134	N	-0.534060	0.430548	0.900222
H135	H	-1.068668	-0.103682	0.360385
H136	H	-0.568668	0.396318	0.860385
H137	H	-1.067695	-0.036043	0.445239
H138	H	-0.567695	0.463957	0.945239
N139	N	-0.773999	0.400991	-0.000023
N140	N	-0.273999	0.900991	0.499977
H141	H	-0.783789	0.463318	-0.000021
H142	H	-0.283789	0.963318	0.499979
H143	H	-0.743146	0.383687	0.056505
H144	H	-0.243146	0.883687	0.556505
N145	N	-0.677598	-0.323624	-0.000031
N146	N	-0.177598	0.176376	0.499969
H147	H	-0.633476	-0.367762	-0.000029
H148	H	-0.133476	0.132238	0.499971
H149	H	-0.711026	-0.329924	0.056493
H150	H	-0.211026	0.170076	0.556493
H151	H	-0.521343	-0.289548	-0.000022
H152	H	-0.021343	0.210452	0.499978
H153	H	-1.054072	0.251002	-0.000012
H154	H	-0.554072	0.751002	0.499988
N155	N	-0.300156	-0.361892	-0.000028
N156	N	0.199844	0.138108	0.499972
H157	H	-0.359421	-0.355691	-0.000031
H158	H	0.140579	0.144309	0.499969
H159	H	-0.281822	-0.393397	-0.056559
H160	H	0.218178	0.106603	0.443441
H161	H	-0.143905	-0.327811	-0.000025
H162	H	0.356095	0.172189	0.499975
N163	N	-0.413449	-0.060256	0.000016
N164	N	0.086551	0.439744	0.500016
H165	H	-0.380031	-0.053878	-0.056507
H166	H	0.119969	0.446122	0.443493
H167	H	-0.457609	-0.016164	0.000054
H168	H	0.042391	0.483836	0.500054
