data_functionalizedCrystal
_audit_creation_method	'MofGen! by Chris Wilmer'
_symmetry_space_group_name_H-M	'P1'
_symmetry_Int_Tables_number	1
_symmetry_cell_setting	triclinic
loop_
_symmetry_equiv_pos_as_xyz
  x,y,z
_cell_length_a	16.974829
_cell_length_b	16.992695
_cell_length_c	15.455313
_cell_angle_alpha	87.152573
_cell_angle_beta	96.328434
_cell_angle_gamma	87.025716
loop_
_atom_site_label
_atom_site_type_symbol
_atom_site_fract_x
_atom_site_fract_y
_atom_site_fract_z
O1	O	1.062069	0.092978	0.146683
O2	O	1.562069	0.592978	0.646683
O3	O	0.831939	0.106468	0.130531
O4	O	1.331939	0.606468	0.630531
O5	O	0.946081	-0.014415	0.138535
O6	O	1.446081	0.485585	0.638535
O7	O	0.947927	0.213861	0.138679
O8	O	1.447927	0.713861	0.638679
O9	O	0.939552	-0.007531	-0.006185
O10	O	1.439552	0.492469	0.493815
O11	O	0.825410	0.113353	-0.014189
O12	O	1.325410	0.613353	0.485811
O13	O	1.055540	0.099862	0.001963
O14	O	1.555540	0.599862	0.501963
Cu15	Cu	0.939879	0.107236	-0.019327
Cu16	Cu	1.439879	0.607236	0.480673
Cu17	Cu	0.947600	0.099094	0.151821
Cu18	Cu	1.447600	0.599094	0.651821
O19	O	0.941398	0.220746	-0.006041
O20	O	1.441398	0.720746	0.493959
C21	C	0.799092	0.109524	0.056095
C22	C	1.299092	0.609524	0.556095
C23	C	0.710945	0.108364	0.049908
C24	C	1.210945	0.608364	0.549908
C25	C	0.214385	0.102263	0.006614
C26	C	0.714385	0.602263	0.506614
C27	C	0.297209	0.103353	0.012429
C28	C	0.797209	0.603353	0.512429
C29	C	0.342180	0.100139	0.094225
C30	C	0.842180	0.600139	0.594225
C31	C	0.304323	0.095844	0.170210
C32	C	0.804323	0.595844	0.670210
C33	C	0.221501	0.094760	0.164394
C34	C	0.721501	0.594760	0.664394
C35	C	0.590265	0.102984	0.120078
C36	C	1.090265	0.602984	0.620078
C37	C	0.673093	0.104066	0.125888
C38	C	1.173093	0.604066	0.625888
C39	C	0.665973	0.111577	-0.031894
C40	C	1.165973	0.611577	0.468106
C41	C	0.583150	0.110488	-0.037703
C42	C	1.083150	0.610488	0.462297
C43	C	0.545300	0.106197	0.038283
C44	C	1.045300	0.606197	0.538283
N45	N	0.426840	0.101251	0.100170
N46	N	0.926840	0.601251	0.600170
N47	N	0.460641	0.105091	0.032336
N48	N	0.960641	0.605091	0.532336
C49	C	0.940443	-0.040175	0.066009
C50	C	1.440443	0.459825	0.566009
C51	C	0.933361	-0.127188	0.065512
C52	C	1.433361	0.372812	0.565512
C53	C	1.001692	-0.177729	0.070307
C54	C	1.501692	0.322271	0.570307
C55	C	0.995034	-0.259487	0.069848
C56	C	1.495034	0.240513	0.569848
C57	C	0.920043	-0.290702	0.064587
C58	C	1.420043	0.209298	0.564587
C59	C	0.851706	-0.240155	0.059795
C60	C	1.351706	0.259845	0.559795
C61	C	0.858366	-0.158400	0.060260
C62	C	1.358366	0.341600	0.560260
C63	C	0.892441	-0.534179	0.062662
C64	C	1.392441	-0.034179	0.562662
C65	C	0.885786	-0.615942	0.062195
C66	C	1.385786	-0.115942	0.562195
C67	C	1.029115	-0.635267	0.072249
C68	C	1.529115	-0.135267	0.572249
C69	C	1.035768	-0.553508	0.072709
C70	C	1.535768	-0.053508	0.572709
C71	C	0.967431	-0.502969	0.067921
C72	C	1.467431	-0.002969	0.567921
N73	N	0.913234	-0.374271	0.064115
N74	N	1.413234	0.125729	0.564115
N75	N	0.974240	-0.419402	0.068399
N76	N	1.474240	0.080598	0.568399
C77	C	1.088387	0.096806	0.076401
C78	C	1.588387	0.596806	0.576401
C79	C	1.176534	0.097966	0.082594
C80	C	1.676534	0.597966	0.582594
C81	C	0.947036	0.246505	0.066487
C82	C	1.447036	0.746505	0.566487
C83	C	0.954118	0.333518	0.066990
C84	C	1.454118	0.833518	0.566990
N85	N	0.934454	0.112962	-0.139703
N86	N	1.434454	0.612962	0.360297
C87	C	0.982964	0.061625	-0.181695
C88	C	1.482964	0.561625	0.318305
C89	C	0.978869	0.065962	-0.272790
C90	C	1.478869	0.565962	0.227210
C91	C	0.926267	0.121641	-0.321891
C92	C	1.426267	0.621641	0.178109
C93	C	0.877751	0.172980	-0.279893
C94	C	1.377751	0.672980	0.220107
C95	C	0.881843	0.168638	-0.188800
C96	C	1.381843	0.668638	0.311200
C97	C	0.908606	0.140360	-0.594711
C98	C	1.408606	0.640360	-0.094711
C99	C	0.904520	0.144699	-0.685810
C100	C	1.404520	0.644699	-0.185810
C101	C	1.005638	0.037680	-0.678701
C102	C	1.505638	0.537680	-0.178701
C103	C	1.009728	0.033346	-0.587607
C104	C	1.509728	0.533346	-0.087607
C105	C	0.961209	0.084683	-0.545617
C106	C	1.461209	0.584683	-0.045617
N107	N	0.922082	0.126077	-0.415005
N108	N	1.422082	0.626077	0.084995
N109	N	0.965390	0.080242	-0.452505
N110	N	1.465390	0.580242	0.047495
N111	N	0.953031	0.093362	0.272197
N112	N	1.453031	0.593362	0.772197
H113	H	0.328024	0.106851	-0.049442
H114	H	0.828024	0.606851	0.450558
O115	O	0.180667	0.090124	0.246341
O116	O	0.680667	0.590124	0.746341
H117	H	0.146776	0.036029	0.247710
H118	H	0.646776	0.536029	0.747710
H119	H	1.062758	-0.152320	0.074585
H120	H	1.562758	0.347680	0.574585
H121	H	1.050677	-0.300634	0.073751
H122	H	1.550677	0.199366	0.573751
O123	O	1.057967	-0.017688	-0.723990
O124	O	1.557967	0.482312	-0.223990
H125	H	1.044781	-0.079591	-0.707495
H126	H	1.544781	0.420409	-0.207495
O127	O	0.352829	0.092380	0.258433
O128	O	0.852829	0.592380	0.758433
H129	H	0.312591	0.089218	0.310289
H130	H	0.812591	0.589218	0.810289
O131	O	1.116652	-0.519840	0.078404
O132	O	1.616652	-0.019840	0.578404
H133	H	1.163051	-0.568721	0.081674
H134	H	1.663051	-0.068721	0.581674
H135	H	0.802723	-0.117250	0.056356
H136	H	1.302723	0.382750	0.556356
H137	H	0.790647	-0.265578	0.055517
H138	H	1.290647	0.234422	0.555517
O139	O	0.804895	-0.649603	0.056521
O140	O	1.304895	-0.149603	0.556521
H141	H	0.795767	-0.683576	-0.002925
H142	H	1.295767	-0.183576	0.497075
H143	H	0.836796	-0.493039	0.058763
H144	H	1.336796	0.006961	0.558763
H145	H	1.052560	-0.011991	-0.547630
H146	H	1.552560	0.488009	-0.047630
H147	H	1.018370	0.024159	-0.306980
H148	H	1.518370	0.524159	0.193020
H149	H	1.025802	0.016289	-0.141723
H150	H	1.525802	0.516289	0.358277
H151	H	0.709707	0.101456	0.192499
H152	H	1.209707	0.601456	0.692499
O153	O	0.829512	0.223995	-0.143497
O154	O	1.329512	0.723995	0.356503
H155	H	0.867168	0.259985	-0.099453
H156	H	1.367168	0.759985	0.400547
O157	O	0.534740	0.113804	-0.125974
O158	O	1.034740	0.613804	0.374026
H159	H	0.500606	0.060001	-0.132071
H160	H	1.000606	0.560001	0.367929
H161	H	1.084750	-0.676424	0.076149
H162	H	1.584750	-0.176424	0.576149
O163	O	0.549448	0.098307	0.202029
O164	O	1.049448	0.598307	0.702029
H165	H	0.594638	0.096230	0.259881
H166	H	1.094638	0.596230	0.759881
O167	O	0.847773	0.204746	-0.738776
O168	O	1.347773	0.704746	-0.238776
H169	H	0.814713	0.239707	-0.694275
H170	H	1.314713	0.739707	-0.194275
O171	O	0.856285	0.195734	-0.549425
O172	O	1.356285	0.695734	-0.049425
H173	H	0.819030	0.235185	-0.598874
H174	H	1.319030	0.735185	-0.098874
O175	O	0.821020	0.233041	-0.332845
O176	O	1.321020	0.733041	0.167155
H177	H	0.778519	0.202176	-0.377226
H178	H	1.278519	0.702176	0.122774
O179	O	0.165881	0.105734	-0.081609
O180	O	0.665881	0.605734	0.418391
H181	H	0.206118	0.108915	-0.133465
H182	H	0.706118	0.608915	0.366535
H183	H	0.696799	0.115073	-0.093757
H184	H	1.196799	0.615073	0.406243
