data_functionalizedCrystal
_audit_creation_method	'MofGen! by Chris Wilmer'
_symmetry_space_group_name_H-M	'P1'
_symmetry_Int_Tables_number	1
_symmetry_cell_setting	triclinic
loop_
_symmetry_equiv_pos_as_xyz
  x,y,z
_cell_length_a	21.395362
_cell_length_b	19.805404
_cell_length_c	21.395356
_cell_angle_alpha	89.970424
_cell_angle_beta	89.957023
_cell_angle_gamma	90.045228
loop_
_atom_site_label
_atom_site_type_symbol
_atom_site_fract_x
_atom_site_fract_y
_atom_site_fract_z
Zn1	Zn	0.957859	-0.269193	-0.354577
Zn2	Zn	1.207859	-0.019193	-0.104577
Zn3	Zn	1.457859	0.230807	0.145423
Zn4	Zn	1.707859	0.480807	0.395423
Zn5	Zn	0.957766	-0.382381	-0.249796
Zn6	Zn	1.207766	-0.132381	0.000204
Zn7	Zn	1.457766	0.117619	0.250204
Zn8	Zn	1.707766	0.367619	0.500204
Zn9	Zn	0.853076	-0.269243	-0.249779
Zn10	Zn	1.103076	-0.019243	0.000221
Zn11	Zn	1.353076	0.230757	0.250221
Zn12	Zn	1.603076	0.480757	0.500221
Zn13	Zn	0.853046	-0.382377	-0.354501
Zn14	Zn	1.103046	-0.132377	-0.104501
Zn15	Zn	1.353046	0.117623	0.145499
Zn16	Zn	1.603046	0.367623	0.395499
O17	O	0.905437	-0.325799	-0.302163
O18	O	1.155437	-0.075799	-0.052163
O19	O	1.405437	0.174201	0.197837
O20	O	1.655437	0.424201	0.447837
O21	O	1.045525	-0.284189	-0.340717
O22	O	1.295525	-0.034189	-0.090717
O23	O	1.545525	0.215811	0.159283
O24	O	1.795525	0.465811	0.409283
O25	O	0.943852	-0.367396	-0.162116
O26	O	1.193852	-0.117396	0.087884
O27	O	1.443852	0.132604	0.337884
O28	O	1.693852	0.382604	0.587884
O29	O	0.867028	-0.174520	-0.263705
O30	O	1.117028	0.075480	-0.013705
O31	O	1.367028	0.325480	0.236295
O32	O	1.617028	0.575480	0.486295
O33	O	1.045456	-0.367348	-0.263735
O34	O	1.295456	-0.117348	-0.013735
O35	O	1.545456	0.132652	0.236265
O36	O	1.795456	0.382652	0.486265
O37	O	0.944011	-0.174483	-0.340700
O38	O	1.194011	0.075517	-0.090700
O39	O	1.444011	0.325517	0.159300
O40	O	1.694011	0.575517	0.409300
O41	O	0.866937	-0.284274	-0.162103
O42	O	1.116937	-0.034274	0.087897
O43	O	1.366937	0.215726	0.337897
O44	O	1.616937	0.465726	0.587897
O45	O	0.765394	-0.284270	-0.263631
O46	O	1.015394	-0.034270	-0.013631
O47	O	1.265394	0.215730	0.236369
O48	O	1.515394	0.465730	0.486369
O49	O	0.866976	-0.367341	-0.442189
O50	O	1.116976	-0.117341	-0.192189
O51	O	1.366976	0.132659	0.057811
O52	O	1.616976	0.382659	0.307811
O53	O	0.765372	-0.367389	-0.340570
O54	O	1.015372	-0.117389	-0.090570
O55	O	1.265372	0.132611	0.159430
O56	O	1.515372	0.382611	0.409430
O57	O	0.943982	-0.284185	-0.442245
O58	O	1.193982	-0.034185	-0.192245
O59	O	1.443982	0.215815	0.057755
O60	O	1.693982	0.465815	0.307755
O61	O	0.943823	-0.477097	-0.263661
O62	O	1.193823	-0.227097	-0.013661
O63	O	1.443823	0.022903	0.236339
O64	O	1.693823	0.272903	0.486339
O65	O	0.866886	-0.477094	-0.340587
O66	O	1.116886	-0.227094	-0.090587
O67	O	1.366886	0.022906	0.159413
O68	O	1.616886	0.272906	0.409413
C69	C	0.742649	-0.325835	-0.302091
C70	C	0.992649	-0.075835	-0.052091
C71	C	1.242649	0.174165	0.197909
C72	C	1.492649	0.424165	0.447909
C73	C	0.673008	-0.325866	-0.302074
C74	C	0.923008	-0.075866	-0.052074
C75	C	1.173008	0.174134	0.197926
C76	C	1.423008	0.424134	0.447926
C77	C	0.640300	-0.369204	-0.342077
C78	C	0.890300	-0.119204	-0.092077
C79	C	1.140300	0.130796	0.157923
C80	C	1.390300	0.380796	0.407923
C81	C	0.574864	-0.369187	-0.342105
C82	C	0.824864	-0.119187	-0.092105
C83	C	1.074864	0.130813	0.157895
C84	C	1.324864	0.380813	0.407895
C85	C	0.542140	-0.325840	-0.302119
C86	C	0.792140	-0.075840	-0.052119
C87	C	1.042140	0.174160	0.197881
C88	C	1.292140	0.424160	0.447881
C89	C	0.574856	-0.282494	-0.262114
C90	C	0.824856	-0.032494	-0.012114
C91	C	1.074856	0.217506	0.237886
C92	C	1.324856	0.467506	0.487886
C93	C	0.640290	-0.282507	-0.262092
C94	C	0.890290	-0.032507	-0.012092
C95	C	1.140290	0.217493	0.237908
C96	C	1.390290	0.467493	0.487908
C97	C	0.438416	-0.320397	-0.245714
C98	C	0.688416	-0.070397	0.004286
C99	C	0.938416	0.179603	0.254286
C100	C	1.188416	0.429603	0.504286
C101	C	0.372983	-0.320389	-0.245735
C102	C	0.622983	-0.070389	0.004265
C103	C	0.872983	0.179611	0.254265
C104	C	1.122983	0.429611	0.504265
C105	C	0.340319	-0.325796	-0.302188
C106	C	0.590319	-0.075796	-0.052188
C107	C	0.840319	0.174204	0.197812
C108	C	1.090319	0.424204	0.447812
C109	C	0.373096	-0.331226	-0.358622
C110	C	0.623096	-0.081226	-0.108622
C111	C	0.873096	0.168774	0.141378
C112	C	1.123096	0.418774	0.391378
C113	C	0.438530	-0.331239	-0.358599
C114	C	0.688530	-0.081239	-0.108599
C115	C	0.938530	0.168761	0.141401
C116	C	1.188530	0.418761	0.391401
C117	C	0.471187	-0.325821	-0.302139
C118	C	0.721187	-0.075821	-0.052139
C119	C	0.971187	0.174179	0.197861
C120	C	1.221187	0.424179	0.447861
C121	C	0.236658	-0.369118	-0.342224
C122	C	0.486658	-0.119118	-0.092224
C123	C	0.736658	0.130882	0.157776
C124	C	0.986658	0.380882	0.407776
C125	C	0.171222	-0.369096	-0.342253
C126	C	0.421222	-0.119096	-0.092253
C127	C	0.671222	0.130904	0.157747
C128	C	0.921222	0.380904	0.407747
C129	C	0.171214	-0.282407	-0.262257
C130	C	0.421214	-0.032407	-0.012257
C131	C	0.671214	0.217593	0.237743
C132	C	0.921214	0.467593	0.487743
C133	C	0.236650	-0.282425	-0.262234
C134	C	0.486650	-0.032425	-0.012234
C135	C	0.736650	0.217575	0.237766
C136	C	0.986650	0.467575	0.487766
C137	C	0.269368	-0.325784	-0.302216
C138	C	0.519368	-0.075784	-0.052216
C139	C	0.769368	0.174216	0.197784
C140	C	1.019368	0.424216	0.447784
C141	C	0.905358	-0.501655	-0.302132
C142	C	1.155358	-0.251655	-0.052132
C143	C	1.405358	-0.001655	0.197868
C144	C	1.655358	0.248345	0.447868
C145	C	0.905382	-0.576887	-0.302139
C146	C	1.155382	-0.326887	-0.052139
C147	C	1.405382	-0.076887	0.197861
C148	C	1.655382	0.173113	0.447861
C149	C	0.945608	-1.038600	-0.342343
C150	C	1.195608	-0.788600	-0.092343
C151	C	1.445608	-0.538600	0.157657
C152	C	1.695608	-0.288600	0.407657
C153	C	0.945583	-0.967911	-0.342329
C154	C	1.195583	-0.717911	-0.092329
C155	C	1.445583	-0.467911	0.157671
C156	C	1.695583	-0.217911	0.407671
C157	C	0.905521	-0.932648	-0.302202
C158	C	1.155521	-0.682648	-0.052202
C159	C	1.405521	-0.432648	0.197798
C160	C	1.655521	-0.182648	0.447798
C161	C	0.865486	-0.968078	-0.262083
C162	C	1.115486	-0.718078	-0.012083
C163	C	1.365486	-0.468078	0.237917
C164	C	1.615486	-0.218078	0.487917
C165	C	0.865514	-1.038765	-0.262095
C166	C	1.115514	-0.788765	-0.012095
C167	C	1.365514	-0.538765	0.237905
C168	C	1.615514	-0.288765	0.487905
C169	C	0.865371	-0.683004	-0.262035
C170	C	1.115371	-0.433004	-0.012035
C171	C	1.365371	-0.183004	0.237965
C172	C	1.615371	0.066996	0.487965
C173	C	0.865345	-0.612312	-0.262027
C174	C	1.115345	-0.362312	-0.012027
C175	C	1.365345	-0.112312	0.237973
C176	C	1.615345	0.137688	0.487973
C177	C	0.945440	-0.612151	-0.342268
C178	C	1.195440	-0.362151	-0.092268
C179	C	1.445440	-0.112151	0.157732
C180	C	1.695440	0.137849	0.407732
C181	C	0.945468	-0.682838	-0.342280
C182	C	1.195468	-0.432838	-0.092280
C183	C	1.445468	-0.182838	0.157720
C184	C	1.695468	0.067162	0.407720
C185	C	0.905436	-0.718261	-0.302159
C186	C	1.155436	-0.468261	-0.052159
C187	C	1.405436	-0.218261	0.197841
C188	C	1.655436	0.031739	0.447841
C189	C	0.905464	-0.794910	-0.302174
C190	C	1.155464	-0.544910	-0.052174
C191	C	1.405464	-0.294910	0.197826
C192	C	1.655464	-0.044910	0.447826
C193	C	0.905489	-0.856001	-0.302190
C194	C	1.155489	-0.606001	-0.052190
C195	C	1.405489	-0.356001	0.197810
C196	C	1.655489	-0.106001	0.447810
C197	C	1.068860	-0.325763	-0.302237
C198	C	1.318860	-0.075763	-0.052237
C199	C	1.568860	0.174237	0.197763
C200	C	1.818860	0.424237	0.447763
C201	C	1.138502	-0.325748	-0.302268
C202	C	1.388502	-0.075748	-0.052268
C203	C	1.638502	0.174252	0.197732
C204	C	1.888502	0.424252	0.447732
C205	C	0.905486	-0.325757	-0.465587
C206	C	1.155486	-0.075757	-0.215587
C207	C	1.405486	0.174243	0.034413
C208	C	1.655486	0.424243	0.284413
C209	C	0.905507	-0.325739	-0.535228
C210	C	1.155507	-0.075739	-0.285228
C211	C	1.405507	0.174261	-0.035228
C212	C	1.655507	0.424261	0.214772
C213	C	0.905533	-0.149256	-0.302209
C214	C	1.155533	0.100744	-0.052209
C215	C	1.405533	0.350744	0.197791
C216	C	1.655533	0.600744	0.447791
C217	C	0.905574	-0.074024	-0.302228
C218	C	1.155574	0.175976	-0.052228
C219	C	1.405574	0.425976	0.197772
C220	C	1.655574	0.675976	0.447772
C221	C	0.865468	-0.282452	-0.567925
C222	C	1.115468	-0.032452	-0.317925
C223	C	1.365468	0.217548	-0.067925
C224	C	1.615468	0.467548	0.182075
C225	C	0.865466	-0.282440	-0.633360
C226	C	1.115466	-0.032440	-0.383360
C227	C	1.365466	0.217560	-0.133360
C228	C	1.615466	0.467560	0.116640
C229	C	0.905514	-0.325707	-0.666096
C230	C	1.155514	-0.075707	-0.416096
C231	C	1.405514	0.174293	-0.166096
C232	C	1.655514	0.424293	0.083904
C233	C	0.945556	-0.369002	-0.633392
C234	C	1.195556	-0.119002	-0.383392
C235	C	1.445556	0.130998	-0.133392
C236	C	1.695556	0.380998	0.116608
C237	C	0.945553	-0.369018	-0.567958
C238	C	1.195553	-0.119018	-0.317958
C239	C	1.445553	0.130982	-0.067958
C240	C	1.695553	0.380982	0.182042
C241	C	0.961966	-0.331011	-0.769802
C242	C	1.211966	-0.081011	-0.519802
C243	C	1.461966	0.168989	-0.269802
C244	C	1.711966	0.418989	-0.019802
C245	C	0.961971	-0.330990	-0.835235
C246	C	1.211971	-0.080990	-0.585235
C247	C	1.461971	0.169010	-0.335235
C248	C	1.711971	0.419010	-0.085235
C249	C	0.905525	-0.325661	-0.867917
C250	C	1.155525	-0.075661	-0.617917
C251	C	1.405525	0.174339	-0.367917
C252	C	1.655525	0.424339	-0.117917
C253	C	0.849072	-0.320338	-0.835159
C254	C	1.099072	-0.070338	-0.585159
C255	C	1.349072	0.179662	-0.335159
C256	C	1.599072	0.429662	-0.085159
C257	C	0.849069	-0.320354	-0.769725
C258	C	1.099069	-0.070354	-0.519725
C259	C	1.349069	0.179646	-0.269725
C260	C	1.599069	0.429646	-0.019725
C261	C	0.905522	-0.325694	-0.737049
C262	C	1.155522	-0.075694	-0.487049
C263	C	1.405522	0.174306	-0.237049
C264	C	1.655522	0.424306	0.012951
C265	C	0.865480	-0.282358	-0.971566
C266	C	1.115480	-0.032358	-0.721566
C267	C	1.365480	0.217642	-0.471566
C268	C	1.615480	0.467642	-0.221566
C269	C	0.865477	-0.282351	-1.037003
C270	C	1.115477	-0.032351	-0.787003
C271	C	1.365477	0.217649	-0.537003
C272	C	1.615477	0.467649	-0.287003
C273	C	0.945572	-0.368909	-1.037034
C274	C	1.195572	-0.118909	-0.787034
C275	C	1.445572	0.131091	-0.537034
C276	C	1.695572	0.381091	-0.287034
C277	C	0.945570	-0.368921	-0.971598
C278	C	1.195570	-0.118921	-0.721598
C279	C	1.445570	0.131079	-0.471598
C280	C	1.695570	0.381079	-0.221598
C281	C	0.905524	-0.325642	-0.938869
C282	C	1.155524	-0.075642	-0.688869
C283	C	1.405524	0.174358	-0.438869
C284	C	1.655524	0.424358	-0.188869
C285	C	0.905424	-0.325792	-0.139376
C286	C	1.155424	-0.075792	0.110624
C287	C	1.405424	0.174208	0.360624
C288	C	1.655424	0.424208	0.610624
C289	C	0.905524	-0.325619	-0.069735
C290	C	1.155524	-0.075619	0.180265
C291	C	1.405524	0.174381	0.430265
C292	C	1.655524	0.424381	0.680265
H293	H	0.548207	-0.247200	-0.229559
H294	H	0.798207	0.002800	0.020441
H295	H	1.048207	0.252800	0.270441
H296	H	1.298207	0.502800	0.520441
H297	H	0.263299	-0.404420	-0.374784
H298	H	0.513299	-0.154420	-0.124784
H299	H	0.763299	0.095580	0.125216
H300	H	1.013299	0.345580	0.375216
H301	H	0.144571	-0.247110	-0.229703
H302	H	0.394571	0.002890	0.020297
H303	H	0.644571	0.252890	0.270297
H304	H	0.894571	0.502890	0.520297
O305	O	0.675575	-0.235776	-0.218933
O306	O	0.925575	0.014224	0.031067
O307	O	1.175575	0.264224	0.281067
O308	O	1.425575	0.514224	0.531067
H309	H	0.641829	-0.205635	-0.191127
H310	H	0.891829	0.044365	0.058873
H311	H	1.141829	0.294365	0.308873
H312	H	1.391829	0.544365	0.558873
H313	H	0.832867	-0.247104	-1.063623
H314	H	1.082867	0.002896	-0.813623
H315	H	1.332867	0.252896	-0.563623
H316	H	1.582867	0.502896	-0.313623
H317	H	0.978039	-0.583302	-0.374935
H318	H	1.228039	-0.333302	-0.124935
H319	H	1.478039	-0.083302	0.125065
H320	H	1.728039	0.166698	0.375065
H321	H	0.144592	-0.404386	-0.374832
H322	H	0.394592	-0.154386	-0.124832
H323	H	0.644592	0.095614	0.125168
H324	H	0.894592	0.345614	0.375168
H325	H	0.978088	-0.711546	-0.374957
H326	H	1.228088	-0.461546	-0.124957
H327	H	1.478088	-0.211546	0.125043
H328	H	1.728088	0.038454	0.375043
O329	O	0.822142	-0.574274	-0.218738
O330	O	1.072142	-0.324274	0.031262
O331	O	1.322142	-0.074274	0.281262
O332	O	1.572142	0.175726	0.531262
H333	H	0.794316	-0.610781	-0.190835
H334	H	1.044316	-0.360781	0.059165
H335	H	1.294316	-0.110781	0.309165
H336	H	1.544316	0.139219	0.559165
H337	H	0.548228	-0.404477	-0.374682
H338	H	0.798228	-0.154477	-0.124682
H339	H	1.048228	0.095523	0.125318
H340	H	1.298228	0.345523	0.375318
H341	H	1.007938	-0.335321	-0.861902
H342	H	1.257938	-0.085321	-0.611902
H343	H	1.507938	0.164679	-0.361902
H344	H	1.757938	0.414679	-0.111902
H345	H	0.263281	-0.247138	-0.229656
H346	H	0.513281	0.002862	0.020344
H347	H	0.763281	0.252862	0.270344
H348	H	1.013281	0.502862	0.520344
H349	H	1.007935	-0.335345	-0.743197
H350	H	1.257935	-0.085345	-0.493197
H351	H	1.507935	0.164655	-0.243197
H352	H	1.757935	0.414655	0.006803
O353	O	0.988771	-0.415597	-0.936332
O354	O	1.238771	-0.165597	-0.686332
O355	O	1.488771	0.084403	-0.436332
O356	O	1.738771	0.334403	-0.186332
H357	H	0.978006	-0.468720	-0.948872
H358	H	1.228006	-0.218720	-0.698872
H359	H	1.478006	0.031280	-0.448872
H360	H	1.728006	0.281280	-0.198872
O361	O	0.822189	-0.721202	-0.218766
O362	O	1.072189	-0.471202	0.031234
O363	O	1.322189	-0.221202	0.281234
O364	O	1.572189	0.028798	0.531234
H365	H	0.828941	-0.776280	-0.225507
H366	H	1.078941	-0.526280	0.024493
H367	H	1.328941	-0.276280	0.274493
H368	H	1.578941	-0.026280	0.524493
H369	H	0.832869	-0.939362	-0.229408
H370	H	1.082869	-0.689362	0.020592
H371	H	1.332869	-0.439362	0.270592
H372	H	1.582869	-0.189362	0.520592
H373	H	0.465005	-0.315991	-0.199740
H374	H	0.715005	-0.065991	0.050260
H375	H	0.965005	0.184009	0.300260
H376	H	1.215005	0.434009	0.550260
O377	O	0.337631	-0.314530	-0.184873
O378	O	0.587631	-0.064530	0.065127
O379	O	0.837631	0.185470	0.315127
O380	O	1.087631	0.435470	0.565127
H381	H	0.371336	-0.310756	-0.145615
H382	H	0.621336	-0.060756	0.104385
H383	H	0.871336	0.189244	0.354385
H384	H	1.121336	0.439244	0.604385
H385	H	0.978163	-0.404230	-0.660050
H386	H	1.228163	-0.154230	-0.410050
H387	H	1.478163	0.095770	-0.160050
H388	H	1.728163	0.345770	0.089950
O389	O	0.988818	-1.076633	-0.385621
O390	O	1.238818	-0.826633	-0.135621
O391	O	1.488818	-0.576633	0.114379
O392	O	1.738818	-0.326633	0.364379
H393	H	1.016656	-1.040122	-0.413508
H394	H	1.266656	-0.790122	-0.163508
H395	H	1.516656	-0.540122	0.086492
H396	H	1.766656	-0.290122	0.336492
O397	O	0.822333	-1.076978	-0.218832
O398	O	1.072333	-0.826978	0.031168
O399	O	1.322333	-0.576978	0.281168
O400	O	1.572333	-0.326978	0.531168
H401	H	0.794466	-1.040583	-0.190932
H402	H	1.044466	-0.790583	0.059068
H403	H	1.294466	-0.540583	0.309068
H404	H	1.544466	-0.290583	0.559068
H405	H	0.978181	-0.939069	-0.374992
H406	H	1.228181	-0.689069	-0.124992
H407	H	1.478181	-0.439069	0.125008
H408	H	1.728181	-0.189069	0.375008
O409	O	0.473886	-0.337080	-0.419462
O410	O	0.723886	-0.087080	-0.169462
O411	O	0.973886	0.162920	0.080538
O412	O	1.223886	0.412920	0.330538
H413	H	0.440185	-0.340832	-0.458724
H414	H	0.690185	-0.090832	-0.208724
H415	H	0.940185	0.159168	0.041276
H416	H	1.190185	0.409168	0.291276
O417	O	0.822283	-0.235771	-0.532621
O418	O	1.072283	0.014229	-0.282621
O419	O	1.322283	0.264229	-0.032621
O420	O	1.572283	0.514229	0.217379
H421	H	0.794440	-0.205669	-0.566355
H422	H	1.044440	0.044331	-0.316355
H423	H	1.294440	0.294331	-0.066355
H424	H	1.544440	0.544331	0.183645
H425	H	0.832862	-0.247187	-0.659987
H426	H	1.082862	0.002813	-0.409987
H427	H	1.332862	0.252813	-0.159987
H428	H	1.582862	0.502813	0.090013
O429	O	0.788187	-0.314609	-0.734389
O430	O	1.038187	-0.064609	-0.484389
O431	O	1.288187	0.185391	-0.234389
O432	O	1.538187	0.435391	0.015611
H433	H	0.748934	-0.310900	-0.768103
H434	H	0.998934	-0.060900	-0.518103
H435	H	1.248934	0.189100	-0.268103
H436	H	1.498934	0.439100	-0.018103
H437	H	0.666935	-0.404509	-0.374635
H438	H	0.916935	-0.154509	-0.124635
H439	H	1.166935	0.095491	0.125365
H440	H	1.416935	0.345491	0.375365
O441	O	0.788183	-0.314596	-0.870397
O442	O	1.038183	-0.064596	-0.620397
O443	O	1.288183	0.185404	-0.370397
O444	O	1.538183	0.435404	-0.120397
H445	H	0.797665	-0.315489	-0.921401
H446	H	1.047665	-0.065489	-0.671401
H447	H	1.297665	0.184511	-0.421401
H448	H	1.547665	0.434511	-0.171401
H449	H	0.832872	-0.247119	-0.944916
H450	H	1.082872	0.002881	-0.694916
H451	H	1.332872	0.252881	-0.444916
H452	H	1.582872	0.502881	-0.194916
O453	O	0.988770	-0.415577	-1.072332
O454	O	1.238770	-0.165577	-0.822332
O455	O	1.488770	0.084423	-0.572332
O456	O	1.738770	0.334423	-0.322332
H457	H	0.982049	-0.408292	-1.123326
H458	H	1.232049	-0.158292	-0.873326
H459	H	1.482049	0.091708	-0.623326
H460	H	1.732049	0.341708	-0.373326
O461	O	0.988749	-0.415696	-0.532686
O462	O	1.238749	-0.165696	-0.282686
O463	O	1.488749	0.084304	-0.032686
O464	O	1.738749	0.334304	0.217314
H465	H	1.016602	-0.445778	-0.566440
H466	H	1.266602	-0.195778	-0.316440
H467	H	1.516602	0.054222	-0.066440
H468	H	1.766602	0.304222	0.183560
H469	H	0.346503	-0.335627	-0.404591
H470	H	0.596503	-0.085627	-0.154591
H471	H	0.846503	0.164373	0.095409
H472	H	1.096503	0.414373	0.345409
