data_functionalizedCrystal
_audit_creation_method	'MofGen! by Chris Wilmer'
_symmetry_space_group_name_H-M	'P1'
_symmetry_Int_Tables_number	1
_symmetry_cell_setting	triclinic
loop_
_symmetry_equiv_pos_as_xyz
  x,y,z
_cell_length_a	15.538191
_cell_length_b	14.971482
_cell_length_c	14.048226
_cell_angle_alpha	89.994098
_cell_angle_beta	89.996115
_cell_angle_gamma	65.442351
loop_
_atom_site_label
_atom_site_type_symbol
_atom_site_fract_x
_atom_site_fract_y
_atom_site_fract_z
O1	O	0.122700	1.146988	-0.079139
O2	O	0.622700	1.646988	0.420861
O3	O	0.137399	0.881800	-0.079143
O4	O	0.637399	1.381800	0.420857
O5	O	-0.007022	1.066015	-0.079145
O6	O	0.492978	1.566015	0.420855
O7	O	0.267122	0.962773	-0.079137
O8	O	0.767122	1.462773	0.420863
O9	O	-0.007031	1.066001	0.079177
O10	O	0.492969	1.566001	0.579177
O11	O	0.137391	0.881787	0.079179
O12	O	0.637391	1.381787	0.579179
O13	O	0.122692	1.146974	0.079182
O14	O	0.622692	1.646974	0.579182
Zn15	Zn	0.130040	1.014378	0.104317
Zn16	Zn	0.630040	1.514378	0.604317
Zn17	Zn	0.130051	1.014396	-0.104278
Zn18	Zn	0.630051	1.514396	0.395722
O19	O	0.267113	0.962759	0.079184
O20	O	0.767113	1.462759	0.579184
C21	C	0.136738	0.848683	0.000017
C22	C	0.636738	1.348683	0.500017
C23	C	0.134770	0.750026	0.000016
C24	C	0.634770	1.250026	0.500016
C25	C	0.133839	0.703676	0.086318
C26	C	0.633839	1.203676	0.586318
C27	C	0.131974	0.610985	0.086319
C28	C	0.631974	1.110985	0.586319
C29	C	0.131048	0.564642	0.000017
C30	C	0.631048	1.064642	0.500017
C31	C	0.131977	0.611000	-0.086292
C32	C	0.631977	1.111000	0.413708
C33	C	0.133835	0.703693	-0.086292
C34	C	0.633835	1.203693	0.413708
C35	C	0.128108	0.417798	-0.086286
C36	C	0.628108	0.917798	0.413714
C37	C	0.126252	0.325099	-0.086286
C38	C	0.626252	0.825099	0.413714
C39	C	0.126248	0.325090	0.086325
C40	C	0.626248	0.825090	0.586325
C41	C	0.128105	0.417783	0.086325
C42	C	0.628105	0.917783	0.586325
C43	C	0.129036	0.464134	0.000016
C44	C	0.629036	0.964134	0.500016
C45	C	-0.042110	1.076810	0.000013
C46	C	0.457890	1.576810	0.500013
C47	C	-0.146648	1.108985	0.000004
C48	C	0.353352	1.608985	0.500004
C49	C	-0.434794	0.789334	0.000020
C50	C	0.065206	1.289334	0.500020
C51	C	-0.533026	0.819590	0.000023
C52	C	-0.033026	1.319590	0.500023
C53	C	-0.555280	0.989773	0.000024
C54	C	-0.055280	1.489773	0.500024
C55	C	-0.457048	0.959531	0.000017
C56	C	0.042952	1.459531	0.500017
C57	C	-0.396812	0.859310	0.000016
C58	C	0.103188	1.359310	0.500016
C59	C	-0.419066	1.029507	0.000013
C60	C	0.080934	1.529507	0.500013
C61	C	-0.320842	0.999268	0.000011
C62	C	0.179158	1.499268	0.500011
C63	C	-0.260600	0.899052	0.000013
C64	C	0.239400	1.399052	0.500013
C65	C	-0.298588	0.829071	0.000014
C66	C	0.201412	1.329071	0.500014
C67	C	-0.479303	1.129727	0.000021
C68	C	0.020697	1.629727	0.500021
C69	C	-0.441321	1.199704	0.000017
C70	C	0.058679	1.699704	0.500017
C71	C	-0.343095	1.169465	0.000008
C72	C	0.156905	1.669465	0.500008
C73	C	-0.282854	1.069249	0.000010
C74	C	0.217146	1.569249	0.500010
C75	C	-0.305107	1.239445	0.000007
C76	C	0.194893	1.739445	0.500007
C77	C	-0.206884	1.209206	0.000005
C78	C	0.293116	1.709206	0.500005
C79	C	-0.184630	1.039009	0.000008
C80	C	0.315370	1.539009	0.500008
C81	C	0.302201	0.951964	0.000024
C82	C	0.802201	1.451964	0.500024
C83	C	0.406739	0.919789	0.000027
C84	C	0.906739	1.419789	0.500027
C85	C	0.123353	1.180092	0.000020
C86	C	0.623353	1.680092	0.500020
C87	C	0.125321	1.278748	0.000016
C88	C	0.625321	1.778748	0.500016
N89	N	0.130032	1.014373	0.246678
N90	N	0.630032	1.514373	0.746678
N91	N	0.130052	1.014412	-0.246639
N92	N	0.630052	1.514412	0.253361
C93	C	0.066108	1.095953	0.296495
C94	C	0.566108	1.595953	0.796495
C95	C	0.066108	1.095960	0.396153
C96	C	0.566108	1.595960	0.896153
C97	C	0.130036	1.014387	0.445991
C98	C	0.630036	1.514387	0.945991
C99	C	0.193962	0.932799	0.396167
C100	C	0.693962	1.432799	0.896167
C101	C	0.193958	0.932790	0.296512
C102	C	0.693958	1.432790	0.796512
C103	C	0.193969	0.932822	0.603882
C104	C	0.693969	1.432822	1.103882
C105	C	0.193975	0.932831	0.703544
C106	C	0.693975	1.432831	1.203544
C107	C	0.066119	1.095991	0.703523
C108	C	0.566119	1.595991	1.203523
C109	C	0.066114	1.095983	0.603867
C110	C	0.566114	1.595983	1.103867
C111	C	0.130042	1.014395	0.554050
C112	C	0.630042	1.514395	1.054050
H113	H	0.131217	0.573264	-0.156561
H114	H	0.631217	1.073264	0.343439
H115	H	0.014056	1.162389	0.436713
H116	H	0.514056	1.662389	0.936713
H117	H	0.134595	0.741429	-0.156568
H118	H	0.634595	1.241429	0.343432
H119	H	0.128865	0.455510	0.156599
H120	H	0.628865	0.955510	0.656599
H121	H	-0.249540	0.747461	0.000006
H122	H	0.250460	1.247461	0.500006
H123	H	-0.135582	0.957399	-0.000000
H124	H	0.364418	1.457399	0.500000
H125	H	0.014054	1.162382	0.255923
H126	H	0.514054	1.662382	0.755923
H127	H	0.128866	0.455534	-0.156568
H128	H	0.628866	0.955534	0.343432
H129	H	-0.180621	0.874432	0.000016
H130	H	0.319379	1.374432	0.500016
H131	H	-0.559282	1.154345	0.000014
H132	H	-0.059282	1.654345	0.500014
H133	H	-0.490378	1.281304	0.000022
H134	H	0.009622	1.781304	0.500022
H135	H	0.125490	0.287347	0.156600
H136	H	0.625490	0.787347	0.656600
H137	H	0.131200	0.573258	0.156594
H138	H	0.631200	1.073258	0.656594
H139	H	0.125499	0.287369	-0.156561
H140	H	0.625499	0.787369	0.343439
H141	H	-0.354165	1.321045	0.000018
H142	H	0.145835	1.821045	0.500018
H143	H	0.134600	0.741398	0.156595
H144	H	0.634600	1.241398	0.656595
H145	H	-0.385746	0.707725	0.000012
H146	H	0.114254	1.207725	0.500012
H147	H	-0.175959	1.266188	0.000003
H148	H	0.324041	1.766188	0.500003
H149	H	0.246009	0.866358	0.255951
H150	H	0.746009	1.366358	0.755951
H151	H	-0.563946	0.762599	0.000040
H152	H	-0.063946	1.262599	0.500040
H153	H	-0.604337	1.071372	0.000029
H154	H	-0.104337	1.571372	0.500029
H155	H	0.014064	1.162409	0.563289
H156	H	0.514064	1.662409	1.063289
H157	H	0.014067	1.162423	0.744090
H158	H	0.514067	1.662423	1.244090
H159	H	0.246031	0.866405	0.744118
H160	H	0.746031	1.366405	1.244118
H161	H	0.246023	0.866382	0.563324
H162	H	0.746023	1.366382	1.063324
H163	H	0.246011	0.866377	0.436752
H164	H	0.746011	1.366377	0.936752
