data_functionalizedCrystal
_audit_creation_method	'MofGen! by Chris Wilmer'
_symmetry_space_group_name_H-M	'P1'
_symmetry_Int_Tables_number	1
_symmetry_cell_setting	triclinic
loop_
_symmetry_equiv_pos_as_xyz
  x,y,z
_cell_length_a	18.215407
_cell_length_b	12.827892
_cell_length_c	18.215399
_cell_angle_alpha	89.975972
_cell_angle_beta	89.982187
_cell_angle_gamma	90.009715
loop_
_atom_site_label
_atom_site_type_symbol
_atom_site_fract_x
_atom_site_fract_y
_atom_site_fract_z
Zn1	Zn	1.125121	-0.416197	-0.416096
Zn2	Zn	1.625121	0.083803	0.083904
Zn3	Zn	1.125051	-0.590956	-0.293038
Zn4	Zn	1.625051	-0.090956	0.206962
Zn5	Zn	1.002054	-0.416213	-0.293048
Zn6	Zn	1.502054	0.083787	0.206952
Zn7	Zn	1.002041	-0.590880	-0.416068
Zn8	Zn	1.502041	-0.090880	0.083932
O9	O	1.063567	-0.503561	-0.354563
O10	O	1.563567	-0.003561	0.145437
O11	O	1.228096	-0.439404	-0.399780
O12	O	1.728096	0.060596	0.100220
O13	O	1.108711	-0.567815	-0.190055
O14	O	1.608711	-0.067815	0.309945
O15	O	1.018414	-0.269975	-0.309387
O16	O	1.518414	0.230025	0.190613
O17	O	1.228044	-0.567799	-0.309370
O18	O	1.728044	-0.067799	0.190630
O19	O	1.108831	-0.269963	-0.399790
O20	O	1.608831	0.230037	0.100210
O21	O	1.018346	-0.439432	-0.190062
O22	O	1.518346	0.060568	0.309938
O23	O	0.899068	-0.439358	-0.309359
O24	O	1.399068	0.060642	0.190641
O25	O	1.018392	-0.567669	-0.519056
O26	O	1.518392	-0.067669	-0.019056
O27	O	0.899058	-0.567685	-0.399741
O28	O	1.399058	-0.067685	0.100259
O29	O	1.108819	-0.439330	-0.519077
O30	O	1.608819	0.060670	-0.019077
O31	O	1.108698	-0.737182	-0.309342
O32	O	1.608698	-0.237182	0.190658
O33	O	1.018323	-0.737126	-0.399732
O34	O	1.518323	-0.237126	0.100268
C35	C	0.872360	-0.503515	-0.354548
C36	C	1.372360	-0.003515	0.145452
C37	C	0.790562	-0.503521	-0.354559
C38	C	1.290562	-0.003521	0.145441
C39	C	0.525525	-0.436835	-0.401714
C40	C	1.025525	0.063165	0.098286
C41	C	0.602384	-0.436818	-0.401712
C42	C	1.102384	0.063182	0.098288
C43	C	0.602349	-0.570322	-0.307427
C44	C	1.102349	-0.070322	0.192573
C45	C	0.525492	-0.570343	-0.307434
C46	C	1.025492	-0.070343	0.192566
C47	C	0.487082	-0.503594	-0.354576
C48	C	0.987082	-0.003594	0.145424
C49	C	0.640798	-0.503555	-0.354567
C50	C	1.140798	-0.003555	0.145433
C51	C	0.724132	-0.503538	-0.354564
C52	C	1.224132	-0.003538	0.145436
C53	C	0.403743	-0.503613	-0.354580
C54	C	0.903743	-0.003613	0.145420
C55	C	1.063521	-0.775071	-0.354549
C56	C	1.563521	-0.275071	0.145451
C57	C	1.063569	-0.891224	-0.354568
C58	C	1.563569	-0.391224	0.145432
C59	C	1.018838	-0.943016	-0.399262
C60	C	1.518838	-0.443016	0.100738
C61	C	1.018887	-1.063066	-0.399283
C62	C	1.518887	-0.563066	0.100717
C63	C	1.255520	-0.503608	-0.354577
C64	C	1.755520	-0.003608	0.145423
C65	C	1.337318	-0.503628	-0.354584
C66	C	1.837318	-0.003628	0.145416
C67	C	1.063612	-0.503489	-0.546516
C68	C	1.563612	-0.003489	-0.046516
C69	C	1.063631	-0.503459	-0.628314
C70	C	1.563631	-0.003459	-0.128314
C71	C	1.063632	-0.230991	-0.354592
C72	C	1.563632	0.269009	0.145408
C73	C	1.063660	-0.114838	-0.354605
C74	C	1.563660	0.385162	0.145395
C75	C	1.110733	-0.436570	-0.816521
C76	C	1.610733	0.063430	-0.316521
C77	C	1.110742	-0.436540	-0.893379
C78	C	1.610742	0.063460	-0.393379
C79	C	1.016580	-0.570186	-0.893346
C80	C	1.516580	-0.070186	-0.393346
C81	C	1.016569	-0.570210	-0.816489
C82	C	1.516569	-0.070210	-0.316489
C83	C	1.063649	-0.503404	-0.778078
C84	C	1.563649	-0.003404	-0.278078
C85	C	1.063670	-0.503349	-0.931794
C86	C	1.563670	-0.003349	-0.431794
C87	C	1.063679	-0.503316	-1.015128
C88	C	1.563679	-0.003316	-0.515128
C89	C	1.063639	-0.503435	-0.694739
C90	C	1.563639	-0.003435	-0.194739
C91	C	1.063564	-0.503558	-0.163356
C92	C	1.563564	-0.003558	0.336644
C93	C	1.063688	-0.503294	-0.081558
C94	C	1.563688	-0.003294	0.418442
H95	H	0.633632	-0.624664	-0.269044
H96	H	1.133632	-0.124664	0.230956
Br97	Br	0.954944	-0.868797	-0.463016
Br98	Br	1.454944	-0.368797	0.036984
H99	H	0.980594	-1.107606	-0.437550
H100	H	1.480594	-0.607606	0.062450
Br101	Br	1.127501	-1.040617	-0.290828
Br102	Br	1.627501	-0.540617	0.209172
Br103	Br	0.952657	-0.660910	-0.764312
Br104	Br	1.452657	-0.160910	-0.264312
Br105	Br	1.174649	-0.345840	-0.945549
Br106	Br	1.674649	0.154160	-0.445549
H107	H	0.494254	-0.382483	-0.440100
H108	H	0.994254	0.117517	0.059900
Br109	Br	0.473314	-0.660953	-0.243457
Br110	Br	0.973314	-0.160953	0.256543
H111	H	0.633681	-0.382457	-0.440097
H112	H	1.133681	0.117543	0.059903
Br113	Br	1.174626	-0.345903	-0.764394
Br114	Br	1.674626	0.154097	-0.264394
H115	H	1.101899	-0.935760	-0.316316
H116	H	1.601899	-0.435760	0.183684
Br117	Br	0.952691	-0.660850	-0.945480
Br118	Br	1.452691	-0.160850	-0.445480
