data_functionalizedCrystal
_audit_creation_method	'MofGen! by Chris Wilmer'
_symmetry_space_group_name_H-M	'P1'
_symmetry_Int_Tables_number	1
_symmetry_cell_setting	triclinic
loop_
_symmetry_equiv_pos_as_xyz
  x,y,z
_cell_length_a	19.121275
_cell_length_b	19.121063
_cell_length_c	13.034296
_cell_angle_alpha	85.519712
_cell_angle_beta	84.918577
_cell_angle_gamma	89.926756
loop_
_atom_site_label
_atom_site_type_symbol
_atom_site_fract_x
_atom_site_fract_y
_atom_site_fract_z
Zn1	Zn	1.107683	-0.280861	-0.538333
Zn2	Zn	1.087897	-0.411589	-0.373116
Zn3	Zn	0.975705	-0.289422	-0.372520
Zn4	Zn	0.986716	-0.391865	-0.552994
O5	O	1.039500	-0.343434	-0.459241
O6	O	1.202636	-0.302874	-0.510530
O7	O	1.060126	-0.407220	-0.228364
O8	O	0.996884	-0.190704	-0.388130
O9	O	1.188100	-0.398919	-0.389146
O10	O	1.093848	-0.184414	-0.509952
O11	O	0.977699	-0.317465	-0.227926
O12	O	0.879587	-0.298340	-0.402347
O13	O	1.015651	-0.365303	-0.695722
O14	O	0.887677	-0.373604	-0.534941
O15	O	1.104525	-0.283749	-0.684950
O16	O	1.070803	-0.506555	-0.403363
O17	O	0.996466	-0.492064	-0.535519
C18	C	0.858332	-0.334761	-0.470171
C19	C	0.780828	-0.331066	-0.474872
C20	C	0.736840	-0.379271	-0.413780
C21	C	0.664018	-0.375797	-0.418211
C22	C	0.635187	-0.324116	-0.483730
C23	C	0.679181	-0.275909	-0.544829
C24	C	0.752001	-0.279385	-0.540403
C25	C	0.415696	-0.311122	-0.500266
C26	C	0.342870	-0.307647	-0.504686
C27	C	0.327712	-0.407537	-0.378069
C28	C	0.400534	-0.411007	-0.373644
C29	C	0.444523	-0.362802	-0.434747
C30	C	0.560752	-0.320563	-0.488258
C31	C	0.518957	-0.366359	-0.430223
C32	C	1.032704	-0.524610	-0.471118
C33	C	1.029863	-0.602119	-0.476230
C34	C	1.067271	-0.646051	-0.409877
C35	C	1.064604	-0.718877	-0.414691
C36	C	1.024524	-0.747770	-0.485852
C37	C	0.987115	-0.703832	-0.552212
C38	C	0.989786	-0.631007	-0.547402
C39	C	1.014523	-0.967279	-0.503817
C40	C	1.011853	-1.040110	-0.508619
C41	C	1.089344	-1.055149	-0.371099
C42	C	1.092008	-0.982322	-0.366292
C43	C	1.054602	-0.938390	-0.432655
C44	C	1.021795	-0.822210	-0.490772
C45	C	1.057335	-0.863951	-0.427740
C46	C	1.221377	-0.352142	-0.448269
C47	C	1.298881	-0.355852	-0.443593
C48	C	1.063524	-0.321371	-0.728897
C49	C	1.073761	-0.311969	-0.843809
C50	C	1.046345	-0.161550	-0.447339
C51	C	1.049261	-0.084042	-0.442267
C52	C	1.034352	-0.348128	-0.900370
C53	C	1.044932	-0.338411	-1.019137
C54	C	1.015612	-0.365364	-0.190628
C55	C	1.005518	-0.374576	-0.075696
H56	H	0.760308	-0.421353	-0.360423
N57	N	0.982189	-0.395978	-0.850822
N58	N	0.919079	-0.387296	-0.866375
H59	H	0.882236	-0.421091	-0.831383
N60	N	0.429991	-0.463792	-0.306715
N61	N	0.465668	-0.446510	-0.236814
H62	H	0.486472	-0.483788	-0.189540
N63	N	0.976321	-0.922415	-0.571617
N64	N	0.989100	-0.922941	-0.667277
H65	H	0.962119	-0.891255	-0.715168
H66	H	1.119799	-1.090926	-0.317072
N67	N	1.125916	-0.264115	-0.893370
N68	N	1.134439	-0.256292	-0.989779
H69	H	1.171275	-0.222495	-1.024781
N70	N	1.097077	-0.290535	-1.068679
N71	N	1.093809	-0.226941	-1.052772
H72	H	1.130635	-0.193127	-1.087762
H73	H	0.628205	-0.415051	-0.368463
H74	H	0.963945	-0.412732	-1.036199
N75	N	0.460636	-0.261891	-0.562669
N76	N	0.506226	-0.283050	-0.627631
H77	H	0.537970	-0.248278	-0.671704
H78	H	0.954484	-0.727363	-0.610157
H79	H	0.291890	-0.446784	-0.328324
H80	H	1.099905	-0.622532	-0.351926
H81	H	0.989160	-0.845743	-0.548710
N82	N	0.649722	-0.223126	-0.611759
N83	N	0.584703	-0.220027	-0.615703
H84	H	0.563898	-0.182748	-0.662972
N85	N	0.313432	-0.254868	-0.571655
N86	N	0.352715	-0.211846	-0.626229
H87	H	0.331925	-0.174578	-0.673536
H88	H	0.959325	-0.595238	-0.601435
H89	H	0.979225	-1.063630	-0.566585
N90	N	0.796927	-0.230133	-0.602801
N91	N	0.790604	-0.165941	-0.592375
H92	H	0.822332	-0.131155	-0.636448
N93	N	0.548416	-0.419139	-0.363296
N94	N	0.584099	-0.401849	-0.293406
H95	H	0.604912	-0.439123	-0.246135
H96	H	0.537269	-0.278483	-0.541602
H97	H	1.095065	-0.754644	-0.360659
H98	H	1.124645	-0.958799	-0.308347
N99	N	1.098263	-0.834431	-0.355048
N100	N	1.069373	-0.798052	-0.287948
H101	H	1.098276	-0.777196	-0.236605
