data_functionalizedCrystal
_audit_creation_method	'MofGen! by Chris Wilmer'
_symmetry_space_group_name_H-M	'P1'
_symmetry_Int_Tables_number	1
_symmetry_cell_setting	triclinic
loop_
_symmetry_equiv_pos_as_xyz
  x,y,z
_cell_length_a	23.532361
_cell_length_b	23.532357
_cell_length_c	17.666332
_cell_angle_alpha	89.987974
_cell_angle_beta	89.994922
_cell_angle_gamma	82.828980
loop_
_atom_site_label
_atom_site_type_symbol
_atom_site_fract_x
_atom_site_fract_y
_atom_site_fract_z
O1	O	0.755268	0.069011	-0.062881
O2	O	0.589399	0.079042	-0.062901
O3	O	0.677350	-0.008908	-0.062875
O4	O	0.667317	0.156961	-0.062907
O5	O	0.677335	-0.008912	0.063022
O6	O	0.589384	0.079038	0.062996
O7	O	0.755253	0.069007	0.063015
Cu8	Cu	0.672317	0.074022	0.074501
Cu9	Cu	0.672335	0.074027	-0.074387
O10	O	0.667302	0.156957	0.062989
C11	C	0.568175	0.078789	0.000045
C12	C	0.504957	0.078034	0.000039
C13	C	0.231722	0.074733	-0.068583
C14	C	0.291122	0.075448	-0.068585
O15	O	0.321855	0.075800	-0.126947
N16	N	0.320819	0.075806	0.000042
C17	C	0.291114	0.075444	0.068675
O18	O	0.321828	0.075814	0.127047
C19	C	0.231716	0.074725	0.068676
C20	C	0.202021	0.074372	0.000045
C21	C	0.202027	0.074379	-0.137208
C22	C	0.142631	0.073665	-0.137206
C23	C	0.112931	0.073305	-0.068578
C24	C	0.142626	0.073658	0.000047
C25	C	0.202013	0.074359	0.137308
C26	C	0.142611	0.073639	0.137304
C27	C	0.112916	0.073286	0.068673
C28	C	0.053529	0.072584	0.068677
N29	N	0.023832	0.072225	0.000051
C30	C	0.053533	0.072586	-0.068577
C31	C	0.415854	0.076953	0.068667
C32	C	0.475250	0.077676	0.068667
C33	C	0.475254	0.077679	-0.068593
C34	C	0.415856	0.076959	-0.068592
C35	C	0.386157	0.076594	0.000041
C36	C	-0.071203	0.071087	-0.068567
C37	C	-0.130604	0.070376	-0.068558
C38	C	-0.130602	0.070370	0.068701
C39	C	-0.071206	0.071085	0.068693
C40	C	-0.041508	0.071441	0.000053
O41	O	0.022759	0.072229	0.127010
O42	O	0.022812	0.072208	-0.126939
C43	C	0.677092	-0.030127	0.000076
C44	C	0.676337	-0.093345	0.000083
C45	C	0.671609	-0.485353	-0.068585
C46	C	0.670891	-0.544752	-0.068589
O47	O	0.670508	-0.575467	-0.126953
N48	N	0.670527	-0.574466	0.000036
C49	C	0.670875	-0.544776	0.068670
O50	O	0.670499	-0.575504	0.127041
C51	C	0.671588	-0.485378	0.068674
C52	C	0.671958	-0.455668	0.000044
C53	C	0.671978	-0.455643	-0.137209
C54	C	0.672696	-0.396248	-0.137205
C55	C	0.673045	-0.366563	-0.068576
C56	C	0.672676	-0.396273	0.000049
C57	C	0.671931	-0.455689	0.137307
C58	C	0.672644	-0.396286	0.137305
C59	C	0.673014	-0.366576	0.068675
C60	C	0.673744	-0.307193	0.068682
N61	N	0.674108	-0.277479	0.000057
C62	C	0.673758	-0.307164	-0.068572
C63	C	0.669376	-0.669518	0.068657
C64	C	0.668667	-0.728916	0.068654
C65	C	0.668683	-0.728888	-0.068605
C66	C	0.669396	-0.669489	-0.068602
C67	C	0.669740	-0.639804	0.000032
C68	C	0.675267	-0.182430	-0.068557
C69	C	0.675988	-0.123030	-0.068546
C70	C	0.675969	-0.123063	0.068713
C71	C	0.675252	-0.182459	0.068703
C72	C	0.674899	-0.212140	0.000062
O73	O	0.674125	-0.276440	0.127016
O74	O	0.674127	-0.276428	-0.126933
C75	C	0.776477	0.069260	0.000067
C76	C	0.839695	0.070015	0.000069
C77	C	0.667560	0.178176	0.000037
C78	C	0.668315	0.241394	0.000025
N79	N	0.672308	0.074018	0.179220
N80	N	0.672348	0.074027	-0.179106
C81	C	0.711266	0.035092	0.218842
C82	C	0.711269	0.035089	0.298089
C83	C	0.672321	0.074022	0.337713
C84	C	0.633356	0.112950	0.298082
C85	C	0.633350	0.112948	0.218836
N86	N	0.664777	0.124459	0.462121
N87	N	0.664786	0.124459	0.537401
C88	C	0.672335	0.074030	0.576477
N89	N	0.679887	0.023598	0.537427
N90	N	0.679881	0.023599	0.462140
C91	C	0.672322	0.074028	0.423642
C92	C	0.711298	0.035098	0.702027
C93	C	0.711298	0.035095	0.781276
C94	C	0.633388	0.112960	0.781267
C95	C	0.633385	0.112959	0.702020
C96	C	0.672344	0.074028	0.662404
H97	H	0.391676	0.076663	0.124559
H98	H	0.226203	0.074671	-0.193096
Br99	Br	-0.030907	0.071571	-0.161722
Br100	Br	0.669848	-0.629238	0.161812
H101	H	0.742994	0.003390	0.330355
Br102	Br	0.102341	0.073182	-0.230353
Br103	Br	0.580514	0.165791	0.648242
H104	H	0.391682	0.076672	-0.124477
H105	H	0.743019	0.003397	0.669771
H106	H	0.499447	0.077972	-0.124474
H107	H	0.743020	0.003394	0.813536
H108	H	0.226181	0.074644	0.193195
H109	H	0.676290	-0.098843	-0.124435
Br110	Br	0.674763	-0.222782	0.161844
Br111	Br	0.580475	0.165779	0.165059
Br112	Br	0.674788	-0.222703	-0.161714
H113	H	-0.154779	0.070090	-0.124449
H114	H	0.669696	-0.645303	-0.124486
Br115	Br	0.580522	0.165792	0.835035
H116	H	0.668397	-0.753068	-0.124487
Br117	Br	0.580493	0.165784	0.351853
Br118	Br	0.673110	-0.356002	0.230456
H119	H	0.118433	0.073347	0.193194
H120	H	0.499422	0.077973	0.124553
Br121	Br	-0.030906	0.071573	0.161835
H122	H	0.672995	-0.372063	-0.193090
Br123	Br	-0.170922	0.069884	0.161834
H124	H	0.742987	0.003391	0.186589
Br125	Br	0.671503	-0.495919	-0.230362
H126	H	0.671631	-0.479868	0.193193
H127	H	0.668375	-0.753102	0.124540
H128	H	0.676256	-0.098883	0.124589
