data_functionalizedCrystal
_audit_creation_method	'MofGen! by Chris Wilmer'
_symmetry_space_group_name_H-M	'P1'
_symmetry_Int_Tables_number	1
_symmetry_cell_setting	triclinic
loop_
_symmetry_equiv_pos_as_xyz
  x,y,z
_cell_length_a	19.805407
_cell_length_b	18.101395
_cell_length_c	19.805398
_cell_angle_alpha	89.976545
_cell_angle_beta	89.984135
_cell_angle_gamma	90.031104
loop_
_atom_site_label
_atom_site_type_symbol
_atom_site_fract_x
_atom_site_fract_y
_atom_site_fract_z
Zn1	Zn	1.034689	-0.294859	-0.382731
Zn2	Zn	1.284689	-0.044859	-0.132731
Zn3	Zn	1.534689	0.205141	0.117269
Zn4	Zn	1.784689	0.455141	0.367269
Zn5	Zn	1.034602	-0.418699	-0.269548
Zn6	Zn	1.284602	-0.168699	-0.019548
Zn7	Zn	1.534602	0.081301	0.230452
Zn8	Zn	1.784602	0.331301	0.480452
Zn9	Zn	0.921511	-0.294876	-0.269556
Zn10	Zn	1.171511	-0.044876	-0.019556
Zn11	Zn	1.421511	0.205124	0.230444
Zn12	Zn	1.671511	0.455124	0.480444
Zn13	Zn	0.921458	-0.418663	-0.382695
Zn14	Zn	1.171458	-0.168663	-0.132695
Zn15	Zn	1.421458	0.081337	0.117305
Zn16	Zn	1.671458	0.331337	0.367305
O17	O	0.978065	-0.356774	-0.326132
O18	O	1.228065	-0.106774	-0.076132
O19	O	1.478065	0.143226	0.173868
O20	O	1.728065	0.393226	0.423868
O21	O	1.129394	-0.311295	-0.367729
O22	O	1.379394	-0.061295	-0.117729
O23	O	1.629394	0.188705	0.132271
O24	O	1.879394	0.438705	0.382271
O25	O	1.019586	-0.402296	-0.174832
O26	O	1.269586	-0.152296	0.075168
O27	O	1.519586	0.097704	0.325168
O28	O	1.769586	0.347704	0.575168
O29	O	0.936583	-0.191241	-0.284587
O30	O	1.186583	0.058759	-0.034587
O31	O	1.436583	0.308759	0.215413
O32	O	1.686583	0.558759	0.465413
O33	O	1.129330	-0.402279	-0.284574
O34	O	1.379330	-0.152279	-0.034574
O35	O	1.629330	0.097721	0.215426
O36	O	1.879330	0.347721	0.465426
O37	O	1.019734	-0.191228	-0.367737
O38	O	1.269734	0.058772	-0.117737
O39	O	1.519734	0.308772	0.132263
O40	O	1.769734	0.558772	0.382263
O41	O	0.936498	-0.311323	-0.174838
O42	O	1.186498	-0.061323	0.075162
O43	O	1.436498	0.188677	0.325162
O44	O	1.686498	0.438677	0.575162
O45	O	0.826787	-0.311289	-0.284552
O46	O	1.076787	-0.061289	-0.034552
O47	O	1.326787	0.188711	0.215448
O48	O	1.576787	0.438711	0.465448
O49	O	0.936492	-0.402218	-0.477416
O50	O	1.186492	-0.152218	-0.227416
O51	O	1.436492	0.097782	0.022584
O52	O	1.686492	0.347782	0.272584
O53	O	0.826748	-0.402235	-0.367674
O54	O	1.076748	-0.152235	-0.117674
O55	O	1.326748	0.097765	0.132326
O56	O	1.576748	0.347765	0.382326
O57	O	1.019683	-0.311260	-0.477443
O58	O	1.269683	-0.061260	-0.227443
O59	O	1.519683	0.188740	0.022557
O60	O	1.769683	0.438740	0.272557
O61	O	1.019534	-0.522327	-0.284538
O62	O	1.269534	-0.272327	-0.034538
O63	O	1.519534	-0.022327	0.215462
O64	O	1.769534	0.227673	0.465462
O65	O	0.936408	-0.522301	-0.367667
O66	O	1.186408	-0.272301	-0.117667
O67	O	1.436408	-0.022301	0.132333
O68	O	1.686408	0.227699	0.382333
C69	C	0.802209	-0.356760	-0.326110
C70	C	1.052209	-0.106760	-0.076110
C71	C	1.302209	0.143240	0.173890
C72	C	1.552209	0.393240	0.423890
C73	C	0.726977	-0.356772	-0.326117
C74	C	0.976977	-0.106772	-0.076117
C75	C	1.226977	0.143228	0.173883
C76	C	1.476977	0.393228	0.423883
C77	C	0.977974	-0.549185	-0.326112
C78	C	1.227974	-0.299185	-0.076112
C79	C	1.477974	-0.049185	0.173888
C80	C	1.727974	0.200815	0.423888
C81	C	0.977997	-0.631499	-0.326127
C82	C	1.227997	-0.381499	-0.076127
C83	C	1.477997	-0.131499	0.173873
C84	C	1.727997	0.118501	0.423873
C85	C	0.691630	-0.404199	-0.369329
C86	C	0.941630	-0.154199	-0.119329
C87	C	1.191630	0.095801	0.130671
C88	C	1.441630	0.345801	0.380671
C89	C	0.620942	-0.404200	-0.369339
C90	C	0.870942	-0.154200	-0.119339
C91	C	1.120942	0.095800	0.130661
C92	C	1.370942	0.345800	0.380661
C93	C	0.585601	-0.356778	-0.326132
C94	C	0.835601	-0.106778	-0.076132
C95	C	1.085601	0.143222	0.173868
C96	C	1.335601	0.393222	0.423868
C97	C	0.620953	-0.309345	-0.282919
C98	C	0.870953	-0.059345	-0.032919
C99	C	1.120953	0.190655	0.217081
C100	C	1.370953	0.440655	0.467081
C101	C	0.691640	-0.309341	-0.282913
C102	C	0.941640	-0.059341	-0.032913
C103	C	1.191640	0.190659	0.217087
C104	C	1.441640	0.440659	0.467087
C105	C	0.335880	-0.309362	-0.282941
C106	C	0.585880	-0.059362	-0.032941
C107	C	0.835880	0.190638	0.217059
C108	C	1.085880	0.440638	0.467059
C109	C	0.265187	-0.309372	-0.282948
C110	C	0.515187	-0.059372	-0.032948
C111	C	0.765187	0.190628	0.217052
C112	C	1.015187	0.440628	0.467052
C113	C	0.265181	-0.404221	-0.369367
C114	C	0.515181	-0.154221	-0.119367
C115	C	0.765181	0.095779	0.130633
C116	C	1.015181	0.345779	0.380633
C117	C	0.335868	-0.404216	-0.369361
C118	C	0.585868	-0.154216	-0.119361
C119	C	0.835868	0.095784	0.130639
C120	C	1.085868	0.345784	0.380639
C121	C	0.371214	-0.356782	-0.326150
C122	C	0.621214	-0.106782	-0.076150
C123	C	0.871214	0.143218	0.173850
C124	C	1.121214	0.393218	0.423850
C125	C	0.447862	-0.356780	-0.326141
C126	C	0.697862	-0.106780	-0.076141
C127	C	0.947862	0.143220	0.173859
C128	C	1.197862	0.393220	0.423859
C129	C	0.508954	-0.356783	-0.326137
C130	C	0.758954	-0.106783	-0.076137
C131	C	1.008954	0.143217	0.173863
C132	C	1.258954	0.393217	0.423863
C133	C	0.978146	-0.930590	-0.326163
C134	C	1.228146	-0.680590	-0.076163
C135	C	1.478146	-0.430590	0.173837
C136	C	1.728146	-0.180590	0.423837
C137	C	0.925966	-0.899279	-0.378595
C138	C	1.175966	-0.649279	-0.128595
C139	C	1.425966	-0.399279	0.121405
C140	C	1.675966	-0.149279	0.371405
C141	C	0.925718	-0.813661	-0.378431
C142	C	1.175718	-0.563661	-0.128431
C143	C	1.425718	-0.313661	0.121569
C144	C	1.675718	-0.063661	0.371569
C145	C	0.978072	-0.782207	-0.326146
C146	C	1.228072	-0.532207	-0.076146
C147	C	1.478072	-0.282207	0.173854
C148	C	1.728072	-0.032207	0.423854
C149	C	0.958766	-0.813353	-0.254811
C150	C	1.208766	-0.563353	-0.004811
C151	C	1.458766	-0.313353	0.245189
C152	C	1.708766	-0.063353	0.495189
C153	C	0.958430	-0.898999	-0.255125
C154	C	1.208430	-0.648999	-0.005125
C155	C	1.458430	-0.398999	0.244875
C156	C	1.708430	-0.148999	0.494875
C157	C	1.049746	-0.898935	-0.344438
C158	C	1.299746	-0.648935	-0.094438
C159	C	1.549746	-0.398935	0.155562
C160	C	1.799746	-0.148935	0.405562
C161	C	1.049325	-0.813284	-0.346002
C162	C	1.299325	-0.563284	-0.096002
C163	C	1.549325	-0.313284	0.153998
C164	C	1.799325	-0.063284	0.403998
C165	C	0.978032	-0.698348	-0.326131
C166	C	1.228032	-0.448348	-0.076131
C167	C	1.478032	-0.198348	0.173869
C168	C	1.728032	0.051652	0.423869
C169	C	0.978185	-1.014449	-0.326173
C170	C	1.228185	-0.764449	-0.076173
C171	C	1.478185	-0.514449	0.173827
C172	C	1.728185	-0.264449	0.423827
C173	C	1.154607	-0.356789	-0.326155
C174	C	1.404607	-0.106789	-0.076155
C175	C	1.654607	0.143211	0.173845
C176	C	1.904607	0.393211	0.423845
C177	C	1.229839	-0.356795	-0.326164
C178	C	1.479839	-0.106795	-0.076164
C179	C	1.729839	0.143205	0.173836
C180	C	1.979839	0.393205	0.423836
C181	C	0.978091	-0.356733	-0.502675
C182	C	1.228091	-0.106733	-0.252675
C183	C	1.478091	0.143267	-0.002675
C184	C	1.728091	0.393267	0.247325
C185	C	0.978103	-0.356716	-0.577907
C186	C	1.228103	-0.106716	-0.327907
C187	C	1.478103	0.143284	-0.077907
C188	C	1.728103	0.393284	0.172093
C189	C	0.978174	-0.163612	-0.326167
C190	C	1.228174	0.086388	-0.076167
C191	C	1.478174	0.336388	0.173833
C192	C	1.728174	0.586388	0.423833
C193	C	0.978221	-0.081298	-0.326182
C194	C	1.228221	0.168702	-0.076182
C195	C	1.478221	0.418702	0.173818
C196	C	1.728221	0.668702	0.423818
C197	C	1.021501	-0.309223	-1.039714
C198	C	1.271501	-0.059223	-0.789714
C199	C	1.521501	0.190777	-0.539714
C200	C	1.771501	0.440777	-0.289714
C201	C	1.021491	-0.309245	-0.969025
C202	C	1.271491	-0.059245	-0.719025
C203	C	1.521491	0.190755	-0.469025
C204	C	1.771491	0.440755	-0.219025
C205	C	0.978172	-0.356613	-0.933669
C206	C	1.228172	-0.106613	-0.683669
C207	C	1.478172	0.143387	-0.433669
C208	C	1.728172	0.393387	-0.183669
C209	C	0.934866	-0.403966	-0.969005
C210	C	1.184866	-0.153966	-0.719005
C211	C	1.434866	0.096034	-0.469005
C212	C	1.684866	0.346034	-0.219005
C213	C	0.934880	-0.403946	-1.039692
C214	C	1.184880	-0.153946	-0.789692
C215	C	1.434880	0.096054	-0.539692
C216	C	1.684880	0.346054	-0.289692
C217	C	0.934807	-0.404046	-0.683932
C218	C	1.184807	-0.154046	-0.433932
C219	C	1.434807	0.095954	-0.183932
C220	C	1.684807	0.345954	0.066068
C221	C	0.934794	-0.404060	-0.613240
C222	C	1.184794	-0.154060	-0.363240
C223	C	1.434794	0.095940	-0.113240
C224	C	1.684794	0.345940	0.136760
C225	C	1.021417	-0.309345	-0.613264
C226	C	1.271417	-0.059345	-0.363264
C227	C	1.521417	0.190655	-0.113264
C228	C	1.771417	0.440655	0.136736
C229	C	1.021432	-0.309326	-0.683952
C230	C	1.271432	-0.059326	-0.433952
C231	C	1.521432	0.190674	-0.183952
C232	C	1.771432	0.440674	0.066048
C233	C	0.978129	-0.356681	-0.719282
C234	C	1.228129	-0.106681	-0.469282
C235	C	1.478129	0.143319	-0.219282
C236	C	1.728129	0.393319	0.030718
C237	C	0.978142	-0.356657	-0.795930
C238	C	1.228142	-0.106657	-0.545930
C239	C	1.478142	0.143343	-0.295930
C240	C	1.728142	0.393343	-0.045930
C241	C	0.978155	-0.356634	-0.857022
C242	C	1.228155	-0.106634	-0.607022
C243	C	1.478155	0.143366	-0.357022
C244	C	1.728155	0.393366	-0.107022
C245	C	0.978077	-0.356762	-0.150276
C246	C	1.228077	-0.106762	0.099724
C247	C	1.478077	0.143238	0.349724
C248	C	1.728077	0.393238	0.599724
C249	C	0.978197	-0.356570	-0.075045
C250	C	1.228197	-0.106570	0.174955
C251	C	1.478197	0.143430	0.424955
C252	C	1.728197	0.393430	0.674955
H253	H	0.720399	-0.442818	-0.404510
H254	H	0.970399	-0.192818	-0.154510
H255	H	1.220399	0.057182	0.095490
H256	H	1.470399	0.307182	0.345490
H257	H	0.364649	-0.270743	-0.247751
H258	H	0.614649	-0.020743	0.002249
H259	H	0.864649	0.229257	0.252249
H260	H	1.114649	0.479257	0.502249
H261	H	0.592173	-0.270730	-0.247742
H262	H	0.842173	-0.020730	0.002258
H263	H	1.092173	0.229270	0.252258
H264	H	1.342173	0.479270	0.502258
Cl265	Cl	0.736076	-0.249714	-0.228589
Cl266	Cl	0.986076	0.000286	0.021411
Cl267	Cl	1.236076	0.250286	0.271411
Cl268	Cl	1.486076	0.500286	0.521411
H269	H	1.088622	-0.919182	-0.306250
H270	H	1.338622	-0.669182	-0.056250
H271	H	1.588622	-0.419182	0.193750
H272	H	1.838622	-0.169182	0.443750
Cl273	Cl	0.878812	-0.780342	-0.230481
Cl274	Cl	1.128812	-0.530342	0.019519
Cl275	Cl	1.378812	-0.280342	0.269519
Cl276	Cl	1.628812	-0.030342	0.519519
H277	H	1.056704	-0.270751	-0.712735
H278	H	1.306704	-0.020751	-0.462735
H279	H	1.556704	0.229249	-0.212735
H280	H	1.806704	0.479249	0.037265
H281	H	0.592165	-0.442820	-0.404525
H282	H	0.842165	-0.192820	-0.154525
H283	H	1.092165	0.057180	0.095475
H284	H	1.342165	0.307180	0.345475
H285	H	0.899514	-0.442632	-0.584455
H286	H	1.149514	-0.192632	-0.334455
H287	H	1.399514	0.057368	-0.084455
H288	H	1.649514	0.307368	0.165545
Cl289	Cl	0.880371	-0.463582	-0.728338
Cl290	Cl	1.130371	-0.213582	-0.478338
Cl291	Cl	1.380371	0.036418	-0.228338
Cl292	Cl	1.630371	0.286418	0.021662
H293	H	1.056772	-0.270646	-1.068495
H294	H	1.306772	-0.020646	-0.818495
H295	H	1.556772	0.229354	-0.568495
H296	H	1.806772	0.479354	-0.318495
H297	H	1.056755	-0.270692	-0.940261
H298	H	1.306755	-0.020692	-0.690261
H299	H	1.556755	0.229308	-0.440261
H300	H	1.806755	0.479308	-0.190261
Cl301	Cl	0.843779	-0.782122	-0.359744
Cl302	Cl	1.093779	-0.532122	-0.109744
Cl303	Cl	1.343779	-0.282122	0.140256
Cl304	Cl	1.593779	-0.032122	0.390256
H305	H	0.899618	-0.442503	-1.068458
H306	H	1.149618	-0.192503	-0.818458
H307	H	1.399618	0.057497	-0.568458
H308	H	1.649618	0.307497	-0.318458
H309	H	1.056679	-0.270788	-0.584490
H310	H	1.306679	-0.020788	-0.334490
H311	H	1.556679	0.229212	-0.084490
H312	H	1.806679	0.479212	0.165510
Cl313	Cl	0.877622	-0.929945	-0.231225
Cl314	Cl	1.127622	-0.679945	0.018775
Cl315	Cl	1.377622	-0.429945	0.268775
Cl316	Cl	1.627622	-0.179945	0.518775
H317	H	0.364639	-0.442835	-0.404542
H318	H	0.614639	-0.192835	-0.154542
H319	H	0.864639	0.057165	0.095458
H320	H	1.114639	0.307165	0.345458
H321	H	0.937797	-0.792601	-0.431325
H322	H	1.187797	-0.542601	-0.181325
H323	H	1.437797	-0.292601	0.068675
H324	H	1.687797	-0.042601	0.318675
Cl325	Cl	0.220742	-0.463853	-0.423690
Cl326	Cl	0.470742	-0.213853	-0.173690
Cl327	Cl	0.720742	0.036147	0.076310
Cl328	Cl	0.970742	0.286147	0.326310
H329	H	0.899598	-0.442537	-0.940213
H330	H	1.149598	-0.192537	-0.690213
H331	H	1.399598	0.057463	-0.440213
H332	H	1.649598	0.307463	-0.190213
H333	H	0.236415	-0.270750	-0.247765
H334	H	0.486415	-0.020750	0.002235
H335	H	0.736415	0.229250	0.252235
H336	H	0.986415	0.479250	0.502235
H337	H	0.937925	-0.919830	-0.431660
H338	H	1.187925	-0.669830	-0.181660
H339	H	1.437925	-0.419830	0.068340
H340	H	1.687925	-0.169830	0.318340
Cl341	Cl	0.844527	-0.932621	-0.360156
Cl342	Cl	1.094527	-0.682621	-0.110156
Cl343	Cl	1.344527	-0.432621	0.139844
Cl344	Cl	1.594527	-0.182621	0.389844
H345	H	1.067349	-0.920487	-0.395569
H346	H	1.317349	-0.670487	-0.145569
H347	H	1.567349	-0.420487	0.104431
H348	H	1.817349	-0.170487	0.354431
Cl349	Cl	1.014553	-0.930984	-0.192748
Cl350	Cl	1.264553	-0.680984	0.057252
Cl351	Cl	1.514553	-0.430984	0.307252
Cl352	Cl	1.764553	-0.180984	0.557252
Cl353	Cl	1.015595	-0.781901	-0.192848
Cl354	Cl	1.265595	-0.531901	0.057152
Cl355	Cl	1.515595	-0.281901	0.307152
Cl356	Cl	1.765595	-0.031901	0.557152
Cl357	Cl	1.112526	-0.780216	-0.291344
Cl358	Cl	1.362526	-0.530216	-0.041344
Cl359	Cl	1.612526	-0.280216	0.208656
Cl360	Cl	1.862526	-0.030216	0.458656
Cl361	Cl	1.071806	-0.781852	-0.427056
Cl362	Cl	1.321806	-0.531852	-0.177056
Cl363	Cl	1.571806	-0.281852	0.072944
Cl364	Cl	1.821806	-0.031852	0.322944
