data_functionalizedCrystal
_audit_creation_method	'MofGen! by Chris Wilmer'
_symmetry_space_group_name_H-M	'P1'
_symmetry_Int_Tables_number	1
_symmetry_cell_setting	triclinic
loop_
_symmetry_equiv_pos_as_xyz
  x,y,z
_cell_length_a	12.759401
_cell_length_b	12.759400
_cell_length_c	12.759393
_cell_angle_alpha	89.969104
_cell_angle_beta	89.979158
_cell_angle_gamma	90.022338
loop_
_atom_site_label
_atom_site_type_symbol
_atom_site_fract_x
_atom_site_fract_y
_atom_site_fract_z
Zn1	Zn	-1.606203	0.418193	0.594052
Zn2	Zn	-1.606075	0.593912	0.418374
Zn3	Zn	-1.430505	0.418248	0.418384
Zn4	Zn	-1.430471	0.593831	0.594008
O5	O	-1.518313	0.506046	0.506205
O6	O	-1.753207	0.441512	0.570762
O7	O	-1.582746	0.570666	0.271354
O8	O	-1.453879	0.271220	0.441709
O9	O	-1.753113	0.570612	0.441692
O10	O	-1.582963	0.271179	0.570772
O11	O	-1.453755	0.441607	0.271362
O12	O	-1.283479	0.441530	0.441667
O13	O	-1.453822	0.570476	0.741035
O14	O	-1.283455	0.570530	0.570697
O15	O	-1.582931	0.441435	0.741067
O16	O	-1.582713	0.740922	0.441650
O17	O	-1.453698	0.740863	0.570688
C18	C	-1.245346	0.506028	0.506179
C19	C	-1.128569	0.506045	0.506193
C20	C	-0.964037	0.438937	0.573511
C21	C	-1.073761	0.438936	0.573503
C22	C	-1.073648	0.573167	0.438895
C23	C	-0.963926	0.573172	0.438910
C24	C	-0.964104	0.361436	0.651223
C25	C	-1.073828	0.361436	0.651214
C26	C	-0.792347	0.506059	0.506224
C27	C	-0.909123	0.506051	0.506216
C28	C	-1.518217	0.779013	0.506186
C29	C	-1.518271	0.895790	0.506213
C30	C	-1.451071	0.950660	0.573348
C31	C	-1.451112	1.060384	0.573354
C32	C	-1.585562	1.060359	0.439088
C33	C	-1.585515	0.950637	0.439077
C34	C	-1.373451	0.950675	0.650869
C35	C	-1.373492	1.060399	0.650875
C36	C	-1.518387	0.505940	0.780238
C37	C	-1.518418	0.505895	0.897015
C38	C	-1.518406	1.232013	0.506238
C39	C	-1.518359	1.115236	0.506230
C40	C	-1.518301	0.506076	0.233237
C41	C	-1.518473	0.505825	0.116461
C42	C	-1.585655	0.438697	0.951895
C43	C	-1.585680	0.438659	1.061619
C44	C	-1.451229	0.573026	1.061573
C45	C	-1.451199	0.573058	0.951851
C46	C	-1.663282	0.361124	0.951923
C47	C	-1.663307	0.361086	1.061647
H48	H	-1.103625	0.280042	0.629546
H49	H	-0.934360	0.383321	0.732561
H50	H	-1.640225	0.905963	0.384401
O51	O	-1.276332	0.915415	0.624720
C52	C	-1.099386	0.961409	0.577225
C53	C	-1.209325	1.001482	0.606800
H54	H	-1.045175	1.030973	0.562750
H55	H	-1.104642	0.911853	0.503091
H56	H	-1.066934	0.911720	0.644020
H57	H	-1.241842	1.051214	0.540074
H58	H	-1.204003	1.050981	0.680966
O59	O	-1.385914	0.638229	0.898377
C60	C	-1.326319	0.697870	0.729325
C61	C	-1.400294	0.623991	0.789753
H62	H	-1.337935	0.686400	0.641492
H63	H	-1.241596	0.679395	0.750817
H64	H	-1.344713	0.782572	0.750942
H65	H	-1.381994	0.539264	0.768168
H66	H	-1.484995	0.642556	0.768255
O67	O	-1.399402	1.096029	0.747920
C68	C	-1.428885	1.246743	0.857753
C69	C	-1.399505	1.206535	0.747816
H70	H	-1.428999	1.336091	0.857699
H71	H	-1.369275	1.217056	0.917306
H72	H	-1.510212	1.216838	0.879627
H73	H	-1.318203	1.236424	0.725843
H74	H	-1.459182	1.236213	0.688327
O75	O	-0.923334	0.269252	0.616660
C76	C	-0.766945	0.170102	0.579701
C77	C	-0.812977	0.274575	0.618806
H78	H	-0.677715	0.174363	0.581444
H79	H	-0.794388	0.154868	0.496063
H80	H	-0.794665	0.103697	0.632723
H81	H	-0.785277	0.341045	0.565861
H82	H	-0.785539	0.289717	0.702461
O83	O	-1.650865	1.113801	0.373993
C84	C	-1.710510	1.282822	0.314487
C85	C	-1.636507	1.222433	0.388267
H86	H	-1.698912	1.370662	0.325987
H87	H	-1.795224	1.261239	0.333032
H88	H	-1.692127	1.261262	0.229758
H89	H	-1.654795	1.243961	0.473022
H90	H	-1.551815	1.244023	0.369632
O91	O	-1.760419	0.387152	1.097010
C92	C	-1.937370	0.434547	1.051204
C93	C	-1.827441	0.405063	1.011014
H94	H	-1.991594	0.449015	0.981698
H95	H	-1.932099	0.508663	1.100786
H96	H	-1.969818	0.367709	1.100895
H97	H	-1.794929	0.471833	0.961280
H98	H	-1.832778	0.330915	0.961489
O99	O	-1.755377	0.396078	0.911265
C100	C	-1.841042	0.524936	0.802992
C101	C	-1.736678	0.485473	0.848987
H102	H	-1.825957	0.597204	0.752613
H103	H	-1.896870	0.546044	0.869485
H104	H	-1.877559	0.460718	0.752767
H105	H	-1.700071	0.549644	0.899200
H106	H	-1.680923	0.464335	0.782445
O107	O	-1.386041	0.638237	1.115005
C108	C	-1.326451	0.697692	1.284017
C109	C	-1.400346	0.623802	1.223640
H110	H	-1.337976	0.686031	1.371858
H111	H	-1.344858	0.782440	1.262505
H112	H	-1.241750	0.679254	1.262374
H113	H	-1.485072	0.642145	1.245250
H114	H	-1.381849	0.539076	1.245157
H115	H	-1.118281	0.627816	0.384099
O116	O	-0.910744	0.638405	0.373447
C117	C	-0.922215	0.771599	0.239989
C118	C	-0.982573	0.697754	0.314057
H119	H	-0.980262	0.819618	0.191969
H120	H	-0.870864	0.723359	0.185066
H121	H	-0.870823	0.826542	0.288161
H122	H	-1.034022	0.642796	0.265970
H123	H	-1.033858	0.746059	0.368983
O124	O	-1.408128	0.910151	0.743188
C125	C	-1.473486	0.946400	0.916624
C126	C	-1.434212	0.992434	0.812137
H127	H	-1.494606	1.012904	0.972390
H128	H	-1.409250	0.896182	0.953132
H129	H	-1.545754	0.896022	0.901670
H130	H	-1.361963	1.042860	0.827002
H131	H	-1.498511	1.042593	0.775662
O132	O	-1.281397	1.101159	0.615879
C133	C	-1.195735	1.209572	0.487019
C134	C	-1.300095	1.163457	0.526522
H135	H	-1.210819	1.259968	0.414782
H136	H	-1.139888	1.143144	0.465850
H137	H	-1.159242	1.259805	0.551238
H138	H	-1.336680	1.113236	0.462350
H139	H	-1.355870	1.229935	0.547722
H140	H	-1.107885	0.390669	0.728459
O141	O	-1.637257	0.264016	0.916589
C142	C	-1.590004	0.087010	0.962446
C143	C	-1.619442	0.196936	1.002604
H144	H	-1.575614	0.032740	1.031969
H145	H	-1.515854	0.092260	0.912841
H146	H	-1.656833	0.054631	0.912787
H147	H	-1.552682	0.229379	1.052307
H148	H	-1.693624	0.191620	1.052153
H149	H	-1.634203	0.283777	1.095693
