data_functionalizedCrystal
_audit_creation_method	'MofGen! by Chris Wilmer'
_symmetry_space_group_name_H-M	'P1'
_symmetry_Int_Tables_number	1
_symmetry_cell_setting	triclinic
loop_
_symmetry_equiv_pos_as_xyz
  x,y,z
_cell_length_a	11.169417
_cell_length_b	21.395361
_cell_length_c	21.395356
_cell_angle_alpha	90.030681
_cell_angle_beta	89.979762
_cell_angle_gamma	89.968413
loop_
_atom_site_label
_atom_site_type_symbol
_atom_site_fract_x
_atom_site_fract_y
_atom_site_fract_z
Zn1	Zn	1.834797	0.249440	-0.354192
Zn2	Zn	1.834614	0.354216	-0.249409
Zn3	Zn	1.634082	0.249458	-0.249435
Zn4	Zn	1.634019	0.354185	-0.354156
O5	O	1.734378	0.301825	-0.301798
O6	O	2.002723	0.263344	-0.340297
O7	O	1.807962	0.340341	-0.161735
O8	O	1.660810	0.161778	-0.263358
O9	O	2.002588	0.340323	-0.263314
O10	O	1.808275	0.161764	-0.340322
O11	O	1.660632	0.263375	-0.161754
O12	O	1.466124	0.263345	-0.263322
O13	O	1.660704	0.340270	-0.441838
O14	O	1.466078	0.340287	-0.340260
O15	O	1.808214	0.263314	-0.441865
O16	O	1.807902	0.441890	-0.263278
O17	O	1.660526	0.441867	-0.340235
C18	C	1.734220	0.464612	-0.301763
C19	C	1.734262	0.534254	-0.301769
C20	C	1.422553	0.301815	-0.301790
C21	C	1.289153	0.301826	-0.301801
C22	C	1.734472	0.301786	-0.465221
C23	C	1.734513	0.301769	-0.534863
C24	C	2.047420	0.301835	-0.301807
C25	C	2.180820	0.301839	-0.301810
C26	C	1.734570	0.138402	-0.301847
C27	C	1.734652	0.068760	-0.301868
C28	C	1.811068	0.566958	-0.261739
C29	C	1.811124	0.632393	-0.261753
C30	C	1.734352	0.665122	-0.301791
C31	C	1.657540	0.632410	-0.341829
C32	C	1.657495	0.566976	-0.341818
C33	C	1.626288	0.768837	-0.306704
C34	C	1.626331	0.834270	-0.306710
C35	C	1.734492	0.866943	-0.301828
C36	C	1.842613	0.834174	-0.296925
C37	C	1.842568	0.768740	-0.296914
C38	C	1.734393	0.736074	-0.301807
C39	C	1.811365	0.970600	-0.261810
C40	C	1.811423	1.036036	-0.261829
C41	C	1.657828	1.036051	-0.341901
C42	C	1.657781	0.970616	-0.341886
C43	C	1.734548	0.937894	-0.301837
C44	C	1.657818	0.261689	-0.567576
C45	C	1.657814	0.261678	-0.633011
C46	C	1.734526	0.301740	-0.665731
C47	C	1.811226	0.341828	-0.633010
C48	C	1.811219	0.341843	-0.567576
C49	C	1.842661	0.306665	-0.769414
C50	C	1.842670	0.306645	-0.834847
C51	C	1.734546	0.301697	-0.867552
C52	C	1.626409	0.296755	-0.834816
C53	C	1.626403	0.296770	-0.769382
C54	C	1.734541	0.301728	-0.736684
C55	C	1.657841	0.261602	-0.971218
C56	C	1.657834	0.261595	-1.036654
C57	C	1.811256	0.341742	-1.036652
C58	C	1.811252	0.341753	-0.971217
C59	C	1.734546	0.301679	-0.938503
C60	C	1.734353	0.301818	-0.139011
C61	C	1.734545	0.301658	-0.069370
H62	H	1.873674	0.659026	-0.229156
O63	O	1.894003	0.384971	-0.935933
H64	H	1.873380	0.434144	-0.948475
H65	H	1.595034	0.659062	-0.374429
O66	O	1.575108	0.218387	-0.935926
H67	H	1.480899	0.229132	-0.948459
H68	H	1.873878	0.943956	-0.229202
H69	H	1.873976	1.062663	-0.229232
H70	H	1.595324	1.062698	-0.374504
H71	H	1.930721	0.310666	-0.861495
O72	O	1.509783	0.291420	-0.870086
H73	H	1.465064	0.246840	-0.857541
H74	H	1.873678	0.374480	-0.540941
O75	O	1.893954	0.385042	-0.668300
H76	H	1.947276	0.412922	-0.634556
O77	O	1.893879	0.531663	-0.218554
H78	H	1.947307	0.565402	-0.190726
O79	O	1.959173	0.733394	-0.291636
H80	H	2.034398	0.767101	-0.288247
H81	H	1.595233	0.943986	-0.374480
O82	O	1.959289	0.311997	-0.734140
H83	H	2.034482	0.315419	-0.767894
O84	O	1.509722	0.869612	-0.311994
H85	H	1.464905	0.857050	-0.356554
O86	O	1.959292	0.869396	-0.291656
H87	H	1.971540	0.899166	-0.333642
O88	O	1.509621	0.733599	-0.311967
H89	H	1.434447	0.767376	-0.315366
H90	H	1.594948	0.540347	-0.374416
H91	H	1.595354	0.229061	-0.540945
H92	H	1.595372	0.228959	-1.063288
O93	O	1.575103	0.218441	-0.668307
H94	H	1.521771	0.190575	-0.634567
O95	O	1.509783	0.291436	-0.734071
H96	H	1.434593	0.287992	-0.767800
O97	O	1.894002	0.384953	-1.071932
H98	H	1.881128	0.378208	-1.122929
