data_functionalizedCrystal
_audit_creation_method	'MofGen! by Chris Wilmer'
_symmetry_space_group_name_H-M	'P1'
_symmetry_Int_Tables_number	1
_symmetry_cell_setting	triclinic
loop_
_symmetry_equiv_pos_as_xyz
  x,y,z
_cell_length_a	17.699077
_cell_length_b	10.540558
_cell_length_c	16.176319
_cell_angle_alpha	89.999964
_cell_angle_beta	89.993140
_cell_angle_gamma	96.093155
loop_
_atom_site_label
_atom_site_type_symbol
_atom_site_fract_x
_atom_site_fract_y
_atom_site_fract_z
O1	O	1.005131	-0.160483	-0.068723
O2	O	0.784889	-0.181375	-0.068726
O3	O	0.900028	0.013868	-0.068733
O4	O	0.889993	-0.355726	-0.068716
O5	O	0.900012	0.013880	0.068760
O6	O	0.784873	-0.181362	0.068768
O7	O	1.005115	-0.160471	0.068770
Cu8	Cu	0.894993	-0.170915	0.081323
Cu9	Cu	0.895012	-0.170930	-0.081279
O10	O	0.889977	-0.355713	0.068777
C11	C	0.756679	-0.180621	0.000020
C12	C	0.672646	-0.178379	0.000019
C13	C	0.633163	-0.177316	0.074967
C14	C	0.554207	-0.175189	0.074968
C15	C	0.514734	-0.174135	0.000019
C16	C	0.554223	-0.175194	-0.074935
C17	C	0.633179	-0.177312	-0.074935
C18	C	0.235804	-0.166652	-0.074937
C19	C	0.156842	-0.164538	-0.074931
C20	C	0.156832	-0.164530	0.074966
C21	C	0.235787	-0.166647	0.074966
C22	C	0.275270	-0.167700	0.000012
C23	C	0.360884	-0.170004	0.000012
C24	C	0.429121	-0.171840	0.000019
C25	C	0.899264	0.061163	0.000009
C26	C	0.897004	0.202068	-0.000003
C27	C	0.810597	0.383910	-0.000322
C28	C	0.812889	0.237335	-0.000005
C29	C	0.937471	0.264474	0.078510
C30	C	0.934595	0.410965	0.078569
C31	C	0.936324	0.411501	-0.077787
C32	C	0.937104	0.264534	-0.078817
C33	C	1.033325	-0.161224	0.000022
C34	C	1.117358	-0.163466	0.000018
N35	N	0.894985	-0.170904	0.195688
C36	C	0.890730	0.596989	0.000020
C37	C	0.892961	0.456077	-0.000013
N38	N	0.895026	-0.170931	-0.195644
C39	C	0.945984	-0.084486	0.238949
C40	C	0.945988	-0.084485	0.325496
C41	C	0.894996	-0.170909	0.368781
C42	C	0.843991	-0.257331	0.325514
C43	C	0.843984	-0.257325	0.238968
C44	C	0.844017	-0.257355	0.674542
C45	C	0.844030	-0.257356	0.761094
C46	C	0.946021	-0.084514	0.761070
C47	C	0.946014	-0.084508	0.674524
C48	C	0.895007	-0.170926	0.631265
C49	C	0.895002	-0.170925	0.537421
C50	C	0.895003	-0.170917	0.462623
H51	H	0.781046	0.194144	-0.056286
Br52	Br	0.774822	-0.374655	0.819837
H53	H	0.777498	0.413516	0.055665
H54	H	0.802487	-0.327721	0.639327
Br55	Br	0.774763	-0.374604	0.180257
Br56	Br	0.500658	-0.173707	-0.176652
Br57	Br	0.759416	0.166756	0.093960
H58	H	0.904671	0.438621	0.137258
Br59	Br	0.686765	-0.178743	-0.176654
Br60	Br	0.686724	-0.178760	0.176689
H61	H	0.267922	-0.167512	0.135997
Br62	Br	0.103245	-0.163099	0.176691
Br63	Br	1.015197	0.032802	0.180215
Br64	Br	0.888175	0.194705	-0.175641
Br65	Br	0.755221	0.430547	-0.094173
H66	H	0.998431	0.241436	-0.083556
Br67	Br	0.500624	-0.173768	0.176688
H68	H	0.802469	-0.327695	0.360761
H69	H	0.124706	-0.163679	-0.135967
H70	H	0.267941	-0.167505	-0.135969
Br71	Br	1.035413	0.492771	0.084513
H72	H	0.999242	0.243253	0.081432
H73	H	0.987539	-0.014138	0.639285
H74	H	0.909347	0.221365	0.136941
H75	H	0.909106	0.442549	-0.137299
Br76	Br	1.037582	0.492067	-0.078672
Br77	Br	1.015245	0.032772	0.819783
Br78	Br	1.015199	0.032803	0.384210
