data_functionalizedCrystal
_audit_creation_method	'MofGen! by Chris Wilmer'
_symmetry_space_group_name_H-M	'P1'
_symmetry_Int_Tables_number	1
_symmetry_cell_setting	triclinic
loop_
_symmetry_equiv_pos_as_xyz
  x,y,z
_cell_length_a	13.339070
_cell_length_b	16.109298
_cell_length_c	12.376457
_cell_angle_alpha	101.278140
_cell_angle_beta	75.589755
_cell_angle_gamma	99.544741
loop_
_atom_site_label
_atom_site_type_symbol
_atom_site_fract_x
_atom_site_fract_y
_atom_site_fract_z
O1	O	-1.361542	-0.405316	0.093995
O2	O	-0.861542	0.094684	0.593995
O3	O	-1.067034	-0.350612	0.093995
O4	O	-0.567034	0.149388	0.593995
O5	O	-1.222381	-0.258800	0.094003
O6	O	-0.722381	0.241200	0.594003
O7	O	-1.206194	-0.497127	0.093987
O8	O	-0.706194	0.002873	0.593987
O9	O	-1.183558	-0.281713	-0.094011
O10	O	-0.683558	0.218287	0.405989
O11	O	-1.028210	-0.373524	-0.094019
O12	O	-0.528210	0.126476	0.405981
O13	O	-1.322719	-0.428228	-0.094019
O14	O	-0.822719	0.071772	0.405981
Zn15	Zn	-1.169300	-0.404514	-0.123871
Zn16	Zn	-0.669300	0.095486	0.376129
Zn17	Zn	-1.220452	-0.374326	0.123846
Zn18	Zn	-0.720452	0.125674	0.623846
O19	O	-1.167371	-0.520040	-0.094027
O20	O	-0.667371	-0.020040	0.405973
C21	C	-1.009936	-0.352827	-0.000012
C22	C	-0.509936	0.147173	0.499988
C23	C	-0.897644	-0.325283	-0.000011
C24	C	-0.397644	0.174717	0.499989
C25	C	-1.202316	-0.239130	0.000000
C26	C	-0.702316	0.260870	0.500000
C27	C	-1.200355	-0.146379	0.000014
C28	C	-0.700355	0.353621	0.500014
C29	C	-1.379817	-0.426012	-0.000010
C30	C	-0.879817	0.073988	0.499990
C31	C	-1.492110	-0.453556	-0.000004
C32	C	-0.992110	0.046444	0.499996
C33	C	-0.532778	-0.539450	-0.000008
C34	C	-0.032778	-0.039450	0.499992
C35	C	-0.638282	-0.565332	-0.000005
C36	C	-0.138282	-0.065332	0.499995
C37	C	-0.703128	-0.505322	-0.000007
C38	C	-0.203128	-0.005322	0.499993
C39	C	-0.662459	-0.419426	-0.000011
C40	C	-0.162459	0.080574	0.499989
C41	C	-0.556946	-0.393541	-0.000005
C42	C	-0.056946	0.106459	0.499995
C43	C	-0.727295	-0.359413	-0.000004
C44	C	-0.227295	0.140587	0.499996
C45	C	-0.686626	-0.273517	-0.000008
C46	C	-0.186626	0.226483	0.499992
C47	C	-0.581123	-0.247637	-0.000003
C48	C	-0.081123	0.252363	0.499997
C49	C	-0.516278	-0.307647	-0.000001
C50	C	-0.016278	0.192353	0.499999
C51	C	-0.832808	-0.385298	-0.000010
C52	C	-0.332808	0.114702	0.499990
C53	C	-0.856976	-0.239388	-0.000007
C54	C	-0.356976	0.260612	0.499993
C55	C	-0.751472	-0.213507	-0.000010
C56	C	-0.251472	0.286493	0.499990
C57	C	-1.187437	-0.539710	-0.000022
C58	C	-0.687437	-0.039710	0.499978
C59	C	-1.189399	-0.632460	-0.000028
C60	C	-0.689399	-0.132460	0.499972
C61	C	-1.215104	0.166656	0.102476
C62	C	-0.715104	0.666656	0.602476
C63	C	-1.216964	0.079508	0.102484
C64	C	-0.716964	0.579508	0.602484
C65	C	-1.174652	0.054510	-0.102499
C66	C	-0.674652	0.554510	0.397501
C67	C	-1.172799	0.141655	-0.102506
C68	C	-0.672799	0.641655	0.397494
C69	C	-1.193020	0.197728	-0.000015
C70	C	-0.693020	0.697728	0.499985
C71	C	-1.196734	0.023434	0.000000
C72	C	-0.696734	0.523434	0.500000
C73	C	-1.198751	-0.071056	0.000008
C74	C	-0.698751	0.428944	0.500008
C75	C	-1.191005	0.292223	-0.000022
C76	C	-0.691005	0.792223	0.499978
N77	N	-1.134399	-0.425118	-0.292931
N78	N	-0.634399	0.074882	0.207069
C79	C	-1.336380	-0.305873	-0.647905
C80	C	-0.836380	0.194127	-0.147905
C81	C	-1.360802	-0.291450	-0.529564
C82	C	-0.860802	0.208550	-0.029564
C83	C	-1.304203	-0.324866	-0.470400
C84	C	-0.804203	0.175134	0.029600
C85	C	-1.223178	-0.372706	-0.529589
C86	C	-0.723178	0.127294	-0.029589
C87	C	-1.198759	-0.387136	-0.647941
C88	C	-0.698759	0.112864	-0.147941
C89	C	-1.166582	-0.406129	-0.470436
C90	C	-0.666582	0.093871	0.029564
C91	C	-1.085557	-0.453970	-0.529624
C92	C	-0.585557	0.046030	-0.029624
C93	C	-1.061141	-0.468396	-0.647965
C94	C	-0.561141	0.031604	-0.147965
C95	C	-1.117740	-0.434980	-0.707130
C96	C	-0.617740	0.065020	-0.207130
C97	C	-1.191001	-0.391700	-0.352083
C98	C	-0.691001	0.108300	0.147917
C99	C	-1.053380	-0.472963	-0.352119
C100	C	-0.553380	0.027037	0.147881
C101	C	-1.028958	-0.487385	-0.470460
C102	C	-0.528958	0.012615	0.029540
N103	N	-1.255362	-0.353717	0.292906
N104	N	-0.755362	0.146283	0.792906
H105	H	-0.865909	-0.455235	-0.000011
H106	H	-0.365909	0.044765	0.499989
H107	H	-1.234948	0.054215	0.185943
H108	H	-0.734948	0.554215	0.685943
F109	F	-1.447031	-0.240539	-0.466576
F110	F	-0.947031	0.259461	0.033424
F111	F	-1.277231	-0.340786	-0.289104
F112	F	-0.777231	0.159214	0.210896
H113	H	-1.158186	0.008846	-0.185943
H114	H	-0.658186	0.508846	0.314057
F115	F	-1.236629	0.226329	0.211556
F116	F	-0.736629	0.726329	0.711556
F117	F	-1.149298	0.174725	-0.211597
F118	F	-0.649298	0.674725	0.288403
H119	H	-1.382461	-0.278675	-0.696085
H120	H	-0.882461	0.221325	-0.196085
H121	H	-1.324091	-0.313121	-0.374041
H122	H	-0.824091	0.186879	0.125959
F123	F	-1.091744	-0.450326	-0.833084
F124	F	-0.591744	0.049674	-0.333084
F125	F	-0.974918	-0.519322	-0.710959
F126	F	-0.474918	-0.019322	-0.210959
F127	F	-0.815415	-0.532870	-0.000006
F128	F	-0.315415	-0.032870	0.499994
F129	F	-0.942727	-0.538300	-0.533465
F130	F	-0.442727	-0.038300	-0.033465
F131	F	-0.993142	-0.508532	-0.289157
F132	F	-0.493142	-0.008532	0.210843
F133	F	-0.463764	-0.603305	0.000010
F134	F	0.036236	-0.103305	0.500010
F135	F	-0.403985	-0.280105	-0.000007
F136	F	0.096015	0.219895	0.499993
F137	F	-0.537850	-0.156215	0.000025
F138	F	-0.037850	0.343785	0.500025
F139	F	-0.708176	-0.122092	-0.000013
F140	F	-0.208176	0.377908	0.499987
F141	F	-0.681559	-0.656743	0.000004
F142	F	-0.181559	-0.156743	0.500004
H143	H	-0.909775	-0.190523	-0.000004
H144	H	-0.409775	0.309477	0.499996
