data_functionalizedCrystal
_audit_creation_method	'MofGen! by Chris Wilmer'
_symmetry_space_group_name_H-M	'P1'
_symmetry_Int_Tables_number	1
_symmetry_cell_setting	triclinic
loop_
_symmetry_equiv_pos_as_xyz
  x,y,z
_cell_length_a	11.169416
_cell_length_b	21.395362
_cell_length_c	21.395355
_cell_angle_alpha	90.043940
_cell_angle_beta	89.990430
_cell_angle_gamma	89.979881
loop_
_atom_site_label
_atom_site_type_symbol
_atom_site_fract_x
_atom_site_fract_y
_atom_site_fract_z
Zn1	Zn	0.477437	0.957975	0.354625
Zn2	Zn	0.977437	1.457975	0.854625
Zn3	Zn	0.678108	0.957926	0.249863
Zn4	Zn	1.178108	1.457926	0.749863
Zn5	Zn	0.477493	0.853190	0.249826
Zn6	Zn	0.977493	1.353190	0.749826
Zn7	Zn	0.678133	0.853207	0.354568
Zn8	Zn	1.178133	1.353207	0.854568
O9	O	0.577793	0.905574	0.302221
O10	O	1.077793	1.405574	0.802221
O11	O	0.504023	1.045646	0.340767
O12	O	1.004023	1.545646	0.840767
O13	O	0.651509	0.944004	0.162181
O14	O	1.151509	1.444004	0.662181
O15	O	0.309536	0.867103	0.263735
O16	O	0.809536	1.367103	0.763735
O17	O	0.651455	1.045610	0.263800
O18	O	1.151455	1.545610	0.763800
O19	O	0.309495	0.944088	0.340731
O20	O	0.809495	1.444088	0.840731
O21	O	0.504118	0.867055	0.162153
O22	O	1.004118	1.367055	0.662153
O23	O	0.504142	0.765514	0.263681
O24	O	1.004142	1.265514	0.763681
O25	O	0.651497	0.867133	0.442254
O26	O	1.151497	1.367133	0.942254
O27	O	0.651551	0.765527	0.340635
O28	O	1.151551	1.265527	0.840635
O29	O	0.504047	0.944105	0.442295
O30	O	1.004047	1.444105	0.942295
O31	O	0.846061	0.944021	0.263745
O32	O	1.346061	1.444021	0.763745
O33	O	0.846079	0.867085	0.340671
O34	O	1.346079	1.367085	0.840671
C35	C	0.577856	0.742787	0.302148
C36	C	1.077856	1.242787	0.802148
C37	C	0.577912	0.673145	0.302132
C38	C	1.077912	1.173145	0.802132
C39	C	0.654770	0.640455	0.342141
C40	C	1.154770	1.140455	0.842141
C41	C	0.654741	0.575020	0.342169
C42	C	1.154741	1.075020	0.842169
C43	C	0.577866	0.542277	0.302176
C44	C	1.077866	1.042277	0.802176
C45	C	0.500994	0.574975	0.262164
C46	C	1.000994	1.074975	0.762164
C47	C	0.501017	0.640409	0.262141
C48	C	1.001017	1.140409	0.762141
C49	C	0.568198	0.438550	0.245770
C50	C	1.068198	0.938550	0.745770
C51	C	0.568183	0.373117	0.245792
C52	C	1.068183	0.873117	0.745792
C53	C	0.577788	0.340456	0.302245
C54	C	1.077788	0.840456	0.802245
C55	C	0.587433	0.373237	0.358680
C56	C	1.087433	0.873237	0.858680
C57	C	0.587456	0.438671	0.358658
C58	C	1.087456	0.938671	0.858658
C59	C	0.577832	0.471325	0.302196
C60	C	1.077832	0.971325	0.802196
C61	C	0.654618	0.236814	0.342289
C62	C	1.154618	0.736814	0.842289
C63	C	0.654580	0.171377	0.342318
C64	C	1.154580	0.671377	0.842318
C65	C	0.500839	0.171333	0.262307
C66	C	1.000839	0.671333	0.762307
C67	C	0.500871	0.236769	0.262283
C68	C	1.000871	0.736769	0.762283
C69	C	0.577766	0.269505	0.302273
C70	C	1.077766	0.769505	0.802273
C71	C	0.264751	0.905599	0.302235
C72	C	0.764751	1.405599	0.802235
C73	C	0.131351	0.905609	0.302241
C74	C	0.631351	1.405609	0.802241
C75	C	0.889618	0.905567	0.302220
C76	C	1.389618	1.405567	0.802220
C77	C	1.023017	0.905621	0.302240
C78	C	1.523017	1.405621	0.802240
C79	C	0.577769	0.905626	0.465644
C80	C	1.077769	1.405626	0.965644
C81	C	0.577758	0.905648	0.535285
C82	C	1.077758	1.405648	1.035285
C83	C	0.577730	1.068998	0.302294
C84	C	1.077730	1.568998	0.802294
C85	C	0.577703	1.138639	0.302325
C86	C	1.077703	1.638639	0.802325
C87	C	0.577730	0.905558	0.139433
C88	C	1.077730	1.405558	0.639433
C89	C	0.577403	0.905658	0.069792
C90	C	1.077403	1.405658	0.569792
C91	C	0.500978	0.945726	0.568021
C92	C	1.000978	1.445726	1.068021
C93	C	0.500926	0.945725	0.633456
C94	C	1.000926	1.445725	1.133456
C95	C	0.577676	0.905653	0.666154
C96	C	1.077676	1.405653	1.166154
C97	C	0.654462	0.865568	0.633410
C98	C	1.154462	1.365568	1.133410
C99	C	0.654503	0.865565	0.567976
C100	C	1.154503	1.365565	1.067976
C101	C	0.685744	0.900703	0.769826
C102	C	1.185744	1.400703	1.269826
C103	C	0.685705	0.900710	0.835259
C104	C	1.185705	1.400710	1.335259
C105	C	0.577550	0.905657	0.867974
C106	C	1.077550	1.405657	1.367974
C107	C	0.469429	0.910610	0.835249
C108	C	0.969429	1.410610	1.335249
C109	C	0.469470	0.910608	0.769814
C110	C	0.969470	1.410608	1.269814
C111	C	0.577640	0.905651	0.737106
C112	C	1.077640	1.405651	1.237106
C113	C	0.500707	0.945736	0.971663
C114	C	1.000707	1.445736	1.471663
C115	C	0.500653	0.945731	1.037099
C116	C	1.000653	1.445731	1.537099
C117	C	0.654200	0.865577	1.037052
C118	C	1.154200	1.365577	1.537052
C119	C	0.654243	0.865579	0.971616
C120	C	1.154243	1.365579	1.471616
C121	C	0.577498	0.905662	0.938926
C122	C	1.077498	1.405662	1.438926
H123	H	0.438427	0.667025	0.229560
H124	H	0.938427	1.167025	0.729560
H125	H	0.438241	0.144675	0.229746
H126	H	0.938241	0.644675	0.729746
H127	H	0.773795	0.896507	0.743195
H128	H	1.273795	1.396507	1.243195
H129	H	0.716949	0.832939	0.660036
H130	H	1.216949	1.332939	1.160036
H131	H	0.717025	0.832926	0.541323
H132	H	1.217025	1.332926	1.041323
H133	H	0.717224	0.263469	0.374855
H134	H	1.217224	0.763469	0.874855
H135	H	0.717383	0.667105	0.374706
H136	H	1.217383	1.167105	0.874706
F137	F	0.419070	0.271561	0.219697
F138	F	0.919070	0.771561	0.719697
F139	F	0.419183	0.988373	0.668303
F140	F	0.919183	1.488373	1.168303
H141	H	0.773744	0.896681	0.861900
H142	H	1.273744	1.396681	1.361900
F143	F	0.419294	0.988384	0.533233
F144	F	0.919294	1.488384	1.033233
H145	H	0.381435	0.914639	0.743172
H146	H	0.881435	1.414639	1.243172
H147	H	0.438122	0.978366	1.063752
H148	H	0.938122	1.478366	1.563752
F149	F	0.419174	0.540127	0.219603
F150	F	0.919174	1.040127	0.719603
H151	H	0.381359	0.914640	0.861884
H152	H	0.881359	1.414640	1.361884
F153	F	0.736546	0.540222	0.384755
F154	F	1.236546	1.040222	0.884755
H155	H	0.438210	0.978371	0.945045
H156	H	0.938210	1.478371	1.445045
H157	H	0.716679	0.832943	1.063673
H158	H	1.216679	1.332943	1.563673
H159	H	0.560337	0.346432	0.199839
H160	H	1.060337	0.846432	0.699839
F161	F	0.557977	0.473304	0.185680
F162	F	1.057977	0.973304	0.685680
H163	H	0.595252	0.346646	0.404650
H164	H	1.095252	0.846646	0.904650
F165	F	0.597715	0.473556	0.418717
F166	F	1.097715	0.973556	0.918717
F167	F	0.736380	0.136586	0.384908
F168	F	1.236380	0.636586	0.884908
F169	F	0.735969	0.822924	0.936775
F170	F	1.235969	1.322924	1.436775
