data_functionalizedCrystal
_audit_creation_method	'MofGen! by Chris Wilmer'
_symmetry_space_group_name_H-M	'P1'
_symmetry_Int_Tables_number	1
_symmetry_cell_setting	triclinic
loop_
_symmetry_equiv_pos_as_xyz
  x,y,z
_cell_length_a	10.654558
_cell_length_b	10.489716
_cell_length_c	9.130313
_cell_angle_alpha	90.002761
_cell_angle_beta	90.000369
_cell_angle_gamma	84.508726
loop_
_atom_site_label
_atom_site_type_symbol
_atom_site_fract_x
_atom_site_fract_y
_atom_site_fract_z
O1	O	1.667896	0.179209	-0.121765
O2	O	1.302426	0.196267	-0.121771
O3	O	1.493493	0.002134	-0.121773
O4	O	1.476829	0.373342	-0.121762
O5	O	1.493491	0.002140	0.121826
O6	O	1.302423	0.196273	0.121828
O7	O	1.667894	0.179214	0.121834
Cu8	Cu	1.485158	0.187744	0.144074
Cu9	Cu	1.485161	0.187738	-0.144010
O10	O	1.476827	0.373347	0.121836
C11	C	1.255626	0.195015	0.000028
C12	C	1.116182	0.191261	0.000025
C13	C	0.919643	0.185981	-0.132761
C14	C	1.050667	0.189497	-0.132763
C15	C	1.050668	0.189496	0.132822
C16	C	0.919648	0.185971	0.132822
C17	C	0.854133	0.184231	-0.265557
C18	C	0.919638	0.185993	-0.398355
C19	C	1.050662	0.189509	-0.398357
C20	C	1.116181	0.191262	-0.265560
C21	C	1.492240	-0.045395	0.000022
C22	C	1.488494	-0.187024	0.000009
C23	C	1.605662	-0.284751	0.000024
C24	C	1.543749	-0.362086	-0.120080
C25	C	1.543720	-0.362045	0.120089
C26	C	1.426629	-0.262494	-0.120195
C27	C	1.426617	-0.262447	0.120083
C28	C	1.364618	-0.339733	-0.000051
C29	C	1.714693	0.180466	0.000033
C30	C	1.854138	0.184220	0.000026
C31	C	1.478080	0.420876	0.000038
C32	C	1.481826	0.562505	0.000042
N33	N	1.485166	0.187747	0.346696
N34	N	1.485164	0.187724	-0.346633
C35	C	1.569792	0.101815	0.423347
C36	C	1.569789	0.101800	0.576684
C37	C	1.400528	0.273661	0.576705
C38	C	1.400527	0.273669	0.423371
C39	C	1.654431	0.015894	0.346672
C40	C	1.739066	-0.070045	0.423324
C41	C	1.739062	-0.070060	0.576660
C42	C	1.654425	0.015863	0.653346
H43	H	1.104024	0.190926	0.240939
C44	C	1.359860	-0.203609	0.257260
C45	C	1.350243	-0.057736	0.281633
C46	C	1.283499	0.001105	0.418825
C47	C	1.226374	-0.085927	0.531643
C48	C	1.235990	-0.231809	0.507272
C49	C	1.302733	-0.290650	0.370081
H50	H	1.392532	0.006699	0.198116
H51	H	1.276381	0.109097	0.436865
H52	H	1.176966	-0.042370	0.633200
H53	H	1.193701	-0.296243	0.590790
H54	H	1.309851	-0.398641	0.352041
H55	H	1.593205	-0.405537	0.221626
C56	C	1.307440	0.368180	0.661054
C57	C	1.307608	0.368346	0.829715
C58	C	1.214522	0.462871	0.914061
C59	C	1.121268	0.557232	0.829746
C60	C	1.121097	0.557070	0.661075
C61	C	1.214183	0.462544	0.576729
H62	H	1.376643	0.298492	0.892139
H63	H	1.214649	0.462991	1.038923
H64	H	1.052360	0.627205	0.892184
H65	H	1.052063	0.626924	0.598652
H66	H	1.214056	0.462425	0.451868
C67	C	1.610565	-0.420888	-0.257250
C68	C	1.618203	-0.566505	-0.283027
C69	C	1.685029	-0.625302	-0.420190
C70	C	1.744218	-0.538482	-0.531576
C71	C	1.736582	-0.392856	-0.505803
C72	C	1.669756	-0.334059	-0.368640
H73	H	1.574386	-0.630782	-0.200569
H74	H	1.690681	-0.733104	-0.439269
H75	H	1.793687	-0.582007	-0.633113
H76	H	1.780399	-0.328579	-0.588261
H77	H	1.664104	-0.226257	-0.349561
C78	C	1.832160	-0.164561	0.338978
C79	C	1.832182	-0.164541	0.170317
C80	C	1.925278	-0.259061	0.085976
C81	C	2.018352	-0.353600	0.170297
C82	C	2.018333	-0.353623	0.338967
C83	C	1.925238	-0.259103	0.423308
H84	H	1.763280	-0.094555	0.107889
H85	H	1.925291	-0.259043	-0.038886
H86	H	2.087267	-0.423569	0.107862
H87	H	2.087236	-0.423609	0.401395
H88	H	1.925225	-0.259121	0.548170
H89	H	1.103994	0.190932	-0.506487
H90	H	1.262624	-0.364117	-0.000117
H91	H	0.866309	0.184561	0.240949
H92	H	0.747446	0.181372	-0.265571
H93	H	1.654444	0.015901	0.221818
H94	H	1.707579	-0.260120	-0.000096
H95	H	0.866285	0.184557	-0.506473
H96	H	1.222870	0.194118	-0.265572
H97	H	1.807966	-0.140043	0.639068
H98	H	1.377196	-0.219169	-0.221846
H99	H	1.654420	0.015835	0.778203
H100	H	1.331615	0.343642	0.360962
