data_functionalizedCrystal
_audit_creation_method	'MofGen! by Chris Wilmer'
_symmetry_space_group_name_H-M	'P1'
_symmetry_Int_Tables_number	1
_symmetry_cell_setting	triclinic
loop_
_symmetry_equiv_pos_as_xyz
  x,y,z
_cell_length_a	10.685901
_cell_length_b	16.120444
_cell_length_c	10.686551
_cell_angle_alpha	88.708632
_cell_angle_beta	89.651709
_cell_angle_gamma	88.338905
loop_
_atom_site_label
_atom_site_type_symbol
_atom_site_fract_x
_atom_site_fract_y
_atom_site_fract_z
Zn1	Zn	1.943917	-0.400048	-0.594699
Zn2	Zn	1.917210	-0.548155	-0.397097
Zn3	Zn	1.718153	-0.398494	-0.400948
Zn4	Zn	1.725143	-0.527011	-0.621190
O5	O	1.826106	-0.468427	-0.503483
O6	O	2.115238	-0.429194	-0.555789
O7	O	1.876703	-0.536501	-0.222738
O8	O	1.756353	-0.282933	-0.417174
O9	O	2.095617	-0.538008	-0.410611
O10	O	1.922221	-0.284074	-0.559523
O11	O	1.730457	-0.426545	-0.225567
O12	O	1.544217	-0.406043	-0.442861
O13	O	1.768266	-0.501970	-0.792545
O14	O	1.549352	-0.500463	-0.604672
O15	O	1.928999	-0.408692	-0.773082
O16	O	1.883480	-0.661118	-0.436298
O17	O	1.742369	-0.645583	-0.600938
C18	C	1.501444	-0.450791	-0.527060
C19	C	1.362553	-0.443264	-0.537177
C20	C	1.810821	-0.683368	-0.521100
C21	C	1.804400	-0.775326	-0.528670
C22	C	1.859744	-0.992326	-0.464461
C23	C	1.792701	-0.943688	-0.542502
C24	C	1.799212	-0.850003	-0.534803
C25	C	1.853234	-1.086021	-0.472158
C26	C	2.152036	-0.486133	-0.479816
C27	C	2.290927	-0.493678	-0.469730
C28	C	1.852391	-0.453146	-0.829423
C29	C	1.863592	-0.446634	-0.968319
C30	C	1.841487	-0.252647	-0.485823
C31	C	1.848041	-0.160694	-0.478297
C32	C	1.799999	-0.483593	-0.178801
C33	C	1.789057	-0.489885	-0.039869
H34	H	1.317614	-0.394346	-0.602669
C35	C	1.351620	-0.559765	-0.381262
C36	C	1.327931	-0.652402	-0.400216
C37	C	1.388632	-0.718491	-0.311747
C38	C	1.473022	-0.691942	-0.204322
C39	C	1.496715	-0.599300	-0.185363
C40	C	1.436014	-0.533212	-0.273832
H41	H	1.265457	-0.672060	-0.479743
H42	H	1.371093	-0.787070	-0.325783
H43	H	1.517957	-0.740864	-0.138832
H44	H	1.559189	-0.579643	-0.105836
H45	H	1.453553	-0.464632	-0.259796
H46	H	1.730413	-0.972408	-0.615097
C47	C	1.691267	-0.546641	-0.979084
C48	C	1.551114	-0.531347	-1.006675
C49	C	1.453323	-0.588104	-0.945881
C50	C	1.495685	-0.660155	-0.857494
C51	C	1.635844	-0.675451	-0.829898
C52	C	1.733635	-0.618695	-0.890693
H53	H	1.519750	-0.478008	-1.072108
H54	H	1.349568	-0.576780	-0.966310
H55	H	1.423294	-0.702169	-0.812490
H56	H	1.667209	-0.728790	-0.764465
H57	H	1.837391	-0.630019	-0.870264
H58	H	1.922026	-0.963610	-0.391870
C59	C	1.961387	-0.389875	-1.029110
C60	C	1.972838	-0.383219	-1.172676
C61	C	2.070631	-0.326462	-1.233466
C62	C	2.156972	-0.276360	-1.150691
C63	C	2.145524	-0.283014	-1.007116
C64	C	2.047731	-0.339772	-0.946326
H65	H	1.908921	-0.420309	-1.233959
H66	H	2.079106	-0.321536	-1.339750
H67	H	2.229364	-0.234344	-1.195691
H68	H	2.209441	-0.245924	-0.945833
H69	H	2.039256	-0.344697	-0.840042
