data_functionalizedCrystal
_audit_creation_method	'MofGen! by Chris Wilmer'
_symmetry_space_group_name_H-M	'P1'
_symmetry_Int_Tables_number	1
_symmetry_cell_setting	triclinic
loop_
_symmetry_equiv_pos_as_xyz
  x,y,z
_cell_length_a	11.792254
_cell_length_b	11.792241
_cell_length_c	12.376897
_cell_angle_alpha	77.403195
_cell_angle_beta	77.414400
_cell_angle_gamma	84.196007
loop_
_atom_site_label
_atom_site_type_symbol
_atom_site_fract_x
_atom_site_fract_y
_atom_site_fract_z
O1	O	1.487372	0.136087	0.093998
O2	O	1.157033	0.152104	0.094000
O3	O	1.330221	-0.021073	0.093991
O4	O	1.314184	0.309264	0.094007
O5	O	1.369261	0.018021	-0.094006
O6	O	1.196073	0.191198	-0.093996
O7	O	1.526413	0.175181	-0.093999
Zn8	Zn	1.367442	0.189396	-0.123846
Zn9	Zn	1.316004	0.137888	0.123848
O10	O	1.353225	0.348358	-0.093990
C11	C	1.134262	0.170642	0.000002
C12	C	1.008249	0.167622	0.000003
C13	C	0.905912	0.165167	0.000008
C14	C	0.777525	0.162098	0.000008
C15	C	1.348734	-0.043817	-0.000007
C16	C	1.345719	-0.169831	-0.000006
C17	C	1.340172	-0.400548	0.000013
C18	C	1.343254	-0.272160	0.000003
C19	C	1.549183	0.156642	0.000002
C20	C	1.675195	0.159661	0.000008
C21	C	1.334711	0.371101	0.000011
C22	C	1.337725	0.497114	0.000017
N23	N	1.402555	0.224548	-0.292891
C24	C	1.199349	0.021119	-0.647955
C25	C	1.174755	-0.003487	-0.529625
C26	C	1.231703	0.053520	-0.470436
C27	C	1.313249	0.135136	-0.529588
C28	C	1.337852	0.159738	-0.647930
C29	C	1.370206	0.192139	-0.470410
C30	C	1.451752	0.273756	-0.529563
C31	C	1.476351	0.298354	-0.647893
C32	C	1.419403	0.241347	-0.707082
C33	C	1.345603	0.167538	-0.352069
C34	C	1.484106	0.306157	-0.352043
C35	C	1.508700	0.330763	-0.470373
N36	N	1.280900	0.102727	0.292892
H37	H	1.279206	0.101086	-0.303918
C38	C	1.566064	0.388122	-0.712953
C39	C	1.692874	0.368886	-0.696640
C40	C	1.782590	0.458653	-0.761694
C41	C	1.745495	0.567656	-0.843060
C42	C	1.618678	0.586897	-0.859377
C43	C	1.528963	0.497130	-0.794323
H44	H	1.720340	0.288191	-0.636405
H45	H	1.876469	0.444408	-0.749615
H46	H	1.811908	0.634106	-0.891217
H47	H	1.591213	0.667592	-0.919612
H48	H	1.435084	0.511374	-0.806402
C49	C	1.204642	0.026464	-0.340271
C50	C	1.226093	-0.098206	-0.275174
C51	C	1.199023	-0.125261	-0.145004
C52	C	1.150502	-0.027647	-0.079932
C53	C	1.129049	0.097031	-0.145029
C54	C	1.156119	0.124086	-0.275199
H55	H	1.262013	-0.170473	-0.323344
H56	H	1.214904	-0.217556	-0.096815
H57	H	1.130463	-0.047675	0.016428
H58	H	1.093129	0.169298	-0.096859
H59	H	1.140238	0.216381	-0.323388
C60	C	1.085048	-0.093248	-0.464561
C61	C	1.022396	-0.155947	-0.529659
C62	C	0.932679	-0.245707	-0.464593
C63	C	0.905614	-0.272769	-0.334429
C64	C	0.968267	-0.210069	-0.269323
C65	C	1.057984	-0.120308	-0.334389
H66	H	1.042431	-0.135915	-0.626021
H67	H	0.886299	-0.292122	-0.512789
H68	H	0.839200	-0.339215	-0.286263
H69	H	0.948232	-0.230100	-0.172962
H70	H	1.104364	-0.073893	-0.286193
C71	C	1.136710	-0.041568	-0.713071
C72	C	1.207643	-0.116730	-0.794425
C73	C	1.144997	-0.179416	-0.859546
C74	C	1.011417	-0.166940	-0.843313
C75	C	0.940476	-0.091774	-0.761956
C76	C	1.003122	-0.029088	-0.696835
H77	H	1.306534	-0.125969	-0.806444
H78	H	1.197513	-0.235059	-0.919772
H79	H	0.965042	-0.213344	-0.891520
H80	H	0.841585	-0.082535	-0.749937
H81	H	0.950607	0.026555	-0.636609
C82	C	1.598404	0.420534	-0.535452
C83	C	1.725224	0.401314	-0.519166
C84	C	1.814926	0.491084	-0.584247
C85	C	1.777808	0.600075	-0.665614
C86	C	1.650981	0.619300	-0.681903
C87	C	1.561279	0.529530	-0.616822
H88	H	1.752706	0.320628	-0.458931
H89	H	1.908811	0.476852	-0.572188
H90	H	1.844210	0.666529	-0.713790
H91	H	1.623499	0.699986	-0.742138
H92	H	1.467394	0.543762	-0.628881
C93	C	1.546755	0.368874	-0.286948
C94	C	1.519692	0.341819	-0.156784
C95	C	1.582338	0.404527	-0.091681
C96	C	1.672047	0.494289	-0.156741
C97	C	1.699114	0.521348	-0.286913
C98	C	1.636467	0.458641	-0.352016
H99	H	1.453280	0.275368	-0.108616
H100	H	1.562301	0.384495	0.004681
H101	H	1.718421	0.540709	-0.108548
H102	H	1.765525	0.587799	-0.335081
H103	H	1.656505	0.478672	-0.448378
H104	H	1.439419	0.261382	-0.803437
