data_functionalizedCrystal
_audit_creation_method	'MofGen! by Chris Wilmer'
_symmetry_space_group_name_H-M	'P1'
_symmetry_Int_Tables_number	1
_symmetry_cell_setting	triclinic
loop_
_symmetry_equiv_pos_as_xyz
  x,y,z
_cell_length_a	14.853566
_cell_length_b	10.489716
_cell_length_c	13.930277
_cell_angle_alpha	89.999515
_cell_angle_beta	89.995631
_cell_angle_gamma	84.081775
loop_
_atom_site_label
_atom_site_type_symbol
_atom_site_fract_x
_atom_site_fract_y
_atom_site_fract_z
O1	O	1.197292	0.166522	-0.079759
O2	O	0.934943	0.186362	-0.079773
O3	O	1.072099	-0.009225	-0.079769
O4	O	1.060136	0.362109	-0.079763
O5	O	1.072080	-0.009229	0.079893
O6	O	0.934924	0.186357	0.079888
O7	O	1.197273	0.166518	0.079903
Zn8	Zn	1.066095	0.176437	0.105246
Zn9	Zn	1.066121	0.176442	-0.105116
O10	O	1.060117	0.362105	0.079899
C11	C	0.901339	0.185461	0.000055
C12	C	0.801241	0.182768	0.000049
C13	C	0.378003	0.171380	-0.086966
C14	C	0.378004	0.171376	0.087104
C15	C	0.472052	0.173905	0.087101
C16	C	0.519080	0.175173	0.000064
C17	C	0.472060	0.173913	-0.086971
C18	C	0.519078	0.175179	0.174134
C19	C	0.613131	0.177709	0.174135
C20	C	0.660162	0.178968	0.087096
C21	C	0.613136	0.177706	0.000058
C22	C	0.660164	0.178974	-0.086980
C23	C	0.613141	0.177703	-0.174019
C24	C	0.519090	0.175172	-0.174010
C25	C	0.754213	0.181500	0.087087
C26	C	0.754221	0.181507	-0.086985
C27	C	1.071190	-0.056749	0.000059
C28	C	1.068501	-0.198350	0.000050
C29	C	1.152610	-0.296969	0.000063
C30	C	1.108174	-0.373828	-0.078658
C31	C	1.108136	-0.373796	0.078756
C32	C	1.024101	-0.273345	-0.078737
C33	C	1.024075	-0.273307	0.078748
C34	C	0.979578	-0.350117	0.000007
C35	C	1.230877	0.167419	0.000072
C36	C	1.330975	0.170112	0.000072
C37	C	1.061026	0.409629	0.000069
C38	C	1.063715	0.551230	0.000071
N39	N	1.066085	0.176432	0.248812
N40	N	1.066138	0.176437	-0.248682
C41	C	1.005385	0.263014	0.701079
C42	C	1.126881	0.089861	0.701052
C43	C	1.126870	0.089857	0.600557
C44	C	1.066117	0.176434	0.550317
C45	C	1.005375	0.263015	0.600574
C46	C	1.187617	0.003286	0.550292
C47	C	1.187610	0.003279	0.449791
C48	C	1.126852	0.089851	0.399550
C49	C	1.066106	0.176435	0.449812
C50	C	1.005353	0.263013	0.399573
C51	C	0.944603	0.349591	0.449834
C52	C	0.944616	0.349588	0.550333
C53	C	1.126838	0.089855	0.299051
C54	C	1.005342	0.263014	0.299068
H55	H	0.339713	0.170340	-0.157831
O56	O	1.185829	0.005915	0.250079
C57	C	1.172785	0.024467	0.150603
H58	H	1.139705	0.125774	0.136888
H59	H	1.240968	0.010508	0.112403
H60	H	1.127137	-0.047879	0.122078
H61	H	0.988623	-0.229640	-0.145363
H62	H	1.225770	-0.273114	-0.000012
O63	O	1.150684	-0.426169	-0.157980
C64	C	1.241823	-0.399621	-0.157712
H65	H	1.263463	-0.379728	-0.081105
H66	H	1.286359	-0.485609	-0.187442
H67	H	1.249346	-0.312062	-0.204372
H68	H	0.792494	0.182547	0.157953
H69	H	0.906363	-0.373725	-0.000039
H70	H	0.480796	0.174136	-0.244872
H71	H	0.792505	0.182536	-0.157863
H72	H	0.988593	-0.229392	0.145301
H73	H	0.895156	0.420078	0.591262
O74	O	1.150624	-0.426002	0.158129
C75	C	1.241772	-0.399497	0.157815
H76	H	1.248910	-0.311299	0.111728
H77	H	1.264072	-0.380677	0.234374
H78	H	1.286040	-0.485081	0.127092
H79	H	1.237075	-0.067218	0.408874
H80	H	0.651443	0.178745	-0.244885
H81	H	0.651410	0.178741	0.245007
H82	H	0.480780	0.174154	0.244995
H83	H	1.176349	0.019378	0.741960
O84	O	0.946338	0.346938	0.750004
C85	C	0.890274	0.278478	0.808125
H86	H	0.925543	0.178759	0.823175
H87	H	0.876356	0.331677	0.878800
H88	H	0.823589	0.269639	0.769403
O89	O	1.246498	-0.080934	0.599144
C90	C	1.197709	-0.159721	0.657299
H91	H	1.126602	-0.162061	0.627011
H92	H	1.233840	-0.261011	0.658448
H93	H	1.193231	-0.119802	0.733463
O94	O	0.946416	0.347295	0.250313
C95	C	0.961862	0.473599	0.274892
H96	H	1.034046	0.474410	0.302507
H97	H	0.951895	0.537594	0.208804
H98	H	0.912138	0.510926	0.333238
O99	O	0.332436	0.169978	0.171707
C100	C	0.364896	0.060195	0.224641
H101	H	0.436352	0.025230	0.199894
H102	H	0.365971	0.085102	0.304263
H103	H	0.318613	-0.018519	0.212572
O104	O	0.885680	0.433868	0.401071
C105	C	0.901124	0.560176	0.425643
H106	H	0.973304	0.560990	0.453268
H107	H	0.891166	0.624161	0.359549
H108	H	0.851392	0.597512	0.483979
