data_functionalizedCrystal
_audit_creation_method	'MofGen! by Chris Wilmer'
_symmetry_space_group_name_H-M	'P1'
_symmetry_Int_Tables_number	1
_symmetry_cell_setting	triclinic
loop_
_symmetry_equiv_pos_as_xyz
  x,y,z
_cell_length_a	19.121063
_cell_length_b	12.827893
_cell_length_c	12.827885
_cell_angle_alpha	90.019082
_cell_angle_beta	87.596033
_cell_angle_gamma	92.469061
loop_
_atom_site_label
_atom_site_type_symbol
_atom_site_fract_x
_atom_site_fract_y
_atom_site_fract_z
Zn1	Zn	-0.279576	1.579836	0.608533
Zn2	Zn	-0.397043	1.572237	0.441226
Zn3	Zn	-0.279610	1.405075	0.433810
Zn4	Zn	-0.396991	1.397573	0.615924
O5	O	-0.338305	1.488680	0.524873
O6	O	-0.295165	1.725063	0.586351
O7	O	-0.381501	1.550022	0.294009
O8	O	-0.181322	1.434577	0.450791
O9	O	-0.381468	1.719480	0.463431
O10	O	-0.181296	1.562973	0.579159
O11	O	-0.295224	1.427209	0.288560
O12	O	-0.295174	1.257844	0.457957
O13	O	-0.381379	1.421791	0.761177
O14	O	-0.381413	1.252332	0.591755
O15	O	-0.295115	1.555699	0.755748
O16	O	-0.495320	1.542747	0.470597
O17	O	-0.495282	1.414422	0.598946
C18	C	-0.338292	1.217171	0.524854
C19	C	-0.338303	1.101017	0.524871
C20	C	-0.381054	0.926483	0.591001
C21	C	-0.381044	1.046534	0.590985
C22	C	-0.520785	1.476974	0.536401
C23	C	-0.598850	1.472062	0.541368
C24	C	-0.635522	1.536618	0.476932
C25	C	-0.708873	1.532005	0.481609
C26	C	-0.745551	1.462829	0.550718
C27	C	-0.708874	1.398270	0.615161
C28	C	-0.635524	1.402890	0.610488
C29	C	-0.967020	1.445540	0.568172
C30	C	-1.040375	1.440923	0.572837
C31	C	-1.040369	1.574660	0.439286
C32	C	-0.967018	1.579269	0.434615
C33	C	-0.930347	1.514714	0.499062
C34	C	-0.820528	1.458109	0.555498
C35	C	-0.855372	1.519440	0.494287
C36	C	-0.155112	1.500460	0.513323
C37	C	-0.077047	1.505480	0.508401
C38	C	-0.338237	1.488755	0.797439
C39	C	-0.338209	1.488787	0.913591
C40	C	-0.338318	1.761249	0.524894
C41	C	-0.338324	1.877402	0.524903
C42	C	-0.338321	1.488668	0.253364
C43	C	-0.338152	1.488851	0.137201
C44	C	-0.295514	1.555057	0.962688
C45	C	-0.295483	1.555092	1.082737
H46	H	-0.301716	1.058805	0.468283
H47	H	-0.825507	1.575767	0.438022
H48	H	-0.417623	1.088753	0.647579
H49	H	-0.374709	1.432116	1.094975
H50	H	-0.258982	1.611763	0.915847
C51	C	-0.288889	0.940691	0.448432
C52	C	-0.233823	1.019298	0.490427
C53	C	-0.184385	1.082585	0.413954
C54	C	-0.190014	1.067264	0.295486
C55	C	-0.245083	0.988654	0.253485
C56	C	-0.294520	0.925367	0.329958
H57	H	-0.229654	1.030643	0.578130
H58	H	-0.143620	1.140777	0.445047
H59	H	-0.153418	1.114112	0.238876
H60	H	-0.249252	0.977309	0.165782
H61	H	-0.335285	0.867175	0.298865
H62	H	-0.374734	1.432071	0.960432
H63	H	-0.738743	1.341950	0.671435
H64	H	-0.605664	1.592944	0.420652
C65	C	-0.749208	1.603024	0.410729
C66	C	-0.739193	1.595193	0.291285
C67	C	-0.779526	1.666221	0.220403
C68	C	-0.829873	1.745081	0.268966
C69	C	-0.839890	1.752916	0.388417
C70	C	-0.799558	1.681887	0.459298
H71	H	-0.701921	1.536813	0.255330
H72	H	-0.772110	1.660421	0.131978
H73	H	-0.859730	1.797661	0.216496
H74	H	-0.877162	1.811296	0.424372
H75	H	-0.806973	1.687688	0.547723
H76	H	-1.070236	1.384605	0.629132
H77	H	-0.417648	0.879626	0.647599
C78	C	-0.246100	1.631743	1.139781
C79	C	-0.246140	1.631669	1.259829
C80	C	-0.196754	1.708323	1.316875
C81	C	-0.147329	1.785052	1.253873
C82	C	-0.147288	1.785129	1.133818
C83	C	-0.196673	1.708475	1.076772
H84	H	-0.282729	1.574867	1.306473
H85	H	-0.196785	1.708265	1.405748
H86	H	-0.110771	1.841796	1.296102
H87	H	-0.110699	1.841931	1.087175
H88	H	-0.196642	1.708533	0.987899
H89	H	-1.070234	1.627218	0.386819
C90	C	-0.926693	1.374521	0.639057
C91	C	-0.876336	1.295668	0.590505
C92	C	-0.836008	1.224643	0.661395
C93	C	-0.846037	1.232471	0.780838
C94	C	-0.896395	1.311327	0.829397
C95	C	-0.936724	1.382352	0.758506
H96	H	-0.868911	1.289871	0.502081
H97	H	-0.798729	1.166268	0.625448
H98	H	-0.816183	1.179893	0.833315
H99	H	-0.903821	1.317124	0.917821
H100	H	-0.974003	1.440727	0.794454
C101	C	-0.595181	1.331874	0.681364
C102	C	-0.605333	1.212440	0.673378
C103	C	-0.564990	1.141426	0.744260
C104	C	-0.514496	1.189845	0.823128
C105	C	-0.504343	1.309285	0.831118
C106	C	-0.544685	1.380299	0.760236
H107	H	-0.642713	1.176592	0.614992
H108	H	-0.572507	1.053008	0.738345
H109	H	-0.484632	1.137276	0.875599
H110	H	-0.466962	1.345133	0.889504
H111	H	-0.537169	1.468717	0.766151
H112	H	-0.937156	1.635597	0.378342
H113	H	-0.850399	1.401784	0.611764
