data_functionalizedCrystal
_audit_creation_method	'MofGen! by Chris Wilmer'
_symmetry_space_group_name_H-M	'P1'
_symmetry_Int_Tables_number	1
_symmetry_cell_setting	triclinic
loop_
_symmetry_equiv_pos_as_xyz
  x,y,z
_cell_length_a	23.532361
_cell_length_b	14.044220
_cell_length_c	22.010155
_cell_angle_alpha	90.003727
_cell_angle_beta	90.004127
_cell_angle_gamma	91.990727
loop_
_atom_site_label
_atom_site_type_symbol
_atom_site_fract_x
_atom_site_fract_y
_atom_site_fract_z
O1	O	0.761503	-0.114784	0.050465
O2	O	0.596540	-0.131471	0.050480
O3	O	0.676545	0.014833	0.050467
O4	O	0.681497	-0.261088	0.050479
O5	O	0.676530	0.014811	-0.050583
O6	O	0.596525	-0.131493	-0.050570
O7	O	0.761488	-0.114806	-0.050585
Cu8	Cu	0.679005	-0.123152	-0.059804
Cu9	Cu	0.679023	-0.123126	0.059700
O10	O	0.681483	-0.261110	-0.050572
C11	C	0.575293	-0.131064	-0.000043
C12	C	0.512007	-0.129808	-0.000038
C13	C	0.238473	-0.124301	0.055041
C14	C	0.297937	-0.125490	0.055043
O15	O	0.328702	-0.126062	0.101887
N16	N	0.327668	-0.126103	-0.000040
C17	C	0.297931	-0.125516	-0.055128
O18	O	0.328679	-0.126146	-0.101980
C19	C	0.238468	-0.124320	-0.055129
C20	C	0.208740	-0.123717	-0.000043
C21	C	0.208746	-0.123696	0.110123
C22	C	0.149286	-0.122509	0.110121
C23	C	0.119553	-0.121926	0.055037
C24	C	0.149280	-0.122530	-0.000044
C25	C	0.208732	-0.123727	-0.110216
C26	C	0.149265	-0.122530	-0.110212
C27	C	0.119538	-0.121927	-0.055126
C28	C	0.060087	-0.120759	-0.055130
N29	N	0.030357	-0.120146	-0.000047
C30	C	0.060090	-0.120730	0.055037
C31	C	0.422807	-0.128027	-0.055122
C32	C	0.482269	-0.129229	-0.055122
C33	C	0.482271	-0.129201	0.055049
C34	C	0.422808	-0.128005	0.055048
C35	C	0.393077	-0.127414	-0.000039
C36	C	-0.064781	-0.118237	0.055029
C37	C	-0.124246	-0.117053	0.055022
C38	C	-0.124244	-0.117076	-0.055148
C39	C	-0.064783	-0.118265	-0.055142
C40	C	-0.035053	-0.118842	-0.000049
O41	O	0.029285	-0.120182	-0.101950
O42	O	0.029335	-0.120087	0.101881
C43	C	0.674370	0.050115	-0.000058
C44	C	0.667904	0.155278	-0.000058
C45	C	0.782734	-0.115213	-0.000060
C46	C	0.846021	-0.116470	-0.000062
C47	C	0.683658	-0.296393	-0.000045
C48	C	0.690124	-0.401556	-0.000041
N49	N	0.678997	-0.123169	-0.143857
C50	C	0.656083	0.347825	-0.000049
C51	C	0.701942	0.405903	-0.000051
C52	C	0.695365	0.513043	-0.000045
C53	C	0.662659	0.240675	-0.000054
C54	C	0.714452	-0.058352	-0.563642
C55	C	0.714454	-0.058345	-0.627249
O56	O	0.744576	-0.003247	-0.660146
N57	N	0.679021	-0.123106	-0.659064
C58	C	0.643580	-0.187871	-0.627267
O59	O	0.613441	-0.242954	-0.660168
C60	C	0.643575	-0.187873	-0.563661
C61	C	0.679014	-0.123114	-0.531850
C62	C	0.749887	0.006403	-0.531831
C63	C	0.749886	0.006395	-0.468228
C64	C	0.714448	-0.058367	-0.436435
C65	C	0.679012	-0.123122	-0.468246
C66	C	0.608131	-0.252633	-0.531865
C67	C	0.608129	-0.252628	-0.468255
C68	C	0.643568	-0.187869	-0.436443
C69	C	0.643573	-0.187892	-0.372851
N70	N	0.679006	-0.123131	-0.341037
C71	C	0.714443	-0.058369	-0.372829
C72	C	0.643592	-0.187863	-0.760845
C73	C	0.643599	-0.187867	-0.824450
C74	C	0.714473	-0.058339	-0.824428
C75	C	0.714468	-0.058340	-0.760822
C76	C	0.679025	-0.123102	-0.729031
C77	C	0.714438	-0.058391	-0.239258
C78	C	0.714434	-0.058407	-0.175649
C79	C	0.643559	-0.187931	-0.175676
C80	C	0.643564	-0.187919	-0.239280
C81	C	0.679005	-0.123141	-0.271069
O82	O	0.613464	-0.242959	-0.339914
O83	O	0.744571	-0.003287	-0.339920
N84	N	0.679035	-0.123101	0.143752
H85	H	0.125087	-0.122014	0.154978
H86	H	0.232948	-0.124168	0.154981
H87	H	0.746144	0.375160	-0.000014
O88	O	0.603342	0.384448	0.000062
C89	C	0.573596	0.353191	0.052388
H90	H	0.605253	0.332840	0.088967
H91	H	0.545082	0.288557	0.040554
C92	C	0.497979	0.458843	0.031195
C93	C	0.536860	0.433856	0.076123
H94	H	0.475316	0.508598	0.045834
H95	H	0.518017	0.479899	-0.004060
H96	H	0.474223	0.404975	0.021337
H97	H	0.560620	0.487720	0.085975
H98	H	0.516824	0.412810	0.111380
O99	O	0.748877	0.004597	-0.144842
C100	C	0.780163	0.061743	-0.186548
H101	H	0.756770	0.062611	-0.231890
H102	H	0.824011	0.031349	-0.193312
C103	C	0.815439	0.162985	-0.106028
C104	C	0.786704	0.164057	-0.161716
H105	H	0.819476	0.226096	-0.090710
H106	H	0.794363	0.124483	-0.077929
H107	H	0.851976	0.137652	-0.111672
H108	H	0.750166	0.189378	-0.156070
H109	H	0.807774	0.202566	-0.189813
O110	O	-0.035996	-0.118846	0.108600
C111	C	-0.074994	-0.118038	0.157210
H112	H	-0.118216	-0.147184	0.141051
H113	H	-0.079201	-0.041893	0.174148
C114	C	-0.000440	-0.144842	0.229102
C115	C	-0.053525	-0.180649	0.209257
H116	H	0.012804	-0.183460	0.261208
H117	H	0.025834	-0.145384	0.196353
H118	H	-0.003953	-0.081389	0.243213
H119	H	-0.050010	-0.244096	0.195139
H120	H	-0.079798	-0.180120	0.242005
O121	O	0.784143	0.069581	-0.437349
C122	C	0.750557	0.127755	-0.400694
H123	H	0.708014	0.089415	-0.391083
H124	H	0.742970	0.197553	-0.425358
C125	C	0.833842	0.195898	-0.352122
C126	C	0.781591	0.148804	-0.340314
H127	H	0.852985	0.208886	-0.314878
H128	H	0.856469	0.156707	-0.376818
H129	H	0.827511	0.254057	-0.372677
H130	H	0.787923	0.090641	-0.319766
H131	H	0.758965	0.187985	-0.315612
O132	O	0.609215	-0.250874	-0.144719
C133	C	0.642664	-0.309076	-0.107935
H134	H	0.685294	-0.270962	-0.098405
H135	H	0.650079	-0.379071	-0.132446
C136	C	0.559239	-0.376399	-0.059221
C137	C	0.611596	-0.329584	-0.047512
H138	H	0.540074	-0.389054	-0.021951
H139	H	0.536703	-0.337190	-0.084005
H140	H	0.565425	-0.434723	-0.079649
H141	H	0.605408	-0.271256	-0.027092
H142	H	0.634130	-0.368784	-0.022723
H143	H	0.398608	-0.127514	0.099904
O144	O	0.784369	0.069352	-0.562614
C145	C	0.815628	0.126513	-0.520884
H146	H	0.818229	0.087663	-0.475548
H147	H	0.793575	0.196735	-0.514119
C148	C	0.872857	0.194287	-0.601367
C149	C	0.876056	0.146568	-0.545685
H150	H	0.910131	0.206662	-0.616666
H151	H	0.851796	0.155780	-0.629482
H152	H	0.854477	0.252801	-0.595722
H153	H	0.894429	0.088051	-0.551333
H154	H	0.897121	0.185066	-0.517572
H155	H	0.743296	-0.005642	-0.265133
H156	H	-0.040579	-0.118775	-0.099998
H157	H	0.743325	-0.005608	-0.734925
H158	H	0.506490	-0.129676	0.099901
O159	O	0.748865	0.004708	-0.855250
C160	C	0.734838	0.098415	-0.839717
H161	H	0.712904	0.098107	-0.793535
H162	H	0.705013	0.127461	-0.875516
C163	C	0.816372	0.162332	-0.893497
C164	C	0.789437	0.161955	-0.836773
H165	H	0.850051	0.201529	-0.891684
H166	H	0.825822	0.099201	-0.903964
H167	H	0.791512	0.186535	-0.923324
H168	H	0.814294	0.137741	-0.806950
H169	H	0.779993	0.225084	-0.826301
O170	O	0.609125	-0.250816	-0.855254
C171	C	0.577860	-0.307990	-0.813545
H172	H	0.575248	-0.269151	-0.768203
H173	H	0.599917	-0.378211	-0.806783
C174	C	0.520652	-0.375757	-0.894061
C175	C	0.517439	-0.328050	-0.838372
H176	H	0.483382	-0.388135	-0.909376
H177	H	0.541716	-0.337241	-0.922161
H178	H	0.539034	-0.434269	-0.888418
H179	H	0.499063	-0.269535	-0.844018
H180	H	0.496370	-0.366557	-0.810273
H181	H	0.614731	-0.240607	-0.734964
O182	O	0.511163	-0.129993	-0.108617
C183	C	0.543286	-0.212731	-0.111907
H184	H	0.523775	-0.269725	-0.080645
H185	H	0.588871	-0.195073	-0.097113
C186	C	0.567117	-0.179970	-0.216113
C187	C	0.543151	-0.249974	-0.177720
H188	H	0.567037	-0.202942	-0.256710
H189	H	0.545477	-0.124226	-0.213896
H190	H	0.605103	-0.165262	-0.203778
H191	H	0.505165	-0.264673	-0.190051
H192	H	0.564785	-0.305722	-0.179941
O193	O	0.573650	-0.315574	-0.562662
C194	C	0.542384	-0.372738	-0.520950
H195	H	0.539776	-0.333892	-0.475609
H196	H	0.564437	-0.442961	-0.514184
C197	C	0.485168	-0.440507	-0.601459
C198	C	0.481961	-0.392792	-0.545773
H199	H	0.447897	-0.452881	-0.616771
H200	H	0.506234	-0.401997	-0.629562
H201	H	0.503548	-0.499021	-0.595813
H202	H	0.463588	-0.334274	-0.551420
H203	H	0.460891	-0.431292	-0.517671
O204	O	0.573779	-0.315581	-0.437307
C205	C	0.607228	-0.373791	-0.400528
H206	H	0.649855	-0.335673	-0.390987
H207	H	0.614651	-0.443774	-0.425049
C208	C	0.523802	-0.441147	-0.351833
C209	C	0.576156	-0.394326	-0.340111
H210	H	0.504635	-0.453819	-0.314566
H211	H	0.501266	-0.401933	-0.376613
H212	H	0.529995	-0.499461	-0.372268
H213	H	0.569962	-0.336008	-0.319683
H214	H	0.598690	-0.433531	-0.315326
H215	H	-0.148463	-0.116605	-0.099996
H216	H	-0.148448	-0.116565	0.099882
H217	H	0.232926	-0.124215	-0.155074
H218	H	0.614712	-0.240660	-0.265181
H219	H	0.125061	-0.122057	-0.155072
O220	O	0.394014	-0.127510	-0.108692
C221	C	0.433012	-0.128285	-0.157304
H222	H	0.474562	-0.159128	-0.141145
H223	H	0.441456	-0.052400	-0.174246
C224	C	0.357045	-0.152093	-0.229192
C225	C	0.408076	-0.189983	-0.209346
H226	H	0.341663	-0.190148	-0.261295
H227	H	0.330771	-0.151568	-0.196442
H228	H	0.364089	-0.088857	-0.243306
H229	H	0.401031	-0.253213	-0.195225
H230	H	0.434349	-0.190520	-0.242095
