data_functionalizedCrystal
_audit_creation_method	'MofGen! by Chris Wilmer'
_symmetry_space_group_name_H-M	'P1'
_symmetry_Int_Tables_number	1
_symmetry_cell_setting	triclinic
loop_
_symmetry_equiv_pos_as_xyz
  x,y,z
_cell_length_a	17.000381
_cell_length_b	15.500369
_cell_length_c	10.654545
_cell_angle_alpha	92.861994
_cell_angle_beta	99.957021
_cell_angle_gamma	92.598076
loop_
_atom_site_label
_atom_site_type_symbol
_atom_site_fract_x
_atom_site_fract_y
_atom_site_fract_z
O1	O	-1.052686	0.072028	0.051482
O2	O	-0.821207	0.072010	0.097027
O3	O	-0.942268	0.072019	-0.109146
O4	O	-0.931625	0.072019	0.257654
O5	O	-0.949576	-0.071866	-0.121612
O6	O	-0.828514	-0.071875	0.084560
O7	O	-1.059994	-0.071857	0.039015
Cu8	Cu	-0.944921	-0.085004	0.060649
Cu9	Cu	-0.936279	0.085157	0.075393
O10	O	-0.938932	-0.071866	0.245188
C11	C	-0.795220	0.000065	0.093239
C12	C	-0.706903	0.000058	0.100512
N13	N	-0.951005	-0.204686	0.050278
C14	C	-0.206944	0.000077	0.147481
C15	C	-0.289929	0.000079	0.140637
C16	C	-0.340268	0.000073	0.021835
C17	C	-0.307618	0.000075	-0.090130
C18	C	-0.224634	0.000080	-0.083284
C19	C	-0.591268	0.000064	-0.004607
C20	C	-0.674257	0.000057	-0.011444
C21	C	-0.656563	0.000062	0.219324
C22	C	-0.573579	0.000062	0.226159
C23	C	-0.540935	0.000068	0.114195
C24	C	-0.425092	0.000072	0.014836
C25	C	-0.456112	0.000076	0.121195
C26	C	-0.981509	-0.749859	-0.001578
C27	C	-0.976890	-0.659288	0.006283
C28	C	-0.920959	-0.614022	0.101470
C29	C	-0.869649	-0.659332	0.188811
C30	C	-0.874273	-0.749900	0.180954
C31	C	-0.904319	-0.340564	0.129762
C32	C	-0.899698	-0.249989	0.137610
C33	C	-1.006940	-0.249951	-0.044918
C34	C	-1.011556	-0.340522	-0.052771
C35	C	-0.960249	-0.385823	0.034574
C36	C	-0.916234	-0.521445	0.109505
C37	C	-0.964978	-0.478399	0.026544
C38	C	-0.085980	0.000083	0.042801
C39	C	-0.174299	0.000076	0.035525
C40	C	-0.945140	0.000078	-0.162080
C41	C	-0.942801	0.000083	-0.301232
N42	N	-0.930202	0.204838	0.085753
C43	C	-0.934844	0.156950	-0.287650
C44	C	-0.929770	0.235384	-0.346233
C45	C	-0.927573	0.235385	-0.476979
C46	C	-0.930448	0.156944	-0.549145
C47	C	-0.935522	0.078510	-0.490562
C48	C	-0.937721	0.078518	-0.359813
C49	C	-0.943473	-0.078356	-0.504142
C50	C	-0.945676	-0.078358	-0.373398
C51	C	-0.946348	-0.156797	-0.576308
C52	C	-0.951428	-0.235232	-0.517727
C53	C	-0.953626	-0.235230	-0.386973
C54	C	-0.950751	-0.156792	-0.314815
C55	C	-0.936060	0.000077	0.298122
C56	C	-0.938399	0.000078	0.437275
H57	H	-0.316504	0.000087	0.231805
H58	H	-0.854149	-0.213137	0.215127
H59	H	-0.923433	0.299252	-0.524674
O60	O	-0.928419	0.156832	-0.676192
C61	C	-0.998644	0.113828	-0.745423
H62	H	-1.025166	0.068032	-0.681319
H63	H	-0.983659	0.075266	-0.831323
H64	H	-1.043892	0.163410	-0.779610
O65	O	-0.524794	0.000106	0.341671
C66	C	-0.571404	0.000084	0.439021
H67	H	-0.631770	0.027323	0.402678
H68	H	-0.539122	0.041857	0.525314
H69	H	-0.581010	-0.068946	0.467790
H70	H	-0.927428	0.299249	-0.287461
H71	H	-0.683151	0.000058	0.310479
H72	H	-0.952544	-0.156782	-0.208356
H73	H	-0.862541	-0.377441	0.200880
H74	H	-0.944554	-0.156790	-0.682766
H75	H	-0.564701	0.000067	-0.095776
O76	O	-0.954247	-0.311344	-0.588023
C77	C	-0.951189	-0.294524	-0.715974
H78	H	-0.972609	-0.227116	-0.735967
H79	H	-0.991440	-0.344616	-0.782241
H80	H	-0.887048	-0.298239	-0.733180
H81	H	-0.957746	-0.299100	-0.339280
H82	H	-0.715242	0.000057	-0.108192
H83	H	-0.348610	0.000076	-0.186860
H84	H	-1.010520	-0.515257	-0.050954
O85	O	-0.158160	0.000121	0.262995
C86	C	-0.204774	0.000103	0.360339
H87	H	-0.265141	0.027337	0.323987
H88	H	-0.172497	0.041883	0.446628
H89	H	-0.214377	-0.068924	0.389118
O90	O	-0.193053	0.000040	-0.192166
C91	C	-0.255275	0.000056	-0.298491
H92	H	-0.313216	-0.027191	-0.271906
H93	H	-0.239598	-0.041715	-0.380829
H94	H	-0.263325	0.069084	-0.328716
H95	H	-0.415122	0.000084	0.217923
H96	H	-0.870692	-0.484582	0.187007
H97	H	-0.466088	0.000064	-0.081893
H98	H	-0.936642	0.156958	-0.181192
H99	H	-1.018669	-0.622403	-0.064829
O100	O	-1.035907	-0.793692	-0.094095
C101	C	-1.080186	-0.734280	-0.169510
H102	H	-1.078073	-0.669721	-0.112545
H103	H	-1.144938	-0.760424	-0.197883
H104	H	-1.053356	-0.724653	-0.259081
O105	O	-1.065969	-0.384356	-0.145264
C106	C	-1.110257	-0.324948	-0.220674
H107	H	-1.108129	-0.260384	-0.163721
H108	H	-1.175011	-0.351088	-0.249012
H109	H	-1.083444	-0.315335	-0.310266
O110	O	-0.815421	-0.615267	0.281324
C111	C	-0.855765	-0.562875	0.358660
H112	H	-0.917040	-0.549282	0.303044
H113	H	-0.819421	-0.499200	0.387666
H114	H	-0.863455	-0.597776	0.447805
H115	H	-1.048712	-0.213059	-0.116028
H116	H	-0.832494	-0.786785	0.252070
