data_functionalizedCrystal
_audit_creation_method	'MofGen! by Chris Wilmer'
_symmetry_space_group_name_H-M	'P1'
_symmetry_Int_Tables_number	1
_symmetry_cell_setting	triclinic
loop_
_symmetry_equiv_pos_as_xyz
  x,y,z
_cell_length_a	31.640172
_cell_length_b	31.640171
_cell_length_c	14.446369
_cell_angle_alpha	59.979003
_cell_angle_beta	90.003488
_cell_angle_gamma	59.992468
loop_
_atom_site_label
_atom_site_type_symbol
_atom_site_fract_x
_atom_site_fract_y
_atom_site_fract_z
Zr1	Zr	0.407055	0.462744	-0.121839
O2	O	0.339540	0.550962	-0.269759
O3	O	0.427769	0.374534	-0.076430
O4	O	0.427743	0.462745	-0.269642
O5	O	0.339567	0.462748	0.075790
O6	O	0.497300	0.462736	-0.269622
O7	O	0.339566	0.462752	-0.076547
O8	O	0.497346	0.304943	0.075999
O9	O	0.339521	0.620541	-0.269830
O10	O	0.488492	0.410807	-0.057125
O11	O	0.436584	0.410810	0.056547
O12	O	0.436554	0.514667	-0.170935
O13	O	0.384645	0.514671	-0.057262
Zr14	Zr	0.517993	0.462724	0.121154
Zr15	Zr	0.517991	0.462730	-0.121806
Zr16	Zr	0.407057	0.462738	0.121122
Zr17	Zr	0.407025	0.573714	-0.121953
Zr18	Zr	0.518023	0.351754	0.121268
O19	O	0.497279	0.550934	0.075745
O20	O	0.497276	0.550943	-0.269713
O21	O	0.339543	0.550954	0.075699
O22	O	0.585508	0.374506	0.269074
O23	O	0.585505	0.374514	-0.076384
O24	O	0.427772	0.374526	0.269028
O25	O	0.585481	0.462721	-0.076475
O26	O	0.497305	0.462723	0.268957
O27	O	0.427748	0.462732	0.268937
O28	O	0.585482	0.462717	0.075862
O29	O	0.427700	0.620530	-0.269805
O30	O	0.497348	0.304938	0.269120
O31	O	0.585526	0.304927	0.269146
O32	O	0.585525	0.304932	0.076025
O33	O	0.339523	0.620536	-0.076710
O34	O	0.427702	0.620525	-0.076684
O35	O	0.488494	0.410801	0.170250
O36	O	0.540403	0.410797	0.056578
O37	O	0.488464	0.514658	-0.057232
O38	O	0.436556	0.514662	0.056440
C39	C	0.462562	0.323928	-0.000199
C40	C	0.462574	0.276818	-0.000151
C41	C	0.435428	-0.059402	0.059004
C42	C	0.435456	0.117551	0.059103
O43	O	0.412433	0.140415	0.109615
N44	N	0.462555	0.139678	-0.000221
C45	C	0.489653	0.117561	-0.059569
O46	O	0.512708	0.140437	-0.110016
C47	C	0.489628	-0.059395	-0.059661
C48	C	0.462522	-0.081515	-0.000342
C49	C	0.408325	-0.081523	0.118319
C50	C	0.408316	-0.125756	0.118288
C51	C	0.435410	-0.147869	0.058942
C52	C	0.462513	-0.125749	-0.000373
C53	C	0.516728	-0.081514	-0.119001
C54	C	0.516720	-0.125757	-0.119017
C55	C	0.489615	-0.147877	-0.059698
C56	C	0.489598	-0.192095	-0.059749
N57	N	0.462499	-0.214222	-0.000425
C58	C	0.435405	-0.192109	0.058921
C59	C	0.489663	0.210466	-0.059518
C60	C	0.489669	0.254706	-0.059496
C61	C	0.435472	0.254692	0.059178
C62	C	0.435464	0.210455	0.059149
C63	C	0.462563	0.188339	-0.000193
C64	C	0.435388	-0.285002	0.058851
C65	C	0.435379	-0.329237	0.058812
C66	C	0.489578	-0.329222	-0.059857
C67	C	0.489584	-0.284988	-0.059823
C68	C	0.462488	-0.262881	-0.000460
O69	O	0.512614	-0.214990	-0.110224
O70	O	0.412363	-0.215002	0.109381
C71	C	0.435437	-0.015169	0.059034
C72	C	0.462540	0.006952	-0.000281
C73	C	0.489634	-0.015161	-0.059627
C74	C	0.462546	0.051191	-0.000260
C75	C	0.435452	0.073304	0.059086
C76	C	0.408352	0.051178	0.118411
C77	C	0.408343	0.006944	0.118380
C78	C	0.516734	0.006966	-0.118951
C79	C	0.516740	0.051200	-0.118917
C80	C	0.489646	0.073312	-0.059571
C81	C	0.323761	0.462752	-0.000383
C82	C	0.276666	0.462758	-0.000397
C83	C	0.011771	0.408514	0.059088
C84	C	-0.165214	0.408504	0.059111
O85	O	-0.165042	0.362396	0.109676
N86	N	-0.214455	0.462718	-0.000298
C87	C	-0.219449	0.516938	-0.059711
O88	O	-0.265393	0.563050	-0.110232
C89	C	-0.042465	0.516948	-0.059726
C90	C	0.006776	0.462730	-0.000323
C91	C	0.061010	0.354301	0.118488
C92	C	0.105253	0.354304	0.118477
C93	C	0.100258	0.408521	0.059066
C94	C	0.051019	0.462733	-0.000334
C95	C	-0.047459	0.571167	-0.119132
C96	C	-0.003208	0.571165	-0.119128
C97	C	0.046033	0.516948	-0.059724
C98	C	0.090267	0.516953	-0.059756
N99	N	0.139509	0.462739	-0.000347
C100	C	0.144504	0.408523	0.059064
C101	C	-0.312367	0.516929	-0.059701
C102	C	-0.356613	0.516927	-0.059699
C103	C	-0.302374	0.408492	0.059125
C104	C	-0.258128	0.408495	0.059116
C105	C	-0.263126	0.462715	-0.000292
C106	C	0.237416	0.408534	0.059035
C107	C	0.281661	0.408541	0.059014
C108	C	0.227419	0.516975	-0.059804
C109	C	0.183177	0.516968	-0.059789
C110	C	0.188180	0.462742	-0.000361
O111	O	0.090135	0.563036	-0.110285
O112	O	0.190452	0.362418	0.109598
C113	C	-0.032472	0.408511	0.059099
C114	C	-0.081711	0.462724	-0.000300
C115	C	-0.086706	0.516940	-0.059711
C116	C	-0.125957	0.462722	-0.000298
C117	C	-0.120962	0.408506	0.059113
C118	C	-0.071720	0.354292	0.118522
C119	C	-0.027477	0.354295	0.118510
C120	C	-0.135947	0.571154	-0.119120
C121	C	-0.180188	0.571146	-0.119105
C122	C	-0.175193	0.516930	-0.059694
C123	C	0.601287	0.462717	-0.000302
C124	C	0.648382	0.462711	-0.000288
C125	C	0.462521	0.462742	-0.304248
C126	C	0.462521	0.462744	-0.407391
C127	C	0.462486	0.601540	-0.000486
C128	C	0.462473	0.648650	-0.000534
C129	C	0.429605	0.528242	-0.625837
C130	C	0.429744	0.528287	-0.518605
C131	C	0.518935	0.430203	-0.410665
C132	C	0.518758	0.430618	-0.518434
C133	C	0.439489	0.429279	-0.517092
C134	C	0.438344	0.430514	-0.411125
C135	C	0.462526	0.462726	0.303564
C136	C	0.462527	0.462724	0.406707
C137	C	0.601325	0.323910	-0.000159
C138	C	0.648433	0.276795	-0.000096
C139	C	0.462564	0.323920	0.303707
C140	C	0.462578	0.276808	0.406898
C141	C	0.601328	0.323903	0.303747
C142	C	0.648436	0.276785	0.406953
C143	C	0.323720	0.601565	-0.304432
C144	C	0.276612	0.648683	-0.407637
C145	C	0.323723	0.601558	-0.000526
C146	C	0.276615	0.648673	-0.000588
C147	C	0.462484	0.601548	-0.304392
C148	C	0.462470	0.648660	-0.407583
C149	C	0.643458	0.254674	-0.059429
C150	C	0.687717	0.210410	-0.059393
C151	C	0.736949	0.188265	-0.000017
C152	C	0.741923	0.210390	0.059317
C153	C	0.697665	0.254657	0.059274
C154	C	0.489681	0.254679	0.514720
C155	C	0.489692	0.210418	0.611689
C156	C	0.462602	0.188285	0.600833
C157	C	0.435496	0.210418	0.493000
C158	C	0.435482	0.254681	0.396034
C159	C	0.697659	0.254656	0.396083
C160	C	0.741927	0.210389	0.493046
C161	C	0.736971	0.188250	0.600878
C162	C	0.687742	0.210384	0.611745
C163	C	0.643476	0.254652	0.514783
C164	C	0.227389	0.670818	-0.396768
C165	C	0.183121	0.715098	-0.493731
C166	C	0.188077	0.737240	-0.601562
C167	C	0.237306	0.715103	-0.612430
C168	C	0.281572	0.670827	-0.515468
C169	C	0.281590	0.670799	0.058734
C170	C	0.237331	0.715075	0.058671
C171	C	0.188099	0.737222	-0.000708
C172	C	0.183125	0.715094	-0.060037
C173	C	0.227383	0.670822	-0.059981
C174	C	0.489565	0.670780	-0.396691
C175	C	0.489562	0.715041	-0.493641
C176	C	0.462461	0.737184	-0.601482
C177	C	0.435366	0.715060	-0.612372
C178	C	0.435372	0.670797	-0.515423
H179	H	0.538800	-0.063511	-0.167303
F180	F	0.242573	0.738673	-0.727201
H181	H	0.413301	0.733096	-0.700189
F182	F	-0.317695	0.574641	-0.122937
F183	F	0.784049	0.141152	0.000020
H184	H	0.321755	0.364389	0.107391
F185	F	0.140999	0.784340	-0.000757
H186	H	0.462618	0.152243	0.679799
F187	F	0.406527	0.647265	-0.527032
H188	H	0.223343	0.652792	-0.308975
F189	F	0.794324	0.186815	0.122508
F190	F	0.518545	0.186869	0.726442
F191	F	0.406667	0.186856	0.481465
H192	H	0.445723	0.553973	-0.521081
H193	H	0.387956	0.553959	-0.679828
F194	F	0.140960	0.784362	-0.704749
F195	F	0.406636	0.278226	0.281285
H196	H	0.413322	-0.267006	0.107188
F197	F	0.406527	-0.352776	0.121947
F198	F	0.024925	0.296589	0.181737
H199	H	0.143034	0.733133	-0.108382
F200	F	0.222081	0.647275	-0.123117
H201	H	0.145344	0.310155	0.166844
H202	H	0.511626	0.733049	-0.484753
H203	H	0.701722	0.272662	0.107596
F204	F	0.333958	0.647271	-0.527053
F205	F	0.702946	0.278213	0.281330
H206	H	0.463355	0.381014	-0.489587
F207	F	-0.409015	0.574632	-0.122940
H208	H	0.511634	0.652757	-0.308891
F209	F	0.384020	0.461525	-0.411846
H210	H	0.143041	0.733114	-0.484860
F211	F	0.591090	0.278196	0.526369
H212	H	0.782007	0.192373	0.484178
F213	F	0.591066	0.278236	-0.122632
F214	F	0.222112	0.574673	-0.123017
F215	F	0.462458	0.784295	-0.704655
F216	F	-0.205725	0.350791	0.122342
F217	F	0.682475	0.186815	0.726517
F218	F	-0.297065	0.350791	0.122354
F219	F	0.333982	0.647238	0.121935
F220	F	0.784088	0.141135	0.704065
H221	H	0.511741	0.272695	0.523581
F222	F	0.242635	0.738615	0.121825
F223	F	0.518427	-0.261440	-0.122968
F224	F	0.379487	-0.057997	0.181492
F225	F	0.406615	0.186916	0.122285
F226	F	0.379470	-0.149296	0.181431
H227	H	0.544619	0.382548	-0.491723
F228	F	0.406636	0.278234	0.122337
H229	H	0.511731	0.192463	-0.107844
F230	F	0.545567	-0.149295	-0.182172
F231	F	0.518410	-0.352763	-0.123017
F232	F	0.379494	-0.016593	0.181517
F233	F	0.379514	0.074721	0.181567
F234	F	0.518510	0.278251	-0.122650
H235	H	0.538798	-0.011036	-0.167276
F236	F	0.545588	0.074740	-0.182065
H237	H	0.241497	0.364378	0.107428
H238	H	-0.087547	0.615317	-0.167503
F239	F	-0.008532	0.628875	-0.182357
F240	F	0.066337	0.296592	0.181731
H241	H	-0.067660	0.310147	0.166889
F242	F	0.130770	0.574671	-0.123033
H243	H	-0.220281	0.615300	-0.167490
H244	H	-0.140023	0.615304	-0.167503
F245	F	0.375447	0.561620	-0.520724
F246	F	0.542864	0.460838	-0.584267
F247	F	0.450293	0.561686	-0.697735
H248	H	0.544527	0.382011	-0.332340
H249	H	0.683657	0.192401	-0.107710
H250	H	0.537509	0.452796	-0.408541
H251	H	0.398578	0.450248	-0.567149
H252	H	0.459832	0.382697	-0.331912
