data_functionalizedCrystal
_audit_creation_method	'MofGen! by Chris Wilmer'
_symmetry_space_group_name_H-M	'P1'
_symmetry_Int_Tables_number	1
_symmetry_cell_setting	triclinic
loop_
_symmetry_equiv_pos_as_xyz
  x,y,z
_cell_length_a	10.723022
_cell_length_b	10.723024
_cell_length_c	9.798715
_cell_angle_alpha	89.998925
_cell_angle_beta	90.003391
_cell_angle_gamma	95.532452
loop_
_atom_site_label
_atom_site_type_symbol
_atom_site_fract_x
_atom_site_fract_y
_atom_site_fract_z
O1	O	-1.657188	0.175015	-0.113475
O2	O	-1.323855	0.508348	0.219858
O3	O	-0.990522	0.841682	0.553191
O4	O	-1.294036	0.191770	-0.113479
O5	O	-0.960703	0.525104	0.219854
O6	O	-0.627369	0.858437	0.553187
O7	O	-1.483989	0.001817	-0.113475
O8	O	-1.150655	0.335150	0.219858
O9	O	-0.817322	0.668483	0.553191
O10	O	-1.467236	0.364969	-0.113479
O11	O	-1.133902	0.698302	0.219854
O12	O	-0.800569	1.031636	0.553187
O13	O	-1.483975	0.001816	0.113507
O14	O	-1.150641	0.335149	0.446840
O15	O	-0.817308	0.668483	0.780173
O16	O	-1.294022	0.191770	0.113503
O17	O	-0.960688	0.525103	0.446836
O18	O	-0.627355	0.858437	0.780169
O19	O	-1.657174	0.175015	0.113507
O20	O	-1.323841	0.508348	0.446840
O21	O	-0.990508	0.841681	0.780173
Zn22	Zn	-1.475596	0.183392	0.149543
Zn23	Zn	-1.142262	0.516726	0.482876
Zn24	Zn	-0.808929	0.850059	0.816210
Zn25	Zn	-1.475614	0.183393	-0.149516
Zn26	Zn	-1.142281	0.516726	0.183818
Zn27	Zn	-0.808948	0.850060	0.517151
O28	O	-1.467221	0.364969	0.113503
O29	O	-1.133888	0.698302	0.446836
O30	O	-0.800555	1.031635	0.780169
C31	C	-1.247529	0.190551	0.000011
C32	C	-0.914196	0.523885	0.333344
C33	C	-0.580862	0.857218	0.666678
C34	C	-1.108975	0.186904	0.000009
C35	C	-0.775641	0.520238	0.333343
C36	C	-0.442308	0.853571	0.666676
C37	C	-1.482763	-0.044683	0.000013
C38	C	-1.149429	0.288650	0.333347
C39	C	-0.816096	0.621983	0.666680
C40	C	-1.479115	-0.183238	0.000006
C41	C	-1.145782	0.150096	0.333339
C42	C	-0.812448	0.483429	0.666673
C43	C	-1.703681	0.176234	0.000013
C44	C	-1.370348	0.509567	0.333347
C45	C	-1.037014	0.842900	0.666680
C46	C	-1.842235	0.179881	0.000006
C47	C	-1.508902	0.513214	0.333339
C48	C	-1.175569	0.846547	0.666673
C49	C	-1.468448	0.411468	0.000011
C50	C	-1.135114	0.744802	0.333344
C51	C	-0.801781	1.078135	0.666678
C52	C	-1.472095	0.550023	0.000009
C53	C	-1.138762	0.883356	0.333343
C54	C	-0.805429	1.216689	0.666676
C55	C	-1.060414	0.077365	0.000010
C56	C	-0.727080	0.410698	0.333343
C57	C	-0.393747	0.744031	0.666677
C58	C	-0.917211	0.073593	0.000008
C59	C	-0.583878	0.406926	0.333341
C60	C	-0.250544	0.740259	0.666675
N61	N	-1.475592	0.183391	0.353643
N62	N	-1.142259	0.516724	0.686976
N63	N	-0.808925	0.850058	1.020309
C64	C	-1.365808	0.625006	0.000007
C65	C	-1.032474	0.958339	0.333341
C66	C	-0.699141	1.291673	0.666674
C67	C	-1.369575	0.768209	0.000006
C68	C	-1.036242	1.101543	0.333339
C69	C	-0.702908	1.434876	0.666672
N70	N	-1.475628	0.183384	-0.353615
N71	N	-1.142295	0.516718	-0.020282
N72	N	-0.808961	0.850051	0.313051
C73	C	-1.555348	0.103283	0.421421
C74	C	-1.222015	0.436617	0.754755
C75	C	-0.888681	0.769950	1.088088
C76	C	-1.555368	0.103279	0.578584
C77	C	-1.222035	0.436612	0.911917
C78	C	-0.888701	0.769946	1.245251
H79	H	-1.124856	-0.013624	0.000005
H80	H	-0.791523	0.319709	0.333338
H81	H	-0.458189	0.653043	0.666671
Br82	Br	-1.628421	0.619714	-0.000006
Br83	Br	-1.295088	0.953047	0.333327
Br84	Br	-0.961754	1.286380	0.666660
H85	H	-1.407320	0.251967	0.411966
H86	H	-1.073986	0.585300	0.745299
H87	H	-0.740653	0.918634	1.078632
H88	H	-1.278585	0.832642	0.000013
H89	H	-0.945251	1.165976	0.333346
H90	H	-0.611918	1.499309	0.666680
Br91	Br	-1.669193	-0.011029	0.675725
Br92	Br	-1.335860	0.322305	1.009058
Br93	Br	-1.002527	0.655638	1.342391
H94	H	-1.407346	0.251976	0.588107
H95	H	-1.074013	0.585309	0.921440
H96	H	-0.740680	0.918643	1.254773
Br97	Br	-0.911906	0.336214	0.000022
Br98	Br	-0.578573	0.669547	0.333355
Br99	Br	-0.245239	1.002880	0.666689
H100	H	-0.875399	-0.020195	-0.000026
H101	H	-0.542065	0.313139	0.333308
H102	H	-0.208732	0.646472	0.666641
H103	H	-1.044532	0.277893	0.000002
H104	H	-0.711199	0.611226	0.333335
H105	H	-0.377866	0.944560	0.666669
H106	H	-1.623612	0.034697	0.363100
H107	H	-1.290278	0.368031	0.696434
H108	H	-0.956945	0.701364	1.029767
H109	H	-1.272022	0.583184	-0.000001
H110	H	-0.938688	0.916518	0.333333
H111	H	-0.605355	1.249851	0.666666
H112	H	-1.570110	0.752337	0.000014
H113	H	-1.236777	1.085670	0.333347
H114	H	-0.903444	1.419003	0.666681
