data_functionalizedCrystal
_audit_creation_method	'MofGen! by Chris Wilmer'
_symmetry_space_group_name_H-M	'P1'
_symmetry_Int_Tables_number	1
_symmetry_cell_setting	triclinic
loop_
_symmetry_equiv_pos_as_xyz
  x,y,z
_cell_length_a	15.944551
_cell_length_b	15.944499
_cell_length_c	9.016244
_cell_angle_alpha	90.001008
_cell_angle_beta	89.997151
_cell_angle_gamma	83.488174
loop_
_atom_site_label
_atom_site_type_symbol
_atom_site_fract_x
_atom_site_fract_y
_atom_site_fract_z
O1	O	1.114508	0.108331	-0.123175
O2	O	0.869956	0.121688	-0.123210
O3	O	0.998933	-0.007268	-0.123194
O4	O	0.985531	0.237287	-0.123191
O5	O	0.998914	-0.007265	0.123487
O6	O	0.869937	0.121691	0.123470
O7	O	1.114489	0.108334	0.123506
Cu8	Cu	0.992211	0.115013	0.146012
Cu9	Cu	0.992234	0.115009	-0.145716
O10	O	0.985512	0.237290	0.123490
C11	C	0.838653	0.121135	0.000125
C12	C	0.745407	0.119472	0.000111
C13	C	0.530566	0.035566	0.000139
C14	C	0.469548	0.074528	-0.121487
C15	C	0.574681	0.116465	0.000129
C16	C	0.469551	0.074550	0.121721
C17	C	0.409769	0.113554	0.000152
C18	C	0.514892	0.155449	-0.121598
C19	C	0.514902	0.155460	0.121719
C20	C	0.453901	0.194481	0.000063
C21	C	0.669683	0.118140	0.000114
C22	C	0.314768	0.111886	0.000156
C23	C	0.998375	-0.038562	0.000142
C24	C	0.996730	-0.131810	0.000131
C25	C	1.071662	-0.423346	0.000150
C26	C	1.032701	-0.362319	0.121776
C27	C	0.990753	-0.467446	0.000147
C28	C	1.032698	-0.362328	-0.121432
C29	C	0.993694	-0.302538	0.000137
C30	C	0.951770	-0.407648	0.121874
C31	C	0.951778	-0.407663	-0.121443
C32	C	0.912758	-0.346654	0.000213
C33	C	0.989062	-0.562446	0.000155
C34	C	0.995379	-0.207539	0.000140
C35	C	1.145792	0.108887	0.000167
C36	C	1.239038	0.110550	0.000171
C37	C	0.986070	0.268583	0.000150
C38	C	0.987715	0.361832	0.000152
N39	N	0.992202	0.115015	0.351198
N40	N	0.992250	0.115001	-0.350903
C41	C	0.923000	0.183770	0.586222
C42	C	0.923149	0.184024	0.414331
C43	C	1.079844	0.134164	0.413550
C44	C	1.079466	0.134650	0.585495
C45	C	0.974635	0.026879	0.585737
C46	C	0.972615	0.027469	0.413783
H47	H	0.534881	0.189639	-0.224535
H48	H	1.025136	-0.024297	0.626396
H49	H	0.535019	0.189650	0.224551
H50	H	0.449464	0.040319	0.224542
H51	H	0.563911	-0.031574	-0.000012
H52	H	1.138808	-0.456676	0.000276
H53	H	0.420730	0.261689	-0.000004
H54	H	1.066915	-0.342227	0.224609
H55	H	0.917569	-0.427628	0.224807
H56	H	1.132605	0.086537	0.627084
H57	H	0.845554	-0.313472	0.000274
H58	H	1.066941	-0.342249	-0.224247
H59	H	0.917593	-0.427777	-0.224281
H60	H	0.858003	0.172614	0.372177
H61	H	1.094989	0.198917	0.625587
H62	H	0.857647	0.172546	0.627606
H63	H	1.132601	0.085410	0.372652
H64	H	0.934092	0.248796	0.629418
H65	H	0.934392	0.249419	0.373187
H66	H	1.095734	0.197700	0.370476
H67	H	0.912120	0.008465	0.629175
H68	H	0.908144	0.012937	0.373031
H69	H	1.019773	-0.026103	0.370813
H70	H	0.449452	0.040310	-0.224314
