data_functionalizedCrystal
_audit_creation_method	'MofGen! by Chris Wilmer'
_symmetry_space_group_name_H-M	'P1'
_symmetry_Int_Tables_number	1
_symmetry_cell_setting	triclinic
loop_
_symmetry_equiv_pos_as_xyz
  x,y,z
_cell_length_a	17.639874
_cell_length_b	12.759400
_cell_length_c	12.759393
_cell_angle_alpha	89.974455
_cell_angle_beta	78.825204
_cell_angle_gamma	78.775497
loop_
_atom_site_label
_atom_site_type_symbol
_atom_site_fract_x
_atom_site_fract_y
_atom_site_fract_z
Zn1	Zn	-1.208359	-0.093252	-0.269926
Zn2	Zn	-1.208309	-0.268985	-0.094278
Zn3	Zn	-1.076193	-0.128849	-0.129714
Zn4	Zn	-1.076209	-0.304427	-0.305351
O5	O	-1.142268	-0.198878	-0.199817
O6	O	-1.318949	-0.086833	-0.216970
O7	O	-1.190756	-0.250460	0.048035
O8	O	-1.093740	0.022898	-0.148318
O9	O	-1.318912	-0.215943	-0.087923
O10	O	-1.190841	0.049051	-0.251331
O11	O	-1.093691	-0.147503	0.022000
O12	O	-0.965599	-0.181870	-0.182668
O13	O	-1.093766	-0.276349	-0.447666
O14	O	-0.965610	-0.310866	-0.311708
O15	O	-1.190857	-0.121200	-0.421639
O16	O	-1.190771	-0.420711	-0.122273
O17	O	-1.093718	-0.446750	-0.277348
C18	C	-1.142262	-0.471847	-0.199826
C19	C	-1.142333	-0.588605	-0.199846
C20	C	-0.936928	-0.254078	-0.254878
C21	C	-0.849083	-0.277717	-0.278459
C22	C	-1.142319	-0.198757	-0.473837
C23	C	-1.142341	-0.198706	-0.590608
C24	C	-0.560032	-0.019204	-0.020635
C25	C	-0.477488	-0.041439	-0.042807
C26	C	-0.477554	-0.175948	-0.176944
C27	C	-0.560100	-0.153721	-0.154787
C28	C	-0.601332	-0.075349	-0.076631
C29	C	-0.601400	-0.209865	-0.210783
C30	C	-0.683938	-0.187644	-0.188624
C31	C	-0.725176	-0.109278	-0.110469
C32	C	-0.683870	-0.053127	-0.054472
C33	C	-0.560166	-0.288242	-0.288934
C34	C	-0.601467	-0.344387	-0.344930
C35	C	-0.684007	-0.322160	-0.322777
C36	C	-0.725245	-0.243794	-0.244622
C37	C	-0.725313	-0.378311	-0.378774
C38	C	-0.807851	-0.356089	-0.356615
C39	C	-0.807783	-0.221573	-0.222463
C40	C	-0.348409	-0.143450	-0.144531
C41	C	-0.436254	-0.119797	-0.120944
C42	C	-1.142294	0.075162	-0.199825
C43	C	-1.142306	0.191942	-0.199829
C44	C	-1.091760	0.233192	-0.146196
C45	C	-1.091771	0.342919	-0.146208
C46	C	-1.192881	0.370139	-0.253485
C47	C	-1.192865	0.260412	-0.253479
C48	C	-1.041201	0.164722	-0.092546
C49	C	-0.990651	0.205971	-0.038908
C50	C	-0.990662	0.315698	-0.038920
C51	C	-1.041223	0.384176	-0.092569
C52	C	-1.091820	-0.145078	-0.659026
C53	C	-1.091844	-0.145040	-0.768744
C54	C	-1.192916	-0.252259	-0.741613
C55	C	-1.192887	-0.252303	-0.631899
C56	C	-1.041274	-0.091481	-0.617735
C57	C	-0.990750	-0.037847	-0.686155
C58	C	-0.990774	-0.037810	-0.795873
C59	C	-1.041322	-0.091405	-0.837171
C60	C	-1.142262	-0.198910	0.073149
C61	C	-1.142393	-0.198625	0.189960
H62	H	-0.841357	-0.157739	-0.158836
H63	H	-0.841478	-0.401807	-0.402214
O64	O	-0.941723	0.014195	-0.645861
C65	C	-0.896854	0.061599	-0.488873
C66	C	-0.952433	0.002641	-0.534356
H67	H	-0.905482	0.052260	-0.398719
H68	H	-0.910748	0.150080	-0.506655
H69	H	-0.833138	0.026041	-0.527596
H70	H	-1.016167	0.038110	-0.495660
H71	H	-0.938471	-0.085835	-0.516587
O72	O	-0.941669	0.355914	0.013257
C73	C	-0.931032	0.476838	0.152281
C74	C	-0.986604	0.431404	0.093258
H75	H	-0.967340	0.537864	0.216989
H76	H	-0.889731	0.517192	0.093026
H77	H	-0.894878	0.409025	0.190570
H78	H	-1.022810	0.499155	0.054966
H79	H	-1.027853	0.391020	0.152558
O80	O	-0.805354	-0.087586	-0.088776
C81	C	-0.923759	0.018165	0.016588
C82	C	-0.832959	-0.006312	-0.007855
H83	H	-0.946105	0.083892	0.081997
H84	H	-0.946217	-0.057091	0.044609
H85	H	-0.946176	0.045864	-0.058815
H86	H	-0.810475	-0.033984	0.067504
H87	H	-0.810555	0.068968	-0.035921
H88	H	-1.041226	0.473522	-0.092577
H89	H	-0.717444	0.010707	0.009155
H90	H	-1.041335	-0.091373	-0.926512
O91	O	-0.941670	0.014374	-0.862181
C92	C	-0.841388	0.120667	-0.877513
C93	C	-0.896969	0.061626	-0.802300
H94	H	-0.805220	0.158867	-0.829133
H95	H	-0.877655	0.185435	-0.919134
H96	H	-0.800101	0.061336	-0.939978
H97	H	-0.938267	0.120875	-0.739775
H98	H	-0.860653	-0.003158	-0.760759
O99	O	-1.241995	-0.304217	-0.781896
C100	C	-1.286805	-0.351707	-0.938903
C101	C	-1.231191	-0.292807	-0.893424
H102	H	-1.278077	-0.342522	-1.029082
H103	H	-1.350545	-0.316126	-0.900308
H104	H	-1.272923	-0.440152	-0.920985
H105	H	-1.245002	-0.204356	-0.911329
H106	H	-1.167467	-0.328474	-0.932019
H107	H	-0.593605	0.044630	0.042992
O108	O	-1.241971	0.436811	-0.305497
C109	C	-1.286774	0.617907	-0.353094
C110	C	-1.231149	0.542526	-0.294131
H111	H	-1.278033	0.703391	-0.343945
H112	H	-1.350513	0.613535	-0.317551
H113	H	-1.272917	0.592580	-0.441514
H114	H	-1.244935	0.567802	-0.205706
H115	H	-1.167427	0.546909	-0.329761
H116	H	-0.443864	0.004294	0.002791
O117	O	-1.242033	-0.304415	-0.565574
C118	C	-1.342241	-0.410829	-0.550244
C119	C	-1.286642	-0.351823	-0.625472
H120	H	-1.378310	-0.449194	-0.598645
H121	H	-1.383612	-0.351550	-0.487804
H122	H	-1.305913	-0.475495	-0.508592
H123	H	-1.322906	-0.287161	-0.667199
H124	H	-1.245269	-0.411169	-0.687846
O125	O	-0.561533	-0.420569	-0.420859
C126	C	-0.570313	-0.551571	-0.551656
C127	C	-0.615633	-0.465347	-0.465666
H128	H	-0.614033	-0.587783	-0.587922
H129	H	-0.531678	-0.616933	-0.513772
H130	H	-0.531667	-0.513770	-0.616989
H131	H	-0.654322	-0.503052	-0.400307
H132	H	-0.654219	-0.399996	-0.503629
O133	O	-1.242029	0.220515	-0.305606
C134	C	-1.342257	0.259066	-0.412109
C135	C	-1.286643	0.304398	-0.353079
H136	H	-1.378330	0.326860	-0.450525
H137	H	-1.383624	0.218812	-0.352850
H138	H	-1.305942	0.197942	-0.476720
H139	H	-1.322895	0.365562	-0.288470
H140	H	-1.245274	0.344585	-0.412404
O141	O	-0.479988	-0.309672	-0.310559
C142	C	-0.361527	-0.240884	-0.369468
C143	C	-0.452327	-0.216471	-0.345040
H144	H	-0.339135	-0.165542	-0.397330
H145	H	-0.339116	-0.306499	-0.434985
H146	H	-0.339109	-0.268678	-0.294091
H147	H	-0.474811	-0.188633	-0.420355
H148	H	-0.474684	-0.150892	-0.279482
O149	O	-0.685339	-0.454360	-0.454815
C150	C	-0.660106	-0.512299	-0.640224
C151	C	-0.705440	-0.426111	-0.554207
H152	H	-0.676328	-0.489479	-0.720607
H153	H	-0.676353	-0.592640	-0.617373
H154	H	-0.594024	-0.518551	-0.646380
H155	H	-0.771532	-0.419763	-0.548007
H156	H	-0.689127	-0.345815	-0.577093
H157	H	-0.443972	-0.239761	-0.240576
H158	H	-1.041250	-0.091503	-0.528399
H159	H	-1.041187	0.075376	-0.092528
H160	H	-0.949482	0.150208	0.004763
