data_functionalizedCrystal
_audit_creation_method	'MofGen! by Chris Wilmer'
_symmetry_space_group_name_H-M	'P1'
_symmetry_Int_Tables_number	1
_symmetry_cell_setting	triclinic
loop_
_symmetry_equiv_pos_as_xyz
  x,y,z
_cell_length_a	17.699083
_cell_length_b	19.188925
_cell_length_c	16.176319
_cell_angle_alpha	89.993545
_cell_angle_beta	89.998611
_cell_angle_gamma	83.212782
loop_
_atom_site_label
_atom_site_type_symbol
_atom_site_fract_x
_atom_site_fract_y
_atom_site_fract_z
O1	O	1.003961	0.088295	-0.068630
O2	O	1.503961	0.588295	0.431370
O3	O	0.783567	0.099782	-0.068657
O4	O	1.283567	0.599782	0.431343
O5	O	0.900126	-0.007610	-0.068638
O6	O	1.400126	0.492390	0.431362
O7	O	0.887401	0.195687	-0.068649
O8	O	1.387401	0.695687	0.431351
O9	O	0.900110	-0.007617	0.068855
O10	O	1.400110	0.492383	0.568855
O11	O	0.783551	0.099775	0.068836
O12	O	1.283551	0.599775	0.568836
O13	O	1.003945	0.088288	0.068863
O14	O	1.503945	0.588288	0.568863
Cu15	Cu	0.893746	0.094031	0.081404
Cu16	Cu	1.393746	0.594031	0.581404
Cu17	Cu	0.893765	0.094039	-0.081198
Cu18	Cu	1.393765	0.594039	0.418802
O19	O	0.887386	0.195680	0.068844
O20	O	1.387386	0.695680	0.568844
C21	C	0.755362	0.099367	0.000086
C22	C	1.255362	0.599367	0.500086
C23	C	0.671346	0.098132	0.000076
C24	C	1.171346	0.598132	0.500076
C25	C	0.622641	0.161169	0.000073
C26	C	1.122641	0.661169	0.500073
C27	C	0.543699	0.160005	0.000084
C28	C	1.043699	0.660005	0.500084
C29	C	0.513464	0.095803	0.000092
C30	C	1.013464	0.595803	0.500092
C31	C	0.562176	0.032761	0.000097
C32	C	1.062176	0.532761	0.500097
C33	C	0.641116	0.033926	0.000092
C34	C	1.141116	0.533926	0.500092
C35	C	0.243819	0.028060	0.000118
C36	C	0.743819	0.528060	0.500118
C37	C	0.164872	0.026900	0.000120
C38	C	0.664872	0.526900	0.500120
C39	C	0.146402	0.154139	0.000109
C40	C	0.646402	0.654139	0.500109
C41	C	0.225342	0.155304	0.000104
C42	C	0.725342	0.655304	0.500104
C43	C	0.274047	0.092263	0.000114
C44	C	0.774047	0.592263	0.500114
C45	C	0.359644	0.093526	0.000104
C46	C	0.859644	0.593526	0.500104
C47	C	0.427868	0.094538	0.000096
C48	C	0.927868	0.594538	0.500096
C49	C	0.899707	-0.033625	0.000108
C50	C	1.399707	0.466375	0.500108
C51	C	0.898472	-0.111131	0.000106
C52	C	1.398472	0.388869	0.500106
C53	C	0.958596	-0.672834	0.000093
C54	C	1.458596	-0.172834	0.500093
C55	C	0.959763	-0.600010	0.000100
C56	C	1.459763	-0.100010	0.500100
C57	C	0.891370	-0.555152	0.000092
C58	C	1.391370	-0.055152	0.500092
C59	C	0.821804	-0.583124	0.000096
C60	C	1.321804	-0.083124	0.500096
C61	C	0.820639	-0.655947	0.000097
C62	C	1.320639	-0.155947	0.500097
N63	N	0.841861	-0.434525	-0.046714
N64	N	1.341861	0.065475	0.453286
N65	N	0.842973	-0.365346	-0.046716
N66	N	1.342973	0.134654	0.453284
C67	C	0.894875	-0.335739	0.000091
C68	C	1.394875	0.164261	0.500091
N69	N	0.945637	-0.377925	0.046891
N70	N	1.445637	0.122075	0.546891
N71	N	0.944527	-0.447110	0.046890
N72	N	1.444527	0.052890	0.546890
C73	C	0.892625	-0.476186	0.000091
C74	C	1.392625	0.023814	0.500091
C75	C	0.965702	-0.228811	0.000101
C76	C	1.465702	0.271189	0.500101
C77	C	0.966866	-0.155984	0.000113
C78	C	1.466866	0.344016	0.500113
C79	C	0.828905	-0.139100	0.000101
C80	C	1.328905	0.360900	0.500101
C81	C	0.827743	-0.211925	0.000097
C82	C	1.327743	0.288075	0.500097
C83	C	0.896143	-0.256776	0.000093
C84	C	1.396143	0.243224	0.500093
C85	C	1.032149	0.088703	0.000118
C86	C	1.532149	0.588703	0.500118
C87	C	1.116166	0.089938	0.000123
C88	C	1.616166	0.589938	0.500123
C89	C	0.887805	0.221695	0.000096
C90	C	1.387805	0.721695	0.500096
C91	C	0.889040	0.299201	0.000093
C92	C	1.389040	0.799201	0.500093
N93	N	0.893739	0.094025	0.195769
N94	N	1.393739	0.594025	0.695769
N95	N	0.893779	0.094040	-0.195563
N96	N	1.393779	0.594040	0.304437
C97	C	0.945366	0.046491	0.239042
C98	C	1.445366	0.546491	0.739042
C99	C	0.945370	0.046490	0.325589
C100	C	1.445370	0.546490	0.825589
C101	C	0.893749	0.094027	0.368862
C102	C	1.393749	0.594027	0.868862
C103	C	0.842116	0.141563	0.325583
C104	C	1.342116	0.641563	0.825583
C105	C	0.842109	0.141560	0.239038
C106	C	1.342109	0.641560	0.739038
C107	C	0.842142	0.141577	0.674611
C108	C	1.342142	0.641577	1.174611
C109	C	0.842154	0.141577	0.761163
C110	C	1.342154	0.641577	1.261163
C111	C	0.945403	0.046506	0.761163
C112	C	1.445403	0.546506	1.261163
C113	C	0.945396	0.046503	0.674617
C114	C	1.445396	0.546503	1.174617
C115	C	0.893760	0.094037	0.631346
C116	C	1.393760	0.594037	1.131346
C117	C	0.893756	0.094036	0.537502
C118	C	1.393756	0.594036	1.037502
C119	C	0.893757	0.094032	0.462704
C120	C	1.393757	0.594032	0.962704
H121	H	0.647251	0.213450	0.000066
H122	H	1.147251	0.713450	0.500066
Br123	Br	0.728984	-0.522248	0.000093
Br124	Br	1.228984	-0.022248	0.500093
Br125	Br	0.477601	0.245559	0.000077
Br126	Br	0.977601	0.745559	0.500077
H127	H	0.987445	0.007800	0.796403
H128	H	1.487445	0.507800	1.296403
Br129	Br	0.772069	0.206085	0.615891
Br130	Br	1.272069	0.706085	1.115891
H131	H	0.140259	-0.025384	0.000128
H132	H	0.640259	0.474616	0.500128
H133	H	0.987405	0.007784	0.203815
H134	H	1.487405	0.507784	0.703815
Br135	Br	0.266371	0.242439	0.000086
Br136	Br	0.766371	0.742439	0.500086
Br137	Br	0.707218	-0.051628	0.000104
Br138	Br	1.207218	0.448372	0.500104
H139	H	1.014293	-0.709348	0.000094
H140	H	1.514293	-0.209348	0.500094
Br141	Br	0.309908	-0.057496	0.000133
Br142	Br	0.809908	0.442504	0.500133
H143	H	0.800115	0.180289	0.796394
H144	H	1.300115	0.680289	1.296394
H145	H	0.106737	0.205471	0.000105
H146	H	0.606737	0.705471	0.500105
Br147	Br	0.772051	0.206075	0.384307
Br148	Br	1.272051	0.706075	0.884307
Br149	Br	0.521144	-0.054372	0.000116
Br150	Br	1.021144	0.445628	0.500116
H151	H	1.016405	-0.577237	0.000100
H152	H	1.516405	-0.077237	0.500100
Br153	Br	0.733340	-0.249879	0.000092
Br154	Br	1.233340	0.250121	0.500092
Br155	Br	0.726234	-0.693902	0.000098
Br156	Br	1.226234	-0.193902	0.500098
Br157	Br	1.015459	-0.018009	0.615892
Br158	Br	1.515459	0.481991	1.115892
Br159	Br	1.058528	-0.289684	0.000097
Br160	Br	1.558528	0.210316	0.500097
Br161	Br	1.015435	-0.018024	0.384319
Br162	Br	1.515435	0.481976	0.884319
Br163	Br	1.061272	-0.118032	0.000112
Br164	Br	1.561272	0.381968	0.500112
Br165	Br	0.772035	0.206069	0.180310
Br166	Br	1.272035	0.706069	0.680310
H167	H	0.773218	-0.102577	0.000102
H168	H	1.273218	0.397423	0.500102
