data_functionalizedCrystal
_audit_creation_method	'MofGen! by Chris Wilmer'
_symmetry_space_group_name_H-M	'P1'
_symmetry_Int_Tables_number	1
_symmetry_cell_setting	triclinic
loop_
_symmetry_equiv_pos_as_xyz
  x,y,z
_cell_length_a	17.019282
_cell_length_b	14.519731
_cell_length_c	12.996460
_cell_angle_alpha	89.992872
_cell_angle_beta	93.875637
_cell_angle_gamma	83.538640
loop_
_atom_site_label
_atom_site_type_symbol
_atom_site_fract_x
_atom_site_fract_y
_atom_site_fract_z
O1	O	1.046854	0.117426	0.007224
O2	O	0.817211	0.132423	-0.013134
O3	O	0.938112	-0.009333	-0.002406
O4	O	0.925953	0.259181	-0.003503
O5	O	0.938100	-0.009341	0.168726
O6	O	0.817198	0.132415	0.157999
O7	O	1.046841	0.117418	0.178357
Cu8	Cu	0.932019	0.124916	0.183804
Cu9	Cu	0.932034	0.124925	-0.018580
O10	O	0.925940	0.259174	0.167630
C11	C	0.937536	-0.043694	0.083110
C12	C	0.935829	-0.146069	0.082959
C13	C	0.787815	0.131852	0.069827
C14	C	0.700242	0.130154	0.062064
C15	C	0.934442	-0.229209	0.082834
C16	C	0.932708	-0.333512	0.082672
C17	C	0.931332	-0.416646	0.082544
C18	C	0.929599	-0.520956	0.082384
C19	C	0.659098	0.129350	0.151704
C20	C	0.576816	0.127739	0.144413
C21	C	0.535678	0.126940	0.047481
C22	C	0.576828	0.127742	-0.042166
C23	C	0.659110	0.129346	-0.034873
C24	C	0.287242	0.122092	0.020796
C25	C	0.204954	0.120491	0.013510
C26	C	0.204948	0.120487	0.200090
C27	C	0.287230	0.122096	0.207373
C28	C	0.328374	0.122893	0.117727
C29	C	0.451572	0.125297	0.040026
C30	C	0.412479	0.124529	0.125183
C31	C	1.076238	0.117988	0.095394
C32	C	1.163810	0.119686	0.103150
C33	C	0.926516	0.293535	0.082111
C34	C	0.928223	0.395910	0.082255
N35	N	0.932014	0.124909	0.326150
N36	N	0.932045	0.124925	-0.160927
C37	C	0.932033	0.124926	0.745966
C38	C	0.932025	0.124924	0.629161
C39	C	0.932024	0.124918	0.536062
C40	C	0.932015	0.124915	0.419249
H41	H	0.692586	0.130008	0.230636
H42	H	0.445977	0.125176	0.204105
H43	H	0.543322	0.127069	0.217407
H44	H	0.320719	0.122743	0.286306
H45	H	0.171462	0.119843	-0.065427
H46	H	0.320731	0.122738	-0.052201
H47	H	0.543328	0.127084	-0.121090
H48	H	0.418069	0.124646	-0.038897
H49	H	0.692608	0.130002	-0.107868
H50	H	0.171440	0.119837	0.273074
