data_functionalizedCrystal
_audit_creation_method	'MofGen! by Chris Wilmer'
_symmetry_space_group_name_H-M	'P1'
_symmetry_Int_Tables_number	1
_symmetry_cell_setting	triclinic
loop_
_symmetry_equiv_pos_as_xyz
  x,y,z
_cell_length_a	19.851628
_cell_length_b	18.426585
_cell_length_c	19.851628
_cell_angle_alpha	60.006237
_cell_angle_beta	90.005779
_cell_angle_gamma	59.997326
loop_
_atom_site_label
_atom_site_type_symbol
_atom_site_fract_x
_atom_site_fract_y
_atom_site_fract_z
Zr1	Zr	0.648974	0.794259	-0.088290
O2	O	0.541407	0.945661	-0.195854
O3	O	0.681950	0.642859	-0.055320
O4	O	0.681950	0.794244	-0.195842
O5	O	0.541406	0.794287	0.055518
O6	O	0.792812	0.794230	-0.195828
O7	O	0.541407	0.794276	-0.055332
O8	O	0.792811	0.523429	0.055540
O9	O	0.541407	1.065088	-0.195849
O10	O	0.778747	0.705121	-0.041244
O11	O	0.696012	0.705139	0.041472
O12	O	0.696012	0.883376	-0.123974
O13	O	0.613277	0.883395	-0.041258
Zr14	Zr	0.825784	0.794254	0.088524
Zr15	Zr	0.825786	0.794237	-0.088269
Zr16	Zr	0.648973	0.794277	0.088503
Zr17	Zr	0.648973	0.984731	-0.088284
Zr18	Zr	0.825785	0.603783	0.088518
O19	O	0.792809	0.945655	0.055554
O20	O	0.792811	0.945630	-0.195823
O21	O	0.541405	0.945686	0.055524
O22	O	0.933351	0.642852	0.196088
O23	O	0.933353	0.642827	-0.055289
O24	O	0.681948	0.642884	0.196057
O25	O	0.933352	0.794226	-0.055284
O26	O	0.792809	0.794269	0.196076
O27	O	0.681947	0.794283	0.196063
O28	O	0.933351	0.794237	0.055566
O29	O	0.681949	1.065070	-0.195832
O30	O	0.792810	0.523443	0.196067
O31	O	0.933352	0.523425	0.196084
O32	O	0.933353	0.523411	0.055557
O33	O	0.541406	1.065102	-0.055322
O34	O	0.681948	1.065084	-0.055305
O35	O	0.778746	0.705137	0.124208
O36	O	0.861482	0.705118	0.041492
O37	O	0.778747	0.883374	-0.041238
O38	O	0.696011	0.883393	0.041478
C39	C	0.737380	0.556006	0.000109
C40	C	0.737381	0.475146	0.000106
C41	C	0.737376	0.179036	0.000130
C42	C	0.737375	0.261423	0.000125
C43	C	0.737378	0.327089	0.000118
C44	C	0.737378	0.409480	0.000114
C45	C	0.516215	0.794285	0.000090
C46	C	0.441153	0.794294	0.000081
C47	C	0.214698	0.891464	-0.044999
C48	C	0.192337	0.842875	-0.077688
C49	C	0.303747	0.794268	0.000105
C50	C	0.192367	0.842863	0.032778
C51	C	0.171015	0.794249	0.000127
C52	C	0.282375	0.745678	-0.032629
C53	C	0.282402	0.745680	0.077880
C54	C	0.260094	0.697020	0.045211
C55	C	0.380209	0.794281	0.000090
C56	C	0.094558	0.794228	0.000141
C57	C	0.958544	0.794229	0.000144
C58	C	1.033605	0.794219	0.000153
C59	C	0.737381	0.794235	-0.221024
C60	C	0.737382	0.794227	-0.296078
C61	C	0.737378	1.032507	0.000125
C62	C	0.737378	1.113368	0.000128
C63	C	0.782493	0.697057	-0.477231
C64	C	0.815196	0.745617	-0.454846
C65	C	0.737379	0.794268	-0.566260
C66	C	0.704717	0.745657	-0.454885
C67	C	0.737382	0.794242	-0.433508
C68	C	0.770127	0.842828	-0.544864
C69	C	0.659605	0.842855	-0.544901
C70	C	0.692288	0.891486	-0.522569
C71	C	0.737380	0.794279	-0.642734
C72	C	0.737383	0.794238	-0.357039
C73	C	0.737378	0.794279	0.221259
C74	C	0.737377	0.794286	0.296312
C75	C	0.958545	0.555978	0.000136
C76	C	1.033607	0.475108	0.000142
C77	C	0.737379	0.556028	0.221250
C78	C	0.737378	0.475175	0.296301
C79	C	0.958543	0.556000	0.221277
C80	C	1.033604	0.475138	0.296337
C81	C	0.516215	1.032513	-0.221043
C82	C	0.441154	1.113376	-0.296103
C83	C	0.516214	1.032535	0.000098
C84	C	0.441152	1.113405	0.000092
C85	C	0.737380	1.032486	-0.221016
C86	C	0.737380	1.113338	-0.296067
C87	C	1.025670	0.437132	-0.043050
C88	C	1.096191	0.361157	-0.043060
C89	C	1.174649	0.323154	0.000126
C90	C	1.182584	0.361138	0.043319
C91	C	1.112063	0.437117	0.043325
C92	C	0.780565	0.437205	0.374740
C93	C	0.780561	0.361246	0.445265
C94	C	0.737376	0.323253	0.437349
C95	C	0.694184	0.361231	0.358901
C96	C	0.694183	0.437194	0.288378
C97	C	1.112048	0.437154	0.288409
C98	C	1.182583	0.361186	0.358928
C99	C	1.174671	0.323198	0.437376
C100	C	1.096219	0.361189	0.445302
C101	C	1.025686	0.437161	0.374783
C102	C	0.362710	1.151368	-0.288174
C103	C	0.292176	1.227360	-0.358694
C104	C	0.300087	1.265352	-0.437141
C105	C	0.378539	1.227357	-0.445068
C106	C	0.449072	1.151371	-0.374549
C107	C	0.449089	1.151389	0.043277
C108	C	0.378567	1.227385	0.043268
C109	C	0.300110	1.265391	0.000079
C110	C	0.292175	1.227403	-0.043111
C111	C	0.362695	1.151414	-0.043107
C112	C	0.780574	1.151307	-0.288124
C113	C	0.780590	1.227266	-0.358635
C114	C	0.737407	1.265261	-0.437088
C115	C	0.694212	1.227285	-0.445030
C116	C	0.694201	1.151322	-0.374519
H117	H	0.196247	0.973648	-0.083197
N118	N	0.283410	0.593849	0.093065
N119	N	0.261875	0.562697	0.154962
H120	H	0.278337	0.489834	0.188756
H121	H	0.153527	0.883949	-0.143452
H122	H	1.232111	0.261337	0.494790
N123	N	0.330900	0.694200	-0.067400
N124	N	0.300820	0.726928	-0.139875
H125	H	0.335090	0.690576	-0.164435
N126	N	1.120127	0.475973	0.208277
N127	N	1.057155	0.543809	0.145311
H128	H	1.062865	0.571227	0.088718
N129	N	1.262723	0.322311	0.087448
N130	N	1.269810	0.356212	0.126020
H131	H	1.326409	0.328785	0.157191
N132	N	1.246705	0.245500	0.000182
N133	N	1.297437	0.160732	0.066717
H134	H	1.348334	0.105876	0.066774
H135	H	0.880970	0.704525	-0.416041
N136	N	0.331111	0.694197	0.160353
N137	N	0.403402	0.616070	0.190498
H138	H	0.437804	0.579718	0.248745
H139	H	0.153565	0.883966	0.060402
N140	N	0.577117	0.894366	-0.593602
N141	N	0.546963	0.972506	-0.665876
H142	H	0.488705	1.008880	-0.700271
N143	N	1.262706	0.322401	0.350805
N144	N	1.269751	0.356324	0.280756
H145	H	1.326336	0.328935	0.275016
N146	N	0.386596	1.266171	-0.525210
N147	N	0.356856	1.257692	-0.574190
H148	H	0.362542	1.285103	-0.630793
H149	H	0.961816	0.468077	0.381250
H150	H	0.797827	0.883878	-0.583548
H151	H	1.089714	0.330240	-0.078233
H152	H	0.820688	0.614880	-0.458805
N153	N	1.088160	0.322364	0.525443
N154	N	1.151149	0.254525	0.588392
H155	H	1.145460	0.227096	0.644994
N156	N	0.354580	1.112594	-0.087198
N157	N	0.384282	1.019324	-0.049601
H158	H	0.378545	0.991909	-0.080741
N159	N	0.824705	1.112501	-0.207997
N160	N	0.900853	1.070096	-0.186961
H161	H	0.932028	1.042689	-0.130373
N162	N	0.824687	0.322474	0.525384
N163	N	0.863248	0.356401	0.532433
H164	H	0.894412	0.329021	0.589015
H165	H	0.815732	0.468130	0.381202
N166	N	0.945526	0.475951	-0.087159
N167	N	0.896533	0.467476	-0.049579
H168	H	0.839931	0.494893	-0.080735
N169	N	0.737403	0.245636	0.509391
N170	N	0.765365	0.160836	0.521599
H171	H	0.765391	0.106014	0.572482
N172	N	0.228078	1.343023	0.000068
N173	N	0.215894	1.427804	-0.027873
H174	H	0.165024	1.482632	-0.027877
H175	H	1.118537	0.468027	0.078502
N176	N	0.644444	0.994662	-0.545883
N177	N	0.664533	1.053663	-0.587785
H178	H	0.630747	1.126531	-0.604250
N179	N	0.670067	0.694094	-0.406224
N180	N	0.703023	0.601911	-0.377840
H181	H	0.678557	0.565487	-0.343473
N182	N	0.529193	1.112577	-0.382669
N183	N	0.536236	1.146513	-0.452720
H184	H	0.592820	1.119120	-0.458461
N185	N	0.212052	1.266151	-0.350571
N186	N	0.205008	1.232206	-0.280522
H187	H	0.148423	1.259600	-0.274781
N188	N	0.824696	1.266068	-0.350513
N189	N	0.787106	1.359342	-0.380227
H190	H	0.818255	1.386746	-0.374490
H191	H	0.659024	0.330286	0.352467
N192	N	0.650064	0.475963	0.208261
N193	N	0.611513	0.442024	0.201214
H194	H	0.580350	0.469401	0.144633
H195	H	0.356253	1.120439	-0.224305
H196	H	0.737423	1.327116	-0.494496
H197	H	0.242648	1.327224	-0.494556
N198	N	0.529219	1.112585	0.087404
N199	N	0.536279	1.146525	0.125951
H200	H	0.592869	1.119128	0.157116
H201	H	0.385044	1.258301	0.078441
H202	H	0.228285	1.258359	-0.078275
H203	H	0.659054	1.258233	-0.508916
H204	H	0.659024	1.120417	-0.380998
