data_functionalizedCrystal
_audit_creation_method	'MofGen! by Chris Wilmer'
_symmetry_space_group_name_H-M	'P1'
_symmetry_Int_Tables_number	1
_symmetry_cell_setting	triclinic
loop_
_symmetry_equiv_pos_as_xyz
  x,y,z
_cell_length_a	10.540539
_cell_length_b	15.021413
_cell_length_c	10.540539
_cell_angle_alpha	90.003442
_cell_angle_beta	95.474508
_cell_angle_gamma	89.991173
loop_
_atom_site_label
_atom_site_type_symbol
_atom_site_fract_x
_atom_site_fract_y
_atom_site_fract_z
O1	O	1.685867	0.073986	-0.178891
O2	O	1.316454	0.073996	-0.195747
O3	O	1.509589	0.073989	-0.002613
O4	O	1.492733	0.073992	-0.372026
O5	O	1.509612	-0.074075	-0.002625
O6	O	1.316477	-0.074068	-0.195759
O7	O	1.685890	-0.074079	-0.178904
Zn8	Zn	1.501187	-0.097582	-0.187333
Zn9	Zn	1.501157	0.097499	-0.187317
O10	O	1.492756	-0.074072	-0.372038
C11	C	1.269163	-0.000035	-0.194489
C12	C	1.128215	-0.000030	-0.190707
N13	N	1.501217	-0.230719	-0.187344
C14	C	0.944788	-0.000377	-0.045790
C15	C	1.091406	-0.000034	-0.049624
C16	C	1.066529	0.084519	-0.258595
C17	C	0.919985	0.084580	-0.253780
C18	C	0.919522	-0.083796	-0.256665
C19	C	1.066504	-0.084905	-0.257964
C20	C	1.590540	-0.470382	-0.098018
C21	C	1.475609	-0.529708	-0.072324
C22	C	1.501187	-0.412326	-0.187328
C23	C	1.616090	-0.529742	-0.212947
C24	C	1.501169	-0.587750	-0.187309
C25	C	1.386198	-0.470346	-0.161576
C26	C	1.526755	-0.470375	-0.302250
C27	C	1.411741	-0.529674	-0.276603
C28	C	1.501200	-0.311269	-0.187335
C29	C	1.501144	-0.688806	-0.187303
C30	C	1.733182	-0.000046	-0.180161
C31	C	1.874130	-0.000044	-0.183943
C32	C	1.508336	-0.000041	0.044684
C33	C	1.504554	-0.000036	0.185632
N34	N	1.501137	0.230637	-0.187297
C35	C	1.494008	-0.000040	-0.419335
C36	C	1.497790	-0.000039	-0.560283
C37	C	1.359637	0.000300	0.369059
C38	C	1.363471	-0.000033	0.222441
C39	C	1.572463	-0.084590	0.247283
C40	C	1.567648	-0.084661	0.393827
C41	C	1.570491	0.083716	0.394360
C42	C	1.571791	0.084833	0.247378
H43	H	1.134029	-0.060643	0.003794
H44	H	1.304142	-0.059992	0.399262
H45	H	1.453966	-0.555771	0.024871
C46	C	1.254885	-0.435250	-0.132125
N47	N	1.155985	-0.408814	-0.109935
H48	H	1.336088	-0.555544	-0.352126
C49	C	1.556046	-0.435131	-0.433512
N50	N	1.578122	-0.408583	-0.532378
H51	H	1.713270	-0.555832	-0.234624
C52	C	1.291275	0.081847	0.164888
N53	N	1.236887	0.143519	0.121545
C54	C	1.124040	0.169526	-0.194866
N55	N	1.167354	0.233552	-0.146856
H56	H	1.303896	0.060935	0.397664
C57	C	1.290809	-0.082052	0.166019
N58	N	1.236078	-0.143833	0.123522
C59	C	1.499858	-0.170040	0.431918
N60	N	1.448793	-0.234347	0.460601
H61	H	1.669114	-0.088500	0.441796
C62	C	1.712425	-0.088856	0.217059
N63	N	1.817842	-0.092071	0.194283
C64	C	1.099254	-0.091812	-0.396917
N65	N	1.123929	-0.097012	-0.501579
C66	C	1.508754	-0.169593	0.189737
N67	N	1.460759	-0.233616	0.146396
H68	H	1.524820	0.147802	0.425918
C69	C	0.855716	-0.084570	-0.394329
N70	N	0.807650	-0.085147	-0.498013
H71	H	1.522102	0.147384	0.206525
H72	H	1.674650	0.089936	0.223157
H73	H	1.672395	0.084281	0.441586
H74	H	1.666022	-0.444347	-0.022449
H75	H	0.914572	0.059919	0.009715
C76	C	0.906170	-0.082291	0.029502
N77	N	0.877072	-0.143989	0.086214
H78	H	1.133142	0.060678	0.004180
C79	C	0.881859	0.169956	-0.185968
N80	N	0.853150	0.234262	-0.134885
H81	H	0.872015	0.088419	-0.355245
H82	H	0.887986	-0.147884	-0.211012
C83	C	1.096732	0.088776	-0.398563
N84	N	1.119484	0.091981	-0.503987
H85	H	1.107476	-0.147454	-0.208370
