data_functionalizedCrystal
_audit_creation_method	'MofGen! by Chris Wilmer'
_symmetry_space_group_name_H-M	'P1'
_symmetry_Int_Tables_number	1
_symmetry_cell_setting	triclinic
loop_
_symmetry_equiv_pos_as_xyz
  x,y,z
_cell_length_a	13.032831
_cell_length_b	12.645330
_cell_length_c	13.032268
_cell_angle_alpha	82.850170
_cell_angle_beta	89.113023
_cell_angle_gamma	82.817539
loop_
_atom_site_label
_atom_site_type_symbol
_atom_site_fract_x
_atom_site_fract_y
_atom_site_fract_z
Zn1	Zn	1.498542	-0.715935	0.780840
Zn2	Zn	1.520298	-0.873883	0.608861
Zn3	Zn	1.348397	-0.671650	0.587081
Zn4	Zn	1.326546	-0.868151	0.758987
O5	O	1.423446	-0.782405	0.683942
O6	O	1.645351	-0.757820	0.776288
O7	O	1.515745	-0.830921	0.462055
O8	O	1.368353	-0.529186	0.612814
O9	O	1.661335	-0.873863	0.649936
O10	O	1.478665	-0.561723	0.755168
O11	O	1.389449	-0.682341	0.446053
O12	O	1.201576	-0.676784	0.591623
O13	O	1.331112	-0.864094	0.905802
O14	O	1.185522	-0.821152	0.717922
O15	O	1.457477	-0.752262	0.921858
O16	O	1.494557	-1.021461	0.628745
O17	O	1.352208	-1.017250	0.739042
C18	C	1.156231	-0.743541	0.650038
C19	C	1.041913	-0.726944	0.635559
C20	C	1.423397	-1.057824	0.683911
C21	C	1.423466	-1.175668	0.683945
C22	C	0.983042	-0.791068	0.691499
C23	C	0.864888	-0.773915	0.676535
C24	C	1.512911	-1.345800	0.614380
C25	C	1.513145	-1.223299	0.614607
C26	C	1.439086	-1.236505	0.796075
C27	C	1.439769	-1.359147	0.795732
C28	C	1.318235	-1.324073	0.642444
C29	C	1.319065	-1.201271	0.640079
C30	C	1.691704	-0.821421	0.717979
C31	C	1.806019	-0.838047	0.732484
C32	C	1.389430	-0.812479	0.952190
C33	C	1.374935	-0.825295	1.066501
C34	C	1.423520	-0.505916	0.683999
C35	C	1.423551	-0.388094	0.684024
C36	C	1.457388	-0.752380	0.416746
C37	C	1.472083	-0.739295	0.302461
C38	C	1.430995	-0.775676	1.125408
C39	C	1.416015	-0.788920	1.243555
H40	H	1.020114	-0.858662	0.750474
H41	H	1.004840	-0.659342	0.576591
N42	N	1.502327	-1.168041	0.505050
H43	H	1.497362	-1.223224	0.456172
H44	H	1.564655	-1.129429	0.486587
H45	H	0.827820	-0.706308	0.617564
N46	N	0.855103	-0.927591	0.810613
H47	H	0.932551	-0.927153	0.810233
H48	H	0.838416	-0.998769	0.792124
N49	N	1.356316	-1.396965	0.867792
H50	H	1.370119	-1.381148	0.940044
H51	H	1.356152	-1.476843	0.868045
H52	H	1.356918	-0.841202	1.280584
H53	H	1.514708	-1.219839	0.829971
H54	H	1.531167	-0.686998	1.265432
N55	N	1.616834	-1.202594	0.652494
H56	H	1.617419	-1.122840	0.652796
H57	H	1.673076	-1.230660	0.605113
H58	H	1.504994	-1.363653	0.531462
N59	N	1.616072	-1.404645	0.651900
H60	H	1.605174	-1.458580	0.713815
H61	H	1.661426	-1.351439	0.672135
N62	N	1.541201	-1.415745	0.840239
H63	H	1.585050	-1.360949	0.859897
H64	H	1.578880	-1.457603	0.786927
H65	H	1.315842	-0.877572	1.103534
H66	H	1.375385	-1.206078	0.849946
H67	H	1.490077	-0.723386	1.088373
H68	H	1.301375	-1.342468	0.561384
H69	H	1.307039	-1.160088	0.557493
N70	N	1.227585	-1.156724	0.700850
H71	H	1.252633	-1.119153	0.757938
H72	H	1.188875	-1.217396	0.731891
N73	N	1.230261	-1.359765	0.709403
H74	H	1.258429	-1.417115	0.766392
H75	H	1.180091	-1.389654	0.665802
