data_functionalizedCrystal
_audit_creation_method	'MofGen! by Chris Wilmer'
_symmetry_space_group_name_H-M	'P1'
_symmetry_Int_Tables_number	1
_symmetry_cell_setting	triclinic
loop_
_symmetry_equiv_pos_as_xyz
  x,y,z
_cell_length_a	16.956995
_cell_length_b	19.288864
_cell_length_c	16.053811
_cell_angle_alpha	92.586478
_cell_angle_beta	92.373810
_cell_angle_gamma	100.404641
loop_
_atom_site_label
_atom_site_type_symbol
_atom_site_fract_x
_atom_site_fract_y
_atom_site_fract_z
O1	O	0.096111	-0.919043	-0.069694
O2	O	0.109535	-0.716046	-0.069637
O3	O	-0.013299	-0.829739	-0.069666
O4	O	0.218946	-0.805350	-0.069665
O5	O	-0.006565	-0.823482	0.069195
O6	O	0.116269	-0.709789	0.069224
O7	O	0.102845	-0.912786	0.069166
Zn8	Zn	0.110626	-0.810294	0.091242
Zn9	Zn	0.101754	-0.818538	-0.091713
O10	O	0.225680	-0.799093	0.069195
C11	C	0.112471	-0.687064	-0.000199
C12	C	0.111176	-0.610031	-0.000177
C13	C	-0.039645	-0.827860	-0.000237
C14	C	-0.128179	-0.831572	-0.000241
C15	C	0.099909	-0.941768	-0.000273
C16	C	0.101205	-1.018802	-0.000301
C17	C	-0.627579	-0.859347	-0.000252
C18	C	-0.544391	-0.855853	-0.000246
C19	C	-0.493067	-0.790272	-0.000231
C20	C	-0.524934	-0.728180	-0.000214
C21	C	-0.608120	-0.731674	-0.000214
C22	C	-0.243232	-0.772975	-0.000224
C23	C	-0.160041	-0.769485	-0.000226
C24	C	-0.179504	-0.897159	-0.000256
C25	C	-0.262691	-0.900648	-0.000262
C26	C	-0.294551	-0.838556	-0.000240
N27	N	-0.408035	-0.786699	-0.000228
N28	N	-0.379581	-0.842130	-0.000238
C29	C	0.252025	-0.800973	-0.000236
C30	C	0.340559	-0.797260	-0.000237
N31	N	0.116681	-0.804673	0.216104
C32	C	0.183248	-0.561394	-0.000190
C33	C	0.182029	-0.489014	-0.000200
C34	C	0.108734	-0.465275	-0.000213
C35	C	0.036652	-0.513922	-0.000195
C36	C	0.037873	-0.586300	-0.000177
C37	C	0.048755	-0.362357	-0.048890
C38	C	0.047537	-0.289980	-0.048913
C39	C	0.104966	-0.242037	-0.000263
C40	C	0.163625	-0.266479	0.048398
C41	C	0.164846	-0.338857	0.048416
C42	C	0.107402	-0.386794	-0.000231
C43	C	0.175722	-0.114917	-0.000285
C44	C	0.174501	-0.042536	-0.000289
C45	C	0.029121	-0.067446	-0.000293
C46	C	0.030345	-0.139825	-0.000280
C47	C	0.103647	-0.163556	-0.000280
C48	C	0.064433	-0.853065	0.259785
C49	C	0.068676	-0.849139	0.347193
C50	C	0.125171	-0.796823	0.390918
C51	C	0.177421	-0.748426	0.347230
C52	C	0.173174	-0.752350	0.259824
C53	C	0.143700	-0.779686	0.652332
C54	C	0.147945	-0.775768	0.739744
C55	C	0.039199	-0.876480	0.739701
C56	C	0.034960	-0.880401	0.652293
C57	C	0.087207	-0.832002	0.608613
N58	N	0.129511	-0.792810	0.480262
N59	N	0.082863	-0.836013	0.519270
N60	N	0.095698	-0.824160	0.783425
H61	H	-0.669363	-0.912751	-0.000271
H62	H	-0.023026	-0.494590	-0.000217
H63	H	-0.518454	-0.906411	-0.000257
H64	H	-0.304475	-0.954051	-0.000270
H65	H	-0.028345	-0.179428	-0.000274
H66	H	0.018433	-0.895668	0.224190
H67	H	0.215718	-0.712943	0.224259
H68	H	0.233193	-0.002934	-0.000295
H69	H	-0.153555	-0.947711	-0.000281
Cl70	Cl	0.248441	-0.682654	0.402196
H71	H	-0.118253	-0.716078	-0.000212
Cl72	Cl	-0.036062	-0.946170	0.597325
H73	H	-0.269162	-0.722416	-0.000216
Cl74	Cl	0.275399	-0.591223	-0.000187
Cl75	Cl	-0.460411	-0.645734	-0.000192
Cl76	Cl	-0.648174	-0.653618	-0.000191
Cl77	Cl	-0.026482	-0.937318	0.794617
H78	H	-0.020819	-0.625902	-0.000167
Cl79	Cl	0.002992	-0.909974	0.402109
H80	H	0.193953	-0.733164	0.775341
H81	H	0.186244	-0.740279	0.616774
Cl82	Cl	0.238582	-0.369581	0.109591
Cl83	Cl	0.272642	-0.427859	-0.000214
Cl84	Cl	0.235827	-0.206215	0.109562
Cl85	Cl	0.267872	-0.144753	-0.000277
Cl86	Cl	-0.063023	-0.037610	-0.000299
Cl87	Cl	-0.026198	-0.259261	-0.110095
H88	H	0.001988	-0.401388	-0.088511
