data_functionalizedCrystal
_audit_creation_method	'MofGen! by Chris Wilmer'
_symmetry_space_group_name_H-M	'P1'
_symmetry_Int_Tables_number	1
_symmetry_cell_setting	triclinic
loop_
_symmetry_equiv_pos_as_xyz
  x,y,z
_cell_length_a	22.610064
_cell_length_b	19.288864
_cell_length_c	19.288865
_cell_angle_alpha	96.863755
_cell_angle_beta	89.994654
_cell_angle_gamma	89.984419
loop_
_atom_site_label
_atom_site_type_symbol
_atom_site_fract_x
_atom_site_fract_y
_atom_site_fract_z
O1	O	0.049381	-0.921347	0.086632
O2	O	0.549381	-0.421347	0.586632
O3	O	0.049341	-0.719087	0.098321
O4	O	0.549341	-0.219087	0.598321
O5	O	0.049351	-0.826061	-0.008654
O6	O	0.549351	-0.326061	0.491346
O7	O	0.049372	-0.814373	0.193607
O8	O	0.549372	-0.314373	0.693607
O9	O	-0.049019	-0.826054	-0.008626
O10	O	0.450981	-0.326054	0.491374
O11	O	-0.049028	-0.719079	0.098348
O12	O	0.450972	-0.219079	0.598348
O13	O	-0.048988	-0.921340	0.086660
O14	O	0.451012	-0.421340	0.586660
Zn15	Zn	-0.064626	-0.820209	0.092508
Zn16	Zn	0.435374	-0.320209	0.592508
Zn17	Zn	0.064979	-0.820218	0.092472
Zn18	Zn	0.564979	-0.320218	0.592472
O19	O	-0.048997	-0.814365	0.193634
O20	O	0.451003	-0.314365	0.693634
C21	C	0.000152	-0.693207	0.097959
C22	C	0.500152	-0.193207	0.597959
C23	C	0.000136	-0.616103	0.096830
C24	C	0.500136	-0.116103	0.596830
N25	N	-0.153079	-0.820207	0.092532
N26	N	0.346921	-0.320207	0.592532
C27	C	0.000164	-0.825682	-0.034516
C28	C	0.500164	-0.325682	0.465484
C29	C	0.000159	-0.824553	-0.111620
C30	C	0.500159	-0.324553	0.388380
C31	C	-0.437931	-0.772823	0.139843
C32	C	0.062069	-0.272823	0.639843
C33	C	-0.376011	-0.772821	0.139850
C34	C	0.123989	-0.272821	0.639850
O35	O	-0.343996	-0.732513	0.180106
O36	O	0.156004	-0.232513	0.680106
N37	N	-0.345031	-0.820202	0.092505
N38	N	0.154969	-0.320202	0.592505
C39	C	-0.375974	-0.867583	0.045145
C40	C	0.124026	-0.367583	0.545145
O41	O	-0.343938	-0.907884	0.004874
O42	O	0.156062	-0.407884	0.504874
C43	C	-0.437893	-0.867581	0.045135
C44	C	0.062107	-0.367581	0.545135
C45	C	-0.468870	-0.820202	0.092488
C46	C	0.031130	-0.320202	0.592488
C47	C	-0.468908	-0.725447	0.187192
C48	C	0.031092	-0.225447	0.687192
C49	C	-0.530823	-0.725450	0.187186
C50	C	-0.030823	-0.225450	0.687186
C51	C	-0.561762	-0.772829	0.139831
C52	C	-0.061762	-0.272829	0.639831
C53	C	-0.530785	-0.820205	0.092482
C54	C	-0.030785	-0.320205	0.592482
C55	C	-0.468835	-0.914958	-0.002228
C56	C	0.031165	-0.414958	0.497772
C57	C	-0.530758	-0.914952	-0.002233
C58	C	-0.030758	-0.414952	0.497767
C59	C	-0.561735	-0.867573	0.045120
C60	C	-0.061735	-0.367573	0.545120
C61	C	-0.623640	-0.867587	0.045121
C62	C	-0.123640	-0.367587	0.545121
N63	N	-0.654620	-0.820206	0.092467
N64	N	-0.154620	-0.320206	0.592467
C65	C	-0.623681	-0.772827	0.139822
C66	C	-0.123681	-0.272827	0.639822
C67	C	-0.245941	-0.867583	0.045167
C68	C	0.254059	-0.367583	0.545167
C69	C	-0.184023	-0.867589	0.045180
C70	C	0.315977	-0.367589	0.545180
C71	C	-0.184064	-0.772826	0.139885
C72	C	0.315936	-0.272826	0.639885
C73	C	-0.245983	-0.772824	0.139875
C74	C	0.254017	-0.272824	0.639875
C75	C	-0.276920	-0.820202	0.092513
C76	C	0.223080	-0.320202	0.592513
C77	C	-0.753708	-0.772837	0.139806
C78	C	-0.253708	-0.272837	0.639806
C79	C	-0.815629	-0.772846	0.139798
C80	C	-0.315629	-0.272846	0.639798
C81	C	-0.815583	-0.867607	0.045091
C82	C	-0.315583	-0.367607	0.545091
C83	C	-0.753667	-0.867600	0.045101
C84	C	-0.253667	-0.367600	0.545101
C85	C	-0.722731	-0.820210	0.092461
C86	C	-0.222731	-0.320210	0.592461
O87	O	-0.655694	-0.907873	0.004884
O88	O	-0.155694	-0.407873	0.504884
O89	O	-0.655725	-0.732527	0.180080
O90	O	-0.155725	-0.232527	0.680080
N91	N	0.153432	-0.820225	0.092443
N92	N	0.653432	-0.320225	0.592443
C93	C	0.000203	-0.947220	0.087022
C94	C	0.500203	-0.447220	0.587022
C95	C	0.000222	-1.024324	0.088151
C96	C	0.500222	-0.524324	0.588151
C97	C	0.000152	-0.571407	0.159598
C98	C	0.500152	-0.071407	0.659598
C99	C	0.000158	-0.498960	0.158537
C100	C	0.500158	0.001040	0.658537
C101	C	0.000161	-0.471212	0.094705
C102	C	0.500161	0.028788	0.594705
C103	C	0.000142	-0.515918	0.031929
C104	C	0.500142	-0.015918	0.531929
C105	C	0.000129	-0.588364	0.032991
C106	C	0.500129	-0.088364	0.532991
C107	C	0.034638	-0.362953	0.044516
C108	C	0.534638	0.137047	0.544516
C109	C	0.034654	-0.290508	0.043456
C110	C	0.534654	0.209492	0.543456
C111	C	0.000196	-0.247767	0.091425
C112	C	0.500196	0.252233	0.591425
C113	C	-0.034270	-0.277477	0.140466
C114	C	0.465730	0.222523	0.640466
C115	C	-0.034283	-0.349922	0.141528
C116	C	0.465717	0.150078	0.641528
C117	C	0.000174	-0.392658	0.093546
C118	C	0.500174	0.107342	0.593546
C119	C	0.000218	-0.124514	0.153047
C120	C	0.500218	0.375486	0.653047
C121	C	0.000221	-0.052066	0.151984
C122	C	0.500221	0.447934	0.651984
C123	C	0.000210	-0.069026	0.025374
C124	C	0.500210	0.430974	0.525374
C125	C	0.000201	-0.141473	0.026439
C126	C	0.500201	0.358527	0.526439
C127	C	0.000208	-0.169212	0.090277
C128	C	0.500208	0.330788	0.590277
C129	C	0.000168	-0.887321	-0.156316
C130	C	0.500168	-0.387321	0.343684
C131	C	0.000177	-0.886260	-0.228763
C132	C	0.500177	-0.386260	0.271237
C133	C	0.000165	-0.822428	-0.256511
C134	C	0.500165	-0.322428	0.243489
C135	C	0.000159	-0.759652	-0.211805
C136	C	0.500159	-0.259652	0.288195
C137	C	0.000156	-0.760714	-0.139359
C138	C	0.500156	-0.260714	0.360641
C139	C	-0.034301	-0.772246	-0.364789
C140	C	0.465699	-0.272246	0.135211
C141	C	-0.034302	-0.771186	-0.437233
C142	C	0.465698	-0.271186	0.062767
C143	C	0.000178	-0.819148	-0.479956
C144	C	0.500178	-0.319148	0.020044
C145	C	0.034650	-0.868182	-0.450228
C146	C	0.534650	-0.368182	0.049772
C147	C	0.034647	-0.869244	-0.377783
C148	C	0.534647	-0.369244	0.122217
C149	C	0.000169	-0.821269	-0.335065
C150	C	0.500169	-0.321269	0.164935
C151	C	0.000198	-0.880770	-0.603209
C152	C	0.500198	-0.380770	-0.103209
C153	C	0.000211	-0.879707	-0.675657
C154	C	0.500211	-0.379707	-0.175657
C155	C	0.000187	-0.753097	-0.658697
C156	C	0.500187	-0.253097	-0.158697
C157	C	0.000180	-0.754162	-0.586250
C158	C	0.500180	-0.254162	-0.086250
C159	C	0.000183	-0.818000	-0.558511
C160	C	0.500183	-0.318000	-0.058511
C161	C	0.000190	-0.814745	0.219497
C162	C	0.500190	-0.314745	0.719497
C163	C	0.000200	-0.815874	0.296601
C164	C	0.500200	-0.315874	0.796601
H165	H	-0.840849	-0.734264	0.178361
H166	H	-0.340849	-0.234264	0.678361
N167	N	0.000169	-0.684252	-0.688623
N168	N	0.500169	-0.184252	-0.188623
H169	H	-0.036303	-0.656761	-0.672308
H170	H	0.463697	-0.156761	-0.172308
H171	H	0.036652	-0.656817	-0.672305
H172	H	0.536652	-0.156817	-0.172305
H173	H	0.000151	-0.707679	-0.234401
H174	H	0.500151	-0.207679	0.265599
H175	H	0.000192	-0.177866	-0.024674
H176	H	0.500192	0.322134	0.475326
H177	H	-0.555945	-0.953533	-0.040804
H178	H	-0.055945	-0.453533	0.459196
H179	H	-0.443622	-0.953538	-0.040787
H180	H	0.056378	-0.453538	0.459213
N181	N	-0.848961	-0.918697	-0.005990
N182	N	-0.348961	-0.418697	0.494010
H183	H	-0.819945	-0.948713	-0.035990
H184	H	-0.319945	-0.448713	0.464010
H185	H	-0.874652	-0.949319	0.020517
H186	H	-0.374652	-0.449319	0.520517
H187	H	0.000230	-0.015674	0.203099
H188	H	0.500230	0.484326	0.703099
H189	H	0.062716	-0.909168	-0.353581
H190	H	0.562716	-0.409168	0.146419
H191	H	-0.158806	-0.906176	0.006627
H192	H	0.341194	-0.406176	0.506627
N193	N	0.071828	-0.258466	-0.009433
N194	N	0.571828	0.241534	0.490567
H195	H	0.093649	-0.296534	-0.039666
H196	H	0.593649	0.203466	0.460334
H197	H	0.045393	-0.232380	-0.039645
H198	H	0.545393	0.267620	0.460355
H199	H	0.000249	-0.046435	-0.026600
H200	H	0.500249	0.453565	0.473400
N201	N	0.000163	-0.601326	0.228449
N202	N	0.500163	-0.101326	0.728449
H203	H	0.000176	-0.562013	0.268051
H204	H	0.500176	-0.062013	0.768051
H205	H	-0.036306	-0.630994	0.231665
H206	H	0.463694	-0.130994	0.731665
N207	N	0.000177	-0.450739	0.226238
N208	N	0.500177	0.049261	0.726238
H209	H	0.000179	-0.479305	0.266840
H210	H	0.500179	0.020695	0.766840
H211	H	0.036651	-0.420337	0.228536
H212	H	0.536651	0.079663	0.728536
N213	N	0.000184	-0.953958	-0.276989
N214	N	0.500184	-0.453958	0.223011
H215	H	0.036651	-0.981829	-0.268096
H216	H	0.536651	-0.481829	0.231904
H217	H	-0.036304	-0.981756	-0.268065
H218	H	0.463696	-0.481756	0.231935
N219	N	-0.279305	-0.918701	-0.005907
N220	N	0.220695	-0.418701	0.494093
H221	H	-0.304996	-0.892270	-0.036607
H222	H	0.195004	-0.392270	0.463393
H223	H	-0.250240	-0.948702	-0.035843
H224	H	0.249760	-0.448702	0.464157
H225	H	0.062702	-0.397748	0.005452
H226	H	0.562702	0.102252	0.505452
H227	H	0.062727	-0.907237	-0.485012
H228	H	0.562727	-0.407237	0.014988
N229	N	0.000216	-0.947411	-0.723867
N230	N	0.500216	-0.447411	-0.223867
H231	H	0.000220	-0.937053	-0.773971
H232	H	0.500220	-0.437053	-0.273971
H233	H	0.036684	-0.975249	-0.714907
H234	H	0.536684	-0.475249	-0.214907
H235	H	-0.062349	-0.374109	0.181457
H236	H	0.437651	0.125891	0.681457
H237	H	-0.443723	-0.686863	0.225755
H238	H	0.056277	-0.186863	0.725755
H239	H	-0.728527	-0.734247	0.178370
H240	H	-0.228527	-0.234247	0.678370
N241	N	-0.564227	-0.674336	0.238251
N242	N	-0.064227	-0.174336	0.738251
H243	H	-0.608149	-0.681517	0.231067
H244	H	-0.108149	-0.181517	0.731067
H245	H	-0.553409	-0.682198	0.287508
H246	H	-0.053409	-0.182198	0.787508
H247	H	0.000203	-0.932751	-0.580622
H248	H	0.500203	-0.432751	-0.080622
N249	N	-0.071436	-0.231388	0.192212
N250	N	0.428564	0.268612	0.692212
H251	H	-0.066202	-0.180986	0.184099
H252	H	0.433798	0.319014	0.684099
H253	H	-0.114426	-0.244898	0.185918
H254	H	0.385574	0.255102	0.685918
N255	N	0.000223	-0.154440	0.221897
N256	N	0.500223	0.345560	0.721897
H257	H	0.000229	-0.115129	0.261501
H258	H	0.500229	0.384871	0.761501
H259	H	-0.036247	-0.184111	0.225104
H260	H	0.463753	0.315889	0.725104
N261	N	0.000137	-0.485996	-0.036920
N262	N	0.500137	0.014004	0.463080
H263	H	0.000148	-0.433319	-0.028069
H264	H	0.500148	0.066681	0.471931
H265	H	0.036597	-0.502383	-0.064392
H266	H	0.536597	-0.002383	0.435608
N267	N	-0.279393	-0.721718	0.190941
N268	N	0.220607	-0.221718	0.690941
H269	H	-0.268625	-0.729559	0.240222
H270	H	0.231375	-0.229559	0.740222
H271	H	-0.268608	-0.672475	0.183004
H272	H	0.231392	-0.172475	0.683004
H273	H	-0.158862	-0.734246	0.178443
H274	H	0.341138	-0.234246	0.678443
H275	H	0.000169	-0.703049	-0.549857
H276	H	0.500169	-0.203049	-0.049857
N277	N	-0.720252	-0.918708	-0.005962
N278	N	-0.220252	-0.418708	0.494038
H279	H	-0.749250	-0.948725	-0.035960
H280	H	-0.249250	-0.448725	0.464040
H281	H	-0.694566	-0.892215	-0.036603
H282	H	-0.194566	-0.392215	0.463397
N283	N	0.000109	-0.636577	-0.034711
N284	N	0.500109	-0.136577	0.465289
H285	H	0.000109	-0.608010	-0.075312
H286	H	0.500109	-0.108010	0.424688
H287	H	0.036571	-0.667026	-0.037040
H288	H	0.536571	-0.167026	0.462960
N289	N	0.000146	-0.693012	-0.091146
N290	N	0.500146	-0.193012	0.408854
H291	H	0.000142	-0.652411	-0.119713
H292	H	0.500142	-0.152411	0.380287
H293	H	-0.036324	-0.690692	-0.060718
H294	H	0.463676	-0.190692	0.439282
N295	N	0.000172	-0.956172	-0.126397
N296	N	0.500172	-0.456172	0.373603
H297	H	0.000180	-0.995774	-0.165710
H298	H	0.500180	-0.495774	0.334290
H299	H	0.036638	-0.959376	-0.096711
H300	H	0.536638	-0.459376	0.403289
N301	N	-0.071488	-0.718310	-0.469296
N302	N	0.428512	-0.218310	0.030704
H303	H	-0.093326	-0.688083	-0.431240
H304	H	0.406674	-0.188083	0.068760
H305	H	-0.045060	-0.688090	-0.495371
H306	H	0.454940	-0.188090	0.004629
N307	N	-0.071488	-0.720508	-0.318711
N308	N	0.428512	-0.220508	0.181289
H309	H	-0.093328	-0.689289	-0.348535
H310	H	0.406672	-0.189289	0.151465
H311	H	-0.100922	-0.746505	-0.292074
H312	H	0.399078	-0.246505	0.207926
