data_functionalizedCrystal
_audit_creation_method	'MofGen! by Chris Wilmer'
_symmetry_space_group_name_H-M	'P1'
_symmetry_Int_Tables_number	1
_symmetry_cell_setting	triclinic
loop_
_symmetry_equiv_pos_as_xyz
  x,y,z
_cell_length_a	17.699077
_cell_length_b	17.699083
_cell_length_c	15.186229
_cell_angle_alpha	89.995368
_cell_angle_beta	89.997203
_cell_angle_gamma	83.281795
loop_
_atom_site_label
_atom_site_type_symbol
_atom_site_fract_x
_atom_site_fract_y
_atom_site_fract_z
O1	O	1.004078	0.095689	-0.073219
O2	O	0.783698	0.108146	-0.073223
O3	O	0.900114	-0.008272	-0.073213
O4	O	0.887662	0.212107	-0.073229
O5	O	0.900107	-0.008274	0.073244
O6	O	0.783691	0.108144	0.073234
O7	O	1.004070	0.095687	0.073239
Zn8	Zn	0.893879	0.101915	0.096490
Zn9	Zn	0.893889	0.101918	-0.096474
O10	O	0.887654	0.212105	0.073228
C11	C	0.755498	0.107700	0.000005
C12	C	0.671479	0.106363	0.000003
C13	C	0.899664	-0.036470	0.000016
C14	C	0.898326	-0.120488	0.000016
C15	C	0.632008	0.105732	0.079838
C16	C	0.553065	0.104464	0.079839
C17	C	0.513595	0.103832	0.000005
C18	C	0.553072	0.104460	-0.079836
C19	C	0.632014	0.105723	-0.079837
C20	C	0.234709	0.099367	-0.079838
C21	C	0.155761	0.098107	-0.079831
C22	C	0.155760	0.098108	0.079838
C23	C	0.234702	0.099370	0.079838
C24	C	0.274173	0.099995	-0.000002
C25	C	0.359772	0.101369	-0.000003
C26	C	0.427997	0.102464	0.000004
C27	C	0.966659	-0.169110	0.000019
C28	C	0.965397	-0.248054	0.000011
C29	C	0.895800	-0.278373	0.000007
C30	C	0.827461	-0.229744	0.000001
C31	C	0.828724	-0.150803	0.000003
C32	C	0.822366	-0.548107	-0.000006
C33	C	0.821108	-0.627055	-0.000005
C34	C	0.959039	-0.645358	0.000002
C35	C	0.960302	-0.566417	0.000004
C36	C	0.891963	-0.517795	-0.000006
C37	C	0.893333	-0.432196	0.000001
C38	C	0.894430	-0.363971	0.000006
C39	C	1.032271	0.096133	0.000009
C40	C	1.116289	0.097470	0.000004
C41	C	0.888104	0.240303	-0.000002
C42	C	0.889443	0.324321	-0.000008
N43	N	0.893878	0.101913	0.228182
N44	N	0.893897	0.101914	-0.228167
C45	C	0.945444	0.050381	0.453910
C46	C	0.945446	0.050379	0.546099
C47	C	0.842325	0.153449	0.546099
C48	C	0.842319	0.153446	0.453911
C49	C	0.893883	0.101913	0.407819
C50	C	0.893891	0.101914	0.592197
C51	C	0.893893	0.101912	0.692153
C52	C	0.893880	0.101914	0.307856
H53	H	0.664138	0.106253	0.144849
C54	C	0.785600	0.210136	0.403203
C55	C	0.728909	0.266849	0.453897
C56	C	0.672190	0.323533	0.403189
C57	C	0.672162	0.323504	0.301785
C58	C	0.728855	0.266788	0.251086
C59	C	0.785574	0.210104	0.301794
H60	H	0.728928	0.266872	0.528967
H61	H	0.630223	0.365517	0.440720
H62	H	0.630176	0.365464	0.264248
H63	H	0.728836	0.266765	0.176016
H64	H	0.827542	0.168120	0.264263
C65	C	0.509659	0.103763	-0.167658
C66	C	0.511801	0.169632	-0.233530
C67	C	0.468390	0.168936	-0.321355
C68	C	0.422839	0.102373	-0.343307
C69	C	0.420696	0.036500	-0.277433
C70	C	0.464106	0.037195	-0.189608
H71	H	0.545522	0.218910	-0.217282
H72	H	0.469977	0.217700	-0.370119
H73	H	0.390704	0.101859	-0.408320
H74	H	0.386974	-0.012779	-0.293682
H75	H	0.462519	-0.011569	-0.140844
H76	H	0.800344	0.195407	0.583637
H77	H	1.021041	-0.287639	0.000015
H78	H	0.520932	0.103937	0.144849
H79	H	1.016974	-0.541735	0.000011
H80	H	1.023333	-0.144431	0.000028
H81	H	0.266834	0.099889	0.144848
C82	C	1.002157	-0.006309	0.403207
C83	C	1.001043	-0.092496	0.415895
C84	C	1.057756	-0.149190	0.365196
C85	C	1.115583	-0.119698	0.301810
C86	C	1.116698	-0.033507	0.289119
C87	C	1.059985	0.023187	0.339818
H88	H	0.958235	-0.114331	0.462821
H89	H	1.056930	-0.212994	0.374591
H90	H	1.157565	-0.161666	0.264279
H91	H	1.159507	-0.011672	0.242193
H92	H	1.060812	0.086991	0.330423
C93	C	0.112343	0.097405	-0.167656
C94	C	0.131912	0.031875	-0.233507
C95	C	0.088494	0.031174	-0.321325
C96	C	0.025506	0.096004	-0.343292
C97	C	0.005934	0.161539	-0.277439
C98	C	0.049352	0.162240	-0.189621
H99	H	0.178542	-0.016120	-0.217247
H100	H	0.102983	-0.017339	-0.370074
H101	H	-0.006635	0.095485	-0.408301
H102	H	-0.040697	0.209534	-0.293699
H103	H	0.034863	0.210753	-0.140872
C104	C	0.747196	-0.494630	-0.000010
C105	C	0.748574	-0.407796	-0.000015
C106	C	0.673400	-0.354315	-0.000019
C107	C	0.596847	-0.387667	-0.000018
C108	C	0.595466	-0.474506	-0.000013
C109	C	0.670640	-0.527988	-0.000009
H110	H	0.805245	-0.383102	-0.000016
H111	H	0.674422	-0.290031	-0.000023
H112	H	0.541198	-0.348077	-0.000021
H113	H	0.538795	-0.499200	-0.000013
H114	H	0.669617	-0.592272	-0.000006
H115	H	0.123614	0.097596	0.144848
C116	C	0.675437	0.106420	-0.167656
C117	C	0.673304	0.040550	-0.233515
C118	C	0.716727	0.041242	-0.321336
C119	C	0.762282	0.107804	-0.343298
C120	C	0.764416	0.173679	-0.277438
C121	C	0.720994	0.172987	-0.189616
H122	H	0.639580	-0.008728	-0.217258
H123	H	0.715147	-0.007523	-0.370090
H124	H	0.794426	0.108317	-0.408309
H125	H	0.798141	0.222957	-0.293694
H126	H	0.722574	0.221752	-0.140862
C127	C	1.034214	-0.698845	0.000002
C128	C	1.052309	-0.755642	0.076050
C129	C	1.127482	-0.809125	0.076053
C130	C	1.184560	-0.805812	0.000008
C131	C	1.166466	-0.749012	-0.076046
C132	C	1.091293	-0.695529	-0.076049
H133	H	1.010055	-0.758097	0.132348
H134	H	1.140875	-0.851172	0.132354
H135	H	1.240207	-0.845404	0.000010
H136	H	1.208720	-0.746558	-0.132344
H137	H	1.077900	-0.653482	-0.132349
H138	H	0.266837	0.099873	-0.144849
C139	C	0.744547	-0.660407	-0.000017
C140	C	0.687810	-0.642007	0.076024
C141	C	0.611254	-0.675360	0.076013
C142	C	0.591434	-0.727114	-0.000039
C143	C	0.648172	-0.745517	-0.076085
C144	C	0.724728	-0.712164	-0.076074
H145	H	0.702481	-0.603693	0.132327
H146	H	0.569253	-0.661736	0.132308
H147	H	0.534762	-0.751804	-0.000047
H148	H	0.633501	-0.783831	-0.132389
H149	H	0.766729	-0.725788	-0.132370
C150	C	0.753557	-0.097314	0.000001
C151	C	0.696492	-0.100612	-0.076053
C152	C	0.621322	-0.047124	-0.076060
C153	C	0.603217	0.009663	-0.000012
C154	C	0.660283	0.012964	0.076048
C155	C	0.735453	-0.040525	0.076055
H156	H	0.709893	-0.142651	-0.132353
H157	H	0.579078	-0.049567	-0.132365
H158	H	0.547572	0.049258	-0.000017
H159	H	0.646882	0.055002	0.132348
H160	H	0.777697	-0.038081	0.132360
C161	C	1.002166	-0.006305	0.596800
C162	C	1.058888	-0.062980	0.546098
C163	C	1.115610	-0.119668	0.596799
C164	C	1.115609	-0.119679	0.698202
C165	C	1.058884	-0.063002	0.748910
C166	C	1.002163	-0.006314	0.698209
H167	H	1.058891	-0.062974	0.471028
H168	H	1.157601	-0.161624	0.559262
H169	H	1.157597	-0.161643	0.735734
H170	H	1.058881	-0.063008	0.823980
H171	H	0.960172	0.035642	0.735747
H172	H	0.770794	-0.254436	-0.000007
