data_functionalizedCrystal
_audit_creation_method	'MofGen! by Chris Wilmer'
_symmetry_space_group_name_H-M	'P1'
_symmetry_Int_Tables_number	1
_symmetry_cell_setting	triclinic
loop_
_symmetry_equiv_pos_as_xyz
  x,y,z
_cell_length_a	15.297475
_cell_length_b	12.594516
_cell_length_c	15.297908
_cell_angle_alpha	99.656762
_cell_angle_beta	72.640407
_cell_angle_gamma	80.319586
loop_
_atom_site_label
_atom_site_type_symbol
_atom_site_fract_x
_atom_site_fract_y
_atom_site_fract_z
Zn1	Zn	1.512776	-0.890603	-0.771486
Zn2	Zn	1.485782	-1.031333	-0.615979
Zn3	Zn	1.330355	-0.816104	-0.589127
Zn4	Zn	1.357232	-1.031239	-0.744578
O5	O	1.421536	-0.942320	-0.680293
O6	O	1.639338	-0.940488	-0.773357
O7	O	1.442619	-0.971644	-0.482279
O8	O	1.354603	-0.677055	-0.613341
O9	O	1.619505	-1.043883	-0.659106
O10	O	1.488627	-0.731789	-0.747320
O11	O	1.328427	-0.813516	-0.462552
O12	O	1.203778	-0.813424	-0.587250
O13	O	1.400410	-1.043721	-0.878285
O14	O	1.223524	-0.971483	-0.701459
O15	O	1.514688	-0.940397	-0.898054
O16	O	1.468680	-1.180251	-0.633014
O17	O	1.374235	-1.180182	-0.727495
C18	C	1.179906	-0.884360	-0.638521
C19	C	1.076540	-0.859596	-0.620673
C20	C	0.826329	-1.119322	-0.807857
C21	C	0.923447	-1.142597	-0.824624
C22	C	0.961725	-1.071849	-0.773638
C23	C	0.902876	-0.977822	-0.705882
C24	C	0.805748	-0.954550	-0.689109
C25	C	0.941144	-0.907076	-0.654889
C26	C	0.882295	-0.813049	-0.587133
C27	C	0.785177	-0.789781	-0.570363
C28	C	0.746899	-0.860529	-0.621349
C29	C	1.038272	-0.930348	-0.671663
C30	C	1.017691	-0.765575	-0.552914
C31	C	0.920573	-0.742301	-0.536147
C32	C	1.421474	-1.218844	-0.680273
C33	C	1.421537	-1.337170	-0.680310
C34	C	1.370155	-1.406412	-0.731654
C35	C	1.332817	-1.451513	-0.642885
C36	C	1.458963	-1.502892	-0.769109
C37	C	1.384146	-1.380691	-0.591488
C38	C	1.510342	-1.432087	-0.717777
C39	C	1.473026	-1.477149	-0.628954
C40	C	1.664109	-1.000506	-0.722228
C41	C	1.767480	-1.025302	-0.740098
C42	C	1.463558	-1.000359	-0.922856
C43	C	1.481465	-1.025091	-1.026222
C44	C	1.421628	-0.664727	-0.680337
C45	C	1.421667	-0.546433	-0.680356
C46	C	1.294138	-0.765500	-1.276519
C47	C	1.277315	-0.742252	-1.179402
C48	C	1.328351	-0.812960	-1.141102
C49	C	1.396213	-0.906919	-1.199930
C50	C	1.413043	-0.930165	-1.297057
C51	C	1.447256	-0.977625	-1.161640
C52	C	1.515119	-1.071585	-1.220468
C53	C	1.531945	-1.094826	-1.317585
C54	C	1.480909	-1.024118	-1.355885
C55	C	1.430426	-0.954380	-1.064512
C56	C	1.549331	-1.119045	-1.085050
C57	C	1.566155	-1.142293	-1.182168
C58	C	1.379731	-0.884442	-0.438682
C59	C	1.362004	-0.859453	-0.335347
H60	H	0.795152	-1.176921	-0.849357
Cl61	Cl	1.335225	-1.299309	-0.475519
Cl62	Cl	0.624804	-0.831268	-0.600280
H63	H	1.585372	-1.422686	-0.749472
H64	H	0.872645	-0.665743	-0.480979
Cl65	Cl	1.216953	-1.465995	-0.593981
Cl66	Cl	1.112241	-1.048548	-0.756839
Cl67	Cl	1.065803	-0.676633	-0.488809
H68	H	1.516523	-1.508005	-0.585493
Cl69	Cl	0.711196	-0.671582	-0.485177
Cl70	Cl	1.302908	-1.358404	-0.798550
Cl71	Cl	1.307198	-0.783734	-1.019009
Cl72	Cl	1.507751	-1.584444	-0.885021
H73	H	1.375173	-0.877876	-1.016624
H74	H	1.222061	-0.665750	-1.131511
Cl75	Cl	1.229995	-0.676615	-1.324674
H76	H	1.040803	-1.090804	-0.787294
Cl77	Cl	0.997420	-1.260798	-0.909798
Cl78	Cl	1.502043	-1.053352	-1.477978
Cl79	Cl	1.617265	-1.212941	-1.391539
Cl80	Cl	1.651465	-1.260409	-1.256132
Cl81	Cl	1.613497	-1.207938	-1.036910
