data_functionalizedCrystal
_audit_creation_method	'MofGen! by Chris Wilmer'
_symmetry_space_group_name_H-M	'P1'
_symmetry_Int_Tables_number	1
_symmetry_cell_setting	triclinic
loop_
_symmetry_equiv_pos_as_xyz
  x,y,z
_cell_length_a	21.295418
_cell_length_b	17.077402
_cell_length_c	17.077395
_cell_angle_alpha	90.028524
_cell_angle_beta	89.965068
_cell_angle_gamma	89.961304
loop_
_atom_site_label
_atom_site_type_symbol
_atom_site_fract_x
_atom_site_fract_y
_atom_site_fract_z
Zn1	Zn	0.962334	0.312187	-0.444240
Zn2	Zn	1.462334	0.812187	0.055760
Zn3	Zn	0.962267	0.443458	-0.312971
Zn4	Zn	1.462267	0.943458	0.187029
Zn5	Zn	0.857074	0.312247	-0.312944
Zn6	Zn	1.357074	0.812247	0.187056
Zn7	Zn	0.857041	0.443451	-0.444150
Zn8	Zn	1.357041	0.943451	0.055850
O9	O	0.909679	0.377836	-0.378576
O10	O	1.409679	0.877836	0.121424
O11	O	1.050415	0.329578	-0.426876
O12	O	1.550415	0.829578	0.073124
O13	O	0.948298	0.426082	-0.203120
O14	O	1.448298	0.926082	0.296880
O15	O	0.871079	0.202392	-0.330386
O16	O	1.371079	0.702392	0.169614
O17	O	1.050365	0.426023	-0.330433
O18	O	1.550365	0.926023	0.169567
O19	O	0.948413	0.202348	-0.426849
O20	O	1.448413	0.702348	0.073151
O21	O	0.871013	0.329681	-0.203100
O22	O	1.371013	0.829681	0.296900
O23	O	0.768980	0.329673	-0.330299
O24	O	1.268980	0.829673	0.169701
O25	O	0.871023	0.426009	-0.554009
O26	O	1.371023	0.926009	-0.054009
O27	O	0.768956	0.426068	-0.426696
O28	O	1.268956	0.926068	0.073304
O29	O	0.948382	0.329570	-0.554075
O30	O	1.448382	0.829570	-0.054075
O31	O	0.948267	0.553304	-0.330346
O32	O	1.448267	1.053304	0.169654
O33	O	0.870958	0.553299	-0.426723
O34	O	1.370958	1.053299	0.073277
C35	C	0.909618	0.581784	-0.378545
C36	C	1.409618	1.081784	0.121455
C37	C	0.909650	0.669033	-0.378558
C38	C	1.409650	1.169033	0.121442
C39	C	0.746127	0.377877	-0.378486
C40	C	1.246127	0.877877	0.121514
C41	C	0.676159	0.377913	-0.378466
C42	C	1.176159	0.877913	0.121534
C43	C	0.909706	0.377782	-0.583320
C44	C	1.409706	0.877782	-0.083320
C45	C	0.909718	0.377760	-0.670570
C46	C	1.409718	0.877760	-0.170570
C47	C	0.643297	0.428173	-0.428585
C48	C	1.143297	0.928173	0.071415
C49	C	0.577554	0.428153	-0.428620
C50	C	1.077554	0.928153	0.071380
C51	C	0.544677	0.377883	-0.378522
C52	C	1.044677	0.877883	0.121478
C53	C	0.577547	0.327614	-0.328400
C54	C	1.077547	0.827614	0.171600
C55	C	0.643289	0.327629	-0.328372
C56	C	1.143289	0.827629	0.171628
N57	N	0.441409	0.371751	-0.309865
N58	N	0.941409	0.871751	0.190135
N59	N	0.378957	0.371741	-0.309894
N60	N	0.878957	0.871741	0.190106
C61	C	0.346602	0.377833	-0.378605
C62	C	0.846602	0.877833	0.121395
N63	N	0.379058	0.383950	-0.447288
N64	N	0.879058	0.883950	0.052712
N65	N	0.441515	0.383964	-0.447258
N66	N	0.941515	0.883964	0.052742
C67	C	0.473391	0.377861	-0.378548
C68	C	0.973391	0.877861	0.121452
C69	C	0.242454	0.428074	-0.428767
C70	C	0.742454	0.928074	0.071233
C71	C	0.176710	0.428049	-0.428803
C72	C	0.676710	0.928049	0.071197
C73	C	0.176705	0.327514	-0.328576
C74	C	0.676705	0.827514	0.171424
C75	C	0.242447	0.327535	-0.328547
C76	C	0.742447	0.827535	0.171453
C77	C	0.275318	0.377819	-0.378641
C78	C	0.775318	0.877819	0.121359
C79	C	1.073869	0.377795	-0.378667
C80	C	1.573869	0.877795	0.121333
C81	C	1.143837	0.377777	-0.378706
C82	C	1.643837	0.877777	0.121294
C83	C	0.909757	0.173091	-0.378625
C84	C	1.409757	0.673091	0.121375
C85	C	0.909790	0.085841	-0.378645
C86	C	1.409790	0.585841	0.121355
C87	C	0.949946	0.710000	-0.328428
C88	C	1.449946	1.210000	0.171572
C89	C	0.949977	0.791981	-0.328448
C90	C	1.449977	1.291981	0.171552
C91	C	0.909708	0.832993	-0.378594
C92	C	1.409708	1.332993	0.121406
C93	C	0.869410	0.792020	-0.428729
C94	C	1.369410	1.292020	0.071271
C95	C	0.869383	0.710041	-0.428713
C96	C	1.369383	1.210041	0.071287
C97	C	0.869468	0.962890	-0.428759
C98	C	1.369468	1.462890	0.071241
C99	C	0.869495	1.044874	-0.428775
C100	C	1.369495	1.544874	0.071225
C101	C	0.950062	1.044830	-0.328495
C102	C	1.450062	1.544830	0.171505
C103	C	0.950035	0.962851	-0.328478
C104	C	1.450035	1.462851	0.171522
C105	C	0.909736	0.921884	-0.378612
C106	C	1.409736	1.421884	0.121388
C107	C	0.950068	0.327437	-1.046420
C108	C	1.450068	0.827437	-0.546420
C109	C	0.950055	0.327465	-0.964440
C110	C	1.450055	0.827465	-0.464440
C111	C	0.909769	0.377685	-0.923419
C112	C	1.409769	0.877685	-0.423419
C113	C	0.869498	0.427887	-0.964384
C114	C	1.369498	0.927887	-0.464384
C115	C	0.869515	0.427863	-1.046363
C116	C	1.369515	0.927863	-0.546363
C117	C	0.869466	0.427933	-0.793513
C118	C	1.369466	0.927933	-0.293513
C119	C	0.869448	0.427956	-0.711529
C120	C	1.369448	0.927956	-0.211529
C121	C	0.950006	0.327534	-0.711591
C122	C	1.450006	0.827534	-0.211591
C123	C	0.950023	0.327510	-0.793570
C124	C	1.450023	0.827510	-0.293570
C125	C	0.909751	0.377711	-0.834528
C126	C	1.409751	0.877711	-0.334528
C127	C	0.909688	0.377832	-0.174628
C128	C	1.409688	0.877832	0.325372
C129	C	0.909799	0.377634	-0.087379
C130	C	1.409799	0.877634	0.412621
H131	H	0.670056	0.469117	-0.469376
H132	H	1.170056	0.969117	0.030624
H133	H	0.982789	0.825333	-0.287627
H134	H	1.482789	1.325333	0.212373
H135	H	0.836700	0.468781	-0.930978
H136	H	1.336700	0.968781	-0.430978
H137	H	0.836625	0.825418	-0.469563
H138	H	1.336625	1.325418	0.030437
Br139	Br	0.132093	0.259281	-0.260593
Br140	Br	0.632093	0.759281	0.239407
Br141	Br	0.687891	0.259413	-0.260349
Br142	Br	1.187891	0.759413	0.239651
H143	H	0.269204	0.286612	-0.287731
H144	H	0.769204	0.786612	0.212269
Br145	Br	0.814779	0.907292	-0.496802
Br146	Br	1.314779	1.407292	0.003198
Br147	Br	0.814865	0.495994	-1.101950
Br148	Br	1.314865	0.995994	-0.601950
Br149	Br	1.004679	0.259427	-0.656006
Br150	Br	1.504679	0.759427	-0.156006
Br151	Br	0.814811	0.496065	-0.849100
Br152	Br	1.314811	0.996065	-0.349100
H153	H	0.269219	0.469014	-0.469560
H154	H	0.769219	0.969014	0.030440
H155	H	0.550792	0.469080	-0.469436
H156	H	1.050792	0.969080	0.030564
H157	H	0.836571	0.676686	-0.469534
H158	H	1.336571	1.176686	0.030466
H159	H	0.550775	0.286682	-0.287611
H160	H	1.050775	0.786682	0.212389
H161	H	0.982877	1.078189	-0.287676
H162	H	1.482877	1.578189	0.212324
H163	H	0.149954	0.468975	-0.469621
H164	H	0.649954	0.968975	0.030379
Br165	Br	1.004594	0.654349	-0.260361
Br166	Br	1.504594	1.154349	0.239639
H167	H	0.982822	0.929459	-0.287641
H168	H	1.482822	1.429459	0.212359
H169	H	0.836716	1.078264	-0.469623
H170	H	1.336716	1.578264	0.030377
Br171	Br	1.004711	0.259340	-0.908856
Br172	Br	1.504711	0.759340	-0.408856
Br173	Br	1.004736	0.259266	-1.102083
Br174	Br	1.504736	0.759266	-0.602083
H175	H	0.836630	0.468832	-0.678132
H176	H	1.336630	0.968832	-0.178132
Br177	Br	1.004707	0.259366	-0.849241
Br178	Br	1.504707	0.759366	-0.349241
