data_functionalizedCrystal
_audit_creation_method	'MofGen! by Chris Wilmer'
_symmetry_space_group_name_H-M	'P1'
_symmetry_Int_Tables_number	1
_symmetry_cell_setting	triclinic
loop_
_symmetry_equiv_pos_as_xyz
  x,y,z
_cell_length_a	12.759401
_cell_length_b	12.759399
_cell_length_c	12.759393
_cell_angle_alpha	90.027929
_cell_angle_beta	89.981547
_cell_angle_gamma	89.985589
loop_
_atom_site_label
_atom_site_type_symbol
_atom_site_fract_x
_atom_site_fract_y
_atom_site_fract_z
Zn1	Zn	1.606258	0.418199	-0.594008
Zn2	Zn	2.106258	0.918199	-0.094008
Zn3	Zn	1.606154	0.593918	-0.418340
Zn4	Zn	2.106154	1.093918	0.081660
Zn5	Zn	1.430560	0.418254	-0.418348
Zn6	Zn	1.930560	0.918254	0.081652
Zn7	Zn	1.430550	0.593837	-0.593981
Zn8	Zn	1.930550	1.093837	-0.093981
O9	O	1.518381	0.506052	-0.506169
O10	O	2.018381	1.006052	-0.006169
O11	O	1.753265	0.441520	-0.570713
O12	O	2.253265	0.941520	-0.070713
O13	O	1.582822	0.570673	-0.271320
O14	O	2.082822	1.070673	0.228680
O15	O	1.453915	0.271226	-0.441664
O16	O	1.953915	0.771226	0.058336
O17	O	1.753189	0.570620	-0.441651
O18	O	2.253189	1.070620	0.058349
O19	O	1.582999	0.271186	-0.570721
O20	O	2.082999	0.771186	-0.070721
O21	O	1.453814	0.441614	-0.271325
O22	O	1.953814	0.941614	0.228675
O23	O	1.283538	0.441535	-0.441638
O24	O	1.783538	0.941535	0.058362
O25	O	1.453898	0.570482	-0.741006
O26	O	1.953898	1.070482	-0.241006
O27	O	1.283531	0.570535	-0.570675
O28	O	1.783531	1.070535	-0.070675
O29	O	1.582990	0.441441	-0.741026
O30	O	2.082990	0.941441	-0.241026
O31	O	1.582812	0.740929	-0.441624
O32	O	2.082812	1.240929	0.058376
O33	O	1.453797	0.740869	-0.570667
O34	O	1.953797	1.240869	-0.070667
C35	C	1.245413	0.506033	-0.506155
C36	C	1.745413	1.006033	-0.006155
C37	C	1.128637	0.506050	-0.506174
C38	C	1.628637	1.006050	-0.006174
C39	C	1.518320	0.779020	-0.506165
C40	C	2.018320	1.279020	-0.006165
C41	C	1.518391	0.895796	-0.506198
C42	C	2.018391	1.395796	-0.006198
C43	C	1.518454	0.505946	-0.780203
C44	C	2.018454	1.005946	-0.280203
C45	C	1.518485	0.505901	-0.896979
C46	C	2.018485	1.005901	-0.396979
C47	C	1.073798	0.573328	-0.573252
C48	C	1.573798	1.073328	-0.073252
C49	C	0.964074	0.573341	-0.573264
C50	C	1.464074	1.073341	-0.073264
C51	C	0.964037	0.438796	-0.439109
C52	C	1.464037	0.938796	0.060891
C53	C	1.073759	0.438778	-0.439104
C54	C	1.573759	0.938778	0.060896
C55	C	1.073819	0.651010	-0.650702
C56	C	1.573819	1.151010	-0.150702
C57	C	0.964095	0.651023	-0.650714
C58	C	1.464095	1.151023	-0.150714
C59	C	1.792414	0.506073	-0.506184
C60	C	2.292414	1.006073	-0.006184
C61	C	1.909191	0.506081	-0.506190
C62	C	2.409191	1.006081	-0.006190
C63	C	1.585647	0.950654	-0.439086
C64	C	2.085647	1.450654	0.060914
C65	C	1.585716	1.060378	-0.439129
C66	C	2.085716	1.560378	0.060871
C67	C	1.451264	1.060377	-0.573400
C68	C	1.951264	1.560377	-0.073400
C69	C	1.451201	0.950655	-0.573361
C70	C	1.951201	1.450655	-0.073361
C71	C	1.518474	1.232019	-0.506215
C72	C	2.018474	1.732019	-0.006215
C73	C	1.518523	1.115242	-0.506280
C74	C	2.018523	1.615242	-0.006280
C75	C	1.451335	0.438687	-0.951844
C76	C	1.951335	0.938687	-0.451844
C77	C	1.451359	0.438655	-1.061568
C78	C	1.951359	0.938655	-0.561568
C79	C	1.585694	0.573053	-1.061553
C80	C	2.085694	1.073053	-0.561553
C81	C	1.585663	0.573089	-0.951831
C82	C	2.085663	1.073089	-0.451831
C83	C	1.518368	0.506082	-0.233202
C84	C	2.018368	1.006082	0.266798
C85	C	1.518540	0.505832	-0.116426
C86	C	2.018540	1.005832	0.383574
H87	H	1.118404	0.383987	-0.384489
H88	H	1.618404	0.883987	0.115511
O89	O	1.658148	0.645518	-1.120715
O90	O	2.158148	1.145518	-0.620715
H91	H	1.740605	0.627524	-1.099654
H92	H	2.240605	1.127524	-0.599654
O93	O	1.378945	0.366146	-1.120743
O94	O	1.878945	0.866146	-0.620743
H95	H	1.325477	0.413137	-1.170718
H96	H	1.825477	0.913137	-0.670718
H97	H	1.103627	0.629310	-0.732108
H98	H	1.603627	1.129310	-0.232108
O99	O	1.118882	0.753337	-0.611920
O100	O	1.618882	1.253337	-0.111920
H101	H	1.205757	0.749102	-0.613505
H102	H	1.705757	1.249102	-0.113505
O103	O	1.658105	0.645575	-0.892643
O104	O	2.158105	1.145575	-0.392643
H105	H	1.704838	0.692274	-0.949217
H106	H	2.204838	1.192274	-0.449217
O107	O	1.378656	0.891483	-0.645755
O108	O	1.878656	1.391483	-0.145755
H109	H	1.389912	0.805970	-0.634452
H110	H	1.889912	1.305970	-0.134452
H111	H	1.640484	1.105039	-0.384481
H112	H	2.140484	1.605039	0.115519
H113	H	1.396634	0.383978	-0.907187
H114	H	1.896634	0.883978	-0.407187
O115	O	1.378795	1.119552	-0.645829
O116	O	1.878795	1.619552	-0.145829
H117	H	1.332024	1.062969	-0.692498
H118	H	1.832024	1.562969	-0.192498
O119	O	0.919044	0.612546	-0.753163
O120	O	1.419044	1.112546	-0.253163
H121	H	0.983893	0.592143	-0.807474
H122	H	1.483893	1.092143	-0.307474
H123	H	0.934300	0.732373	-0.628787
H124	H	1.434300	1.232373	-0.128787
O125	O	0.904849	0.366266	-0.366744
O126	O	1.404849	0.866266	0.133256
H127	H	0.819338	0.377590	-0.378005
H128	H	1.319338	0.877590	0.121995
H129	H	1.640358	0.905991	-0.384399
H130	H	2.140358	1.405991	0.115601
