data_functionalizedCrystal
_audit_creation_method	'MofGen! by Chris Wilmer'
_symmetry_space_group_name_H-M	'P1'
_symmetry_Int_Tables_number	1
_symmetry_cell_setting	triclinic
loop_
_symmetry_equiv_pos_as_xyz
  x,y,z
_cell_length_a	26.809956
_cell_length_b	15.995350
_cell_length_c	15.995350
_cell_angle_alpha	83.492375
_cell_angle_beta	90.006575
_cell_angle_gamma	89.994818
loop_
_atom_site_label
_atom_site_type_symbol
_atom_site_fract_x
_atom_site_fract_y
_atom_site_fract_z
O1	O	0.041435	-1.110992	-0.107915
O2	O	0.541435	-0.610992	0.392085
O3	O	0.041445	-0.867217	-0.121242
O4	O	0.541445	-0.367217	0.378758
O5	O	0.041439	-0.995768	0.007309
O6	O	0.541439	-0.495768	0.507309
O7	O	0.041441	-0.982441	-0.236466
O8	O	0.541441	-0.482441	0.263534
O9	O	-0.041520	-0.995744	0.007289
O10	O	0.458480	-0.495744	0.507289
O11	O	-0.041514	-0.867193	-0.121262
O12	O	0.458486	-0.367193	0.378738
O13	O	-0.041524	-1.110968	-0.107934
O14	O	0.458476	-0.610968	0.392066
Zn15	Zn	-0.054691	-0.989076	-0.114601
Zn16	Zn	0.445309	-0.489076	0.385399
Zn17	Zn	0.054611	-0.989108	-0.114575
Zn18	Zn	0.554611	-0.489108	0.385425
O19	O	-0.041519	-0.982416	-0.236486
O20	O	0.458481	-0.482416	0.263514
C21	C	-0.000034	-0.836010	-0.120701
C22	C	0.499966	-0.336010	0.379299
C23	C	-0.000030	-0.743060	-0.119049
C24	C	0.499970	-0.243060	0.380951
C25	C	-0.000040	-0.995205	0.038494
C26	C	0.499960	-0.495205	0.538494
C27	C	-0.000037	-0.993553	0.131444
C28	C	0.499963	-0.493553	0.631444
N29	N	-0.129287	-0.989061	-0.114618
N30	N	0.370713	-0.489061	0.385382
C31	C	-0.473916	-1.046024	-0.057667
C32	C	0.026084	-0.546024	0.442333
C33	C	-0.682793	-1.046043	-0.057654
C34	C	-0.182793	-0.546043	0.442346
O35	O	-0.709799	-1.094441	-0.009237
O36	O	-0.209799	-0.594441	0.490763
N37	N	-0.708914	-0.989113	-0.114557
N38	N	-0.208914	-0.489113	0.385443
C39	C	-0.682812	-0.932170	-0.171463
C40	C	-0.182812	-0.432170	0.328537
O41	O	-0.709822	-0.883741	-0.219857
O42	O	-0.209822	-0.383741	0.280143
C43	C	-0.473936	-0.932146	-0.171471
C44	C	0.026064	-0.432146	0.328529
C45	C	-0.447817	-0.989086	-0.114571
C46	C	0.052183	-0.489086	0.385429
C47	C	-0.447797	-1.102958	-0.000770
C48	C	0.052203	-0.602958	0.499230
C49	C	-0.395581	-1.102956	-0.000777
C50	C	0.104419	-0.602956	0.499223
C51	C	-0.369483	-1.046019	-0.057681
C52	C	0.130517	-0.546019	0.442319
C53	C	-0.395601	-0.989084	-0.114577
C54	C	0.104399	-0.489084	0.385423
C55	C	-0.447835	-0.875200	-0.228373
C56	C	0.052165	-0.375200	0.271627
C57	C	-0.395612	-0.875198	-0.228369
C58	C	0.104388	-0.375198	0.271631
C59	C	-0.369494	-0.932138	-0.171468
C60	C	0.130506	-0.432138	0.328532
C61	C	-0.317287	-0.932144	-0.171488
C62	C	0.182713	-0.432144	0.328512
N63	N	-0.291166	-0.989075	-0.114585
N64	N	0.208834	-0.489075	0.385415
C65	C	-0.317264	-1.046012	-0.057681
C66	C	0.182736	-0.546012	0.442319
C67	C	-0.792476	-0.932187	-0.171456
C68	C	-0.292476	-0.432187	0.328544
C69	C	-0.844695	-0.932194	-0.171455
C70	C	-0.344695	-0.432194	0.328545
C71	C	-0.844672	-1.046067	-0.057645
C72	C	-0.344672	-0.546067	0.442355
C73	C	-0.792452	-1.046063	-0.057650
C74	C	-0.292452	-0.546063	0.442350
C75	C	-0.766355	-0.989117	-0.114553
C76	C	-0.266355	-0.489117	0.385447
C77	C	-0.207606	-1.046003	-0.057701
C78	C	0.292394	-0.546003	0.442299
C79	C	-0.155385	-1.045998	-0.057715
C80	C	0.344615	-0.545998	0.442285
C81	C	-0.155412	-0.932122	-0.171522
C82	C	0.344588	-0.432122	0.328478
C83	C	-0.207629	-0.932130	-0.171511
C84	C	0.292371	-0.432130	0.328489
C85	C	-0.233724	-0.989074	-0.114593
C86	C	0.266276	-0.489074	0.385407
O87	O	-0.290249	-0.883765	-0.219873
O88	O	0.209751	-0.383765	0.280127
O89	O	-0.290245	-1.094421	-0.009283
O90	O	0.209755	-0.594421	0.490717
C91	C	-0.526132	-1.046026	-0.057660
C92	C	-0.026132	-0.546026	0.442340
C93	C	-0.552250	-0.989091	-0.114557
C94	C	-0.052250	-0.489091	0.385443
C95	C	-0.526152	-0.932154	-0.171461
C96	C	-0.026152	-0.432154	0.328539
C97	C	-0.604469	-0.989098	-0.114556
C98	C	-0.104469	-0.489098	0.385444
C99	C	-0.630567	-1.046035	-0.057652
C100	C	-0.130567	-0.546035	0.442348
C101	C	-0.604446	-1.102966	-0.000750
C102	C	-0.104446	-0.602966	0.499250
C103	C	-0.552230	-1.102963	-0.000757
C104	C	-0.052230	-0.602963	0.499243
C105	C	-0.552273	-0.875224	-0.228363
C106	C	-0.052273	-0.375224	0.271637
C107	C	-0.604489	-0.875231	-0.228353
C108	C	-0.104489	-0.375231	0.271647
C109	C	-0.630587	-0.932169	-0.171449
C110	C	-0.130587	-0.432169	0.328551
N111	N	0.129207	-0.989131	-0.114552
N112	N	0.629207	-0.489131	0.385448
C113	C	-0.000045	-1.142175	-0.108476
C114	C	0.499955	-0.642175	0.391524
C115	C	-0.000046	-1.235125	-0.110127
C116	C	0.499954	-0.735125	0.389873
C117	C	-0.000040	-0.405312	-0.113117
C118	C	0.499960	0.094688	0.386883
C119	C	-0.000226	-0.452746	-0.021565
C120	C	0.499774	0.047254	0.478435
C121	C	-0.000035	-0.549436	-0.023217
C122	C	0.499965	-0.049436	0.476783
C123	C	-0.000035	-0.572873	-0.116060
C124	C	0.499965	-0.072873	0.383940
C125	C	0.047337	-0.531799	-0.161205
C126	C	0.547337	-0.031799	0.338795
C127	C	0.047373	-0.435164	-0.158905
C128	C	0.547373	0.064836	0.341095
C129	C	-0.046967	-0.434797	-0.160819
C130	C	0.453033	0.065203	0.339181
C131	C	-0.047590	-0.531742	-0.160797
C132	C	0.452410	-0.031742	0.339203
C133	C	-0.000031	-0.667570	-0.117727
C134	C	0.499969	-0.167570	0.382273
C135	C	-0.000041	-0.310614	-0.111452
C136	C	0.499959	0.189386	0.388548
C137	C	-0.000039	-0.982980	-0.267671
C138	C	0.499961	-0.482980	0.232329
C139	C	-0.000039	-0.984631	-0.360621
C140	C	0.499961	-0.484631	0.139379
C141	C	-0.000038	-0.987621	0.469192
C142	C	0.499962	-0.487621	0.969192
C143	C	0.000152	-0.896069	0.421758
C144	C	0.500152	-0.396069	0.921758
C145	C	-0.000035	-0.897721	0.325068
C146	C	0.499965	-0.397721	0.825068
C147	C	-0.000037	-0.990564	0.301631
C148	C	0.499963	-0.490564	0.801631
C149	C	-0.047412	-1.035706	0.342698
C150	C	0.452588	-0.535706	0.842698
C151	C	-0.047451	-1.033407	0.439333
C152	C	0.452549	-0.533407	0.939333
C153	C	0.046889	-1.035325	0.439714
C154	C	0.546889	-0.535325	0.939714
C155	C	0.047515	-1.035304	0.342769
C156	C	0.547515	-0.535304	0.842769
C157	C	-0.000038	-0.992231	0.206934
C158	C	0.499962	-0.492231	0.706934
C159	C	-0.000040	-0.985956	0.563890
C160	C	0.499960	-0.485956	1.063890
H161	H	-0.134121	-1.092368	-0.011379
H162	H	0.365879	-0.592368	0.488621
H163	H	-0.082864	-1.000468	0.457626
H164	H	0.417136	-0.500468	0.957626
H165	H	-0.469042	-1.149323	0.045571
H166	H	0.030958	-0.649323	0.545571
Cl167	Cl	-0.050779	-1.137178	0.489125
Cl168	Cl	0.449221	-0.637178	0.989125
H169	H	0.082592	-0.560184	-0.129833
H170	H	0.582592	-0.060184	0.370167
Cl171	Cl	-0.877523	-0.860620	-0.243002
Cl172	Cl	-0.377523	-0.360620	0.256998
H173	H	-0.033994	-0.577855	0.012270
H174	H	0.466006	-0.077855	0.512270
H175	H	0.050374	-1.103009	0.327407
H176	H	0.550374	-0.603009	0.827407
H177	H	-0.625704	-1.149329	0.045581
H178	H	-0.125704	-0.649329	0.545581
H179	H	-0.469093	-0.828834	-0.274706
H180	H	0.030907	-0.328834	0.225294
H181	H	-0.228894	-0.885773	-0.217853
H182	H	0.271106	-0.385773	0.282147
Cl183	Cl	0.047380	-1.139540	0.488751
Cl184	Cl	0.547380	-0.639540	0.988751
Cl185	Cl	-0.050137	-1.141015	0.320890
Cl186	Cl	0.449863	-0.641015	0.820890
Cl187	Cl	-0.047463	-0.385761	-0.265034
Cl188	Cl	0.452537	0.114239	0.234966
H189	H	-0.082665	-1.004333	0.314308
H190	H	0.417335	-0.504333	0.814308
H191	H	-0.771231	-0.885814	-0.217796
H192	H	-0.271231	-0.385814	0.282204
H193	H	0.033559	-0.433162	0.014870
H194	H	0.533559	0.066838	0.514870
H195	H	-0.134155	-0.885767	-0.217855
H196	H	0.365845	-0.385767	0.282145
Cl197	Cl	-0.519403	-1.174547	0.070781
Cl198	Cl	-0.019403	-0.674547	0.570781
H199	H	0.082561	-1.002299	0.315528
H200	H	0.582561	-0.502299	0.815528
H201	H	-0.082874	-0.414251	-0.130897
H202	H	0.417126	0.085749	0.369103
H203	H	-0.865930	-1.092428	-0.011313
H204	H	-0.365930	-0.592428	0.488687
H205	H	0.034125	-0.859487	0.440298
H206	H	0.534125	-0.359487	0.940298
H207	H	0.082796	-1.005403	0.460262
H208	H	0.582796	-0.505403	0.960262
Cl209	Cl	0.050694	-0.385372	-0.262677
Cl210	Cl	0.550694	0.114628	0.237323
Cl211	Cl	-0.052551	-0.842532	0.282028
Cl212	Cl	0.447449	-0.342532	0.782028
H213	H	-0.771190	-1.092428	-0.011317
H214	H	-0.271190	-0.592428	0.488683
Cl215	Cl	-0.051850	-0.839651	0.452354
Cl216	Cl	0.448150	-0.339651	0.952354
Cl217	Cl	-0.362808	-0.803602	-0.299908
Cl218	Cl	0.137192	-0.303602	0.200092
Cl219	Cl	-0.637318	-0.803646	-0.299895
Cl220	Cl	-0.137318	-0.303646	0.200105
Cl221	Cl	0.052396	-0.842932	0.281195
Cl222	Cl	0.552396	-0.342932	0.781195
Cl223	Cl	0.050070	-0.553632	-0.266505
Cl224	Cl	0.550070	-0.053632	0.233495
H225	H	-0.531028	-0.828857	-0.274700
H226	H	-0.031028	-0.328857	0.225300
H227	H	-0.034198	-0.434214	0.015022
H228	H	0.465802	0.065786	0.515022
Cl229	Cl	-0.101698	-0.573797	-0.109832
Cl230	Cl	0.398302	-0.073797	0.390168
H231	H	0.033982	-0.577304	0.012526
H232	H	0.533982	-0.077304	0.512526
H233	H	-0.228847	-1.092371	-0.011352
H234	H	0.271153	-0.592371	0.488648
Cl235	Cl	0.102045	-0.406909	-0.108049
Cl236	Cl	0.602045	0.093091	0.391951
H237	H	-0.050451	-0.547107	-0.228501
H238	H	0.449549	-0.047107	0.271499
H239	H	-0.374319	-1.149319	0.045559
H240	H	0.125681	-0.649319	0.545559
