data_functionalizedCrystal
_audit_creation_method	'MofGen! by Chris Wilmer'
_symmetry_space_group_name_H-M	'P1'
_symmetry_Int_Tables_number	1
_symmetry_cell_setting	triclinic
loop_
_symmetry_equiv_pos_as_xyz
  x,y,z
_cell_length_a	18.101398
_cell_length_b	18.101396
_cell_length_c	18.101389
_cell_angle_alpha	89.983791
_cell_angle_beta	90.024327
_cell_angle_gamma	89.967710
loop_
_atom_site_label
_atom_site_type_symbol
_atom_site_fract_x
_atom_site_fract_y
_atom_site_fract_z
Zn1	Zn	1.132091	0.295001	0.418850
Zn2	Zn	1.382091	0.545001	0.668850
Zn3	Zn	1.632091	0.795001	0.918850
Zn4	Zn	1.882091	1.045001	1.168850
Zn5	Zn	1.131974	0.418826	0.295013
Zn6	Zn	1.381974	0.668826	0.545013
Zn7	Zn	1.631974	0.918826	0.795013
Zn8	Zn	1.881974	1.168826	1.045013
Zn9	Zn	1.008249	0.294993	0.295011
Zn10	Zn	1.258249	0.544993	0.545011
Zn11	Zn	1.508249	0.794993	0.795011
Zn12	Zn	1.758249	1.044993	1.045011
Zn13	Zn	1.008187	0.418795	0.418802
Zn14	Zn	1.258187	0.668795	0.668802
Zn15	Zn	1.508187	0.918795	0.918802
Zn16	Zn	1.758187	1.168795	1.168802
O17	O	1.070125	0.356904	0.356919
O18	O	1.320125	0.606904	0.606919
O19	O	1.570125	0.856904	0.856919
O20	O	1.820125	1.106904	1.106919
O21	O	1.235708	0.311443	0.402444
O22	O	1.485708	0.561443	0.652444
O23	O	1.735708	0.811443	0.902444
O24	O	1.985708	1.061443	1.152444
O25	O	1.115538	0.402410	0.191380
O26	O	1.365538	0.652410	0.441380
O27	O	1.615538	0.902410	0.691380
O28	O	1.865538	1.152410	0.941380
O29	O	1.024752	0.191361	0.311458
O30	O	1.274752	0.441361	0.561458
O31	O	1.524752	0.691361	0.811458
O32	O	1.774752	0.941361	1.061458
O33	O	1.235622	0.402417	0.311462
O34	O	1.485622	0.652417	0.561462
O35	O	1.735622	0.902417	0.811462
O36	O	1.985622	1.152417	1.061462
O37	O	1.115738	0.191367	0.402442
O38	O	1.365738	0.441367	0.652442
O39	O	1.615738	0.691367	0.902442
O40	O	1.865738	0.941367	1.152442
O41	O	1.024639	0.311430	0.191379
O42	O	1.274639	0.561430	0.441379
O43	O	1.524639	0.811430	0.691379
O44	O	1.774639	1.061430	0.941379
O45	O	0.904608	0.311399	0.311411
O46	O	1.154608	0.561399	0.561411
O47	O	1.404608	0.811399	0.811411
O48	O	1.654608	1.061399	1.061411
O49	O	1.024646	0.402363	0.522441
O50	O	1.274646	0.652363	0.772441
O51	O	1.524646	0.902363	1.022441
O52	O	1.774646	1.152363	1.272441
O53	O	0.904563	0.402356	0.402360
O54	O	1.154563	0.652356	0.652360
O55	O	1.404563	0.902356	0.902360
O56	O	1.654563	1.152356	1.152360
O57	O	1.115677	0.311412	0.522477
O58	O	1.365677	0.561412	0.772477
O59	O	1.615677	0.811412	1.022477
O60	O	1.865677	1.061412	1.272477
O61	O	1.115478	0.522455	0.311415
O62	O	1.365478	0.772455	0.561415
O63	O	1.615478	1.022455	0.811415
O64	O	1.865478	1.272455	1.061415
O65	O	1.024533	0.522432	0.402362
O66	O	1.274533	0.772432	0.652362
O67	O	1.524533	1.022432	0.902362
O68	O	1.774533	1.272432	1.152362
C69	C	0.877715	0.356874	0.356880
C70	C	1.127715	0.606874	0.606880
C71	C	1.377715	0.856874	0.856880
C72	C	1.627715	1.106874	1.106880
C73	C	0.795401	0.356879	0.356882
C74	C	1.045401	0.606879	0.606882
C75	C	1.295401	0.856879	0.856882
C76	C	1.545401	1.106879	1.106882
C77	C	1.070006	0.549314	0.356899
C78	C	1.320006	0.799314	0.606899
C79	C	1.570006	1.049314	0.856899
C80	C	1.820006	1.299314	1.106899
C81	C	1.070023	0.631628	0.356916
C82	C	1.320023	0.881628	0.606916
C83	C	1.570023	1.131628	0.856916
C84	C	1.820023	1.381628	1.106916
C85	C	0.496310	0.356925	0.356944
C86	C	0.746310	0.606925	0.606944
C87	C	0.996310	0.856925	0.856944
C88	C	1.246310	1.106925	1.106944
C89	C	0.527639	0.299412	0.300001
C90	C	0.777639	0.549412	0.550001
C91	C	1.027639	0.799412	0.800001
C92	C	1.277639	1.049412	1.050001
C93	C	0.613257	0.299566	0.299758
C94	C	0.863257	0.549566	0.549758
C95	C	1.113257	0.799566	0.799758
C96	C	1.363257	1.049566	1.049758
C97	C	0.644692	0.356901	0.356913
C98	C	0.894692	0.606901	0.606913
C99	C	1.144692	0.856901	0.856913
C100	C	1.394692	1.106901	1.106913
C101	C	0.613566	0.434909	0.335591
C102	C	0.863566	0.684909	0.585591
C103	C	1.113566	0.934909	0.835591
C104	C	1.363566	1.184909	1.085591
C105	C	0.527921	0.434590	0.335195
C106	C	0.777921	0.684590	0.585195
C107	C	1.027921	0.934590	0.835195
C108	C	1.277921	1.184590	1.085195
C109	C	0.527926	0.337109	0.435342
C110	C	0.777926	0.587109	0.685342
C111	C	1.027926	0.837109	0.935342
C112	C	1.277926	1.087109	1.185342
C113	C	0.613577	0.335371	0.434914
C114	C	0.863577	0.585371	0.684914
C115	C	1.113577	0.835371	0.934914
C116	C	1.363577	1.085371	1.184914
C117	C	0.728552	0.356893	0.356897
C118	C	0.978552	0.606893	0.606897
C119	C	1.228552	0.856893	0.856897
C120	C	1.478552	1.106893	1.106897
C121	C	0.412450	0.356939	0.356958
C122	C	0.662450	0.606939	0.606958
C123	C	0.912450	0.856939	0.856958
C124	C	1.162450	1.106939	1.106958
C125	C	1.070155	0.930719	0.356959
C126	C	1.320155	1.180719	0.606959
C127	C	1.570155	1.430719	0.856959
C128	C	1.820155	1.680719	1.106959
C129	C	1.013070	0.899410	0.414322
C130	C	1.263070	1.149410	0.664322
C131	C	1.513070	1.399410	0.914322
C132	C	1.763070	1.649410	1.164322
C133	C	1.012808	0.813792	0.414142
C134	C	1.262808	1.063792	0.664142
C135	C	1.512808	1.313792	0.914142
C136	C	1.762808	1.563792	1.164142
C137	C	1.070089	0.782337	0.356938
C138	C	1.320089	1.032337	0.606938
C139	C	1.570089	1.282337	0.856938
C140	C	1.820089	1.532337	1.106938
C141	C	1.048957	0.813472	0.278887
C142	C	1.298957	1.063472	0.528887
C143	C	1.548957	1.313472	0.778887
C144	C	1.798957	1.563472	1.028887
C145	C	1.048580	0.899117	0.279231
C146	C	1.298580	1.149117	0.529231
C147	C	1.548580	1.399117	0.779231
C148	C	1.798580	1.649117	1.029231
C149	C	1.148500	0.899073	0.376960
C150	C	1.398500	1.149073	0.626960
C151	C	1.648500	1.399073	0.876960
C152	C	1.898500	1.649073	1.126960
C153	C	1.148048	0.813422	0.378670
C154	C	1.398048	1.063422	0.628670
C155	C	1.648048	1.313422	0.878670
C156	C	1.898048	1.563422	1.128670
C157	C	1.070054	0.698477	0.356922
C158	C	1.320054	0.948477	0.606922
C159	C	1.570054	1.198477	0.856922
C160	C	1.820054	1.448477	1.106922
C161	C	1.070189	1.014579	0.356970
C162	C	1.320189	1.264579	0.606970
C163	C	1.570189	1.514579	0.856970
C164	C	1.820189	1.764579	1.106970
C165	C	1.263287	0.356934	0.356958
C166	C	1.513287	0.606934	0.606958
C167	C	1.763287	0.856934	0.856958
C168	C	2.013287	1.106934	1.106958
C169	C	1.345601	0.356948	0.356975
C170	C	1.595601	0.606948	0.606975
C171	C	1.845601	0.856948	0.856975
C172	C	2.095601	1.106948	1.106975
C173	C	1.070168	0.356885	0.550081
C174	C	1.320168	0.606885	0.800081
C175	C	1.570168	0.856885	1.050081
C176	C	1.820168	1.106885	1.300081
C177	C	1.070186	0.356877	0.632395
C178	C	1.320186	0.606877	0.882395
C179	C	1.570186	0.856877	1.132395
C180	C	1.820186	1.106877	1.382395
C181	C	1.070239	1.163742	0.356958
C182	C	1.320239	1.413742	0.606958
C183	C	1.570239	1.663742	0.856958
C184	C	1.820239	1.913742	1.106958
C185	C	1.070221	1.081428	0.356981
C186	C	1.320221	1.331428	0.606981
C187	C	1.570221	1.581428	0.856981
C188	C	1.820221	1.831428	1.106981
C189	C	1.070125	0.356869	0.164509
C190	C	1.320125	0.606869	0.414509
C191	C	1.570125	0.856869	0.664509
C192	C	1.820125	1.106869	0.914509
C193	C	1.070251	0.356668	0.082195
C194	C	1.320251	0.606668	0.332195
C195	C	1.570251	0.856668	0.582195
C196	C	1.820251	1.106668	0.832195
C197	C	1.070229	0.356738	0.931486
C198	C	1.320229	0.606738	1.181486
C199	C	1.570229	0.856738	1.431486
C200	C	1.820229	1.106738	1.681486
C201	C	1.012758	0.413780	0.900139
C202	C	1.262758	0.663780	1.150139
C203	C	1.512758	0.913780	1.400139
C204	C	1.762758	1.163780	1.650139
C205	C	1.012913	0.414045	0.814521
C206	C	1.262913	0.664045	1.064521
C207	C	1.512913	0.914045	1.314521
C208	C	1.762913	1.164045	1.564521
C209	C	1.070207	0.356807	0.783104
C210	C	1.320207	0.606807	1.033104
C211	C	1.570207	0.856807	1.283104
C212	C	1.820207	1.106807	1.533104
C213	C	1.148231	0.377998	0.814210
C214	C	1.398231	0.627998	1.064210
C215	C	1.648231	0.877998	1.314210
C216	C	1.898231	1.127998	1.564210
C217	C	1.147910	0.378372	0.899855
C218	C	1.397910	0.628372	1.149855
C219	C	1.647910	0.878372	1.399855
C220	C	1.897910	1.128372	1.649855
C221	C	1.050356	0.278379	0.899908
C222	C	1.300356	0.528379	1.149908
C223	C	1.550356	0.778379	1.399908
C224	C	1.800356	1.028379	1.649908
C225	C	1.048620	0.278832	0.814257
C226	C	1.298620	0.528832	1.064257
C227	C	1.548620	0.778832	1.314257
C228	C	1.798620	1.028832	1.564257
C229	C	1.070200	0.356845	0.699244
C230	C	1.320200	0.606845	0.949244
C231	C	1.570200	0.856845	1.199244
C232	C	1.820200	1.106845	1.449244
C233	C	1.070242	0.356702	1.015346
C234	C	1.320242	0.606702	1.265346
C235	C	1.570242	0.856702	1.515346
C236	C	1.820242	1.106702	1.765346
H237	H	0.634304	0.241719	0.313122
H238	H	0.884304	0.491719	0.563122
H239	H	1.134304	0.741719	0.813122
H240	H	1.384304	0.991719	1.063122
H241	H	0.507665	0.378999	0.477770
H242	H	0.757665	0.628999	0.727770
H243	H	1.007665	0.878999	0.977770
H244	H	1.257665	1.128999	1.227770
H245	H	0.994451	0.259074	0.921493
H246	H	1.244451	0.509074	1.171493
H247	H	1.494451	0.759074	1.421493
H248	H	1.744451	1.009074	1.671493
H249	H	1.163984	0.793071	0.436112
H250	H	1.413984	1.043071	0.686112
H251	H	1.663984	1.293071	0.936112
H252	H	1.913984	1.543071	1.186112
H253	H	1.026033	0.472127	0.794040
H254	H	1.276033	0.722127	1.044040
H255	H	1.526033	0.972127	1.294040
H256	H	1.776033	1.222127	1.544040
H257	H	1.087426	0.234076	0.792871
H258	H	1.337426	0.484076	1.042871
H259	H	1.587426	0.734076	1.292871
H260	H	1.837426	0.984076	1.542871
Cl261	Cl	0.961478	0.780450	0.252260
Cl262	Cl	1.211478	1.030450	0.502260
Cl263	Cl	1.461478	1.280450	0.752260
Cl264	Cl	1.711478	1.530450	1.002260
H265	H	0.991311	0.919153	0.262290
H266	H	1.241311	1.169153	0.512290
H267	H	1.491311	1.419153	0.762290
H268	H	1.741311	1.669153	1.012290
Cl269	Cl	1.216121	0.315871	0.782798
Cl270	Cl	1.466121	0.565871	1.032798
Cl271	Cl	1.716121	0.815871	1.282798
Cl272	Cl	1.966121	1.065871	1.532798
Cl273	Cl	1.032768	0.502898	0.933429
Cl274	Cl	1.282768	0.752898	1.183429
Cl275	Cl	1.532768	1.002898	1.433429
Cl276	Cl	1.782768	1.252898	1.683429
H277	H	0.506360	0.281216	0.454728
H278	H	0.756360	0.531216	0.704728
H279	H	1.006360	0.781216	0.954728
H280	H	1.256360	1.031216	1.204728
Cl281	Cl	1.033217	0.781286	0.503495
Cl282	Cl	1.283217	1.031286	0.753495
Cl283	Cl	1.533217	1.281286	1.003495
Cl284	Cl	1.783217	1.531286	1.253495
H285	H	1.164759	0.435654	0.919841
H286	H	1.414759	0.685654	1.169841
H287	H	1.664759	0.935654	1.419841
H288	H	1.914759	1.185654	1.669841
Cl289	Cl	1.114983	0.212763	0.931208
Cl290	Cl	1.364983	0.462763	1.181208
Cl291	Cl	1.614983	0.712763	1.431208
Cl292	Cl	1.864983	0.962763	1.681208
Cl293	Cl	0.646621	0.461310	0.248059
Cl294	Cl	0.896621	0.711310	0.498059
Cl295	Cl	1.146621	0.961310	0.748059
Cl296	Cl	1.396621	1.211310	0.998059
H297	H	0.955352	0.920990	0.401240
H298	H	1.205352	1.170990	0.651240
H299	H	1.455352	1.420990	0.901240
H300	H	1.705352	1.670990	1.151240
Cl301	Cl	0.644839	0.319786	0.210066
Cl302	Cl	0.894839	0.569786	0.460066
Cl303	Cl	1.144839	0.819786	0.710066
Cl304	Cl	1.394839	1.069786	0.960066
Cl305	Cl	0.645009	0.246749	0.459748
Cl306	Cl	0.895009	0.496749	0.709748
Cl307	Cl	1.145009	0.746749	0.959748
Cl308	Cl	1.395009	0.996749	1.209748
H309	H	1.089231	0.793097	0.234981
H310	H	1.339231	1.043097	0.484981
H311	H	1.589231	1.293097	0.734981
H312	H	1.839231	1.543097	0.984981
H313	H	1.165370	0.434671	0.792770
H314	H	1.415370	0.684671	1.042770
H315	H	1.665370	0.934671	1.292770
H316	H	1.915370	1.184671	1.542770
Cl317	Cl	1.033268	0.931155	0.503968
Cl318	Cl	1.283268	1.181155	0.753968
Cl319	Cl	1.533268	1.431155	1.003968
Cl320	Cl	1.783268	1.681155	1.253968
Cl321	Cl	0.495890	0.209824	0.320403
Cl322	Cl	0.745890	0.459824	0.570403
Cl323	Cl	0.995890	0.709824	0.820403
Cl324	Cl	1.245890	0.959824	1.070403
Cl325	Cl	1.216222	0.316972	0.931878
Cl326	Cl	1.466222	0.566972	1.181878
Cl327	Cl	1.716222	0.816972	1.431878
Cl328	Cl	1.966222	1.066972	1.681878
H329	H	0.955056	0.400784	0.793487
H330	H	1.205056	0.650784	1.043487
H331	H	1.455056	0.900784	1.293487
H332	H	1.705056	1.150784	1.543487
Cl333	Cl	0.959966	0.254161	0.782875
Cl334	Cl	1.209966	0.504161	1.032875
Cl335	Cl	1.459966	0.754161	1.282875
Cl336	Cl	1.709966	1.004161	1.532875
Cl337	Cl	1.178238	0.932358	0.463337
Cl338	Cl	1.428238	1.182358	0.713337
Cl339	Cl	1.678238	1.432358	0.963337
Cl340	Cl	1.928238	1.682358	1.213337
H341	H	1.192833	0.792007	0.339935
H342	H	1.442833	1.042007	0.589935
H343	H	1.692833	1.292007	0.839935
H344	H	1.942833	1.542007	1.089935
Cl345	Cl	1.214167	0.930346	0.312468
Cl346	Cl	1.464167	1.180346	0.562468
Cl347	Cl	1.714167	1.430346	0.812468
Cl348	Cl	1.964167	1.680346	1.062468
H349	H	0.954741	0.793362	0.400892
H350	H	1.204741	1.043362	0.650892
H351	H	1.454741	1.293362	0.900892
H352	H	1.704741	1.543362	1.150892
Cl353	Cl	0.644989	0.502843	0.397625
Cl354	Cl	0.894989	0.752843	0.647625
Cl355	Cl	1.144989	1.002843	0.897625
Cl356	Cl	1.394989	1.252843	1.147625
H357	H	0.954726	0.400655	0.920724
H358	H	1.204726	0.650655	1.170724
H359	H	1.454726	0.900655	1.420724
H360	H	1.704726	1.150655	1.670724
H361	H	1.088354	0.919830	0.235034
H362	H	1.338354	1.169830	0.485034
H363	H	1.588354	1.419830	0.735034
H364	H	1.838354	1.669830	0.985034
H365	H	0.506088	0.312363	0.242246
H366	H	0.756088	0.562363	0.492246
H367	H	1.006088	0.812363	0.742246
H368	H	1.256088	1.062363	0.992246
H369	H	0.634978	0.374209	0.479615
H370	H	0.884978	0.624209	0.729615
H371	H	1.134978	0.874209	0.979615
H372	H	1.384978	1.124209	1.229615
H373	H	0.507907	0.451397	0.277882
H374	H	0.757907	0.701397	0.527882
H375	H	1.007907	0.951397	0.777882
H376	H	1.257907	1.201397	1.027882
H377	H	0.507194	0.478892	0.374862
H378	H	0.757194	0.728892	0.624862
H379	H	1.007194	0.978892	0.874862
H380	H	1.257194	1.228892	1.124862
