data_functionalizedCrystal
_audit_creation_method	'MofGen! by Chris Wilmer'
_symmetry_space_group_name_H-M	'P1'
_symmetry_Int_Tables_number	1
_symmetry_cell_setting	triclinic
loop_
_symmetry_equiv_pos_as_xyz
  x,y,z
_cell_length_a	29.839134
_cell_length_b	18.050589
_cell_length_c	18.050582
_cell_angle_alpha	89.981795
_cell_angle_beta	90.024639
_cell_angle_gamma	89.976917
loop_
_atom_site_label
_atom_site_type_symbol
_atom_site_fract_x
_atom_site_fract_y
_atom_site_fract_z
Zn1	Zn	0.686773	0.295808	0.420128
Zn2	Zn	0.686719	0.419992	0.295947
Zn3	Zn	0.611652	0.295809	0.295931
Zn4	Zn	0.611620	0.419950	0.420074
O5	O	0.649191	0.357890	0.358020
O6	O	0.749633	0.312299	0.403684
O7	O	0.676751	0.403536	0.192020
O8	O	0.621653	0.191884	0.312421
O9	O	0.749593	0.403536	0.312449
O10	O	0.676843	0.191884	0.403668
O11	O	0.621600	0.312300	0.192008
O12	O	0.548781	0.312259	0.312369
O13	O	0.621599	0.403465	0.524006
O14	O	0.548758	0.403465	0.403577
O15	O	0.676813	0.312258	0.524045
O16	O	0.676721	0.523911	0.312397
O17	O	0.621547	0.523880	0.403593
C18	C	0.649137	0.550842	0.358008
C19	C	0.649155	0.633388	0.358027
C20	C	0.532468	0.357858	0.357966
C21	C	0.482534	0.357863	0.357961
C22	C	0.649209	0.357857	0.551726
C23	C	0.649216	0.357843	0.634271
C24	C	0.172888	0.405451	0.405454
C25	C	-0.014785	0.405472	0.405487
O26	O	-0.039052	0.445898	0.445835
N27	N	-0.038251	0.357917	0.358076
C28	C	-0.014796	0.310350	0.310657
O29	O	-0.039062	0.269897	0.270337
C30	C	0.172876	0.310326	0.310628
C31	C	0.196340	0.357889	0.358037
C32	C	0.196352	0.453010	0.452859
C33	C	0.243267	0.453007	0.452848
C34	C	0.266719	0.405445	0.405431
C35	C	0.243255	0.357886	0.358025
C36	C	0.196330	0.262756	0.263213
C37	C	0.243251	0.262753	0.263212
C38	C	0.266715	0.310316	0.310620
C39	C	0.313622	0.310322	0.310597
N40	N	0.337088	0.357877	0.358007
C41	C	0.313637	0.405438	0.405424
C42	C	-0.113327	0.310367	0.310674
C43	C	-0.160245	0.310374	0.310680
C44	C	-0.160230	0.405495	0.405511
C45	C	-0.113312	0.405491	0.405501
C46	C	-0.089861	0.357922	0.358085
C47	C	0.412163	0.405429	0.405396
C48	C	0.459082	0.405424	0.405378
C49	C	0.459064	0.310301	0.310550
C50	C	0.412148	0.310308	0.310565
C51	C	0.388699	0.357875	0.357994
O52	O	0.337918	0.269911	0.270275
O53	O	0.337910	0.445874	0.445750
C54	C	0.125973	0.405454	0.405465
C55	C	0.102509	0.357895	0.358060
C56	C	0.125961	0.310333	0.310643
C57	C	0.055591	0.357902	0.358066
C58	C	0.032139	0.405463	0.405483
C59	C	0.055605	0.453018	0.452894
C60	C	0.102521	0.453015	0.452882
C61	C	0.102495	0.262778	0.263232
C62	C	0.055579	0.262786	0.263247
C63	C	0.032127	0.310347	0.310664
C64	C	0.766369	0.357922	0.358074
C65	C	0.816304	0.357936	0.358097
C66	C	0.649258	0.164184	0.358049
C67	C	0.649286	0.081638	0.358061
C68	C	0.619180	0.832849	0.407602
C69	C	0.608232	0.882281	0.339832
C70	C	0.649199	0.784518	0.358037
C71	C	0.660169	0.882167	0.425815
C72	C	0.649241	0.930503	0.358052
C73	C	0.638229	0.832863	0.290231
C74	C	0.690185	0.832745	0.376260
C75	C	0.679252	0.882155	0.308442
C76	C	0.649173	0.700420	0.358029
C77	C	0.649266	1.014600	0.358052
C78	C	0.649199	0.357869	0.165068
C79	C	0.649279	0.357674	0.082522
C80	C	0.619214	0.407373	0.833701
C81	C	0.660201	0.425533	0.883105
C82	C	0.649238	0.357786	0.785402
C83	C	0.608274	0.339606	0.883079
C84	C	0.649256	0.357733	0.931387
C85	C	0.690247	0.375981	0.833719
C86	C	0.638292	0.290023	0.833689
C87	C	0.679307	0.308157	0.883071
C88	C	0.649227	0.357819	0.701304
C89	C	0.649271	0.357700	1.015484
H90	H	0.478184	0.444159	0.443984
C91	C	0.713183	0.910894	0.252620
C92	C	0.745496	0.953488	0.289332
C93	C	0.776760	0.979969	0.237933
H94	H	0.698339	0.940610	0.216756
H95	H	0.727320	0.870243	0.228720
H96	H	0.731360	0.994133	0.313220
H97	H	0.760351	0.923788	0.325192
H98	H	0.790898	0.939318	0.214033
H99	H	0.761913	1.009682	0.202072
H100	H	0.798691	1.008866	0.262836
C101	C	0.585213	0.804013	0.463316
C102	C	0.542383	0.829102	0.443893
C103	C	0.511081	0.802545	0.495189
H104	H	0.592645	0.821603	0.511365
H105	H	0.585595	0.751384	0.463227
H106	H	0.542003	0.881720	0.443990
H107	H	0.534937	0.811514	0.395853
H108	H	0.511463	0.749915	0.495100
H109	H	0.518517	0.820136	0.543235
H110	H	0.482017	0.819558	0.482014
H111	H	0.724908	0.391401	0.812127
H112	H	0.724818	0.810972	0.391691
C113	C	0.713281	0.252310	0.911760
C114	C	0.756091	0.271660	0.886629
C115	C	0.787401	0.220240	0.913052
H116	H	0.705807	0.204308	0.894108
H117	H	0.712958	0.252317	0.964390
H118	H	0.756413	0.271645	0.834010
H119	H	0.763579	0.319653	0.904279
H120	H	0.787078	0.220247	0.965682
H121	H	0.779923	0.172241	0.895398
H122	H	0.816452	0.233366	0.896010
C123	C	0.672460	0.910944	0.502299
C124	C	0.640905	0.885944	0.553952
C125	C	0.652212	0.912427	0.624419
H126	H	0.672647	0.963564	0.501748
H127	H	0.701348	0.893232	0.515618
H128	H	0.612024	0.903660	0.540637
H129	H	0.640713	0.833328	0.554527
H130	H	0.681100	0.894715	0.637738
H131	H	0.652399	0.965046	0.623860
H132	H	0.630806	0.895463	0.659476
H133	H	0.573591	0.904056	0.324433
H134	H	0.121621	0.491746	0.491488
C135	C	0.625810	0.803967	0.213849
C136	C	0.625903	0.726405	0.214745
C137	C	0.614457	0.699760	0.144402
H138	H	0.646996	0.821165	0.178554
H139	H	0.596789	0.821300	0.200824
H140	H	0.654920	0.709080	0.227761
H141	H	0.604716	0.709188	0.250025
H142	H	0.585436	0.717092	0.131376
H143	H	0.635644	0.716962	0.109112
H144	H	0.614514	0.647132	0.145002
C145	C	-0.087815	0.457218	0.456855
C146	C	-0.060909	0.504772	0.414727
C147	C	-0.037423	0.552439	0.462012
H148	H	-0.069462	0.428938	0.489277
H149	H	-0.108492	0.485587	0.485079
H150	H	-0.040235	0.476406	0.386515
H151	H	-0.079251	0.533067	0.382307
H152	H	-0.058100	0.580808	0.490236
H153	H	-0.019072	0.524153	0.494431
H154	H	-0.019167	0.584714	0.433434
H155	H	0.593847	0.449362	0.812025
C156	C	0.672474	0.501963	0.912014
C157	C	0.640920	0.553685	0.887020
C158	C	0.652205	0.624099	0.913641
H159	H	0.701360	0.515302	0.894404
H160	H	0.672640	0.501307	0.964642
H161	H	0.640759	0.554343	0.834402
H162	H	0.612031	0.540371	0.904628
H163	H	0.652371	0.623443	0.966269
H164	H	0.681092	0.637430	0.896029
H165	H	0.630795	0.659200	0.896692
H166	H	0.629011	0.232756	0.811966
C167	C	0.562032	0.319229	0.911890
C168	C	0.530729	0.371348	0.886859
C169	C	0.488125	0.352603	0.913375
H170	H	0.562377	0.318927	0.964510
H171	H	0.554018	0.271461	0.894223
H172	H	0.538740	0.419103	0.904531
H173	H	0.530369	0.371658	0.834242
H174	H	0.480112	0.304835	0.895707
H175	H	0.488475	0.352300	0.965994
H176	H	0.466880	0.387958	0.896390
H177	H	0.393076	0.444161	0.444019
H178	H	0.262367	0.491736	0.491454
H179	H	0.036479	0.224055	0.224634
H180	H	0.177262	0.491740	0.491476
H181	H	-0.179345	0.271651	0.272068
C182	C	-0.185721	0.457006	0.457090
C183	C	-0.212623	0.415011	0.504768
C184	C	-0.236109	0.462430	0.552301
H185	H	-0.204077	0.489343	0.428719
H186	H	-0.165044	0.485316	0.485376
H187	H	-0.233298	0.386714	0.476486
H188	H	-0.194279	0.382676	0.533156
H189	H	-0.215433	0.490739	0.580586
H190	H	-0.254463	0.494765	0.523923
H191	H	-0.254362	0.433943	0.584660
C192	C	-0.087950	0.258691	0.259105
C193	C	-0.118549	0.217067	0.217578
C194	C	-0.095191	0.169465	0.170056
H195	H	-0.069631	0.226299	0.287478
H196	H	-0.069673	0.287034	0.226653
H197	H	-0.136818	0.188726	0.250025
H198	H	-0.136869	0.249440	0.189189
H199	H	-0.076914	0.197808	0.137604
H200	H	-0.076873	0.137077	0.198435
H201	H	-0.115948	0.141222	0.141869
H202	H	0.177234	0.224027	0.224606
C203	C	0.484612	0.258690	0.259154
C204	C	0.530722	0.268857	0.269314
C205	C	0.554272	0.221314	0.221993
H206	H	0.476962	0.269436	0.209205
H207	H	0.476964	0.208792	0.270122
H208	H	0.538367	0.318744	0.258341
H209	H	0.538386	0.258106	0.319253
H210	H	0.546624	0.171416	0.232960
H211	H	0.546618	0.232064	0.172047
H212	H	0.585560	0.228201	0.228884
C213	C	0.268631	0.211081	0.211643
C214	C	0.238036	0.169448	0.170116
C215	C	0.261398	0.121852	0.122594
H216	H	0.286953	0.178693	0.240015
H217	H	0.286905	0.239428	0.179190
H218	H	0.219770	0.141103	0.202564
H219	H	0.219713	0.201817	0.141728
H220	H	0.279672	0.150199	0.090141
H221	H	0.279719	0.089469	0.150973
H222	H	0.240643	0.093604	0.094408
H223	H	0.393043	0.271580	0.271959
H224	H	0.036503	0.491747	0.491500
C225	C	0.127871	0.211110	0.211664
C226	C	0.097273	0.169482	0.170139
C227	C	0.120632	0.121885	0.122613
H228	H	0.146193	0.178720	0.240034
H229	H	0.146146	0.239456	0.179211
H230	H	0.079007	0.141139	0.202588
H231	H	0.078951	0.201853	0.141753
H232	H	0.138906	0.150231	0.090160
H233	H	0.138953	0.089499	0.150990
H234	H	0.099875	0.093639	0.094428
