data_functionalizedCrystal
_audit_creation_method	'MofGen! by Chris Wilmer'
_symmetry_space_group_name_H-M	'P1'
_symmetry_Int_Tables_number	1
_symmetry_cell_setting	triclinic
loop_
_symmetry_equiv_pos_as_xyz
  x,y,z
_cell_length_a	12.827893
_cell_length_b	16.625545
_cell_length_c	12.827885
_cell_angle_alpha	90.033151
_cell_angle_beta	89.980538
_cell_angle_gamma	89.975993
loop_
_atom_site_label
_atom_site_type_symbol
_atom_site_fract_x
_atom_site_fract_y
_atom_site_fract_z
Zn1	Zn	1.597609	0.320962	-0.590826
Zn2	Zn	1.930942	0.654295	-0.257492
Zn3	Zn	2.264275	0.987628	0.075841
Zn4	Zn	1.597476	0.455816	-0.416076
Zn5	Zn	1.930809	0.789150	-0.082743
Zn6	Zn	2.264143	1.122483	0.250590
Zn7	Zn	1.422850	0.321001	-0.416099
Zn8	Zn	1.756183	0.654335	-0.082766
Zn9	Zn	2.089516	0.987668	0.250567
Zn10	Zn	1.422809	0.455756	-0.590776
Zn11	Zn	1.756142	0.789089	-0.257443
Zn12	Zn	2.089476	1.122423	0.075890
O13	O	1.510186	0.388384	-0.503444
O14	O	1.843519	0.721717	-0.170111
O15	O	2.176853	1.055051	0.163222
O16	O	1.743827	0.338859	-0.567656
O17	O	2.077161	0.672192	-0.234322
O18	O	2.410494	1.005526	0.099011
O19	O	1.574273	0.437975	-0.269843
O20	O	1.907606	0.771308	0.063490
O21	O	2.240939	1.104641	0.396824
O22	O	1.446104	0.208164	-0.439307
O23	O	1.779438	0.541497	-0.105974
O24	O	2.112771	0.874830	0.227359
O25	O	1.743730	0.437936	-0.439268
O26	O	2.077063	0.771270	-0.105935
O27	O	2.410396	1.104603	0.227399
O28	O	1.574499	0.208135	-0.567678
O29	O	1.907832	0.541468	-0.234345
O30	O	2.241166	0.874801	0.098989
O31	O	1.445976	0.338927	-0.269860
O32	O	1.779309	0.672260	0.063473
O33	O	2.112642	1.005593	0.396807
O34	O	1.276608	0.338868	-0.439259
O35	O	1.609942	0.672202	-0.105926
O36	O	1.943275	1.005535	0.227407
O37	O	1.446035	0.437833	-0.737019
O38	O	1.779369	0.771167	-0.403686
O39	O	2.112702	1.104500	-0.070352
O40	O	1.276578	0.437872	-0.567594
O41	O	1.609912	0.771205	-0.234261
O42	O	1.943245	1.104538	0.099073
O43	O	1.574460	0.338801	-0.737055
O44	O	1.907793	0.672134	-0.403722
O45	O	2.241127	1.005467	-0.070389
O46	O	1.574233	0.568641	-0.439220
O47	O	1.907567	0.901974	-0.105887
O48	O	2.240900	1.235307	0.227446
O49	O	1.445906	0.568596	-0.567572
O50	O	1.779240	0.901930	-0.234238
O51	O	2.112573	1.235263	0.099095
C52	C	1.238676	0.388368	-0.503424
C53	C	1.572009	0.721702	-0.170091
C54	C	1.905343	1.055035	0.163242
C55	C	1.122523	0.388381	-0.503441
C56	C	1.455856	0.721714	-0.170107
C57	C	1.789189	1.055048	0.163226
C58	C	1.070751	0.437448	-0.566847
C59	C	1.404084	0.770781	-0.233513
C60	C	1.737418	1.104114	0.099820
C61	C	0.950701	0.437462	-0.566865
C62	C	1.284034	0.770795	-0.233532
C63	C	1.617367	1.104129	0.099802
C64	C	1.510080	0.597875	-0.503411
C65	C	1.843413	0.931208	-0.170077
C66	C	2.176746	1.264541	0.163256
C67	C	1.510130	0.687496	-0.503431
C68	C	1.843463	1.020829	-0.170098
C69	C	2.176796	1.354163	0.163235
C70	C	1.510300	1.015671	-0.503556
C71	C	1.843634	1.349005	-0.170223
C72	C	2.176967	1.682338	0.163110
C73	C	1.510249	0.924363	-0.503524
C74	C	1.843583	1.257696	-0.170191
C75	C	2.176916	1.591030	0.163142
C76	C	1.510214	0.851587	-0.503493
C77	C	1.843547	1.184920	-0.170160
C78	C	2.176881	1.518253	0.163173
C79	C	1.510165	0.760272	-0.503463
C80	C	1.843498	1.093606	-0.170129
C81	C	2.176832	1.426939	0.163204
C82	C	1.782756	0.388400	-0.503465
C83	C	2.116089	0.721733	-0.170132
C84	C	2.449423	1.055067	0.163202
C85	C	1.898909	0.388407	-0.503474
C86	C	2.232242	0.721740	-0.170140
C87	C	2.565576	1.055074	0.163193
C88	C	1.510258	0.388306	-0.776015
C89	C	1.843591	0.721639	-0.442681
C90	C	2.176925	1.054972	-0.109348
C91	C	1.510289	0.388272	-0.892168
C92	C	1.843622	0.721606	-0.558835
C93	C	2.176955	1.054939	-0.225501
C94	C	1.510312	1.178075	-0.503513
C95	C	1.843645	1.511408	-0.170180
C96	C	2.176979	1.844742	0.163154
C97	C	1.510343	1.088454	-0.503574
C98	C	1.843677	1.421787	-0.170240
C99	C	2.177010	1.755120	0.163093
C100	C	1.573874	0.339225	-1.064015
C101	C	1.907208	0.672558	-0.730682
C102	C	2.240541	1.005892	-0.397348
C103	C	1.573844	0.339258	-0.943965
C104	C	1.907177	0.672592	-0.610631
C105	C	2.240511	1.005925	-0.277298
C106	C	1.510174	0.388404	-0.231934
C107	C	1.843508	0.721737	0.101399
C108	C	2.176841	1.055070	0.434732
C109	C	1.510346	0.388210	-0.115782
C110	C	1.843679	0.721543	0.217552
C111	C	2.177013	1.054876	0.550885
H112	H	0.906178	0.479472	-0.621146
H113	H	1.239511	0.812805	-0.287813
H114	H	1.572845	1.146139	0.045521
O115	O	1.645901	0.283707	-0.885009
O116	O	1.979234	0.617040	-0.551676
O117	O	2.312568	0.950373	-0.218342
H118	H	1.634577	0.292456	-0.799969
H119	H	1.967911	0.625790	-0.466636
H120	H	2.301244	0.959123	-0.133302
H121	H	1.628290	0.297266	-1.108572
H122	H	1.961623	0.630599	-0.775239
H123	H	2.294956	0.963933	-0.441906
H124	H	1.115304	0.479442	-0.621121
H125	H	1.448637	0.812775	-0.287788
H126	H	1.781971	1.146109	0.045546
O127	O	0.957858	0.332757	-0.431552
O128	O	1.291191	0.666090	-0.098218
O129	O	1.624525	0.999424	0.235115
H130	H	1.007619	0.291798	-0.478449
H131	H	1.340952	0.625132	-0.145116
H132	H	1.674285	0.958465	0.188218
O133	O	1.063505	0.332756	-0.431548
O134	O	1.396839	0.666089	-0.098215
O135	O	1.730172	0.999422	0.235118
H136	H	1.084410	0.269470	-0.449592
H137	H	1.417743	0.602803	-0.116259
H138	H	1.751076	0.936136	0.217075
O139	O	1.438229	0.443826	-0.951118
O140	O	1.771562	0.777159	-0.617784
O141	O	2.104895	1.110492	-0.284451
H142	H	1.485027	0.484808	-1.000835
H143	H	1.818360	0.818141	-0.667502
H144	H	2.151694	1.151475	-0.334169
O145	O	1.438242	0.443783	-1.056780
O146	O	1.771576	0.777116	-0.723446
O147	O	2.104909	1.110450	-0.390113
H148	H	1.456096	0.507080	-1.077641
H149	H	1.789429	0.840413	-0.744308
H150	H	2.122762	1.173746	-0.410975
