data_functionalizedCrystal
_audit_creation_method	'MofGen! by Chris Wilmer'
_symmetry_space_group_name_H-M	'P1'
_symmetry_Int_Tables_number	1
_symmetry_cell_setting	triclinic
loop_
_symmetry_equiv_pos_as_xyz
  x,y,z
_cell_length_a	19.121063
_cell_length_b	16.120542
_cell_length_c	16.120256
_cell_angle_alpha	89.872789
_cell_angle_beta	95.181175
_cell_angle_gamma	90.317046
loop_
_atom_site_label
_atom_site_type_symbol
_atom_site_fract_x
_atom_site_fract_y
_atom_site_fract_z
Zn1	Zn	-0.355839	-1.228531	-0.551620
Zn2	Zn	-0.467619	-1.229540	-0.417911
Zn3	Zn	-0.343961	-1.097152	-0.404967
Zn4	Zn	-0.466967	-1.083531	-0.549846
O5	O	-0.408597	-1.159689	-0.481086
O6	O	-0.375911	-1.344753	-0.540043
O7	O	-0.446518	-1.218102	-0.299603
O8	O	-0.247279	-1.119858	-0.419746
O9	O	-0.458035	-1.345494	-0.441807
O10	O	-0.256005	-1.216381	-0.527492
O11	O	-0.355667	-1.120837	-0.290093
O12	O	-0.355034	-0.979257	-0.418025
O13	O	-0.456923	-1.096642	-0.666672
O14	O	-0.445406	-0.969250	-0.524468
O15	O	-0.375278	-1.203173	-0.667976
O16	O	-0.565791	-1.204894	-0.440087
O17	O	-0.565312	-1.097622	-0.537019
C18	C	-0.398861	-0.944153	-0.469650
C19	C	-0.394714	-0.851944	-0.464778
C20	C	-0.430087	-0.637103	-0.506311
C21	C	-0.387149	-0.683122	-0.455883
C22	C	-0.391359	-0.777063	-0.460834
C23	C	-0.425877	-0.543153	-0.501361
C24	C	-0.591030	-1.149911	-0.489785
C25	C	-0.669081	-1.145802	-0.493538
C26	C	-0.705979	-1.199762	-0.444880
C27	C	-0.779316	-1.195903	-0.448415
C28	C	-0.815754	-1.138079	-0.500604
C29	C	-0.778850	-1.084117	-0.549267
C30	C	-0.705515	-1.087981	-0.545736
C31	C	-1.037168	-1.123620	-0.513792
C32	C	-1.110509	-1.119758	-0.517318
C33	C	-1.110970	-1.231546	-0.416466
C34	C	-1.037632	-1.235401	-0.412936
C35	C	-1.000736	-1.181442	-0.461602
C36	C	-0.890716	-1.134131	-0.504216
C37	C	-0.925775	-1.185395	-0.457994
C38	C	-0.225452	-1.169526	-0.472373
C39	C	-0.147407	-1.173718	-0.468660
C40	C	-0.417353	-1.148276	-0.698400
C41	C	-0.421084	-1.143412	-0.791006
C42	C	-0.418366	-0.376066	-0.492555
C43	C	-0.422519	-0.468276	-0.497413
C44	C	-0.389120	-1.185050	-1.002461
C45	C	-0.427867	-1.134507	-0.960550
C46	C	-0.424092	-1.139463	-0.866207
C47	C	-0.392894	-1.180095	-1.096813
C48	C	-0.399826	-1.171107	-0.264618
C49	C	-0.395904	-1.176142	-0.172011
H50	H	-0.470007	-0.668255	-0.553197
N51	N	-0.337059	-0.644063	-0.397051
N52	N	-0.272923	-0.656826	-0.400100
H53	H	-0.237549	-0.629239	-0.358550
H54	H	-0.676316	-1.246845	-0.402378
H55	H	-0.353116	-1.232041	-0.967491
N56	N	-0.473034	-1.075544	-1.004412
N57	N	-0.447854	-1.021502	-1.048997
H58	H	-0.479754	-0.979862	-1.079977
H59	H	-0.809356	-1.239842	-0.408792
N60	N	-1.000425	-1.294469	-0.359618
N61	N	-1.033379	-1.342644	-0.316176
H62	H	-1.007102	-1.384360	-0.278516
H63	H	-1.141019	-1.275477	-0.376846
H64	H	-1.140175	-1.072681	-0.559831
H65	H	-1.007133	-1.079683	-0.553417
N66	N	-0.816079	-1.025063	-0.602581
N67	N	-0.881557	-1.021620	-0.605728
H68	H	-0.907850	-0.979911	-0.643382
H69	H	-0.896106	-1.232478	-0.415505
N70	N	-0.667833	-1.032861	-0.595450
N71	N	-0.700373	-0.981238	-0.642047
H72	H	-0.673762	-0.942310	-0.677163
N73	N	-0.927949	-1.075063	-0.557509
N74	N	-0.965357	-1.021618	-0.527312
H75	H	-0.991657	-0.979902	-0.564950
