data_functionalizedCrystal
_audit_creation_method	'MofGen! by Chris Wilmer'
_symmetry_space_group_name_H-M	'P1'
_symmetry_Int_Tables_number	1
_symmetry_cell_setting	triclinic
loop_
_symmetry_equiv_pos_as_xyz
  x,y,z
_cell_length_a	10.654538
_cell_length_b	9.130313
_cell_length_c	10.654550
_cell_angle_alpha	89.998390
_cell_angle_beta	84.482460
_cell_angle_gamma	89.996263
loop_
_atom_site_label
_atom_site_type_symbol
_atom_site_fract_x
_atom_site_fract_y
_atom_site_fract_z
O1	O	-1.667848	0.121814	-0.176324
O2	O	-1.302368	0.121813	-0.193146
O3	O	-1.493511	0.121808	-0.001995
O4	O	-1.476705	0.121819	-0.367474
O5	O	-1.493498	-0.121791	-0.001996
O6	O	-1.302355	-0.121786	-0.193146
O7	O	-1.667835	-0.121785	-0.176324
Cu8	Cu	-1.485094	-0.144028	-0.184735
Cu9	Cu	-1.485109	0.144056	-0.184735
O10	O	-1.476692	-0.121780	-0.367475
C11	C	-1.255563	0.000013	-0.191914
C12	C	-1.116119	0.000012	-0.188228
N13	N	-1.485093	-0.346650	-0.184735
C14	C	-0.919579	-0.132779	-0.183020
C15	C	-1.050600	-0.132777	-0.186494
C16	C	-1.050608	0.132808	-0.186500
C17	C	-0.919589	0.132804	-0.183035
C18	C	-0.854069	-0.265577	-0.181273
C19	C	-0.919570	-0.398373	-0.183003
C20	C	-1.050591	-0.398371	-0.186478
C21	C	-1.116111	-0.265572	-0.188222
C22	C	-1.569767	-0.576642	-0.100114
C23	C	-1.569757	-0.423306	-0.100122
C24	C	-1.400441	-0.423340	-0.269355
C25	C	-1.400459	-0.576674	-0.269352
C26	C	-1.654429	-0.653290	-0.015487
C27	C	-1.739082	-0.576610	0.069131
C28	C	-1.739072	-0.423274	0.069123
C29	C	-1.654409	-0.346616	-0.015503
C30	C	-0.714638	0.000013	-0.177568
C31	C	-0.854078	0.000006	-0.181288
C32	C	-1.492271	0.000010	0.044802
C33	C	-1.488579	0.000016	0.184246
N34	N	-1.485120	0.346679	-0.184725
C35	C	-1.477932	0.000021	-0.414273
C36	C	-1.481624	0.000025	-0.553716
C37	C	-1.601121	0.000012	0.263736
C38	C	-1.597644	0.000022	0.394757
C39	C	-1.369073	0.000034	0.366784
C40	C	-1.372551	0.000034	0.235765
C41	C	-1.717148	-0.000007	0.212216
C42	C	-1.829699	-0.000012	0.291708
C43	C	-1.826223	-0.000002	0.422729
C44	C	-1.710195	0.000014	0.474258
H45	H	-0.747385	-0.265594	-0.178442
O46	O	-1.935633	0.000195	0.499818
C47	C	-2.006006	0.126368	0.476324
H48	H	-1.976036	0.168427	0.377218
H49	H	-1.988220	0.214716	0.548120
C50	C	-2.184200	0.036374	0.609272
C51	C	-2.147397	0.088025	0.487545
H52	H	-2.271417	0.012727	0.616199
H53	H	-2.136787	-0.048629	0.625105
H54	H	-2.169367	0.110007	0.669089
H55	H	-2.162215	0.014386	0.427731
H56	H	-2.194816	0.173015	0.471701
O57	O	-1.821349	-0.349012	0.151433
C58	C	-1.896094	-0.449550	0.226099
H59	H	-1.844600	-0.558861	0.227994
H60	H	-1.989745	-0.465841	0.184461
C61	C	-1.984041	-0.255447	0.359018
C62	C	-1.920790	-0.389701	0.361355
H63	H	-1.999281	-0.218528	0.442449
H64	H	-1.933688	-0.187711	0.308712
H65	H	-2.062077	-0.269041	0.324314
H66	H	-1.842751	-0.376101	0.396044
H67	H	-1.971131	-0.457433	0.411670
O68	O	-1.114170	0.261836	-0.188409
C69	C	-1.068862	0.342639	-0.296125
H70	H	-1.023558	0.264945	-0.371063
H71	H	-0.995819	0.425440	-0.269566
C72	C	-1.234880	0.519430	-0.256396
C73	C	-1.179246	0.424003	-0.348441
H74	H	-1.302967	0.569625	-0.288665
H75	H	-1.265403	0.464995	-0.183823
H76	H	-1.173999	0.588417	-0.234272
H77	H	-1.240123	0.355007	-0.370552
H78	H	-1.148736	0.478428	-0.421019
O79	O	-1.942295	-0.000086	0.241451
C80	C	-1.921235	-0.000057	0.108765
H81	H	-1.823490	-0.046176	0.078853
H82	H	-1.927647	0.116807	0.072240
C83	C	-2.141658	-0.038951	0.090310
C84	C	-2.021610	-0.095606	0.053571
H85	H	-2.203577	-0.097883	0.056262
H86	H	-2.155848	-0.038964	0.179703
H87	H	-2.146984	0.058435	0.059870
H88	H	-2.016282	-0.192982	0.084024
H89	H	-2.007422	-0.095611	-0.035819
H90	H	-0.866256	0.240929	-0.181628
H91	H	-0.866214	-0.506493	-0.181593
H92	H	-1.103917	-0.506500	-0.187899
O93	O	-1.318324	-0.348945	-0.351722
C94	C	-1.339796	-0.386427	-0.476239
H95	H	-1.440353	-0.428556	-0.477787
H96	H	-1.270514	-0.475444	-0.512484
C97	C	-1.197495	-0.198471	-0.559303
C98	C	-1.321005	-0.250203	-0.561206
H99	H	-1.185898	-0.114445	-0.611717
H100	H	-1.183024	-0.173221	-0.475414
H101	H	-1.139774	-0.272665	-0.589504
H102	H	-1.378722	-0.176017	-0.530990
H103	H	-1.335485	-0.275438	-0.645092
H104	H	-1.707373	0.000038	0.580945
H105	H	-1.222795	-0.265581	-0.191066
H106	H	-1.654443	-0.778144	-0.015471
H107	H	-1.808020	-0.639033	0.138024
H108	H	-1.654416	-0.221759	-0.015510
H109	H	-1.331532	-0.639107	-0.338251
H110	H	-1.719992	-0.000020	0.105534
H111	H	-1.274609	0.000044	0.408749
H112	H	-1.280910	0.000035	0.171042
