data_functionalizedCrystal
_audit_creation_method	'MofGen! by Chris Wilmer'
_symmetry_space_group_name_H-M	'P1'
_symmetry_Int_Tables_number	1
_symmetry_cell_setting	triclinic
loop_
_symmetry_equiv_pos_as_xyz
  x,y,z
_cell_length_a	16.109301
_cell_length_b	15.186229
_cell_length_c	16.109301
_cell_angle_alpha	90.011978
_cell_angle_beta	83.461481
_cell_angle_gamma	90.002431
loop_
_atom_site_label
_atom_site_type_symbol
_atom_site_fract_x
_atom_site_fract_y
_atom_site_fract_z
O1	O	1.103132	0.073176	0.106874
O2	O	1.436465	0.406509	0.440207
O3	O	1.769799	0.739842	0.773541
O4	O	0.861070	0.073190	0.120173
O5	O	1.194403	0.406523	0.453507
O6	O	1.527737	0.739857	0.786840
O7	O	0.988751	0.073174	-0.007507
O8	O	1.322084	0.406507	0.325826
O9	O	1.655417	0.739840	0.659159
O10	O	0.975451	0.073192	0.234555
O11	O	1.308785	0.406526	0.567888
O12	O	1.642118	0.739859	0.901221
O13	O	0.988740	-0.073284	-0.007525
O14	O	1.322073	0.260050	0.325808
O15	O	1.655406	0.593383	0.659142
O16	O	0.861059	-0.073267	0.120156
O17	O	1.194392	0.260066	0.453489
O18	O	1.527726	0.593399	0.786822
O19	O	1.103121	-0.073282	0.106856
O20	O	1.436454	0.260052	0.440190
O21	O	1.769788	0.593385	0.773523
Zn22	Zn	0.982088	-0.096528	0.113503
Zn23	Zn	1.315421	0.236806	0.446836
Zn24	Zn	1.648755	0.570139	0.780170
Zn25	Zn	0.982103	0.096436	0.113527
Zn26	Zn	1.315436	0.429769	0.446860
Zn27	Zn	1.648769	0.763103	0.780193
O28	O	0.975440	-0.073265	0.234537
O29	O	1.308774	0.260068	0.567870
O30	O	1.642107	0.593402	0.901203
C31	C	0.830090	-0.000037	0.119626
C32	C	1.163423	0.333296	0.452959
C33	C	1.496756	0.666630	0.786292
C34	C	0.737794	-0.000032	0.118011
C35	C	1.071128	0.333302	0.451344
C36	C	1.404461	0.666635	0.784677
C37	C	0.515522	-0.000036	0.190018
C38	C	0.848855	0.333297	0.523352
C39	C	1.182188	0.666630	0.856685
C40	C	0.428801	-0.000042	0.188494
C41	C	0.762135	0.333291	0.521828
C42	C	1.095468	0.666625	0.855161
C43	C	0.448676	-0.000050	0.037006
C44	C	0.782009	0.333283	0.370339
C45	C	1.115342	0.666617	0.703672
C46	C	0.535394	-0.000051	0.038530
C47	C	0.868728	0.333283	0.371864
C48	C	1.202061	0.666616	0.705197
C49	C	0.568815	-0.000039	0.115039
C50	C	0.902148	0.333294	0.448373
C51	C	1.235482	0.666627	0.781706
C52	C	0.395376	-0.000045	0.111990
C53	C	0.728709	0.333289	0.445324
C54	C	1.062042	0.666622	0.778657
C55	C	0.301350	-0.000051	0.110337
C56	C	0.634683	0.333283	0.443671
C57	C	0.968016	0.666616	0.777004
C58	C	0.662847	-0.000035	0.116693
C59	C	0.996180	0.333299	0.450026
C60	C	1.329514	0.666632	0.783359
C61	C	0.988206	-0.000056	-0.038491
C62	C	1.321540	0.333278	0.294842
C63	C	1.654873	0.666611	0.628176
C64	C	0.986591	-0.000057	-0.130786
C65	C	1.319925	0.333277	0.202547
C66	C	1.653258	0.666610	0.535880
C67	C	1.134101	-0.000053	0.107404
C68	C	1.467435	0.333281	0.440737
C69	C	1.800768	0.666614	0.774071
C70	C	1.226397	-0.000052	0.109019
C71	C	1.559730	0.333281	0.442352
C72	C	1.893063	0.666615	0.775686
N73	N	0.982084	-0.228220	0.113486
N74	N	1.315418	0.105113	0.446820
N75	N	1.648751	0.438446	0.780153
N76	N	0.982113	0.228129	0.113537
N77	N	1.315446	0.561462	0.446870
N78	N	1.648780	0.894795	0.780203
C79	C	1.038744	0.546040	0.057089
C80	C	1.372077	0.879373	0.390423
C81	C	1.705410	1.212707	0.723756
C82	C	1.038748	0.453850	0.057096
C83	C	1.372081	0.787184	0.390429
C84	C	1.705414	1.120517	0.723763
C85	C	0.925448	0.453875	0.169936
C86	C	1.258781	0.787208	0.503270
C87	C	1.592114	1.120542	0.836603
C88	C	0.925440	0.546063	0.169925
C89	C	1.258774	0.879396	0.503258
C90	C	1.592107	1.212730	0.836592
C91	C	0.982093	0.592143	0.113503
C92	C	1.315426	0.925476	0.446836
C93	C	1.648760	1.258810	0.780169
C94	C	0.982104	0.407765	0.113520
C95	C	1.315438	0.741099	0.446854
C96	C	1.648771	1.074432	0.780187
C97	C	0.982108	0.307809	0.113528
C98	C	1.315441	0.641143	0.446861
C99	C	1.648775	0.974476	0.780195
C100	C	0.982088	0.692106	0.113494
C101	C	1.315422	1.025439	0.446827
C102	C	1.648755	1.358772	0.780160
C103	C	1.058599	-0.000047	-0.353059
C104	C	1.391932	0.333286	-0.019725
C105	C	1.725266	0.666620	0.313608
C106	C	1.057075	-0.000040	-0.439779
C107	C	1.390408	0.333294	-0.106446
C108	C	1.723742	0.666627	0.226888
C109	C	0.905586	-0.000034	-0.419905
C110	C	1.238919	0.333299	-0.086571
C111	C	1.572253	0.666633	0.246762
C112	C	0.907111	-0.000035	-0.333186
C113	C	1.240444	0.333298	0.000147
C114	C	1.573778	0.666631	0.333481
C115	C	0.983620	-0.000046	-0.299766
C116	C	1.316953	0.333287	0.033568
C117	C	1.650287	0.666621	0.366901
C118	C	0.980571	-0.000038	-0.473205
C119	C	1.313904	0.333296	-0.139871
C120	C	1.647238	0.666629	0.193462
C121	C	0.978918	-0.000030	-0.567231
C122	C	1.312251	0.333304	-0.233897
C123	C	1.645585	0.666637	0.099436
C124	C	0.985273	-0.000052	-0.205734
C125	C	1.318607	0.333281	0.127600
C126	C	1.651940	0.666614	0.460933
C127	C	0.975984	-0.000034	0.265521
C128	C	1.309318	0.333299	0.598854
C129	C	1.642651	0.666633	0.932187
C130	C	0.977600	-0.000027	0.357816
C131	C	1.310933	0.333306	0.691149
C132	C	1.644266	0.666640	1.024483
H133	H	0.421454	-0.000065	-0.025285
H134	H	0.754787	0.333269	0.308048
H135	H	1.088121	0.666602	0.641381
Cl136	Cl	0.557533	-0.000027	0.286200
Cl137	Cl	0.890867	0.333306	0.619534
Cl138	Cl	1.224200	0.666639	0.952867
Cl139	Cl	0.602397	-0.000061	-0.055737
Cl140	Cl	0.935730	0.333272	0.277596
Cl141	Cl	1.269064	0.666605	0.610930
Cl142	Cl	1.109961	0.603965	-0.013845
Cl143	Cl	1.443294	0.937299	0.319488
Cl144	Cl	1.776627	1.270632	0.652822
Cl145	Cl	0.854213	0.604027	0.240846
Cl146	Cl	1.187547	0.937360	0.574180
Cl147	Cl	1.520880	1.270694	0.907513
Cl148	Cl	1.154781	-0.000058	-0.311047
Cl149	Cl	1.488114	0.333275	0.022286
Cl150	Cl	1.821448	0.666608	0.355619
Cl151	Cl	1.109966	0.395894	-0.013828
Cl152	Cl	1.443300	0.729228	0.319505
Cl153	Cl	1.776633	1.062561	0.652838
Cl154	Cl	1.151339	-0.000039	-0.506773
Cl155	Cl	1.484672	0.333294	-0.173440
Cl156	Cl	1.818006	0.666628	0.159893
Cl157	Cl	0.809409	-0.000021	-0.461926
Cl158	Cl	1.142742	0.333313	-0.128592
Cl159	Cl	1.476076	0.666646	0.204741
Cl160	Cl	0.812844	-0.000026	-0.266184
Cl161	Cl	1.146177	0.333307	0.067150
Cl162	Cl	1.479510	0.666640	0.400483
H163	H	0.385413	-0.000041	0.249550
H164	H	0.718746	0.333292	0.582883
H165	H	1.052080	0.666625	0.916217
Cl166	Cl	0.854234	0.395942	0.240868
Cl167	Cl	1.187567	0.729275	0.574201
Cl168	Cl	1.520900	1.062609	0.907534
