data_functionalizedCrystal
_audit_creation_method	'MofGen! by Chris Wilmer'
_symmetry_space_group_name_H-M	'P1'
_symmetry_Int_Tables_number	1
_symmetry_cell_setting	triclinic
loop_
_symmetry_equiv_pos_as_xyz
  x,y,z
_cell_length_a	13.185408
_cell_length_b	13.262508
_cell_length_c	11.804365
_cell_angle_alpha	62.674773
_cell_angle_beta	97.766955
_cell_angle_gamma	68.866655
loop_
_atom_site_label
_atom_site_type_symbol
_atom_site_fract_x
_atom_site_fract_y
_atom_site_fract_z
O1	O	1.491265	-0.329987	0.205814
O2	O	1.165891	-0.213290	0.168039
O3	O	1.348757	-0.441928	0.242075
O4	O	1.308399	-0.101349	0.131778
O5	O	1.300618	-0.381784	0.024544
O6	O	1.117753	-0.153146	-0.049493
O7	O	1.443127	-0.269842	-0.011717
Cu8	Cu	1.276044	-0.206002	-0.050467
Cu9	Cu	1.332973	-0.277130	0.206789
O10	O	1.260261	-0.041204	-0.085754
C11	C	1.100395	-0.171388	0.055444
C12	C	0.976957	-0.136150	0.044040
C13	C	0.898614	-0.010682	0.003409
C14	C	0.782633	0.022434	-0.007327
C15	C	0.744985	-0.069918	0.022578
C16	C	0.823330	-0.195392	0.063219
C17	C	0.939320	-0.228508	0.073945
C18	C	0.785691	-0.287744	0.093114
C19	C	0.864035	-0.413218	0.133755
C20	C	0.980014	-0.446329	0.144481
C21	C	1.017662	-0.353977	0.114576
C22	C	0.669700	-0.254628	0.082388
C23	C	0.710406	-0.472454	0.152925
C24	C	0.826387	-0.505570	0.163660
C25	C	1.326852	-0.454528	0.147132
C26	C	1.333289	-0.581675	0.188317
C27	C	1.246463	-0.808947	-0.169912
C28	C	1.240406	-0.689482	-0.208610
C29	C	1.263626	-0.662524	-0.109381
C30	C	1.292904	-0.755043	0.028551
C31	C	1.298952	-0.874515	0.067251
C32	C	1.316116	-0.728093	0.127782
C33	C	1.345394	-0.820612	0.265715
C34	C	1.351442	-0.940072	0.304408
C35	C	1.328221	-0.967030	0.205180
C36	C	1.310068	-0.608621	0.089082
C37	C	1.362558	-0.674189	0.326245
C38	C	1.368614	-0.793654	0.364943
C39	C	1.508623	-0.311746	0.100880
C40	C	1.632064	-0.346985	0.112294
C41	C	1.282166	-0.028605	0.009193
C42	C	1.275731	0.098539	-0.031983
N43	N	1.236012	-0.155978	-0.231407
C44	C	1.469150	-0.447316	-0.511016
C45	C	1.499434	-0.485164	-0.374098
C46	C	1.433581	-0.402871	-0.338418
C47	C	1.337439	-0.282723	-0.439670
C48	C	1.307158	-0.244867	-0.576602
C49	C	1.271588	-0.200422	-0.404005
C50	C	1.175446	-0.080274	-0.505256
C51	C	1.145170	-0.042424	-0.642174
C52	C	1.211023	-0.124717	-0.677854
C53	C	1.301869	-0.238278	-0.267072
C54	C	1.139877	-0.035828	-0.332659
C55	C	1.109593	0.002020	-0.469576
N56	N	1.373016	-0.327167	0.387732
H57	H	0.679768	-0.547672	0.177335
O58	O	0.619891	-0.034204	0.010999
H59	H	0.617708	-0.097005	0.112056
O60	O	1.382997	-1.039863	0.453169
H61	H	1.310466	-1.062561	0.465675
O62	O	0.698134	0.157755	-0.051156
H63	H	0.743797	0.216407	-0.070138
H64	H	1.086255	0.031184	-0.303612
H65	H	0.890191	-0.607732	0.196750
O66	O	1.064516	-0.581653	0.188295
H67	H	1.018858	-0.640312	0.207295
H68	H	1.286220	-0.533298	-0.023225
O69	O	1.405535	-0.367878	-0.157875
H70	H	1.415532	-0.380384	-0.056666
O71	O	1.540173	-0.536054	-0.549510
H72	H	1.612118	-0.625958	-0.456106
H73	H	1.333157	-1.064308	0.236682
O74	O	0.939226	0.088912	-0.028847
H75	H	0.887597	0.171999	-0.136484
H76	H	1.577712	-0.582986	-0.291664
H77	H	1.112101	-0.380932	0.123311
H78	H	1.258692	-0.565248	-0.140898
O79	O	1.208852	-0.589706	-0.357364
H80	H	1.193739	-0.628526	-0.419861
O81	O	1.041483	0.087171	-0.751381
H82	H	1.031498	0.099673	-0.852588
O83	O	1.221438	-0.838028	-0.276926
H84	H	1.230576	-0.936649	-0.226838
O85	O	1.178362	-0.083882	-0.825539
H86	H	1.240311	-0.161291	-0.833332
H87	H	1.392451	-0.868998	0.477250
O88	O	1.387610	-0.645136	0.433287
H89	H	1.378499	-0.546527	0.383207
H90	H	1.458242	-0.433692	-0.226932
O91	O	0.585206	-0.119303	0.038552
H92	H	0.550995	-0.123513	0.120631
H93	H	1.031312	0.099847	-0.552032
