data_functionalizedCrystal
_audit_creation_method	'MofGen! by Chris Wilmer'
_symmetry_space_group_name_H-M	'P1'
_symmetry_Int_Tables_number	1
_symmetry_cell_setting	triclinic
loop_
_symmetry_equiv_pos_as_xyz
  x,y,z
_cell_length_a	17.917603
_cell_length_b	27.440280
_cell_length_c	17.917603
_cell_angle_alpha	90.006544
_cell_angle_beta	60.138055
_cell_angle_gamma	63.032973
loop_
_atom_site_label
_atom_site_type_symbol
_atom_site_fract_x
_atom_site_fract_y
_atom_site_fract_z
Zr1	Zr	0.806776	0.497304	-0.128965
O2	O	0.951821	0.427375	-0.249514
O3	O	0.654546	0.515400	-0.087310
O4	O	0.796396	0.524229	-0.242717
O5	O	0.820664	0.415382	0.023134
O6	O	0.796383	0.604431	-0.242702
O7	O	0.809970	0.418545	-0.094107
O8	O	0.542638	0.588637	0.035293
O9	O	1.074409	0.431176	-0.254861
O10	O	0.719812	0.587008	-0.075212
O11	O	0.727803	0.524794	0.012272
O12	O	0.894814	0.535189	-0.170699
O13	O	0.902804	0.472975	-0.083215
Zr14	Zr	0.823811	0.620172	0.058045
Zr15	Zr	0.806756	0.625217	-0.128941
Zr16	Zr	0.823832	0.492259	0.058021
Zr17	Zr	1.002291	0.503367	-0.137492
Zr18	Zr	0.628297	0.614109	0.066573
O19	O	0.976042	0.602077	0.016391
O20	O	0.951791	0.609250	-0.249479
O21	O	0.976072	0.420201	0.016356
O22	O	0.678767	0.690102	0.178595
O23	O	0.654516	0.697275	-0.087275
O24	O	0.678797	0.508226	0.178560
O25	O	0.809924	0.702094	-0.094053
O26	O	0.834191	0.593248	0.171797
O27	O	0.834205	0.513046	0.171782
O28	O	0.820618	0.698931	0.023188
O29	O	1.074392	0.532850	-0.254841
O30	O	0.556195	0.584627	0.183922
O31	O	0.556179	0.686300	0.183941
O32	O	0.542622	0.690310	0.035312
O33	O	1.087966	0.427166	-0.106232
O34	O	1.087950	0.528840	-0.106212
O35	O	0.735774	0.582287	0.099780
O36	O	0.727783	0.644502	0.012295
O37	O	0.902785	0.592682	-0.083192
O38	O	0.910776	0.530468	0.004292
C39	C	0.570735	0.551154	-0.024794
C40	C	0.487735	0.548580	-0.021174
C41	C	0.335769	0.543878	-0.014563
C42	C	0.294815	0.573597	-0.056354
C43	C	0.210256	0.570981	-0.052676
C44	C	0.420335	0.546494	-0.018240
C45	C	0.815320	0.398739	-0.035490
C46	C	0.815329	0.344436	-0.035501
C47	C	0.723930	0.034784	0.014408
C48	C	0.723925	-0.016235	0.014416
O49	O	0.646238	-0.019619	0.056833
N50	N	0.815272	-0.068800	-0.035428
C51	C	0.906632	-0.070346	-0.085276
O52	O	0.984330	-0.119742	-0.127671
C53	C	0.906637	-0.019328	-0.085278
C54	C	0.815282	0.033237	-0.035438
C55	C	0.632583	0.087347	0.064245
C56	C	0.632588	0.138362	0.064236
C57	C	0.723941	0.136815	0.014389
C58	C	0.815287	0.084252	-0.035448
C59	C	0.997996	-0.020875	-0.135121
C60	C	0.997992	0.030149	-0.135118
C61	C	0.906638	0.082714	-0.085278
C62	C	0.906645	0.133720	-0.085304
N63	N	0.815297	0.186285	-0.035459
C64	C	0.723945	0.187833	0.014387
C65	C	0.906616	-0.177486	-0.085266
C66	C	0.906612	-0.228503	-0.085269
C67	C	0.723904	-0.174388	0.014424
C68	C	0.723909	-0.123370	0.014422
C69	C	0.815268	-0.124920	-0.035422
C70	C	0.723963	0.294967	0.014363
C71	C	0.723976	0.345984	0.014346
C72	C	0.906684	0.291864	-0.085344
C73	C	0.906671	0.240851	-0.085331
C74	C	0.815303	0.242406	-0.035471
O75	O	0.984292	0.137148	-0.127695
O76	O	0.646261	0.237231	0.056784
C77	C	1.059852	0.566322	-0.046126
C78	C	1.142853	0.568896	-0.049746
C79	C	0.793960	0.565049	-0.269351
C80	C	0.786719	0.567190	-0.348731
C81	C	0.815268	0.718738	-0.035429
C82	C	0.815259	0.773040	-0.035419
C83	C	0.773493	0.571115	-0.494086
C84	C	0.857090	0.546363	-0.576836
C85	C	0.849731	0.548547	-0.657717
C86	C	0.780850	0.568932	-0.413196
C87	C	0.836628	0.552428	0.198431
C88	C	0.843869	0.550286	0.277812
C89	C	0.570709	0.711154	-0.024763
C90	C	0.487700	0.762882	-0.021133
C91	C	0.592070	0.544844	0.209097
C92	C	0.516309	0.540128	0.292098
C93	C	0.592044	0.704843	0.209128
C94	C	0.516274	0.754430	0.292139
C95	C	1.038544	0.412633	-0.280047
C96	C	1.114313	0.363046	-0.363058
C97	C	1.059878	0.406323	-0.046156
C98	C	1.142888	0.354594	-0.049787
C99	C	1.038518	0.572633	-0.280017
C100	C	1.114279	0.577348	-0.363017
C101	C	0.444556	0.757164	-0.065114
C102	C	0.366569	0.805764	-0.061720
C103	C	0.331722	0.860082	-0.014341
C104	C	0.374873	0.865799	0.029641
C105	C	0.452864	0.817200	0.026242
C106	C	0.484893	0.567924	0.376761
C107	C	0.413720	0.563492	0.454756
C108	C	0.373959	0.531266	0.448085
C109	C	0.405382	0.503466	0.363412
C110	C	0.476559	0.507896	0.285420
C111	C	0.476522	0.810197	0.285456
C112	C	0.405339	0.856795	0.363445
C113	C	0.373905	0.847624	0.448118
C114	C	0.413665	0.791851	0.454799
C115	C	0.484852	0.745255	0.376810
C116	C	1.154076	0.307279	-0.356375
C117	C	1.225283	0.260683	-0.434366
C118	C	1.256721	0.269854	-0.519039
C119	C	1.216956	0.325627	-0.525720
C120	C	1.145755	0.372222	-0.447730
C121	C	1.186039	0.360313	-0.005814
C122	C	1.264046	0.311714	-0.009229
C123	C	1.298896	0.257396	-0.056611
C124	C	1.255741	0.251679	-0.100589
C125	C	1.177740	0.300277	-0.097180
C126	C	1.154018	0.609579	-0.356317
C127	C	1.225193	0.614021	-0.434297
C128	C	1.256633	0.586228	-0.518977
C129	C	1.216886	0.553996	-0.525675
C130	C	1.145707	0.549558	-0.447695
H131	H	0.649581	0.388784	0.054935
F132	F	1.148967	0.418118	0.044617
F133	F	0.957862	0.516521	-0.590043
F134	F	0.672729	0.600951	-0.480882
F135	F	1.003903	0.290227	-0.138382
H136	H	0.502128	0.485262	0.216486
H137	H	0.472926	0.712940	-0.103706
H138	H	0.331444	0.801098	-0.097536
H139	H	0.268215	0.899650	-0.011579
H140	H	0.346490	0.910032	0.068216
H141	H	0.981016	-0.178756	-0.125859
H142	H	0.388144	0.586132	0.523692
H143	H	1.299171	0.316380	0.026588
F144	F	1.131818	0.294182	-0.143979
F145	F	1.332392	0.590956	-0.601963
H146	H	0.315939	0.885570	0.511614
F147	F	1.381912	0.205678	-0.060231
F148	F	0.298205	0.526556	0.531100
F149	F	1.292839	0.193865	-0.151012
F150	F	1.120570	0.639163	-0.266203
F151	F	1.003843	-0.284443	-0.138328
H152	H	0.307327	0.516471	0.023974
F153	F	0.363055	0.469171	0.356327
H154	H	1.072386	-0.063668	-0.175705
H155	H	1.257548	0.640266	-0.428826
F156	F	0.380201	0.782099	0.544921
F157	F	0.498768	0.823295	0.073062
H158	H	0.517210	0.699848	0.382264
H159	H	0.517259	0.594166	0.382210
F160	F	1.120629	0.297506	-0.266268
F161	F	0.626719	0.296630	0.067429
F162	F	0.363032	0.916147	0.356316
H163	H	1.242496	0.531369	-0.594631
F164	F	0.509967	0.819971	0.195348
H165	H	1.257648	0.215274	-0.428909
F166	F	1.103429	0.515248	-0.454840
H167	H	1.314697	0.231908	-0.582536
F168	F	1.250422	0.335379	-0.615842
F169	F	0.626678	-0.172749	0.067477
F170	F	0.331990	0.609423	-0.106730
F171	F	0.535356	0.194302	0.117289
H172	H	1.113380	0.417629	-0.453182
H173	H	0.558189	0.088617	0.104841
H174	H	0.649520	-0.080572	0.055014
H175	H	1.072391	0.028879	-0.175697
H176	H	0.981058	0.198050	-0.125927
