data_functionalizedCrystal
_audit_creation_method	'MofGen! by Chris Wilmer'
_symmetry_space_group_name_H-M	'P1'
_symmetry_Int_Tables_number	1
_symmetry_cell_setting	triclinic
loop_
_symmetry_equiv_pos_as_xyz
  x,y,z
_cell_length_a	17.038272
_cell_length_b	17.019372
_cell_length_c	13.101039
_cell_angle_alpha	90.514652
_cell_angle_beta	93.604737
_cell_angle_gamma	87.242864
loop_
_atom_site_label
_atom_site_type_symbol
_atom_site_fract_x
_atom_site_fract_y
_atom_site_fract_z
O1	O	0.099960	1.052986	0.007623
O2	O	0.433293	1.386319	0.340956
O3	O	0.766626	1.719653	0.674289
O4	O	0.111648	0.825131	-0.012469
O5	O	0.444981	1.158465	0.320865
O6	O	0.778315	1.491798	0.654198
O7	O	-0.008016	0.937704	-0.002534
O8	O	0.325317	1.271038	0.330799
O9	O	0.658651	1.604371	0.664132
O10	O	0.219624	0.940413	-0.002312
O11	O	0.552957	1.273747	0.331022
O12	O	0.886290	1.607080	0.664355
O13	O	0.000584	0.929628	0.167183
O14	O	0.333917	1.262962	0.500516
O15	O	0.667251	1.596295	0.833849
O16	O	0.120248	0.817055	0.157248
O17	O	0.453581	1.150389	0.490582
O18	O	0.786915	1.483722	0.823915
O19	O	0.108560	1.044910	0.177340
O20	O	0.441893	1.378243	0.510673
O21	O	0.775226	1.711577	0.844006
Zn22	Zn	0.115769	0.929701	0.194240
Zn23	Zn	0.449103	1.263034	0.527574
Zn24	Zn	0.782436	1.596367	0.860907
Zn25	Zn	0.104438	0.940341	-0.029369
Zn26	Zn	0.437772	1.273674	0.303964
Zn27	Zn	0.771105	1.607008	0.637297
O28	O	0.228224	0.932337	0.167405
O29	O	0.561557	1.265671	0.500739
O30	O	0.894890	1.599004	0.834072
C31	C	0.115336	0.791795	0.069806
C32	C	0.448670	1.125129	0.403140
C33	C	0.782003	1.458462	0.736473
C34	C	0.113504	0.704495	0.062109
C35	C	0.446837	1.037828	0.395442
C36	C	0.780171	1.371162	0.728776
C37	C	0.102876	0.210969	0.013864
C38	C	0.436210	0.544302	0.347197
C39	C	0.769543	0.877636	0.680530
C40	C	0.104599	0.292996	0.021110
C41	C	0.437932	0.626330	0.354443
C42	C	0.771265	0.959663	0.687777
C43	C	0.110154	0.329599	0.117247
C44	C	0.443487	0.662932	0.450580
C45	C	0.776820	0.996266	0.783914
C46	C	0.113978	0.284171	0.206143
C47	C	0.447312	0.617504	0.539477
C48	C	0.780645	0.950838	0.872810
C49	C	0.112250	0.202146	0.198896
C50	C	0.445584	0.535479	0.532229
C51	C	0.778917	0.868812	0.865563
C52	C	0.115601	0.577042	0.143758
C53	C	0.448934	0.910375	0.477091
C54	C	0.782267	1.243708	0.810424
C55	C	0.117331	0.659073	0.150998
C56	C	0.450664	0.992406	0.484332
C57	C	0.783997	1.325740	0.817665
C58	C	0.107950	0.667893	-0.034036
C59	C	0.441283	1.001226	0.299298
C60	C	0.774616	1.334559	0.632631
C61	C	0.106227	0.585865	-0.041275
C62	C	0.439560	0.919198	0.292059
C63	C	0.772893	1.252532	0.625392
C64	C	0.110047	0.540444	0.047622
C65	C	0.443381	0.873778	0.380955
C66	C	0.776714	1.207111	0.714288
C67	C	0.111917	0.413444	0.124656
C68	C	0.445250	0.746777	0.457990
C69	C	0.778583	1.080110	0.791323
C70	C	0.108279	0.456602	0.040211
C71	C	0.441612	0.789935	0.373545
C72	C	0.774945	1.123268	0.706878
C73	C	-0.032853	0.931203	0.082107
C74	C	0.300480	1.264536	0.415440
C75	C	0.633814	1.597870	0.748774
C76	C	-0.119672	0.923853	0.081459
C77	C	0.213661	1.257187	0.414792
C78	C	0.546994	1.590520	0.748125
C79	C	-0.169545	0.991330	0.087409
C80	C	0.163789	1.324663	0.420743
C81	C	0.497122	1.657996	0.754076
C82	C	-0.251121	0.984420	0.086790
C83	C	0.082213	1.317753	0.420124
C84	C	0.415546	1.651087	0.753457
C85	C	-0.282822	0.910033	0.080228
C86	C	0.050511	1.243366	0.413561
C87	C	0.383845	1.576699	0.746894
C88	C	-0.232943	0.842552	0.074273
C89	C	0.100390	1.175885	0.407607
C90	C	0.433723	1.509218	0.740940
C91	C	-0.151369	0.849462	0.074885
C92	C	0.181964	1.182796	0.408218
C93	C	0.515297	1.516129	0.741552
C94	C	-0.528668	0.885618	0.078061
C95	C	-0.195335	1.218952	0.411394
C96	C	0.137999	1.552285	0.744728
C97	C	-0.610248	0.878712	0.077453
C98	C	-0.276915	1.212046	0.410786
C99	C	0.056419	1.545379	0.744119
C100	C	-0.628420	1.020582	0.089968
C101	C	-0.295087	1.353915	0.423301
C102	C	0.038247	1.687248	0.756635
C103	C	-0.546843	1.027486	0.090585
C104	C	-0.213510	1.360819	0.423919
C105	C	0.119823	1.694152	0.757252
C106	C	-0.496972	0.960005	0.084625
C107	C	-0.163639	1.293338	0.417959
C108	C	0.169695	1.626671	0.751292
C109	C	-0.366205	0.902968	0.079598
C110	C	-0.032872	1.236301	0.412931
C111	C	0.300462	1.569635	0.746265
C112	C	-0.413591	0.967070	0.085248
C113	C	-0.080258	1.300404	0.418581
C114	C	0.253076	1.633737	0.751915
C115	C	0.253061	0.938839	0.082762
C116	C	0.586394	1.272172	0.416095
C117	C	0.919727	1.605506	0.749429
C118	C	0.339879	0.946189	0.083404
C119	C	0.673213	1.279522	0.416737
C120	C	1.006546	1.612855	0.750070
C121	C	0.104871	1.078246	0.095062
C122	C	0.438205	1.411580	0.428396
C123	C	0.771538	1.744913	0.761729
C124	C	0.106703	1.165547	0.102753
C125	C	0.440037	1.498880	0.436087
C126	C	0.773370	1.832214	0.769420
N127	N	0.123502	0.922444	0.346849
N128	N	0.456835	1.255778	0.680182
N129	N	0.790168	1.589111	1.013515
N130	N	0.096700	0.947603	-0.181977
N131	N	0.430033	1.280936	0.151356
N132	N	0.763366	1.614270	0.484690
C133	C	0.134029	0.912573	0.555020
C134	C	0.467363	1.245906	0.888353
C135	C	0.800696	1.579239	1.221687
C136	C	0.086175	0.957472	0.609858
C137	C	0.419508	1.290806	0.943191
C138	C	0.752841	1.624139	1.276525
C139	C	0.092032	0.951980	0.725692
C140	C	0.425366	1.285313	1.059025
C141	C	0.758699	1.618646	1.392358
C142	C	0.128173	0.918064	0.439176
C143	C	0.461506	1.251398	0.772509
C144	C	0.794839	1.584731	1.105842
H145	H	0.098359	0.181173	-0.064422
H146	H	0.431692	0.514506	0.268912
H147	H	0.765025	0.847840	0.602245
H148	H	0.104838	0.704883	-0.106410
H149	H	0.438171	1.038216	0.226924
H150	H	0.771505	1.371549	0.560257
H151	H	-0.291724	1.039367	0.091639
H152	H	0.041609	1.372700	0.424972
H153	H	0.374943	1.706033	0.758305
H154	H	0.115375	0.165163	0.271279
H155	H	0.448708	0.498496	0.604613
H156	H	0.782041	0.831830	0.937946
H157	H	0.101478	0.329976	-0.051273
H158	H	0.434811	0.663309	0.282060
H159	H	0.768144	0.996643	0.615393
H160	H	-0.143740	1.051903	0.092760
H161	H	0.189593	1.385237	0.426093
H162	H	0.522927	1.718570	0.759426
H163	H	0.101702	0.556069	-0.119559
H164	H	0.435036	0.889403	0.213774
H165	H	0.768369	1.222736	0.547107
H166	H	0.116441	0.443255	0.202931
H167	H	0.449774	0.776588	0.536265
H168	H	0.783108	1.109922	0.869598
H169	H	0.040806	1.000038	0.569812
H170	H	0.374139	1.333371	0.903145
H171	H	0.707473	1.666705	1.236479
H172	H	0.118700	0.540071	0.216144
H173	H	0.452034	0.873404	0.549477
H174	H	0.785367	1.206737	0.882810
H175	H	0.121860	0.688872	0.229289
H176	H	0.455193	1.022205	0.562622
H177	H	0.788526	1.355538	0.895955
H178	H	-0.392025	0.842401	0.074257
H179	H	-0.058692	1.175735	0.407590
H180	H	0.274641	1.509068	0.740924
H181	H	-0.110763	0.794516	0.070039
H182	H	0.222570	1.127849	0.403372
H183	H	0.555903	1.461182	0.736706
H184	H	-0.521039	1.088059	0.095929
H185	H	-0.187705	1.421393	0.429263
H186	H	0.145628	1.754726	0.762596
H187	H	0.118496	0.313980	0.284420
H188	H	0.451830	0.647313	0.617754
H189	H	0.785163	0.980646	0.951087
H190	H	0.179396	0.870011	0.595061
H191	H	0.512729	1.203344	0.928394
H192	H	0.846063	1.536677	1.261728
H193	H	0.103753	0.426796	-0.038063
H194	H	0.437086	0.760130	0.295271
H195	H	0.770419	1.093463	0.628604
H196	H	-0.669034	1.075521	0.094818
H197	H	-0.335700	1.408854	0.428151
H198	H	-0.002367	1.742187	0.761485
H199	H	-0.636055	0.818134	0.072125
H200	H	-0.302721	1.151467	0.405458
H201	H	0.030612	1.484800	0.738791
H202	H	-0.258761	0.781984	0.068923
H203	H	0.074572	1.115317	0.402257
H204	H	0.407906	1.448651	0.735590
H205	H	-0.488072	0.830670	0.073208
H206	H	-0.154739	1.164003	0.406542
H207	H	0.178595	1.497337	0.739875
H208	H	-0.387777	1.027637	0.090569
H209	H	-0.054444	1.360971	0.423902
H210	H	0.278889	1.694304	0.757235
