data_functionalizedCrystal
_audit_creation_method	'MofGen! by Chris Wilmer'
_symmetry_space_group_name_H-M	'P1'
_symmetry_Int_Tables_number	1
_symmetry_cell_setting	triclinic
loop_
_symmetry_equiv_pos_as_xyz
  x,y,z
_cell_length_a	10.967904
_cell_length_b	17.038272
_cell_length_c	9.482900
_cell_angle_alpha	100.012096
_cell_angle_beta	111.293435
_cell_angle_gamma	92.163609
loop_
_atom_site_label
_atom_site_type_symbol
_atom_site_fract_x
_atom_site_fract_y
_atom_site_fract_z
O1	O	-1.751438	0.053464	-0.559703
O2	O	-1.251438	0.553464	-0.059703
O3	O	-1.375088	0.073445	-0.465416
O4	O	-0.875088	0.573445	0.034584
O5	O	-1.561025	-0.050315	-0.511987
O6	O	-1.061025	0.449685	-0.011987
O7	O	-1.565502	0.177224	-0.513132
O8	O	-1.065502	0.677224	-0.013132
O9	O	-1.523268	-0.025079	-0.260738
O10	O	-1.023268	0.474921	0.239262
O11	O	-1.337331	0.098681	-0.214166
O12	O	-0.837331	0.598681	0.285834
O13	O	-1.713681	0.078700	-0.308454
O14	O	-1.213681	0.578700	0.191546
Cu15	Cu	-1.522059	0.090995	-0.238369
Cu16	Cu	-1.022059	0.590995	0.261631
Cu17	Cu	-1.566711	0.061150	-0.535501
Cu18	Cu	-1.066711	0.561150	-0.035501
O19	O	-1.527745	0.202460	-0.261882
O20	O	-1.027745	0.702460	0.238118
C21	C	-1.307818	0.086518	-0.327667
C22	C	-0.807818	0.586518	0.172333
C23	C	-1.163623	0.087863	-0.291541
C24	C	-0.663623	0.587863	0.208459
C25	C	-1.118896	0.075389	-0.405590
C26	C	-0.618896	0.575389	0.094410
C27	C	-0.969864	0.076779	-0.368255
C28	C	-0.469864	0.576779	0.131745
C29	C	-1.538078	-0.066745	-0.385343
C30	C	-1.038078	0.433255	0.114657
C31	C	-1.525938	-0.153296	-0.382302
C32	C	-1.025938	0.346704	0.117698
C33	C	-1.637390	-0.205625	-0.410223
C34	C	-1.137390	0.294375	0.089777
C35	C	-1.625978	-0.286950	-0.407378
C36	C	-1.125978	0.213050	0.092622
C37	C	-1.503112	-0.315944	-0.376601
C38	C	-1.003112	0.184056	0.123399
C39	C	-1.391654	-0.263610	-0.348683
C40	C	-0.891654	0.236390	0.151317
C41	C	-1.403068	-0.182287	-0.351539
C42	C	-0.903068	0.317713	0.148461
C43	C	-1.462789	-0.560903	-0.366518
C44	C	-0.962789	-0.060903	0.133482
C45	C	-1.451382	-0.642232	-0.363660
C46	C	-0.951382	-0.142232	0.136340
C47	C	-1.685708	-0.665566	-0.422358
C48	C	-1.185708	-0.165566	0.077642
C49	C	-1.697110	-0.584240	-0.425202
C50	C	-1.197110	-0.084240	0.074798
C51	C	-1.585653	-0.531914	-0.397292
C52	C	-1.085653	-0.031914	0.102708
C53	C	-1.491444	-0.399071	-0.373687
C54	C	-0.991444	0.100929	0.126313
C55	C	-1.597323	-0.448790	-0.400217
C56	C	-1.097323	0.051210	0.099783
C57	C	-0.780951	0.065633	-0.446200
C58	C	-0.280951	0.565633	0.053800
C59	C	-0.925143	0.064304	-0.482320
C60	C	-0.425143	0.564304	0.017680
C61	C	-1.550693	0.218889	-0.388530
C62	C	-1.050693	0.718889	0.111470
C63	C	-1.562833	0.305440	-0.391580
C64	C	-1.062833	0.805440	0.108420
N65	N	-1.490662	0.111985	-0.029385
N66	N	-0.990662	0.611985	0.470615
N67	N	-1.598117	0.040153	-0.744487
N68	N	-1.098117	0.540153	-0.244487
C69	C	-1.557441	0.067337	0.026088
C70	C	-1.057441	0.567337	0.526088
C71	C	-1.531329	0.084808	0.200046
C72	C	-1.031329	0.584808	0.700046
H73	H	-1.091582	0.099575	-0.166260
H74	H	-0.591582	0.599575	0.333740
O75	O	-0.874618	0.092380	-0.202208
O76	O	-0.374618	0.592380	0.297792
H77	H	-0.885197	0.152118	-0.141812
H78	H	-0.385197	0.652118	0.358188
H79	H	-1.776450	-0.708179	-0.445084
H80	H	-1.276450	-0.208179	0.054916
H81	H	-1.372031	-0.518308	-0.343791
H82	H	-0.872031	-0.018308	0.156209
H83	H	-1.454815	0.135967	0.281335
H84	H	-0.954815	0.635967	0.781335
O85	O	-1.020546	0.048787	-0.648288
O86	O	-0.520546	0.548787	-0.148288
H87	H	-1.122632	0.050121	-0.651573
H88	H	-0.622632	0.550121	-0.151573
O89	O	-1.318860	-0.673511	-0.330480
O90	O	-0.818860	-0.173511	0.169520
H91	H	-1.243275	-0.623465	-0.311569
H92	H	-0.743275	-0.123465	0.188431
H93	H	-1.697365	-0.425183	-0.425309
H94	H	-1.197365	0.074817	0.074691
H95	H	-1.391406	-0.422687	-0.348625
H96	H	-0.891406	0.077313	0.151375
H97	H	-1.633940	0.016176	-0.055200
H98	H	-1.133940	0.516176	0.444800
H99	H	-1.291615	-0.287224	-0.323633
H100	H	-0.791615	0.212776	0.176367
H101	H	-1.414154	0.163141	0.051908
H102	H	-0.914154	0.663141	0.551908
H103	H	-1.674620	-0.011011	0.174227
H104	H	-1.174620	0.488989	0.674227
H105	H	-1.737438	-0.182024	-0.435276
H106	H	-1.237438	0.317976	0.064724
O107	O	-1.214306	0.059866	-0.571548
O108	O	-0.714306	0.559866	-0.071548
H109	H	-1.316391	0.061198	-0.574830
H110	H	-0.816391	0.561198	-0.074830
H111	H	-1.716733	-0.329553	-0.430111
H112	H	-1.216733	0.170447	0.069889
H113	H	-1.797160	-0.560640	-0.450264
H114	H	-1.297160	-0.060640	0.049736
O115	O	-1.282860	-0.125840	-0.321409
O116	O	-0.782860	0.374160	0.178591
H117	H	-1.195502	-0.159660	-0.299510
H118	H	-0.695502	0.340340	0.200490
