data_functionalizedCrystal
_audit_creation_method	'MofGen! by Chris Wilmer'
_symmetry_space_group_name_H-M	'P1'
_symmetry_Int_Tables_number	1
_symmetry_cell_setting	triclinic
loop_
_symmetry_equiv_pos_as_xyz
  x,y,z
_cell_length_a	15.298709
_cell_length_b	21.295417
_cell_length_c	15.296720
_cell_angle_alpha	80.360665
_cell_angle_beta	72.673665
_cell_angle_gamma	99.724908
loop_
_atom_site_label
_atom_site_type_symbol
_atom_site_fract_x
_atom_site_fract_y
_atom_site_fract_z
Zn1	Zn	1.330596	-0.123537	0.280174
Zn2	Zn	1.830596	0.376463	0.780174
Zn3	Zn	1.357401	-0.206796	0.124684
Zn4	Zn	1.857401	0.293204	0.624684
Zn5	Zn	1.202012	-0.123579	0.151553
Zn6	Zn	1.702012	0.376421	0.651553
Zn7	Zn	1.175037	-0.250820	0.306988
Zn8	Zn	1.675037	0.249180	0.806988
O9	O	1.266261	-0.176183	0.215850
O10	O	1.766261	0.323817	0.715850
O11	O	1.464284	-0.116140	0.237081
O12	O	1.964284	0.383860	0.737081
O13	O	1.359295	-0.177351	-0.001874
O14	O	1.859295	0.322649	0.498126
O15	O	1.219140	-0.035478	0.168638
O16	O	1.719140	0.464522	0.668638
O17	O	1.483978	-0.177310	0.122843
O18	O	1.983978	0.322690	0.622843
O19	O	1.313610	-0.035447	0.263135
O20	O	1.813610	0.464553	0.763135
O21	O	1.245131	-0.116211	0.017866
O22	O	1.745131	0.383789	0.517866
O23	O	1.068301	-0.158899	0.194639
O24	O	1.568301	0.341101	0.694639
O25	O	1.173166	-0.252342	0.433554
O26	O	1.673166	0.247658	0.933554
O27	O	1.048483	-0.252383	0.308836
O28	O	1.548483	0.247617	0.808836
O29	O	1.287454	-0.158828	0.413853
O30	O	1.787454	0.341172	0.913853
O31	O	1.333139	-0.300731	0.148844
O32	O	1.833139	0.199269	0.648844
O33	O	1.199157	-0.333075	0.282782
O34	O	1.699157	0.166925	0.782782
C35	C	1.024650	-0.210423	0.257564
C36	C	1.524650	0.289577	0.757564
C37	C	0.921284	-0.225090	0.275431
C38	C	1.421284	0.274910	0.775431
C39	C	0.862448	-0.280699	0.343186
C40	C	1.362448	0.219301	0.843186
C41	C	0.765329	-0.294477	0.359982
C42	C	1.265329	0.205523	0.859982
C43	C	0.727036	-0.252650	0.309020
C44	C	1.227036	0.247350	0.809020
C45	C	0.785873	-0.197041	0.241259
C46	C	1.285873	0.302959	0.741259
C47	C	0.883001	-0.183259	0.224466
C48	C	1.383001	0.316741	0.724466
C49	C	0.747589	-0.155210	0.190301
C50	C	1.247589	0.344790	0.690301
C51	C	0.806426	-0.099602	0.122540
C52	C	1.306426	0.400398	0.622540
C53	C	0.903544	-0.085822	0.105750
C54	C	1.403544	0.414178	0.605750
C55	C	0.941837	-0.127650	0.156712
C56	C	1.441837	0.372350	0.656712
C57	C	0.650461	-0.168992	0.207093
C58	C	1.150461	0.331008	0.707093
C59	C	0.671014	-0.071552	0.088374
C60	C	1.171014	0.428448	0.588374
C61	C	0.768133	-0.057774	0.071578
C62	C	1.268133	0.442226	0.571578
C63	C	1.266151	-0.339745	0.215823
C64	C	1.766151	0.160255	0.715823
C65	C	1.266184	-0.409710	0.215828
C66	C	1.766184	0.090290	0.715828
C67	C	1.315333	-0.442514	0.265081
C68	C	1.815333	0.057486	0.765081
C69	C	1.315362	-0.508255	0.265098
C70	C	1.815362	-0.008255	0.765098
C71	C	1.266254	-0.541185	0.215845
C72	C	1.766254	-0.041185	0.715845
C73	C	1.217094	-0.508374	0.166590
C74	C	1.717094	-0.008374	0.666590
C75	C	1.217059	-0.442636	0.166581
C76	C	1.717059	0.057364	0.666581
N77	N	1.273324	-0.633915	0.135676
N78	N	1.773324	-0.133915	0.635676
N79	N	1.273363	-0.696363	0.135685
N80	N	1.773363	-0.196363	0.635685
C81	C	1.266355	-0.739251	0.215868
C82	C	1.766355	-0.239251	0.715868
N83	N	1.259326	-0.717329	0.296039
N84	N	1.759326	-0.217329	0.796039
N85	N	1.259292	-0.654875	0.296028
N86	N	1.759292	-0.154875	0.796028
C87	C	1.266286	-0.612467	0.215848
C88	C	1.766286	-0.112467	0.715848
C89	C	1.315538	-0.843339	0.265144
C90	C	1.815538	-0.343339	0.765144
C91	C	1.315560	-0.909083	0.265164
C92	C	1.815560	-0.409083	0.765164
C93	C	1.217299	-0.909199	0.166646
C94	C	1.717299	-0.409199	0.666646
C95	C	1.217270	-0.843459	0.166635
C96	C	1.717270	-0.343459	0.666635
C97	C	1.266395	-0.810532	0.215882
C98	C	1.766395	-0.310532	0.715882
C99	C	1.508816	-0.141810	0.173974
C100	C	2.008816	0.358190	0.673974
C101	C	1.612179	-0.127162	0.156129
C102	C	2.112179	0.372838	0.656129
C103	C	1.224311	-0.210491	0.458386
C104	C	1.724311	0.289509	0.958386
C105	C	1.206434	-0.225111	0.561741
C106	C	1.706434	0.274889	1.061741
C107	C	1.266394	-0.011982	0.215893
C108	C	1.766394	0.488018	0.715893
C109	C	1.266451	0.057991	0.215911
C110	C	1.766451	0.557991	0.715911
C111	C	1.308102	-0.141955	-0.025752
C112	C	1.808102	0.358045	0.474248
C113	C	1.326159	-0.127132	-0.129138
C114	C	1.826159	0.372868	0.370862
C115	C	1.394065	-0.071575	0.812051
C116	C	1.894065	0.428425	1.312051
C117	C	1.410867	-0.057839	0.714944
C118	C	1.910867	0.442161	1.214944
C119	C	1.359760	-0.099656	0.676638
C120	C	1.859760	0.400344	1.176638
C121	C	1.291848	-0.155211	0.735450
C122	C	1.791848	0.344789	1.235450
C123	C	1.275050	-0.168952	0.832567
C124	C	1.775050	0.331048	1.332567
C125	C	1.240745	-0.197032	0.697153
C126	C	1.740745	0.302968	1.197153
C127	C	1.172833	-0.252588	0.755965
C128	C	1.672833	0.247412	1.255965
C129	C	1.156037	-0.266325	0.853072
C130	C	1.656037	0.233675	1.353072
C131	C	1.207144	-0.224509	0.891378
C132	C	1.707144	0.275491	1.391378
C133	C	1.257543	-0.183292	0.600037
C134	C	1.757543	0.316708	1.100037
C135	C	1.138528	-0.280668	0.620552
C136	C	1.638528	0.219332	1.120552
C137	C	1.121726	-0.294405	0.717660
C138	C	1.621726	0.205595	1.217660
H139	H	0.639837	-0.037491	0.046879
H140	H	1.139837	0.462509	0.546879
H141	H	1.177035	-0.415926	0.126473
H142	H	1.677035	0.084074	0.626473
H143	H	1.355330	-0.415708	0.305183
H144	H	1.855330	0.084292	0.805183
H145	H	1.435674	-0.037537	0.843249
H146	H	1.935674	0.462463	1.343249
H147	H	1.100747	-0.311566	0.900954
H148	H	1.600747	0.188434	1.400954
H149	H	1.355375	-0.534972	0.305218
H150	H	1.855375	-0.034972	0.805218
N151	N	1.326893	-0.126543	0.539958
N152	N	1.826893	0.373457	1.039958
N153	N	1.341883	-0.114277	0.453254
N154	N	1.841883	0.385723	0.953254
H155	H	1.390863	-0.074194	0.410822
H156	H	1.890863	0.425806	0.910822
N157	N	0.901576	-0.323406	0.395239
N158	N	1.401576	0.176594	0.895239
N159	N	0.988293	-0.311088	0.380241
N160	N	1.488293	0.188912	0.880241
H161	H	1.015928	-0.341251	0.417010
H162	H	1.515928	0.158749	0.917010
H163	H	0.951446	-0.040540	0.050580
H164	H	1.451446	0.459460	0.550580
H165	H	1.466163	-0.012607	0.667065
H166	H	1.966163	0.487393	1.167065
N167	N	1.365719	-0.809711	0.315451
N168	N	1.865719	-0.309711	0.815451
N169	N	1.409594	-0.839013	0.359432
N170	N	1.909594	-0.339013	0.859432
H171	H	1.445036	-0.815265	0.394961
H172	H	1.945036	-0.315265	0.894961
N173	N	1.041036	-0.113592	0.139606
N174	N	1.541036	0.386408	0.639606
N175	N	1.071822	-0.104642	0.204706
N176	N	1.571822	0.395358	0.704706
H177	H	1.141880	-0.094719	0.192640
H178	H	1.641880	0.405281	0.692640
H179	H	0.816052	-0.012497	0.016407
H180	H	1.316052	0.487503	0.516407
N181	N	1.189984	-0.238526	0.990573
N182	N	1.689984	0.261474	1.490573
N183	N	1.235614	-0.201179	1.024758
N184	N	1.735614	0.298821	1.524758
H185	H	1.223495	-0.211075	1.094816
H186	H	1.723495	0.288925	1.594816
N187	N	0.705215	-0.351272	0.429185
N188	N	1.205215	0.148728	0.929185
N189	N	0.640784	-0.345266	0.497862
N190	N	1.140784	0.154734	0.997862
H191	H	0.598324	-0.385381	0.546739
H192	H	1.098324	0.114619	1.046739
N193	N	1.052359	-0.351147	0.777753
N194	N	1.552359	0.148853	1.277753
N195	N	1.037371	-0.363402	0.864457
N196	N	1.537371	0.136598	1.364457
H197	H	0.988379	-0.403476	0.906900
H198	H	1.488379	0.096524	1.406900
N199	N	1.376934	-0.085618	0.577444
N200	N	1.876934	0.414382	1.077444
N201	N	1.437569	-0.036013	0.524944
N202	N	1.937569	0.463987	1.024944
H203	H	1.449699	-0.026095	0.454884
H204	H	1.949699	0.473905	0.954884
H205	H	1.355582	-0.935792	0.305276
H206	H	1.855582	-0.435792	0.805276
N207	N	1.166951	-0.542020	0.116272
N208	N	1.666951	-0.042020	0.616272
N209	N	1.209992	-0.565674	0.051396
N210	N	1.709992	-0.065674	0.551396
H211	H	1.174577	-0.589439	0.015859
H212	H	1.674577	-0.089439	0.515859
N213	N	1.167130	-0.942840	0.116348
N214	N	1.667130	-0.442840	0.616348
N215	N	1.167162	-1.001536	0.116366
N216	N	1.667162	-0.501536	0.616366
H217	H	1.131726	-1.025299	0.080845
H218	H	1.631726	-0.525299	0.580845
H219	H	1.177253	-0.816746	0.126524
H220	H	1.677253	-0.316746	0.626524
H221	H	1.096914	-0.314720	0.589364
H222	H	1.596914	0.185280	1.089364
H223	H	0.647957	-0.263871	0.322700
H224	H	1.147957	0.236129	0.822700
N225	N	0.590385	-0.225800	0.276296
N226	N	1.090385	0.274200	0.776296
N227	N	0.602302	-0.281447	0.268095
N228	N	1.102302	0.218553	0.768095
H229	H	0.559875	-0.321572	0.316972
H230	H	1.059875	0.178428	0.816972
