data_functionalizedCrystal
_audit_creation_method	'MofGen! by Chris Wilmer'
_symmetry_space_group_name_H-M	'P1'
_symmetry_Int_Tables_number	1
_symmetry_cell_setting	triclinic
loop_
_symmetry_equiv_pos_as_xyz
  x,y,z
_cell_length_a	14.908783
_cell_length_b	12.645329
_cell_length_c	14.908854
_cell_angle_alpha	86.674305
_cell_angle_beta	90.167510
_cell_angle_gamma	93.309020
loop_
_atom_site_label
_atom_site_type_symbol
_atom_site_fract_x
_atom_site_fract_y
_atom_site_fract_z
Zn1	Zn	1.345344	-0.291052	-0.587856
Zn2	Zn	1.353926	-0.477959	-0.437500
Zn3	Zn	1.203653	-0.311474	-0.428824
Zn4	Zn	1.194957	-0.479050	-0.579125
O5	O	1.274470	-0.389884	-0.508326
O6	O	1.472310	-0.306843	-0.575196
O7	O	1.341223	-0.463964	-0.310523
O8	O	1.222497	-0.160413	-0.449943
O9	O	1.478616	-0.444162	-0.464730
O10	O	1.326597	-0.145409	-0.566784
O11	O	1.230818	-0.341649	-0.304149
O12	O	1.076672	-0.342707	-0.441477
O13	O	1.207675	-0.446022	-0.706110
O14	O	1.070282	-0.465824	-0.551903
O15	O	1.318164	-0.307901	-0.712524
O16	O	1.332791	-0.626456	-0.456264
O17	O	1.215996	-0.627257	-0.560315
C18	C	1.040851	-0.406601	-0.494802
C19	C	0.940907	-0.413776	-0.489037
C20	C	1.274404	-0.665320	-0.508304
C21	C	1.274457	-0.783144	-0.508330
C22	C	0.746523	-0.284444	-0.593409
C23	C	0.652617	-0.291182	-0.587996
C24	C	0.659185	-0.433985	-0.472793
C25	C	0.753092	-0.427247	-0.478206
C26	C	0.796758	-0.352475	-0.538517
C27	C	0.890666	-0.345742	-0.543935
C28	C	0.897233	-0.488540	-0.428728
C29	C	0.803326	-0.495278	-0.423315
C30	C	1.200951	-0.828580	-0.573746
C31	C	1.201222	-0.951100	-0.574064
C32	C	1.367916	-0.942478	-0.539351
C33	C	1.367403	-0.819885	-0.539798
C34	C	1.255513	-0.836263	-0.411836
C35	C	1.253475	-0.958981	-0.412256
C36	C	1.509001	-0.373103	-0.521904
C37	C	1.608944	-0.365951	-0.527691
C38	C	1.260992	-0.374805	-0.742854
C39	C	1.255249	-0.368379	-0.842796
C40	C	1.274559	-0.113370	-0.508370
C41	C	1.274597	0.004464	-0.508388
C42	C	1.359442	-0.483667	-1.037238
C43	C	1.354048	-0.477633	-1.131142
C44	C	1.239073	-0.350271	-1.124512
C45	C	1.244467	-0.356306	-1.030607
C46	C	1.304652	-0.423007	-0.986974
C47	C	1.310040	-0.429047	-0.893067
C48	C	1.195071	-0.301680	-0.886439
C49	C	1.189677	-0.295645	-0.980343
C50	C	1.287947	-0.404824	-0.274714
C51	C	1.293865	-0.410938	-0.174783
H52	H	0.926217	-0.284860	-0.593044
H53	H	0.938143	-0.543944	-0.384038
Cl54	Cl	0.801420	-0.190457	-0.669234
H55	H	1.131861	-0.987340	-0.554074
H56	H	1.423981	-0.970904	-0.493425
H57	H	1.408451	-0.537973	-1.001711
H58	H	0.767761	-0.556152	-0.374209
Cl59	Cl	1.126159	-0.225453	-0.823242
H60	H	1.131318	-0.805267	-0.553916
Cl61	Cl	1.422931	-0.553893	-1.194329
Cl62	Cl	1.114022	-0.211795	-1.035205
H63	H	1.213416	-0.974685	-0.645464
H64	H	0.611719	-0.235782	-0.632692
H65	H	0.623617	-0.494850	-0.423681
H66	H	1.359051	-0.483353	-0.857543
H67	H	1.309112	-0.806898	-0.363031
Cl68	Cl	1.163428	-0.266414	-1.179381
Cl69	Cl	1.152618	-0.798505	-0.369867
Cl70	Cl	1.219405	-0.772235	-0.683332
Cl71	Cl	1.393138	-0.766462	-0.648942
Cl72	Cl	1.454402	-0.772865	-0.469869
H73	H	1.385027	-0.967198	-0.609318
H74	H	1.184825	-0.994397	-0.389000
H75	H	1.303560	-0.989713	-0.360498
