data_functionalizedCrystal
_audit_creation_method	'MofGen! by Chris Wilmer'
_symmetry_space_group_name_H-M	'P1'
_symmetry_Int_Tables_number	1
_symmetry_cell_setting	triclinic
loop_
_symmetry_equiv_pos_as_xyz
  x,y,z
_cell_length_a	27.732048
_cell_length_b	15.944551
_cell_length_c	15.021413
_cell_angle_alpha	90.002826
_cell_angle_beta	89.999048
_cell_angle_gamma	96.929303
loop_
_atom_site_label
_atom_site_type_symbol
_atom_site_fract_x
_atom_site_fract_y
_atom_site_fract_z
O1	O	0.062334	-1.113714	-0.073949
O2	O	0.562334	-0.613714	0.426051
O3	O	0.070020	-0.869064	-0.073973
O4	O	0.570020	-0.369064	0.426027
O5	O	-0.004187	-0.998987	-0.073943
O6	O	0.495813	-0.498987	0.426057
O7	O	0.136541	-0.983790	-0.073979
O8	O	0.636541	-0.483790	0.426021
O9	O	-0.004176	-0.998966	0.074121
O10	O	0.495824	-0.498966	0.574121
O11	O	0.070030	-0.869043	0.074092
O12	O	0.570030	-0.369043	0.574092
O13	O	0.062345	-1.113693	0.074115
O14	O	0.562345	-0.613693	0.574115
Zn15	Zn	0.066189	-0.991365	0.097612
Zn16	Zn	0.566189	-0.491365	0.597612
Zn17	Zn	0.066175	-0.991392	-0.097469
Zn18	Zn	0.566175	-0.491392	0.402531
O19	O	0.136551	-0.983770	0.074086
O20	O	0.636551	-0.483770	0.574086
C21	C	0.069706	-0.837763	0.000057
C22	C	0.569706	-0.337763	0.500057
C23	C	0.068749	-0.744530	0.000049
C24	C	0.568749	-0.244530	0.500049
C25	C	-0.022190	-0.998658	0.000091
C26	C	0.477810	-0.498658	0.500091
C27	C	-0.075849	-0.997697	0.000099
C28	C	0.424151	-0.497697	0.500099
C29	C	0.062658	-1.144993	0.000084
C30	C	0.562658	-0.644993	0.500084
C31	C	0.063615	-1.238227	0.000086
C32	C	0.563615	-0.738227	0.500086
C33	C	-0.414358	-1.068426	0.000060
C34	C	0.085642	-0.568426	0.500060
C35	C	-0.616033	-1.064862	0.000047
C36	C	-0.116033	-0.564862	0.500047
O37	O	-0.647008	-1.129539	0.000014
O38	O	-0.147008	-0.629539	0.500014
N39	N	-0.635490	-0.987823	0.000040
N40	N	-0.135490	-0.487823	0.500040
C41	C	-0.604525	-0.911669	0.000031
C42	C	-0.104525	-0.411669	0.500031
O43	O	-0.625703	-0.846061	0.000016
O44	O	-0.125703	-0.346061	0.500016
C45	C	-0.402851	-0.915234	0.000038
C46	C	0.097149	-0.415234	0.500038
C47	C	-0.383397	-0.992278	0.000053
C48	C	0.116603	-0.492278	0.500053
C49	C	-0.394903	-1.145464	0.000074
C50	C	0.105097	-0.645464	0.500074
C51	C	-0.344487	-1.146354	0.000082
C52	C	0.155513	-0.646354	0.500082
C53	C	-0.313526	-1.070206	0.000076
C54	C	0.186474	-0.570206	0.500076
C55	C	-0.332981	-0.993168	0.000061
C56	C	0.167019	-0.493168	0.500061
C57	C	-0.371887	-0.839081	0.000022
C58	C	0.128113	-0.339081	0.500022
C59	C	-0.321466	-0.839979	0.000021
C60	C	0.178534	-0.339979	0.500021
C61	C	-0.302012	-0.917024	0.000037
C62	C	0.197988	-0.417024	0.500037
C63	C	-0.251604	-0.917911	0.000063
C64	C	0.248396	-0.417911	0.500063
N65	N	-0.232147	-0.994950	0.000069
N66	N	0.267853	-0.494950	0.500069
C67	C	-0.263108	-1.071098	0.000076
C68	C	0.236892	-0.571098	0.500076
C69	C	-0.710408	-0.909803	0.000030
C70	C	-0.210408	-0.409803	0.500030
C71	C	-0.760826	-0.908912	0.000030
C72	C	-0.260826	-0.408912	0.500030
C73	C	-0.772330	-1.062105	0.000044
C74	C	-0.272330	-0.562105	0.500044
C75	C	-0.721911	-1.062995	0.000050
C76	C	-0.221911	-0.562995	0.500050
C77	C	-0.690950	-0.986842	0.000036
C78	C	-0.190950	-0.486842	0.500036
C79	C	-0.157231	-1.072961	0.000093
C80	C	0.342769	-0.572961	0.500093
C81	C	-0.106810	-1.073845	0.000105
C82	C	0.393190	-0.573845	0.500105
C83	C	-0.095310	-0.920652	0.000086
C84	C	0.404690	-0.420652	0.500086
C85	C	-0.145727	-0.919768	0.000079
C86	C	0.354273	-0.419768	0.500079
C87	C	-0.176686	-0.995930	0.000080
C88	C	0.323314	-0.495930	0.500080
O89	O	-0.220600	-0.853269	0.000085
O90	O	0.279400	-0.353269	0.500085
O91	O	-0.241921	-1.136697	0.000071
O92	O	0.258079	-0.636697	0.500071
C93	C	-0.464774	-1.067536	0.000052
C94	C	0.035226	-0.567536	0.500052
C95	C	-0.484228	-0.990498	0.000037
C96	C	0.015772	-0.490498	0.500037
C97	C	-0.453268	-0.914350	0.000031
C98	C	0.046732	-0.414350	0.500031
C99	C	-0.534647	-0.989607	0.000037
C100	C	-0.034647	-0.489607	0.500037
C101	C	-0.565608	-1.065754	0.000044
C102	C	-0.065608	-0.565754	0.500044
C103	C	-0.546150	-1.142794	0.000050
C104	C	-0.046150	-0.642794	0.500050
C105	C	-0.495734	-1.143684	0.000058
C106	C	0.004266	-0.643684	0.500058
C107	C	-0.472725	-0.837311	0.000024
C108	C	0.027275	-0.337311	0.500024
C109	C	-0.523141	-0.836427	0.000017
C110	C	-0.023141	-0.336427	0.500017
C111	C	-0.554102	-0.912575	0.000023
C112	C	-0.054102	-0.412575	0.500023
C113	C	0.154554	-0.984099	0.000049
C114	C	0.654554	-0.484099	0.500049
C115	C	0.208213	-0.985059	0.000036
C116	C	0.708213	-0.485059	0.500036
N117	N	0.066198	-0.991352	0.230749
N118	N	0.566198	-0.491352	0.730749
C119	C	0.020466	-0.530305	0.000078
C120	C	0.520466	-0.030305	0.500078
C121	C	0.042882	-0.469001	-0.072931
C122	C	0.542882	0.030999	0.427069
C123	C	0.067019	-0.573827	0.000060
C124	C	0.567019	-0.073827	0.500060
C125	C	0.042904	-0.469003	0.073049
C126	C	0.542904	0.030997	0.573049
C127	C	0.065344	-0.408936	0.000074
C128	C	0.565344	0.091064	0.500074
C129	C	0.089448	-0.513752	-0.073010
C130	C	0.589448	-0.013752	0.426990
C131	C	0.089463	-0.513760	0.073036
C132	C	0.589463	-0.013760	0.573036
C133	C	0.111912	-0.452474	0.000009
C134	C	0.611912	0.047526	0.500009
C135	C	0.067983	-0.668816	0.000051
C136	C	0.567983	-0.168816	0.500051
C137	C	0.064384	-0.313947	0.000077
C138	C	0.564384	0.186053	0.500077
N139	N	0.066162	-0.991411	-0.230607
N140	N	0.566162	-0.491411	0.269393
C141	C	0.100495	-0.931267	0.470419
C142	C	0.600495	-0.431267	0.970419
C143	C	0.109879	-1.007044	0.529758
C144	C	0.609879	-0.507044	1.029758
C145	C	0.066186	-0.991374	0.412356
C146	C	0.566186	-0.491374	0.912356
C147	C	0.056813	-0.915617	0.529759
C148	C	0.556813	-0.415617	1.029759
C149	C	0.066176	-0.991388	0.587780
C150	C	0.566176	-0.491388	1.087780
C151	C	0.075592	-1.067190	0.470389
C152	C	0.575592	-0.567190	0.970389
C153	C	0.022507	-0.975712	0.470385
C154	C	0.522507	-0.475712	0.970385
C155	C	0.031872	-1.051545	0.529697
C156	C	0.531872	-0.551545	1.029697
C157	C	0.066194	-0.991365	0.311299
C158	C	0.566194	-0.491365	0.811299
C159	C	0.066168	-0.991406	0.688836
C160	C	0.566168	-0.491406	1.188836
H161	H	-0.182432	-1.134979	0.000090
H162	H	0.317568	-0.634979	0.500090
H163	H	-0.018169	-0.564143	-0.000003
H164	H	0.481831	-0.064143	0.499997
O165	O	0.113009	-0.537491	0.146567
O166	O	0.613009	-0.037491	0.646567
C167	C	0.153813	-0.576343	0.120388
C168	C	0.653813	-0.076343	0.620388
H169	H	0.165373	-0.554456	0.050505
H170	H	0.665373	-0.054456	0.550505
H171	H	0.184957	-0.558100	0.168836
H172	H	0.684957	-0.058100	0.668836
H173	H	0.144103	-0.647887	0.120654
H174	H	0.644103	-0.147887	0.620654
H175	H	-0.447521	-0.775301	0.000017
H176	H	0.052479	-0.275301	0.500017
H177	H	0.023188	-0.449157	-0.134645
H178	H	0.523188	0.050843	0.365355
H179	H	-0.538976	-0.773684	0.000012
H180	H	-0.038976	-0.273684	0.500012
O181	O	-0.065161	-0.846762	0.000039
O182	O	0.434839	-0.346762	0.500039
C183	C	-0.016491	-0.864079	0.000067
C184	C	0.483509	-0.364079	0.500067
H185	H	-0.014554	-0.930036	-0.027950
H186	H	0.485446	-0.430036	0.472050
H187	H	0.006349	-0.815515	-0.042929
H188	H	0.506349	-0.315515	0.457071
H189	H	-0.001911	-0.860687	0.071101
H190	H	0.498089	-0.360687	0.571101
O191	O	-0.002801	-1.112143	0.560601
O192	O	0.497199	-0.612143	1.060601
C193	C	-0.036669	-1.074183	0.612267
C194	C	0.463331	-0.574183	1.112267
H195	H	-0.035878	-1.005077	0.592209
H196	H	0.464122	-0.505077	1.092209
H197	H	-0.074621	-1.108568	0.600634
H198	H	0.425379	-0.608568	1.100634
H199	H	-0.026896	-1.078209	0.685734
H200	H	0.473104	-0.578209	1.185734
H201	H	0.109118	-0.533491	-0.134801
H202	H	0.609118	-0.033491	0.365199
O203	O	-0.425024	-1.219385	0.000200
O204	O	0.074976	-0.719385	0.500200
C205	C	-0.454522	-1.223458	0.076898
C206	C	0.045478	-0.723458	0.576898
H207	H	-0.457087	-1.156819	0.102452
H208	H	0.042913	-0.656819	0.602452
H209	H	-0.492409	-1.255265	0.059659
H210	H	0.007591	-0.755265	0.559659
H211	H	-0.437924	-1.261582	0.130600
H212	H	0.062076	-0.761582	0.630600
H213	H	0.150587	-0.418809	-0.000042
H214	H	0.650587	0.081191	0.499958
H215	H	-0.014416	-0.962429	0.444285
H216	H	0.485584	-0.462429	0.944285
O217	O	0.019347	-0.445450	0.146658
O218	O	0.519347	0.054550	0.646658
C219	C	-0.028850	-0.485473	0.146376
C220	C	0.471150	0.014527	0.646376
H221	H	-0.031170	-0.544909	0.103641
H222	H	0.468830	-0.044909	0.603641
H223	H	-0.040433	-0.503322	0.217376
H224	H	0.459567	-0.003322	0.717376
H225	H	-0.053920	-0.440553	0.117884
H226	H	0.446080	0.059447	0.617884
O227	O	0.135198	-0.870777	0.439399
O228	O	0.635198	-0.370777	0.939399
C229	C	0.181184	-0.887613	0.469672
C230	C	0.681184	-0.387613	0.969672
H231	H	0.179823	-0.957616	0.486312
H232	H	0.679823	-0.457616	0.986312
H233	H	0.209380	-0.870399	0.415399
H234	H	0.709380	-0.370399	0.915399
H235	H	0.191537	-0.848441	0.531783
H236	H	0.691537	-0.348441	1.031783
H237	H	0.146814	-1.020304	0.555837
H238	H	0.646814	-0.520304	1.055837
O239	O	0.085146	-1.143565	0.439266
O240	O	0.585146	-0.643565	0.939266
C241	C	0.085061	-1.142621	0.345410
C242	C	0.585061	-0.642621	0.845410
H243	H	0.092625	-1.074654	0.320863
H244	H	0.592625	-0.574654	0.820863
H245	H	0.114413	-1.180602	0.319508
H246	H	0.614413	-0.680602	0.819508
H247	H	0.048079	-1.171843	0.319966
H248	H	0.548079	-0.671843	0.819966
H249	H	0.048890	-0.851544	0.555840
H250	H	0.548890	-0.351544	1.055840
H251	H	-0.328652	-1.209091	0.000091
H252	H	0.171348	-0.709091	0.500091
O253	O	-0.087993	-1.148764	0.000077
O254	O	0.412007	-0.648764	0.500077
C255	C	-0.126135	-1.215779	0.000100
C256	C	0.373865	-0.715779	0.500100
H257	H	-0.160386	-1.192689	-0.027938
H258	H	0.339614	-0.692689	0.472062
H259	H	-0.115592	-1.269614	-0.042881
H260	H	0.384408	-0.769614	0.457119
H261	H	-0.133270	-1.239227	0.071135
H262	H	0.366730	-0.739227	0.571135
H263	H	-0.706075	-1.125732	0.000062
H264	H	-0.206075	-0.625732	0.500062
O265	O	-0.576250	-1.216742	-0.000104
O266	O	-0.076250	-0.716742	0.499896
C267	C	-0.605763	-1.220798	-0.076781
C268	C	-0.105763	-0.720798	0.423219
H269	H	-0.587297	-1.177610	-0.130377
H270	H	-0.087297	-0.677610	0.369623
H271	H	-0.611428	-1.288534	-0.102519
H272	H	-0.111428	-0.788534	0.397481
H273	H	-0.642426	-1.199533	-0.059451
H274	H	-0.142426	-0.699533	0.440549
H275	H	-0.776661	-0.846175	0.000032
H276	H	-0.276661	-0.346175	0.500032
O277	O	-0.802479	-1.135999	0.000003
O278	O	-0.302479	-0.635999	0.500003
C279	C	-0.851149	-1.118682	0.000020
C280	C	-0.351149	-0.618682	0.500020
H281	H	-0.853083	-1.052730	-0.028005
H282	H	-0.353083	-0.552730	0.471995
H283	H	-0.873987	-1.167253	-0.042974
H284	H	-0.373987	-0.667253	0.457026
H285	H	-0.865733	-1.122059	0.071052
H286	H	-0.365733	-0.622059	0.571052
H287	H	-0.685203	-0.847786	0.000018
H288	H	-0.185203	-0.347786	0.500018
O289	O	-0.390697	-0.764165	-0.000037
O290	O	0.109303	-0.264165	0.499963
C291	C	-0.352550	-0.697158	-0.000026
C292	C	0.147450	-0.197158	0.499974
H293	H	-0.318299	-0.720269	-0.028047
H294	H	0.181701	-0.220269	0.471953
H295	H	-0.363085	-0.643336	-0.043028
H296	H	0.136915	-0.143336	0.456972
H297	H	-0.345418	-0.673685	0.071003
H298	H	0.154582	-0.173685	0.571003
O299	O	-0.164606	-0.844910	-0.000089
O300	O	0.335394	-0.344910	0.499911
C301	C	-0.148769	-0.798536	-0.076765
C302	C	0.351231	-0.298536	0.423235
H303	H	-0.138269	-0.843608	-0.130350
H304	H	0.361731	-0.343608	0.369650
H305	H	-0.179314	-0.763213	-0.102523
H306	H	0.320686	-0.263213	0.397477
H307	H	-0.115918	-0.751290	-0.059425
H308	H	0.384082	-0.251290	0.440575
H309	H	-0.296260	-0.777965	0.000009
H310	H	0.203740	-0.277965	0.500009
O311	O	-0.476920	-1.218599	0.000028
O312	O	0.023080	-0.718599	0.500028
C313	C	-0.515067	-1.285608	0.000053
C314	C	-0.015067	-0.785608	0.500053
H315	H	-0.549316	-1.262511	-0.027982
H316	H	-0.049316	-0.762511	0.472018
H317	H	-0.504528	-1.339445	-0.042929
H318	H	-0.004528	-0.839445	0.457071
H319	H	-0.522201	-1.309055	0.071089
H320	H	-0.022201	-0.809055	0.571089
