data_functionalizedCrystal
_audit_creation_method	'MofGen! by Chris Wilmer'
_symmetry_space_group_name_H-M	'P1'
_symmetry_Int_Tables_number	1
_symmetry_cell_setting	triclinic
loop_
_symmetry_equiv_pos_as_xyz
  x,y,z
_cell_length_a	21.295417
_cell_length_b	21.295418
_cell_length_c	15.296720
_cell_angle_alpha	80.364800
_cell_angle_beta	99.638166
_cell_angle_gamma	89.951286
loop_
_atom_site_label
_atom_site_type_symbol
_atom_site_fract_x
_atom_site_fract_y
_atom_site_fract_z
Zn1	Zn	-0.311963	-0.900624	-0.510555
Zn2	Zn	-0.399018	-0.918766	-0.359704
Zn3	Zn	-0.293796	-0.813590	-0.359671
Zn4	Zn	-0.417217	-0.795331	-0.510432
O5	O	-0.355499	-0.857078	-0.435090
O6	O	-0.323498	-0.991112	-0.490609
O7	O	-0.369841	-0.920048	-0.233474
O8	O	-0.208121	-0.825185	-0.379724
O9	O	-0.387457	-1.004441	-0.379780
O10	O	-0.221468	-0.889128	-0.490577
O11	O	-0.292534	-0.842776	-0.233450
O12	O	-0.310181	-0.723087	-0.379604
O13	O	-0.418474	-0.794064	-0.636673
O14	O	-0.400858	-0.709672	-0.490368
O15	O	-0.341145	-0.871422	-0.636764
O16	O	-0.489517	-0.902343	-0.379661
O17	O	-0.502888	-0.811656	-0.490400
C18	C	-0.355524	-0.693541	-0.434970
C19	C	-0.355553	-0.623576	-0.434939
C20	C	-0.402812	-0.583751	-0.492524
C21	C	-0.402803	-0.518005	-0.492558
C22	C	-0.355540	-0.492087	-0.434991
C23	C	-0.308272	-0.531920	-0.377402
C24	C	-0.308279	-0.597665	-0.377376
N25	N	-0.341099	-0.398352	-0.356087
N26	N	-0.341097	-0.335897	-0.356114
C27	C	-0.355517	-0.294004	-0.435066
N28	N	-0.369952	-0.316924	-0.513992
N29	N	-0.369957	-0.379384	-0.513964
C30	C	-0.355527	-0.420799	-0.435013
C31	C	-0.402770	-0.182888	-0.492692
C32	C	-0.402757	-0.117141	-0.492728
C33	C	-0.308228	-0.131058	-0.377563
C34	C	-0.308239	-0.196804	-0.377536
C35	C	-0.355513	-0.222715	-0.435099
C36	C	-0.519044	-0.857001	-0.435040
C37	C	-0.589013	-0.857022	-0.435049
C38	C	-0.614904	-0.904272	-0.377447
C39	C	-0.680649	-0.904299	-0.377467
C40	C	-0.720500	-0.857066	-0.435080
C41	C	-0.694602	-0.809813	-0.492694
C42	C	-0.628859	-0.809791	-0.492679
N43	N	-0.824608	-0.801173	-0.441916
N44	N	-0.887061	-0.801196	-0.441926
C45	C	-0.918580	-0.857131	-0.435132
N46	N	-0.885286	-0.913044	-0.428311
N47	N	-0.822827	-0.913021	-0.428297
C48	C	-0.791788	-0.857085	-0.435104
C49	C	-1.015759	-0.904413	-0.377548
C50	C	-1.081506	-0.904440	-0.377575
C51	C	-1.095457	-0.809950	-0.492798
C52	C	-1.029712	-0.809927	-0.492776
C53	C	-0.989866	-0.857159	-0.435146
C54	C	-0.191317	-0.857169	-0.435160
C55	C	-0.121352	-0.857208	-0.435190
C56	C	-0.383866	-0.828683	-0.670363
C57	C	-0.395955	-0.816582	-0.770622
C58	C	-0.355481	-0.021256	-0.435186
C59	C	-0.355492	-0.091227	-0.435161
C60	C	-0.268989	-0.943584	-1.053423
C61	C	-0.257633	-0.954956	-0.959225
C62	C	-0.292212	-0.920364	-0.912069
C63	C	-0.338150	-0.874397	-0.959121
C64	C	-0.349512	-0.863026	-1.053329
C65	C	-0.372734	-0.839806	-0.911975
C66	C	-0.418673	-0.793839	-0.959027
C67	C	-0.430032	-0.782471	-1.053226
C68	C	-0.395452	-0.817063	-1.100381
C69	C	-0.361373	-0.851177	-0.817768
C70	C	-0.441895	-0.770619	-0.817674
C71	C	-0.453252	-0.759247	-0.911872
C72	C	-0.327196	-0.885398	-0.200734
C73	C	-0.314930	-0.897621	-0.100475
H74	H	-0.441305	-0.604844	-0.539398
F75	F	-0.453057	-0.074755	-0.554026
F76	F	-0.453105	-0.475613	-0.553850
F77	F	-0.601304	-0.759499	-0.553990
H78	H	-0.983315	-0.942874	-0.330626
H79	H	-0.269743	-0.109957	-0.330695
F80	F	-0.453080	-0.210467	-0.553959
H81	H	-1.102584	-0.942920	-0.330670
H82	H	-0.240844	-0.971748	-1.091826
F83	F	-1.137866	-0.759684	-0.554120
F84	F	-0.407539	-0.804964	-1.200639
F85	F	-0.257939	-0.239191	-0.316243
H86	H	-0.269789	-0.510814	-0.330532
H87	H	-0.269792	-0.630090	-0.330484
F88	F	-0.478933	-0.733557	-1.103300
F89	F	-0.502142	-0.710327	-0.961959
H90	H	-0.582463	-0.942732	-0.330524
F91	F	-0.280123	-0.932468	-0.811815
H92	H	-0.701734	-0.942777	-0.330560
F93	F	-0.208744	-1.003876	-0.909155
H94	H	-0.727053	-0.771357	-0.539605
F95	F	-1.002156	-0.759635	-0.554082
H96	H	-0.323969	-0.888603	-0.779467
H97	H	-0.470054	-0.742452	-0.779280
