data_functionalizedCrystal
_audit_creation_method	'MofGen! by Chris Wilmer'
_symmetry_space_group_name_H-M	'P1'
_symmetry_Int_Tables_number	1
_symmetry_cell_setting	triclinic
loop_
_symmetry_equiv_pos_as_xyz
  x,y,z
_cell_length_a	18.215407
_cell_length_b	12.645330
_cell_length_c	12.645323
_cell_angle_alpha	89.975130
_cell_angle_beta	89.977371
_cell_angle_gamma	90.018140
loop_
_atom_site_label
_atom_site_type_symbol
_atom_site_fract_x
_atom_site_fract_y
_atom_site_fract_z
Zn1	Zn	1.125129	-0.422018	-0.599445
Zn2	Zn	1.458462	-0.088685	-0.266112
Zn3	Zn	1.791796	0.244648	0.067222
Zn4	Zn	1.125047	-0.599306	-0.422185
Zn5	Zn	1.458380	-0.265973	-0.088852
Zn6	Zn	1.791714	0.067360	0.244482
Zn7	Zn	1.002056	-0.422059	-0.422189
Zn8	Zn	1.335389	-0.088725	-0.088856
Zn9	Zn	1.668722	0.244608	0.244477
Zn10	Zn	1.002043	-0.599242	-0.599401
Zn11	Zn	1.335376	-0.265908	-0.266067
Zn12	Zn	1.668710	0.067425	0.067266
O13	O	1.063569	-0.510656	-0.510805
O14	O	1.396902	-0.177323	-0.177472
O15	O	1.730235	0.156010	0.155862
O16	O	1.228102	-0.445546	-0.575948
O17	O	1.561436	-0.112213	-0.242614
O18	O	1.894769	0.221121	0.090719
O19	O	1.108703	-0.575838	-0.273838
O20	O	1.442036	-0.242505	0.059495
O21	O	1.775369	0.090829	0.392828
O22	O	1.018421	-0.273706	-0.445723
O23	O	1.351755	0.059627	-0.112390
O24	O	1.685088	0.392961	0.220943
O25	O	1.228042	-0.575799	-0.445716
O26	O	1.561375	-0.242465	-0.112382
O27	O	1.894709	0.090868	0.220951
O28	O	1.108843	-0.273676	-0.575952
O29	O	1.442176	0.059657	-0.242619
O30	O	1.775509	0.392990	0.090715
O31	O	1.018342	-0.445615	-0.273842
O32	O	1.351675	-0.112282	0.059492
O33	O	1.685008	0.221052	0.392825
O34	O	0.899070	-0.445552	-0.445680
O35	O	1.232403	-0.112219	-0.112347
O36	O	1.565736	0.221114	0.220986
O37	O	1.018400	-0.575689	-0.747754
O38	O	1.351733	-0.242355	-0.414420
O39	O	1.685066	0.090978	-0.081087
O40	O	0.899060	-0.575728	-0.575876
O41	O	1.232394	-0.242394	-0.242543
O42	O	1.565727	0.090939	0.090790
O43	O	1.108830	-0.445483	-0.747786
O44	O	1.442164	-0.112150	-0.414453
O45	O	1.775497	0.221183	-0.081120
O46	O	1.108690	-0.747645	-0.445673
O47	O	1.442024	-0.414312	-0.112339
O48	O	1.775357	-0.080978	0.220994
O49	O	1.018320	-0.747597	-0.575872
O50	O	1.351653	-0.414264	-0.242539
O51	O	1.684987	-0.080931	0.090795
C52	C	0.872362	-0.510638	-0.510775
C53	C	1.205696	-0.177305	-0.177441
C54	C	1.539029	0.156029	0.155892
C55	C	0.790563	-0.510656	-0.510787
C56	C	1.123897	-0.177322	-0.177453
C57	C	1.457230	0.156011	0.155880
C58	C	0.602384	-0.578545	-0.578495
C59	C	0.935717	-0.245211	-0.245162
C60	C	1.269051	0.088122	0.088172
C61	C	0.525525	-0.578548	-0.578508
C62	C	0.858859	-0.245215	-0.245175
C63	C	1.192192	0.088119	0.088159
C64	C	0.525505	-0.442787	-0.443138
C65	C	0.858839	-0.109453	-0.109805
C66	C	1.192172	0.223880	0.223528
C67	C	0.602363	-0.442779	-0.443131
C68	C	0.935696	-0.109446	-0.109798
C69	C	1.269029	0.223888	0.223535
C70	C	0.640800	-0.510664	-0.510808
C71	C	0.974133	-0.177331	-0.177475
C72	C	1.307467	0.156003	0.155859
C73	C	0.487084	-0.510675	-0.510828
C74	C	0.820417	-0.177342	-0.177495
C75	C	1.153751	0.155992	0.155838
C76	C	0.403750	-0.510678	-0.510842
C77	C	0.737084	-0.177345	-0.177509
C78	C	1.070417	0.155988	0.155825
C79	C	0.724139	-0.510660	-0.510796
C80	C	1.057472	-0.177326	-0.177462
C81	C	1.390806	0.156007	0.155871
C82	C	1.063515	-0.786086	-0.510790
C83	C	1.396848	-0.452753	-0.177457
C84	C	1.730182	-0.119419	0.155876
C85	C	1.063559	-0.903916	-0.510819
C86	C	1.396893	-0.570583	-0.177486
C87	C	1.730226	-0.237249	0.155847
C88	C	1.006942	-1.071494	-0.592980
C89	C	1.340275	-0.738161	-0.259647
C90	C	1.673608	-0.404827	0.073686
C91	C	1.006652	-0.948935	-0.592716
C92	C	1.339985	-0.615601	-0.259383
C93	C	1.673319	-0.282268	0.073950
C94	C	1.042563	-0.948510	-0.399097
C95	C	1.375896	-0.615177	-0.065764
C96	C	1.709229	-0.281844	0.267569
C97	C	1.042217	-1.071109	-0.399596
C98	C	1.375550	-0.737775	-0.066263
C99	C	1.708884	-0.404442	0.267071
C100	C	1.141520	-1.071004	-0.539474
C101	C	1.474853	-0.737671	-0.206141
C102	C	1.808187	-0.404338	0.127193
C103	C	1.141042	-0.948398	-0.541917
C104	C	1.474376	-0.615064	-0.208584
C105	C	1.807709	-0.281731	0.124750
C106	C	1.255522	-0.510675	-0.510836
C107	C	1.588855	-0.177342	-0.177503
C108	C	1.922188	0.155992	0.155831
C109	C	1.337320	-0.510683	-0.510849
C110	C	1.670654	-0.177350	-0.177516
C111	C	2.003987	0.155983	0.155817
C112	C	1.063623	-0.510574	-0.787310
C113	C	1.396956	-0.177241	-0.453977
C114	C	1.730289	0.156092	-0.120644
C115	C	1.063646	-0.510539	-0.905141
C116	C	1.396979	-0.177206	-0.571807
C117	C	1.730313	0.156127	-0.238474
C118	C	1.063643	-0.234151	-0.510843
C119	C	1.396976	0.099182	-0.177510
C120	C	1.730309	0.432516	0.155824
C121	C	1.063674	-0.116321	-0.510859
C122	C	1.397007	0.217013	-0.177526
C123	C	1.730341	0.550346	0.155807
C124	C	1.006580	-0.592065	-1.072684
C125	C	1.339914	-0.258732	-0.739351
C126	C	1.673247	0.074601	-0.406017
C127	C	1.006730	-0.592469	-0.950124
C128	C	1.340063	-0.259136	-0.616791
C129	C	1.673396	0.074198	-0.283458
C130	C	1.141189	-0.540857	-0.949660
C131	C	1.474522	-0.207524	-0.616327
C132	C	1.807856	0.125810	-0.282994
C133	C	1.140876	-0.541368	-1.072259
C134	C	1.474209	-0.208035	-0.738925
C135	C	1.807543	0.125298	-0.405592
C136	C	1.043902	-0.398240	-1.072338
C137	C	1.377235	-0.064906	-0.739005
C138	C	1.710568	0.268427	-0.405672
C139	C	1.042172	-0.398913	-0.949732
C140	C	1.375505	-0.065579	-0.616399
C141	C	1.708838	0.267754	-0.283065
C142	C	1.063557	-0.510661	-0.235375
C143	C	1.396890	-0.177328	0.097958
C144	C	1.730224	0.156005	0.431291
C145	C	1.063676	-0.510398	-0.117546
C146	C	1.397010	-0.177064	0.215788
C147	C	1.730343	0.156269	0.549121
H148	H	1.019789	-0.918781	-0.675557
H149	H	1.353122	-0.585447	-0.342224
H150	H	1.686456	-0.252114	-0.008891
Cl151	Cl	1.101695	-0.300001	-0.902473
Cl152	Cl	1.435028	0.033333	-0.569140
Cl153	Cl	1.768361	0.366666	-0.235806
Cl154	Cl	0.958119	-0.355574	-1.120046
Cl155	Cl	1.291453	-0.022240	-0.786712
Cl156	Cl	1.624786	0.311093	-0.453379
Cl157	Cl	0.650703	-0.663881	-0.663578
Cl158	Cl	0.984036	-0.330548	-0.330245
Cl159	Cl	1.317369	0.002785	0.003088
Cl160	Cl	1.208743	-0.453460	-1.118085
Cl161	Cl	1.542077	-0.120127	-0.784752
Cl162	Cl	1.875410	0.213207	-0.451419
H163	H	1.156876	-0.919247	-0.624139
H164	H	1.490210	-0.585914	-0.290805
H165	H	1.823543	-0.252580	0.042528
Cl166	Cl	1.027032	-1.116907	-0.721305
Cl167	Cl	1.360365	-0.783574	-0.387971
Cl168	Cl	1.693699	-0.450241	-0.054638
H169	H	0.985311	-1.099801	-0.375356
H170	H	1.318645	-0.766467	-0.042022
H171	H	1.651978	-0.433134	0.291311
Cl172	Cl	1.167514	-0.666117	-0.902284
Cl173	Cl	1.500847	-0.332783	-0.568951
Cl174	Cl	1.834181	0.000550	-0.235617
Cl175	Cl	1.206781	-1.115780	-0.447147
Cl176	Cl	1.540114	-0.782447	-0.113814
Cl177	Cl	1.873447	-0.449114	0.219520
Cl178	Cl	0.477179	-0.357453	-0.358061
Cl179	Cl	0.810512	-0.024120	-0.024728
Cl180	Cl	1.143846	0.309214	0.308605
Cl181	Cl	0.954063	-0.363614	-0.904820
Cl182	Cl	1.287396	-0.030281	-0.571486
Cl183	Cl	1.620730	0.303052	-0.238153
H184	H	0.633642	-0.387496	-0.388012
H185	H	0.966975	-0.054162	-0.054679
H186	H	1.300308	0.279171	0.278654
H187	H	0.949591	-1.102396	-0.574265
H188	H	1.282924	-0.769062	-0.240932
H189	H	1.616258	-0.435729	0.092402
H190	H	0.494250	-0.633822	-0.633627
H191	H	0.827584	-0.300489	-0.300294
H192	H	1.160917	0.032845	0.033040
Cl193	Cl	0.917549	-0.903792	-0.563452
Cl194	Cl	1.250883	-0.570458	-0.230118
Cl195	Cl	1.584216	-0.237125	0.103215
H196	H	1.085488	-0.337394	-1.101352
H197	H	1.418821	-0.004061	-0.768019
H198	H	1.752154	0.329273	-0.434685
H199	H	1.081745	-1.100765	-0.336323
H200	H	1.415079	-0.767432	-0.002990
H201	H	1.748412	-0.434099	0.330344
Cl202	Cl	1.208633	-0.451927	-0.904682
Cl203	Cl	1.541967	-0.118594	-0.571349
Cl204	Cl	1.875300	0.214740	-0.238015
H205	H	1.019508	-0.674693	-1.103503
H206	H	1.352841	-0.341360	-0.770170
H207	H	1.686174	-0.008027	-0.436836
Cl208	Cl	1.104334	-0.903495	-0.302043
Cl209	Cl	1.437668	-0.570161	0.031290
Cl210	Cl	1.771001	-0.236828	0.364623
H211	H	0.986250	-0.917900	-0.374419
H212	H	1.319583	-0.584566	-0.041085
H213	H	1.652917	-0.251233	0.292248
Cl214	Cl	1.171091	-1.118621	-0.663117
Cl215	Cl	1.504424	-0.785288	-0.329784
Cl216	Cl	1.837758	-0.451955	0.003549
H217	H	0.949229	-0.573497	-0.920022
H218	H	1.282562	-0.240164	-0.586689
H219	H	1.615896	0.093169	-0.253356
Cl220	Cl	1.209743	-0.901069	-0.456303
Cl221	Cl	1.543076	-0.567736	-0.122970
Cl222	Cl	1.876410	-0.234402	0.210364
H223	H	1.019784	-0.675617	-0.920810
H224	H	1.353117	-0.342283	-0.587477
H225	H	1.686451	-0.008950	-0.254143
Cl226	Cl	1.166752	-0.667954	-1.116436
Cl227	Cl	1.500086	-0.334620	-0.783103
Cl228	Cl	1.833419	-0.001287	-0.449770
Cl229	Cl	0.917535	-0.563054	-1.118178
Cl230	Cl	1.250869	-0.229720	-0.784845
Cl231	Cl	1.584202	0.103613	-0.451512
