data_functionalizedCrystal
_audit_creation_method	'MofGen! by Chris Wilmer'
_symmetry_space_group_name_H-M	'P1'
_symmetry_Int_Tables_number	1
_symmetry_cell_setting	triclinic
loop_
_symmetry_equiv_pos_as_xyz
  x,y,z
_cell_length_a	10.654562
_cell_length_b	10.967829
_cell_length_c	9.130313
_cell_angle_alpha	77.870844
_cell_angle_beta	89.996930
_cell_angle_gamma	84.601947
loop_
_atom_site_label
_atom_site_type_symbol
_atom_site_fract_x
_atom_site_fract_y
_atom_site_fract_z
O1	O	1.667798	0.175345	-0.166149
O2	O	1.302319	0.192028	-0.170341
O3	O	1.493489	0.002111	-0.122410
O4	O	1.476629	0.365262	-0.214080
O5	O	1.493487	0.002117	0.121187
O6	O	1.302317	0.192033	0.073256
O7	O	1.667796	0.175350	0.077449
Cu8	Cu	1.485056	0.183692	0.097595
Cu9	Cu	1.485059	0.183686	-0.190487
O10	O	1.476626	0.365267	0.029518
C11	C	1.255521	0.190802	-0.048230
C12	C	1.116079	0.187127	-0.047295
C13	C	1.050547	0.185416	0.085911
C14	C	0.919525	0.181973	0.086755
C15	C	0.919578	0.181958	-0.178826
C16	C	1.050598	0.185392	-0.179666
C17	C	1.050515	0.185430	0.239241
C18	C	0.919493	0.181987	0.240085
C19	C	1.492261	-0.044386	0.011123
C20	C	1.488590	-0.182941	0.046090
C21	C	1.486955	-0.244710	-0.064513
C22	C	1.483161	-0.387915	-0.028376
C23	C	1.714595	0.176576	-0.044666
C24	C	1.854037	0.180251	-0.045610
C25	C	1.477854	0.411764	-0.104019
C26	C	1.481525	0.550320	-0.138995
N27	N	1.485064	0.183696	0.300217
N28	N	1.485062	0.183673	-0.393107
C29	C	1.569735	0.099630	0.398085
C30	C	1.569732	0.099615	0.551426
C31	C	1.400381	0.267743	0.509013
C32	C	1.400379	0.267751	0.355677
C33	C	1.667513	0.002565	0.422572
C34	C	1.667509	0.002550	0.575913
H35	H	0.866248	0.180546	-0.286597
C36	C	1.638555	-0.127011	0.399049
N37	N	1.616741	-0.224605	0.381330
H38	H	1.758692	0.032963	0.367336
C39	C	1.626292	-0.119895	0.671065
N40	N	1.595238	-0.212115	0.742734
H41	H	1.096787	0.099190	0.319893
H42	H	1.764017	0.023936	0.612126
H43	H	1.103952	0.186766	-0.288131
H44	H	1.080075	0.276444	0.263843
C45	C	1.483427	-0.377910	-0.303075
N46	N	1.484861	-0.323851	-0.426658
C47	C	1.486684	-0.254719	0.210160
N48	N	1.485249	-0.308780	0.333742
H49	H	1.331432	0.336178	0.554186
C50	C	0.879531	0.059049	0.335419
N51	N	0.849429	-0.033545	0.407226
H52	H	0.873194	0.268232	0.277180
C53	C	1.488866	-0.172933	-0.228583
N54	N	1.490310	-0.118873	-0.352165
C55	C	1.481254	-0.459687	0.135702
N56	N	1.479819	-0.513749	0.259284
C57	C	1.307330	0.360326	0.248001
N58	N	1.237281	0.430096	0.166890
