data_functionalizedCrystal
_audit_creation_method	'MofGen! by Chris Wilmer'
_symmetry_space_group_name_H-M	'P1'
_symmetry_Int_Tables_number	1
_symmetry_cell_setting	triclinic
loop_
_symmetry_equiv_pos_as_xyz
  x,y,z
_cell_length_a	27.732048
_cell_length_b	11.026607
_cell_length_c	10.065875
_cell_angle_alpha	79.268236
_cell_angle_beta	98.667963
_cell_angle_gamma	95.614336
loop_
_atom_site_label
_atom_site_type_symbol
_atom_site_fract_x
_atom_site_fract_y
_atom_site_fract_z
O1	O	-0.659402	-0.126245	-0.113310
O2	O	-0.520583	-0.148157	-0.113350
O3	O	-0.578488	0.039236	-0.113328
O4	O	-0.601498	-0.313638	-0.113332
O5	O	-0.567458	0.003360	0.113656
O6	O	-0.509554	-0.184033	0.113635
O7	O	-0.648373	-0.162120	0.113675
Zn8	Zn	-0.577213	-0.178773	0.149693
Zn9	Zn	-0.591744	-0.131505	-0.149369
O10	O	-0.590469	-0.349514	0.113653
C11	C	-0.497021	-0.165634	0.000137
C12	C	-0.443242	-0.164246	0.000121
C13	C	-0.568728	0.066430	0.000161
C14	C	-0.556074	0.200908	0.000153
C15	C	-0.671936	-0.144643	0.000185
C16	C	-0.725715	-0.146029	0.000191
C17	C	-0.113605	-0.266272	0.000180
C18	C	0.088518	-0.261134	0.000192
O19	O	0.111381	-0.354430	0.000250
N20	N	0.117641	-0.150015	0.000190
C21	C	0.096232	-0.040175	0.000195
O22	O	0.125642	0.054454	0.000208
C23	C	-0.105890	-0.045316	0.000192
C24	C	-0.135011	-0.156440	0.000180
C25	C	-0.142726	-0.377388	0.000169
C26	C	-0.193254	-0.378670	0.000158
C27	C	-0.214661	-0.268837	0.000159
C28	C	-0.185539	-0.157722	0.000169
C29	C	-0.127298	0.064522	0.000207
C30	C	-0.177831	0.063226	0.000210
C31	C	-0.206953	-0.047898	0.000197
C32	C	-0.257474	-0.049172	0.000159
N33	N	-0.286597	-0.160290	0.000161
C34	C	-0.265191	-0.270123	0.000160
C35	C	0.202348	-0.037483	0.000194
C36	C	0.252878	-0.036197	0.000192
C37	C	0.245161	-0.257157	0.000191
C38	C	0.194629	-0.258440	0.000183
C39	C	0.173225	-0.148601	0.000195
C40	C	-0.371303	-0.272807	0.000137
C41	C	-0.421836	-0.274079	0.000121
C42	C	-0.414113	-0.053121	0.000129
C43	C	-0.363586	-0.051847	0.000138
C44	C	-0.342182	-0.161701	0.000147
O45	O	-0.280369	0.044073	0.000117
O46	O	-0.294608	-0.364743	0.000178
C47	C	-0.063077	-0.264990	0.000190
C48	C	-0.033955	-0.153875	0.000201
C49	C	-0.055362	-0.044042	0.000201
C50	C	0.016575	-0.152589	0.000199
C51	C	0.037981	-0.262422	0.000199
C52	C	0.008858	-0.373541	0.000200
C53	C	-0.041670	-0.374823	0.000190
C54	C	-0.026238	0.067076	0.000200
C55	C	0.024289	0.068350	0.000209
C56	C	0.045696	-0.041483	0.000209
C57	C	-0.600229	-0.376707	0.000161
C58	C	-0.612884	-0.511184	0.000160
N59	N	-0.567299	-0.211031	0.353795
C60	C	-0.591015	0.275368	0.000161
C61	C	-0.577937	0.414358	0.000152
N62	N	-0.601661	-0.099237	-0.353471
C63	C	-0.588291	-0.142721	0.421582
C64	C	-0.580666	-0.167557	0.578746
H65	H	-0.445545	-0.364573	0.000110
N66	N	-0.349452	-0.385031	0.000153
N67	N	-0.375467	-0.484225	0.000145
H68	H	-0.360036	-0.563483	0.000150
N69	N	-0.222994	-0.492192	0.000195
N70	N	-0.247399	-0.532687	0.095887
H71	H	-0.268399	-0.612870	0.095923
N72	N	-0.528258	0.463451	0.000167
N73	N	-0.496329	0.424096	0.095847
H74	H	-0.461243	0.458769	0.095862
N75	N	-0.640688	0.226258	0.000210
N76	N	-0.663318	0.235374	0.095905
H77	H	-0.698401	0.200691	0.095944
N78	N	-0.551029	-0.263992	0.651866
N79	N	-0.507053	-0.260925	0.636021
H80	H	-0.486121	-0.329030	0.687662
H81	H	-0.611907	-0.065846	0.363266
N82	N	-0.631304	-0.002805	0.573437
N83	N	-0.620031	0.106638	0.589297
H84	H	-0.640971	0.174735	0.537686
H85	H	-0.339874	0.038642	0.000128
N86	N	-0.662559	0.439705	0.000167
N87	N	-0.673114	0.326869	0.000170
H88	H	-0.708197	0.292181	0.000175
H89	H	-0.516478	0.240060	0.000132
N90	N	-0.537661	-0.307448	0.426941
N91	N	-0.500477	-0.282279	0.506705
H92	H	-0.479544	-0.350374	0.558363
N93	N	-0.120873	-0.489602	0.000177
N94	N	-0.146889	-0.588794	0.000172
H95	H	-0.131460	-0.668053	0.000170
H96	H	0.262598	-0.346587	0.000191
N97	N	0.164892	-0.371960	0.000169
N98	N	0.184017	-0.470009	0.000162
H99	H	0.163017	-0.550189	0.000154
H100	H	0.276584	0.054295	0.000180
N101	N	-0.435994	0.059049	0.000148
N102	N	-0.458687	0.067832	0.095833
H103	H	-0.474141	0.147050	0.095856
N104	N	0.180489	0.074721	0.000221
N105	N	0.193366	0.133715	0.095901
H106	H	0.177930	0.212962	0.095917
N107	N	-0.097567	0.178044	0.000245
N108	N	-0.095995	0.236728	0.095940
H109	H	-0.074999	0.316912	0.095972
H110	H	-0.195256	0.152672	0.000220
H111	H	-0.065377	-0.465312	0.000181
H112	H	0.026295	-0.462970	0.000194
H113	H	0.047996	0.158849	0.000208
H114	H	-0.043662	0.156517	0.000204
