data_functionalizedCrystal
_audit_creation_method	'MofGen! by Chris Wilmer'
_symmetry_space_group_name_H-M	'P1'
_symmetry_Int_Tables_number	1
_symmetry_cell_setting	triclinic
loop_
_symmetry_equiv_pos_as_xyz
  x,y,z
_cell_length_a	12.827893
_cell_length_b	14.908178
_cell_length_c	12.827885
_cell_angle_alpha	93.331370
_cell_angle_beta	90.019272
_cell_angle_gamma	93.313970
loop_
_atom_site_label
_atom_site_type_symbol
_atom_site_fract_x
_atom_site_fract_y
_atom_site_fract_z
Zn1	Zn	1.573645	-0.359146	0.566802
Zn2	Zn	1.563445	-0.510043	0.381959
Zn3	Zn	1.398883	-0.359190	0.392073
Zn4	Zn	1.388782	-0.509976	0.556664
O5	O	1.481189	-0.434588	0.474374
O6	O	1.718527	-0.379172	0.542293
O7	O	1.541574	-0.490078	0.237062
O8	O	1.430562	-0.232929	0.423727
O9	O	1.711033	-0.490036	0.406489
O10	O	1.558959	-0.232896	0.552100
O11	O	1.420672	-0.379247	0.244492
O12	O	1.251308	-0.379182	0.413896
O13	O	1.413346	-0.489921	0.704248
O14	O	1.243887	-0.489964	0.534820
O15	O	1.549164	-0.379107	0.711696
O16	O	1.531779	-0.636289	0.396659
O17	O	1.403455	-0.636240	0.525013
C18	C	1.209680	-0.434571	0.474356
C19	C	1.093526	-0.434585	0.474371
C20	C	1.465443	-0.669001	0.458661
C21	C	1.458802	-0.769284	0.451974
C22	C	1.038091	-0.489489	0.534105
C23	C	0.918039	-0.489505	0.534122
C24	C	1.579922	-0.957542	0.573225
C25	C	1.573686	-1.051766	0.566946
C26	C	1.440090	-1.051959	0.433140
C27	C	1.446326	-0.957734	0.439420
C28	C	1.516245	-0.910529	0.509464
C29	C	1.522485	-0.816303	0.515738
C30	C	1.388885	-0.816497	0.381938
C31	C	1.382649	-0.910722	0.375658
C32	C	1.753758	-0.434607	0.474394
C33	C	1.869910	-0.434614	0.474402
C34	C	1.481266	-0.434502	0.746951
C35	C	1.481298	-0.434465	0.863106
C36	C	1.497025	-0.199261	0.490172
C37	C	1.503773	-0.098978	0.496904
C38	C	1.481177	-0.434610	0.202863
C39	C	1.481363	-0.434392	0.086725
C40	C	1.548513	-0.379620	0.918578
C41	C	1.548549	-0.379580	1.038631
H42	H	1.079508	-0.536479	0.585236
C43	C	1.625115	-0.316852	1.102271
C44	C	1.569793	-0.259035	1.168789
C45	C	1.640292	-0.201226	1.227422
H46	H	1.668327	-0.351280	1.142629
H47	H	1.667245	-0.282416	1.056559
H48	H	1.527682	-0.293467	1.214497
H49	H	1.526585	-0.224587	1.128460
H50	H	1.682421	-0.166790	1.181709
H51	H	1.683501	-0.235661	1.267773
H52	H	1.602766	-0.161985	1.272554
C53	C	1.625260	-0.316946	0.863598
C54	C	1.687260	-0.266325	0.938041
C55	C	1.757963	-0.208571	0.887437
H56	H	1.668514	-0.351409	0.818703
H57	H	1.587902	-0.277630	0.823680
H58	H	1.724615	-0.305636	0.977943
H59	H	1.644034	-0.231845	0.982940
H60	H	1.720605	-0.169255	0.847519
H61	H	1.801210	-0.243040	0.842544
H62	H	1.800032	-0.174212	0.937939
H63	H	1.325721	-0.949169	0.318633
C64	C	1.655857	-0.906447	0.649373
C65	C	1.710274	-0.967787	0.703887
C66	C	1.780223	-0.920753	0.774055
H67	H	1.703938	-0.869675	0.612010
H68	H	1.618305	-0.869712	0.697373
H69	H	1.747824	-1.004507	0.655894
H70	H	1.662221	-1.004560	0.741271
H71	H	1.742671	-0.884018	0.822055
H72	H	1.828297	-0.883983	0.736683
H73	H	1.817147	-0.962365	0.811058
H74	H	1.423819	-0.481353	1.039042
H75	H	1.423773	-0.481385	0.904494
C76	C	1.364118	-1.103340	0.357261
C77	C	1.293541	-1.157461	0.412764
C78	C	1.223553	-1.204817	0.342896
H79	H	1.326977	-1.061956	0.320146
H80	H	1.401664	-1.140152	0.309338
H81	H	1.256000	-1.120652	0.460668
H82	H	1.330653	-1.198862	0.449875
H83	H	1.261098	-1.241629	0.294973
H84	H	1.186419	-1.163426	0.305786
H85	H	1.175664	-1.241550	0.380544
C86	C	0.854319	-0.552087	0.602283
C87	C	0.747916	-0.539640	0.588776
C88	C	0.689184	-0.597267	0.651562
H89	H	0.867957	-0.612740	0.582891
H90	H	0.873008	-0.538955	0.673438
H91	H	0.729233	-0.552778	0.517636
H92	H	0.734246	-0.478999	0.608175
H93	H	0.707874	-0.584136	0.722717
H94	H	0.702831	-0.657917	0.632164
H95	H	0.616985	-0.588824	0.642413
H96	H	0.917562	-0.387610	0.423256
H97	H	1.052109	-0.387588	0.423248
H98	H	1.579420	-0.777869	0.572768
C99	C	1.642699	-1.102972	0.636119
C100	C	1.622258	-1.195595	0.615650
C101	C	1.685805	-1.242793	0.679366
H102	H	1.713982	-1.087595	0.621985
H103	H	1.628372	-1.087546	0.707369
H104	H	1.636593	-1.211014	0.544416
H105	H	1.550987	-1.210998	0.629791
H106	H	1.671477	-1.227367	0.750616
H107	H	1.757084	-1.227409	0.665226
H108	H	1.671938	-1.305642	0.665494
H109	H	1.337038	-0.778209	0.330016
