data_functionalizedCrystal
_audit_creation_method	'MofGen! by Chris Wilmer'
_symmetry_space_group_name_H-M	'P1'
_symmetry_Int_Tables_number	1
_symmetry_cell_setting	triclinic
loop_
_symmetry_equiv_pos_as_xyz
  x,y,z
_cell_length_a	17.917603
_cell_length_b	23.096457
_cell_length_c	23.096457
_cell_angle_alpha	90.011518
_cell_angle_beta	57.017716
_cell_angle_gamma	63.033951
loop_
_atom_site_label
_atom_site_type_symbol
_atom_site_fract_x
_atom_site_fract_y
_atom_site_fract_z
Zr1	Zr	0.818644	0.586639	-0.104909
O2	O	0.974671	0.499676	-0.202865
O3	O	0.662617	0.609480	-0.071059
O4	O	0.818646	0.614958	-0.197360
O5	O	0.818639	0.494220	0.018718
O6	O	0.818648	0.710238	-0.197363
O7	O	0.818641	0.494198	-0.076564
O8	O	0.539540	0.700439	0.028565
O9	O	1.097748	0.504019	-0.207210
O10	O	0.726794	0.694941	-0.061242
O11	O	0.726791	0.623851	0.009869
O12	O	0.910496	0.630301	-0.138833
O13	O	0.910493	0.559211	-0.067723
Zr14	Zr	0.818644	0.738637	0.047050
Zr15	Zr	0.818647	0.738601	-0.104914
Zr16	Zr	0.818640	0.586675	0.047055
Zr17	Zr	1.014937	0.593567	-0.111840
Zr18	Zr	0.622350	0.731709	0.053981
O19	O	0.974671	0.715796	0.013200
O20	O	0.974675	0.715745	-0.202873
O21	O	0.974666	0.499727	0.013208
O22	O	0.662617	0.825600	0.145006
O23	O	0.662621	0.825549	-0.071068
O24	O	0.662612	0.609531	0.145014
O25	O	0.818648	0.831056	-0.076577
O26	O	0.818641	0.710318	0.139501
O27	O	0.818639	0.615038	0.139504
O28	O	0.818646	0.831079	0.018705
O29	O	1.097750	0.624808	-0.207215
O30	O	0.539537	0.700468	0.149356
O31	O	0.539540	0.821257	0.149351
O32	O	0.539542	0.821228	0.028560
O33	O	1.097745	0.504048	-0.086419
O34	O	1.097748	0.624837	-0.086424
O35	O	0.726791	0.694975	0.080974
O36	O	0.726794	0.766065	0.009864
O37	O	0.910496	0.701425	-0.067728
O38	O	0.910493	0.630335	0.003382
C39	C	0.573111	0.653972	-0.020260
C40	C	0.489779	0.651031	-0.017317
C41	C	0.337209	0.645658	-0.011944
C42	C	0.300074	0.679617	-0.045913
C43	C	0.215178	0.676627	-0.042924
C44	C	0.422112	0.648647	-0.014933
C45	C	0.818640	0.472558	-0.028922
C46	C	0.818638	0.408046	-0.028920
C47	C	0.722751	0.411482	0.011575
C48	C	0.722749	0.350866	0.011578
C49	C	0.818641	0.286816	-0.028928
C50	C	0.914541	0.283383	-0.069425
C51	C	0.914540	0.343998	-0.069421
N52	N	0.890019	0.166525	-0.091859
N53	N	0.890013	0.108945	-0.091862
C54	C	0.818650	0.104183	-0.028941
N55	N	0.747276	0.159182	0.033982
N56	N	0.747279	0.216768	0.033983
C57	C	0.818653	0.221085	-0.028936
C58	C	0.722754	0.041895	0.011562
C59	C	0.722757	-0.018723	0.011566
C60	C	0.914551	-0.086207	-0.069444
C61	C	0.914546	-0.025589	-0.069442
C62	C	0.818645	0.038459	-0.028941
C63	C	1.064177	0.671304	-0.037599
C64	C	1.147508	0.674245	-0.040542
C65	C	0.818648	0.662593	-0.219013
C66	C	0.818649	0.662578	-0.283526
C67	C	0.818648	0.852718	-0.028937
C68	C	0.818649	0.917230	-0.028939
C69	C	0.914537	0.628840	-0.354331
C70	C	0.914538	0.628858	-0.414948
C71	C	0.818647	0.662604	-0.404754
C72	C	0.722747	0.696350	-0.333936
C73	C	0.722748	0.696337	-0.273322
N74	N	0.747269	0.654963	-0.469789
N75	N	0.747274	0.654972	-0.527373
C76	C	0.818637	0.662647	-0.587380
N77	N	0.890011	0.670301	-0.587633
N78	N	0.890009	0.670288	-0.530046
C79	C	0.818635	0.662623	-0.470476
C80	C	0.914533	0.628928	-0.723915
C81	C	0.914531	0.628951	-0.784531
C82	C	0.722736	0.696438	-0.703517
C83	C	0.722741	0.696420	-0.642904
C84	C	0.818643	0.662661	-0.653107
C85	C	0.818640	0.662683	0.161154
C86	C	0.818638	0.662698	0.225667
C87	C	0.573115	0.844053	-0.020267
C88	C	0.489784	0.905623	-0.017327
C89	C	0.573106	0.654017	0.169824
C90	C	0.489773	0.651092	0.237279
C91	C	0.573111	0.844098	0.169817
C92	C	0.489779	0.905684	0.237269
C93	C	1.064177	0.481178	-0.227676
C94	C	1.147508	0.419593	-0.295129
C95	C	1.064173	0.481223	-0.037592
C96	C	1.147503	0.419653	-0.040532
C97	C	1.064181	0.671259	-0.227683
C98	C	1.147514	0.674185	-0.295138
C99	C	0.450652	0.897412	-0.053069
C100	C	0.372365	0.955258	-0.050321
C101	C	0.333207	1.021316	-0.011826
C102	C	0.372347	1.029526	0.023916
C103	C	0.450638	0.971680	0.021164
C104	C	0.450639	0.686843	0.306079
C105	C	0.372350	0.684092	0.369466
C106	C	0.333191	0.645592	0.364051
C107	C	0.372333	0.609836	0.295243
C108	C	0.450626	0.612584	0.231858
C109	C	0.450647	0.971719	0.231827
C110	C	0.372359	1.029592	0.295200
C111	C	0.333199	1.021427	0.364014
C112	C	0.372338	0.955384	0.369455
C113	C	0.450630	0.897513	0.306083
C114	C	1.186650	0.353557	-0.289686
C115	C	1.264962	0.295685	-0.353060
C116	C	1.304126	0.303850	-0.421875
C117	C	1.264982	0.369893	-0.427316
C118	C	1.186676	0.427763	-0.363943
C119	C	1.186644	0.427865	-0.004797
C120	C	1.264952	0.370019	-0.007562
C121	C	1.304113	0.303962	-0.046059
C122	C	1.264969	0.295751	-0.081799
C123	C	1.186667	0.353596	-0.079037
C124	C	1.186648	0.712690	-0.289700
C125	C	1.264938	0.715453	-0.353075
C126	C	1.304098	0.679705	-0.421888
C127	C	1.264956	0.641198	-0.427325
C128	C	1.186662	0.638440	-0.363950
H129	H	0.644660	0.463629	0.044550
H130	H	1.154765	0.481647	0.026556
Cl131	Cl	1.137431	0.343274	-0.203184
Cl132	Cl	0.499868	0.982002	0.145325
Cl133	Cl	0.499807	0.567638	0.145369
Cl134	Cl	1.314206	0.212702	-0.130188
Cl135	Cl	0.602193	0.738749	-0.184303
Cl136	Cl	1.314141	0.380356	0.037376
Cl137	Cl	0.602190	0.738820	-0.553886
H138	H	1.154801	0.346900	-0.108136
H139	H	0.644664	0.353664	0.044555
H140	H	0.305246	0.614341	0.019380
Cl141	Cl	0.323167	1.112609	0.288343
Cl142	Cl	1.137434	0.757638	-0.203199
H143	H	1.296820	0.241916	-0.348616
H144	H	0.340443	0.948746	0.425493
H145	H	0.992616	0.231228	-0.102405
H146	H	1.296880	0.376533	-0.483352
Cl147	Cl	1.035098	-0.029908	-0.120358
Cl148	Cl	1.035098	0.586385	-0.367162
H149	H	1.154808	0.481531	-0.368382
H150	H	0.332040	0.710935	-0.077241
Cl151	Cl	1.402567	0.231091	-0.501538
Cl152	Cl	0.499817	0.982016	0.066108
H153	H	0.992625	0.341195	-0.102396
H154	H	0.482533	0.843630	-0.084424
H155	H	0.269448	1.068555	0.415610
Cl156	Cl	1.137484	0.590020	-0.370800
H157	H	0.340438	0.578490	0.290845
Cl158	Cl	0.602195	0.122414	0.062480
H159	H	1.367871	0.256866	-0.048302
Cl160	Cl	0.499809	0.814499	0.312938
Cl161	Cl	1.314135	0.763861	-0.346223
Cl162	Cl	1.402529	0.683177	-0.501553
H163	H	0.644670	-0.015919	0.044548
Cl164	Cl	1.035102	-0.166722	-0.120361
H165	H	1.296851	0.612093	-0.483361
H166	H	0.340490	0.713212	0.425486
Cl167	Cl	1.035092	0.586442	-0.503973
H168	H	0.644671	0.723827	-0.325640
H169	H	0.992617	0.601480	-0.842187
Cl170	Cl	1.035092	0.586506	-0.736739
H171	H	0.644659	0.723916	-0.695216
H172	H	0.340506	0.948560	-0.079427
Cl173	Cl	0.234781	1.094030	-0.008371
Cl174	Cl	0.499849	0.735250	0.312906
Cl175	Cl	0.323104	1.112575	0.072311
H176	H	0.269440	0.643361	0.415669
