data_functionalizedCrystal
_audit_creation_method	'MofGen! by Chris Wilmer'
_symmetry_space_group_name_H-M	'P1'
_symmetry_Int_Tables_number	1
_symmetry_cell_setting	triclinic
loop_
_symmetry_equiv_pos_as_xyz
  x,y,z
_cell_length_a	27.732064
_cell_length_b	27.732048
_cell_length_c	18.266242
_cell_angle_alpha	89.988683
_cell_angle_beta	89.998592
_cell_angle_gamma	82.646040
loop_
_atom_site_label
_atom_site_type_symbol
_atom_site_fract_x
_atom_site_fract_y
_atom_site_fract_z
O1	O	0.640925	0.057556	-0.060758
O2	O	0.500133	0.066293	-0.060789
O3	O	0.574901	-0.008472	-0.060759
O4	O	0.566156	0.132321	-0.060789
O5	O	0.574889	-0.008476	0.061003
O6	O	0.500120	0.066289	0.060973
O7	O	0.640912	0.057552	0.061004
Zn8	Zn	0.570514	0.061920	0.080321
Zn9	Zn	0.570531	0.061925	-0.080106
O10	O	0.566144	0.132317	0.060973
C11	C	0.482120	0.066106	0.000088
C12	C	0.428465	0.065551	0.000077
C13	C	0.051392	0.017583	0.000128
C14	C	0.253053	0.019630	0.000109
O15	O	0.284305	-0.017591	0.000144
N16	N	0.272180	0.063964	0.000096
C17	C	0.240889	0.107790	0.000093
O18	O	0.261785	0.145546	0.000090
C19	C	0.039230	0.105743	0.000118
C20	C	0.020105	0.061406	0.000123
C21	C	0.032267	-0.026750	0.000134
C22	C	-0.018145	-0.027261	0.000135
C23	C	-0.049432	0.016561	0.000130
C24	C	-0.030307	0.060895	0.000124
C25	C	0.007940	0.149568	0.000120
C26	C	-0.042478	0.149053	0.000128
C27	C	-0.061602	0.104716	0.000134
C28	C	-0.112006	0.104206	0.000120
N29	N	-0.131134	0.059872	0.000132
C30	C	-0.099846	0.016049	0.000138
C31	C	0.346763	0.108861	0.000079
C32	C	0.397178	0.109373	0.000071
C33	C	0.409338	0.021213	0.000088
C34	C	0.358923	0.020701	0.000091
C35	C	0.327636	0.064527	0.000092
C36	C	-0.205716	0.014979	0.000139
C37	C	-0.256133	0.014472	0.000137
C38	C	-0.268289	0.102632	0.000124
C39	C	-0.217876	0.103140	0.000122
C40	C	-0.186590	0.059309	0.000132
O41	O	-0.143287	0.141407	0.000093
O42	O	-0.120752	-0.021701	0.000158
C43	C	0.101804	0.018094	0.000128
C44	C	0.120930	0.062428	0.000121
C45	C	0.089642	0.106250	0.000116
C46	C	0.171344	0.062940	0.000114
C47	C	0.202631	0.019117	0.000119
C48	C	0.183504	-0.025217	0.000132
C49	C	0.133092	-0.025728	0.000133
C50	C	0.108770	0.150585	0.000104
C51	C	0.159183	0.151092	0.000102
C52	C	0.190470	0.107270	0.000107
C53	C	0.574712	-0.026481	0.000124
C54	C	0.574159	-0.080136	0.000130
C55	C	0.614862	-0.418948	0.000101
C56	C	0.612811	-0.620608	0.000091
O57	O	0.650032	-0.651862	0.000067
N58	N	0.568476	-0.639735	0.000082
C59	C	0.524651	-0.608442	0.000070
O60	O	0.486895	-0.629338	0.000055
C61	C	0.526703	-0.406784	0.000076
C62	C	0.571040	-0.387660	0.000092
C63	C	0.659196	-0.399824	0.000117
C64	C	0.659709	-0.349412	0.000124
C65	C	0.615887	-0.318124	0.000115
C66	C	0.571553	-0.337248	0.000099
C67	C	0.482878	-0.375493	0.000059
C68	C	0.483395	-0.325075	0.000059
C69	C	0.527733	-0.305952	0.000075
C70	C	0.528243	-0.255548	0.000097
N71	N	0.572578	-0.236422	0.000106
C72	C	0.616400	-0.267710	0.000115
C73	C	0.523577	-0.714317	0.000069
C74	C	0.523064	-0.764731	0.000069
C75	C	0.611225	-0.776893	0.000088
C76	C	0.611737	-0.726478	0.000093
C77	C	0.567912	-0.695190	0.000078
C78	C	0.617472	-0.161841	0.000129
C79	C	0.617981	-0.111424	0.000139
C80	C	0.529821	-0.099266	0.000116
C81	C	0.529312	-0.149679	0.000110
C82	C	0.573142	-0.180965	0.000115
O83	O	0.491043	-0.224267	0.000112
O84	O	0.654151	-0.246805	0.000114
C85	C	0.614350	-0.469360	0.000095
C86	C	0.570016	-0.488484	0.000079
C87	C	0.526194	-0.457196	0.000070
C88	C	0.569503	-0.538899	0.000079
C89	C	0.613325	-0.570187	0.000088
C90	C	0.657660	-0.551060	0.000097
C91	C	0.658172	-0.500648	0.000104
C92	C	0.481859	-0.476323	0.000061
C93	C	0.481351	-0.526735	0.000055
C94	C	0.525172	-0.558023	0.000064
C95	C	0.658925	0.057739	0.000125
C96	C	0.712580	0.058295	0.000132
C97	C	0.566333	0.150326	0.000089
C98	C	0.566886	0.203981	0.000078
N99	N	0.570506	0.061916	0.189808
N100	N	0.570542	0.061925	-0.189593
C101	C	0.603625	0.028827	0.228130
C102	C	0.603628	0.028824	0.304775
C103	C	0.570517	0.061920	0.343094
C104	C	0.537393	0.095013	0.304763
C105	C	0.537387	0.095011	0.228119
N106	N	0.564045	0.104738	0.463417
N107	N	0.564053	0.104739	0.536225
C108	C	0.570531	0.061927	0.574017
N109	N	0.577010	0.019114	0.536250
N110	N	0.577004	0.019114	0.463435
C111	C	0.570519	0.061926	0.426201
C112	C	0.603654	0.028832	0.695446
C113	C	0.603654	0.028829	0.772093
C114	C	0.537421	0.095022	0.772079
C115	C	0.537419	0.095020	0.695434
C116	C	0.570538	0.061926	0.657123
H117	H	-0.067950	0.184742	0.000132
H118	H	0.447706	-0.299603	0.000045
F119	F	0.638871	-0.006397	0.187357
F120	F	0.435215	-0.443029	0.000049
H121	H	0.174748	0.187200	0.000092
F122	F	0.638901	-0.006392	0.654671
F123	F	-0.276483	-0.032719	0.000138
H124	H	0.694883	-0.425295	0.000122
H125	H	0.510453	0.121967	0.664230
H126	H	0.117526	-0.061832	0.000137
F127	F	0.216811	-0.071856	0.000134
F128	F	0.665173	-0.091075	0.000156
F129	F	0.658927	-0.706130	0.000111
H130	H	0.630598	0.001877	0.335983
F131	F	0.476930	-0.681023	0.000053
F132	F	0.475874	-0.785078	0.000064
H133	H	0.510433	0.121959	0.335966
F134	F	0.434157	-0.547081	0.000042
H135	H	0.510418	0.121957	0.196917
F136	F	-0.197522	0.150328	0.000107
H137	H	0.693341	-0.576544	0.000108
F138	F	0.638902	-0.006394	0.812880
F139	F	0.502179	0.130242	0.812858
H140	H	-0.180248	-0.020712	0.000147
F141	F	0.338574	-0.026488	0.000099
H142	H	-0.033711	-0.063365	0.000143
H143	H	0.057737	-0.062438	0.000141
H144	H	0.694276	-0.485083	0.000117
H145	H	0.434821	-0.014469	0.000090
F146	F	0.664121	-0.195132	0.000134
H147	H	0.412744	0.145477	0.000057
F148	F	0.435687	-0.395834	0.000039
H149	H	0.321293	0.144551	0.000079
H150	H	0.023501	0.185672	0.000113
F151	F	-0.301595	0.149269	0.000114
F152	F	0.075478	0.197229	0.000096
F153	F	0.657863	-0.810201	0.000096
F154	F	0.706899	-0.329067	0.000126
F155	F	0.482123	-0.170032	0.000106
F156	F	0.483185	-0.065958	0.000107
