data_functionalizedCrystal
_audit_creation_method	'MofGen! by Chris Wilmer'
_symmetry_space_group_name_H-M	'P1'
_symmetry_Int_Tables_number	1
_symmetry_cell_setting	triclinic
loop_
_symmetry_equiv_pos_as_xyz
  x,y,z
_cell_length_a	12.759401
_cell_length_b	13.033855
_cell_length_c	12.759393
_cell_angle_alpha	97.207876
_cell_angle_beta	90.019676
_cell_angle_gamma	82.827243
loop_
_atom_site_label
_atom_site_type_symbol
_atom_site_fract_x
_atom_site_fract_y
_atom_site_fract_z
Zn1	Zn	1.659414	-0.415964	0.540912
Zn2	Zn	1.681635	-0.590738	0.342933
Zn3	Zn	1.483719	-0.416016	0.365245
Zn4	Zn	1.506025	-0.590662	0.518584
O5	O	1.582698	-0.503345	0.441918
O6	O	1.809384	-0.439158	0.514657
O7	O	1.655346	-0.567615	0.198865
O8	O	1.488390	-0.269775	0.407229
O9	O	1.825710	-0.567564	0.369202
O10	O	1.617472	-0.269737	0.536291
O11	O	1.509938	-0.439247	0.215257
O12	O	1.339656	-0.439173	0.385578
O13	O	1.526408	-0.567434	0.668574
O14	O	1.356044	-0.567484	0.498236
O15	O	1.639102	-0.439084	0.684978
O16	O	1.676975	-0.736961	0.347551
O17	O	1.547955	-0.736905	0.476601
C18	C	1.309729	-0.503327	0.441906
C19	C	1.192954	-0.503344	0.441922
C20	C	1.129607	-0.436604	0.517748
C21	C	1.019884	-0.436615	0.517754
C22	C	1.036867	-0.570115	0.366103
C23	C	1.146587	-0.570098	0.366093
C24	C	0.854227	-0.313441	0.571238
C25	C	0.790878	-0.246710	0.647080
C26	C	0.824501	-0.230783	0.751650
C27	C	0.921474	-0.281602	0.780398
C28	C	0.984819	-0.348341	0.704561
C29	C	0.951195	-0.364248	0.599979
C30	C	1.312246	-0.693274	0.312620
C31	C	1.375594	-0.760018	0.236787
C32	C	1.341974	-0.775956	0.132213
C33	C	1.244999	-0.725155	0.103466
C34	C	1.181652	-0.658410	0.179300
C35	C	1.215279	-0.642471	0.283873
C36	C	1.617326	-0.774850	0.407255
C37	C	1.632236	-0.891001	0.392461
C38	C	1.574999	-0.942792	0.449660
C39	C	1.590407	-1.062840	0.434372
C40	C	1.856734	-0.503364	0.441931
C41	C	1.973512	-0.503372	0.441937
C42	C	1.582764	-0.503244	0.715965
C43	C	1.582792	-0.503202	0.832747
C44	C	1.547964	-0.230779	0.476740
C45	C	1.533163	-0.114628	0.491579
C46	C	1.582684	-0.503369	0.168948
C47	C	1.582821	-0.503118	0.052204
C48	C	1.641475	-0.436359	0.896154
C49	C	1.641487	-0.436314	1.005884
C50	C	1.524131	-0.569963	0.988789
C51	C	1.524114	-0.570002	0.879062
C52	C	1.663347	-0.313022	1.171592
C53	C	1.722048	-0.246189	1.235001
C54	C	1.822513	-0.230167	1.201452
C55	C	1.864301	-0.280993	1.104493
C56	C	1.805606	-0.347834	1.041088
C57	C	1.705124	-0.363836	1.074638
C58	C	1.502266	-0.693295	0.713352
C59	C	1.443577	-0.760142	0.649944
C60	C	1.343110	-0.776175	0.683490
C61	C	1.301329	-0.725368	0.780450
C62	C	1.360018	-0.658521	0.843858
C63	C	1.460483	-0.642486	0.810304
H64	H	1.167356	-0.382245	0.579490
H65	H	1.219523	-0.738426	0.807766
H66	H	1.514584	-0.898259	0.509946
H67	H	1.584071	-0.680239	0.686024
H68	H	1.477610	-0.801522	0.571000
H69	H	0.826847	-0.326391	0.486087
H70	H	1.063776	-0.389712	0.727966
H71	H	1.650819	-1.107371	0.374075
C72	C	1.278556	-0.849716	0.613737
N73	N	1.229932	-0.905102	0.561201
C74	C	1.713847	-0.951161	0.311008
N75	N	1.775319	-0.996473	0.249657
C76	C	1.451544	-1.054474	0.573034
N77	N	1.390072	-1.009165	0.634386
H78	H	1.476360	-0.624352	1.026512
C79	C	1.851564	-0.403735	0.934435
N80	N	1.886179	-0.445833	0.854099
C81	C	1.706013	-0.362868	0.845212
N82	N	1.754620	-0.307508	0.806847
C83	C	0.684217	-0.190798	0.615449
N84	N	0.603882	-0.148684	0.591629
H85	H	1.946114	-0.267949	1.077189
C86	C	1.887078	-0.156642	1.271203
N87	N	1.935701	-0.101256	1.323741
C88	C	1.074978	-0.602523	0.147673
N89	N	0.994634	-0.560428	0.123852
H90	H	1.688014	-0.204806	1.313945
H91	H	1.325991	-0.617150	0.922808
C92	C	0.958463	-0.264063	0.895432
N93	N	0.986330	-0.250840	0.982075
C94	C	0.754817	-0.157369	0.835072
N95	N	0.702329	-0.102067	0.897899
H96	H	1.581535	-0.326054	1.198913
H97	H	1.217621	-0.738137	0.018315
C98	C	1.411660	-0.849385	0.048798
N99	N	1.464145	-0.904688	-0.014031
C100	C	0.985852	-0.643547	0.282702
N101	N	0.947430	-0.698860	0.219885
H102	H	1.339634	-0.680294	0.397770
C103	C	1.482260	-0.815916	0.268417
N104	N	1.562598	-0.858021	0.292242
