data_functionalizedCrystal
_audit_creation_method	'MofGen! by Chris Wilmer'
_symmetry_space_group_name_H-M	'P1'
_symmetry_Int_Tables_number	1
_symmetry_cell_setting	triclinic
loop_
_symmetry_equiv_pos_as_xyz
  x,y,z
_cell_length_a	14.560438
_cell_length_b	27.440280
_cell_length_c	27.440280
_cell_angle_alpha	90.008003
_cell_angle_beta	60.006998
_cell_angle_gamma	59.997832
loop_
_atom_site_label
_atom_site_type_symbol
_atom_site_fract_x
_atom_site_fract_y
_atom_site_fract_z
Zr1	Zr	1.005164	0.469497	-0.063884
O2	O	1.196766	0.391677	-0.141703
O3	O	0.813562	0.493354	-0.040030
O4	O	1.005142	0.493352	-0.141691
O5	O	1.005204	0.391680	0.040152
O6	O	1.005124	0.573555	-0.141681
O7	O	1.005187	0.391679	-0.040041
O8	O	0.662423	0.573558	0.040173
O9	O	1.347905	0.391676	-0.141702
O10	O	0.892358	0.563382	-0.029847
O11	O	0.892384	0.503529	0.029993
O12	O	1.117944	0.503526	-0.089701
O13	O	1.117971	0.443673	-0.029861
Zr14	Zr	1.005164	0.597413	0.064031
Zr15	Zr	1.005136	0.597412	-0.063868
Zr16	Zr	1.005192	0.469499	0.064015
Zr17	Zr	1.246214	0.469497	-0.063883
Zr18	Zr	0.764115	0.597414	0.064029
O19	O	1.196766	0.573557	0.040176
O20	O	1.196726	0.573554	-0.141680
O21	O	1.196806	0.391679	0.040154
O22	O	0.813562	0.675234	0.141849
O23	O	0.813522	0.675231	-0.040007
O24	O	0.813602	0.493357	0.141827
O25	O	1.005124	0.675231	-0.040006
O26	O	1.005187	0.573559	0.141838
O27	O	1.005204	0.493356	0.141828
O28	O	1.005142	0.675232	0.040188
O29	O	1.347883	0.493351	-0.141689
O30	O	0.662446	0.573560	0.141836
O31	O	0.662423	0.675235	0.141848
O32	O	0.662401	0.675233	0.040186
O33	O	1.347928	0.391678	-0.040039
O34	O	1.347905	0.493352	-0.040026
O35	O	0.892384	0.563384	0.089848
O36	O	0.892358	0.623238	0.030008
O37	O	1.117944	0.563382	-0.029846
O38	O	1.117971	0.503528	0.029994
C39	C	0.703648	0.533456	0.000071
C40	C	0.601316	0.533457	0.000071
C41	C	0.457065	0.564698	-0.031161
C42	C	0.553221	0.564698	-0.031166
C43	C	0.553260	0.502209	0.031309
C44	C	0.457112	0.502206	0.031310
C45	C	1.005200	0.373454	0.000053
C46	C	1.005212	0.319151	0.000047
C47	C	0.887389	0.013698	0.031333
C48	C	0.887382	-0.037321	0.031338
O49	O	0.787236	-0.037137	0.057927
N50	N	1.005134	-0.094082	0.000095
C51	C	1.122902	-0.099823	-0.031151
O52	O	1.223059	-0.152788	-0.057725
C53	C	1.122908	-0.048806	-0.031153
C54	C	1.005147	0.007955	0.000088
C55	C	0.769638	0.070456	0.062571
C56	C	0.769646	0.121470	0.062565
C57	C	0.887404	0.115727	0.031320
C58	C	1.005155	0.058970	0.000081
C59	C	1.240674	-0.054548	-0.062395
C60	C	1.240669	-0.003524	-0.062393
C61	C	1.122909	0.053236	-0.031153
C62	C	1.122921	0.104241	-0.031170
N63	N	1.005168	0.161002	0.000074
C64	C	0.887410	0.166745	0.031319
C65	C	1.122881	-0.206962	-0.031145
C66	C	1.122876	-0.257979	-0.031147
C67	C	0.887356	-0.195473	0.031343
C68	C	0.887361	-0.144455	0.031341
C69	C	1.005128	-0.150201	0.000098
C70	C	0.887435	0.273878	0.031303
C71	C	0.887453	0.324894	0.031291
C72	C	1.122973	0.262384	-0.031196
C73	C	1.122956	0.211371	-0.031188
C74	C	1.005176	0.217122	0.000066
O75	O	1.223015	0.104103	-0.057743
O76	O	0.787270	0.219711	0.057895
C77	C	1.306680	0.533454	0.000075
C78	C	1.409012	0.533454	0.000076
C79	C	1.005129	0.533453	-0.159909
C80	C	1.005117	0.533452	-0.214206
C81	C	1.005129	0.693456	0.000093
C82	C	1.005117	0.747759	0.000100
C83	C	1.122940	0.502216	-0.582183
C84	C	1.122947	0.502218	-0.633205
O85	O	1.223092	0.475664	-0.686164
N86	N	1.005194	0.533461	-0.627479
C87	C	0.887427	0.564710	-0.570727
O88	O	0.787269	0.591285	-0.570542
C89	C	0.887421	0.564711	-0.519706
C90	C	1.005181	0.533461	-0.525436
C91	C	1.240690	0.470969	-0.587910
C92	C	1.240683	0.470967	-0.536891
C93	C	1.122924	0.502211	-0.480145
C94	C	1.005174	0.533458	-0.474417
C95	C	0.769655	0.595962	-0.462955
C96	C	0.769659	0.595962	-0.411933
C97	C	0.887419	0.564711	-0.417663
C98	C	0.887407	0.564700	-0.366652
N99	N	1.005160	0.533457	-0.372377
C100	C	1.122918	0.502213	-0.429124
C101	C	0.887448	0.564705	-0.677877
C102	C	0.887452	0.564701	-0.728897
C103	C	1.122973	0.502210	-0.791371
C104	C	1.122967	0.502211	-0.740350
C105	C	1.005200	0.533462	-0.683602
C106	C	1.122893	0.502210	-0.321978
C107	C	1.122875	0.502208	-0.270952
C108	C	0.887356	0.564701	-0.208482
C109	C	0.887373	0.564700	-0.259504
C110	C	1.005152	0.533453	-0.316253
O111	O	0.787313	0.591242	-0.313674
O112	O	1.223059	0.475648	-0.429298
C113	C	1.005200	0.533458	0.160056
C114	C	1.005212	0.533458	0.214352
C115	C	0.703613	0.693457	0.000091
C116	C	0.601269	0.747761	0.000098
C117	C	0.703684	0.533459	0.160054
C118	C	0.601364	0.533460	0.214350
C119	C	0.703648	0.693460	0.160074
C120	C	0.601316	0.747764	0.214377
C121	C	1.306680	0.373451	-0.159927
C122	C	1.409012	0.319147	-0.214230
C123	C	1.306716	0.373453	0.000055
C124	C	1.409059	0.319150	0.000049
C125	C	1.306645	0.533452	-0.159907
C126	C	1.408965	0.533451	-0.214203
C127	C	0.553207	0.742018	-0.031149
C128	C	0.457058	0.793037	-0.031155
C129	C	0.408965	0.849798	0.000089
C130	C	0.457037	0.855539	0.031336
C131	C	0.553191	0.804521	0.031338
C132	C	0.553313	0.564704	0.271097
C133	C	0.457187	0.564703	0.322118
C134	C	0.409105	0.533460	0.316392
C135	C	0.457165	0.502212	0.259639
C136	C	0.553297	0.502210	0.208618
C137	C	0.553247	0.804514	0.208642
C138	C	0.457108	0.855543	0.259660
C139	C	0.409035	0.849821	0.316412
C140	C	0.457115	0.793065	0.322146
C141	C	0.553258	0.742037	0.271128
C142	C	1.457094	0.262397	-0.208495
C143	C	1.553262	0.211368	-0.259513
C144	C	1.601340	0.217090	-0.316266
C145	C	1.553254	0.273846	-0.321999
C146	C	1.457094	0.324874	-0.270982
C147	C	1.457131	0.324892	0.031290
C148	C	1.553307	0.273874	0.031282
C149	C	1.601403	0.217113	0.000036
C150	C	1.553327	0.211372	-0.031208
C151	C	1.457160	0.262390	-0.031203
C152	C	1.457015	0.564700	-0.208457
C153	C	1.553143	0.564710	-0.259469
C154	C	1.601225	0.533468	-0.316226
C155	C	1.553164	0.502219	-0.321971
C156	C	1.457032	0.502212	-0.270959
H157	H	0.791554	0.371111	0.056733
H158	H	0.592374	0.809184	0.162436
O159	O	1.249984	0.468508	-0.746536
H160	H	1.255632	0.433972	-0.724798
H161	H	0.330829	0.533467	0.357941
O162	O	0.605163	0.598403	0.277280
H163	H	0.648995	0.580339	0.302042
O164	O	0.405266	0.468535	0.253465
H165	H	0.330326	0.473802	0.298480
H166	H	0.673761	0.621410	-0.458277
O167	O	1.367695	0.437265	-0.543074
H168	H	1.449570	0.415546	-0.591109
O169	O	0.405354	0.598411	0.383326
H170	H	0.299283	0.632940	0.408071
O171	O	0.305319	0.904863	0.371435
H172	H	0.342212	0.904843	0.398379
O173	O	1.249898	0.468498	-0.277138
H174	H	1.230120	0.473738	-0.232128
O175	O	0.760363	0.598398	-0.253328
H176	H	0.754729	0.632931	-0.275070
H177	H	0.673757	0.621411	-0.365727
O178	O	1.605041	0.468516	-0.383189
H179	H	1.679972	0.473768	-0.417689
O180	O	0.604939	0.468606	0.147412
H181	H	0.555276	0.446922	0.152008
H182	H	0.417866	0.901760	0.056774
O183	O	1.405301	0.256193	-0.064894
H184	H	1.454899	0.208152	-0.086614
O185	O	1.605110	0.280015	-0.383212
H186	H	1.586651	0.258259	-0.407945
H187	H	0.417972	0.901752	0.254981
O188	O	0.405242	0.786896	0.383359
H189	H	0.330299	0.831917	0.417866
H190	H	1.336589	0.445527	-0.634113
H191	H	0.592432	0.476768	0.056739
H192	H	0.592384	0.695830	0.275806
O193	O	1.405212	0.468503	-0.277156
H194	H	1.485944	0.420484	-0.301933
O195	O	1.405261	0.256211	-0.147289
H196	H	1.299201	0.277951	-0.122551
O197	O	1.605125	0.280077	0.064995
H198	H	1.711183	0.258341	0.033462
O199	O	1.405151	0.598406	-0.147244
H200	H	1.454712	0.620141	-0.151828
H201	H	1.592397	0.165159	-0.254833
O202	O	1.705069	0.162050	-0.371291
H203	H	1.730417	0.121629	-0.357763
O204	O	1.405220	0.386083	-0.277170
H205	H	1.454802	0.381483	-0.325206
H206	H	1.417979	0.371105	0.056738
H207	H	1.679709	0.175576	0.000037
H208	H	1.592502	0.165150	-0.056647
H209	H	1.679502	0.533479	-0.357758
O210	O	0.405197	0.598391	-0.064855
H211	H	0.454781	0.620111	-0.086583
H212	H	0.791480	0.590137	-0.162271
H213	H	0.592363	0.695805	-0.056598
H214	H	0.330669	0.891335	0.000083
O215	O	0.605052	0.598398	-0.064856
H216	H	0.555443	0.620127	-0.086570
H217	H	1.592263	0.590156	-0.254780
H218	H	0.791528	0.278569	0.056753
O219	O	0.405322	0.468484	0.064988
H220	H	0.361517	0.486529	0.113007
O221	O	0.642633	0.182688	0.096264
H222	H	0.560759	0.178101	0.117993
H223	H	0.791470	-0.098241	0.056786
O224	O	0.642617	0.076656	0.096266
H225	H	0.560752	0.124699	0.117979
H226	H	1.218769	-0.304192	-0.056594
O227	O	0.760337	-0.189281	0.065051
H228	H	0.780127	-0.234294	0.059806
O229	O	1.249907	-0.213162	-0.064856
H230	H	1.331777	-0.261203	-0.086584
O231	O	1.367688	-0.115761	-0.096087
H232	H	1.449560	-0.111172	-0.117803
H233	H	1.218846	0.165154	-0.056634
O234	O	1.367692	-0.009721	-0.096096
H235	H	1.449566	-0.057762	-0.117821
H236	H	1.218858	0.476768	-0.837585
H237	H	0.417930	0.788351	-0.056600
H238	H	1.218801	0.476766	-0.368181
O239	O	1.249982	0.256194	-0.064967
H240	H	1.230192	0.301208	-0.059741
O241	O	0.760441	0.598418	-0.722715
H242	H	0.678562	0.620151	-0.674681
H243	H	0.791542	0.590150	-0.631671
H244	H	0.592310	0.809205	0.056786
