data_functionalizedCrystal
_audit_creation_method	'MofGen! by Chris Wilmer'
_symmetry_space_group_name_H-M	'P1'
_symmetry_Int_Tables_number	1
_symmetry_cell_setting	triclinic
loop_
_symmetry_equiv_pos_as_xyz
  x,y,z
_cell_length_a	17.699091
_cell_length_b	17.699097
_cell_length_c	16.176319
_cell_angle_alpha	90.004855
_cell_angle_beta	89.993562
_cell_angle_gamma	96.712747
loop_
_atom_site_label
_atom_site_type_symbol
_atom_site_fract_x
_atom_site_fract_y
_atom_site_fract_z
O1	O	-0.095762	1.004068	0.068813
O2	O	-0.108204	0.783691	0.068799
O3	O	0.008205	0.900103	0.068804
O4	O	-0.212172	0.887657	0.068809
O5	O	0.008216	0.900101	-0.068690
O6	O	-0.108193	0.783689	-0.068694
O7	O	-0.095752	1.004066	-0.068680
Cu8	Cu	-0.101972	0.893877	-0.081241
Cu9	Cu	-0.101984	0.893880	0.081361
O10	O	-0.212161	0.887654	-0.068684
C11	C	-0.107751	0.755494	0.000051
C12	C	-0.106409	0.671476	0.000046
C13	C	0.036408	0.899655	0.000058
C14	C	0.120425	0.898314	0.000061
C15	C	-0.098185	0.155759	0.075027
C16	C	-0.099441	0.234703	0.075023
C17	C	-0.100065	0.274168	0.000072
C18	C	-0.099424	0.234685	-0.074880
C19	C	-0.098163	0.155743	-0.074875
C20	C	-0.104512	0.553049	-0.074902
C21	C	-0.105776	0.631997	-0.074901
C22	C	-0.105791	0.632009	0.074996
C23	C	-0.104529	0.553067	0.075001
C24	C	-0.103884	0.513592	0.000050
C25	C	-0.102521	0.427992	0.000055
C26	C	-0.101434	0.359765	0.000065
C27	C	0.159887	0.897687	0.075009
C28	C	0.238830	0.896422	0.075009
C29	C	0.278311	0.895790	0.000060
C30	C	0.238843	0.896415	-0.074894
C31	C	0.159901	0.897674	-0.074893
C32	C	0.557209	0.891335	-0.074899
C33	C	0.636157	0.890078	-0.074894
C34	C	0.636138	0.890084	0.075003
C35	C	0.557196	0.891343	0.075004
C36	C	0.517734	0.891964	0.000051
C37	C	0.432135	0.893333	0.000052
C38	C	0.363909	0.894426	0.000058
C39	C	0.759637	0.888103	0.000061
C40	C	0.675619	0.889446	0.000055
C41	C	-0.096204	1.032264	0.000070
C42	C	-0.097547	1.116281	0.000081
N43	N	-0.101988	0.893882	0.195726
N44	N	-0.101962	0.893881	-0.195606
C45	C	-0.050543	0.945525	0.238992
C46	C	-0.050541	0.945528	0.325539
C47	C	-0.101981	0.893884	0.368818
C48	C	-0.153431	0.842239	0.325546
C49	C	-0.153436	0.842240	0.239001
C50	C	-0.153414	0.842233	0.674574
C51	C	-0.153404	0.842234	0.761126
C52	C	-0.050519	0.945521	0.761113
C53	C	-0.050524	0.945522	0.674567
C54	C	-0.101976	0.893880	0.631303
C55	C	-0.101979	0.893879	0.537458
C56	C	-0.101976	0.893881	0.462661
H57	H	-0.097683	0.123631	0.136061
H58	H	0.668300	0.889562	-0.135930
H59	H	-0.195307	0.800183	0.639355
Cl60	Cl	0.507567	0.892141	0.169229
H61	H	0.668276	0.889574	0.136034
Cl62	Cl	0.507609	0.892104	-0.169126
Cl63	Cl	-0.218077	0.777307	0.815534
H64	H	-0.103976	0.520920	-0.135932
H65	H	-0.008626	0.987573	0.796348
H66	H	-0.008651	0.987576	0.203759
Cl67	Cl	-0.106558	0.681609	-0.169132
H68	H	-0.106312	0.664159	0.136025
Cl69	Cl	0.288475	0.895611	-0.169116
Cl70	Cl	0.110292	0.898461	-0.169117
Cl71	Cl	-0.218104	0.777317	0.379953
H72	H	0.127748	0.898206	0.136041
Cl73	Cl	-0.100240	0.284328	0.169245
H74	H	-0.008634	0.987573	0.639332
Cl75	Cl	-0.100207	0.284299	-0.169105
Cl76	Cl	0.014133	1.010452	0.379932
H77	H	-0.104025	0.520938	0.136034
H78	H	-0.195329	0.800188	0.203774
H79	H	-0.097651	0.123601	-0.135904
Cl80	Cl	0.288436	0.895636	0.169234
