data_functionalizedCrystal
_audit_creation_method	'MofGen! by Chris Wilmer'
_symmetry_space_group_name_H-M	'P1'
_symmetry_Int_Tables_number	1
_symmetry_cell_setting	triclinic
loop_
_symmetry_equiv_pos_as_xyz
  x,y,z
_cell_length_a	29.839134
_cell_length_b	29.839131
_cell_length_c	29.839125
_cell_angle_alpha	89.982291
_cell_angle_beta	90.021980
_cell_angle_gamma	89.963719
loop_
_atom_site_label
_atom_site_type_symbol
_atom_site_fract_x
_atom_site_fract_y
_atom_site_fract_z
Zn1	Zn	0.686720	0.178978	0.254125
Zn2	Zn	1.186720	0.678978	0.754125
Zn3	Zn	0.686652	0.254090	0.178995
Zn4	Zn	1.186652	0.754090	0.678995
Zn5	Zn	0.611602	0.178968	0.178995
Zn6	Zn	1.111602	0.678968	0.678995
Zn7	Zn	0.611550	0.254075	0.254083
Zn8	Zn	1.111550	0.754075	0.754083
O9	O	0.649131	0.216528	0.216549
O10	O	1.149131	0.716528	0.716549
O11	O	0.749578	0.188952	0.244176
O12	O	1.249578	0.688952	0.744176
O13	O	0.676690	0.244127	0.116128
O14	O	1.176690	0.744127	0.616128
O15	O	0.621617	0.116102	0.188978
O16	O	1.121617	0.616102	0.688978
O17	O	0.749528	0.244137	0.188979
O18	O	1.249528	0.744137	0.688979
O19	O	0.676805	0.116109	0.244176
O20	O	1.176805	0.616109	0.744176
O21	O	0.621551	0.188935	0.116127
O22	O	1.121551	0.688935	0.616127
O23	O	0.548728	0.188921	0.188938
O24	O	1.048728	0.688921	0.688938
O25	O	0.621528	0.244111	0.316956
O26	O	1.121528	0.744111	0.816956
O27	O	0.548690	0.244101	0.244105
O28	O	1.048690	0.744101	0.744105
O29	O	0.676755	0.188937	0.316987
O30	O	1.176755	0.688937	0.816987
O31	O	0.676639	0.316955	0.188938
O32	O	1.176639	0.816955	0.688938
O33	O	0.621462	0.316944	0.244105
O34	O	1.121462	0.816944	0.744105
C35	C	0.532408	0.216509	0.216517
C36	C	1.032408	0.716509	0.716517
C37	C	0.482474	0.216511	0.216514
C38	C	0.982474	0.716511	0.716514
C39	C	0.649050	0.333250	0.216527
C40	C	1.149050	0.833250	0.716527
C41	C	0.649056	0.383185	0.216533
C42	C	1.149056	0.883185	0.716533
C43	C	0.172820	0.245303	0.245240
C44	C	0.672820	0.745303	0.745240
C45	C	-0.014853	0.245315	0.245260
C46	C	0.485147	0.745315	0.745260
O47	O	-0.039127	0.269774	0.269665
O48	O	0.460873	0.769774	0.769665
N49	N	-0.038311	0.216544	0.216583
N50	N	0.461689	0.716544	0.716583
C51	C	-0.014848	0.187766	0.187902
C52	C	0.485152	0.687766	0.687902
O53	O	-0.039107	0.163291	0.163514
O54	O	0.460893	0.663291	0.663514
C55	C	0.172824	0.187751	0.187884
C56	C	0.672824	0.687751	0.687884
C57	C	0.196280	0.216527	0.216560
C58	C	0.696280	0.716527	0.716560
C59	C	0.196276	0.274076	0.273913
C60	C	0.696276	0.774076	0.773913
C61	C	0.243191	0.274075	0.273906
C62	C	0.743191	0.774075	0.773906
C63	C	0.266651	0.245299	0.245226
C64	C	0.766651	0.745299	0.745226
C65	C	0.243195	0.216526	0.216553
C66	C	0.743195	0.716526	0.716553
C67	C	0.196286	0.158971	0.159205
C68	C	0.696286	0.658971	0.659205
C69	C	0.243207	0.158969	0.159204
C70	C	0.743207	0.658969	0.659204
C71	C	0.266663	0.187745	0.187880
C72	C	0.766663	0.687745	0.687880
C73	C	0.313570	0.187749	0.187865
C74	C	0.813570	0.687749	0.687865
N75	N	0.337029	0.216520	0.216542
N76	N	0.837029	0.716520	0.716542
C77	C	0.313569	0.245295	0.245222
C78	C	0.813569	0.745295	0.745222
C79	C	-0.113379	0.187776	0.187912
C80	C	0.386621	0.687776	0.687912
C81	C	-0.160297	0.187780	0.187916
C82	C	0.339703	0.687780	0.687916
C83	C	-0.160298	0.245329	0.245275
C84	C	0.339702	0.745329	0.745275
C85	C	-0.113380	0.245327	0.245269
C86	C	0.386620	0.745327	0.745269
C87	C	-0.089921	0.216547	0.216589
C88	C	0.410079	0.716547	0.716589
C89	C	0.412095	0.245290	0.245205
C90	C	0.912095	0.745290	0.745205
C91	C	0.459014	0.245287	0.245194
C92	C	0.959014	0.745287	0.745194
C93	C	0.459012	0.187736	0.187837
C94	C	0.959012	0.687736	0.687837
C95	C	0.412096	0.187740	0.187846
C96	C	0.912096	0.687740	0.687846
C97	C	0.388639	0.216519	0.216534
C98	C	0.888639	0.716519	0.716534
O99	O	0.337873	0.163299	0.163477
O100	O	0.837873	0.663299	0.663477
O101	O	0.337836	0.269759	0.269613
O102	O	0.837836	0.769759	0.769613
C103	C	0.125905	0.245304	0.245247
C104	C	0.625905	0.745304	0.745247
C105	C	0.102449	0.216531	0.216574
C106	C	0.602449	0.716531	0.716574
C107	C	0.125909	0.187755	0.187893
C108	C	0.625909	0.687755	0.687893
C109	C	0.055531	0.216535	0.216577
C110	C	0.555531	0.716535	0.716577
C111	C	0.032071	0.245310	0.245258
C112	C	0.532071	0.745310	0.745258
C113	C	0.055529	0.274082	0.273934
C114	C	0.555529	0.774082	0.773934
C115	C	0.102445	0.274080	0.273927
C116	C	0.602445	0.774080	0.773927
C117	C	0.102451	0.158984	0.159217
C118	C	0.602451	0.658984	0.659217
C119	C	0.055535	0.158989	0.159226
C120	C	0.555535	0.658989	0.659226
C121	C	0.032075	0.187764	0.187906
C122	C	0.532075	0.687764	0.687906
C123	C	0.649143	0.216524	0.333728
C124	C	1.149143	0.716524	0.833728
C125	C	0.649148	0.216522	0.383662
C126	C	1.149148	0.716522	0.883662
C127	C	0.766309	0.216547	0.216582
C128	C	1.266309	0.716547	0.716582
C129	C	0.816244	0.216555	0.216596
C130	C	1.316244	0.716555	0.716596
C131	C	0.649225	0.099349	0.216582
C132	C	1.149225	0.599349	0.716582
C133	C	0.649265	0.049415	0.216595
C134	C	1.149265	0.549415	0.716595
C135	C	0.677914	0.692821	0.187866
C136	C	1.177914	1.192821	0.687866
C137	C	0.677969	0.880494	0.187883
C138	C	1.177969	1.380494	0.687883
O139	O	0.702441	0.904753	0.163493
O140	O	1.202441	1.404753	0.663493
N141	N	0.649224	0.903970	0.216583
N142	N	1.149224	1.403970	0.716583
C143	C	0.620465	0.880524	0.245283
C144	C	1.120465	1.380524	0.745283
O145	O	0.596020	0.904798	0.269698
O146	O	1.096020	1.404798	0.769698
C147	C	0.620412	0.692852	0.245268
C148	C	1.120412	1.192852	0.745268
C149	C	0.649156	0.669379	0.216563
C150	C	1.149156	1.169379	0.716563
C151	C	0.706656	0.669348	0.159164
C152	C	1.206656	1.169348	0.659164
C153	C	0.706640	0.622433	0.159158
C154	C	1.206640	1.122433	0.659158
C155	C	0.677882	0.598990	0.187854
C156	C	1.177882	1.098990	0.687854
C157	C	0.649140	0.622463	0.216557
C158	C	1.149140	1.122463	0.716557
C159	C	0.591656	0.669407	0.273969
C160	C	1.091656	1.169407	0.773969
C161	C	0.591646	0.622486	0.273964
C162	C	1.091646	1.122486	0.773964
C163	C	0.620390	0.599013	0.245259
C164	C	1.120390	1.099013	0.745259
C165	C	0.620367	0.552106	0.245248
C166	C	1.120367	1.052106	0.745248
N167	N	0.649112	0.528630	0.216548
N168	N	1.149112	1.028630	0.716548
C169	C	0.677869	0.552072	0.187851
C170	C	1.177869	1.052072	0.687851
C171	C	0.620494	0.979055	0.245289
C172	C	1.120494	1.479055	0.745289
C173	C	0.620507	1.025973	0.245292
C174	C	1.120507	1.525973	0.745292
C175	C	0.678012	1.025939	0.187893
C176	C	1.178012	1.525939	0.687893
C177	C	0.677996	0.979021	0.187887
C178	C	1.177996	1.479021	0.687887
C179	C	0.649239	0.955579	0.216589
C180	C	1.149239	1.455579	0.716589
C181	C	0.677834	0.453547	0.187841
C182	C	1.177834	0.953547	0.687841
C183	C	0.677814	0.406627	0.187836
C184	C	1.177814	0.906627	0.687836
C185	C	0.620311	0.406664	0.245237
C186	C	1.120311	0.906664	0.745237
C187	C	0.620329	0.453580	0.245240
C188	C	1.120329	0.953580	0.745240
C189	C	0.649094	0.477020	0.216540
C190	C	1.149094	0.977020	0.716540
O191	O	0.595912	0.527818	0.269629
O192	O	1.095912	1.027818	0.769629
O193	O	0.702318	0.527791	0.163447
O194	O	1.202318	1.027791	0.663447
C195	C	0.677930	0.739737	0.187872
C196	C	1.177930	1.239737	0.687872
C197	C	0.649188	0.763210	0.216574
C198	C	1.149188	1.263210	0.716574
C199	C	0.620430	0.739767	0.245271
C200	C	1.120430	1.239767	0.745271
C201	C	0.649200	0.810128	0.216578
C202	C	1.149200	1.310128	0.716578
C203	C	0.677958	0.833570	0.187881
C204	C	1.177958	1.333570	0.687881
C205	C	0.706703	0.810094	0.159181
C206	C	1.206703	1.310094	0.659181
C207	C	0.706687	0.763179	0.159175
C208	C	1.206687	1.263179	0.659175
C209	C	0.591685	0.763243	0.273971
C210	C	1.091685	1.263243	0.773971
C211	C	0.591703	0.810158	0.273974
C212	C	1.091703	1.310158	0.773974
C213	C	0.620461	0.833601	0.245277
C214	C	1.120461	1.333601	0.745277
C215	C	0.649145	0.216499	0.099827
C216	C	1.149145	0.716499	0.599827
C217	C	0.649227	0.216374	0.049893
C218	C	1.149227	0.716374	0.549893
C219	C	0.677935	0.187718	0.693325
C220	C	1.177935	0.687718	1.193325
C221	C	0.677957	0.187680	0.880998
C222	C	1.177957	0.687680	1.380998
O223	O	0.702399	0.163232	0.905279
O224	O	1.202399	0.663232	1.405279
N225	N	0.649208	0.216402	0.904448
N226	N	1.149208	0.716402	1.404448
C227	C	0.620449	0.245133	0.880976
C228	C	1.120449	0.745133	1.380976
O229	O	0.595993	0.269559	0.905228
O230	O	1.095993	0.769559	1.405228
C231	C	0.620424	0.245169	0.693304
C232	C	1.120424	0.745169	1.193304
C233	C	0.649179	0.216448	0.669857
C234	C	1.149179	0.716448	1.169857
C235	C	0.706687	0.158999	0.669877
C236	C	1.206687	0.658999	1.169877
C237	C	0.706683	0.159011	0.622962
C238	C	1.206683	0.659011	1.122962
C239	C	0.677927	0.187741	0.599494
C240	C	1.177927	0.687741	1.099494
C241	C	0.649175	0.216460	0.622941
C242	C	1.149175	0.716460	1.122941
C243	C	0.591663	0.273898	0.669833
C244	C	1.091663	0.773898	1.169833
C245	C	0.591659	0.273903	0.622912
C246	C	1.091659	0.773903	1.122912
C247	C	0.620414	0.245183	0.599465
C248	C	1.120414	0.745183	1.099465
C249	C	0.620415	0.245202	0.552558
C250	C	1.120415	0.745202	1.052558
N251	N	0.649164	0.216480	0.529108
N252	N	1.149164	0.716480	1.029108
C253	C	0.677920	0.187749	0.552576
C254	C	1.177920	0.687749	1.052576
C255	C	0.620464	0.245113	0.979507
C256	C	1.120464	0.745113	1.479507
C257	C	0.620471	0.245105	1.026425
C258	C	1.120471	0.745105	1.526425
C259	C	0.677979	0.187650	1.026443
C260	C	1.177979	0.687650	1.526443
C261	C	0.677974	0.187661	0.979524
C262	C	1.177974	0.687661	1.479524
C263	C	0.649214	0.216391	0.956057
C264	C	1.149214	0.716391	1.456057
C265	C	0.677910	0.187776	0.454050
C266	C	1.177910	0.687776	0.954050
C267	C	0.677904	0.187792	0.407130
C268	C	1.177904	0.687792	0.907130
C269	C	0.620395	0.245244	0.407116
C270	C	1.120395	0.745244	0.907116
C271	C	0.620401	0.245230	0.454032
C272	C	1.120401	0.745230	0.954032
C273	C	0.649161	0.216493	0.477497
C274	C	1.149161	0.716493	0.977497
O275	O	0.595982	0.269633	0.528248
O276	O	1.095982	0.769633	1.028248
O277	O	0.702366	0.163320	0.528316
O278	O	1.202366	0.663320	1.028316
C279	C	0.677939	0.187706	0.740240
C280	C	1.177939	0.687706	1.240240
C281	C	0.649187	0.216425	0.763688
C282	C	1.149187	0.716425	1.263688
C283	C	0.620431	0.245155	0.740219
C284	C	1.120431	0.745155	1.240219
C285	C	0.649194	0.216417	0.810605
C286	C	1.149194	0.716417	1.310605
C287	C	0.677950	0.187686	0.834074
C288	C	1.177950	0.687686	1.334074
C289	C	0.706699	0.158964	0.810624
C290	C	1.206699	0.658964	1.310624
C291	C	0.706695	0.158976	0.763708
C292	C	1.206695	0.658976	1.263708
C293	C	0.591682	0.273877	0.763669
C294	C	1.091682	0.773877	1.263669
C295	C	0.591689	0.273864	0.810585
C296	C	1.091689	0.773864	1.310585
C297	C	0.620445	0.245133	0.834053
C298	C	1.120445	0.745133	1.334053
H299	H	0.393001	0.268723	0.268566
H300	H	0.893001	0.768723	0.768566
N301	N	0.707383	1.049889	0.158574
N302	N	1.207383	1.549889	0.658574
N303	N	0.691605	1.076096	0.129932
N304	N	1.191605	1.576096	0.629932
H305	H	0.712348	1.093013	0.109228
H306	H	1.212348	1.593013	0.609228
N307	N	0.590932	0.382722	0.274550
N308	N	1.090932	0.882722	0.774550
N309	N	0.549480	0.388000	0.271530
N310	N	1.049480	0.888000	0.771530
H311	H	0.528732	0.371090	0.292235
H312	H	1.028732	0.871090	0.792235
H313	H	0.730097	0.135623	0.603875
H314	H	1.230097	0.635623	1.103875
N315	N	0.736078	0.129615	0.834593
N316	N	1.236078	0.629615	1.334593
N317	N	0.777531	0.132599	0.829369
N318	N	1.277531	0.632599	1.329369
H319	H	0.798277	0.111871	0.846298
H320	H	1.298277	0.611871	1.346298
N321	N	0.482971	0.158340	0.158539
N322	N	0.982971	0.658340	0.658539
N323	N	0.477712	0.161249	0.117078
N324	N	0.977712	0.661249	0.617078
H325	H	0.494634	0.140485	0.096388
H326	H	0.994634	0.640485	0.596388
H327	H	0.701402	0.959912	0.164514
H328	H	1.201402	1.459912	0.664514
H329	H	0.262305	0.135529	0.135852
H330	H	0.762305	0.635529	0.635852
N331	N	-0.089427	0.158373	0.158612
N332	N	0.410573	0.658373	0.658612
N333	N	-0.110382	0.132690	0.133011
N334	N	0.389618	0.632690	0.633011
H335	H	-0.093468	0.111925	0.112316
H336	H	0.406532	0.611925	0.612316
N337	N	0.707180	0.382648	0.158518
N338	N	1.207180	0.882648	0.658518
N339	N	0.735788	0.356432	0.174349
N340	N	1.235788	0.856432	0.674349
H341	H	0.756526	0.339497	0.153644
H342	H	1.256526	0.839497	0.653644
N343	N	0.736084	0.834038	0.129867
N344	N	1.236084	1.334038	0.629867
N345	N	0.761749	0.813080	0.104241
N346	N	1.261749	1.313080	0.604241
H347	H	0.782500	0.829991	0.083540
H348	H	1.282500	1.329991	0.583540
H349	H	0.596984	0.268637	0.388000
H350	H	1.096984	0.768637	0.888000
H351	H	0.597061	0.268497	1.045512
H352	H	1.097061	0.768497	1.545512
N353	N	0.736050	0.739212	0.129849
N354	N	1.236050	1.239212	0.629849
N355	N	0.761722	0.760156	0.104231
N356	N	1.261722	1.260156	0.604231
H357	H	0.782462	0.743233	0.083518
H358	H	1.282462	1.243233	0.583518
H359	H	0.177180	0.297509	0.297271
H360	H	0.677180	0.797509	0.797271
N361	N	0.591136	1.049940	0.274609
N362	N	1.091136	1.549940	0.774609
N363	N	0.565463	1.028998	0.300227
N364	N	1.065463	1.528998	0.800227
H365	H	0.544719	1.045923	0.320935
H366	H	1.044719	1.545923	0.820935
N367	N	0.591026	0.274557	0.477992
N368	N	1.091026	0.774557	0.977992
N369	N	0.562416	0.258726	0.504161
N370	N	1.062416	0.758726	1.004161
H371	H	0.541665	0.279432	0.521083
H372	H	1.041665	0.779432	1.021083
H373	H	0.597076	0.959972	0.268661
H374	H	1.097076	1.459972	0.768661
H375	H	0.730110	0.135588	0.744622
H376	H	1.230110	0.635588	1.244622
N377	N	0.388141	0.158349	0.158548
N378	N	0.888141	0.658349	0.658548
N379	N	0.409095	0.132660	0.132942
N380	N	0.909095	0.632660	0.632942
H381	H	0.392180	0.111898	0.112252
H382	H	0.892180	0.611898	0.612252
H383	H	0.568248	0.297285	0.688916
H384	H	1.068248	0.797285	1.188916
N385	N	0.267140	0.303471	0.303201
N386	N	0.767140	0.803471	0.803201
N387	N	0.246180	0.329158	0.328805
N388	N	0.746180	0.829158	0.828805
H389	H	0.263091	0.349920	0.349498
H390	H	0.763091	0.849920	0.849498
N391	N	0.736071	0.129657	0.693845
N392	N	1.236071	0.629657	1.193845
N393	N	0.764694	0.145464	0.720025
N394	N	1.264694	0.645464	1.220025
H395	H	0.785451	0.124742	0.736950
H396	H	1.285451	0.624742	1.236950
H397	H	0.701327	0.164374	0.473150
H398	H	1.201327	0.664374	0.973150
N399	N	0.482973	0.274676	0.274493
N400	N	0.982973	0.774676	0.774493
N401	N	0.509177	0.258912	0.303147
N402	N	1.009177	0.758912	0.803147
H403	H	0.526098	0.279667	0.323840
H404	H	1.026098	0.779667	0.823840
N405	N	0.707343	0.158315	0.955583
N406	N	1.207343	0.658315	1.455583
N407	N	0.704395	0.116860	0.960834
N408	N	1.204395	0.616860	1.460834
H409	H	0.725137	0.096131	0.943928
H410	H	1.225137	0.596131	1.443928
N411	N	0.172342	0.129575	0.129909
N412	N	0.672342	0.629575	0.629909
N413	N	0.193302	0.103886	0.104308
N414	N	0.693302	0.603886	0.604308
H415	H	0.176393	0.083123	0.083616
H416	H	0.676393	0.583123	0.583616
N417	N	0.707351	0.158307	1.050427
N418	N	1.207351	0.658307	1.550427
N419	N	0.707348	0.158306	1.092317
N420	N	1.207348	0.658306	1.592317
H421	H	0.728089	0.137582	1.109258
H422	H	1.228089	0.637582	1.609258
N423	N	0.707218	0.477479	0.158522
N424	N	1.207218	0.977479	0.658522
N425	N	0.732874	0.456507	0.132897
N426	N	1.232874	0.956507	0.632897
H427	H	0.753625	0.473409	0.112188
H428	H	1.253625	0.973409	0.612188
H429	H	0.121538	0.297512	0.297278
H430	H	0.621538	0.797512	0.797278
N431	N	0.562313	0.303197	0.834539
N432	N	1.062313	0.803197	1.334539
N433	N	0.562314	0.303184	0.876430
N434	N	1.062314	0.803184	1.376430
H435	H	0.541565	0.323897	0.893347
H436	H	1.041565	0.823897	1.393347
N437	N	-0.089429	0.274725	0.274561
N438	N	0.410571	0.774725	0.774561
N439	N	-0.110387	0.300416	0.300162
N440	N	0.389613	0.800416	0.800162
H441	H	-0.093474	0.321180	0.320852
H442	H	0.406526	0.821180	0.820852
N443	N	0.562302	0.303228	0.739708
N444	N	1.062302	0.803228	1.239708
N445	N	0.536637	0.328867	0.760656
N446	N	1.036637	0.828867	1.260656
H447	H	0.515886	0.349599	0.743735
H448	H	1.015886	0.849599	1.243735
N449	N	0.591080	0.274464	0.955546
N450	N	1.091080	0.774464	1.455546
N451	N	0.565416	0.300104	0.976494
N452	N	1.065416	0.800104	1.476494
H453	H	0.544664	0.320835	0.959574
H454	H	1.044664	0.820835	1.459574
N455	N	0.562274	0.303251	0.598949
N456	N	1.062274	0.803251	1.098949
N457	N	0.536604	0.328889	0.619893
N458	N	1.036604	0.828889	1.119893
H459	H	0.515851	0.349616	0.602970
H460	H	1.015851	0.849616	1.102970
N461	N	-0.184273	0.274723	0.274566
N462	N	0.315727	0.774723	0.774566
N463	N	-0.226164	0.274720	0.274561
N464	N	0.273836	0.774720	0.774561
H465	H	-0.243099	0.295477	0.295247
H466	H	0.256901	0.795477	0.795247
N467	N	0.031554	0.303476	0.303224
N468	N	0.531554	0.803476	0.803224
N469	N	-0.010336	0.303470	0.303221
N470	N	0.489664	0.803470	0.803221
H471	H	-0.027272	0.324228	0.323906
H472	H	0.472728	0.824228	0.823906
H473	H	0.036441	0.135556	0.135871
H474	H	0.536441	0.635556	0.635871
N475	N	0.736005	0.598466	0.129834
N476	N	1.236005	1.098466	0.629834
N477	N	0.761677	0.619410	0.104217
N478	N	1.261677	1.119410	0.604217
H479	H	0.782419	0.602487	0.083506
H480	H	1.282419	1.102487	0.583506
H481	H	0.568248	0.688511	0.297342
H482	H	1.068248	1.188511	0.797342
H483	H	0.596925	0.472692	0.268615
H484	H	1.096925	0.972692	0.768615
N485	N	-0.184246	0.158390	0.158615
N486	N	0.315754	0.658390	0.658615
N487	N	-0.163289	0.132701	0.133011
N488	N	0.336711	0.632701	0.633011
H489	H	-0.180201	0.111942	0.112317
H490	H	0.319799	0.611942	0.612317
N491	N	0.126403	0.129586	0.129917
N492	N	0.626403	0.629586	0.629917
N493	N	0.105448	0.103901	0.104318
N494	N	0.605448	0.603901	0.604318
H495	H	0.122362	0.083137	0.083621
H496	H	0.622362	0.583137	0.583621
N497	N	0.562314	0.739296	0.303287
N498	N	1.062314	1.239296	0.803287
N499	N	0.578089	0.713090	0.331932
N500	N	1.078089	1.213090	0.831932
H501	H	0.557344	0.696179	0.352639
H502	H	1.057344	1.196179	0.852639
N503	N	0.736039	0.693282	0.129847
N504	N	1.236039	1.193282	0.629847
N505	N	0.761697	0.672309	0.104226
N506	N	1.261697	1.172309	0.604226
H507	H	0.782449	0.689210	0.083518
H508	H	1.282449	1.189210	0.583518
H509	H	0.568229	0.603402	0.297337
H510	H	1.068229	1.103402	0.797337
N511	N	0.562333	0.834126	0.303297
N512	N	1.062333	1.334126	0.803297
N513	N	0.536660	0.813184	0.328915
N514	N	1.036660	1.313184	0.828915
H515	H	0.515920	0.830109	0.349627
H516	H	1.015920	1.330109	0.849627
H517	H	0.701321	0.164403	0.388042
H518	H	1.201321	0.664403	0.888042
