data_functionalizedCrystal
_audit_creation_method	'MofGen! by Chris Wilmer'
_symmetry_space_group_name_H-M	'P1'
_symmetry_Int_Tables_number	1
_symmetry_cell_setting	triclinic
loop_
_symmetry_equiv_pos_as_xyz
  x,y,z
_cell_length_a	19.188929
_cell_length_b	10.654562
_cell_length_c	18.266242
_cell_angle_alpha	89.988249
_cell_angle_beta	90.026921
_cell_angle_gamma	96.182558
loop_
_atom_site_label
_atom_site_type_symbol
_atom_site_fract_x
_atom_site_fract_y
_atom_site_fract_z
O1	O	-0.098104	1.665764	-0.060968
O2	O	0.401896	2.165764	0.439032
O3	O	-0.107437	1.300090	-0.060963
O4	O	0.392563	1.800090	0.439037
O5	O	-0.001184	1.493480	-0.060920
O6	O	0.498816	1.993480	0.439080
O7	O	-0.204357	1.472375	-0.061011
O8	O	0.295643	1.972375	0.438989
O9	O	-0.001181	1.493447	0.060842
O10	O	0.498819	1.993447	0.560842
O11	O	-0.107434	1.300057	0.060799
O12	O	0.392566	1.800057	0.560799
O13	O	-0.098101	1.665731	0.060794
O14	O	0.401899	2.165731	0.560794
Zn15	Zn	-0.102767	1.482889	0.080129
Zn16	Zn	0.397233	1.982889	0.580129
Zn17	Zn	-0.102771	1.482932	-0.080298
Zn18	Zn	0.397229	1.982932	0.419702
O19	O	-0.204354	1.472342	0.060751
O20	O	0.295646	1.972342	0.560751
C21	C	-0.106749	1.253291	-0.000080
C22	C	0.393251	1.753291	0.499920
C23	C	-0.104693	1.113892	-0.000076
C24	C	0.395307	1.613892	0.499924
C25	C	-0.103732	1.048363	0.066291
C26	C	0.396268	1.548363	0.566291
C27	C	-0.101806	0.917382	0.066280
C28	C	0.398194	1.417382	0.566280
C29	C	-0.101804	0.917468	-0.066472
C30	C	0.398196	1.417468	0.433528
C31	C	-0.103725	1.048448	-0.066460
C32	C	0.396275	1.548448	0.433540
C33	C	-0.104700	1.113807	0.132675
C34	C	0.395300	1.613807	0.632675
C35	C	-0.103740	1.048278	0.199047
C36	C	0.396260	1.548278	0.699047
C37	C	-0.101813	0.917297	0.199036
C38	C	0.398187	1.417297	0.699036
C39	C	-0.100847	0.851844	0.132652
C40	C	0.399153	1.351844	0.632652
C41	C	-0.230371	1.473042	-0.000141
C42	C	0.269629	1.973042	0.499859
C43	C	-0.307889	1.475093	-0.000176
C44	C	0.192111	1.975093	0.499824
C45	C	-0.352068	1.361619	-0.000160
C46	C	0.147932	1.861619	0.499840
C47	C	-0.424904	1.363546	-0.000143
C48	C	0.075096	1.863546	0.499857
C49	C	-0.453559	1.478955	-0.000129
C50	C	0.046441	1.978955	0.499871
C51	C	-0.409370	1.592444	-0.000149
C52	C	0.090630	2.092444	0.499851
C53	C	-0.336535	1.590514	-0.000173
C54	C	0.163465	2.090514	0.499827
N55	N	-0.562105	1.567159	0.041355
N56	N	-0.062105	2.067159	0.541355
N57	N	-0.631296	1.568985	0.041379
N58	N	-0.131296	2.068985	0.541379
C59	C	-0.673005	1.484779	-0.000058
C60	C	-0.173005	1.984779	0.499942
N61	N	-0.642912	1.398658	-0.041511
N62	N	-0.142912	1.898658	0.458489
N63	N	-0.573715	1.396828	-0.041532
N64	N	-0.073715	1.896828	0.458468
C65	C	-0.532535	1.481061	-0.000103
C66	C	-0.032535	1.981061	0.499897
C67	C	-0.796163	1.373386	-0.000025
C68	C	-0.296163	1.873386	0.499975
C69	C	-0.869000	1.375319	-0.000013
C70	C	-0.369000	1.875319	0.499987
C71	C	-0.853464	1.604220	-0.000011
C72	C	-0.353464	2.104220	0.499989
C73	C	-0.780628	1.602284	-0.000031
C74	C	-0.280628	2.102284	0.499969
C75	C	-0.751982	1.486864	-0.000034
C76	C	-0.251982	1.986864	0.499966
C77	C	0.024833	1.492780	-0.000029
C78	C	0.524833	1.992780	0.499971
C79	C	0.102351	1.490728	0.000001
C80	C	0.602351	1.990728	0.500001
C81	C	-0.098790	1.712531	-0.000090
C82	C	0.401210	2.212531	0.499910
C83	C	-0.100845	1.851930	-0.000100
C84	C	0.399155	2.351930	0.499900
N85	N	-0.102764	1.482869	0.189616
N86	N	0.397236	1.982869	0.689616
N87	N	-0.102769	1.482963	-0.189785
N88	N	0.397231	1.982963	0.310215
C89	C	-0.145508	1.558786	0.227897
C90	C	0.354492	2.058786	0.727897
C91	C	-0.145506	1.558807	0.304542
C92	C	0.354494	2.058807	0.804542
C93	C	-0.102768	1.482887	0.342903
C94	C	0.397232	1.982887	0.842903
C95	C	-0.060015	1.406965	0.304612
C96	C	0.439985	1.906965	0.804612
C97	C	-0.060013	1.406956	0.227968
C98	C	0.439987	1.906956	0.727968
N99	N	-0.100326	1.372907	0.463259
N100	N	0.399674	1.872907	0.963259
N101	N	-0.100332	1.372919	0.536067
N102	N	0.399668	1.872919	1.036067
C103	C	-0.102771	1.482912	0.573825
C104	C	0.397229	1.982912	1.073825
N105	N	-0.105217	1.592894	0.536024
N106	N	0.394783	2.092894	1.036024
N107	N	-0.105215	1.592880	0.463210
N108	N	0.394785	2.092880	0.963210
C109	C	-0.102765	1.482889	0.426010
C110	C	0.397235	1.982889	0.926010
C111	C	-0.145515	1.558858	0.695214
C112	C	0.354485	2.058858	1.195214
C113	C	-0.145508	1.558882	0.771860
C114	C	0.354492	2.058882	1.271860
C115	C	-0.060022	1.407029	0.771928
C116	C	0.439978	1.907029	1.271928
C117	C	-0.060025	1.407017	0.695283
C118	C	0.439975	1.907017	1.195283
C119	C	-0.102775	1.482929	0.656931
C120	C	0.397225	1.982929	1.156931
H121	H	-0.328749	1.267635	-0.000169
H122	H	0.171251	1.767635	0.499831
F123	F	-0.916019	1.254536	-0.000004
F124	F	-0.416019	1.754536	0.499996
H125	H	-0.432705	1.686411	-0.000150
H126	H	0.067295	2.186411	0.499850
H127	H	-0.876793	1.698188	-0.000053
H128	H	-0.376793	2.198188	0.499947
F129	F	-0.471932	1.242766	-0.000124
F130	F	0.028068	1.742766	0.499876
H131	H	-0.101026	0.863948	0.253080
H132	H	0.398974	1.363948	0.753080
H133	H	-0.744656	1.694688	-0.000039
H134	H	-0.244656	2.194688	0.499961
H135	H	-0.025217	1.345152	0.335850
H136	H	0.474783	1.845152	0.835850
F137	F	-0.191017	1.639560	0.187084
F138	F	0.308983	2.139560	0.687084
H139	H	-0.180313	1.620711	0.803028
H140	H	0.319687	2.120711	1.303028
H141	H	-0.772838	1.279404	-0.000023
H142	H	-0.272838	1.779404	0.499977
H143	H	-0.106270	1.220458	0.132691
H144	H	0.393730	1.720458	0.632691
F145	F	-0.014541	1.326194	0.654539
F146	F	0.485459	1.826194	1.154539
H147	H	-0.180315	1.620628	0.335717
H148	H	0.319685	2.120628	0.835717
H149	H	-0.300564	1.682921	-0.000187
H150	H	0.199436	2.182921	0.499813
H151	H	-0.025205	1.345133	0.196800
H152	H	0.474795	1.845133	0.696800
H153	H	-0.180324	1.620672	0.663986
H154	H	0.319676	2.120672	1.163986
F155	F	-0.014530	1.326241	0.812749
F156	F	0.485470	1.826241	1.312749
H157	H	-0.104521	1.101580	0.253095
H158	H	0.395479	1.601580	0.753095
H159	H	-0.099277	0.745190	0.132648
H160	H	0.400723	1.245190	0.632648
H161	H	-0.101019	0.864165	-0.120518
H162	H	0.398981	1.364165	0.379482
H163	H	-0.104511	1.101802	-0.120502
H164	H	0.395489	1.601802	0.379498
