data_functionalizedCrystal
_audit_creation_method	'MofGen! by Chris Wilmer'
_symmetry_space_group_name_H-M	'P1'
_symmetry_Int_Tables_number	1
_symmetry_cell_setting	triclinic
loop_
_symmetry_equiv_pos_as_xyz
  x,y,z
_cell_length_a	25.639242
_cell_length_b	25.639240
_cell_length_c	25.639233
_cell_angle_alpha	90.014416
_cell_angle_beta	90.023596
_cell_angle_gamma	90.032449
loop_
_atom_site_label
_atom_site_type_symbol
_atom_site_fract_x
_atom_site_fract_y
_atom_site_fract_z
Zn1	Zn	-0.799230	0.208284	-0.295778
Zn2	Zn	-0.799155	0.295703	-0.208349
Zn3	Zn	-0.711806	0.208275	-0.208340
Zn4	Zn	-0.711753	0.295682	-0.295737
O5	O	-0.755486	0.251986	-0.252051
O6	O	-0.872385	0.219892	-0.284201
O7	O	-0.787559	0.284110	-0.135182
O8	O	-0.723456	0.135111	-0.219952
O9	O	-0.872330	0.284118	-0.219968
O10	O	-0.787686	0.135117	-0.284193
O11	O	-0.723384	0.219878	-0.135176
O12	O	-0.638634	0.219858	-0.219912
O13	O	-0.723366	0.284084	-0.368907
O14	O	-0.638595	0.284076	-0.284122
O15	O	-0.787635	0.219872	-0.368938
O16	O	-0.787508	0.368865	-0.219928
O17	O	-0.723294	0.368850	-0.284131
C18	C	-0.619643	0.251964	-0.252012
C19	C	-0.561529	0.251967	-0.252008
C20	C	-0.201155	0.285475	-0.285439
C21	C	-0.146551	0.285478	-0.285446
O22	O	-0.118304	0.313944	-0.313848
N23	N	-0.119247	0.251995	-0.252069
C24	C	-0.146550	0.218503	-0.218686
O25	O	-0.118312	0.190023	-0.190297
C26	C	-0.201154	0.218498	-0.218683
C27	C	-0.228454	0.251987	-0.252058
C28	C	-0.228456	0.318961	-0.318813
C29	C	-0.283056	0.318959	-0.318805
C30	C	-0.310356	0.285471	-0.285424
C31	C	-0.283055	0.251985	-0.252051
C32	C	-0.228456	0.185004	-0.185303
C33	C	-0.283063	0.185002	-0.185302
C34	C	-0.310364	0.218491	-0.218678
C35	C	-0.364955	0.218495	-0.218662
N36	N	-0.392259	0.251978	-0.252039
C37	C	-0.364959	0.285466	-0.285420
C38	C	-0.031880	0.218516	-0.218698
C39	C	0.022723	0.218523	-0.218699
C40	C	0.022719	0.285497	-0.285459
C41	C	-0.031885	0.285492	-0.285455
C42	C	-0.059183	0.251999	-0.252075
C43	C	-0.479624	0.285459	-0.285401
C44	C	-0.534230	0.285455	-0.285389
C45	C	-0.534221	0.218480	-0.218630
C46	C	-0.479620	0.218485	-0.218640
C47	C	-0.452323	0.251976	-0.252030
O48	O	-0.393236	0.190042	-0.190276
O49	O	-0.393204	0.313936	-0.313809
C50	C	-0.755401	0.387829	-0.252037
C51	C	-0.755412	0.445943	-0.252049
C52	C	-0.755503	0.251977	-0.388424
C53	C	-0.755510	0.251973	-0.446538
C54	C	0.108141	0.252006	-0.252084
C55	C	0.050027	0.252009	-0.252082
C56	C	-0.788886	0.697088	-0.285530
C57	C	-0.788875	0.642484	-0.285526
O58	O	-0.817298	0.614206	-0.313978
N59	N	-0.755454	0.615216	-0.252053
C60	C	-0.722045	0.642556	-0.218578
O61	O	-0.693617	0.614350	-0.190106
C62	C	-0.722058	0.697160	-0.218579
C63	C	-0.755478	0.724424	-0.252058
C64	C	-0.822303	0.724352	-0.319005
C65	C	-0.822313	0.778953	-0.319009
C66	C	-0.788905	0.806289	-0.285537
C67	C	-0.755488	0.779025	-0.252061
C68	C	-0.688652	0.724499	-0.185101
C69	C	-0.688669	0.779106	-0.185104
C70	C	-0.722089	0.806370	-0.218583
C71	C	-0.722090	0.860961	-0.218593
N72	N	-0.755511	0.888229	-0.252066
C73	C	-0.788919	0.860892	-0.285538
C74	C	-0.722019	0.527886	-0.218577
C75	C	-0.722003	0.473283	-0.218578
C76	C	-0.788834	0.473215	-0.285527
C77	C	-0.788848	0.527818	-0.285528
C78	C	-0.755441	0.555153	-0.252050
C79	C	-0.788937	0.975557	-0.285544
C80	C	-0.788942	1.030163	-0.285547
C81	C	-0.722113	1.030227	-0.218597
C82	C	-0.722105	0.975626	-0.218596
C83	C	-0.755521	0.948293	-0.252072
O84	O	-0.693683	0.889273	-0.190154
O85	O	-0.817347	0.889106	-0.314001
C86	C	-0.755562	1.115613	-0.252073
C87	C	-0.755534	1.057499	-0.252075
C88	C	-0.789017	0.218439	-0.806923
C89	C	-0.789024	0.218424	-0.861527
O90	O	-0.817470	0.189974	-0.889782
N91	N	-0.755568	0.251850	-0.888821
C92	C	-0.722099	0.285289	-0.861507
O93	O	-0.693643	0.313719	-0.889736
C94	C	-0.722091	0.285301	-0.806904
C95	C	-0.755552	0.251876	-0.779613
C96	C	-0.822476	0.185016	-0.779632
C97	C	-0.822470	0.185032	-0.725031
C98	C	-0.789005	0.218469	-0.697721
C99	C	-0.755547	0.251891	-0.725012
C100	C	-0.688620	0.318737	-0.779591
C101	C	-0.688614	0.318745	-0.724984
C102	C	-0.722076	0.285320	-0.697693
C103	C	-0.722076	0.285344	-0.643102
N104	N	-0.755532	0.251918	-0.615808
C105	C	-0.788997	0.218481	-0.643118
C106	C	-0.722119	0.285262	-0.976178
C107	C	-0.722130	0.285254	-1.030780
C108	C	-0.789054	0.218388	-1.030796
C109	C	-0.789045	0.218399	-0.976193
C110	C	-0.755575	0.251836	-0.948884
C111	C	-0.788982	0.218516	-0.528453
C112	C	-0.788975	0.218535	-0.473848
C113	C	-0.722049	0.285399	-0.473836
C114	C	-0.722058	0.285382	-0.528437
C115	C	-0.755526	0.251936	-0.555744
O116	O	-0.693642	0.313779	-0.614812
O117	O	-0.817444	0.190051	-0.614882
C118	C	-0.755499	0.251957	-0.116208
C119	C	-0.755593	0.251814	-0.058095
H120	H	-0.305287	0.157724	-0.158122
H121	H	-0.694887	0.953427	-0.191340
H122	H	-0.661465	0.801359	-0.157842
C123	C	-0.825586	0.443138	-0.322341
H124	H	-0.820793	0.406714	-0.317539
H125	H	-0.817917	0.452078	-0.357465
H126	H	-0.860725	0.452060	-0.314723
C127	C	-0.685371	1.060304	-0.181777
H128	H	-0.690171	1.096727	-0.186572
H129	H	-0.650231	1.051385	-0.189383
H130	H	-0.693053	1.051360	-0.146655
C131	C	-0.825781	0.181764	-0.443831
H132	H	-0.845707	0.161844	-0.467919
H133	H	-0.848547	0.201770	-0.422536
H134	H	-0.805791	0.158983	-0.422525
H135	H	-0.054103	0.191242	-0.191512
H136	H	-0.206234	0.346231	-0.345999
C137	C	-0.859271	0.148259	-0.695016
H138	H	-0.854481	0.153053	-0.658583
H139	H	-0.851643	0.113129	-0.703968
H140	H	-0.894399	0.155916	-0.703975
C141	C	-0.825800	0.181730	-0.558483
H142	H	-0.845727	0.161833	-0.534403
H143	H	-0.805826	0.158936	-0.579779
H144	H	-0.848572	0.201733	-0.579788
H145	H	-0.816292	0.191181	-0.953976
H146	H	-0.556458	0.191216	-0.191451
H147	H	-0.661352	0.345968	-0.702752
H148	H	-0.305280	0.346228	-0.345984
H149	H	-0.849727	0.157785	-0.801861
H150	H	-0.816302	0.191160	-1.053042
H151	H	-0.457391	0.191217	-0.191462
C152	C	-0.651815	0.355506	-0.809602
H153	H	-0.656610	0.350719	-0.846035
H154	H	-0.616690	0.347850	-0.800641
H155	H	-0.659445	0.390639	-0.800649
H156	H	-0.694888	0.312477	-1.052996
C157	C	-0.825708	1.060151	-0.322372
H158	H	-0.845606	1.036047	-0.342301
H159	H	-0.805699	1.081460	-0.345134
H160	H	-0.848509	1.081439	-0.302394
C161	C	-0.685262	0.557950	-0.181757
H162	H	-0.665354	0.533887	-0.161828
H163	H	-0.705277	0.579243	-0.158996
H164	H	-0.662469	0.579261	-0.201738
H165	H	-0.694805	0.312625	-0.451591
C166	C	-0.685312	0.322057	-0.946143
H167	H	-0.665395	0.341965	-0.970222
H168	H	-0.662537	0.302067	-0.924833
H169	H	-0.705300	0.344847	-0.924851
H170	H	-0.694816	0.312603	-0.550658
H171	H	-0.054109	0.312761	-0.312634
C172	C	-0.859080	0.808937	-0.355831
H173	H	-0.878976	0.784830	-0.375758
H174	H	-0.839076	0.830249	-0.378594
H175	H	-0.881883	0.830223	-0.335852
C176	C	0.052750	0.181686	-0.181986
H177	H	0.089181	0.186482	-0.186766
H178	H	0.043775	0.146570	-0.189701
H179	H	0.043824	0.189287	-0.146840
C180	C	-0.564258	0.322292	-0.322106
H181	H	-0.540176	0.342232	-0.341991
H182	H	-0.585537	0.345044	-0.302066
H183	H	-0.585580	0.302321	-0.344921
C184	C	-0.859051	0.694291	-0.355832
H185	H	-0.878949	0.718356	-0.375768
H186	H	-0.881845	0.672974	-0.335865
H187	H	-0.839025	0.673004	-0.378594
C188	C	-0.449605	0.322283	-0.322145
H189	H	-0.473691	0.342220	-0.342019
H190	H	-0.428336	0.302305	-0.344960
H191	H	-0.428274	0.345045	-0.302122
C192	C	0.052755	0.322329	-0.322183
H193	H	0.089184	0.317529	-0.317407
H194	H	0.043832	0.357448	-0.314474
H195	H	0.043786	0.314722	-0.357326
H196	H	-0.816148	0.953309	-0.312802
C197	C	-0.825614	0.557804	-0.322349
H198	H	-0.845509	0.533698	-0.342279
H199	H	-0.805608	0.579117	-0.345110
H200	H	-0.848418	0.579088	-0.302370
H201	H	-0.694784	0.451089	-0.191323
C202	C	-0.198437	0.148162	-0.148593
H203	H	-0.222523	0.128215	-0.128721
H204	H	-0.177112	0.168120	-0.125774
H205	H	-0.177161	0.125409	-0.168641
H206	H	-0.661439	0.702308	-0.157839
