data_functionalizedCrystal
_audit_creation_method	'MofGen! by Chris Wilmer'
_symmetry_space_group_name_H-M	'P1'
_symmetry_Int_Tables_number	1
_symmetry_cell_setting	triclinic
loop_
_symmetry_equiv_pos_as_xyz
  x,y,z
_cell_length_a	14.971482
_cell_length_b	10.723024
_cell_length_c	13.448316
_cell_angle_alpha	90.001504
_cell_angle_beta	90.004360
_cell_angle_gamma	84.040239
loop_
_atom_site_label
_atom_site_type_symbol
_atom_site_fract_x
_atom_site_fract_y
_atom_site_fract_z
O1	O	1.187821	0.162588	0.082676
O2	O	0.927525	0.182066	0.082681
O3	O	1.063677	-0.009312	0.082675
O4	O	1.051668	0.353966	0.082682
O5	O	1.063663	-0.009310	-0.082709
O6	O	0.927511	0.182068	-0.082703
O7	O	1.187807	0.162590	-0.082707
Cu8	Cu	1.057658	0.172329	-0.097806
Cu9	Cu	1.057674	0.172327	0.097780
O10	O	1.051655	0.353968	-0.082701
C11	C	0.894188	0.181197	-0.000010
C12	C	0.794877	0.178589	-0.000009
C13	C	0.748218	0.177362	-0.090160
C14	C	0.654907	0.174891	-0.090162
C15	C	0.608255	0.173657	-0.000010
C16	C	0.654920	0.174881	0.090149
C17	C	0.748231	0.177342	0.090149
C18	C	0.460431	0.169753	0.090142
C19	C	0.367113	0.167294	0.090143
C20	C	0.367106	0.167302	-0.090168
C21	C	0.460417	0.169764	-0.090168
C22	C	0.507076	0.170990	-0.000009
C23	C	1.062796	-0.055802	-0.000016
C24	C	1.060182	-0.194329	-0.000012
C25	C	1.136365	-0.270109	-0.000012
C26	C	1.133665	-0.413284	-0.000009
C27	C	1.221143	0.163459	-0.000014
C28	C	1.320455	0.166067	-0.000009
C29	C	1.052536	0.400457	-0.000008
C30	C	1.055150	0.538984	-0.000005
N31	N	1.057653	0.172330	-0.235370
C32	C	1.002976	0.096508	-0.712619
C33	C	1.002973	0.096504	-0.608515
C34	C	1.057675	0.172316	-0.556452
C35	C	1.112391	0.248127	-0.608497
C36	C	1.112398	0.248123	-0.712598
C37	C	1.112371	0.248132	-0.391516
C38	C	1.112362	0.248138	-0.287408
C39	C	1.002946	0.096513	-0.287434
C40	C	1.002953	0.096509	-0.391535
C41	C	1.057667	0.172322	-0.443573
N42	N	1.057686	0.172316	0.235344
H43	H	0.498398	0.170776	-0.163578
Br44	Br	0.811522	0.179049	-0.212516
H45	H	0.958426	0.034770	-0.566151
H46	H	0.616923	0.173871	-0.163572
H47	H	0.329131	0.166290	0.163552
H48	H	0.992959	-0.235447	-0.000005
Br49	Br	0.946436	-0.352501	-0.000018
Br50	Br	1.242375	-0.521806	-0.000020
H51	H	0.329112	0.166304	-0.163579
H52	H	0.958426	0.034780	-0.755001
Br53	Br	0.523754	0.171410	0.212502
Br54	Br	0.928703	-0.006365	-0.462193
Br55	Br	1.248414	-0.201590	-0.000004
H56	H	0.958393	0.034786	-0.245060
Br57	Br	1.186638	0.350975	-0.216750
Br58	Br	0.591612	0.173151	0.212500
H59	H	1.156935	0.309848	-0.566098
H60	H	0.786219	0.178344	0.163560
Br61	Br	1.186633	0.351014	-0.462139
Br62	Br	1.186657	0.351000	-0.783222
