data_functionalizedCrystal
_audit_creation_method	'MofGen! by Chris Wilmer'
_symmetry_space_group_name_H-M	'P1'
_symmetry_Int_Tables_number	1
_symmetry_cell_setting	triclinic
loop_
_symmetry_equiv_pos_as_xyz
  x,y,z
_cell_length_a	19.077105
_cell_length_b	12.759394
_cell_length_c	19.076919
_cell_angle_alpha	87.725879
_cell_angle_beta	89.923776
_cell_angle_gamma	87.711291
loop_
_atom_site_label
_atom_site_type_symbol
_atom_site_fract_x
_atom_site_fract_y
_atom_site_fract_z
Zn1	Zn	1.058327	-0.508276	0.440432
Zn2	Zn	1.062986	-0.677203	0.322930
Zn3	Zn	0.945543	-0.494202	0.318225
Zn4	Zn	0.940807	-0.676569	0.435682
O5	O	1.001916	-0.589062	0.379317
O6	O	1.157277	-0.536840	0.428802
O7	O	1.051338	-0.647302	0.223974
O8	O	0.960536	-0.349050	0.334454
O9	O	1.160700	-0.660950	0.342473
O10	O	1.043398	-0.359391	0.424239
O11	O	0.965054	-0.512852	0.220517
O12	O	0.846582	-0.512238	0.329849
O13	O	0.952465	-0.659870	0.534644
O14	O	0.843103	-0.646222	0.416144
O15	O	1.038806	-0.536225	0.538133
O16	O	1.046746	-0.824137	0.337868
O17	O	0.956982	-0.823671	0.420707
C18	C	0.819346	-0.577635	0.371971
C19	C	0.741242	-0.572772	0.368845
C20	C	1.001874	-0.862026	0.379298
C21	C	1.001920	-0.978807	0.379316
C22	C	0.702757	-0.640344	0.412235
C23	C	0.629370	-0.635761	0.409302
C24	C	0.594467	-0.563612	0.362974
C25	C	0.632957	-0.496033	0.319582
C26	C	0.706343	-0.500611	0.322520
C27	C	0.375178	-0.542424	0.349381
C28	C	0.301786	-0.537853	0.346444
C29	C	0.298204	-0.677581	0.436166
C30	C	0.371592	-0.682157	0.439096
C31	C	0.410075	-0.614574	0.395707
N32	N	0.519453	-0.558928	0.359972
N33	N	0.485088	-0.619253	0.398713
C34	C	1.095456	-0.979246	0.293126
C35	C	1.142242	-1.034328	0.250040
C36	C	1.142282	-1.144054	0.250061
C37	C	1.095533	-1.198699	0.293174
C38	C	1.048747	-1.143617	0.336260
C39	C	1.048710	-1.033889	0.336233
C40	C	0.955216	-1.143178	0.422453
C41	C	0.955171	-1.033453	0.422429
C42	C	0.908467	-1.197824	0.465566
C43	C	0.861676	-1.142741	0.508649
C44	C	0.861637	-1.033009	0.508626
C45	C	0.908385	-0.978370	0.465515
C46	C	1.185198	-0.600535	0.386692
C47	C	1.263302	-0.605424	0.389835
C48	C	0.994587	-0.599547	0.562597
C49	C	0.991465	-0.604015	0.640701
C50	C	1.001976	-0.315035	0.379352
C51	C	1.002002	-0.198260	0.379367
C52	C	1.009256	-0.578545	0.196751
C53	C	1.012515	-0.573790	0.118654
C54	C	1.034948	-0.541742	0.679212
C55	C	1.032006	-0.545935	0.752598
C56	C	0.985582	-0.612408	0.787471
C57	C	0.942093	-0.674683	0.748955
C58	C	0.945033	-0.670484	0.675570
C59	C	0.971966	-0.631866	1.006753
C60	C	0.969031	-0.636063	1.080143
C61	C	1.058943	-0.507313	1.083780
C62	C	1.061881	-0.503124	1.010394
C63	C	1.018390	-0.565395	0.971884
N64	N	0.982574	-0.616698	0.862484
N65	N	1.021395	-0.561098	0.896873
H66	H	0.598039	-0.690786	0.444634
O67	O	0.736547	-0.710461	0.457301
C68	C	0.686840	-0.769134	0.494958
H69	H	0.634435	-0.722984	0.495344
H70	H	0.680051	-0.846903	0.468822
C71	C	0.776867	-0.847193	0.570400
C72	C	0.712504	-0.790507	0.570880
H73	H	0.792699	-0.860382	0.617231
H74	H	0.810357	-0.807668	0.545029
H75	H	0.771202	-0.911994	0.548616
H76	H	0.718172	-0.725703	0.592655
H77	H	0.679016	-0.830023	0.596256
H78	H	0.400005	-0.740911	0.476820
H79	H	0.266864	-0.732601	0.471492
O80	O	1.187635	-1.197677	0.208174
C81	C	1.149499	-1.256113	0.161155
H82	H	1.095243	-1.270673	0.183756
H83	H	1.143890	-1.210420	0.108754
C84	C	1.255349	-1.344119	0.122290
C85	C	1.188712	-1.362009	0.150052
H86	H	1.279538	-1.409438	0.115438
H87	H	1.281042	-1.304746	0.153965
H88	H	1.250665	-1.306038	0.078626
H89	H	1.193396	-1.400077	0.193719
H90	H	1.163020	-1.401391	0.118383
H91	H	0.936563	-0.682588	0.975407
O92	O	0.598945	-0.426034	0.274600
C93	C	0.525919	-0.436463	0.281323
H94	H	0.514973	-0.518284	0.303836
H95	H	0.503612	-0.375083	0.317986
C96	C	0.504514	-0.319747	0.181078
C97	C	0.491070	-0.420244	0.208723
H98	H	0.483016	-0.309738	0.136296
H99	H	0.553713	-0.312717	0.176550
H100	H	0.485925	-0.268609	0.211637
H101	H	0.509667	-0.471380	0.178169
H102	H	0.441873	-0.427282	0.213245
H103	H	0.273371	-0.479088	0.308723
H104	H	0.406502	-0.487401	0.314044
H105	H	0.737676	-0.445582	0.287190
H106	H	0.908353	-0.889026	0.465488
H107	H	1.095576	-1.288044	0.293193
O108	O	0.908376	-1.304403	0.465583
C109	C	0.841783	-1.335911	0.444775
H110	H	0.800800	-1.270872	0.455108
H111	H	0.842671	-1.352004	0.386417
C112	C	0.873539	-1.516333	0.474231
C113	C	0.823202	-1.436454	0.486927
H114	H	0.862078	-1.578355	0.500229
H115	H	0.918405	-1.495107	0.488248
H116	H	0.874274	-1.529730	0.425598
H117	H	0.822473	-1.423049	0.535558
H118	H	0.778335	-1.457681	0.472920
O119	O	1.187584	-0.981080	0.208181
C120	C	1.177531	-0.872423	0.217411
H121	H	1.122362	-0.855410	0.238200
H122	H	1.217676	-0.845953	0.256529
C123	C	1.254602	-0.833367	0.121032
C124	C	1.186840	-0.812469	0.146561
H125	H	1.260347	-0.796383	0.077330
H126	H	1.261377	-0.906571	0.114815
H127	H	1.288049	-0.811308	0.153637
H128	H	1.153395	-0.834540	0.113960
H129	H	1.180059	-0.739267	0.152771
H130	H	1.095419	-0.889901	0.293096
H131	H	0.823620	-1.187243	0.543752
H132	H	0.823541	-0.988168	0.543715
O133	O	0.923869	-0.700660	1.113909
C134	C	0.886125	-0.754742	1.064185
H135	H	0.885792	-0.708564	1.011781
H136	H	0.912149	-0.835699	1.057404
C137	C	0.810598	-0.823552	1.154180
C138	C	0.810185	-0.766832	1.089818
H139	H	0.763756	-0.831015	1.169992
H140	H	0.836029	-0.787120	1.187681
H141	H	0.832289	-0.891011	1.148520
H142	H	0.788503	-0.699371	1.095480
H143	H	0.784749	-0.803253	1.056318
O144	O	1.080119	-0.477320	0.645308
C145	C	1.127182	-0.537536	0.604665
H146	H	1.130624	-0.621819	0.626943
H147	H	1.107682	-0.536613	0.548173
C148	C	1.196058	-0.387191	0.579127
C149	C	1.200289	-0.490707	0.606492
H150	H	1.241153	-0.358303	0.580250
H151	H	1.164349	-0.346620	0.606506
H152	H	1.179804	-0.386436	0.532052
H153	H	1.216534	-0.491459	0.653569
H154	H	1.232003	-0.531277	0.579120
H155	H	1.067416	-0.495228	0.783950
O156	O	0.897057	-0.739230	0.782940
C157	C	0.903774	-0.729567	0.855970
H158	H	0.957610	-0.699131	0.868184
H159	H	0.861274	-0.672201	0.875123
C160	C	0.829678	-0.875003	0.878370
C161	C	0.895802	-0.837629	0.893371
H162	H	0.824758	-0.941658	0.901442
H163	H	0.825150	-0.881511	0.829168
H164	H	0.794268	-0.827188	0.894331
H165	H	0.931210	-0.885437	0.877402
H166	H	0.900336	-0.831131	0.942571
H167	H	0.909617	-0.721182	0.644215
O168	O	1.106994	-0.438457	0.976629
C169	C	1.144756	-0.384410	1.026358
H170	H	1.113881	-0.381961	1.077510
H171	H	1.197803	-0.426672	1.036309
C172	C	1.193979	-0.274599	0.935314
C173	C	1.156054	-0.271584	0.998137
H174	H	1.200952	-0.205004	0.917906
H175	H	1.168540	-0.311014	0.901810
H176	H	1.238180	-0.309822	0.943614
H177	H	1.111851	-0.236373	0.989834
H178	H	1.181486	-0.235160	1.031639
H179	H	1.094350	-0.456614	1.115143
