data_functionalizedCrystal
_audit_creation_method	'MofGen! by Chris Wilmer'
_symmetry_space_group_name_H-M	'P1'
_symmetry_Int_Tables_number	1
_symmetry_cell_setting	triclinic
loop_
_symmetry_equiv_pos_as_xyz
  x,y,z
_cell_length_a	16.625548
_cell_length_b	16.959454
_cell_length_c	16.959447
_cell_angle_alpha	90.026818
_cell_angle_beta	89.981950
_cell_angle_gamma	89.978857
loop_
_atom_site_label
_atom_site_type_symbol
_atom_site_fract_x
_atom_site_fract_y
_atom_site_fract_z
Zn1	Zn	1.232674	0.314643	-0.446952
Zn2	Zn	1.566007	0.647976	-0.113618
Zn3	Zn	1.899341	0.981309	0.219715
Zn4	Zn	1.232589	0.446835	-0.314781
Zn5	Zn	1.565922	0.780169	0.018552
Zn6	Zn	1.899255	1.113502	0.351885
Zn7	Zn	1.097842	0.314677	-0.314787
Zn8	Zn	1.431175	0.648011	0.018547
Zn9	Zn	1.764508	0.981344	0.351880
Zn10	Zn	1.097812	0.446786	-0.446917
Zn11	Zn	1.431145	0.780119	-0.113584
Zn12	Zn	1.764478	1.113452	0.219749
O13	O	1.165229	0.380735	-0.380859
O14	O	1.498562	0.714069	-0.047526
O15	O	1.831896	1.047402	0.285807
O16	O	1.345495	0.332185	-0.429431
O17	O	1.678828	0.665518	-0.096098
O18	O	2.012162	0.998851	0.237235
O19	O	1.214691	0.429340	-0.204171
O20	O	1.548024	0.762673	0.129162
O21	O	1.881358	1.096006	0.462495
O22	O	1.115776	0.204062	-0.332335
O23	O	1.449109	0.537395	0.000998
O24	O	1.782442	0.870728	0.334331
O25	O	1.345432	0.429306	-0.332326
O26	O	1.678766	0.762639	0.001007
O27	O	2.012099	1.095973	0.334340
O28	O	1.214836	0.204036	-0.429436
O29	O	1.548170	0.537370	-0.096103
O30	O	1.881503	0.870703	0.237230
O31	O	1.115693	0.332244	-0.204175
O32	O	1.449026	0.665577	0.129158
O33	O	1.782360	0.998910	0.462492
O34	O	0.985005	0.332195	-0.332302
O35	O	1.318339	0.665529	0.001031
O36	O	1.651672	0.998862	0.334365
O37	O	1.115725	0.429221	-0.557533
O38	O	1.449058	0.762555	-0.224200
O39	O	1.782391	1.095888	0.109134
O40	O	0.984983	0.429255	-0.429378
O41	O	1.318317	0.762588	-0.096045
O42	O	1.651650	1.095921	0.237289
O43	O	1.214807	0.332137	-0.557558
O44	O	1.548141	0.665470	-0.224225
O45	O	1.881474	0.998803	0.109109
O46	O	1.214662	0.557440	-0.332293
O47	O	1.547995	0.890773	0.001040
O48	O	1.881329	1.224106	0.334374
O49	O	1.115642	0.557403	-0.429373
O50	O	1.448975	0.890736	-0.096040
O51	O	1.782309	1.224070	0.237294
C52	C	0.955738	0.380724	-0.380837
C53	C	1.289071	0.714057	-0.047504
C54	C	1.622405	1.047391	0.285829
C55	C	0.866117	0.380738	-0.380847
C56	C	1.199450	0.714071	-0.047513
C57	C	1.532784	1.047405	0.285820
C58	C	1.165161	0.586102	-0.380846
C59	C	1.498495	0.919435	-0.047513
C60	C	1.831828	1.252768	0.285821
C61	C	1.165206	0.673958	-0.380867
C62	C	1.498540	1.007291	-0.047533
C63	C	1.831873	1.340625	0.285800
C64	C	1.165272	0.380670	-0.587028
C65	C	1.498605	0.714003	-0.253694
C66	C	1.831939	1.047336	0.079639
C67	C	1.165291	0.380642	-0.674884
C68	C	1.498624	0.713975	-0.341551
C69	C	1.831957	1.047308	-0.008218
C70	C	0.537941	0.380743	-0.380880
C71	C	0.871275	0.714077	-0.047547
C72	C	1.204608	1.047410	0.285786
C73	C	0.629250	0.380740	-0.380868
C74	C	0.962583	0.714073	-0.047535
C75	C	1.295916	1.047406	0.285798
C76	C	0.702026	0.380741	-0.380863
C77	C	1.035360	0.714075	-0.047529
C78	C	1.368693	1.047408	0.285804
C79	C	0.793341	0.380737	-0.380852
C80	C	1.126674	0.714070	-0.047519
C81	C	1.460007	1.047403	0.285815
C82	C	1.375538	0.380747	-0.380882
C83	C	1.708871	0.714081	-0.047549
C84	C	2.042204	1.047414	0.285785
C85	C	1.465159	0.380752	-0.380892
C86	C	1.798492	0.714086	-0.047558
C87	C	2.131826	1.047419	0.285775
C88	C	1.165319	0.174567	-0.380890
C89	C	1.498652	0.507900	-0.047557
C90	C	1.831985	0.841234	0.285777
C91	C	1.165357	0.086710	-0.380903
C92	C	1.498690	0.420044	-0.047570
C93	C	1.832024	0.753377	0.285763
C94	C	1.113744	1.045445	-0.431403
C95	C	1.447077	1.378778	-0.098070
C96	C	1.780411	1.712111	0.235263
C97	C	1.216938	1.045423	-0.330396
C98	C	1.550272	1.378756	0.002938
C99	C	1.883605	1.712089	0.336271
C100	C	1.216910	0.962877	-0.330389
C101	C	1.550244	1.296210	0.002945
C102	C	1.883577	1.629544	0.336278
C103	C	1.165297	0.921611	-0.380889
C104	C	1.498631	1.254944	-0.047555
C105	C	1.831964	1.588278	0.285778
C106	C	1.113713	0.962891	-0.431396
C107	C	1.447046	1.296224	-0.098063
C108	C	1.780379	1.629558	0.235271
C109	C	1.268488	0.921591	-0.279876
C110	C	1.601822	1.254924	0.053457
C111	C	1.935155	1.588257	0.386790
C112	C	1.268462	0.839040	-0.279867
C113	C	1.601795	1.172373	0.053467
C114	C	1.935128	1.505706	0.386800
C115	C	1.216852	0.797772	-0.330371
C116	C	1.550185	1.131106	0.002962
C117	C	1.883519	1.464439	0.336295
C118	C	1.165266	0.839058	-0.380881
C119	C	1.498599	1.172391	-0.047548
C120	C	1.831933	1.505724	0.285785
C121	C	1.113653	0.797792	-0.431381
C122	C	1.446986	1.131125	-0.098048
C123	C	1.780320	1.464458	0.235285
C124	C	1.062070	0.839075	-0.481896
C125	C	1.395404	1.172409	-0.148563
C126	C	1.728737	1.505742	0.184771
C127	C	1.062103	0.921624	-0.481901
C128	C	1.395436	1.254957	-0.148567
C129	C	1.728770	1.588290	0.184766
C130	C	1.216819	0.715224	-0.330367
C131	C	1.550153	1.048557	0.002967
C132	C	1.883486	1.381891	0.336300
C133	C	1.113621	0.715238	-0.431374
C134	C	1.446955	1.048571	-0.098041
C135	C	1.780288	1.381905	0.235293
C136	C	1.113818	0.330005	-1.046368
C137	C	1.447151	0.663338	-0.713035
C138	C	1.780484	0.996671	-0.379702
C139	C	1.216905	0.431112	-1.046352
C140	C	1.550239	0.764445	-0.713019
C141	C	1.883572	1.097778	-0.379685
C142	C	1.216891	0.431130	-0.963806
C143	C	1.550225	0.764464	-0.630473
C144	C	1.883558	1.097797	-0.297139
C145	C	1.165339	0.380586	-0.922537
C146	C	1.498672	0.713919	-0.589204
C147	C	1.832006	1.047253	-0.255871
C148	C	1.113801	0.330023	-0.963815
C149	C	1.447134	0.663357	-0.630481
C150	C	1.780467	0.996690	-0.297148
C151	C	1.268423	0.481698	-0.922522
C152	C	1.601756	0.815031	-0.589189
C153	C	1.935090	1.148364	-0.255856
C154	C	1.268410	0.481719	-0.839971
C155	C	1.601744	0.815052	-0.506638
C156	C	1.935077	1.148385	-0.173305
C157	C	1.216861	0.431170	-0.798701
C158	C	1.550195	0.764503	-0.465368
C159	C	1.883528	1.097837	-0.132035
C160	C	1.165322	0.380605	-0.839984
C161	C	1.498655	0.713938	-0.506650
C162	C	1.831988	1.047271	-0.173317
C163	C	1.113769	0.330060	-0.798715
C164	C	1.447103	0.663394	-0.465382
C165	C	1.780436	0.996727	-0.132049
C166	C	1.062233	0.279490	-0.839996
C167	C	1.395566	0.612824	-0.506663
C168	C	1.728900	0.946157	-0.173330
C169	C	1.062252	0.279475	-0.922545
C170	C	1.395585	0.612808	-0.589211
C171	C	1.728918	0.946141	-0.255878
C172	C	1.216843	0.431186	-0.716153
C173	C	1.550176	0.764519	-0.382820
C174	C	1.883509	1.097852	-0.049486
C175	C	1.113752	0.330079	-0.716162
C176	C	1.447085	0.663412	-0.382828
C177	C	1.780419	0.996746	-0.049495
C178	C	1.165232	0.380744	-0.175493
C179	C	1.498566	0.714077	0.157840
C180	C	1.831899	1.047410	0.491174
C181	C	1.165370	0.380549	-0.087637
C182	C	1.498703	0.713882	0.245696
C183	C	1.832037	1.047216	0.579030
H184	H	1.071595	0.681644	-0.472500
H185	H	1.404928	1.014978	-0.139167
H186	H	1.738261	1.348311	0.194166
H187	H	1.310385	0.522857	-0.956129
H188	H	1.643718	0.856190	-0.622796
H189	H	1.977052	1.189524	-0.289463
H190	H	1.310503	0.955195	-0.238756
H191	H	1.643836	1.288529	0.094577
H192	H	1.977169	1.621862	0.427910
Cl193	Cl	1.048904	1.097341	-0.494908
Cl194	Cl	1.382238	1.430674	-0.161574
Cl195	Cl	1.715571	1.764008	0.171759
H196	H	1.071775	0.288915	-0.682567
H197	H	1.405108	0.622249	-0.349233
H198	H	1.738442	0.955582	-0.015900
H199	H	1.310374	0.522897	-0.806367
H200	H	1.643707	0.856230	-0.473034
H201	H	1.977040	1.189563	-0.139701
Cl202	Cl	0.997184	0.787189	-0.545375
Cl203	Cl	1.330518	1.120522	-0.212042
Cl204	Cl	1.663851	1.453855	0.121291
Cl205	Cl	0.997466	0.215910	-0.974445
Cl206	Cl	1.330800	0.549244	-0.641112
Cl207	Cl	1.664133	0.882577	-0.307779
H208	H	1.258954	1.079026	-0.289276
H209	H	1.592288	1.412360	0.044057
H210	H	1.925621	1.745693	0.377390
Cl211	Cl	1.333314	0.787148	-0.216371
Cl212	Cl	1.666647	1.120481	0.116962
Cl213	Cl	1.999981	1.453815	0.450296
H214	H	1.020106	0.955244	-0.523026
H215	H	1.353440	1.288578	-0.189693
H216	H	1.686773	1.621911	0.143641
H217	H	1.020256	0.238341	-0.806385
H218	H	1.353589	0.571674	-0.473051
H219	H	1.686922	0.905007	-0.139718
H220	H	1.258813	0.681615	-0.289235
H221	H	1.592147	1.014948	0.044099
H222	H	1.925480	1.348281	0.377432
Cl223	Cl	1.049036	0.266432	-1.098262
Cl224	Cl	1.382369	0.599765	-0.764928
Cl225	Cl	1.715702	0.933098	-0.431595
Cl226	Cl	1.281703	0.494656	-1.098233
Cl227	Cl	1.615036	0.827990	-0.764900
Cl228	Cl	1.948370	1.161323	-0.431566
H229	H	1.258808	0.472354	-0.682546
H230	H	1.592142	0.805687	-0.349212
H231	H	1.925475	1.139020	-0.015879
