data_functionalizedCrystal
_audit_creation_method	'MofGen! by Chris Wilmer'
_symmetry_space_group_name_H-M	'P1'
_symmetry_Int_Tables_number	1
_symmetry_cell_setting	triclinic
loop_
_symmetry_equiv_pos_as_xyz
  x,y,z
_cell_length_a	16.959455
_cell_length_b	18.101395
_cell_length_c	16.959447
_cell_angle_alpha	90.029468
_cell_angle_beta	90.014322
_cell_angle_gamma	90.028051
loop_
_atom_site_label
_atom_site_type_symbol
_atom_site_fract_x
_atom_site_fract_y
_atom_site_fract_z
Zn1	Zn	1.208323	-0.294875	0.446913
Zn2	Zn	1.208220	-0.418728	0.314737
Zn3	Zn	1.076152	-0.294899	0.314751
Zn4	Zn	1.076091	-0.418673	0.446875
O5	O	1.142196	-0.356794	0.380819
O6	O	1.318920	-0.311318	0.429390
O7	O	1.190683	-0.402335	0.204128
O8	O	1.093753	-0.191263	0.332304
O9	O	1.318845	-0.402312	0.332280
O10	O	1.190859	-0.191246	0.429404
O11	O	1.093653	-0.311358	0.204138
O12	O	0.965533	-0.311304	0.332267
O13	O	1.093649	-0.402218	0.557491
O14	O	0.965488	-0.402241	0.429339
O15	O	1.190800	-0.311264	0.557519
O16	O	1.190624	-0.522354	0.332243
O17	O	1.093550	-0.522313	0.429325
C18	C	0.936830	-0.356769	0.380801
C19	C	0.848974	-0.356777	0.380812
C20	C	0.477497	-0.309404	0.330380
C21	C	0.477499	-0.404244	0.431304
C22	C	0.560045	-0.404234	0.431299
C23	C	0.601321	-0.356808	0.380833
C24	C	0.560050	-0.309394	0.330372
C25	C	0.601321	-0.451653	0.481754
C26	C	0.683872	-0.451644	0.481750
C27	C	0.725150	-0.404215	0.431287
C28	C	0.683874	-0.356798	0.380825
C29	C	0.725150	-0.309373	0.330359
C30	C	0.683876	-0.261951	0.279899
C31	C	0.601327	-0.261964	0.279909
C32	C	0.807698	-0.404202	0.431278
C33	C	0.807703	-0.309362	0.330351
C34	C	1.142091	-0.549204	0.380796
C35	C	1.142118	-0.631518	0.380812
C36	C	1.142291	-0.930609	0.380855
C37	C	1.081356	-0.899289	0.442088
C38	C	1.081066	-0.813671	0.441896
C39	C	1.142205	-0.782227	0.380834
C40	C	1.119658	-0.813380	0.297530
C41	C	1.119266	-0.899025	0.297896
C42	C	1.225907	-0.898956	0.402193
C43	C	1.225415	-0.813305	0.404020
C44	C	1.142158	-0.698367	0.380818
C45	C	1.142337	-1.014469	0.380866
C46	C	1.348365	-0.356819	0.380838
C47	C	1.436221	-0.356830	0.380846
C48	C	1.142229	-0.356732	0.586987
C49	C	1.142243	-0.356706	0.674844
C50	C	1.142324	-0.163632	0.380860
C51	C	1.142379	-0.081318	0.380877
C52	C	1.142209	-0.356801	0.175453
C53	C	1.142348	-0.356619	0.087597
C54	C	1.091756	-0.403984	1.046308
C55	C	1.192920	-0.309273	1.046332
C56	C	1.192899	-0.309289	0.963786
C57	C	1.142306	-0.356653	0.922497
C58	C	1.091735	-0.404002	0.963754
C59	C	1.243475	-0.261946	0.922523
C60	C	1.243456	-0.261960	0.839972
C61	C	1.192859	-0.309322	0.798681
C62	C	1.142285	-0.356672	0.839944
C63	C	1.091693	-0.404037	0.798655
C64	C	1.041115	-0.451384	0.839915
C65	C	1.041138	-0.451364	0.922464
C66	C	1.192836	-0.309342	0.716133
C67	C	1.091672	-0.404055	0.716101
H68	H	0.567709	-0.490269	0.522835
Cl69	Cl	1.296003	-0.930242	0.333351
Cl70	Cl	0.425609	-0.463877	0.494726
Cl71	Cl	0.986250	-0.932629	0.420558
Cl72	Cl	0.985376	-0.782130	0.420077
Cl73	Cl	0.859586	-0.249734	0.266908
Cl74	Cl	1.102840	-0.781144	0.537264
Cl75	Cl	1.184806	-0.931021	0.225050
Cl76	Cl	0.735752	-0.511256	0.545186
H77	H	1.284640	-0.223407	0.806384
Cl78	Cl	1.026288	-0.780367	0.269121
H79	H	1.058143	-0.919066	0.279821
H80	H	0.999926	-0.489951	0.806287
H81	H	1.050574	-0.442530	1.079906
Cl82	Cl	0.549436	-0.202356	0.216480
H83	H	1.162645	-0.793014	0.250663
H84	H	1.095322	-0.919836	0.504057
H85	H	0.717493	-0.223341	0.238806
Cl86	Cl	1.257645	-0.932221	0.494382
H87	H	0.443888	-0.270793	0.289299
H88	H	1.242417	-0.792941	0.465328
H89	H	0.841299	-0.442814	0.472359
Cl90	Cl	1.299221	-0.780248	0.340187
Cl91	Cl	1.256523	-0.249738	1.098239
H92	H	1.050466	-0.442619	0.682489
Cl93	Cl	1.256420	-0.249830	0.664266
H94	H	0.999962	-0.489914	0.956066
Cl95	Cl	1.307078	-0.202411	0.974432
