data_functionalizedCrystal
_audit_creation_method	'MofGen! by Chris Wilmer'
_symmetry_space_group_name_H-M	'P1'
_symmetry_Int_Tables_number	1
_symmetry_cell_setting	triclinic
loop_
_symmetry_equiv_pos_as_xyz
  x,y,z
_cell_length_a	10.723022
_cell_length_b	9.198806
_cell_length_c	10.723023
_cell_angle_alpha	89.997827
_cell_angle_beta	84.467387
_cell_angle_gamma	89.996352
loop_
_atom_site_label
_atom_site_type_symbol
_atom_site_fract_x
_atom_site_fract_y
_atom_site_fract_z
O1	O	1.657188	-0.120880	0.175015
O2	O	2.157188	0.379120	0.675015
O3	O	1.294036	-0.120884	0.191771
O4	O	1.794036	0.379116	0.691771
O5	O	1.483989	-0.120876	0.001817
O6	O	1.983989	0.379124	0.501817
O7	O	1.467235	-0.120888	0.364969
O8	O	1.967235	0.379112	0.864969
O9	O	1.483974	0.120909	0.001816
O10	O	1.983974	0.620909	0.501816
O11	O	1.294021	0.120901	0.191770
O12	O	1.794021	0.620901	0.691770
O13	O	1.657173	0.120905	0.175015
O14	O	2.157173	0.620905	0.675015
Cu15	Cu	1.475596	0.142980	0.183392
Cu16	Cu	1.975596	0.642980	0.683392
Cu17	Cu	1.475613	-0.142959	0.183393
Cu18	Cu	1.975613	0.357041	0.683393
O19	O	1.467220	0.120897	0.364969
O20	O	1.967220	0.620897	0.864969
C21	C	1.247529	0.000008	0.190551
C22	C	1.747529	0.500008	0.690551
C23	C	1.108974	0.000006	0.186904
C24	C	1.608974	0.500006	0.686904
C25	C	1.482763	0.000015	-0.044683
C26	C	1.982763	0.500015	0.455317
C27	C	1.479115	0.000010	-0.183238
C28	C	1.979115	0.500010	0.316762
C29	C	0.890796	-0.000000	0.289421
C30	C	1.390796	0.500000	0.789421
C31	C	1.033998	0.000001	0.293192
C32	C	1.533998	0.500001	0.793192
C33	C	1.703681	0.000010	0.176234
C34	C	2.203681	0.500010	0.676234
C35	C	1.842235	0.000003	0.179881
C36	C	2.342235	0.500003	0.679881
N37	N	1.475592	0.344094	0.183391
N38	N	1.975592	0.844094	0.683391
N39	N	1.475627	-0.344073	0.183384
N40	N	1.975627	0.155927	0.683384
C41	C	1.555348	0.416295	0.103283
C42	C	2.055348	0.916295	0.603283
C43	C	1.555367	0.583707	0.103279
C44	C	2.055367	1.083707	0.603279
C45	C	1.473712	0.125252	-0.388212
C46	C	1.973712	0.625252	0.111788
C47	C	1.477481	0.125260	-0.245009
C48	C	1.977481	0.625260	0.254991
C49	C	1.468446	0.000003	0.411469
C50	C	1.968446	0.500003	0.911469
C51	C	1.472094	-0.000002	0.550023
C52	C	1.972094	0.499998	1.050023
H53	H	0.826353	-0.000013	0.380409
H54	H	1.326353	0.499987	0.880409
H55	H	1.407319	0.406219	0.251967
H56	H	1.907319	0.906219	0.751967
H57	H	1.067171	-0.000030	0.093113
H58	H	1.567171	0.499970	0.593113
H59	H	1.623612	0.354171	0.034698
H60	H	2.123612	0.854171	0.534698
H61	H	1.477730	-0.107230	-0.236347
H62	H	1.977730	0.392770	0.263653
F63	F	1.471861	0.265413	-0.457658
F64	F	1.971861	0.765413	0.042342
H65	H	1.075810	0.000007	0.386980
H66	H	1.575810	0.500007	0.886980
F67	F	1.473922	-0.140163	-0.380528
F68	F	1.973922	0.359837	0.119472
F69	F	1.386376	0.574785	0.273041
F70	F	1.886376	1.074785	0.773041
F71	F	0.926460	-0.000003	0.060947
F72	F	1.426460	0.499997	0.560947
F73	F	1.479309	0.265428	-0.175587
F74	F	1.979309	0.765428	0.324413
F75	F	1.644626	0.664859	0.013638
F76	F	2.144626	1.164859	0.513638
