data_functionalizedCrystal
_audit_creation_method	'MofGen! by Chris Wilmer'
_symmetry_space_group_name_H-M	'P1'
_symmetry_Int_Tables_number	1
_symmetry_cell_setting	triclinic
loop_
_symmetry_equiv_pos_as_xyz
  x,y,z
_cell_length_a	14.853558
_cell_length_b	10.654550
_cell_length_c	13.930277
_cell_angle_alpha	90.000509
_cell_angle_beta	89.995722
_cell_angle_gamma	95.941982
loop_
_atom_site_label
_atom_site_type_symbol
_atom_site_fract_x
_atom_site_fract_y
_atom_site_fract_z
O1	O	1.197248	-0.163900	-0.079817
O2	O	0.934892	-0.183443	-0.079821
O3	O	1.072102	0.009131	-0.079815
O4	O	1.060038	-0.356474	-0.079822
O5	O	1.072089	0.009125	0.079847
O6	O	0.934879	-0.183449	0.079841
O7	O	1.197235	-0.163905	0.079845
Zn8	Zn	1.066054	-0.173678	0.105193
Zn9	Zn	1.066072	-0.173671	-0.105168
O10	O	1.060024	-0.356479	0.079839
C11	C	0.901292	-0.182563	0.000010
C12	C	0.801194	-0.179915	0.000008
C13	C	0.754174	-0.178671	-0.087027
C14	C	0.754158	-0.178662	0.087042
C15	C	0.660111	-0.176168	0.087044
C16	C	0.613091	-0.174923	0.000009
C17	C	0.660119	-0.176173	-0.087028
C18	C	0.613077	-0.174905	0.174079
C19	C	0.519024	-0.172410	0.174084
C20	C	0.472002	-0.171174	0.087048
C21	C	0.519036	-0.172425	0.000007
C22	C	0.472016	-0.171181	-0.087028
C23	C	0.519047	-0.172441	-0.174069
C24	C	0.613097	-0.174937	-0.174065
C25	C	0.377953	-0.168678	0.087043
C26	C	0.377961	-0.168683	-0.087029
C27	C	1.071210	0.055917	0.000015
C28	C	1.068559	0.195332	0.000011
C29	C	1.230835	-0.164786	0.000013
C30	C	1.330933	-0.167433	0.000008
C31	C	1.060917	-0.403265	0.000008
C32	C	1.063567	-0.542681	0.000005
N33	N	1.066049	-0.173682	0.248759
C34	C	1.149347	0.275661	0.000015
C35	C	1.146851	0.406656	0.000009
C36	C	0.982774	0.376980	-0.000002
C37	C	0.985271	0.245988	-0.000003
C38	C	1.244075	0.292795	0.000026
C39	C	1.241580	0.423790	0.000019
N40	N	1.066085	-0.173657	-0.248735
C41	C	1.005284	-0.258928	0.299020
C42	C	1.126820	-0.088431	0.299003
C43	C	1.126829	-0.088426	0.399499
C44	C	1.066064	-0.173672	0.449760
C45	C	1.005289	-0.258923	0.399525
C46	C	1.187596	-0.003168	0.449741
C47	C	1.187608	-0.003159	0.550243
C48	C	1.126846	-0.088412	0.600506
C49	C	1.066070	-0.173667	0.550265
C50	C	1.005305	-0.258912	0.600525
C51	C	0.944532	-0.344175	0.550286
C52	C	0.944528	-0.344175	0.449787
C53	C	1.126850	-0.088411	0.701005
C54	C	1.005311	-0.258907	0.701030
H55	H	0.651368	-0.175907	0.244938
C56	C	0.326224	-0.167289	0.182783
N57	N	0.287262	-0.166246	0.254899
H58	H	0.914963	0.418241	-0.000014
C59	C	0.664839	-0.176307	-0.269802
N60	N	0.703815	-0.177332	-0.341910
C61	C	0.938462	-0.352686	0.756309
N62	N	0.888110	-0.423319	0.797945
C63	C	1.254402	0.090638	0.394449
N64	N	1.304714	0.161308	0.352798
C65	C	0.877686	-0.437933	0.605586
N66	N	0.827338	-0.508547	0.647242
C67	C	1.254451	0.090641	0.605497
N68	N	1.304796	0.161294	0.647116
H69	H	0.895048	-0.413592	0.408876
C70	C	0.938435	-0.352710	0.243756
N71	N	0.888084	-0.423346	0.202131
C72	C	0.805876	-0.180097	0.182775
N73	N	0.844832	-0.181206	0.254886
C74	C	0.896399	0.157630	-0.000028
N75	N	0.829456	0.091078	-0.000051
H76	H	0.480740	-0.171382	0.244959
H77	H	1.270214	0.469734	-0.068918
H78	H	1.281133	0.263826	-0.066787
C79	C	0.326247	-0.167311	-0.182777
N80	N	0.287298	-0.166275	-0.254895
C81	C	1.193637	0.005362	0.243713
N82	N	1.243961	0.076018	0.202064
C83	C	1.284819	0.245081	0.093159
N84	N	1.315506	0.209141	0.163308
H85	H	0.480752	-0.171420	-0.244933
C86	C	1.289781	0.480710	0.090289
N87	N	1.326083	0.523581	0.158279
H88	H	0.792470	-0.179702	-0.157894
C89	C	1.193697	0.005369	0.756263
N90	N	1.244053	0.076007	0.797883
