data_functionalizedCrystal
_audit_creation_method	'MofGen! by Chris Wilmer'
_symmetry_space_group_name_H-M	'P1'
_symmetry_Int_Tables_number	1
_symmetry_cell_setting	triclinic
loop_
_symmetry_equiv_pos_as_xyz
  x,y,z
_cell_length_a	9.065218
_cell_length_b	12.503584
_cell_length_c	9.065218
_cell_angle_alpha	86.422094
_cell_angle_beta	85.015919
_cell_angle_gamma	93.572944
loop_
_atom_site_label
_atom_site_type_symbol
_atom_site_fract_x
_atom_site_fract_y
_atom_site_fract_z
O1	O	-1.968801	-0.089371	-0.207929
O2	O	-1.635468	0.243962	0.125404
O3	O	-1.302135	0.577295	0.458737
O4	O	-1.539516	-0.089361	-0.225677
O5	O	-1.206182	0.243972	0.107657
O6	O	-0.872849	0.577306	0.440990
O7	O	-1.763032	-0.089364	-0.002161
O8	O	-1.429698	0.243969	0.331173
O9	O	-1.096365	0.577303	0.664506
O10	O	-1.745286	-0.089368	-0.431445
O11	O	-1.411952	0.243965	-0.098112
O12	O	-1.078619	0.577299	0.235222
O13	O	-1.746221	0.089278	-0.019001
O14	O	-1.412888	0.422611	0.314332
O15	O	-1.079555	0.755945	0.647665
O16	O	-1.522705	0.089281	-0.242517
O17	O	-1.189372	0.422615	0.090816
O18	O	-0.856039	0.755948	0.424150
O19	O	-1.951991	0.089271	-0.224770
O20	O	-1.618658	0.422604	0.108563
O21	O	-1.285324	0.755938	0.441897
Cu22	Cu	-1.735813	0.105588	-0.235181
Cu23	Cu	-1.402480	0.438921	0.098152
Cu24	Cu	-1.069147	0.772254	0.431485
Cu25	Cu	-1.755693	-0.105678	-0.215265
Cu26	Cu	-1.422360	0.227656	0.118068
Cu27	Cu	-1.089027	0.560989	0.451401
O28	O	-1.728475	0.089274	-0.448286
O29	O	-1.395142	0.422607	-0.114952
O30	O	-1.061809	0.755941	0.218381
C31	C	-1.476124	-0.000039	-0.232391
C32	C	-1.142790	0.333295	0.100942
C33	C	-0.809457	0.666628	0.434275
C34	C	-1.312281	-0.000035	-0.227292
C35	C	-0.978947	0.333299	0.106041
C36	C	-0.645614	0.666632	0.439375
N37	N	-1.721842	0.254180	-0.249188
N38	N	-1.388508	0.587513	0.084145
N39	N	-1.055175	0.920847	0.417478
C40	C	-1.701288	0.473296	-0.269806
C41	C	-1.367955	0.806629	0.063528
C42	C	-1.034622	1.139962	0.396861
C43	C	-1.790220	0.526621	-0.180649
C44	C	-1.456887	0.859955	0.152684
C45	C	-1.123553	1.193288	0.486018
C46	C	-1.778784	0.648545	-0.192121
C47	C	-1.445451	0.981878	0.141212
C48	C	-1.112117	1.315211	0.474546
C49	C	-1.712723	0.351361	-0.258336
C50	C	-1.379389	0.684694	0.074998
C51	C	-1.046056	1.018028	0.408331
C52	C	-1.015383	-0.000047	-0.218055
C53	C	-0.682049	0.333286	0.115278
C54	C	-0.348716	0.666620	0.448611
C55	C	-1.179225	-0.000038	-0.223156
C56	C	-0.845891	0.333295	0.110178
C57	C	-0.512558	0.666629	0.443511
C58	C	-1.752921	-0.000045	0.044406
C59	C	-1.419588	0.333289	0.377739
C60	C	-1.086254	0.666622	0.711072
C61	C	-1.747822	-0.000050	0.208249
C62	C	-1.414489	0.333284	0.541582
C63	C	-1.081155	0.666617	0.874916
N64	N	-1.769672	0.745730	-0.201262
N65	N	-1.436338	1.079063	0.132072
N66	N	-1.103005	1.412397	0.465405
C67	C	-1.738586	-0.000048	-0.494852
C68	C	-1.405253	0.333286	-0.161519
C69	C	-1.071919	0.666619	0.171815
C70	C	-1.743686	-0.000050	-0.658695
C71	C	-1.410353	0.333284	-0.325361
C72	C	-1.077019	0.666617	0.007972
H73	H	-1.874946	0.480707	-0.095705
H74	H	-1.541613	0.814041	0.237628
H75	H	-1.208279	1.147374	0.570961
C76	C	-1.586852	0.535313	-0.384564
C77	C	-1.253519	0.868646	-0.051231
C78	C	-0.920185	1.201980	0.282103
H79	H	-1.594097	0.610310	-0.377325
H80	H	-1.260763	0.943643	-0.043992
H81	H	-0.927430	1.276977	0.289341
H82	H	-1.489808	0.516965	-0.365657
H83	H	-1.156475	0.850299	-0.032323
H84	H	-0.823142	1.183632	0.301010
H85	H	-1.606079	0.516945	-0.481522
H86	H	-1.272746	0.850278	-0.148189
H87	H	-0.939412	1.183612	0.185144
