data_functionalizedCrystal
_audit_creation_method	'MofGen! by Chris Wilmer'
_symmetry_space_group_name_H-M	'P1'
_symmetry_Int_Tables_number	1
_symmetry_cell_setting	triclinic
loop_
_symmetry_equiv_pos_as_xyz
  x,y,z
_cell_length_a	7.681481
_cell_length_b	10.654550
_cell_length_c	10.654550
_cell_angle_alpha	84.484931
_cell_angle_beta	84.202374
_cell_angle_gamma	95.782450
loop_
_atom_site_label
_atom_site_type_symbol
_atom_site_fract_x
_atom_site_fract_y
_atom_site_fract_z
O1	O	0.146299	-1.656080	-0.188176
O2	O	0.479632	-1.322747	0.145158
O3	O	0.812965	-0.989414	0.478491
O4	O	0.146331	-1.290599	-0.204984
O5	O	0.479664	-0.957266	0.128349
O6	O	0.812998	-0.623933	0.461682
O7	O	0.146303	-1.481744	-0.013840
O8	O	0.479636	-1.148410	0.319494
O9	O	0.812970	-0.815077	0.652827
O10	O	0.146327	-1.464936	-0.379320
O11	O	0.479660	-1.131602	-0.045987
O12	O	0.812993	-0.798269	0.287347
O13	O	-0.146558	-1.505270	0.009741
O14	O	0.186775	-1.171937	0.343074
O15	O	0.520108	-0.838603	0.676407
O16	O	-0.146530	-1.314126	-0.181404
O17	O	0.186803	-0.980792	0.151930
O18	O	0.520136	-0.647459	0.485263
O19	O	-0.146563	-1.679607	-0.164595
O20	O	0.186771	-1.346273	0.168738
O21	O	0.520104	-1.012940	0.502072
Zn22	Zn	-0.193044	-1.500601	-0.169256
Zn23	Zn	0.140289	-1.167268	0.164078
Zn24	Zn	0.473622	-0.833935	0.497411
Zn25	Zn	0.192813	-1.469604	-0.200324
Zn26	Zn	0.526146	-1.136271	0.133010
Zn27	Zn	0.859479	-0.802938	0.466343
O28	O	-0.146535	-1.488462	-0.355740
O29	O	0.186799	-1.155129	-0.022406
O30	O	0.520132	-0.821795	0.310927
C31	C	-0.000096	-1.255564	-0.191960
C32	C	0.333238	-0.922231	0.141373
C33	C	0.666571	-0.588897	0.474706
C34	C	-0.000084	-1.116120	-0.188269
C35	C	0.333250	-0.782787	0.145064
C36	C	0.666583	-0.449453	0.478397
N37	N	-0.456382	-1.521765	-0.148052
N38	N	-0.123049	-1.188432	0.185282
N39	N	0.210285	-0.855098	0.518615
C40	C	-0.000127	-1.492273	0.044748
C41	C	0.333207	-1.158940	0.378082
C42	C	0.666540	-0.825606	0.711415
C43	C	-0.000124	-1.488581	0.184191
C44	C	0.333210	-1.155247	0.517525
C45	C	0.666543	-0.821914	0.850858
N46	N	0.456150	-1.448451	-0.221518
N47	N	0.789483	-1.115117	0.111815
N48	N	1.122817	-0.781784	0.445149
C49	C	-0.000132	-1.714641	-0.177619
C50	C	0.333201	-1.381308	0.155714
C51	C	0.666534	-1.047975	0.489047
C52	C	-0.000133	-1.854085	-0.181311
C53	C	0.333201	-1.520751	0.152022
C54	C	0.666534	-1.187418	0.485355
C55	C	-0.000081	-1.036634	-0.300811
C56	C	0.333252	-0.703301	0.032522
C57	C	0.666585	-0.369967	0.365856
C58	C	-0.000112	-0.905616	-0.297332
C59	C	0.333221	-0.572282	0.036001
C60	C	0.666554	-0.238949	0.369335
C61	C	-0.000140	-0.933581	-0.068760
C62	C	0.333193	-0.600248	0.264573
C63	C	0.666526	-0.266915	0.597906
C64	C	-0.000122	-1.064598	-0.072240
C65	C	0.333211	-0.731265	0.261094
C66	C	0.666545	-0.397931	0.594427
C67	C	-0.000101	-1.477933	-0.414328
C68	C	0.333232	-1.144599	-0.080995
C69	C	0.666565	-0.811266	0.252339
C70	C	-0.000093	-1.481624	-0.553772
C71	C	0.333241	-1.148291	-0.220439
C72	C	0.666574	-0.814957	0.112895
C73	C	-0.000133	-1.601123	0.263678
C74	C	0.333200	-1.267790	0.597011
C75	C	0.666534	-0.934456	0.930344
C76	C	-0.000111	-1.597645	0.394697
C77	C	0.333222	-1.264311	0.728030
C78	C	0.666556	-0.930978	1.061363
C79	C	-0.000078	-1.369073	0.366731
C80	C	0.333255	-1.035739	0.700064
C81	C	0.666589	-0.702406	1.033398
C82	C	-0.000087	-1.372551	0.235713
C83	C	0.333246	-1.039218	0.569047
C84	C	0.666579	-0.705884	0.902380
H85	H	-0.468642	-1.373611	-0.296505
H86	H	-0.135309	-1.040278	0.036829
H87	H	0.198025	-0.706945	0.370162
H88	H	-0.531599	-1.596618	-0.073069
H89	H	-0.198265	-1.263285	0.260264
H90	H	0.135068	-0.929952	0.593598
H91	H	-0.000063	-1.078580	-0.395289
H92	H	0.333270	-0.745246	-0.061955
H93	H	0.666603	-0.411913	0.271378
H94	H	-0.000182	-0.891616	0.025708
H95	H	0.333151	-0.558283	0.359041
H96	H	0.666485	-0.224950	0.692375
H97	H	-0.000114	-0.840903	-0.388975
H98	H	0.333219	-0.507570	-0.055642
H99	H	0.666553	-0.174236	0.277692
H100	H	-0.000052	-1.274605	0.408697
H101	H	0.333281	-0.941272	0.742030
H102	H	0.666615	-0.607939	1.075364
H103	H	-0.000129	-1.129320	0.019412
H104	H	0.333205	-0.795986	0.352745
H105	H	0.666538	-0.462653	0.686078
H106	H	-0.000159	-1.695601	0.221733
H107	H	0.333175	-1.362268	0.555066
H108	H	0.666508	-1.028935	0.888400
H109	H	-0.000115	-1.689288	0.459410
H110	H	0.333218	-1.355955	0.792743
H111	H	0.666552	-1.022621	1.126077
H112	H	-0.000075	-1.280899	0.170991
H113	H	0.333259	-0.947566	0.504325
H114	H	0.666592	-0.614233	0.837658
