data_functionalizedCrystal
_audit_creation_method	'MofGen! by Chris Wilmer'
_symmetry_space_group_name_H-M	'P1'
_symmetry_Int_Tables_number	1
_symmetry_cell_setting	triclinic
loop_
_symmetry_equiv_pos_as_xyz
  x,y,z
_cell_length_a	6.817900
_cell_length_b	12.840933
_cell_length_c	11.168130
_cell_angle_alpha	81.885358
_cell_angle_beta	108.508653
_cell_angle_gamma	88.345099
loop_
_atom_site_label
_atom_site_type_symbol
_atom_site_fract_x
_atom_site_fract_y
_atom_site_fract_z
V1	V	-3.924380	0.325222	-0.177679
O2	O	-3.887500	0.319023	0.005477
O3	O	-3.901932	0.323006	-0.349364
O4	O	-3.819769	0.467059	-0.176289
O5	O	-3.970232	0.173973	-0.168796
V6	V	-4.411929	0.307131	-0.155613
O7	O	-4.176807	0.364908	-0.226083
O8	O	-4.609699	0.267445	-0.107209
O9	O	-4.211170	0.309347	0.016072
O10	O	-4.566206	0.313330	-0.338769
O11	O	-4.483473	0.458380	-0.164496
O12	O	-4.293334	0.165294	-0.157003
C13	C	-3.755065	0.317878	-0.391175
C14	C	-3.817624	0.317011	-0.531539
C15	C	-3.850549	0.407402	-0.612083
C16	C	-3.915207	0.406508	-0.757157
C17	C	-3.650269	0.501630	-0.170395
C18	C	-3.646115	0.619762	-0.170392
C19	C	-4.126175	0.130717	-0.162895
C20	C	-4.109179	0.012585	-0.162893
V21	V	-3.907330	0.811386	-0.177688
O22	O	-3.942563	0.962592	-0.168802
O23	O	-3.812866	0.664203	-0.176299
O24	O	-3.883343	0.852798	-0.349370
O25	O	-3.871598	0.772690	0.005468
V26	V	-4.392934	0.848831	-0.155629
O27	O	-4.161696	0.795862	-0.226096
O28	O	-4.587972	0.887041	-0.107227
O29	O	-4.264584	0.984767	-0.157014
O30	O	-4.474890	0.703541	-0.164516
O31	O	-4.545855	0.893442	-0.338786
O32	O	-4.194107	0.796171	0.016057
C33	C	-4.021381	0.314472	0.057877
C34	C	-3.938059	0.315345	0.198239
C35	C	-3.736025	0.860335	-0.391172
C36	C	-3.797248	0.897333	-0.531533
C37	C	-4.005357	0.771666	0.057871
C38	C	-3.923410	0.733631	0.198235
C39	C	-4.007015	0.920162	-0.603935
C40	C	-4.064567	0.954942	-0.735817
C41	C	-3.912349	0.966884	-0.795297
C42	C	-3.702563	0.944055	-0.722885
C43	C	-3.645014	0.909284	-0.591003
C44	C	-3.711817	0.703346	0.257688
C45	C	-3.634786	0.667620	0.389577
C46	C	-3.769355	0.662173	0.462008
C47	C	-3.980966	0.692464	0.402547
C48	C	-4.057991	0.728196	0.270662
H49	H	-3.837289	0.238963	-0.569983
H50	H	-3.830860	0.485450	-0.573638
H51	H	-3.578641	0.953784	-0.771333
H52	H	-3.943509	0.483894	-0.826354
H53	H	-3.959238	0.995198	-0.902684
H54	H	-3.909775	0.237956	-0.732571
Cl55	Cl	-4.328305	0.983628	-0.826824
Cl56	Cl	-4.198415	0.905163	-0.529189
H57	H	-3.474199	0.890693	-0.532064
H58	H	-3.602211	0.707781	0.198732
Cl59	Cl	-3.672491	0.617246	0.627807
H60	H	-3.462479	0.642959	0.437970
Cl61	Cl	-4.324012	0.766255	0.195935
H62	H	-4.090515	0.688024	0.461540
