data_functionalizedCrystal
_audit_creation_method	'MofGen! by Chris Wilmer'
_symmetry_space_group_name_H-M	'P1'
_symmetry_Int_Tables_number	1
_symmetry_cell_setting	triclinic
loop_
_symmetry_equiv_pos_as_xyz
  x,y,z
_cell_length_a	29.839134
_cell_length_b	25.639239
_cell_length_c	25.639234
_cell_angle_alpha	90.021106
_cell_angle_beta	89.979276
_cell_angle_gamma	89.966453
loop_
_atom_site_label
_atom_site_type_symbol
_atom_site_fract_x
_atom_site_fract_y
_atom_site_fract_z
Zn1	Zn	0.686723	0.208274	-0.295756
Zn2	Zn	1.186723	0.708274	0.204244
Zn3	Zn	0.686660	0.295696	-0.208320
Zn4	Zn	1.186660	0.795696	0.291680
Zn5	Zn	0.611607	0.208269	-0.208318
Zn6	Zn	1.111607	0.708269	0.291682
Zn7	Zn	0.611557	0.295672	-0.295708
Zn8	Zn	1.111557	0.795672	0.204292
O9	O	0.649137	0.251978	-0.252026
O10	O	1.149137	0.751978	0.247974
O11	O	0.749581	0.219883	-0.284178
O12	O	1.249581	0.719883	0.215822
O13	O	0.676699	0.284107	-0.135155
O14	O	1.176699	0.784107	0.364845
O15	O	0.621619	0.135104	-0.219936
O16	O	1.121619	0.635104	0.280064
O17	O	0.749535	0.284112	-0.219939
O18	O	1.249535	0.784112	0.280061
O19	O	0.676806	0.135108	-0.284176
O20	O	1.176806	0.635108	0.215824
O21	O	0.621558	0.219874	-0.135153
O22	O	1.121558	0.719874	0.364847
O23	O	0.548733	0.219851	-0.219890
O24	O	1.048733	0.719851	0.280110
O25	O	0.621533	0.284071	-0.368880
O26	O	1.121533	0.784071	0.131120
O27	O	0.548696	0.284066	-0.284095
O28	O	1.048696	0.784066	0.215905
O29	O	0.676757	0.219860	-0.368915
O30	O	1.176757	0.719860	0.131085
O31	O	0.676650	0.368858	-0.219893
O32	O	1.176650	0.868858	0.280107
O33	O	0.621472	0.368841	-0.284097
O34	O	1.121472	0.868841	0.215903
C35	C	0.532414	0.251956	-0.251988
C36	C	1.032414	0.751956	0.248012
C37	C	0.482480	0.251959	-0.251984
C38	C	0.982480	0.751959	0.248016
C39	C	0.649061	0.387820	-0.252002
C40	C	1.149061	0.887820	0.247998
C41	C	0.649070	0.445934	-0.252009
C42	C	1.149070	0.945934	0.247991
C43	C	0.649146	0.251963	-0.388399
C44	C	1.149146	0.751963	0.111601
C45	C	0.649150	0.251957	-0.446513
C46	C	1.149150	0.751957	0.053487
C47	C	0.172826	0.285464	-0.285416
C48	C	0.672826	0.785464	0.214584
C49	C	-0.014847	0.285479	-0.285439
C50	C	0.485153	0.785479	0.214561
O51	O	-0.039120	0.313941	-0.313842
O52	O	0.460880	0.813941	0.186158
N53	N	-0.038306	0.251997	-0.252065
N54	N	0.461694	0.751997	0.247935
C55	C	-0.014843	0.218507	-0.218685
C56	C	0.485157	0.718507	0.281315
O57	O	-0.039103	0.190025	-0.190302
O58	O	0.460897	0.690025	0.309698
C59	C	0.172829	0.218490	-0.218664
C60	C	0.672829	0.718490	0.281336
C61	C	0.196285	0.251977	-0.252037
C62	C	0.696285	0.751977	0.247963
C63	C	0.196283	0.318948	-0.318787
C64	C	0.696283	0.818948	0.181213
C65	C	0.243198	0.318946	-0.318779
C66	C	0.743198	0.818946	0.181221
C67	C	0.266657	0.285460	-0.285400
C68	C	0.766657	0.785460	0.214600
C69	C	0.243201	0.251975	-0.252029
C70	C	0.743201	0.751975	0.247971
C71	C	0.196290	0.184997	-0.185287
C72	C	0.696290	0.684997	0.314713
C73	C	0.243211	0.184995	-0.185286
C74	C	0.743211	0.684995	0.314714
C75	C	0.266668	0.218483	-0.218659
C76	C	0.766668	0.718483	0.281341
C77	C	0.313575	0.218487	-0.218642
C78	C	0.813575	0.718487	0.281358
N79	N	0.337034	0.251969	-0.252017
N80	N	0.837034	0.751969	0.247983
C81	C	0.313575	0.285455	-0.285396
C82	C	0.813575	0.785455	0.214604
C83	C	-0.113374	0.218519	-0.218697
C84	C	0.386626	0.718519	0.281303
C85	C	-0.160292	0.218524	-0.218701
C86	C	0.339708	0.718524	0.281299
C87	C	-0.160292	0.285495	-0.285457
C88	C	0.339708	0.785495	0.214543
C89	C	-0.113373	0.285492	-0.285449
C90	C	0.386627	0.785492	0.214551
C91	C	-0.089915	0.252001	-0.252071
C92	C	0.410085	0.752001	0.247929
C93	C	0.412101	0.285449	-0.285376
C94	C	0.912101	0.785449	0.214624
C95	C	0.459021	0.285445	-0.285363
C96	C	0.959021	0.785445	0.214637
C97	C	0.459017	0.218472	-0.218609
C98	C	0.959017	0.718472	0.281391
C99	C	0.412101	0.218477	-0.218620
C100	C	0.912101	0.718477	0.281380
C101	C	0.388644	0.251967	-0.252007
C102	C	0.888644	0.751967	0.247993
O103	O	0.337877	0.190035	-0.190258
O104	O	0.837877	0.690035	0.309742
O105	O	0.337843	0.313924	-0.313782
O106	O	0.837843	0.813924	0.186218
C107	C	0.125911	0.285466	-0.285424
C108	C	0.625911	0.785466	0.214576
C109	C	0.102454	0.251981	-0.252054
C110	C	0.602454	0.751981	0.247946
C111	C	0.125913	0.218495	-0.218675
C112	C	0.625913	0.718495	0.281325
C113	C	0.055537	0.251986	-0.252058
C114	C	0.555537	0.751986	0.247942
C115	C	0.032078	0.285473	-0.285437
C116	C	0.532078	0.785473	0.214563
C117	C	0.055537	0.318955	-0.318811
C118	C	0.555537	0.818955	0.181189
C119	C	0.102452	0.318953	-0.318803
C120	C	0.602452	0.818953	0.181197
C121	C	0.102455	0.185013	-0.185300
C122	C	0.602455	0.685013	0.314700
C123	C	0.055539	0.185018	-0.185311
C124	C	0.555539	0.685018	0.314689
C125	C	0.032080	0.218505	-0.218690
C126	C	0.532080	0.718505	0.281310
C127	C	0.766315	0.252000	-0.252064
C128	C	1.266315	0.752000	0.247936
C129	C	0.816249	0.252010	-0.252080
C130	C	1.316249	0.752010	0.247920
C131	C	0.649225	0.115605	-0.252061
C132	C	1.149225	0.615605	0.247939
C133	C	0.649262	0.057491	-0.252076
C134	C	1.149262	0.557491	0.247924
C135	C	0.677943	0.806294	-0.218652
C136	C	1.177943	1.306294	0.281348
C137	C	0.677960	0.860898	-0.218659
C138	C	1.177960	1.360898	0.281341
O139	O	0.702431	0.889132	-0.190271
O140	O	1.202431	1.389132	0.309729
N141	N	0.649216	0.888217	-0.252060
N142	N	1.149216	1.388217	0.247940
C143	C	0.620455	0.860928	-0.285461
C144	C	1.120455	1.360928	0.214539
O145	O	0.596007	0.889179	-0.313872
O146	O	1.096007	1.389179	0.186128
C147	C	0.620440	0.806325	-0.285456
C148	C	1.120440	1.306325	0.214544
C149	C	0.649183	0.779009	-0.252048
C150	C	1.149183	1.279009	0.247952
C151	C	0.706684	0.778978	-0.185247
C152	C	1.206684	1.278978	0.314753
C153	C	0.706666	0.724378	-0.185240
C154	C	1.206666	1.224378	0.314760
C155	C	0.677906	0.697093	-0.218636
C156	C	1.177906	1.197093	0.281364
C157	C	0.649165	0.724409	-0.252041
C158	C	1.149165	1.224409	0.247959
C159	C	0.591682	0.779037	-0.318859
C160	C	1.091682	1.279037	0.181141
C161	C	0.591670	0.724430	-0.318852
C162	C	1.091670	1.224430	0.181148
C163	C	0.620413	0.697115	-0.285444
C164	C	1.120413	1.197115	0.214556
C165	C	0.620388	0.642523	-0.285430
C166	C	1.120388	1.142523	0.214570
N167	N	0.649132	0.615205	-0.252029
N168	N	1.149132	1.115205	0.247971
C169	C	0.677892	0.642490	-0.218632
C170	C	1.177892	1.142490	0.281368
C171	C	0.620489	0.975599	-0.285469
C172	C	1.120489	1.475599	0.214531
C173	C	0.620501	1.030201	-0.285471
C174	C	1.120501	1.530201	0.214529
C175	C	0.678007	1.030168	-0.218670
C176	C	1.178007	1.530168	0.281330
C177	C	0.677992	0.975564	-0.218665
C178	C	1.177992	1.475564	0.281335
C179	C	0.649233	0.948280	-0.252067
C180	C	1.149233	1.448280	0.247933
C181	C	0.677851	0.527825	-0.218618
C182	C	1.177851	1.027825	0.281382
C183	C	0.677829	0.473219	-0.218612
C184	C	1.177829	0.973219	0.281388
C185	C	0.620325	0.473258	-0.285415
C186	C	1.120325	0.973258	0.214585
C187	C	0.620345	0.527858	-0.285420
C188	C	1.120345	1.027858	0.214580
C189	C	0.649112	0.555140	-0.252019
C190	C	1.149112	1.055140	0.247981
O191	O	0.595931	0.614255	-0.313805
O192	O	1.095931	1.114255	0.186195
O193	O	0.702339	0.614233	-0.190230
O194	O	1.202339	1.114233	0.309770
C195	C	0.620425	0.285326	-0.697682
C196	C	1.120425	0.785326	-0.197682
C197	C	0.620417	0.285338	-0.643078
C198	C	1.120417	0.785338	-0.143078
O199	O	0.595951	0.313761	-0.614821
O200	O	1.095951	0.813761	-0.114821
N201	N	0.649167	0.251915	-0.615787
N202	N	1.149167	0.751915	-0.115787
C203	C	0.677924	0.218474	-0.643102
C204	C	1.177924	0.718474	-0.143102
O205	O	0.702377	0.190046	-0.614875
O206	O	1.202377	0.690046	-0.114875
C207	C	0.677929	0.218460	-0.697706
C208	C	1.177929	0.718460	-0.197706
C209	C	0.649180	0.251889	-0.724994
C210	C	1.149180	0.751889	-0.224994
C211	C	0.591678	0.318752	-0.724971
C212	C	1.091678	0.818752	-0.224971
C213	C	0.591687	0.318740	-0.779572
C214	C	1.091687	0.818740	-0.279572
C215	C	0.620442	0.285303	-0.806884
C216	C	1.120442	0.785303	-0.306884
C217	C	0.649189	0.251878	-0.779595
C218	C	1.149189	0.751878	-0.279595
C219	C	0.706683	0.185017	-0.725020
C220	C	1.206683	0.685017	-0.225020
C221	C	0.706686	0.185005	-0.779627
C222	C	1.206686	0.685005	-0.279627
C223	C	0.677937	0.218434	-0.806916
C224	C	1.177937	0.718434	-0.306916
C225	C	0.677953	0.218429	-0.861507
C226	C	1.177953	0.718429	-0.361507
N227	N	0.649203	0.251852	-0.888799
N228	N	1.149203	0.751852	-0.388799
C229	C	0.620447	0.285289	-0.861487
C230	C	1.120447	0.785289	-0.361487
C231	C	0.677910	0.218505	-0.528432
C232	C	1.177910	0.718505	-0.028432
C233	C	0.677908	0.218521	-0.473829
C234	C	1.177908	0.718521	0.026171
C235	C	0.620400	0.285385	-0.473809
C236	C	1.120400	0.785385	0.026191
C237	C	0.620405	0.285371	-0.528412
C238	C	1.120405	0.785371	-0.028412
C239	C	0.649160	0.251928	-0.555723
C240	C	1.149160	0.751928	-0.055723
C241	C	0.620468	0.285264	-0.976152
C242	C	1.120468	0.785264	-0.476152
C243	C	0.620480	0.285251	-1.030757
C244	C	1.120480	0.785251	-0.530757
C245	C	0.677986	0.218386	-1.030773
C246	C	1.177986	0.718386	-0.530773
C247	C	0.677976	0.218400	-0.976173
C248	C	1.177976	0.718400	-0.476173
C249	C	0.649213	0.251841	-0.948863
C250	C	1.149213	0.751841	-0.448863
O251	O	0.702406	0.190018	-0.889799
O252	O	1.202406	0.690018	-0.389799
O253	O	0.595994	0.313708	-0.889721
O254	O	1.095994	0.813708	-0.389721
C255	C	0.649153	0.251955	-0.116183
C256	C	1.149153	0.751955	0.383817
C257	C	0.649236	0.251814	-0.058069
C258	C	1.149236	0.751814	0.441931
H259	H	0.478117	0.312717	-0.312540
H260	H	0.978117	0.812717	0.187460
O261	O	-0.183091	0.186077	-0.186214
O262	O	0.316909	0.686077	0.313786
C263	C	-0.210259	0.215801	-0.152400
C264	C	0.289741	0.715801	0.347600
H265	H	-0.196142	0.256977	-0.149107
H266	H	0.303858	0.756977	0.350893
H267	H	-0.245815	0.217621	-0.168554
H268	H	0.254185	0.717621	0.331446
C269	C	-0.228312	0.139619	-0.102131
C270	C	0.271688	0.639619	0.397869
C271	C	-0.210971	0.190190	-0.098084
C272	C	0.289029	0.690190	0.401916
H273	H	-0.228753	0.123820	-0.068627
H274	H	0.271247	0.623820	0.431373
H275	H	-0.210010	0.119592	-0.124913
H276	H	0.289990	0.619592	0.375087
H277	H	-0.257941	0.141142	-0.115595
H278	H	0.242059	0.641142	0.384405
H279	H	-0.181341	0.188666	-0.084626
H280	H	0.318659	0.688666	0.415374
H281	H	-0.229268	0.210215	-0.075298
H282	H	0.270732	0.710215	0.424702
O283	O	0.265979	0.152519	-0.152784
O284	O	0.765979	0.652519	0.347216
C285	C	0.254476	0.163863	-0.100657
C286	C	0.754476	0.663863	0.399343
H287	H	0.241557	0.205628	-0.097944
H288	H	0.741557	0.705628	0.402056
H289	H	0.227248	0.135813	-0.087046
H290	H	0.727248	0.635813	0.412954
C291	C	0.312007	0.106429	-0.069096
C292	C	0.812007	0.606429	0.430904
C293	C	0.296144	0.157728	-0.065764
C294	C	0.796144	0.657728	0.434236
H295	H	0.337709	0.102642	-0.047571
H296	H	0.837709	0.602642	0.452429
H297	H	0.319756	0.098784	-0.104215
H298	H	0.819756	0.598784	0.395785
H299	H	0.289314	0.083060	-0.057755
H300	H	0.789314	0.583060	0.442245
H301	H	0.318835	0.181095	-0.077111
H302	H	0.818835	0.681095	0.422889
H303	H	0.288400	0.165376	-0.030646
H304	H	0.788400	0.665376	0.469354
H305	H	0.701398	0.953327	-0.191462
H306	H	1.201398	1.453327	0.308538
O307	O	0.592596	0.317710	-1.057346
O308	O	1.092596	0.817710	-0.557346
C309	C	0.598760	0.310526	-1.111398
C310	C	1.098760	0.810526	-0.611398
H311	H	0.633441	0.293406	-1.118868
H312	H	1.133441	0.793406	-0.618868
H313	H	0.572131	0.282679	-1.126894
H314	H	1.072131	0.782679	-0.626894
C315	C	0.552020	0.384452	-1.130243
C316	C	1.052020	0.884452	-0.630243
C317	C	0.594618	0.363428	-1.139418
C318	C	1.094618	0.863428	-0.639418
H319	H	0.549464	0.417084	-1.147528
H320	H	1.049464	0.917084	-0.647528
H321	H	0.547866	0.389291	-1.093827
H322	H	1.047866	0.889291	-0.593827
H323	H	0.529834	0.361241	-1.143156
H324	H	1.029834	0.861241	-0.643156
H325	H	0.616803	0.386636	-1.126498
H326	H	1.116803	0.886636	-0.626498
H327	H	0.598776	0.358594	-1.175832
H328	H	1.098776	0.858594	-0.675832
O329	O	0.563748	0.805482	-0.351363
O330	O	1.063748	1.305482	0.148637
C331	C	0.538359	0.769680	-0.380827
C332	C	1.038359	1.269680	0.119173
H333	H	0.556752	0.730738	-0.382647
H334	H	1.056752	1.230738	0.117353
H335	H	0.504248	0.763918	-0.361640
H336	H	1.004248	1.263918	0.138360
C337	C	0.509269	0.838789	-0.434237
C338	C	1.009269	1.338789	0.065763
C339	C	0.531861	0.790961	-0.436476
C340	C	1.031861	1.290961	0.063524
H341	H	0.505258	0.851917	-0.468563
H342	H	1.005258	1.351917	0.031437
H343	H	0.526372	0.862910	-0.414385
H344	H	1.026372	1.362910	0.085615
H345	H	0.480845	0.833981	-0.418246
H346	H	0.980845	1.333981	0.081754
H347	H	0.560286	0.795772	-0.452461
H348	H	1.060286	1.295772	0.047539
H349	H	0.514762	0.766842	-0.456331
H350	H	1.014762	1.266842	0.043669
O351	O	0.734697	0.805403	-0.152828
O352	O	1.234697	1.305403	0.347172
C353	C	0.779453	0.791990	-0.164335
C354	C	1.279453	1.291990	0.335665
H355	H	0.780335	0.752343	-0.184452
H356	H	1.280335	1.252343	0.315548
H357	H	0.794589	0.822695	-0.191226
H358	H	1.294589	1.322695	0.308774
C359	C	0.805620	0.838110	-0.088698
C360	C	1.305620	1.338110	0.411302
C361	C	0.806704	0.789413	-0.113402
C362	C	1.306704	1.289413	0.386598
H363	H	0.822431	0.836523	-0.057281
H364	H	1.322431	1.336523	0.442719
H365	H	0.775468	0.847149	-0.080946
H366	H	1.275468	1.347149	0.419054
H367	H	0.818233	0.863692	-0.111112
H368	H	1.318233	1.363692	0.388888
H369	H	0.794087	0.763833	-0.090990
H370	H	1.294087	1.263833	0.409010
H371	H	0.836855	0.780370	-0.121149
H372	H	1.336855	1.280370	0.378851
O373	O	0.389382	0.185903	-0.186182
O374	O	0.889382	0.685903	0.313818
C375	C	0.420151	0.156359	-0.156708
C376	C	0.920151	0.656359	0.343292
H377	H	0.453607	0.154581	-0.178119
H378	H	0.953607	0.654581	0.321881
H379	H	0.425112	0.175448	-0.116963
H380	H	0.925112	0.675448	0.383037
C381	C	0.360776	0.102884	-0.122979
C382	C	0.860776	0.602884	0.377021
C383	C	0.401866	0.100697	-0.149279
C384	C	0.901866	0.600697	0.350721
H385	H	0.349497	0.068550	-0.118394
H386	H	0.849497	0.568550	0.381606
H387	H	0.340046	0.122789	-0.142834
H388	H	0.840046	0.622789	0.357166
H389	H	0.364916	0.118794	-0.089861
H390	H	0.864916	0.618794	0.410139
H391	H	0.397725	0.084793	-0.182398
H392	H	0.897725	0.584793	0.317602
H393	H	0.422595	0.080787	-0.129429
H394	H	0.922595	0.580787	0.370571
H395	H	0.393008	0.312718	-0.312564
H396	H	0.893008	0.812718	0.187436
H397	H	0.036445	0.157749	-0.158130
H398	H	0.536445	0.657749	0.341870
H399	H	0.478125	0.191210	-0.191432
H400	H	0.978125	0.691210	0.308568
H401	H	0.730100	0.157769	-0.801861
H402	H	1.230100	0.657769	-0.301861
O403	O	-0.090659	0.185968	-0.186220
O404	O	0.409341	0.685968	0.313780
C405	C	-0.121431	0.156412	-0.156777
C406	C	0.378569	0.656412	0.343223
H407	H	-0.154883	0.177834	-0.154936
H408	H	0.345117	0.677834	0.345064
H409	H	-0.126399	0.116732	-0.175995
H410	H	0.373601	0.616732	0.324005
C411	C	-0.062058	0.122484	-0.103400
C412	C	0.437942	0.622484	0.396600
C413	C	-0.103144	0.148796	-0.101136
C414	C	0.396856	0.648796	0.398864
H415	H	-0.050777	0.117783	-0.069079
H416	H	0.449223	0.617783	0.430921
H417	H	-0.041326	0.142394	-0.123237
H418	H	0.458674	0.642394	0.376763
H419	H	-0.066204	0.089419	-0.119417
H420	H	0.433796	0.589419	0.380583
H421	H	-0.098997	0.181862	-0.085125
H422	H	0.401003	0.681862	0.414875
H423	H	-0.123875	0.128891	-0.081294
H424	H	0.376125	0.628891	0.418706
O425	O	0.592401	0.317837	-0.447330
O426	O	1.092401	0.817837	0.052670
C427	C	0.547634	0.306387	-0.460650
C428	C	1.047634	0.806387	0.039350
H429	H	0.546719	0.286284	-0.500301
H430	H	1.046719	0.786284	-0.000301
H431	H	0.532520	0.279505	-0.429921
H432	H	1.032520	0.779505	0.070079
C433	C	0.521507	0.382041	-0.414450
C434	C	1.021507	0.882041	0.085550
C435	C	0.520384	0.357354	-0.463152
C436	C	1.020384	0.857354	0.036848
H437	H	0.504697	0.413478	-0.415991
H438	H	1.004697	0.913478	0.084009
H439	H	0.551667	0.389754	-0.405474
H440	H	1.051667	0.889754	0.094526
H441	H	0.508913	0.359634	-0.388847
H442	H	1.008913	0.859634	0.111153
H443	H	0.532982	0.379758	-0.488752
H444	H	1.032982	0.879758	0.011248
H445	H	0.490225	0.349645	-0.472132
H446	H	0.990225	0.849645	0.027868
O447	O	-0.090540	0.317946	-0.317897
O448	O	0.409460	0.817946	0.182103
C449	C	-0.063386	0.288225	-0.351729
C450	C	0.436614	0.788225	0.148271
H451	H	-0.056344	0.248576	-0.333361
H452	H	0.443656	0.748576	0.166639
H453	H	-0.081455	0.282537	-0.390485
H454	H	0.418545	0.782537	0.109515
C455	C	-0.027479	0.365701	-0.383707
C456	C	0.472521	0.865701	0.116293
C457	C	-0.018827	0.317005	-0.361145
C458	C	0.481173	0.817005	0.138855
H459	H	0.000006	0.383455	-0.389518
H460	H	0.500006	0.883455	0.110482
H461	H	-0.045774	0.385726	-0.360915
H462	H	0.454226	0.885726	0.139085
H463	H	-0.042537	0.360954	-0.416001
H464	H	0.457463	0.860954	0.083999
H465	H	-0.003774	0.321753	-0.328849
H466	H	0.496226	0.821753	0.171151
H467	H	-0.000528	0.296982	-0.383932
H468	H	0.499472	0.796982	0.116068
H469	H	0.262292	0.346215	-0.345956
H470	H	0.762292	0.846215	0.154044
H471	H	0.597091	1.052437	-0.312670
H472	H	1.097091	1.552437	0.187330
O473	O	0.705734	0.554384	-0.186154
O474	O	1.205734	1.054384	0.313846
C475	C	0.680195	0.586009	-0.152345
C476	C	1.180195	1.086009	0.347655
H477	H	0.646138	0.594220	-0.170737
H478	H	1.146138	1.094220	0.329263
H479	H	0.675280	0.564992	-0.113587
H480	H	1.175280	1.064992	0.386413
C481	C	0.746770	0.627766	-0.120334
C482	C	1.246770	1.127766	0.379666
C483	C	0.704942	0.637855	-0.142926
C484	C	1.204942	1.137855	0.357074
H485	H	0.762035	0.659746	-0.114521
H486	H	1.262035	1.159746	0.385479
H487	H	0.763977	0.606458	-0.143110
H488	H	1.263977	1.106458	0.356890
H489	H	0.742668	0.610251	-0.088039
H490	H	1.242668	1.110251	0.411961
H491	H	0.709044	0.655363	-0.175223
H492	H	1.209044	1.155363	0.324777
H493	H	0.687736	0.659167	-0.120154
H494	H	1.187736	1.159167	0.379846
O495	O	0.592504	0.949178	-0.317930
O496	O	1.092504	1.449178	0.182070
C497	C	0.567147	0.985004	-0.347418
C498	C	1.067147	1.485004	0.152582
H499	H	0.565621	1.023937	-0.326000
H500	H	1.065621	1.523937	0.174000
H501	H	0.583575	0.990777	-0.387148
H502	H	1.083575	1.490777	0.112852
C503	C	0.521196	0.915930	-0.381197
C504	C	1.021196	1.415930	0.118803
C505	C	0.519317	0.963747	-0.354889
C506	C	1.019317	1.463747	0.145111
H507	H	0.491692	0.902817	-0.385808
H508	H	0.991692	1.402817	0.114192
H509	H	0.538280	0.891793	-0.361332
H510	H	1.038280	1.391793	0.138668
H511	H	0.534887	0.920748	-0.414303
H512	H	1.034887	1.420748	0.085697
H513	H	0.505631	0.958927	-0.321781
H514	H	1.005631	1.458927	0.178219
H515	H	0.502230	0.987883	-0.374748
H516	H	1.002230	1.487883	0.125252
H517	H	0.701426	1.052393	-0.191478
H518	H	1.201426	1.552393	0.308522
O519	O	0.563797	0.697903	-0.351354
O520	O	1.063797	1.197903	0.148646
C521	C	0.589343	0.666263	-0.385143
C522	C	1.089343	1.166263	0.114857
H523	H	0.624730	0.682676	-0.388416
H524	H	1.124730	1.182676	0.111584
H525	H	0.590886	0.624886	-0.368974
H526	H	1.090886	1.124886	0.131026
C527	C	0.523901	0.645265	-0.435448
C528	C	1.023901	1.145265	0.064552
C529	C	0.567362	0.665426	-0.439472
C530	C	1.067362	1.165426	0.060528
H531	H	0.510342	0.644746	-0.468961
H532	H	1.010342	1.144746	0.031039
H533	H	0.506689	0.666579	-0.412683
H534	H	1.006689	1.166579	0.087317
H535	H	0.525192	0.610786	-0.421972
H536	H	1.025192	1.110786	0.078028
H537	H	0.566070	0.699907	-0.452941
H538	H	1.066070	1.199907	0.047059
H539	H	0.584574	0.644117	-0.462241
H540	H	1.084574	1.144117	0.037759
O541	O	0.592520	0.317803	-0.949710
O542	O	1.092520	0.817803	-0.449710
C543	C	0.567147	0.347294	-0.985513
C544	C	1.067147	0.847294	-0.485513
H545	H	0.585554	0.349085	-1.024440
H546	H	1.085554	0.849085	-0.524440
H547	H	0.533037	0.328148	-0.991313
H548	H	1.033037	0.828148	-0.491313
C549	C	0.538037	0.400749	-0.916395
C550	C	1.038037	0.900749	-0.416395
C551	C	0.560646	0.402953	-0.964204
C552	C	1.060646	0.902953	-0.464204
H553	H	0.534024	0.435082	-0.903250
H554	H	1.034024	0.935082	-0.403250
H555	H	0.555129	0.380880	-0.892273
H556	H	1.055129	0.880880	-0.392273
H557	H	0.509613	0.384792	-0.921234
H558	H	1.009613	0.884792	-0.421234
H559	H	0.589071	0.418904	-0.959363
H560	H	1.089071	0.918904	-0.459363
H561	H	0.543558	0.422826	-0.988325
H562	H	1.043558	0.922826	-0.488325
O563	O	0.125169	0.152467	-0.152824
O564	O	0.625169	0.652467	0.347176
C565	C	0.094398	0.122909	-0.123383
C566	C	0.594398	0.622909	0.376617
H567	H	0.060944	0.144328	-0.121545
H568	H	0.560944	0.644328	0.378455
H569	H	0.089434	0.083228	-0.142600
H570	H	0.589434	0.583228	0.357400
C571	C	0.153770	0.088987	-0.070001
C572	C	0.653770	0.588987	0.429999
C573	C	0.112683	0.115296	-0.067740
C574	C	0.612683	0.615296	0.432260
H575	H	0.165050	0.084288	-0.035678
H576	H	0.665050	0.584288	0.464322
H577	H	0.174502	0.108899	-0.089837
H578	H	0.674502	0.608899	0.410163
H579	H	0.149628	0.055922	-0.086018
H580	H	0.649628	0.555922	0.413982
H581	H	0.116826	0.148363	-0.051729
H582	H	0.616826	0.648363	0.448271
H583	H	0.091952	0.095389	-0.047900
H584	H	0.591952	0.595389	0.452100
H585	H	0.568275	0.345960	-0.801785
H586	H	1.068275	0.845960	-0.301785
H587	H	0.701400	0.191164	-1.053020
H588	H	1.201400	0.691164	-0.553020
O589	O	0.705795	0.446766	-0.186142
O590	O	1.205795	0.946766	0.313858
C591	C	0.731174	0.482562	-0.156660
C592	C	1.231174	0.982562	0.343340
H593	H	0.732728	0.521472	-0.178085
H594	H	1.232728	1.021472	0.321915
H595	H	0.714750	0.488409	-0.116931
H596	H	1.214750	0.988409	0.383069
C597	C	0.777079	0.413415	-0.122867
C598	C	1.277079	0.913415	0.377133
C599	C	0.778990	0.461203	-0.149184
C600	C	1.278990	0.961203	0.350816
H601	H	0.806574	0.400240	-0.118252
H602	H	1.306574	0.900240	0.381748
H603	H	0.759980	0.389298	-0.142728
H604	H	1.259980	0.889298	0.357272
H605	H	0.763390	0.418294	-0.089762
H606	H	1.263390	0.918294	0.410238
H607	H	0.792674	0.456323	-0.182290
H608	H	1.292674	0.956323	0.317710
H609	H	0.796093	0.485319	-0.129328
H610	H	1.296093	0.985319	0.370672
H611	H	0.177200	0.157730	-0.158110
H612	H	0.677200	0.657730	0.341890
H613	H	0.121546	0.346221	-0.345979
H614	H	0.621546	0.846221	0.154021
H615	H	0.730094	0.157796	-0.702811
H616	H	1.230094	0.657796	-0.202811
H617	H	0.596941	0.550100	-0.312625
H618	H	1.096941	1.050100	0.187375
O619	O	0.173569	0.351531	-0.351229
O620	O	0.673569	0.851531	0.148771
C621	C	0.204342	0.381069	-0.380687
C622	C	0.704342	0.881069	0.119313
H623	H	0.237776	0.382835	-0.359260
H624	H	0.737776	0.882835	0.140740
H625	H	0.209356	0.361982	-0.420431
H626	H	0.709356	0.861982	0.079569
C627	C	0.144956	0.434564	-0.414438
C628	C	0.644956	0.934564	0.085562
C629	C	0.186019	0.436737	-0.388119
C630	C	0.686019	0.936737	0.111881
H631	H	0.133654	0.468901	-0.419024
H632	H	0.633654	0.968901	0.080976
H633	H	0.124223	0.414662	-0.394593
H634	H	0.624223	0.914662	0.105407
H635	H	0.149140	0.418655	-0.447555
H636	H	0.649140	0.918655	0.052445
H637	H	0.181834	0.452638	-0.355000
H638	H	0.681834	0.952638	0.145000
H639	H	0.206751	0.456642	-0.407958
H640	H	0.706751	0.956642	0.092042
O641	O	0.563730	0.351286	-0.698526
O642	O	1.063730	0.851286	-0.198526
C643	C	0.538354	0.380770	-0.734332
C644	C	1.038354	0.880770	-0.234332
H645	H	0.556762	0.382565	-0.773258
H646	H	1.056762	0.882565	-0.273258
H647	H	0.504246	0.361618	-0.740132
H648	H	1.004246	0.861618	-0.240132
C649	C	0.509234	0.434222	-0.665215
C650	C	1.009234	0.934222	-0.165215
C651	C	0.531845	0.436429	-0.713024
C652	C	1.031845	0.936429	-0.213024
H653	H	0.505216	0.468554	-0.652071
H654	H	1.005216	0.968554	-0.152071
H655	H	0.526328	0.414357	-0.641092
H656	H	1.026328	0.914357	-0.141092
H657	H	0.480813	0.418260	-0.670056
H658	H	0.980813	0.918260	-0.170056
H659	H	0.560267	0.452386	-0.708182
H660	H	1.060267	0.952386	-0.208182
H661	H	0.514754	0.456299	-0.737146
H662	H	1.014754	0.956299	-0.237146
O663	O	0.705870	0.186094	-0.555018
O664	O	1.205870	0.686094	-0.055018
C665	C	0.734879	0.215857	-0.586598
C666	C	1.234879	0.715857	-0.086598
H667	H	0.719010	0.255474	-0.594774
H668	H	1.219010	0.755474	-0.094774
H669	H	0.768165	0.221616	-0.565560
H670	H	1.268165	0.721616	-0.065560
C671	C	0.762533	0.138417	-0.628426
C672	C	1.262533	0.638417	-0.128426
C673	C	0.743040	0.187073	-0.638471
C674	C	1.243040	0.687073	-0.138471
H675	H	0.767569	0.120661	-0.660423
H676	H	1.267569	0.620661	-0.160423
H677	H	0.742990	0.118364	-0.607149
H678	H	1.242990	0.618364	-0.107149
H679	H	0.790268	0.143223	-0.610893
H680	H	1.290268	0.643223	-0.110893
H681	H	0.715303	0.182266	-0.655998
H682	H	1.215303	0.682266	-0.155998
H683	H	0.762578	0.207124	-0.659752
H684	H	1.262578	0.707124	-0.159752
O685	O	0.705852	0.186003	-0.447405
O686	O	1.205852	0.686003	0.052595
C687	C	0.731241	0.156502	-0.483227
C688	C	1.231241	0.656502	0.016773
H689	H	0.712844	0.154683	-0.522145
H690	H	1.212844	0.654683	-0.022145
H691	H	0.765348	0.175655	-0.489040
H692	H	1.265348	0.675655	0.010960
C693	C	0.760347	0.103093	-0.414133
C694	C	1.260347	0.603093	0.085867
C695	C	0.737749	0.100856	-0.461932
C696	C	1.237749	0.600856	0.038068
H697	H	0.764364	0.068769	-0.400997
H698	H	1.264364	0.568769	0.099003
H699	H	0.743244	0.122970	-0.389999
H700	H	1.243244	0.622970	0.110001
H701	H	0.788767	0.119057	-0.418984
H702	H	1.288767	0.619057	0.081016
H703	H	0.709327	0.084899	-0.457079
H704	H	1.209327	0.584899	0.042921
H705	H	0.754848	0.080975	-0.486065
H706	H	1.254848	0.580975	0.013935
H707	H	0.701388	0.191183	-0.953953
H708	H	1.201388	0.691183	-0.453953
H709	H	-0.179400	0.312761	-0.312635
H710	H	0.320600	0.812761	0.187365
H711	H	0.036428	0.346222	-0.345988
H712	H	0.536428	0.846222	0.154012
H713	H	0.730072	0.702141	-0.158038
H714	H	1.230072	1.202141	0.341962
H715	H	0.596908	0.451034	-0.312605
H716	H	1.096908	0.951034	0.187395
H717	H	0.596995	0.312591	-0.550627
H718	H	1.096995	0.812591	-0.050627
