data_functionalizedCrystal
_audit_creation_method	'MofGen! by Chris Wilmer'
_symmetry_space_group_name_H-M	'P1'
_symmetry_Int_Tables_number	1
_symmetry_cell_setting	triclinic
loop_
_symmetry_equiv_pos_as_xyz
  x,y,z
_cell_length_a	6.817900
_cell_length_b	16.256208
_cell_length_c	16.255661
_cell_angle_alpha	95.350611
_cell_angle_beta	103.488922
_cell_angle_gamma	103.499088
loop_
_atom_site_label
_atom_site_type_symbol
_atom_site_fract_x
_atom_site_fract_y
_atom_site_fract_z
V1	V	-4.026770	-0.117778	-0.264174
O2	O	-4.014188	0.004956	-0.258835
O3	O	-3.978378	-0.232858	-0.262666
O4	O	-3.978331	-0.116275	-0.379254
O5	O	-4.014235	-0.112433	-0.141440
V6	V	-4.510402	-0.103061	-0.249458
O7	O	-4.287789	-0.150061	-0.296455
O8	O	-4.699579	-0.070778	-0.217177
O9	O	-4.335587	0.012018	-0.250966
O10	O	-4.640380	-0.225796	-0.254797
O11	O	-4.640333	-0.108406	-0.372192
O12	O	-4.335634	-0.104564	-0.134379
C13	C	-3.823382	-0.260902	-0.258575
C14	C	-3.865103	-0.354983	-0.258109
C15	C	-3.823321	-0.112188	-0.407294
C16	C	-3.865001	-0.111721	-0.501374
C17	C	-4.180993	-0.643087	-0.261101
C18	C	-4.024588	-0.573415	-0.189040
C19	C	-4.015127	-0.693616	-0.256396
C20	C	-4.097310	-0.595653	-0.329275
C21	C	-3.941426	-0.527235	-0.257239
C22	C	-3.859240	-0.625174	-0.184270
C23	C	-3.932023	-0.647427	-0.324568
C24	C	-3.775481	-0.577774	-0.252486
C25	C	-4.057590	-0.789464	-0.255909
C26	C	-3.898947	-0.431387	-0.257719
C27	C	-3.775555	-0.106138	-0.724178
C28	C	-3.932006	-0.178197	-0.793840
C29	C	-3.941385	-0.110845	-0.673620
C30	C	-3.859223	-0.037961	-0.771594
C31	C	-4.015152	-0.109994	-0.840001
C32	C	-4.097318	-0.182968	-0.742052
C33	C	-4.024473	-0.042668	-0.719790
C34	C	-4.181062	-0.114748	-0.789432
C35	C	-3.898884	-0.111335	-0.577772
C36	C	-4.057670	-0.109510	-0.935849
C37	C	-4.153925	0.040058	-0.255055
C38	C	-4.091442	0.134138	-0.255526
C39	C	-4.153986	-0.108654	-0.106334
C40	C	-4.091545	-0.109117	-0.012253
H41	H	-4.063276	-0.541196	-0.131743
C42	C	-3.879812	-0.255601	-0.837395
C43	C	-3.655695	-0.265953	-0.812387
C44	C	-3.603484	-0.343353	-0.855938
C45	C	-3.775390	-0.410402	-0.924496
C46	C	-3.999521	-0.400052	-0.949507
C47	C	-4.051732	-0.322652	-0.905956
H48	H	-3.528427	-0.216317	-0.761633
H49	H	-3.437567	-0.351014	-0.837423
H50	H	-3.736740	-0.467699	-0.956734
H51	H	-4.126789	-0.449688	-1.000261
H52	H	-4.217649	-0.314991	-0.924472
C53	C	-4.232747	-0.265851	-0.724083
C54	C	-4.390351	-0.261079	-0.670801
C55	C	-4.525769	-0.343962	-0.652830
C56	C	-4.503583	-0.431617	-0.688142
C57	C	-4.345972	-0.436392	-0.741428
C58	C	-4.210554	-0.353509	-0.759398
H59	H	-4.406781	-0.196189	-0.644658
H60	H	-4.642444	-0.340427	-0.613385
H61	H	-4.603828	-0.492971	-0.674840
H62	H	-4.329542	-0.501282	-0.767571
H63	H	-4.093880	-0.357044	-0.798844
H64	H	-3.758996	-0.638474	-0.122924
C65	C	-3.879870	-0.690991	-0.401976
C66	C	-3.996475	-0.684942	-0.493598
C67	C	-3.944348	-0.728512	-0.571015
C68	C	-3.775615	-0.778130	-0.556809
C69	C	-3.658999	-0.784181	-0.465182
C70	C	-3.711127	-0.740612	-0.387766
H71	H	-4.121391	-0.648210	-0.504118
H72	H	-4.030675	-0.724032	-0.638843
H73	H	-3.737027	-0.810383	-0.614117
H74	H	-3.534084	-0.820914	-0.454662
H75	H	-3.624800	-0.745092	-0.319938
H76	H	-3.603605	-0.549394	-0.248826
C77	C	-4.076566	0.034740	-0.676203
C78	C	-4.157052	0.098903	-0.730150
C79	C	-4.209117	0.176321	-0.686558
C80	C	-4.180697	0.189576	-0.589020
C81	C	-4.100207	0.125411	-0.535068
C82	C	-4.048142	0.047993	-0.578660
H83	H	-4.178094	0.089093	-0.802358
H84	H	-4.268701	0.223820	-0.726498
H85	H	-4.219239	0.246885	-0.556751
H86	H	-4.079165	0.135221	-0.462860
H87	H	-3.988558	0.000494	-0.538720
H88	H	-4.352750	-0.671603	-0.264649
H89	H	-4.197564	-0.582244	-0.390559
H90	H	-3.603799	-0.102591	-0.695688
C91	C	-3.723788	0.044832	-0.789726
C92	C	-3.483674	0.065274	-0.759822
C93	C	-3.348224	0.148061	-0.777952
C94	C	-3.452889	0.210407	-0.825986
C95	C	-3.693016	0.189967	-0.855893
C96	C	-3.828466	0.107179	-0.837763
H97	H	-3.406184	0.019120	-0.724262
H98	H	-3.170466	0.163192	-0.755813
H99	H	-3.352621	0.271691	-0.839407
H100	H	-3.770507	0.236120	-0.891453
H101	H	-4.006224	0.092048	-0.859902
H102	H	-4.352936	-0.118407	-0.817788
