data_functionalizedCrystal
_audit_creation_method	'MofGen! by Chris Wilmer'
_symmetry_space_group_name_H-M	'P1'
_symmetry_Int_Tables_number	1
_symmetry_cell_setting	triclinic
loop_
_symmetry_equiv_pos_as_xyz
  x,y,z
_cell_length_a	17.077404
_cell_length_b	18.215405
_cell_length_c	17.077396
_cell_angle_alpha	90.028580
_cell_angle_beta	90.019777
_cell_angle_gamma	90.018118
loop_
_atom_site_label
_atom_site_type_symbol
_atom_site_fract_x
_atom_site_fract_y
_atom_site_fract_z
Zn1	Zn	1.200055	-0.293075	0.443848
Zn2	Zn	1.199963	-0.416148	0.312582
Zn3	Zn	1.068787	-0.293090	0.312595
Zn4	Zn	1.068756	-0.416094	0.443805
O5	O	1.134390	-0.354602	0.378207
O6	O	1.309890	-0.309417	0.426448
O7	O	1.182537	-0.399854	0.202736
O8	O	1.086252	-0.190104	0.330030
O9	O	1.309822	-0.399839	0.330007
O10	O	1.182694	-0.190093	0.426461
O11	O	1.086163	-0.309443	0.202746
O12	O	0.958936	-0.309391	0.329988
O13	O	1.086198	-0.399746	0.553657
O14	O	0.958913	-0.399761	0.426387
O15	O	1.182664	-0.309365	0.553689
O16	O	1.182506	-0.519125	0.329965
O17	O	1.086109	-0.519086	0.426374
C18	C	0.930442	-0.354572	0.378185
C19	C	0.843193	-0.354578	0.378194
C20	C	1.134315	-0.545808	0.378180
C21	C	1.134355	-0.627607	0.378195
C22	C	0.467387	-0.401763	0.428346
C23	C	0.549367	-0.401754	0.428334
C24	C	0.590344	-0.354621	0.378220
C25	C	0.549336	-0.307501	0.328109
C26	C	0.467357	-0.307515	0.328117
C27	C	0.720206	-0.307474	0.328096
C28	C	0.802190	-0.307459	0.328088
C29	C	0.802216	-0.401713	0.428312
C30	C	0.720237	-0.401727	0.428321
C31	C	0.679235	-0.354605	0.378211
C32	C	1.184596	-0.815734	0.428474
C33	C	1.184625	-0.892593	0.428489
C34	C	1.084282	-0.892718	0.327989
C35	C	1.084250	-0.815860	0.327979
C36	C	1.134411	-0.777371	0.378220
C37	C	1.134472	-0.931087	0.378245
C38	C	1.134502	-1.014420	0.378261
C39	C	1.134380	-0.694032	0.378206
C40	C	1.339135	-0.354632	0.378231
C41	C	1.426384	-0.354645	0.378240
C42	C	1.134438	-0.354548	0.582952
C43	C	1.134458	-0.354525	0.670202
C44	C	1.134487	-0.162649	0.378252
C45	C	1.134528	-0.080850	0.378271
C46	C	1.134388	-0.354603	0.174260
C47	C	1.134520	-0.354419	0.087010
C48	C	1.184689	-0.307459	0.711210
C49	C	1.184699	-0.307434	0.793190
C50	C	1.134480	-0.354480	0.834161
C51	C	1.084243	-0.401548	0.793147
C52	C	1.084231	-0.401568	0.711168
C53	C	1.084275	-0.401503	0.964018
C54	C	1.084289	-0.401484	1.046002
C55	C	1.184743	-0.307370	1.046039
C56	C	1.184730	-0.307390	0.964060
C57	C	1.134494	-0.354459	0.923052
H58	H	0.582748	-0.440124	0.469133
O59	O	1.233290	-0.778231	0.477209
C60	C	1.222490	-0.702167	0.466440
H61	H	1.196818	-0.691721	0.405833
H62	H	1.281272	-0.672916	0.471821
H63	H	1.180648	-0.680357	0.512956
O64	O	0.680459	-0.261736	0.279313
C65	C	0.700435	-0.277726	0.201041
H66	H	0.759952	-0.306003	0.199347
H67	H	0.703228	-0.224566	0.165949
H68	H	0.654277	-0.315536	0.174533
H69	H	1.225646	-0.269043	1.079432
H70	H	1.043380	-0.784623	0.287056
O71	O	1.035611	-0.447250	1.085843
C72	C	1.080274	-0.494768	1.133280
H73	H	1.142088	-0.499351	1.108580
H74	H	1.051837	-0.551392	1.134205
H75	H	1.083012	-0.471989	1.195412
O76	O	0.427670	-0.447509	0.477139
C77	C	0.447727	-0.431504	0.555404
H78	H	0.507255	-0.403208	0.557077
H79	H	0.450538	-0.484659	0.590501
H80	H	0.401607	-0.393706	0.581920
O81	O	1.035348	-0.447170	0.832908
C82	C	0.957118	-0.431092	0.812852
H83	H	0.953180	-0.372304	0.790333
H84	H	0.918343	-0.437415	0.866756
H85	H	0.936572	-0.470555	0.765251
H86	H	1.043319	-0.439886	0.677781
H87	H	1.225604	-0.269111	0.826575
O88	O	0.680552	-0.447580	0.477025
C89	C	0.734319	-0.489157	0.521263
H90	H	0.792744	-0.491656	0.489105
H91	H	0.710625	-0.547154	0.529522
H92	H	0.743064	-0.462282	0.580934
H93	H	1.043443	-0.924066	0.287083
O94	O	0.842088	-0.261786	0.279366
C95	C	0.889465	-0.303631	0.228582
H96	H	0.901738	-0.359431	0.256170
H97	H	0.947119	-0.273642	0.218117
H98	H	0.857851	-0.311655	0.170394
H99	H	1.225488	-0.923825	0.469413
H100	H	0.835604	-0.440079	0.469116
O101	O	0.427612	-0.261779	0.279337
C102	C	0.447595	-0.277777	0.201068
H103	H	0.507112	-0.306055	0.199383
H104	H	0.450392	-0.224621	0.165970
H105	H	0.401440	-0.315590	0.174561
H106	H	1.225586	-0.269151	0.677857
H107	H	1.225627	-0.269086	0.930704
O108	O	1.035573	-0.447338	0.924210
C109	C	1.052697	-0.520679	0.944244
H110	H	1.115405	-0.524383	0.966805
H111	H	1.045931	-0.557050	0.890320
H112	H	1.010605	-0.539908	0.991808
O113	O	0.589049	-0.261617	0.279461
C114	C	0.569048	-0.188292	0.296768
H115	H	0.509542	-0.186813	0.326956
H116	H	0.566219	-0.155228	0.240177
H117	H	0.615210	-0.163542	0.337164
