data_functionalizedCrystal
_audit_creation_method	'MofGen! by Chris Wilmer'
_symmetry_space_group_name_H-M	'P1'
_symmetry_Int_Tables_number	1
_symmetry_cell_setting	triclinic
loop_
_symmetry_equiv_pos_as_xyz
  x,y,z
_cell_length_a	15.538191
_cell_length_b	14.519709
_cell_length_c	14.750779
_cell_angle_alpha	77.332886
_cell_angle_beta	97.572172
_cell_angle_gamma	65.476119
loop_
_atom_site_label
_atom_site_type_symbol
_atom_site_fract_x
_atom_site_fract_y
_atom_site_fract_z
O1	O	1.229003	-0.272518	-0.079831
O2	O	0.954923	-0.166092	-0.079833
O3	O	1.099232	-0.355991	-0.079824
O4	O	1.084694	-0.082619	-0.079841
O5	O	1.140026	-0.409668	0.079829
O6	O	0.995717	-0.219769	0.079820
O7	O	1.269797	-0.326196	0.079821
Zn8	Zn	1.139234	-0.281505	0.105169
Zn9	Zn	1.085486	-0.210782	-0.105181
O10	O	1.125488	-0.136297	0.079812
C11	C	0.940243	-0.181796	-0.000007
C12	C	0.835725	-0.148628	-0.000007
C13	C	0.547381	-0.478139	-0.000001
C14	C	0.449167	-0.446949	-0.000004
C15	C	0.427017	-0.271514	-0.000015
C16	C	0.525232	-0.302691	-0.000007
C17	C	0.585407	-0.406004	-0.000002
C18	C	0.563258	-0.230557	-0.000008
C19	C	0.661464	-0.261730	-0.000005
C20	C	0.721643	-0.365037	-0.000003
C21	C	0.683612	-0.437177	0.000001
C22	C	0.503080	-0.127242	-0.000020
C23	C	0.541106	-0.055108	-0.000021
C24	C	0.639315	-0.086282	-0.000012
C25	C	0.699494	-0.189590	-0.000009
C26	C	0.677346	-0.014142	-0.000015
C27	C	0.775551	-0.045315	-0.000013
C28	C	0.797700	-0.220763	-0.000006
C29	C	1.118952	-0.416961	0.000003
C30	C	1.116922	-0.518660	0.000004
C31	C	1.109444	-0.891034	-0.000021
C32	C	1.111521	-0.787427	-0.000014
C33	C	1.113183	-0.704851	-0.000008
C34	C	1.115260	-0.601236	-0.000003
C35	C	1.284476	-0.310491	-0.000007
C36	C	1.388993	-0.343656	-0.000013
C37	C	1.105768	-0.075325	-0.000017
C38	C	1.107796	0.026375	-0.000024
N39	N	1.175923	-0.329774	0.248727
N40	N	1.048805	-0.162523	-0.248739
C41	C	0.946338	-0.027755	0.600530
C42	C	0.972054	-0.061575	0.701031
C43	C	1.099866	-0.229693	0.701002
C44	C	1.074158	-0.195889	0.600499
C45	C	0.997394	-0.094918	0.550271
C46	C	1.125213	-0.263052	0.550240
C47	C	1.099510	-0.229248	0.449746
C48	C	1.022751	-0.128281	0.399511
C49	C	0.971690	-0.061114	0.449777
C50	C	1.201982	-0.364019	0.600470
C51	C	1.253037	-0.431183	0.550211
C52	C	1.227330	-0.397382	0.449715
C53	C	1.150571	-0.296415	0.399480
C54	C	1.278390	-0.464549	0.399449
C55	C	1.252687	-0.430745	0.298955
C56	C	1.124867	-0.262611	0.298986
H57	H	0.628335	0.069978	-0.000029
H58	H	1.340899	-0.546756	0.440358
H59	H	0.596381	-0.562268	0.000009
C60	C	1.381603	-0.600337	0.309011
C61	C	1.308802	-0.504572	0.243703
H62	H	1.416243	-0.645915	0.274898
H63	H	1.425554	-0.586471	0.348196
H64	H	1.352379	-0.633580	0.348219
H65	H	1.338026	-0.471325	0.204499
H66	H	1.264844	-0.518436	0.204501
C67	C	0.743804	0.131232	-0.000007
C68	C	0.817357	0.033971	-0.000008
H69	H	0.769617	0.180179	-0.000001
H70	H	0.691738	0.158464	-0.055679
H71	H	0.720186	0.121015	0.055671
H72	H	0.840971	0.044187	-0.055690
H73	H	0.869440	0.006735	0.055669
C74	C	0.814697	0.039701	0.336796
C75	C	0.887301	0.049872	0.394560
H76	H	0.762599	0.108217	0.302714
H77	H	0.841432	0.004549	0.292485
H78	H	0.790809	-0.000546	0.376020
H79	H	0.911194	0.090113	0.355335
H80	H	0.860563	0.085041	0.438876
H81	H	0.930472	-0.006872	0.741947
H82	H	1.062352	-0.180395	0.258089
H83	H	1.315542	-0.513393	0.591118
C84	C	0.480930	-0.623508	0.000004
C85	C	0.407370	-0.526249	-0.000001
H86	H	0.455124	-0.672462	0.000008
H87	H	0.504547	-0.613297	-0.055666
H88	H	0.533000	-0.650735	0.055684
H89	H	0.355304	-0.499019	-0.055685
H90	H	0.383739	-0.536459	0.055674
H91	H	0.846699	-0.304892	0.000004
C92	C	0.822563	0.135054	0.610643
C93	C	0.861956	0.083235	0.545310
H94	H	0.770477	0.203573	0.576549
H95	H	0.798661	0.094817	0.649843
H96	H	0.871834	0.141929	0.649834
H97	H	0.812686	0.076353	0.506123
H98	H	0.885855	0.123481	0.506092
C99	C	0.266641	-0.145827	-0.000014
C100	C	0.360870	-0.157958	-0.000014
H101	H	0.225810	-0.075723	-0.000005
H102	H	0.240876	-0.158031	-0.055688
H103	H	0.269333	-0.195491	0.055661
H104	H	0.358180	-0.108299	-0.055694
H105	H	0.386641	-0.145742	0.055665
C106	C	0.380730	0.070580	-0.000021
C107	C	0.474959	0.058449	-0.000020
H108	H	0.339899	0.140684	-0.000012
H109	H	0.354965	0.058376	-0.055694
H110	H	0.383421	0.020916	0.055655
H111	H	0.472268	0.108108	-0.055700
H112	H	0.500730	0.070665	0.055659
H113	H	1.001827	-0.100757	0.317682
C114	C	1.270655	-0.348700	0.731903
C115	C	1.184237	-0.340683	0.756214
H116	H	1.322739	-0.417223	0.765992
H117	H	1.262646	-0.338178	0.664867
H118	H	1.285194	-0.296145	0.748380
H119	H	1.169693	-0.393234	0.739731
H120	H	1.192245	-0.351216	0.823266
H121	H	0.801605	-0.390412	-0.000014
C122	C	0.695654	-0.607480	0.000005
C123	C	0.749765	-0.550741	0.000004
H124	H	0.736494	-0.677583	-0.000001
H125	H	0.671121	-0.610399	0.055678
H126	H	0.642658	-0.572946	-0.055671
H127	H	0.802758	-0.585271	0.055684
H128	H	0.774313	-0.547827	-0.055675
H129	H	1.222909	-0.391537	0.682299
H130	H	0.423115	-0.101863	-0.000025
