data_functionalizedCrystal
_audit_creation_method	'MofGen! by Chris Wilmer'
_symmetry_space_group_name_H-M	'P1'
_symmetry_Int_Tables_number	1
_symmetry_cell_setting	triclinic
loop_
_symmetry_equiv_pos_as_xyz
  x,y,z
_cell_length_a	14.853567
_cell_length_b	14.853566
_cell_length_c	8.140239
_cell_angle_alpha	90.000126
_cell_angle_beta	90.005518
_cell_angle_gamma	96.365327
loop_
_atom_site_label
_atom_site_type_symbol
_atom_site_fract_x
_atom_site_fract_y
_atom_site_fract_z
O1	O	-0.117697	1.196363	-0.136512
O2	O	-0.131720	0.933904	-0.136540
O3	O	0.006521	1.072144	-0.136506
O4	O	-0.255938	1.058123	-0.136546
O5	O	0.006523	1.072137	0.136721
O6	O	-0.131718	0.933896	0.136687
O7	O	-0.117696	1.196356	0.136715
Zn8	Zn	-0.124707	1.065125	0.180081
Zn9	Zn	-0.124709	1.065135	-0.179907
O10	O	-0.255937	1.058115	0.136681
C11	C	-0.131084	0.900311	0.000070
C12	C	-0.129181	0.800227	0.000060
C13	C	-0.121131	0.377047	-0.148846
C14	C	-0.121130	0.377060	0.149036
C15	C	-0.122917	0.471094	0.149031
C16	C	-0.123813	0.518108	0.000085
C17	C	-0.122921	0.471089	-0.148856
C18	C	-0.123818	0.518119	0.297969
C19	C	-0.125607	0.612159	0.297970
C20	C	-0.126496	0.659176	0.149022
C21	C	-0.125603	0.612151	0.000075
C22	C	-0.126499	0.659166	-0.148871
C23	C	-0.125599	0.612143	-0.297820
C24	C	-0.123810	0.518106	-0.297804
C25	C	-0.128285	0.753213	0.149006
C26	C	-0.128289	0.753208	-0.148881
C27	C	-0.289526	1.058754	0.000062
C28	C	-0.389610	1.060658	0.000047
C29	C	-0.802144	1.150824	0.000116
C30	C	-0.823425	0.986591	0.000097
C31	C	-0.729392	0.984801	0.000081
C32	C	-0.671729	1.066023	0.000085
C33	C	-0.708101	1.149036	0.000105
C34	C	-0.693013	0.901790	0.000078
C35	C	-0.598974	0.899996	0.000064
C36	C	-0.541310	0.981220	0.000056
C37	C	-0.577687	1.064236	0.000074
C38	C	-0.520024	1.145458	0.000078
C39	C	-0.556399	1.228476	0.000085
C40	C	-0.650437	1.230260	0.000098
C41	C	-0.447272	0.979435	0.000043
C42	C	-0.425982	1.143671	0.000067
C43	C	0.040111	1.071505	0.000108
C44	C	0.140194	1.069601	0.000112
C45	C	-0.118332	1.229948	0.000101
C46	C	-0.120235	1.330032	0.000100
N47	N	-0.124705	1.065124	0.425764
N48	N	-0.124704	1.065142	-0.425590
H49	H	-0.123095	0.479832	0.419233
H50	H	-0.739968	0.835663	0.000082
H51	H	-0.509438	1.294607	0.000098
O52	O	-0.126553	0.662855	-0.458470
H53	H	-0.127943	0.736144	-0.433441
O54	O	-0.689667	1.319795	0.000119
H55	H	-0.764744	1.307390	0.000147
H56	H	-0.831764	1.218414	0.000115
H57	H	-0.569366	0.832399	0.000054
H58	H	-0.123077	0.479812	-0.419070
H59	H	-0.120395	0.338757	-0.270117
H60	H	-0.120407	0.338774	0.270302
H61	H	-0.126337	0.650437	0.419253
O62	O	-0.129262	0.803932	0.309634
H63	H	-0.128339	0.755442	0.413206
H64	H	-0.379038	1.209813	0.000060
H65	H	-0.870379	0.920463	0.000104
H66	H	-0.417660	0.911844	0.000063
H67	H	-0.129015	0.791481	-0.270173
