data_functionalizedCrystal
_audit_creation_method	'MofGen! by Chris Wilmer'
_symmetry_space_group_name_H-M	'P1'
_symmetry_Int_Tables_number	1
_symmetry_cell_setting	triclinic
loop_
_symmetry_equiv_pos_as_xyz
  x,y,z
_cell_length_a	15.625020
_cell_length_b	14.750779
_cell_length_c	15.538191
_cell_angle_alpha	82.430615
_cell_angle_beta	113.261192
_cell_angle_gamma	94.865865
loop_
_atom_site_label
_atom_site_type_symbol
_atom_site_fract_x
_atom_site_fract_y
_atom_site_fract_z
O1	O	1.013759	0.432743	-0.233528
O2	O	0.773929	0.349250	-0.226835
O3	O	0.940528	0.407253	-0.097275
O4	O	0.847160	0.374739	-0.363089
O5	O	0.987622	0.263999	-0.060654
O6	O	0.821023	0.205996	-0.190214
O7	O	1.060853	0.289489	-0.196907
Zn8	Zn	0.948415	0.224997	-0.187746
Zn9	Zn	0.886367	0.413741	-0.235996
O10	O	0.894255	0.231485	-0.326468
C11	C	0.767531	0.267198	-0.205197
C12	C	0.678309	0.236137	-0.195271
C13	C	0.578221	0.114276	-0.161319
C14	C	0.662056	0.143471	-0.170649
C15	C	0.610726	0.299644	-0.210568
C16	C	0.526887	0.270463	-0.201237
C17	C	0.510642	0.177777	-0.176613
C18	C	0.459307	0.333964	-0.216532
C19	C	0.375473	0.304783	-0.207206
C20	C	0.359219	0.212101	-0.182586
C21	C	0.426808	0.148596	-0.167288
C22	C	0.475552	0.426648	-0.241162
C23	C	0.407972	0.490149	-0.256457
C24	C	0.324139	0.460970	-0.247125
C25	C	0.307885	0.368288	-0.222504
C26	C	0.256550	0.524475	-0.262423
C27	C	0.172716	0.495294	-0.253097
C28	C	0.224051	0.339107	-0.213179
N29	N	0.990768	0.096187	-0.154817
C30	C	0.725751	-0.347900	-0.360844
C31	C	0.755433	-0.438065	-0.337776
C32	C	0.902964	-0.386663	-0.223098
C33	C	0.873293	-0.296492	-0.246153
C34	C	0.784686	-0.277118	-0.315028
C35	C	0.932228	-0.225711	-0.200337
C36	C	0.902560	-0.135547	-0.223394
C37	C	0.813958	-0.116165	-0.292267
C38	C	0.755018	-0.186955	-0.338085
C39	C	1.020838	-0.245085	-0.131468
C40	C	1.079773	-0.174304	-0.085651
C41	C	1.050103	-0.084139	-0.108703
C42	C	0.961500	-0.064757	-0.177577
C43	C	1.109043	-0.013349	-0.062886
C44	C	1.079375	0.076814	-0.085943
C45	C	0.931833	0.025406	-0.200634
C46	C	1.067250	0.371542	-0.218546
C47	C	1.156471	0.402609	-0.228473
C48	C	0.973843	0.339030	-0.044753
C49	C	1.002938	0.349168	0.057187
N50	N	0.844023	0.542554	-0.268918
C51	C	0.860939	0.299711	-0.378990
C52	C	0.831841	0.289577	-0.480932
C53	C	0.713859	0.248509	0.371123
C54	C	0.741222	0.258033	0.466915
C55	C	0.895132	0.311615	0.475441
C56	C	0.867780	0.302099	0.379647
C57	C	0.777143	0.270545	0.327495
C58	C	0.931063	0.324136	0.336019
C59	C	0.903715	0.314616	0.240234
C60	C	0.813082	0.283061	0.188077
C61	C	0.749794	0.261026	0.231711
C62	C	1.021702	0.355683	0.388173
C63	C	1.084986	0.377720	0.344545
C64	C	1.057635	0.368207	0.248757
C65	C	0.967003	0.336651	0.196600
C66	C	1.120924	0.390242	0.205123
C67	C	1.093575	0.380722	0.109339
C68	C	0.939655	0.327132	0.100815
H69	H	0.290953	0.188343	-0.174998
C70	C	1.184680	0.412430	0.401911
H71	H	1.218453	0.424187	0.362207
H72	H	1.182123	0.467211	0.426688
H73	H	1.214975	0.367295	0.452220
C74	C	0.408934	0.046644	-0.140197
H75	H	0.461187	0.012999	-0.132425
H76	H	0.399572	0.039773	-0.082849
H77	H	0.355016	0.024259	-0.188622
H78	H	0.682861	-0.171184	-0.394162
C79	C	0.628282	-0.326583	-0.436603
H80	H	0.597429	-0.381650	-0.460593
H81	H	0.593009	-0.299664	-0.409543
H82	H	0.634285	-0.285290	-0.486424
H83	H	1.044991	-0.318503	-0.112701
C84	C	0.690574	-0.515932	-0.388134
H85	H	0.633547	-0.491479	-0.432436
H86	H	0.719682	-0.545019	-0.419969
H87	H	0.678460	-0.559333	-0.343047
C88	C	1.206505	-0.034669	0.012868
H89	H	1.215732	-0.098505	0.020039
H90	H	1.252590	-0.002138	-0.005786
H91	H	1.211315	-0.016528	0.071096
C92	C	1.144199	0.154675	-0.035544
H93	H	1.201214	0.130223	0.008784
H94	H	1.156328	0.198108	-0.080592
H95	H	1.115049	0.183722	-0.003714
H96	H	0.675986	0.235338	0.189244
H97	H	0.543813	0.450403	-0.248761
C98	C	0.671600	0.233804	0.514900
H99	H	0.613703	0.213657	0.470117
H100	H	0.695486	0.186450	0.564860
H101	H	0.662647	0.286370	0.539313
H102	H	0.421210	0.565614	-0.276509
H103	H	0.975111	-0.402447	-0.167022
C104	C	0.274428	0.626421	-0.289511
H105	H	0.334036	0.634705	-0.292872
H106	H	0.227860	0.645971	-0.349065
H107	H	0.272431	0.661482	-0.243291
C108	C	1.177232	-0.195622	-0.009891
H109	H	1.186460	-0.259458	-0.002715
H110	H	1.223321	-0.163093	-0.028539
H111	H	1.182034	-0.177479	0.048333
C112	C	0.994824	0.346326	0.532810
H113	H	1.002048	0.348846	0.596104
H114	H	1.038391	0.305825	0.531630
H115	H	1.005530	0.405739	0.506093
H116	H	1.043964	0.363441	0.466165
H117	H	0.865847	0.301444	0.058349
H118	H	0.790818	0.275306	0.110084
C119	C	0.614156	0.213808	0.313749
H120	H	0.580380	0.202045	0.353449
H121	H	0.583873	0.258939	0.263438
H122	H	0.616713	0.159018	0.288977
H123	H	0.117689	0.547003	-0.265554
C124	C	1.220620	0.424943	0.262493
H125	H	1.254396	0.436699	0.222792
H126	H	1.218070	0.479723	0.287276
H127	H	1.250909	0.379803	0.312799
C128	C	1.163184	0.404962	0.061344
H129	H	1.221078	0.425126	0.106119
H130	H	1.172136	0.352406	0.036923
H131	H	1.139287	0.452323	0.011386
H132	H	0.210819	0.263632	-0.193139
H133	H	0.564990	0.038800	-0.141279
H134	H	0.789805	-0.042747	-0.311043
C135	C	0.736410	0.073619	-0.153784
H136	H	0.714731	0.014245	-0.137767
H137	H	0.747926	0.073984	-0.209459
H138	H	0.792448	0.089531	-0.103694
H139	H	0.623964	0.375109	-0.230621
H140	H	0.859676	0.041177	-0.256711
