data_functionalizedCrystal
_audit_creation_method	'MofGen! by Chris Wilmer'
_symmetry_space_group_name_H-M	'P1'
_symmetry_Int_Tables_number	1
_symmetry_cell_setting	triclinic
loop_
_symmetry_equiv_pos_as_xyz
  x,y,z
_cell_length_a	23.532407
_cell_length_b	10.654550
_cell_length_c	9.730223
_cell_angle_alpha	90.000193
_cell_angle_beta	89.994848
_cell_angle_gamma	83.666790
loop_
_atom_site_label
_atom_site_type_symbol
_atom_site_fract_x
_atom_site_fract_y
_atom_site_fract_z
O1	O	-0.756249	-0.152433	-0.114115
O2	O	-0.590530	-0.174490	-0.114155
O3	O	-0.677200	0.019399	-0.114129
O4	O	-0.669579	-0.346321	-0.114141
O5	O	-0.677199	0.019394	0.114451
O6	O	-0.590529	-0.174495	0.114425
O7	O	-0.756248	-0.152438	0.114465
Zn8	Zn	-0.673388	-0.163467	0.150737
Zn9	Zn	-0.673390	-0.163461	-0.150427
O10	O	-0.669578	-0.346326	0.114439
C11	C	-0.569310	-0.173931	0.000130
C12	C	-0.506081	-0.172242	0.000115
C13	C	-0.676640	0.066176	0.000159
C14	C	-0.674966	0.205567	0.000154
C15	C	-0.777469	-0.152997	0.000177
C16	C	-0.840697	-0.154686	0.000183
C17	C	-0.107657	-0.276389	0.000173
C18	C	-0.048247	-0.274820	0.000182
O19	O	-0.012131	-0.371366	0.000229
N20	N	-0.024869	-0.159554	0.000183
C21	C	-0.060906	-0.045849	0.000190
O22	O	-0.035567	0.052339	0.000194
C23	C	-0.120315	-0.047419	0.000192
C24	C	-0.143689	-0.162693	0.000176
C25	C	-0.131031	-0.391654	0.000160
C26	C	-0.190438	-0.393222	0.000149
C27	C	-0.226470	-0.279525	0.000151
C28	C	-0.203095	-0.164261	0.000165
C29	C	-0.156351	0.066285	0.000209
C30	C	-0.215764	0.064705	0.000211
C31	C	-0.239138	-0.050569	0.000196
C32	C	-0.298534	-0.052133	0.000157
N33	N	-0.321911	-0.167399	0.000156
C34	C	-0.285879	-0.281096	0.000153
C35	C	0.063858	-0.042560	0.000190
C36	C	0.123266	-0.040989	0.000179
C37	C	0.135922	-0.269961	0.000173
C38	C	0.076512	-0.271531	0.000174
C39	C	0.040481	-0.157827	0.000188
C40	C	-0.410637	-0.284380	0.000128
C41	C	-0.470049	-0.285938	0.000112
C42	C	-0.482700	-0.056967	0.000125
C43	C	-0.423293	-0.055408	0.000134
C44	C	-0.387262	-0.169125	0.000141
O45	O	-0.334684	0.044362	0.000116
O46	O	-0.311227	-0.379267	0.000168
C47	C	-0.670138	-0.393104	0.000148
C48	C	-0.671812	-0.532494	0.000144
N49	N	-0.673392	-0.163471	0.356273
C50	C	-0.725996	0.286669	0.000170
C51	C	-0.724419	0.417640	0.000160
C52	C	-0.620779	0.386393	0.000123
C53	C	-0.622356	0.255425	0.000123
C54	C	-0.785832	0.304710	0.000198
C55	C	-0.784256	0.435681	0.000188
N56	N	-0.673391	-0.163447	-0.355963
C57	C	-0.711779	-0.077646	0.428211
C58	C	-0.711778	-0.077630	0.572094
C59	C	-0.634999	-0.249276	0.572089
C60	C	-0.634999	-0.249285	0.428209
C61	C	-0.756108	0.021450	0.428215
C62	C	-0.756107	0.021465	0.572098
H63	H	-0.489077	-0.379812	0.000098
H64	H	-0.381308	-0.376980	0.000138
C65	C	-0.815211	-0.005829	0.624873
N66	N	-0.859722	-0.026423	0.664623
H67	H	-0.512048	0.035602	0.000122
H68	H	-0.742271	0.112249	0.616712
C69	C	0.148970	0.085821	0.000186
N70	N	0.168328	0.181339	0.000204
C71	C	-0.814707	0.493064	0.129429
N72	N	-0.837641	0.536283	0.226772
C73	C	-0.592813	-0.343794	0.349082
N74	N	-0.561055	-0.415021	0.289485
H75	H	-0.577945	0.427004	0.000097
C76	C	-0.397581	0.071398	0.000134
N77	N	-0.378219	0.166911	0.000145
H78	H	-0.804885	0.269685	0.098899
H79	H	-0.802339	0.481899	-0.098502
C80	C	-0.592768	-0.343665	0.651231
N81	N	-0.560959	-0.414760	0.710840
H82	H	-0.746385	0.117674	0.389161
C83	C	-0.216140	-0.520033	0.000161
N84	N	-0.235496	-0.615554	0.000181
C85	C	-0.811965	-0.018096	0.367932
N86	N	-0.854037	-0.047881	0.322526
H87	H	-0.101699	-0.484244	0.000162
H88	H	-0.580802	0.189394	0.000091
H89	H	0.057486	-0.365397	0.000169
H90	H	-0.809236	0.276096	-0.095450
H91	H	0.034524	0.050038	0.000189
C92	C	-0.130654	0.193098	0.000253
N93	N	-0.111300	0.288621	0.000297
C94	C	-0.255396	0.189793	0.000221
N95	N	-0.285245	0.284009	0.000223
H96	H	0.165270	-0.362539	0.000177
