data_functionalizedCrystal
_audit_creation_method	'MofGen! by Chris Wilmer'
_symmetry_space_group_name_H-M	'P1'
_symmetry_Int_Tables_number	1
_symmetry_cell_setting	triclinic
loop_
_symmetry_equiv_pos_as_xyz
  x,y,z
_cell_length_a	29.839133
_cell_length_b	12.759401
_cell_length_c	12.759393
_cell_angle_alpha	90.018496
_cell_angle_beta	89.972406
_cell_angle_gamma	89.970237
loop_
_atom_site_label
_atom_site_type_symbol
_atom_site_fract_x
_atom_site_fract_y
_atom_site_fract_z
Zn1	Zn	-0.178825	-1.606147	-0.594010
Zn2	Zn	-0.253963	-1.605995	-0.418343
Zn3	Zn	-0.178848	-1.430449	-0.418350
Zn4	Zn	-0.253929	-1.430392	-0.593984
O5	O	-0.216391	-1.518246	-0.506172
O6	O	-0.188797	-1.753148	-0.570716
O7	O	-0.244024	-1.582669	-0.271322
O8	O	-0.115978	-1.453843	-0.441665
O9	O	-0.244001	-1.753036	-0.441653
O10	O	-0.115961	-1.582927	-0.570723
O11	O	-0.188837	-1.453696	-0.271328
O12	O	-0.188803	-1.283420	-0.441640
O13	O	-0.243942	-1.453745	-0.741009
O14	O	-0.243965	-1.283378	-0.570678
O15	O	-0.188763	-1.582872	-0.741028
O16	O	-0.316826	-1.582614	-0.441628
O17	O	-0.316800	-1.453599	-0.570671
C18	C	-0.216383	-1.245278	-0.506157
C19	C	-0.216390	-1.128502	-0.506176
C20	C	-0.333114	-1.518112	-0.506169
C21	C	-0.383048	-1.518151	-0.506202
C22	C	-0.216346	-1.518319	-0.780205
C23	C	-0.216327	-1.518350	-0.896982
C24	C	-0.739592	-1.585498	-0.573449
C25	C	-0.551918	-1.585399	-0.573448
O26	O	-0.527617	-1.642524	-0.630607
N27	N	-0.528493	-1.518234	-0.506200
C28	C	-0.551990	-1.451094	-0.438943
O29	O	-0.527759	-1.393972	-0.381737
C30	C	-0.739662	-1.451200	-0.438940
C31	C	-0.763084	-1.518361	-0.506199
C32	C	-0.763014	-1.652655	-0.640702
C33	C	-0.809930	-1.652676	-0.640706
C34	C	-0.833422	-1.585539	-0.573456
C35	C	-0.810000	-1.518382	-0.506203
C36	C	-0.763157	-1.384066	-0.371679
C37	C	-0.810078	-1.384100	-0.371682
C38	C	-0.833501	-1.451262	-0.438941
C39	C	-0.880408	-1.451265	-0.438957
N40	N	-0.903833	-1.518430	-0.506205
C41	C	-0.880340	-1.585567	-0.573454
C42	C	-0.453459	-1.451042	-0.438951
C43	C	-0.406541	-1.451014	-0.438953
C44	C	-0.406473	-1.585321	-0.573456
C45	C	-0.453392	-1.585342	-0.573459
C46	C	-0.476884	-1.518207	-0.506199
C47	C	-0.978866	-1.585603	-0.573457
C48	C	-1.025786	-1.585614	-0.573458
C49	C	-1.025850	-1.451312	-0.438952
C50	C	-0.978934	-1.451297	-0.438954
C51	C	-0.955443	-1.518451	-0.506211
O52	O	-0.904739	-1.394178	-0.381819
O53	O	-0.904579	-1.642697	-0.630635
C54	C	-0.692676	-1.585478	-0.573445
C55	C	-0.669253	-1.518321	-0.506192
C56	C	-0.692746	-1.451184	-0.438943
C57	C	-0.622336	-1.518293	-0.506194
C58	C	-0.598843	-1.585430	-0.573443
C59	C	-0.622268	-1.652595	-0.640691
C60	C	-0.669183	-1.652615	-0.640695
C61	C	-0.669321	-1.384019	-0.371695
C62	C	-0.622406	-1.384004	-0.371698
C63	C	-0.598913	-1.451141	-0.438947
C64	C	-0.099213	-1.518408	-0.506198
C65	C	-0.049279	-1.518477	-0.506209
C66	C	-0.216400	-1.792279	-0.506187
C67	C	-0.216404	-1.909055	-0.506193
C68	C	-0.245159	-1.073645	-0.573255
C69	C	-0.245164	-0.963921	-0.573266
C70	C	-0.187632	-0.963919	-0.439111
C71	C	-0.187624	-1.073641	-0.439106
C72	C	-0.278376	-1.073645	-0.650706
C73	C	-0.278382	-0.963921	-0.650717
C74	C	-0.187593	-1.585596	-0.951856
C75	C	-0.187576	-1.585621	-1.061580
C76	C	-0.245032	-1.451152	-1.061547
C77	C	-0.245046	-1.451123	-0.951825
C78	C	-0.154422	-1.663234	-0.951876
C79	C	-0.154406	-1.663259	-1.061600
C80	C	-0.216404	-1.518233	-0.233204
C81	C	-0.216297	-1.518405	-0.116428
H82	H	-1.044854	-1.640304	-0.628235
C83	C	-0.107426	-1.633841	-0.911662
H84	H	-0.088089	-1.621762	-0.969581
H85	H	-0.095871	-1.689531	-0.870308
H86	H	-0.109325	-1.572075	-0.870299
H87	H	-0.268442	-1.396361	-0.907150
C88	C	-0.171265	-1.767611	-0.905890
H89	H	-0.178754	-1.814114	-0.961339
H90	H	-0.197035	-1.755080	-0.863971
H91	H	-0.148391	-1.798042	-0.864002
C92	C	-0.835689	-1.726565	-0.714680
H93	H	-0.814972	-1.766549	-0.754718
H94	H	-0.853996	-1.686372	-0.760428
H95	H	-0.853982	-1.772383	-0.674524
H96	H	-0.744093	-1.329378	-0.316910
C97	C	-0.261607	-0.917989	-0.755203
H98	H	-0.262181	-0.843627	-0.751643
H99	H	-0.280477	-0.940983	-0.810558
H100	H	-0.231809	-0.941009	-0.767857
H101	H	-0.311410	-1.107639	-0.621426
C102	C	-0.276624	-1.377216	-1.121877
H103	H	-0.272503	-1.386868	-1.195083
H104	H	-0.270051	-1.306630	-1.103893
H105	H	-0.306814	-1.392554	-1.103883
C106	C	-0.155978	-1.133980	-0.365322
H107	H	-0.138852	-1.085591	-0.325373
H108	H	-0.136422	-1.176817	-0.405585
H109	H	-0.173140	-1.176747	-0.319469
C110	C	-0.596422	-1.726436	-0.714674
H111	H	-0.617088	-1.766437	-0.754741
H112	H	-0.578111	-1.772224	-0.674529
H113	H	-0.578124	-1.686192	-0.760411
C114	C	-1.051696	-1.377465	-0.364981
H115	H	-1.031029	-1.337455	-0.324927
H116	H	-1.069996	-1.417697	-0.319249
H117	H	-1.070004	-1.331671	-0.405137
C118	C	-0.265839	-1.113929	-0.760669
H119	H	-0.260683	-1.056039	-0.805895
H120	H	-0.289662	-1.155280	-0.787609
H121	H	-0.239428	-1.155310	-0.756339
C122	C	-0.109747	-1.623976	-1.107597
H123	H	-0.089870	-1.606470	-1.052155
H124	H	-0.115075	-1.563721	-1.149496
H125	H	-0.096743	-1.677515	-1.149508
H126	H	-0.163724	-1.744624	-1.091380
C127	C	-0.953033	-1.659452	-0.647456
H128	H	-0.973708	-1.699435	-0.687516
H129	H	-0.934721	-1.705255	-0.607331
H130	H	-0.934738	-1.619208	-0.693198
C131	C	-0.737179	-1.726505	-0.714690
H132	H	-0.757855	-1.766493	-0.754743
H133	H	-0.718867	-1.772305	-0.674561
H134	H	-0.718884	-1.686269	-0.760439
C135	C	-0.479153	-1.659229	-0.647433
H136	H	-0.458437	-1.699211	-0.687476
H137	H	-0.497462	-1.619034	-0.693175
H138	H	-0.497445	-1.705049	-0.607276
H139	H	-0.164211	-0.919239	-0.384506
H140	H	-0.688444	-1.329349	-0.316930
H141	H	-0.387338	-1.639985	-0.628215
H142	H	-0.313167	-0.934104	-0.628790
H143	H	-0.387474	-1.396313	-0.384196
H144	H	-0.829203	-1.329430	-0.316908
C145	C	-0.953168	-1.377412	-0.364981
H146	H	-0.973881	-1.337432	-0.324930
H147	H	-0.934869	-1.331606	-0.405125
H148	H	-0.934866	-1.417626	-0.319231
C149	C	-0.596646	-1.310122	-0.297706
H150	H	-0.617361	-1.270152	-0.257651
H151	H	-0.578346	-1.264308	-0.337838
H152	H	-0.578345	-1.350342	-0.251959
C153	C	-0.479295	-1.377179	-0.364969
H154	H	-0.458620	-1.337172	-0.324933
H155	H	-0.497594	-1.417394	-0.319220
H156	H	-0.497602	-1.331383	-0.405123
H157	H	-0.688250	-1.707304	-0.695465
