data_functionalizedCrystal
_audit_creation_method	'MofGen! by Chris Wilmer'
_symmetry_space_group_name_H-M	'P1'
_symmetry_Int_Tables_number	1
_symmetry_cell_setting	triclinic
loop_
_symmetry_equiv_pos_as_xyz
  x,y,z
_cell_length_a	12.645331
_cell_length_b	12.645330
_cell_length_c	12.645324
_cell_angle_alpha	89.966098
_cell_angle_beta	89.977038
_cell_angle_gamma	90.011625
loop_
_atom_site_label
_atom_site_type_symbol
_atom_site_fract_x
_atom_site_fract_y
_atom_site_fract_z
Zn1	Zn	1.620771	-0.421988	-0.599431
Zn2	Zn	1.620668	-0.599297	-0.422164
Zn3	Zn	1.443485	-0.422045	-0.422175
Zn4	Zn	1.443483	-0.599206	-0.599379
O5	O	1.532102	-0.510634	-0.510787
O6	O	1.769105	-0.445522	-0.575933
O7	O	1.597122	-0.575846	-0.273818
O8	O	1.467047	-0.273690	-0.445714
O9	O	1.769029	-0.575790	-0.445696
O10	O	1.597298	-0.273648	-0.575943
O11	O	1.466946	-0.445620	-0.273826
O12	O	1.295138	-0.445532	-0.445665
O13	O	1.467044	-0.575636	-0.747734
O14	O	1.295136	-0.575692	-0.575856
O15	O	1.597296	-0.445434	-0.747771
O16	O	1.597120	-0.747632	-0.445646
O17	O	1.466943	-0.747566	-0.575845
C18	C	1.256672	-0.510609	-0.510757
C19	C	1.138842	-0.510624	-0.510769
C20	C	0.971244	-0.428363	-0.429317
C21	C	1.093803	-0.428576	-0.428958
C22	C	1.094332	-0.622301	-0.480250
C23	C	0.971733	-0.621852	-0.479694
C24	C	0.971691	-0.482269	-0.623054
C25	C	1.094296	-0.479774	-0.622430
C26	C	1.532049	-0.786064	-0.510762
C27	C	1.532123	-0.903894	-0.510787
C28	C	1.613886	-1.071455	-0.428712
C29	C	1.614152	-0.948895	-0.428913
C30	C	1.562424	-0.948263	-0.622532
C31	C	1.563073	-1.070861	-0.622096
C32	C	1.420028	-1.071223	-0.482218
C33	C	1.420565	-0.948618	-0.479712
C34	C	1.808607	-0.510660	-0.510819
C35	C	1.926437	-0.510671	-0.510832
C36	C	1.532181	-0.510519	-0.787293
C37	C	1.532215	-0.510470	-0.905123
C38	C	1.532184	-0.234129	-0.510836
C39	C	1.532219	-0.116299	-0.510856
C40	C	1.614476	-0.428797	-1.072711
C41	C	1.614213	-0.428502	-0.950151
C42	C	1.420530	-0.480110	-0.949602
C43	C	1.421030	-0.479490	-1.072201
C44	C	1.560733	-0.622621	-1.072317
C45	C	1.563176	-0.622058	-0.949711
C46	C	1.532084	-0.510672	-0.235358
C47	C	1.532255	-0.510423	-0.117528
H48	H	1.123393	-0.397592	-0.645443
H49	H	1.640750	-0.650261	-1.103301
H50	H	0.943089	-0.645936	-0.397654
Br51	Br	0.922127	-0.289914	-0.460854
H52	H	1.697567	-0.447571	-1.102203
Br53	Br	1.380741	-0.342808	-1.119897
Br54	Br	0.922326	-0.727529	-0.574326
Br55	Br	1.582786	-0.289971	-0.901288
H56	H	1.504753	-0.919109	-0.685375
H57	H	1.357683	-0.536356	-1.101846
H58	H	1.696536	-1.102185	-0.447442
H59	H	1.359179	-1.100222	-0.542047
Br60	Br	1.460916	-0.723989	-1.120613
Br61	Br	1.752651	-0.899869	-0.460490
H62	H	1.357601	-0.537735	-0.920433
H63	H	1.356434	-0.917996	-0.535155
H64	H	1.697029	-0.447515	-0.920079
H65	H	0.940397	-0.446928	-0.346645
H66	H	1.395950	-0.399009	-0.918910
H67	H	1.124959	-0.535349	-0.686413
H68	H	1.595194	-0.918902	-0.346056
H69	H	1.595164	-1.101018	-0.345613
H70	H	1.123082	-0.447349	-0.345797
Br71	Br	1.700172	-0.660214	-0.901270
Br72	Br	1.142938	-0.727251	-0.576108
Br73	Br	0.923403	-0.582187	-0.724285
Br74	Br	1.699754	-1.118388	-0.662527
Br75	Br	1.468225	-1.120301	-0.727570
Br76	Br	1.470612	-0.728883	-0.898630
H77	H	1.595863	-0.346142	-1.103537
H78	H	1.123897	-0.345763	-0.448088
Br79	Br	1.697563	-0.896949	-0.663644
H80	H	1.124989	-0.646799	-0.399090
H81	H	0.940787	-0.402255	-0.650808
H82	H	1.397718	-0.919631	-0.397477
Br83	Br	1.374099	-1.122923	-0.348772
