data_functionalizedCrystal
_audit_creation_method	'MofGen! by Chris Wilmer'
_symmetry_space_group_name_H-M	'P1'
_symmetry_Int_Tables_number	1
_symmetry_cell_setting	triclinic
loop_
_symmetry_equiv_pos_as_xyz
  x,y,z
_cell_length_a	16.974848
_cell_length_b	16.974813
_cell_length_c	15.455313
_cell_angle_alpha	89.012317
_cell_angle_beta	96.329152
_cell_angle_gamma	96.836389
loop_
_atom_site_label
_atom_site_type_symbol
_atom_site_fract_x
_atom_site_fract_y
_atom_site_fract_z
O1	O	-1.056385	0.093495	-0.152858
O2	O	-0.556385	0.593495	0.347142
O3	O	-0.825432	0.107052	-0.137596
O4	O	-0.325432	0.607052	0.362404
O5	O	-0.946959	-0.014470	-0.137593
O6	O	-0.446959	0.485530	0.362407
O7	O	-0.934858	0.215018	-0.152861
O8	O	-0.434858	0.715018	0.347139
O9	O	-0.940010	-0.007549	0.006671
O10	O	-0.440010	0.492451	0.506671
O11	O	-0.818482	0.113973	0.006668
O12	O	-0.318482	0.613973	0.506668
O13	O	-1.049436	0.100416	-0.008594
O14	O	-0.549436	0.600416	0.491406
Cu15	Cu	-0.933324	0.107826	0.012209
Cu16	Cu	-0.433324	0.607826	0.512209
Cu17	Cu	-0.941543	0.099642	-0.158400
Cu18	Cu	-0.441543	0.599642	0.341600
O19	O	-0.927908	0.221938	-0.008597
O20	O	-0.427908	0.721938	0.491403
C21	C	-0.792398	0.110124	-0.063362
C22	C	-0.292398	0.610124	0.436638
C23	C	-0.704322	0.108955	-0.057097
C24	C	-0.204322	0.608955	0.442903
C25	C	-0.208137	0.102811	-0.013392
C26	C	0.291863	0.602811	0.486608
C27	C	-0.290894	0.103908	-0.019280
C28	C	0.209106	0.603908	0.480720
C29	C	-0.336061	0.100679	-0.100864
C30	C	0.163939	0.600679	0.399136
C31	C	-0.298467	0.096359	-0.176564
C32	C	0.201533	0.596359	0.323436
C33	C	-0.215711	0.095267	-0.170676
C34	C	0.284289	0.595267	0.329324
C35	C	-0.583972	0.103544	-0.126909
C36	C	-0.083972	0.603544	0.373091
C37	C	-0.666734	0.104634	-0.132792
C38	C	-0.166734	0.604634	0.367208
C39	C	-0.659154	0.112185	0.024493
C40	C	-0.159154	0.612185	0.524493
C41	C	-0.576398	0.111088	0.030375
C42	C	-0.076398	0.611088	0.530375
C43	C	-0.538810	0.106773	-0.045326
C44	C	-0.038810	0.606773	0.454674
N45	N	-0.420653	0.101798	-0.106885
N46	N	0.079347	0.601798	0.393115
N47	N	-0.454219	0.105659	-0.039305
N48	N	0.045781	0.605659	0.460695
C49	C	-0.942895	-0.040367	-0.063360
C50	C	-0.442895	0.459633	0.436640
C51	C	-0.941129	-0.127841	-0.057098
C52	C	-0.441129	0.372159	0.442902
C53	C	-0.944090	-0.172705	-0.132794
C54	C	-0.444090	0.327295	0.367206
C55	C	-0.942425	-0.254896	-0.126908
C56	C	-0.442425	0.245104	0.373092
C57	C	-0.937806	-0.292223	-0.045325
C58	C	-0.437806	0.207777	0.454675
C59	C	-0.934843	-0.247353	0.030377
C60	C	-0.434843	0.252647	0.530377
C61	C	-0.936502	-0.165162	0.024490
C62	C	-0.436502	0.334838	0.524490
C63	C	-0.932434	-0.537630	-0.019285
C64	C	-0.432434	-0.037630	0.480715
C65	C	-0.930778	-0.619827	-0.013403
C66	C	-0.430778	-0.119827	0.486597
C67	C	-0.938359	-0.627365	-0.170689
C68	C	-0.438359	-0.127365	0.329311
C69	C	-0.940022	-0.545173	-0.176569
C70	C	-0.440022	-0.045173	0.323431
C71	C	-0.937055	-0.500310	-0.100867
C72	C	-0.437055	-0.000310	0.399133
N73	N	-0.936108	-0.376235	-0.039306
N74	N	-0.436108	0.123765	0.460694
N75	N	-0.938748	-0.416298	-0.106887
N76	N	-0.438748	0.083702	0.393113
C77	C	-0.082470	0.097339	-0.082827
C78	C	0.417530	0.597339	0.417173
C79	C	-0.170548	0.098489	-0.089087
C80	C	0.329452	0.598489	0.410913
C81	C	-0.931973	0.247835	-0.082832
C82	C	-0.431973	0.747835	0.417168
C83	C	-0.933739	0.335309	-0.089099
C84	C	-0.433739	0.835309	0.410901
N85	N	-0.927550	0.113582	0.132206
N86	N	-0.427550	0.613582	0.632206
N87	N	-0.947324	0.093880	-0.278396
N88	N	-0.447324	0.593880	0.221604
C89	C	-0.979197	0.061974	0.177599
C90	C	-0.479197	0.561974	0.677599
C91	C	-0.974837	0.066335	0.268407
C92	C	-0.474837	0.566335	0.768407
C93	C	-0.918833	0.122307	0.313819
C94	C	-0.418833	0.622307	0.813819
C95	C	-0.867181	0.173918	0.268420
C96	C	-0.367181	0.673918	0.768420
C97	C	-0.871537	0.169553	0.177615
C98	C	-0.371537	0.669553	0.677615
C99	C	-0.900028	0.141125	0.585399
C100	C	-0.400028	0.641125	1.085399
C101	C	-0.895677	0.145488	0.676211
C102	C	-0.395677	0.645488	1.176211
C103	C	-1.003333	0.037903	0.676191
C104	C	-0.503333	0.537903	1.176191
C105	C	-1.007688	0.033547	0.585383
C106	C	-0.507688	0.533547	1.085383
C107	C	-0.956032	0.085154	0.539993
C108	C	-0.456032	0.585154	1.039993
N109	N	-0.914377	0.126767	0.406639
N110	N	-0.414377	0.626767	0.906639
N111	N	-0.960485	0.080690	0.447175
N112	N	-0.460485	0.580690	0.947175
H113	H	-0.539629	0.113701	0.096810
H114	H	-0.039629	0.613701	0.596810
N115	N	-1.039587	0.001596	0.128613
N116	N	-0.539587	0.501596	0.628613
H117	H	-1.076591	0.029758	0.086344
H118	H	-0.576591	0.529758	0.586344
H119	H	-1.071587	-0.030427	0.171203
H120	H	-0.571587	0.469573	0.671203
N121	N	-0.933319	-0.116767	0.106130
N122	N	-0.433319	0.383233	0.606130
H123	H	-0.884703	-0.075896	0.110178
H124	H	-0.384703	0.424104	0.610178
H125	H	-0.930175	-0.152937	0.158660
H126	H	-0.430175	0.347063	0.658660
N127	N	-1.030571	0.010689	0.317351
N128	N	-0.530571	0.510689	0.817351
H129	H	-1.022093	-0.045973	0.306133
H130	H	-0.522093	0.454027	0.806133
H131	H	-1.087617	0.018890	0.296911
H132	H	-0.587617	0.518890	0.796911
N133	N	-0.331435	0.108554	0.062364
N134	N	0.168565	0.608554	0.562364
H135	H	-0.390714	0.108758	0.046257
H136	H	0.109286	0.608758	0.546257
H137	H	-0.309001	0.158858	0.094753
H138	H	0.190999	0.658858	0.594753
H139	H	-1.045387	-0.004114	0.713157
H140	H	-0.545387	0.495886	1.213157
N141	N	-1.068093	-0.026823	0.536404
N142	N	-0.568093	0.473177	1.036404
H143	H	-1.100150	-0.058856	0.578940
H144	H	-0.600150	0.441144	1.078940
H145	H	-1.039450	-0.063356	0.503316
H146	H	-0.539450	0.436644	1.003316
N147	N	-0.929246	-0.489249	0.062360
N148	N	-0.429246	0.010751	0.562360
H149	H	-0.878170	-0.495304	0.100755
H150	H	-0.378170	0.004696	0.600755
H151	H	-0.976475	-0.508536	0.094703
H152	H	-0.476475	-0.008536	0.594703
H153	H	-0.829480	0.211577	0.140657
H154	H	-0.329480	0.711577	0.640657
N155	N	-0.715450	0.101156	-0.220791
N156	N	-0.215450	0.601156	0.279209
H157	H	-0.773579	0.102498	-0.213031
H158	H	-0.273579	0.602498	0.286969
H159	H	-0.708952	0.050469	-0.251115
H160	H	-0.208952	0.550469	0.248885
N161	N	-0.941560	-0.675752	-0.252335
N162	N	-0.441560	-0.175752	0.247665
H163	H	-0.891907	-0.703419	-0.250420
H164	H	-0.391907	-0.203419	0.249580
H165	H	-0.944767	-0.639583	-0.304863
H166	H	-0.444767	-0.139583	0.195137
H167	H	-0.931077	-0.277750	0.096804
H168	H	-0.431077	0.222250	0.596804
N169	N	-0.699694	0.116844	0.106137
N170	N	-0.199694	0.616844	0.606137
H171	H	-0.758973	0.117047	0.090031
H172	H	-0.258973	0.617047	0.590031
H173	H	-0.677257	0.167153	0.138513
H174	H	-0.177257	0.667153	0.638513
H175	H	-0.857970	0.183148	0.548449
H176	H	-0.357970	0.683148	1.048449
H177	H	-0.944840	-0.291422	-0.188548
H178	H	-0.444840	0.208578	0.311452
N179	N	-0.543438	0.098879	-0.208553
N180	N	-0.043438	0.598879	0.291447
H181	H	-0.584612	0.096992	-0.261126
H182	H	-0.084612	0.596992	0.238874
H183	H	-0.515584	0.049410	-0.206540
H184	H	-0.015584	0.549410	0.293460
H185	H	-0.850070	0.191071	0.713182
H186	H	-0.350070	0.691071	1.213182
H187	H	-0.821577	0.219489	0.305401
H188	H	-0.321577	0.719489	0.805401
N189	N	-0.347178	0.092879	-0.264560
N190	N	0.152822	0.592879	0.235440
H191	H	-0.405309	0.094223	-0.256806
H192	H	0.094691	0.594223	0.243194
H193	H	-0.340680	0.042190	-0.294880
H194	H	0.159320	0.542190	0.205120
H195	H	-0.185107	0.091750	-0.232315
H196	H	0.314893	0.591750	0.267685
N197	N	-0.159426	0.106287	0.074604
N198	N	0.340574	0.606287	0.574604
H199	H	-0.195870	0.108643	0.121692
H200	H	0.304130	0.608643	0.621692
H201	H	-0.118973	0.155138	0.077701
H202	H	0.381027	0.655138	0.577701
N203	N	-0.949079	-0.132450	-0.220789
N204	N	-0.449079	0.367550	0.279211
H205	H	-0.950700	-0.173346	-0.267848
H206	H	-0.450700	0.326654	0.232152
H207	H	-0.900797	-0.091909	-0.223673
H208	H	-0.400797	0.408091	0.276327
H209	H	-0.943784	-0.514788	-0.243003
H210	H	-0.443784	-0.014788	0.256997
H211	H	-0.927012	-0.650215	0.053035
H212	H	-0.427012	-0.150215	0.553035
