data_functionalizedCrystal
_audit_creation_method	'MofGen! by Chris Wilmer'
_symmetry_space_group_name_H-M	'P1'
_symmetry_Int_Tables_number	1
_symmetry_cell_setting	triclinic
loop_
_symmetry_equiv_pos_as_xyz
  x,y,z
_cell_length_a	13.635800
_cell_length_b	27.923496
_cell_length_c	9.514088
_cell_angle_alpha	86.314436
_cell_angle_beta	61.156455
_cell_angle_gamma	98.963946
loop_
_atom_site_label
_atom_site_type_symbol
_atom_site_fract_x
_atom_site_fract_y
_atom_site_fract_z
V1	V	-2.097737	-0.067987	0.501771
O2	O	-2.101066	0.002382	0.491175
O3	O	-2.062167	-0.133956	0.499344
O4	O	-2.115232	-0.067330	0.720153
O5	O	-2.047634	-0.064706	0.268838
V6	V	-2.335621	-0.059524	0.473789
O7	O	-2.236871	-0.086551	0.563154
O8	O	-2.421586	-0.040960	0.412406
O9	O	-2.259588	0.006444	0.476215
O10	O	-2.390990	-0.129894	0.484385
O11	O	-2.444423	-0.062806	0.706722
O12	O	-2.206523	-0.060182	0.255407
V13	V	-1.597737	-0.067987	0.501771
O14	O	-1.601066	0.002382	0.491175
O15	O	-1.562167	-0.133956	0.499344
O16	O	-1.615232	-0.067330	0.720153
O17	O	-1.547634	-0.064706	0.268838
V18	V	-1.835621	-0.059524	0.473789
O19	O	-1.736871	-0.086551	0.563154
O20	O	-1.921586	-0.040960	0.412406
O21	O	-1.759588	0.006444	0.476215
O22	O	-1.890990	-0.129894	0.484385
O23	O	-1.944423	-0.062806	0.706722
O24	O	-1.706523	-0.060182	0.255407
C25	C	-1.980553	-0.150026	0.491688
C26	C	-1.992392	-0.203959	0.491159
C27	C	-2.158151	-0.540895	0.496107
C28	C	-2.202725	-0.743601	0.494196
O29	O	-2.286905	-0.771928	0.500866
N30	N	-2.116115	-0.766461	0.485898
C31	C	-2.018357	-0.738643	0.478089
O32	O	-1.945717	-0.762739	0.471005
C33	C	-1.973788	-0.535938	0.480012
C34	C	-2.060400	-0.513080	0.488294
C35	C	-2.244756	-0.518036	0.504390
C36	C	-2.233610	-0.467362	0.504859
C37	C	-2.135858	-0.439547	0.497045
C38	C	-2.049253	-0.462406	0.488762
C39	C	-1.876035	-0.508121	0.472215
C40	C	-1.864902	-0.457443	0.472700
C41	C	-1.951514	-0.434584	0.480982
C42	C	-1.940355	-0.383917	0.481418
N43	N	-2.026966	-0.361057	0.489715
C44	C	-2.124717	-0.388872	0.497529
C45	C	-2.041762	-0.845065	0.477077
C46	C	-2.052903	-0.895741	0.476593
C47	C	-2.237272	-0.900696	0.492703
C48	C	-2.226126	-0.850019	0.493175
C49	C	-2.128372	-0.822205	0.485374
C50	C	-2.101301	-0.282453	0.498511
C51	C	-2.090143	-0.231774	0.498973
C52	C	-1.905779	-0.226824	0.482872
C53	C	-1.916932	-0.277498	0.482402
C54	C	-2.014703	-0.305312	0.490228
O55	O	-1.856215	-0.355560	0.474770
O56	O	-2.197355	-0.364768	0.504648
C57	C	-2.169298	-0.591569	0.495638
C58	C	-2.082693	-0.614428	0.487356
C59	C	-1.984941	-0.586613	0.479542
C60	C	-2.093834	-0.665103	0.486872
C61	C	-2.191585	-0.692918	0.494686
C62	C	-2.278196	-0.670058	0.502983
C63	C	-2.267049	-0.619384	0.503452
C64	C	-1.898331	-0.609473	0.471245
C65	C	-1.909484	-0.660147	0.470775
C66	C	-2.007236	-0.687962	0.478588
C67	C	-2.048242	-0.065037	0.773349
C68	C	-2.103112	-0.064936	0.951883
C69	C	-2.172872	0.022512	0.483868
C70	C	-2.150654	0.076444	0.484407
C71	C	-2.105183	-0.062477	0.202203
C72	C	-2.039931	-0.062575	0.023666
C73	C	-1.480553	-0.150026	0.491688
C74	C	-1.492392	-0.203959	0.491159
C75	C	-1.548242	-0.065037	0.773349
C76	C	-1.603112	-0.064936	0.951883
C77	C	-1.672872	0.022512	0.483868
C78	C	-1.650654	0.076444	0.484407
C79	C	-1.605183	-0.062477	0.202203
C80	C	-1.539931	-0.062575	0.023666
C81	C	-1.590143	-0.231774	0.498973
C82	C	-1.601289	-0.282451	0.498501
C83	C	-1.514679	-0.305311	0.490204
C84	C	-1.416921	-0.277493	0.482394
C85	C	-1.405780	-0.226817	0.482878
C86	C	-1.725397	0.104259	0.476597
C87	C	-1.704524	0.154935	0.477077
C88	C	-1.608913	0.177796	0.485378
C89	C	-1.534163	0.149978	0.493183
C90	C	-1.555031	0.099302	0.492692
H91	H	-2.160676	-0.213165	0.505711
H92	H	-1.838944	-0.678753	0.464020
C93	C	-1.472812	0.068709	0.501287
H94	H	-1.498918	0.035254	0.499793
H95	H	-1.470663	0.071405	0.598834
H96	H	-1.398121	0.080592	0.410503
C97	C	-2.321400	-0.824879	0.502291
H98	H	-2.381211	-0.848707	0.506880
H99	H	-2.290842	-0.800621	0.408657
H100	H	-2.350946	-0.809808	0.596987
C101	C	-1.410150	-0.059953	0.922194
H102	H	-1.377871	-0.058462	0.991167
H103	H	-1.375200	-0.031443	0.841297
H104	H	-1.397313	-0.088345	0.871530
H105	H	-1.699190	-0.066881	1.027020
C106	C	-1.780764	-0.533256	0.463126
H107	H	-1.720967	-0.509427	0.458566
H108	H	-1.751213	-0.548333	0.368452
H109	H	-1.811336	-0.557510	0.556785
H110	H	-2.199190	-0.066881	1.027020
H111	H	-2.357786	-0.692713	0.509330
H112	H	-1.660674	-0.213167	0.505719
H113	H	-2.180915	-0.305093	0.504886
H114	H	-1.680894	-0.305094	0.504856
H115	H	-1.962156	-0.822423	0.470721
H116	H	-2.304143	-0.448756	0.511613
C117	C	-1.526938	-0.361053	0.489662
H118	H	-1.461362	-0.370689	0.483611
H119	H	-1.533461	-0.368837	0.398368
H120	H	-1.593555	-0.378024	0.586698
C121	C	-2.352286	-0.548625	0.512972
H122	H	-2.402254	-0.527745	0.517961
H123	H	-2.390529	-0.573091	0.607272
H124	H	-2.330411	-0.563900	0.418941
H125	H	-1.346407	-0.296114	0.475639
C126	C	-1.910150	-0.059953	0.922194
H127	H	-1.877871	-0.058462	0.991167
H128	H	-1.875200	-0.031443	0.841297
H129	H	-1.897313	-0.088345	0.871530
C130	C	-1.298239	-0.196224	0.474254
H131	H	-1.248255	-0.217100	0.469225
H132	H	-1.320088	-0.180941	0.568257
H133	H	-1.260012	-0.171764	0.379929
H134	H	-1.591933	0.219060	0.485776
H135	H	-1.803256	0.085653	0.469840
H136	H	-2.316861	-0.923351	0.499048
H137	H	-1.765402	0.177578	0.470724
H138	H	-1.982366	-0.914347	0.469829
H139	H	-1.846409	-0.296111	0.475669
C140	C	-1.757365	-0.426849	0.464103
H141	H	-1.707381	-0.447724	0.459088
H142	H	-1.779225	-0.411565	0.558106
H143	H	-1.719133	-0.402389	0.369776
C144	C	-1.798263	-0.196222	0.474290
H145	H	-1.804044	-0.162769	0.475778
H146	H	-1.732155	-0.198914	0.376753
H147	H	-1.792277	-0.208099	0.565085
H148	H	-1.456314	0.168599	0.499940
H149	H	-2.337579	-0.600777	0.510195
H150	H	-1.818731	-0.586831	0.464884
