data_functionalizedCrystal
_audit_creation_method	'MofGen! by Chris Wilmer'
_symmetry_space_group_name_H-M	'P1'
_symmetry_Int_Tables_number	1
_symmetry_cell_setting	triclinic
loop_
_symmetry_equiv_pos_as_xyz
  x,y,z
_cell_length_a	8.559649
_cell_length_b	10.654550
_cell_length_c	9.130313
_cell_angle_alpha	90.000276
_cell_angle_beta	89.997262
_cell_angle_gamma	102.868203
loop_
_atom_site_label
_atom_site_type_symbol
_atom_site_fract_x
_atom_site_fract_y
_atom_site_fract_z
O1	O	0.224185	-1.644682	-0.121684
O2	O	0.245544	-1.276997	-0.121710
O3	O	0.002621	-1.493232	-0.121693
O4	O	0.467107	-1.428446	-0.121701
O5	O	0.002614	-1.493220	0.121906
O6	O	0.245537	-1.276984	0.121889
O7	O	0.224178	-1.644669	0.121915
Cu8	Cu	0.234857	-1.460826	0.144144
Cu9	Cu	0.234865	-1.460840	-0.143939
O10	O	0.467100	-1.428433	0.121898
C11	C	0.243972	-1.230355	0.000086
C12	C	0.239280	-1.091396	0.000076
C13	C	-0.056858	-1.498136	0.000104
C14	C	-0.234076	-1.512750	0.000097
N15	N	0.234850	-1.460824	0.346767
C16	C	0.526579	-1.423530	0.000098
C17	C	0.703797	-1.408915	0.000095
C18	C	0.225750	-1.691311	0.000116
C19	C	0.230442	-1.830270	0.000116
C20	C	0.382309	-0.997136	0.000078
C21	C	0.377890	-0.866571	0.000103
C22	C	0.087402	-0.924541	0.000119
C23	C	0.091822	-1.055103	0.000104
N24	N	0.234859	-1.460853	-0.346562
C25	C	0.127329	-1.556598	0.423426
C26	C	0.127330	-1.556610	0.576763
C27	C	0.342385	-1.365070	0.576768
C28	C	0.342375	-1.365054	0.423434
H29	H	-0.316473	-1.612835	0.000116
H30	H	-0.032654	-0.894975	0.000151
O31	O	0.525680	-1.032171	0.000128
C32	C	0.650971	-0.920970	0.000100
H33	H	0.605237	-0.836404	0.046231
H34	H	0.753828	-0.938426	0.070817
H35	H	0.695163	-0.898161	-0.116765
H36	H	0.429932	-1.287096	0.639205
O37	O	0.516723	-0.774891	-0.000099
C38	C	0.522871	-0.697643	-0.126269
H39	H	0.396103	-0.703241	-0.168314
H40	H	0.581242	-0.593568	-0.097888
H41	H	0.596239	-0.733653	-0.214628
H42	H	-0.024657	-1.131856	0.000106
H43	H	0.039773	-1.634579	0.361008
H44	H	0.039775	-1.634596	0.639175
O45	O	0.446982	-1.271952	0.349184
C46	C	0.541872	-1.187414	0.449728
H47	H	0.544301	-1.238673	0.559023
H48	H	0.669111	-1.155970	0.405407
H49	H	0.488937	-1.099240	0.466057
H50	H	-0.213815	-1.308837	0.000093
