data_functionalizedCrystal
_audit_creation_method	'MofGen! by Chris Wilmer'
_symmetry_space_group_name_H-M	'P1'
_symmetry_Int_Tables_number	1
_symmetry_cell_setting	triclinic
loop_
_symmetry_equiv_pos_as_xyz
  x,y,z
_cell_length_a	12.759394
_cell_length_b	14.908618
_cell_length_c	14.908854
_cell_angle_alpha	90.206001
_cell_angle_beta	86.673619
_cell_angle_gamma	93.290508
loop_
_atom_site_label
_atom_site_type_symbol
_atom_site_fract_x
_atom_site_fract_y
_atom_site_fract_z
Zn1	Zn	-0.469343	-1.345352	-0.587641
Zn2	Zn	0.030657	-0.845352	-0.087641
Zn3	Zn	-0.655733	-1.353943	-0.437281
Zn4	Zn	-0.155733	-0.853943	0.062719
Zn5	Zn	-0.470531	-1.203662	-0.428631
Zn6	Zn	0.029469	-0.703662	0.071369
Zn7	Zn	-0.635440	-1.194974	-0.578932
Zn8	Zn	-0.135440	-0.694974	-0.078932
O9	O	-0.557762	-1.274483	-0.508121
O10	O	-0.057762	-0.774483	-0.008121
O11	O	-0.502064	-1.472318	-0.574960
O12	O	-0.002064	-0.972318	-0.074960
O13	O	-0.640155	-1.341239	-0.310306
O14	O	-0.140155	-0.841239	0.189694
O15	O	-0.323353	-1.222499	-0.449749
O16	O	0.176647	-0.722499	0.050251
O17	O	-0.639004	-1.478630	-0.464492
O18	O	-0.139004	-0.978630	0.035508
O19	O	-0.322480	-1.326598	-0.566572
O20	O	0.177520	-0.826598	-0.066572
O21	O	-0.504088	-1.230829	-0.303951
O22	O	-0.004088	-0.730829	0.196049
O23	O	-0.484411	-1.076683	-0.441304
O24	O	0.015589	-0.576683	0.058696
O25	O	-0.604417	-1.207691	-0.705914
O26	O	-0.104417	-0.707691	-0.205914
O27	O	-0.605569	-1.070300	-0.551729
O28	O	-0.105569	-0.570300	-0.051729
O29	O	-0.482386	-1.318173	-0.712313
O30	O	0.017614	-0.818173	-0.212313
O31	O	-0.800061	-1.332814	-0.456047
O32	O	-0.300061	-0.832814	0.043953
O33	O	-0.785152	-1.216021	-0.560117
O34	O	-0.285152	-0.716021	-0.060117
C35	C	-0.542917	-1.040866	-0.494633
C36	C	-0.042917	-0.540866	0.005367
C37	C	-0.536591	-0.940922	-0.488884
C38	C	-0.036591	-0.440922	0.011116
C39	C	-0.651084	-0.746528	-0.592913
C40	C	-0.151084	-0.246528	-0.092913
C41	C	-0.645142	-0.652622	-0.587514
C42	C	-0.145142	-0.152622	-0.087514
C43	C	-0.518761	-0.659202	-0.472694
C44	C	-0.018761	-0.159202	0.027306
C45	C	-0.524703	-0.753108	-0.478093
C46	C	-0.024703	-0.253108	0.021907
C47	C	-0.590867	-0.796768	-0.538203
C48	C	-0.090867	-0.296768	-0.038203
C49	C	-0.596814	-0.890676	-0.543596
C50	C	-0.096814	-0.390676	-0.043596
C51	C	-0.470428	-0.897254	-0.428781
C52	C	0.029572	-0.397254	0.071219
C53	C	-0.464487	-0.803348	-0.423383
C54	C	0.035513	-0.303348	0.076617
C55	C	-0.830727	-1.274430	-0.508096
C56	C	-0.330727	-0.774430	-0.008096
C57	C	-0.947506	-1.274488	-0.508120
C58	C	-0.447506	-0.774488	-0.008120
C59	C	-0.962977	-1.396187	-0.399843
C60	C	-0.462977	-0.896187	0.100157
C61	C	-1.025574	-1.457059	-0.345717
C62	C	-0.525574	-0.957059	0.154283
C63	C	-1.135297	-1.457110	-0.345744
C64	C	-0.635297	-0.957110	0.154256
C65	C	-1.182425	-1.396285	-0.399906
C66	C	-0.682425	-0.896285	0.100094
C67	C	-1.119828	-1.335412	-0.454033
C68	C	-0.619828	-0.835412	0.045967
C69	C	-1.010103	-1.335366	-0.453997
C70	C	-0.510103	-0.835366	0.046003
C71	C	-1.104357	-1.213719	-0.562313
C72	C	-0.604357	-0.713719	-0.062313
C73	C	-0.994634	-1.213662	-0.562282
C74	C	-0.494634	-0.713662	-0.062282
C75	C	-1.151485	-1.152894	-0.616475
C76	C	-0.651485	-0.652894	-0.116475
C77	C	-1.088888	-1.092016	-0.670598
C78	C	-0.588888	-0.592016	-0.170598
C79	C	-0.979159	-1.091967	-0.670568
C80	C	-0.479159	-0.591967	-0.170568
C81	C	-0.932037	-1.152790	-0.616409
C82	C	-0.432037	-0.652790	-0.116409
C83	C	-0.283730	-1.274559	-0.508167
C84	C	0.216270	-0.774559	-0.008167
C85	C	-0.166954	-1.274592	-0.508187
C86	C	0.333046	-0.774592	-0.008187
C87	C	-0.541005	-1.261004	-0.742651
C88	C	-0.041005	-0.761004	-0.242651
C89	C	-0.533865	-1.255260	-0.842594
C90	C	-0.033865	-0.755260	-0.342594
C91	C	-0.572657	-0.509012	-0.521656
C92	C	-0.072657	-0.009012	-0.021656
C93	C	-0.578984	-0.608956	-0.527406
C94	C	-0.078984	-0.108956	-0.027406
C95	C	-0.662132	-1.359458	-1.037018
C96	C	-0.162132	-0.859458	-0.537018
C97	C	-0.655427	-1.354065	-1.130924
C98	C	-0.155427	-0.854065	-0.630924
C99	C	-0.513744	-1.239084	-1.124312
C100	C	-0.013744	-0.739084	-0.624312
C101	C	-0.520449	-1.244478	-1.030407
C102	C	-0.020449	-0.744478	-0.530407
C103	C	-0.594647	-1.304666	-0.986763
C104	C	-0.094647	-0.804666	-0.486763
C105	C	-0.601357	-1.310055	-0.892856
C106	C	-0.101357	-0.810055	-0.392856
C107	C	-0.459670	-1.195080	-0.886247
C108	C	0.040330	-0.695080	-0.386247
C109	C	-0.452964	-1.189686	-0.980152
C110	C	0.047036	-0.689686	-0.480152
C111	C	-0.574380	-1.287961	-0.274506
C112	C	-0.074380	-0.787961	0.225494
C113	C	-0.581236	-1.293879	-0.174574
C114	C	-0.081236	-0.793879	0.325426
H115	H	-0.873636	-1.396140	-0.399803
H116	H	-0.373636	-0.896140	0.100197
Br117	Br	-0.702057	-1.391733	-0.833625
Br118	Br	-0.202057	-0.891733	-0.333625
H119	H	-0.694174	-0.611720	-0.632067
H120	H	-0.194174	-0.111720	-0.132067
H121	H	-1.127269	-1.042501	-0.714697
H122	H	-0.627269	-0.542501	-0.214697
H123	H	-0.421398	-0.938170	-0.384230
H124	H	0.078602	-0.438170	0.115770
Br125	Br	-1.331338	-1.395959	-0.399497
Br126	Br	-0.831338	-0.895959	0.100503
Br127	Br	-0.961612	-1.539610	-0.272222
Br128	Br	-0.461612	-1.039610	0.227778
H129	H	-0.410615	-0.767787	-0.374445
H130	H	0.089385	-0.267787	0.125555
Br131	Br	-1.300398	-1.152566	-0.616068
Br132	Br	-0.800398	-0.652566	-0.116068
H133	H	-0.928197	-1.042400	-0.714648
H134	H	-0.428197	-0.542400	-0.214648
H135	H	-0.404719	-1.150463	-0.845319
H136	H	0.095281	-0.650463	-0.345319
Br137	Br	-0.747013	-1.428433	-1.199125
Br138	Br	-0.247013	-0.928433	-0.699125
Br139	Br	-0.413042	-1.157419	-1.183559
Br140	Br	0.086958	-0.657419	-0.683559
H141	H	-0.392552	-1.140685	-1.015700
H142	H	0.107448	-0.640685	-0.515700
H143	H	-0.842696	-1.152750	-0.616373
H144	H	-0.342696	-0.652750	-0.116373
H145	H	-0.722543	-1.408470	-1.001483
H146	H	-0.222543	-0.908470	-0.501483
Br147	Br	-0.686612	-0.949928	-0.625169
Br148	Br	-0.186612	-0.449928	-0.125169
Br149	Br	-0.740890	-0.805786	-0.674476
Br150	Br	-0.240890	-0.305786	-0.174476
H151	H	-0.464887	-0.623638	-0.423761
H152	H	0.035113	-0.123638	0.076239
H153	H	-1.186264	-1.506682	-0.301675
H154	H	-0.686264	-1.006682	0.198325
