data_functionalizedCrystal
_audit_creation_method	'MofGen! by Chris Wilmer'
_symmetry_space_group_name_H-M	'P1'
_symmetry_Int_Tables_number	1
_symmetry_cell_setting	triclinic
loop_
_symmetry_equiv_pos_as_xyz
  x,y,z
_cell_length_a	16.109301
_cell_length_b	16.109301
_cell_length_c	14.586319
_cell_angle_alpha	90.005214
_cell_angle_beta	89.999213
_cell_angle_gamma	96.538519
loop_
_atom_site_label
_atom_site_type_symbol
_atom_site_fract_x
_atom_site_fract_y
_atom_site_fract_z
O1	O	1.103131	-0.106866	-0.076185
O2	O	0.861069	-0.120165	-0.076200
O3	O	0.988749	0.007515	-0.076183
O4	O	0.975450	-0.234547	-0.076203
O5	O	0.988741	0.007517	0.076298
O6	O	0.861060	-0.120164	0.076281
O7	O	1.103122	-0.106864	0.076295
Cu8	Cu	0.982090	-0.113514	0.090211
Cu9	Cu	0.982101	-0.113516	-0.090115
O10	O	0.975441	-0.234545	0.076278
C11	C	0.830090	-0.119626	0.000038
C12	C	0.737794	-0.118011	0.000033
C13	C	0.988206	0.038491	0.000058
C14	C	0.986591	0.130786	0.000059
N15	N	0.982089	-0.113512	0.217042
C16	C	0.515522	-0.190018	0.000038
C17	C	0.428801	-0.188494	0.000044
C18	C	0.448676	-0.037006	0.000052
C19	C	0.535394	-0.038530	0.000053
C20	C	0.568815	-0.115039	0.000041
C21	C	0.395376	-0.111990	0.000046
C22	C	0.301350	-0.110337	0.000053
C23	C	0.662847	-0.116693	0.000036
C24	C	1.134101	-0.107404	0.000055
C25	C	1.226397	-0.109019	0.000054
C26	C	0.975984	-0.265521	0.000035
C27	C	0.977600	-0.357816	0.000028
C28	C	1.058599	0.353059	0.000049
C29	C	1.057075	0.439779	0.000041
C30	C	0.905586	0.419905	0.000036
C31	C	0.907111	0.333186	0.000037
C32	C	0.983620	0.299766	0.000048
C33	C	0.980571	0.473205	0.000039
C34	C	0.978918	0.567231	0.000031
C35	C	0.985273	0.205734	0.000055
N36	N	0.982109	-0.113511	-0.216947
C37	C	1.038644	-0.056994	0.452057
C38	C	1.038647	-0.056992	0.548038
C39	C	0.925547	-0.170032	0.548032
C40	C	0.925541	-0.170030	0.452052
C41	C	0.982095	-0.113511	0.404067
C42	C	0.982103	-0.113512	0.596028
C43	C	0.982105	-0.113510	0.700095
C44	C	0.982092	-0.113512	0.299993
H45	H	0.542730	-0.252317	0.000035
H46	H	1.118130	0.483168	0.000040
N47	N	0.823073	0.455959	0.000037
H48	H	0.790225	0.436526	0.056561
H49	H	0.790291	0.436512	-0.056526
N50	N	0.826232	0.275706	0.000043
H51	H	0.823489	0.239289	0.056568
H52	H	0.823535	0.239332	-0.056519
N53	N	0.864560	-0.231000	0.599783
H54	H	0.805557	-0.221408	0.583089
H55	H	0.873216	-0.222401	0.667852
N56	N	0.371320	-0.269364	0.000092
H57	H	0.405654	-0.318060	0.000101
H58	H	0.334883	-0.272063	-0.056417
N59	N	0.412629	0.045511	0.000070
H60	H	0.349606	0.035102	0.000068
H61	H	0.432127	0.078322	-0.056453
N62	N	0.592883	0.042343	0.000067
H63	H	0.558554	0.091043	0.000069
H64	H	0.629301	0.045010	-0.056456
N65	N	1.141115	0.317010	0.000060
H66	H	1.188382	0.363933	0.000058
H67	H	1.145049	0.281456	-0.056465
H68	H	1.084693	-0.010972	0.412989
H69	H	1.084694	-0.010969	0.587108
N70	N	0.864538	-0.230984	0.400284
H71	H	0.828716	-0.266791	0.445245
H72	H	0.896350	-0.267748	0.360449
