data_functionalizedCrystal
_audit_creation_method	'MofGen! by Chris Wilmer'
_symmetry_space_group_name_H-M	'P1'
_symmetry_Int_Tables_number	1
_symmetry_cell_setting	triclinic
loop_
_symmetry_equiv_pos_as_xyz
  x,y,z
_cell_length_a	12.759395
_cell_length_b	25.639240
_cell_length_c	12.759387
_cell_angle_alpha	89.955243
_cell_angle_beta	89.982262
_cell_angle_gamma	90.032603
loop_
_atom_site_label
_atom_site_type_symbol
_atom_site_fract_x
_atom_site_fract_y
_atom_site_fract_z
Zn1	Zn	1.606119	-0.208119	-0.593881
Zn2	Zn	1.605960	-0.295567	-0.418163
Zn3	Zn	1.430423	-0.208147	-0.418222
Zn4	Zn	1.430354	-0.295525	-0.593805
O5	O	1.518214	-0.251840	-0.506018
O6	O	1.753119	-0.219725	-0.570579
O7	O	1.582636	-0.284000	-0.271149
O8	O	1.453824	-0.134978	-0.441580
O9	O	1.753002	-0.283973	-0.441479
O10	O	1.582908	-0.134958	-0.570636
O11	O	1.453670	-0.219773	-0.271193
O12	O	1.283393	-0.219732	-0.441506
O13	O	1.453708	-0.283902	-0.740836
O14	O	1.283342	-0.283929	-0.570506
O15	O	1.582842	-0.219685	-0.740892
O16	O	1.582570	-0.368727	-0.441405
O17	O	1.453554	-0.368696	-0.570449
C18	C	1.245247	-0.251829	-0.506005
C19	C	1.128470	-0.251838	-0.506024
C20	C	1.128573	-0.185045	-0.640673
C21	C	1.073763	-0.151655	-0.708006
C22	C	0.964042	-0.151664	-0.708019
C23	C	0.909127	-0.185066	-0.640690
C24	C	0.963936	-0.218456	-0.573357
C25	C	1.073660	-0.218444	-0.573353
C26	C	0.963834	-0.285245	-0.438704
C27	C	1.073555	-0.285239	-0.438695
C28	C	0.908919	-0.318647	-0.371375
C29	C	0.963728	-0.352040	-0.304046
C30	C	1.073457	-0.352030	-0.304036
C31	C	1.128365	-0.318629	-0.371362
C32	C	1.518066	-0.387682	-0.505935
C33	C	1.518098	-0.445796	-0.505935
C34	C	1.585461	-0.806110	-0.573339
C35	C	1.585492	-0.860715	-0.573360
O36	O	1.642590	-0.888910	-0.630584
N37	N	1.518360	-0.888079	-0.506119
C38	C	1.451185	-0.860836	-0.438860
O39	O	1.394085	-0.889125	-0.381669
C40	C	1.451149	-0.806232	-0.438845
C41	C	1.518293	-0.778871	-0.506083
C42	C	1.652599	-0.778749	-0.640572
C43	C	1.652569	-0.724148	-0.640549
C44	C	1.585401	-0.696909	-0.573293
C45	C	1.518263	-0.724271	-0.506060
C46	C	1.383969	-0.778991	-0.371592
C47	C	1.383939	-0.724383	-0.371583
C48	C	1.451083	-0.697022	-0.438821
C49	C	1.451066	-0.642431	-0.438781
N50	N	1.518198	-0.615067	-0.506021
C51	C	1.585366	-0.642306	-0.573277
C52	C	1.451263	-0.975506	-0.438899
C53	C	1.451303	-1.030109	-0.438908
C54	C	1.585610	-1.029984	-0.573409
C55	C	1.585574	-0.975380	-0.573394
C56	C	1.518395	-0.948142	-0.506139
C57	C	1.585299	-0.527641	-0.573223
C58	C	1.585266	-0.473036	-0.573191
C59	C	1.450956	-0.473165	-0.438694
C60	C	1.450992	-0.527766	-0.438722
C61	C	1.518167	-0.555002	-0.505995
O62	O	1.393994	-0.614201	-0.381589
O63	O	1.642446	-0.614010	-0.630468
C64	C	1.792247	-0.251851	-0.506031
C65	C	1.909024	-0.251855	-0.506037
C66	C	1.518285	-0.251786	-0.780051
C67	C	1.518316	-0.251763	-0.896828
C68	C	1.518392	-0.115467	-0.506123
C69	C	1.518467	-0.057353	-0.506168
C70	C	1.384032	-0.184879	-0.896892
C71	C	1.316909	-0.151426	-0.951785
C72	C	1.316941	-0.151407	-1.061507
C73	C	1.384100	-0.184846	-1.116338
C74	C	1.451223	-0.218298	-1.061445
C75	C	1.451186	-0.218312	-0.951721
C76	C	1.585499	-0.285184	-1.061381
C77	C	1.585475	-0.285201	-0.951659
C78	C	1.652659	-0.318622	-1.116213
C79	C	1.719788	-0.352073	-1.061320
C80	C	1.719755	-0.352090	-0.951591
C81	C	1.652598	-0.318653	-0.896767
C82	C	1.518203	-0.251856	-0.233050
C83	C	1.518377	-0.251732	-0.116274
H84	H	0.919008	-0.379231	-0.249228
H85	H	1.384008	-0.184887	-0.807551
H86	H	1.262227	-0.124203	-0.907129
H87	H	1.118076	-0.379218	-0.249202
H88	H	1.217706	-0.318615	-0.371356
H89	H	1.639947	-0.450760	-0.627944
Cl90	Cl	1.804200	-0.394108	-1.130255
Cl91	Cl	1.652688	-0.318604	-1.254149
H92	H	0.819786	-0.185066	-0.640698
Cl93	Cl	0.895135	-0.109685	-0.792660
Cl94	Cl	1.142803	-0.109666	-0.792643
Cl95	Cl	1.652554	-0.318670	-0.758830
H96	H	1.707295	-0.800921	-0.695346
Cl97	Cl	1.366904	-1.064499	-0.354362
Cl98	Cl	1.299480	-0.690145	-0.287028
H99	H	1.639992	-0.549810	-0.628011
H100	H	0.819578	-0.318651	-0.371388
H101	H	1.707241	-0.701874	-0.695302
H102	H	1.640248	-0.953106	-0.628145
Cl103	Cl	1.670048	-1.064238	-0.657962
Cl104	Cl	1.366808	-0.941270	-0.354334
Cl105	Cl	1.232562	-0.109350	-1.130518
H106	H	1.329293	-0.801259	-0.316839
Cl107	Cl	1.366595	-0.562164	-0.354180
Cl108	Cl	1.366521	-0.438912	-0.354149
H109	H	1.384110	-0.184832	-1.205679
H110	H	1.774418	-0.379329	-0.906904
H111	H	1.217914	-0.185032	-0.640664
