data_functionalizedCrystal
_audit_creation_method	'MofGen! by Chris Wilmer'
_symmetry_space_group_name_H-M	'P1'
_symmetry_Int_Tables_number	1
_symmetry_cell_setting	triclinic
loop_
_symmetry_equiv_pos_as_xyz
  x,y,z
_cell_length_a	15.944551
_cell_length_b	15.995350
_cell_length_c	15.072220
_cell_angle_alpha	90.008851
_cell_angle_beta	89.997918
_cell_angle_gamma	96.504443
loop_
_atom_site_label
_atom_site_type_symbol
_atom_site_fract_x
_atom_site_fract_y
_atom_site_fract_z
O1	O	0.108264	-1.111002	-0.073709
O2	O	0.121634	-0.867227	-0.073728
O3	O	-0.007326	-0.995772	-0.073710
O4	O	0.237224	-0.982458	-0.073727
O5	O	-0.007319	-0.995740	0.073855
O6	O	0.121641	-0.867196	0.073837
O7	O	0.108271	-1.110970	0.073856
Zn8	Zn	0.114957	-0.989078	0.097276
Zn9	Zn	0.114948	-0.989120	-0.097148
O10	O	0.237232	-0.982426	0.073838
C11	C	-0.038616	-0.995203	0.000073
C12	C	-0.131862	-0.993546	0.000073
C13	C	0.121085	-0.836017	0.000053
C14	C	0.119428	-0.743066	0.000046
C15	C	0.108821	-1.142181	0.000074
C16	C	0.110478	-1.235131	0.000075
C17	C	-0.346714	-0.909908	0.000054
C18	C	-0.407730	-0.948731	0.072816
C19	C	-0.302588	-0.990548	0.000066
C20	C	-0.407721	-0.948781	-0.072672
C21	C	-0.467501	-0.987647	0.000055
C22	C	-0.362376	-1.029394	0.072888
C23	C	-0.362360	-1.029433	-0.072665
C24	C	-0.423358	-1.068315	0.000114
C25	C	-0.207586	-0.992217	0.000073
C26	C	-0.562502	-0.985984	0.000055
C27	C	0.268522	-0.982995	0.000053
C28	C	0.361768	-0.984652	0.000047
N29	N	0.114963	-0.989055	0.229965
C30	C	0.113477	-0.405318	0.000065
C31	C	0.021634	-0.452747	0.000400
C32	C	0.023291	-0.549438	0.000061
C33	C	0.116429	-0.572879	0.000056
C34	C	0.161725	-0.531813	-0.084211
C35	C	0.159417	-0.435177	-0.084275
C36	C	0.161323	-0.434802	0.083534
C37	C	0.161301	-0.531747	0.084642
C38	C	0.118102	-0.667577	0.000048
C39	C	0.111806	-0.310620	0.000067
N40	N	0.114935	-0.989149	-0.229836
C41	C	0.114945	-0.989118	0.589166
C42	C	0.183717	-0.920105	0.551550
C43	C	0.183968	-0.920264	0.448724
C44	C	0.114954	-0.989086	0.410962
C45	C	0.134096	-1.076452	0.448258
C46	C	0.134585	-1.076065	0.551116
C47	C	0.026826	-0.971544	0.551271
C48	C	0.027414	-0.969539	0.448407
C49	C	0.114958	-0.989074	0.310249
C50	C	0.114943	-0.989136	0.689879
H51	H	-0.313403	-0.842972	0.000122
Br52	Br	0.292970	-0.938930	0.407685
Br53	Br	-0.039553	-0.421848	0.101125
Br54	Br	0.274509	-0.557353	0.093119
Br55	Br	-0.058475	-1.055425	0.591812
Br56	Br	0.054181	-1.164144	0.592594
Br57	Br	-0.003838	-0.867649	0.594552
Br58	Br	0.111282	-0.400554	0.189993
Br59	Br	-0.478634	-1.179974	0.000184
H60	H	0.172500	-0.854955	0.576307
H61	H	0.085338	-1.129033	0.423796
H62	H	0.198850	-1.091551	0.575095
Br63	Br	-0.441237	-0.891864	0.175337
H64	H	-0.014912	-0.433164	-0.059693
H65	H	-0.427799	-0.914676	-0.134190
H66	H	-0.012314	-0.577852	0.060467
Br67	Br	-0.328814	-1.086257	-0.175190
H68	H	-0.012561	-0.577307	-0.060445
H69	H	0.128236	-0.559048	0.146982
H70	H	0.012886	-0.905272	0.424031
H71	H	-0.026161	-1.016539	0.422706
H72	H	-0.342384	-1.063459	0.134469
H73	H	0.197628	-1.092308	0.422486
H74	H	0.126380	-0.416880	-0.147262
H75	H	0.226847	-0.402933	-0.088103
H76	H	0.230150	-0.545942	-0.087348
H77	H	0.130258	-0.560199	-0.146920
Br78	Br	0.274186	-0.381874	0.084478
Br79	Br	0.165018	-0.812009	0.406692
H80	H	0.248741	-0.931174	0.577385
