data_functionalizedCrystal
_audit_creation_method	'MofGen! by Chris Wilmer'
_symmetry_space_group_name_H-M	'P1'
_symmetry_Int_Tables_number	1
_symmetry_cell_setting	triclinic
loop_
_symmetry_equiv_pos_as_xyz
  x,y,z
_cell_length_a	10.489741
_cell_length_b	16.992695
_cell_length_c	9.565339
_cell_angle_alpha	90.001359
_cell_angle_beta	89.997686
_cell_angle_gamma	87.603698
loop_
_atom_site_label
_atom_site_type_symbol
_atom_site_fract_x
_atom_site_fract_y
_atom_site_fract_z
O1	O	1.703685	0.110681	-0.116175
O2	O	1.333393	0.121071	-0.116197
O3	O	1.517054	0.001725	-0.116175
O4	O	1.520023	0.230027	-0.116197
O5	O	1.517034	0.001736	0.116345
O6	O	1.333373	0.121082	0.116323
O7	O	1.703665	0.110692	0.116345
Zn8	Zn	1.518515	0.115889	0.153252
Zn9	Zn	1.518542	0.115874	-0.153103
O10	O	1.520003	0.230038	0.116323
C11	C	1.285783	0.120292	0.000061
C12	C	1.143949	0.117944	0.000053
C13	C	1.513225	-0.027504	0.000085
C14	C	1.501830	-0.114612	0.000084
C15	C	1.611779	-0.164232	0.000092
C16	C	1.601064	-0.246079	0.000078
C17	C	1.480399	-0.278305	0.000066
C18	C	1.370442	-0.228679	0.000054
C19	C	1.381158	-0.146833	0.000058
C20	C	1.435986	-0.522153	0.000044
C21	C	1.425278	-0.604005	0.000045
C22	C	1.655902	-0.621400	0.000066
C23	C	1.666608	-0.539552	0.000078
C24	C	1.556650	-0.489933	0.000059
N25	N	1.469444	-0.361966	0.000056
N26	N	1.567606	-0.406274	0.000058
C27	C	1.069203	0.042008	0.000073
C28	C	0.980207	0.077874	-0.114572
C29	C	0.980222	0.077902	0.114675
C30	C	1.056821	0.153841	-0.114687
C31	C	1.056845	0.153860	0.114662
C32	C	0.967882	0.189781	-0.000011
C33	C	1.751275	0.111471	0.000085
C34	C	1.893108	0.113819	0.000084
C35	C	1.523832	0.259267	0.000061
C36	C	1.535228	0.346375	0.000052
N37	N	1.518507	0.115898	0.362331
C38	C	1.433538	0.171074	0.453524
C39	C	1.550414	0.186950	0.546708
C40	C	1.401675	0.100032	0.546703
C41	C	1.635444	0.131809	0.453464
C42	C	1.486626	0.044860	0.453450
C43	C	1.603582	0.060706	0.546592
N44	N	1.518537	0.115873	0.637817
H45	H	1.710038	-0.138000	0.000110
H46	H	1.459605	-0.015185	0.412454
H47	H	1.113462	-0.020417	-0.000064
H48	H	1.090451	0.185942	-0.211720
H49	H	1.577401	0.247014	0.587671
O50	O	1.270788	0.082260	0.600957
H51	H	1.200431	0.128153	0.563668
H52	H	1.361759	0.217777	0.412661
H53	H	1.690597	-0.286477	0.000087
O54	O	1.796753	-0.504793	0.000057
H55	H	1.871411	-0.553048	0.000039
H56	H	1.745423	-0.661808	0.000079
O57	O	1.766378	0.149662	0.399449
H58	H	1.831450	0.158493	0.489072
O59	O	1.295127	-0.638768	0.000016
H60	H	1.220465	-0.590516	-0.000013
O61	O	0.935408	0.035313	-0.242946
H62	H	0.976210	-0.026017	-0.242706
H63	H	1.090676	0.185968	0.211587
H64	H	0.923894	0.252272	-0.000079
H65	H	1.272193	-0.254924	0.000036
H66	H	0.946440	0.045763	0.211599
O67	O	1.698886	-0.001112	0.600407
H68	H	1.746735	-0.031421	0.510690
O69	O	1.317387	-0.468647	0.000057
H70	H	1.260033	-0.480193	-0.094705
O71	O	1.262572	-0.093309	0.000064
H72	H	1.176864	-0.129466	0.000072
