data_functionalizedCrystal
_audit_creation_method	'MofGen! by Chris Wilmer'
_symmetry_space_group_name_H-M	'P1'
_symmetry_Int_Tables_number	1
_symmetry_cell_setting	triclinic
loop_
_symmetry_equiv_pos_as_xyz
  x,y,z
_cell_length_a	14.044220
_cell_length_b	19.188930
_cell_length_c	13.101039
_cell_angle_alpha	93.345801
_cell_angle_beta	86.340132
_cell_angle_gamma	88.166830
loop_
_atom_site_label
_atom_site_type_symbol
_atom_site_fract_x
_atom_site_fract_y
_atom_site_fract_z
O1	O	1.262233	0.164759	-0.085127
O2	O	0.986290	0.158685	-0.085152
O3	O	1.132223	0.060581	-0.085119
O4	O	1.116300	0.262863	-0.085160
O5	O	1.121753	0.067633	0.085309
O6	O	0.975820	0.165737	0.085275
O7	O	1.251762	0.171810	0.085300
Zn8	Zn	1.112128	0.169893	0.112347
Zn9	Zn	1.125924	0.160602	-0.112199
O10	O	1.105829	0.269914	0.085267
C11	C	0.945752	0.159553	0.000059
C12	C	0.840559	0.151623	0.000050
C13	C	0.647957	0.137129	0.000073
C14	C	0.590091	0.193363	0.000066
C15	C	0.482920	0.185298	0.000079
C16	C	0.755137	0.145193	0.000060
C17	C	1.126472	0.038063	0.000098
C18	C	1.124923	-0.039541	0.000106
C19	C	1.210553	-0.078939	0.000119
C20	C	1.209099	-0.151857	0.000103
C21	C	1.122010	-0.185374	0.000094
C22	C	1.036370	-0.145968	0.000075
C23	C	1.037827	-0.073051	0.000082
N24	N	1.051878	-0.295275	0.058088
N25	N	1.050500	-0.364543	0.058084
C26	C	1.117617	-0.405067	0.000073
N27	N	1.186177	-0.373707	-0.057921
N28	N	1.187558	-0.304433	-0.057913
C29	C	1.120421	-0.264440	0.000086
C30	C	1.201676	-0.523532	0.000066
C31	C	1.200219	-0.596452	0.000043
C32	C	1.027487	-0.590560	0.000026
C33	C	1.028947	-0.517642	0.000039
C34	C	1.116043	-0.484132	0.000064
C35	C	1.292301	0.170943	0.000087
C36	C	1.397494	0.178872	0.000089
C37	C	1.111580	0.292433	0.000048
C38	C	1.113129	0.370037	0.000033
N39	N	1.102720	0.176234	0.265593
N40	N	1.135340	0.154257	-0.265445
C41	C	1.089920	0.184867	0.474633
C42	C	1.148137	0.145626	0.525522
C43	C	1.141014	0.150429	0.641839
C44	C	1.097041	0.180064	0.358306
H45	H	0.617011	0.082932	0.000090
O46	O	1.295107	-0.046318	-0.000006
C47	C	1.402456	0.028903	-0.088321
C48	C	1.306663	-0.007988	-0.088290
H49	H	1.411838	0.059890	-0.159702
H50	H	1.403097	0.065882	-0.017045
H51	H	1.463386	-0.011799	-0.088267
H52	H	1.245679	0.032664	-0.088380
H53	H	1.306104	-0.044980	-0.159560
O54	O	0.951704	-0.178438	0.000204
C55	C	0.798223	-0.192102	0.088505
C56	C	0.894059	-0.155270	0.088482
H57	H	0.751598	-0.173396	0.159881
H58	H	0.760237	-0.179239	0.017224
H59	H	0.811915	-0.250985	0.088455
H60	H	0.880451	-0.096380	0.088568
H61	H	0.932014	-0.168191	0.159757
O62	O	0.626953	0.258046	0.000215
C63	C	0.632243	0.371481	0.088417
C64	C	0.590432	0.298255	0.088397
H65	H	0.602717	0.404016	0.159694
H66	H	0.713353	0.366589	0.088471
H67	H	0.611561	0.398065	0.017050
H68	H	0.611042	0.271630	0.159752
H69	H	0.509330	0.303195	0.088290
H70	H	1.034735	0.222068	0.518417
H71	H	1.203327	0.108423	0.481732
O72	O	1.292367	-0.190031	0.000164
C73	C	1.463847	-0.188187	0.000139
C74	C	1.369617	-0.144873	0.000093
H75	H	1.526330	-0.151696	0.000060
H76	H	1.463156	-0.219511	0.071478
H77	H	1.471815	-0.225432	-0.071169
H78	H	1.361589	-0.107590	0.071352
H79	H	1.370350	-0.113596	-0.071294
O80	O	0.954588	-0.034857	-0.000061
C81	C	0.812858	-0.011119	-0.088400
C82	C	0.907088	-0.054434	-0.088356
H83	H	0.774437	-0.026920	-0.159789
H84	H	0.765537	-0.021078	-0.017132
H85	H	0.828879	0.046751	-0.088339
H86	H	0.891156	-0.112317	-0.088453
H87	H	0.954381	-0.044416	-0.159617
H88	H	1.272595	-0.496247	0.000082
H89	H	1.269952	-0.628529	0.000048
H90	H	0.956578	-0.617849	0.000014
H91	H	0.959218	-0.485564	0.000034
