data_functionalizedCrystal
_audit_creation_method	'MofGen! by Chris Wilmer'
_symmetry_space_group_name_H-M	'P1'
_symmetry_Int_Tables_number	1
_symmetry_cell_setting	triclinic
loop_
_symmetry_equiv_pos_as_xyz
  x,y,z
_cell_length_a	10.654550
_cell_length_b	17.038272
_cell_length_c	9.730223
_cell_angle_alpha	89.998176
_cell_angle_beta	89.996251
_cell_angle_gamma	87.798229
loop_
_atom_site_label
_atom_site_type_symbol
_atom_site_fract_x
_atom_site_fract_y
_atom_site_fract_z
O1	O	1.678036	0.109875	-0.114405
O2	O	1.313530	0.120343	-0.114384
O3	O	1.493617	0.001281	-0.114383
O4	O	1.497950	0.228936	-0.114406
O5	O	1.493615	0.001284	0.114196
O6	O	1.313528	0.120346	0.114196
O7	O	1.678034	0.109878	0.114175
Zn8	Zn	1.495781	0.115112	0.150477
Zn9	Zn	1.495783	0.115108	-0.150686
O10	O	1.497948	0.228939	0.114174
C11	C	1.266660	0.119576	-0.000091
C12	C	1.127003	0.117276	-0.000082
C13	C	1.489675	-0.027867	-0.000093
C14	C	1.477918	-0.114726	-0.000093
C15	C	1.054026	0.187378	-0.000109
C16	C	0.922804	0.185212	-0.000132
C17	C	0.937548	0.042837	-0.000108
C18	C	1.068767	0.045004	-0.000075
C19	C	1.045513	0.269577	-0.000129
C20	C	0.914292	0.267411	-0.000152
C21	C	1.585862	-0.164237	-0.000098
C22	C	1.574808	-0.245850	-0.000111
C23	C	1.455808	-0.277949	-0.000108
C24	C	1.347856	-0.228431	-0.000107
C25	C	1.358911	-0.146821	-0.000105
C26	C	1.416750	-0.523925	-0.000125
C27	C	1.405702	-0.605542	-0.000123
C28	C	1.632656	-0.622955	-0.000129
C29	C	1.643701	-0.541342	-0.000118
C30	C	1.535749	-0.491831	-0.000124
C31	C	1.444505	-0.361370	-0.000116
C32	C	1.547052	-0.408412	-0.000126
C33	C	1.724905	0.110645	-0.000121
C34	C	1.864562	0.112944	-0.000139
C35	C	1.501889	0.258088	-0.000119
C36	C	1.513646	0.344947	-0.000128
N37	N	1.495788	0.115115	0.356014
N38	N	1.495785	0.115100	-0.356223
C39	C	1.575554	0.062412	0.427940
C40	C	1.575550	0.062402	0.571823
C41	C	1.416010	0.167805	0.571841
C42	C	1.416009	0.167810	0.427961
C43	C	1.667667	0.001561	0.427931
C44	C	1.667663	0.001551	0.571814
H45	H	0.890116	-0.016005	-0.000123
H46	H	1.351046	0.210718	0.369400
O47	O	1.772050	-0.506719	-0.000154
H48	H	1.845256	-0.554859	-0.000180
H49	H	1.077829	0.301726	0.095534
H50	H	1.765419	0.014955	0.610857
O51	O	1.219501	-0.263047	-0.000090
H52	H	1.229945	-0.328114	-0.000073
O53	O	1.620272	-0.073723	0.630906
H54	H	1.536054	-0.060250	0.695089
O55	O	1.790787	0.026796	0.368784
H56	H	1.832582	-0.021297	0.304582
O57	O	1.147477	-0.030607	-0.000029
H58	H	1.207575	-0.033018	0.093162
O59	O	1.095987	0.304246	-0.130843
H60	H	1.057453	0.365297	-0.143092
H61	H	0.870926	0.292254	0.098529
O62	O	0.862803	0.308436	-0.126866
H63	H	0.941663	0.330229	-0.188892
O64	O	1.714213	-0.129616	-0.000114
H65	H	1.787414	-0.177759	-0.000137
O66	O	1.631883	-0.078079	0.376157
H67	H	1.536698	-0.091105	0.414193
H68	H	1.308794	-0.631674	-0.000099
O69	O	1.691231	-0.299254	-0.000093
H70	H	1.775836	-0.263223	-0.000069
H71	H	1.351055	0.210708	0.630436
O72	O	1.316160	-0.395997	-0.000084
H73	H	1.305696	-0.432766	-0.093242
O74	O	1.749087	-0.676353	-0.000131
H75	H	1.721413	-0.738495	-0.000142
O76	O	1.300322	-0.470529	-0.000096
H77	H	1.215721	-0.506563	-0.000070
O78	O	1.242488	-0.093413	-0.000084
H79	H	1.157881	-0.129443	-0.000067
H80	H	1.643941	-0.382273	-0.000158
