data_functionalizedCrystal
_audit_creation_method	'MofGen! by Chris Wilmer'
_symmetry_space_group_name_H-M	'P1'
_symmetry_Int_Tables_number	1
_symmetry_cell_setting	triclinic
loop_
_symmetry_equiv_pos_as_xyz
  x,y,z
_cell_length_a	12.784890
_cell_length_b	14.519709
_cell_length_c	11.295483
_cell_angle_alpha	94.101713
_cell_angle_beta	86.328828
_cell_angle_gamma	78.393351
loop_
_atom_site_label
_atom_site_type_symbol
_atom_site_fract_x
_atom_site_fract_y
_atom_site_fract_z
O1	O	1.417473	-0.001013	-0.098988
O2	O	1.108093	0.038477	-0.098999
O3	O	1.270985	-0.116175	-0.098983
O4	O	1.254581	0.153640	-0.099005
O5	O	1.256678	-0.102611	0.099067
O6	O	1.093786	0.052042	0.099050
O7	O	1.403166	0.012552	0.099061
Cu8	Cu	1.247170	0.033535	0.117139
Cu9	Cu	1.264090	0.017494	-0.117077
O10	O	1.240274	0.167204	0.099045
C11	C	1.061345	0.047828	0.000024
C12	C	0.943366	0.055470	0.000020
C13	C	0.764572	0.151247	0.000010
C14	C	0.875424	0.144073	0.000011
C15	C	0.900451	-0.025965	0.000025
C16	C	0.789599	-0.018790	0.000024
C17	C	0.721663	0.069819	0.000019
C18	C	0.610810	0.076993	0.000027
C19	C	0.635839	-0.093044	0.000032
C20	C	0.746690	-0.100219	0.000032
C21	C	1.263067	-0.143690	0.000042
C22	C	1.260776	-0.245884	0.000043
C23	C	1.252344	-0.620094	0.000011
C24	C	1.254685	-0.515976	0.000020
C25	C	1.256559	-0.432992	0.000028
C26	C	1.258902	-0.328868	0.000035
C27	C	1.449914	0.003201	0.000035
C28	C	1.567894	-0.004442	0.000031
C29	C	1.248193	0.194719	0.000017
C30	C	1.250484	0.296913	0.000009
N31	N	1.235277	0.044817	0.281874
N32	N	1.275991	0.006204	-0.281812
C33	C	1.361602	-0.075057	0.531177
C34	C	1.352622	-0.066526	0.655839
C35	C	1.208333	0.070406	0.655865
C36	C	1.217313	0.061875	0.531202
C37	C	1.293951	-0.010858	0.468862
C38	C	1.302935	-0.019385	0.344197
C39	C	1.158642	0.117542	0.344225
C40	C	1.149662	0.126074	0.468888
H41	H	0.709257	0.223397	0.000020
O42	O	1.444256	-0.153498	0.463926
H43	H	1.489788	-0.196710	0.528202
O44	O	0.921709	0.231898	0.000020
H45	H	0.855841	0.294716	0.000029
O46	O	0.973730	-0.121530	0.000037
H47	H	1.058018	-0.112833	0.000044
O48	O	1.067018	0.204524	0.536136
H49	H	1.021484	0.247732	0.471857
O50	O	0.589567	-0.180882	0.000046
H51	H	0.545495	-0.187220	-0.080677
O52	O	0.819963	-0.195786	0.000053
H53	H	0.904254	-0.187096	0.000063
H54	H	1.365340	-0.078606	0.293441
O55	O	1.085660	0.186788	0.277018
H56	H	1.104772	0.168636	0.179858
O57	O	1.425598	-0.135758	0.723056
H58	H	1.480403	-0.187757	0.658759
O59	O	0.537531	0.172560	0.000030
H60	H	0.492248	0.174367	-0.080684
H61	H	1.145929	0.129618	0.706638
