data_functionalizedCrystal
_audit_creation_method	'MofGen! by Chris Wilmer'
_symmetry_space_group_name_H-M	'P1'
_symmetry_Int_Tables_number	1
_symmetry_cell_setting	triclinic
loop_
_symmetry_equiv_pos_as_xyz
  x,y,z
_cell_length_a	18.050590
_cell_length_b	18.050589
_cell_length_c	12.759387
_cell_angle_alpha	90.039431
_cell_angle_beta	89.996060
_cell_angle_gamma	89.985929
loop_
_atom_site_label
_atom_site_type_symbol
_atom_site_fract_x
_atom_site_fract_y
_atom_site_fract_z
Zn1	Zn	1.135344	0.295837	-0.593567
Zn2	Zn	1.135252	0.420045	-0.417861
Zn3	Zn	1.011153	0.295850	-0.417945
Zn4	Zn	1.011118	0.419966	-0.593541
O5	O	1.073217	0.357925	-0.505728
O6	O	1.239256	0.312341	-0.570236
O7	O	1.118766	0.403609	-0.270851
O8	O	1.027680	0.191924	-0.441288
O9	O	1.239189	0.403596	-0.441145
O10	O	1.118923	0.191914	-0.570317
O11	O	1.027591	0.312363	-0.270913
O12	O	0.907224	0.312287	-0.441262
O13	O	1.027621	0.403462	-0.740565
O14	O	0.907198	0.403474	-0.570271
O15	O	1.118889	0.312264	-0.740585
O16	O	1.118732	0.523959	-0.441118
O17	O	1.027532	0.523901	-0.570190
C18	C	0.880265	0.357874	-0.505774
C19	C	0.797719	0.357870	-0.505818
C20	C	0.598276	0.407600	-0.575806
C21	C	0.548880	0.339881	-0.601669
C22	C	0.646589	0.357912	-0.505767
C23	C	0.548902	0.425669	-0.479903
C24	C	0.500603	0.357958	-0.505719
C25	C	0.598280	0.290157	-0.531679
C26	C	0.598307	0.375990	-0.409869
C27	C	0.548933	0.308225	-0.435695
C28	C	0.730687	0.357886	-0.505797
C29	C	0.416507	0.357976	-0.505689
C30	C	1.073138	0.550877	-0.505665
C31	C	1.073173	0.633423	-0.505673
C32	C	1.122878	0.882253	-0.435574
C33	C	1.055122	0.832911	-0.409801
C34	C	1.073243	0.930543	-0.505723
C35	C	1.140960	0.832803	-0.531422
C36	C	1.073212	0.784558	-0.505696
C37	C	1.005453	0.882288	-0.479900
C38	C	1.091336	0.882185	-0.601566
C39	C	1.023534	0.832865	-0.575829
C40	C	1.073262	1.014641	-0.505736
C41	C	1.073186	0.700461	-0.505683
C42	C	1.266922	0.357976	-0.505684
C43	C	1.349468	0.357998	-0.505665
C44	C	1.073262	0.357853	-0.779762
C45	C	1.073281	0.357822	-0.896539
C46	C	1.073297	1.164219	-0.505789
C47	C	1.073282	1.081673	-0.505749
C48	C	1.168273	0.452785	-1.115899
C49	C	1.215729	0.500307	-1.060996
C50	C	1.215705	0.500335	-0.951274
C51	C	1.168218	0.452838	-0.896454
C52	C	1.120762	0.405316	-0.951357
C53	C	1.120793	0.405291	-1.061081
C54	C	1.025825	0.310300	-0.951442
C55	C	1.025852	0.310267	-1.061164
C56	C	0.978338	0.262803	-0.896622
C57	C	0.930884	0.215276	-0.951525
C58	C	0.930911	0.215249	-1.061253
C59	C	0.978396	0.262745	-1.116068
C60	C	1.073215	0.357943	-0.232761
C61	C	1.073339	0.357764	-0.115985
H62	H	1.164813	0.903937	-0.376218
F63	F	0.978432	0.262717	-1.232843
F64	F	1.215827	0.804390	-0.559847
F65	F	1.111388	0.910503	-0.707491
F66	F	0.880353	0.164730	-0.893176
F67	F	0.520503	0.319913	-0.707644
H68	H	1.168195	0.452871	-0.807112
H69	H	0.619944	0.449546	-0.635103
H70	H	1.254352	0.539028	-0.906572
F71	F	0.626685	0.395973	-0.303907
H72	H	0.892265	0.176552	-1.105949
F73	F	1.168313	0.452749	-1.232675
F74	F	0.520551	0.500540	-0.451334
F75	F	1.035098	0.804613	-0.303847
F76	F	0.978312	0.262835	-0.779846
F77	F	0.626509	0.215262	-0.560367
F78	F	0.520791	0.253267	-0.358249
F79	F	0.968592	0.804700	-0.653355
F80	F	0.930562	0.910576	-0.451349
H81	H	1.254390	0.538980	-1.105643
