data_functionalizedCrystal
_audit_creation_method	'MofGen! by Chris Wilmer'
_symmetry_space_group_name_H-M	'P1'
_symmetry_Int_Tables_number	1
_symmetry_cell_setting	triclinic
loop_
_symmetry_equiv_pos_as_xyz
  x,y,z
_cell_length_a	19.077115
_cell_length_b	12.759400
_cell_length_c	19.077174
_cell_angle_alpha	92.275994
_cell_angle_beta	85.484425
_cell_angle_gamma	87.711145
loop_
_atom_site_label
_atom_site_type_symbol
_atom_site_fract_x
_atom_site_fract_y
_atom_site_fract_z
Zn1	Zn	1.093765	-0.510482	-0.441854
Zn2	Zn	1.593765	-0.010482	0.058146
Zn3	Zn	1.088969	-0.678820	-0.323974
Zn4	Zn	1.588969	-0.178820	0.176026
Zn5	Zn	0.971148	-0.495796	-0.319252
Zn6	Zn	1.471148	0.004204	0.180748
Zn7	Zn	0.975863	-0.678752	-0.437093
Zn8	Zn	1.475863	-0.178752	0.062907
O9	O	1.032436	-0.590962	-0.380543
O10	O	1.532436	-0.090962	0.119457
O11	O	1.191779	-0.538988	-0.430185
O12	O	1.691779	-0.038988	0.069815
O13	O	1.069360	-0.648424	-0.224698
O14	O	1.569360	-0.148424	0.275302
O15	O	0.987447	-0.350726	-0.335532
O16	O	1.487447	0.149274	0.164468
O17	O	1.188256	-0.662665	-0.343580
O18	O	1.688256	-0.162665	0.156420
O19	O	1.077533	-0.361516	-0.425607
O20	O	1.577533	0.138484	0.074393
O21	O	0.982797	-0.513957	-0.221229
O22	O	1.482797	-0.013957	0.278771
O23	O	0.873123	-0.513890	-0.330916
O24	O	1.373123	-0.013890	0.169084
O25	O	0.995483	-0.662548	-0.536375
O26	O	1.495483	-0.162548	-0.036375
O27	O	0.876587	-0.648307	-0.417493
O28	O	1.376587	-0.148307	0.082507
O29	O	1.082105	-0.538921	-0.539872
O30	O	1.582105	-0.038921	-0.039872
O31	O	1.073932	-0.825829	-0.338963
O32	O	1.573932	-0.325829	0.161037
O33	O	0.990834	-0.825779	-0.422071
O34	O	1.490834	-0.325779	0.077929
C35	C	0.849276	-0.579498	-0.373176
C36	C	1.349276	-0.079498	0.126824
C37	C	0.770920	-0.574620	-0.370040
C38	C	1.270920	-0.074620	0.129960
C39	C	0.329662	-0.539588	-0.347561
C40	C	0.829662	-0.039588	0.152439
C41	C	0.403286	-0.544178	-0.350511
C42	C	0.903286	-0.044178	0.149489
C43	C	0.441915	-0.616562	-0.396988
C44	C	0.941915	-0.116562	0.103012
C45	C	0.406917	-0.684354	-0.440524
C46	C	0.906917	-0.184354	0.059476
C47	C	0.333294	-0.679759	-0.437578
C48	C	0.833294	-0.179759	0.062422
C49	C	0.662299	-0.637817	-0.410630
C50	C	1.162299	-0.137817	0.089370
C51	C	0.735926	-0.642409	-0.413572
C52	C	1.235926	-0.142409	0.086428
C53	C	0.732291	-0.502231	-0.323559
C54	C	1.232291	-0.002231	0.176441
C55	C	0.658667	-0.497646	-0.320613
C56	C	1.158667	0.002354	0.179387
C57	C	0.623675	-0.565434	-0.364152
C58	C	1.123675	-0.065434	0.135848
N59	N	0.517171	-0.621257	-0.400003
N60	N	1.017171	-0.121257	0.099997
N61	N	0.548421	-0.560733	-0.361140
N62	N	1.048421	-0.060733	0.138860
C63	C	1.032394	-0.863926	-0.380529
C64	C	1.532394	-0.363926	0.119471
C65	C	1.032442	-0.980707	-0.380549
C66	C	1.532442	-0.480707	0.119451
C67	C	1.079331	-1.041099	-0.427489
C68	C	1.579331	-0.541099	0.072511
C69	C	1.079371	-1.150826	-0.427510
C70	C	1.579371	-0.650826	0.072490
C71	C	0.985630	-1.139761	-0.333645
C72	C	1.485630	-0.639761	0.166355
C73	C	0.985587	-1.030035	-0.333628
C74	C	1.485587	-0.530035	0.166372
C75	C	1.107907	-1.307433	-0.511703
C76	C	1.607907	-0.807433	-0.011703
C77	C	1.154808	-1.367828	-0.558637
C78	C	1.654808	-0.867828	-0.058637
C79	C	1.224011	-1.337097	-0.572276
C80	C	1.724011	-0.837097	-0.072276
C81	C	1.246327	-1.245972	-0.538972
C82	C	1.746327	-0.745972	-0.038972
C83	C	1.199430	-1.185582	-0.492033
C84	C	1.699430	-0.685582	0.007967
C85	C	1.130218	-1.216312	-0.478407
C86	C	1.630218	-0.716312	0.021593
C87	C	0.957059	-0.873427	-0.249434
C88	C	1.457059	-0.373427	0.250566
C89	C	0.910165	-0.813035	-0.202491
C90	C	1.410165	-0.313035	0.297509
C91	C	0.840960	-0.843764	-0.188845
C92	C	1.340960	-0.343764	0.311155
C93	C	0.818646	-0.934892	-0.222136
C94	C	1.318646	-0.434892	0.277864
C95	C	0.865540	-0.995284	-0.269079
C96	C	1.365540	-0.495284	0.230921
C97	C	0.934744	-0.964548	-0.282727
C98	C	1.434744	-0.464548	0.217273
C99	C	1.216312	-0.602472	-0.387940
C100	C	1.716312	-0.102472	0.112060
C101	C	1.294669	-0.607377	-0.391092
C102	C	1.794669	-0.107377	0.108908
C103	C	1.039855	-0.602365	-0.564418
C104	C	1.539855	-0.102365	-0.064418
C105	C	1.043016	-0.607224	-0.642774
C106	C	1.543016	-0.107224	-0.142774
C107	C	1.032499	-0.316935	-0.380574
C108	C	1.532499	0.183065	0.119426
C109	C	1.032525	-0.200160	-0.380587
C110	C	1.532525	0.299840	0.119413
C111	C	0.999435	-0.539498	-0.677779
C112	C	1.499435	-0.039498	-0.177779
C113	C	1.002403	-0.544072	-0.751403
C114	C	1.502403	-0.044072	-0.251403
C115	C	1.048956	-0.616368	-0.790020
C116	C	1.548956	-0.116368	-0.290020
C117	C	1.092539	-0.684101	-0.755010
C118	C	1.592539	-0.184101	-0.255010
C119	C	1.089567	-0.679531	-0.681387
C120	C	1.589567	-0.179531	-0.181387
C121	C	1.062674	-0.637548	-1.010403
C122	C	1.562674	-0.137548	-0.510403
C123	C	1.065644	-0.642110	-1.084030
C124	C	1.565644	-0.142110	-0.584030
C125	C	0.975506	-0.502082	-1.080418
C126	C	1.475506	-0.002082	-0.580418
C127	C	0.972541	-0.497514	-1.006794
C128	C	1.472541	0.002486	-0.506794
C129	C	1.016122	-0.565251	-0.971790
C130	C	1.516122	-0.065251	-0.471790
N131	N	1.051992	-0.621043	-0.865276
N132	N	1.551992	-0.121043	-0.365276
N133	N	1.013081	-0.560580	-0.896536
N134	N	1.513081	-0.060580	-0.396536
C135	C	1.025087	-0.579531	-0.197386
C136	C	1.525087	-0.079531	0.302614
C137	C	1.022062	-0.574384	-0.119036
C138	C	1.522062	-0.074384	0.380964
H139	H	1.117482	-1.000939	-0.465696
H140	H	1.617482	-0.500939	0.034304
H141	H	1.302682	-1.220965	-0.550075
H142	H	1.802682	-0.720965	-0.050075
C143	C	1.116855	-0.721648	-1.126508
C144	C	1.616855	-0.221648	-0.626508
N145	N	1.155426	-0.781553	-1.158502
N146	N	1.655426	-0.281553	-0.658502
H147	H	0.966912	-0.488927	-0.779901
H148	H	1.466912	0.011073	-0.279901
H149	H	1.125061	-0.734674	-0.652887
H150	H	1.625061	-0.234674	-0.152887
H151	H	1.262197	-1.386279	-0.610491
H152	H	1.762197	-0.886279	-0.110491
C153	C	1.130256	-1.468059	-0.595273
C154	C	1.630256	-0.968059	-0.095273
N155	N	1.111766	-1.543554	-0.622868
N156	N	1.611766	-1.043554	-0.122868
H157	H	0.940024	-0.446936	-1.108927
H158	H	1.440024	0.053064	-0.608927
C159	C	0.934715	-0.712796	-0.165865
C160	C	1.434715	-0.212796	0.334135
N161	N	0.953207	-0.637296	-0.138279
N162	N	1.453207	-0.137296	0.361721
C163	C	1.033188	-0.839617	-0.264444
C164	C	1.533188	-0.339617	0.235556
N165	N	1.090530	-0.814151	-0.275745
N166	N	1.590530	-0.314151	0.224255
H167	H	1.098152	-0.692715	-0.981911
H168	H	1.598152	-0.192715	-0.481911
H169	H	0.802780	-0.794583	-0.150618
H170	H	1.302780	-0.294583	0.349382
H171	H	0.431775	-0.488981	-0.315060
H172	H	0.931775	0.011019	0.184940
H173	H	0.961530	-0.480621	-0.646342
H174	H	1.461530	0.019379	-0.146342
C175	C	0.770789	-0.427655	-0.275679
C176	C	1.270789	0.072345	0.224321
N177	N	0.799785	-0.371477	-0.239618
N178	N	1.299785	0.128523	0.260382
H179	H	0.934631	-0.438646	-0.975357
H180	H	1.434631	0.061354	-0.475357
C181	C	0.623816	-0.712411	-0.458507
C182	C	1.123816	-0.212411	0.041493
N183	N	0.594829	-0.768607	-0.494564
N184	N	1.094829	-0.268607	0.005436
H185	H	1.051555	-1.332456	-0.500608
H186	H	1.551555	-0.832456	-0.000608
H187	H	1.130440	-0.742971	-0.786458
H188	H	1.630440	-0.242971	-0.286458
C189	C	0.294801	-0.754335	-0.485464
C190	C	0.794801	-0.254335	0.014536
N191	N	0.265810	-0.810508	-0.521534
N192	N	0.765810	-0.310508	-0.021534
H193	H	1.217600	-1.111391	-0.464916
H194	H	1.717600	-0.611391	0.035084
H195	H	0.767376	-0.701354	-0.451423
H196	H	1.267376	-0.201354	0.048577
C197	C	0.934140	-1.194032	-0.281988
C198	C	1.434140	-0.694032	0.218012
N199	N	0.895373	-1.234908	-0.243062
N200	N	1.395373	-0.734908	0.256938
H201	H	0.847366	-1.069485	-0.296187
H202	H	1.347366	-0.569485	0.203813
H203	H	0.298216	-0.480646	-0.309713
H204	H	0.798216	0.019354	0.190287
H205	H	0.438374	-0.743287	-0.478371
H206	H	0.938374	-0.243287	0.021629
C207	C	0.616181	-0.418007	-0.269491
C208	C	1.116181	0.081993	0.230509
N209	N	0.584180	-0.358020	-0.230987
N210	N	1.084180	0.141980	0.269013
H211	H	0.762294	-0.959913	-0.211023
H212	H	1.262294	-0.459913	0.288977
