data_functionalizedCrystal
_audit_creation_method	'MofGen! by Chris Wilmer'
_symmetry_space_group_name_H-M	'P1'
_symmetry_Int_Tables_number	1
_symmetry_cell_setting	triclinic
loop_
_symmetry_equiv_pos_as_xyz
  x,y,z
_cell_length_a	19.188930
_cell_length_b	13.339070
_cell_length_c	11.804499
_cell_angle_alpha	80.554863
_cell_angle_beta	103.339260
_cell_angle_gamma	80.612963
loop_
_atom_site_label
_atom_site_type_symbol
_atom_site_fract_x
_atom_site_fract_y
_atom_site_fract_z
O1	O	0.365845	-1.358906	0.099127
O2	O	0.865845	-0.858906	0.599127
O3	O	0.319939	-1.064580	0.099113
O4	O	0.819939	-0.564580	0.599113
O5	O	0.242896	-1.220232	0.099097
O6	O	0.742896	-0.720232	0.599097
O7	O	0.442888	-1.203253	0.099143
O8	O	0.942888	-0.703253	0.599143
O9	O	0.210683	-1.183912	-0.098964
O10	O	0.710683	-0.683912	0.401036
O11	O	0.287726	-1.028260	-0.098948
O12	O	0.787726	-0.528260	0.401052
O13	O	0.333632	-1.322586	-0.098934
O14	O	0.833632	-0.822586	0.401066
Cu15	Cu	0.307737	-1.172107	-0.117025
Cu16	Cu	0.807737	-0.672107	0.382975
Cu17	Cu	0.345833	-1.215059	0.117204
Cu18	Cu	0.845833	-0.715059	0.617204
O19	O	0.410675	-1.166934	-0.098918
O20	O	0.910675	-0.666934	0.401082
C21	C	0.296078	-1.008764	0.000080
C22	C	0.796078	-0.508764	0.500080
C23	C	0.272964	-0.896564	0.000074
C24	C	0.772964	-0.396564	0.500074
C25	C	0.200670	-1.201522	0.000063
C26	C	0.700670	-0.701522	0.500063
C27	C	0.122840	-1.199868	0.000053
C28	C	0.622840	-0.699868	0.500053
N29	N	0.280944	-1.141904	-0.281770
N30	N	0.780944	-0.641904	0.218230
C31	C	0.095802	-1.291202	0.000051
C32	C	0.595802	-0.791202	0.500051
C33	C	0.022678	-1.289654	0.000070
C34	C	0.522678	-0.789654	0.500070
C35	C	-0.023410	-1.196763	0.000067
C36	C	0.476590	-0.696763	0.500067
C37	C	0.003636	-1.105419	0.000075
C38	C	0.503636	-0.605419	0.500075
C39	C	0.076762	-1.106972	0.000068
C40	C	0.576762	-0.606972	0.500068
N41	N	-0.156283	-1.113399	-0.067340
N42	N	0.343717	-0.613399	0.432660
N43	N	-0.225749	-1.111929	-0.067336
N44	N	0.274251	-0.611929	0.432664
C45	C	-0.243733	-1.192080	0.000091
C46	C	0.256267	-0.692080	0.500091
N47	N	-0.189628	-1.273767	0.067498
N48	N	0.310372	-0.773767	0.567498
N49	N	-0.120156	-1.275239	0.067489
N50	N	0.379844	-0.775239	0.567489
C51	C	-0.102703	-1.195069	0.000075
C52	C	0.397297	-0.695069	0.500075
C53	C	-0.350060	-1.281741	0.000112
C54	C	0.149940	-0.781741	0.500112
C55	C	-0.423185	-1.280191	0.000138
C56	C	0.076815	-0.780191	0.500138
C57	C	-0.442227	-1.095951	0.000131
C58	C	0.057773	-0.595951	0.500131
C59	C	-0.369101	-1.097506	0.000116
C60	C	0.130899	-0.597506	0.500116
C61	C	-0.323023	-1.190403	0.000101
C62	C	0.176977	-0.690403	0.500101
C63	C	0.452901	-1.185645	0.000118
C64	C	0.952901	-0.685645	0.500118
C65	C	0.530732	-1.187299	0.000136
C66	C	1.030732	-0.687299	0.500136
C67	C	0.357493	-1.378402	0.000101
C68	C	0.857493	-0.878402	0.500101
C69	C	0.380608	-1.490604	0.000115
C70	C	0.880608	-0.990604	0.500115
C71	C	0.452687	-0.530987	0.000134
C72	C	0.952687	-0.030987	0.500134
C73	C	0.474407	-0.636405	0.000144
C74	C	0.974407	-0.136405	0.500144
C75	C	0.424048	-0.701450	0.000126
C76	C	0.924048	-0.201450	0.500126
C77	C	0.351966	-0.661066	0.000099
C78	C	0.851966	-0.161066	0.500099
C79	C	0.330246	-0.555639	0.000098
C80	C	0.830246	-0.055639	0.500098
C81	C	0.301606	-0.726102	0.000090
C82	C	0.801606	-0.226102	0.500090
C83	C	0.229525	-0.685718	0.000064
C84	C	0.729525	-0.185718	0.500064
C85	C	0.207808	-0.580301	0.000062
C86	C	0.707808	-0.080301	0.500062
C87	C	0.258167	-0.515256	0.000080
C88	C	0.758167	-0.015256	0.500080
C89	C	0.323327	-0.831529	0.000091
C90	C	0.823327	-0.331529	0.500091
C91	C	0.200885	-0.856181	0.000056
C92	C	0.700885	-0.356181	0.500056
C93	C	0.179166	-0.750763	0.000046
C94	C	0.679166	-0.250763	0.500046
C95	C	0.436976	-1.317806	-0.655696
C96	C	0.936976	-0.817806	-0.155696
C97	C	0.457254	-1.340649	-0.531031
C98	C	0.957254	-0.840649	-0.031031
C99	C	0.413178	-1.290965	-0.468710
C100	C	0.913178	-0.790965	0.031290
C101	C	0.348821	-1.218433	-0.531065
C102	C	0.848821	-0.718433	-0.031065
C103	C	0.328544	-1.195582	-0.655742
C104	C	0.828544	-0.695582	-0.155742
C105	C	0.304746	-1.168741	-0.468756
C106	C	0.804746	-0.668741	0.031244
C107	C	0.240388	-1.096209	-0.531112
C108	C	0.740388	-0.596209	-0.031112
C109	C	0.220114	-1.073362	-0.655776
C110	C	0.720114	-0.573362	-0.155776
C111	C	0.264190	-1.123046	-0.718098
C112	C	0.764190	-0.623046	-0.218098
C113	C	0.325023	-1.191592	-0.344079
C114	C	0.825023	-0.691592	0.155921
C115	C	0.216590	-1.069368	-0.344126
C116	C	0.716590	-0.569368	0.155874
C117	C	0.196312	-1.046525	-0.468790
C118	C	0.696312	-0.546525	0.031210
N119	N	0.372623	-1.245270	0.281949
N120	N	0.872623	-0.745270	0.781949
H121	H	0.133316	-1.366846	0.000043
H122	H	0.633316	-0.866846	0.500043
O123	O	-0.339940	-0.998989	0.000104
O124	O	0.160060	-0.498989	0.500104
H125	H	-0.281347	-1.015675	0.000109
H126	H	0.218653	-0.515675	0.500109
H127	H	-0.445196	-1.354570	0.000144
H128	H	0.054804	-0.854570	0.500144
H129	H	0.509654	-1.399705	-0.480270
H130	H	1.009654	-0.899705	0.019730
H131	H	0.098774	-1.032594	0.000069
H132	H	0.598774	-0.532594	0.500069
O133	O	-0.006496	-1.388168	0.000057
O134	O	0.493504	-0.888168	0.500057
H135	H	-0.052497	-1.377043	-0.080667
H136	H	0.447503	-0.877043	0.419333
O137	O	0.401064	-0.875072	0.000097
O138	O	0.901064	-0.375072	0.500097
H139	H	0.439382	-0.863724	0.080823
H140	H	0.939382	-0.363724	0.580823
H141	H	-0.033893	-1.029787	0.000075
H142	H	0.466107	-0.529787	0.500075
H143	H	0.143911	-0.987467	-0.519578
H144	H	0.643911	-0.487467	-0.019578
H145	H	0.120477	-0.717869	0.000034
H146	H	0.620477	-0.217869	0.500034
H147	H	0.159879	-0.909142	0.000046
H148	H	0.659879	-0.409142	0.500046
O149	O	0.169040	-1.015810	-0.276904
O150	O	0.669040	-0.515810	0.223096
H151	H	0.201170	-0.971761	-0.220081
H152	H	0.701170	-0.471761	0.279919
O153	O	-0.300355	-1.381939	0.000119
O154	O	0.199645	-0.881939	0.500119
H155	H	-0.279728	-1.372260	-0.080617
H156	H	0.220272	-0.872260	0.419383
H157	H	-0.479751	-1.020319	0.000134
H158	H	0.020249	-0.520319	0.500134
H159	H	0.472858	-1.358246	-0.706449
H160	H	0.972858	-0.858246	-0.206449
H161	H	0.377424	-1.250647	-0.293321
H162	H	0.877424	-0.750647	0.206679
O163	O	0.435096	-1.315495	-0.334249
O164	O	0.935096	-0.815495	0.165751
H165	H	0.487268	-1.374245	-0.301359
H166	H	0.987268	-0.874245	0.198641
O167	O	0.242316	-1.098410	-0.852563
O168	O	0.742316	-0.598410	-0.352563
H169	H	0.239051	-1.014456	-0.885454
H170	H	0.739051	-0.514456	-0.385454
O171	O	0.447465	-0.815149	0.000117
O172	O	0.947465	-0.315149	0.500117
H173	H	0.506045	-0.832301	0.000124
H174	H	1.006045	-0.332301	0.500124
O175	O	0.552141	-0.679959	0.000146
O176	O	1.052141	-0.179959	0.500146
H177	H	0.583507	-0.617019	0.000139
H178	H	1.083507	-0.117019	0.500139
H179	H	0.149116	-0.547427	0.000054
H180	H	0.649116	-0.047427	0.500054
H181	H	0.493683	-0.478021	0.000158
H182	H	0.993683	0.021979	0.500158
O183	O	0.150685	-0.995154	-0.723011
O184	O	0.650685	-0.495154	-0.223011
H185	H	0.154048	-0.918683	-0.699092
H186	H	0.654048	-0.418683	-0.199092
O187	O	0.234736	-0.401550	0.000064
O188	O	0.734736	0.098450	0.500064
H189	H	0.281864	-0.363111	0.000079
H190	H	0.781864	0.136889	0.500079
