data_functionalizedCrystal
_audit_creation_method	'MofGen! by Chris Wilmer'
_symmetry_space_group_name_H-M	'P1'
_symmetry_Int_Tables_number	1
_symmetry_cell_setting	triclinic
loop_
_symmetry_equiv_pos_as_xyz
  x,y,z
_cell_length_a	9.065215
_cell_length_b	10.540510
_cell_length_c	8.140239
_cell_angle_alpha	89.998951
_cell_angle_beta	89.997810
_cell_angle_gamma	84.764004
loop_
_atom_site_label
_atom_site_type_symbol
_atom_site_fract_x
_atom_site_fract_y
_atom_site_fract_z
O1	O	1.959448	0.186128	-0.136584
O2	O	1.530084	0.201401	-0.136591
O3	O	1.754584	0.009092	-0.136587
O4	O	1.734947	0.378437	-0.136588
O5	O	1.754572	0.009089	0.136640
O6	O	1.530072	0.201398	0.136636
O7	O	1.959435	0.186126	0.136643
Zn8	Zn	1.744751	0.193762	0.180020
Zn9	Zn	1.744768	0.193765	-0.179968
O10	O	1.734935	0.378435	0.136639
C11	C	1.475099	0.199933	0.000022
C12	C	1.311278	0.195546	0.000019
C13	C	1.753115	-0.038218	0.000023
C14	C	1.748737	-0.179185	0.000013
C15	C	1.904696	-0.396065	0.000642
C16	C	1.909366	-0.249452	0.000017
C17	C	1.666517	-0.224245	-0.156011
C18	C	1.662985	-0.371019	-0.156133
C19	C	1.659625	-0.370843	0.154577
C20	C	1.667244	-0.224473	0.156631
C21	C	2.014421	0.187594	0.000027
C22	C	2.178241	0.191980	0.000019
C23	C	1.736404	0.425745	0.000025
C24	C	1.740782	0.566711	0.000024
N25	N	1.744751	0.193759	0.425703
N26	N	1.744780	0.193758	-0.425651
H27	H	1.973698	-0.219872	0.111859
C28	C	1.989234	-0.452418	0.151804
H29	H	1.925331	-0.499163	0.215890
H30	H	2.022474	-0.385379	0.216034
H31	H	2.072042	-0.507501	0.116745
H32	H	1.719184	-0.411026	-0.272761
H33	H	1.542843	-0.394457	-0.163204
C34	C	1.988758	-0.454509	-0.149662
H35	H	1.924394	-0.501492	-0.212793
H36	H	2.071177	-0.509676	-0.113784
H37	H	2.022540	-0.388402	-0.215160
H38	H	1.548264	-0.177292	-0.161814
C39	C	1.496706	-0.401363	0.156002
H40	H	1.478175	-0.451912	0.062923
H41	H	1.433782	-0.324239	0.152572
H42	H	1.477663	-0.446795	0.253378
C43	C	1.996796	-0.210739	-0.151320
H44	H	1.999969	-0.120900	-0.152208
H45	H	1.949541	-0.236439	-0.248382
H46	H	2.094842	-0.250984	-0.146719
C47	C	1.743535	-0.182125	-0.312870
H48	H	1.825799	-0.137112	-0.283611
H49	H	1.675457	-0.128231	-0.375843
H50	H	1.776856	-0.255012	-0.375915
C51	C	1.728201	-0.427919	0.314339
H52	H	1.806980	-0.490372	0.288272
H53	H	1.654730	-0.466303	0.375260
H54	H	1.765239	-0.362289	0.378030
H55	H	1.727070	-0.195642	0.272056
C56	C	1.508824	-0.158768	0.169375
H57	H	1.490220	-0.102614	0.078933
H58	H	1.498725	-0.111797	0.268958
H59	H	1.439783	-0.221362	0.168059
