data_functionalizedCrystal
_audit_creation_method	'MofGen! by Chris Wilmer'
_symmetry_space_group_name_H-M	'P1'
_symmetry_Int_Tables_number	1
_symmetry_cell_setting	triclinic
loop_
_symmetry_equiv_pos_as_xyz
  x,y,z
_cell_length_a	11.792254
_cell_length_b	12.503572
_cell_length_c	11.792241
_cell_angle_alpha	93.547243
_cell_angle_beta	95.803993
_cell_angle_gamma	93.542595
loop_
_atom_site_label
_atom_site_type_symbol
_atom_site_fract_x
_atom_site_fract_y
_atom_site_fract_z
O1	O	1.513405	0.089320	-0.149111
O2	O	1.183066	0.089323	-0.165128
O3	O	1.356251	0.089314	0.008050
O4	O	1.340219	0.089329	-0.322289
O5	O	1.343227	-0.089328	-0.004996
O6	O	1.170041	-0.089319	-0.178174
O7	O	1.500380	-0.089321	-0.162156
Cu8	Cu	1.334022	-0.105631	-0.171357
Cu9	Cu	1.349425	0.105633	-0.155928
O10	O	1.327195	-0.089312	-0.335335
C11	C	1.134263	0.000002	-0.170642
C12	C	1.008250	0.000003	-0.167622
C13	C	0.905914	0.000007	-0.165168
C14	C	0.777527	0.000008	-0.162099
N15	N	1.323196	-0.254223	-0.182207
C16	C	1.307272	-0.473337	-0.198178
C17	C	1.376180	-0.526668	-0.129101
C18	C	1.367319	-0.648591	-0.137988
C19	C	1.316131	-0.351404	-0.189293
C20	C	1.549183	0.000002	-0.156642
C21	C	1.675197	0.000008	-0.159662
C22	C	1.348732	-0.000007	0.043818
C23	C	1.345718	-0.000005	0.169832
N24	N	1.360259	0.254224	-0.145069
C25	C	1.334714	0.000010	-0.371103
C26	C	1.337729	0.000016	-0.497116
C27	C	1.340176	0.000013	0.400546
C28	C	1.343255	0.000003	0.272160
H29	H	1.441828	-0.480759	-0.063289
H30	H	1.241629	-0.519242	-0.263988
