data_functionalizedCrystal
_audit_creation_method	'MofGen! by Chris Wilmer'
_symmetry_space_group_name_H-M	'P1'
_symmetry_Int_Tables_number	1
_symmetry_cell_setting	triclinic
loop_
_symmetry_equiv_pos_as_xyz
  x,y,z
_cell_length_a	12.827892
_cell_length_b	21.395364
_cell_length_c	21.395355
_cell_angle_alpha	89.975273
_cell_angle_beta	89.986862
_cell_angle_gamma	90.013725
loop_
_atom_site_label
_atom_site_type_symbol
_atom_site_fract_x
_atom_site_fract_y
_atom_site_fract_z
Zn1	Zn	-0.416201	0.957926	-0.354288
Zn2	Zn	-0.590927	0.957856	-0.249520
Zn3	Zn	-0.416196	0.853141	-0.249524
Zn4	Zn	-0.590895	0.853138	-0.354260
O5	O	-0.503555	0.905515	-0.301898
O6	O	-0.439394	1.045594	-0.340400
O7	O	-0.567760	0.943938	-0.161843
O8	O	-0.269960	0.867071	-0.263435
O9	O	-0.567765	1.045543	-0.263428
O10	O	-0.269964	0.944056	-0.340404
O11	O	-0.439386	0.867004	-0.161846
O12	O	-0.439355	0.765462	-0.263408
O13	O	-0.567710	0.867066	-0.441942
O14	O	-0.567705	0.765460	-0.340357
O15	O	-0.439363	0.944053	-0.441962
O16	O	-0.737159	0.943935	-0.263401
O17	O	-0.737135	0.866999	-0.340353
C18	C	-0.503527	0.742728	-0.301880
C19	C	-0.503540	0.673086	-0.301887
C20	C	-0.775065	0.905476	-0.301887
C21	C	-0.891218	0.905517	-0.301903
C22	C	-0.570509	0.171305	-0.341927
C23	C	-0.570510	0.236741	-0.341920
C24	C	-0.503577	0.269448	-0.301918
C25	C	-0.436659	0.236714	-0.261908
C26	C	-0.436668	0.171280	-0.261911
C27	C	-0.409400	0.373122	-0.297061
C28	C	-0.409390	0.438555	-0.297062
C29	C	-0.503550	0.471269	-0.301904
C30	C	-0.597724	0.438542	-0.306758
C31	C	-0.597733	0.373108	-0.306761
C32	C	-0.503561	0.340400	-0.301910
C33	C	-0.570470	0.574947	-0.341901
C34	C	-0.570472	0.640384	-0.341890
C35	C	-0.436612	0.640356	-0.261882
C36	C	-0.436619	0.574920	-0.261889
C37	C	-0.503547	0.542220	-0.301902
C38	C	-0.942979	0.943632	-0.263867
C39	C	-1.063030	0.943675	-0.263883
C40	C	-0.230985	0.905572	-0.301923
C41	C	-0.114831	0.905596	-0.301933
C42	C	-0.503533	0.905567	-0.465321
C43	C	-0.503524	0.905589	-0.534963
C44	C	-0.503583	1.068938	-0.301917
C45	C	-0.503596	1.138580	-0.301924
C46	C	-0.436691	0.945675	-0.567687
C47	C	-0.436646	0.945674	-0.633123
C48	C	-0.503453	0.905594	-0.665831
C49	C	-0.570291	0.865501	-0.633098
C50	C	-0.570327	0.865498	-0.567664
C51	C	-0.597547	0.900633	-0.769502
C52	C	-0.597513	0.900640	-0.834935
C53	C	-0.503343	0.905598	-0.867652
C54	C	-0.409204	0.910562	-0.834928
C55	C	-0.409239	0.910560	-0.769494
C56	C	-0.503422	0.905592	-0.736783
C57	C	-0.436455	0.945685	-0.971329
C58	C	-0.436408	0.945680	-1.036766
C59	C	-0.570063	0.865510	-1.036740
C60	C	-0.570100	0.865512	-0.971305
C61	C	-0.503298	0.905603	-0.938603
C62	C	-0.503500	0.905499	-0.139110
C63	C	-0.503215	0.905599	-0.069470
H64	H	-0.625011	0.144685	-0.374506
H65	H	-0.624999	0.263391	-0.374497
O66	O	-0.364474	0.271985	-0.218756
H67	H	-0.282484	0.259434	-0.229575
H68	H	-1.070325	0.872959	-0.334497
H69	H	-0.332720	0.346491	-0.293108
O70	O	-0.307710	0.915913	-0.734200
H71	H	-0.297059	0.873944	-0.704366
O72	O	-0.642400	0.822246	-0.532371
H73	H	-0.724418	0.832964	-0.544933
H74	H	-0.935779	0.872919	-0.334481
H75	H	-0.674413	0.346464	-0.310712
O76	O	-0.364640	0.988911	-0.532415
H77	H	-0.318154	1.016783	-0.566168
O78	O	-0.699127	0.895279	-0.734221
H79	H	-0.709818	0.937244	-0.704422
H80	H	-0.674398	0.465176	-0.310705
H81	H	-0.624529	0.832873	-0.944660
O82	O	-0.364323	0.988918	-1.072067
H83	H	-0.317888	1.016797	-1.038332
H84	H	-0.332521	0.914600	-0.861565
O85	O	-0.364569	0.988916	-0.668431
H86	H	-0.318130	1.016796	-0.634699
O87	O	-0.364397	0.988915	-0.936051
H88	H	-0.317901	1.016782	-0.969803
H89	H	-0.624448	0.832870	-1.063370
O90	O	-0.642691	0.539670	-0.385031
H91	H	-0.689246	0.573422	-0.412833
H92	H	-0.898420	0.976236	-0.231293
O93	O	-1.121997	0.986903	-0.220752
H94	H	-1.101175	0.976186	-0.171551
O95	O	-0.364486	0.135976	-0.218770
H96	H	-0.317938	0.169710	-0.190953
H97	H	-0.674167	0.896602	-0.861574
O98	O	-0.364436	0.539624	-0.218745
H99	H	-0.411138	0.509799	-0.186818
O100	O	-0.642344	0.822267	-0.668372
H101	H	-0.695510	0.850297	-0.698194
O102	O	-0.642641	0.675684	-0.385042
H103	H	-0.724636	0.663108	-0.374227
O104	O	-0.364420	0.675617	-0.218728
H105	H	-0.311303	0.705445	-0.246816
O106	O	-0.307825	0.473852	-0.291816
H107	H	-0.242353	0.440113	-0.288433
