data_functionalizedCrystal
_audit_creation_method	'MofGen! by Chris Wilmer'
_symmetry_space_group_name_H-M	'P1'
_symmetry_Int_Tables_number	1
_symmetry_cell_setting	triclinic
loop_
_symmetry_equiv_pos_as_xyz
  x,y,z
_cell_length_a	16.959455
_cell_length_b	29.839131
_cell_length_c	16.959447
_cell_angle_alpha	90.040294
_cell_angle_beta	90.024021
_cell_angle_gamma	90.032247
loop_
_atom_site_label
_atom_site_type_symbol
_atom_site_fract_x
_atom_site_fract_y
_atom_site_fract_z
Zn1	Zn	1.208329	-0.178886	0.446975
Zn2	Zn	1.708329	0.321114	0.946975
Zn3	Zn	1.208208	-0.254017	0.314770
Zn4	Zn	1.708208	0.245983	0.814770
Zn5	Zn	1.076149	-0.178898	0.314798
Zn6	Zn	1.576149	0.321102	0.814798
Zn7	Zn	1.076087	-0.253986	0.446895
Zn8	Zn	1.576087	0.246014	0.946895
O9	O	1.142193	-0.216447	0.380859
O10	O	1.642193	0.283553	0.880859
O11	O	1.318924	-0.188860	0.429459
O12	O	1.818924	0.311140	0.929459
O13	O	1.190666	-0.244071	0.204163
O14	O	1.690666	0.255929	0.704163
O15	O	1.093759	-0.116030	0.332377
O16	O	1.593759	0.383970	0.832377
O17	O	1.318835	-0.244059	0.332329
O18	O	1.818835	0.255941	0.832329
O19	O	1.190872	-0.116020	0.429486
O20	O	1.690872	0.383980	0.929486
O21	O	1.093642	-0.188882	0.204183
O22	O	1.593642	0.311118	0.704183
O23	O	0.965530	-0.188851	0.332299
O24	O	1.465530	0.311149	0.832299
O25	O	1.093654	-0.244005	0.557516
O26	O	1.593654	0.255995	1.057516
O27	O	0.965485	-0.244017	0.429350
O28	O	1.465485	0.255983	0.929350
O29	O	1.190812	-0.188829	0.557575
O30	O	1.690812	0.311171	1.057575
O31	O	1.190606	-0.316880	0.332251
O32	O	1.690606	0.183120	0.832251
O33	O	1.093537	-0.316857	0.429323
O34	O	1.593537	0.183143	0.929323
C35	C	0.936827	-0.216432	0.380819
C36	C	1.436827	0.283568	0.880819
C37	C	0.848970	-0.216437	0.380821
C38	C	1.348970	0.283563	0.880821
C39	C	0.477438	-0.245160	0.330258
C40	C	0.977438	0.254840	0.830258
C41	C	0.477552	-0.187771	0.431557
C42	C	0.977552	0.312229	0.931557
C43	C	0.560098	-0.187763	0.431538
C44	C	1.060098	0.312237	0.931538
C45	C	0.601318	-0.216455	0.380879
C46	C	1.101318	0.283545	0.880879
C47	C	0.559992	-0.245155	0.330239
C48	C	1.059992	0.254845	0.830239
C49	C	0.601430	-0.159067	0.482182
C50	C	1.101430	0.340933	0.982182
C51	C	0.683981	-0.159059	0.482166
C52	C	1.183981	0.340941	0.982166
C53	C	0.725202	-0.187749	0.431502
C54	C	1.225202	0.312251	0.931502
C55	C	0.683871	-0.216450	0.380860
C56	C	1.183871	0.283550	0.880860
C57	C	0.725091	-0.245142	0.330200
C58	C	1.225091	0.254858	0.830200
C59	C	0.683761	-0.273840	0.279553
C60	C	1.183761	0.226160	0.779553
C61	C	0.601213	-0.273845	0.279575
C62	C	1.101213	0.226155	0.779575
C63	C	0.807751	-0.187745	0.431480
C64	C	1.307751	0.312255	0.931480
C65	C	0.807644	-0.245136	0.330181
C66	C	1.307644	0.254864	0.830181
C67	C	1.142073	-0.333169	0.380793
C68	C	1.642073	0.166831	0.880793
C69	C	1.142094	-0.383104	0.380791
C70	C	1.642094	0.116896	0.880791
C71	C	1.192749	-0.692707	0.431496
C72	C	1.692749	-0.192707	0.931496
C73	C	1.192834	-0.880381	0.431544
C74	C	1.692834	-0.380381	0.931544
O75	O	1.235785	-0.904612	0.474606
O76	O	1.735785	-0.404612	0.974606
N77	N	1.142328	-0.903889	0.380947
N78	N	1.642328	-0.403889	0.880947
C79	C	1.091792	-0.880476	0.330338
C80	C	1.591792	-0.380476	0.830338
O81	O	1.048829	-0.904778	0.287310
O82	O	1.548829	-0.404778	0.787310
C83	C	1.091703	-0.692804	0.330296
C84	C	1.591703	-0.192804	0.830296
C85	C	1.142219	-0.669298	0.380890
C86	C	1.642219	-0.169298	0.880890
C87	C	1.243260	-0.669202	0.482087
C88	C	1.743260	-0.169202	0.982087
C89	C	1.243241	-0.622286	0.482072
C90	C	1.743241	-0.122286	0.982072
C91	C	1.192711	-0.598877	0.431465
C92	C	1.692711	-0.098877	0.931465
C93	C	1.142200	-0.622383	0.380875
C94	C	1.642200	-0.122383	0.880875
C95	C	1.041164	-0.669392	0.279692
C96	C	1.541164	-0.169392	0.779692
C97	C	1.041145	-0.622471	0.279687
C98	C	1.541145	-0.122471	0.779687
C99	C	1.091661	-0.598965	0.330281
C100	C	1.591661	-0.098965	0.830281
C101	C	1.091651	-0.552058	0.330253
C102	C	1.591651	-0.052058	0.830253
N103	N	1.142158	-0.528549	0.380850
N104	N	1.642158	-0.028549	0.880850
C105	C	1.192688	-0.551959	0.431456
C106	C	1.692688	-0.051959	0.931456
C107	C	1.091844	-0.979007	0.330363
C108	C	1.591844	-0.479007	0.830363
C109	C	1.091867	-1.025924	0.330373
C110	C	1.591867	-0.525924	0.830373
C111	C	1.192908	-1.025826	0.431580
C112	C	1.692908	-0.525826	0.931580
C113	C	1.192888	-0.978907	0.431565
C114	C	1.692888	-0.478907	0.931565
C115	C	1.142350	-0.955498	0.380960
C116	C	1.642350	-0.455498	0.880960
C117	C	1.192645	-0.453433	0.431419
C118	C	1.692645	0.046567	0.931419
C119	C	1.192623	-0.406513	0.431397
C120	C	1.692623	0.093487	0.931397
C121	C	1.091579	-0.406616	0.330194
C122	C	1.591579	0.093384	0.830194
C123	C	1.091603	-0.453532	0.330213
C124	C	1.591603	0.046468	0.830213
C125	C	1.142138	-0.476939	0.380832
C126	C	1.642138	0.023061	0.880832
O127	O	1.048717	-0.527798	0.287219
O128	O	1.548717	-0.027798	0.787219
O129	O	1.235632	-0.527649	0.474491
O130	O	1.735632	-0.027649	0.974491
C131	C	1.192767	-0.739623	0.431512
C132	C	1.692767	-0.239623	0.931512
C133	C	1.142256	-0.763129	0.380921
C134	C	1.642256	-0.263129	0.880921
C135	C	1.091727	-0.739719	0.330314
C136	C	1.591727	-0.239719	0.830314
C137	C	1.142280	-0.810047	0.380930
C138	C	1.642280	-0.310047	0.880930
C139	C	1.192810	-0.833456	0.431537
C140	C	1.692810	-0.333456	0.931537
C141	C	1.243316	-0.809948	0.482133
C142	C	1.743316	-0.309948	0.982133
C143	C	1.243297	-0.763032	0.482118
C144	C	1.743297	-0.263032	0.982118
C145	C	1.041220	-0.763228	0.279718
C146	C	1.541220	-0.263228	0.779718
C147	C	1.041243	-0.810143	0.279737
C148	C	1.541243	-0.310143	0.779737
C149	C	1.091773	-0.833553	0.330343
C150	C	1.591773	-0.333553	0.830343
C151	C	1.348362	-0.216462	0.380900
C152	C	1.848362	0.283538	0.880900
C153	C	1.436218	-0.216468	0.380917
C154	C	1.936218	0.283532	0.880917
C155	C	1.142239	-0.216412	0.587028
C156	C	1.642239	0.283588	1.087028
C157	C	1.142259	-0.216397	0.674884
C158	C	1.642259	0.283603	1.174884
C159	C	1.142336	-0.099268	0.380943
C160	C	1.642336	0.400732	0.880943
C161	C	1.142397	-0.049334	0.380979
C162	C	1.642397	0.450666	0.880979
C163	C	1.142193	-0.216449	0.175493
C164	C	1.642193	0.283551	0.675493
C165	C	1.142327	-0.216337	0.087637
C166	C	1.642327	0.283663	0.587637
C167	C	1.192785	-0.245125	0.716149
C168	C	1.692785	0.254875	1.216149
C169	C	1.091747	-0.187659	0.716173
C170	C	1.591747	0.312341	1.216173
C171	C	1.091760	-0.187646	0.798719
C172	C	1.591760	0.312354	1.298719
C173	C	1.142286	-0.216373	0.839984
C174	C	1.642286	0.283627	1.339984
C175	C	1.192798	-0.245113	0.798703
C176	C	1.692798	0.254887	1.298703
C177	C	1.041244	-0.158909	0.840006
C178	C	1.541244	0.341091	1.340006
C179	C	1.041255	-0.158895	0.922557
C180	C	1.541255	0.341105	1.422557
C181	C	1.091785	-0.187620	0.963824
C182	C	1.591785	0.312380	1.463824
C183	C	1.142300	-0.216362	0.922537
C184	C	1.642300	0.283638	1.422537
C185	C	1.192825	-0.245089	0.963802
C186	C	1.692825	0.254911	1.463802
C187	C	1.243344	-0.273828	0.922518
C188	C	1.743344	0.226172	1.422518
C189	C	1.243328	-0.273839	0.839969
C190	C	1.743328	0.226161	1.339969
C191	C	1.091801	-0.187610	1.046372
C192	C	1.591801	0.312390	1.546372
C193	C	1.192839	-0.245077	1.046356
C194	C	1.692839	0.254923	1.546356
H195	H	0.717333	-0.297204	0.238311
H196	H	1.217333	0.202796	0.738311
N197	N	0.849734	-0.274444	0.278421
N198	N	1.349734	0.225556	0.778421
N199	N	0.812822	-0.300061	0.233206
N200	N	1.312822	0.199939	0.733206
H201	H	0.842547	-0.320760	0.196648
H202	H	1.342547	0.179240	0.696648
N203	N	0.435227	-0.274468	0.278515
N204	N	0.935227	0.225532	0.778515
N205	N	0.389149	-0.258626	0.228207
N206	N	0.889149	0.241374	0.728207
H207	H	0.359337	-0.279324	0.191661
H208	H	0.859337	0.220676	0.691661
N209	N	0.558984	-0.303155	0.227850
N210	N	1.058984	0.196845	0.727850
N211	N	0.485280	-0.303156	0.227879
N212	N	0.985280	0.196844	0.727879
H213	H	0.455452	-0.323856	0.191350
H214	H	0.955452	0.176144	0.691350
H215	H	0.567863	-0.135711	0.523431
H216	H	1.067863	0.364289	1.023431
N217	N	1.294941	-0.303173	0.964685
N218	N	1.794941	0.196827	1.464685
N219	N	1.294934	-0.303159	1.038389
N220	N	1.794934	0.196841	1.538389
H221	H	1.331372	-0.323883	1.068173
H222	H	1.831372	0.176117	1.568173
H223	H	1.233986	-0.268469	1.079948
H224	H	1.733986	0.231531	1.579948
H225	H	1.284457	-0.297237	0.806348
H226	H	1.784457	0.202763	1.306348
N227	N	1.040131	-0.158313	0.674042
N228	N	1.540131	0.341687	1.174042
N229	N	0.967193	-0.161283	0.683245
N230	N	1.467193	0.338717	1.183245
H231	H	0.930738	-0.140554	0.653490
H232	H	1.430738	0.359446	1.153490
N233	N	1.244386	-0.274474	0.673972
N234	N	1.744386	0.225526	1.173972
N235	N	1.244375	-0.274480	0.600268
N236	N	1.744375	0.225520	1.100268
H237	H	1.280819	-0.295209	0.570478
H238	H	1.780819	0.204791	1.070478
H239	H	0.841397	-0.164380	0.472718
H240	H	1.341397	0.335620	0.972718
H241	H	1.000029	-0.688522	0.238492
H242	H	1.500029	-0.188522	0.738492
H243	H	1.000103	-0.135524	0.806402
H244	H	1.500103	0.364476	1.306402
H245	H	1.000119	-0.135494	0.956164
H246	H	1.500119	0.364506	1.456164
H247	H	1.050688	-0.959950	0.289153
H248	H	1.550688	-0.459950	0.789153
N249	N	1.040193	-0.158258	1.088531
N250	N	1.540193	0.341742	1.588531
N251	N	0.995079	-0.132614	1.051678
N252	N	1.495079	0.367386	1.551678
H253	H	0.958628	-0.111883	1.081451
H254	H	1.458628	0.388117	1.581451
N255	N	1.244243	-0.382508	0.483070
N256	N	1.744243	0.117492	0.983070
N257	N	1.317183	-0.387726	0.477893
N258	N	1.817183	0.112274	0.977893
H259	H	1.353642	-0.370775	0.514385
H260	H	1.853642	0.129225	1.014385
N261	N	0.435438	-0.158471	0.483303
N262	N	0.935438	0.341529	0.983303
N263	N	0.361734	-0.158483	0.483317
N264	N	0.861734	0.341517	0.983317
H265	H	0.331987	-0.137789	0.519864
H266	H	0.831987	0.362211	1.019864
N267	N	1.294896	-0.693108	0.533770
N268	N	1.794896	-0.193108	1.033770
N269	N	1.345302	-0.719271	0.506013
N270	N	1.845302	-0.219271	1.006013
H271	H	1.381779	-0.736153	0.542512
H272	H	1.881779	-0.236153	1.042512
N273	N	1.039997	-0.477538	0.278529
N274	N	1.539997	0.022462	0.778529
N275	N	0.989608	-0.503722	0.306285
N276	N	1.489608	-0.003722	0.806285
H277	H	0.953155	-0.520671	0.269784
H278	H	1.453155	-0.020671	0.769784
H279	H	0.717624	-0.135691	0.523405
H280	H	1.217624	0.364309	1.023405
H281	H	1.233790	-0.472486	0.472643
H282	H	1.733790	0.027514	0.972643
H283	H	1.284372	-0.603150	0.523272
H284	H	1.784372	-0.103150	1.023272
N285	N	1.244495	-0.954905	0.483249
N286	N	1.744495	-0.454905	0.983249
N287	N	1.289609	-0.975818	0.528423
N288	N	1.789609	-0.475818	1.028423
H289	H	1.326059	-0.958869	0.564928
H290	H	1.826059	-0.458869	1.064928
N291	N	1.244534	-1.049742	0.483265
N292	N	1.744534	-0.549742	0.983265
N293	N	1.294932	-1.075912	0.455512
N294	N	1.794932	-0.575912	0.955512
H295	H	1.331389	-1.092804	0.492015
H296	H	1.831389	-0.592804	0.992015
N297	N	1.040286	-1.049933	0.278673
N298	N	1.540286	-0.549933	0.778673
N299	N	1.045573	-1.044722	0.205742
N300	N	1.545573	-0.544722	0.705742
H301	H	1.009141	-1.061677	0.169228
H302	H	1.509141	-0.561677	0.669228
N303	N	0.989509	-0.598560	0.228003
N304	N	1.489509	-0.098560	0.728003
N305	N	0.916573	-0.603833	0.233182
N306	N	1.416573	-0.103833	0.733182
H307	H	0.880105	-0.586946	0.196680
H308	H	1.380105	-0.086946	0.696680
N309	N	1.039980	-0.382692	0.278499
N310	N	1.539980	0.117308	0.778499
N311	N	1.039978	-0.340802	0.278498
N312	N	1.539978	0.159198	0.778498
H313	H	1.003535	-0.323903	0.241990
H314	H	1.503535	0.176097	0.741990
H315	H	1.284432	-0.743897	0.523317
H316	H	1.784432	-0.243897	1.023317
N317	N	1.294933	-0.833872	0.533816
N318	N	1.794933	-0.333872	1.033816
N319	N	1.294937	-0.875763	0.533813
N320	N	1.794937	-0.375763	1.033813
H321	H	1.331387	-0.892662	0.570313
H322	H	1.831387	-0.392662	1.070313
H323	H	1.000109	-0.829278	0.238529
H324	H	1.500109	-0.329278	0.738529
H325	H	1.000071	-0.744171	0.238509
H326	H	1.500071	-0.244171	0.738509
