data_functionalizedCrystal
_audit_creation_method	'MofGen! by Chris Wilmer'
_symmetry_space_group_name_H-M	'P1'
_symmetry_Int_Tables_number	1
_symmetry_cell_setting	triclinic
loop_
_symmetry_equiv_pos_as_xyz
  x,y,z
_cell_length_a	27.440280
_cell_length_b	15.698487
_cell_length_c	15.698487
_cell_angle_alpha	90.002309
_cell_angle_beta	60.006220
_cell_angle_gamma	59.999769
loop_
_atom_site_label
_atom_site_type_symbol
_atom_site_fract_x
_atom_site_fract_y
_atom_site_fract_z
Zr1	Zr	0.533377	-0.111745	0.820750
O2	O	0.635039	-0.247763	0.684754
O3	O	0.431715	-0.070050	0.862424
O4	O	0.533374	-0.247759	0.862446
O5	O	0.533381	0.070127	0.684733
O6	O	0.533373	-0.247753	1.002631
O7	O	0.533379	-0.070055	0.684732
O8	O	0.351523	0.070134	1.002591
O9	O	0.715231	-0.247761	0.684772
O10	O	0.473529	-0.052262	0.984835
O11	O	0.473532	0.052350	0.880217
O12	O	0.593222	-0.156879	0.880243
O13	O	0.593225	-0.052267	0.775625
Zr14	Zr	0.533377	0.111835	1.044329
Zr15	Zr	0.533374	-0.111737	1.044328
Zr16	Zr	0.533380	0.111827	0.820751
Zr17	Zr	0.661275	-0.111743	0.820779
Zr18	Zr	0.405479	0.111833	1.044300
O19	O	0.635039	0.070140	1.002655
O20	O	0.635034	-0.247751	1.002654
O21	O	0.635043	0.070129	0.684756
O22	O	0.431715	0.247853	1.180324
O23	O	0.431711	-0.070039	1.180323
O24	O	0.431720	0.247841	0.862425
O25	O	0.533373	-0.070036	1.180346
O26	O	0.533379	0.247849	1.002633
O27	O	0.533381	0.247844	0.862448
O28	O	0.533374	0.070145	1.180347
O29	O	0.715228	-0.247755	0.862487
O30	O	0.351525	0.247845	1.002592
O31	O	0.351523	0.247851	1.180306
O32	O	0.351520	0.070141	1.180306
O33	O	0.715233	-0.070051	0.684773
O34	O	0.715231	-0.070044	0.862488
O35	O	0.473532	0.156969	0.984835
O36	O	0.473529	0.052357	1.089453
O37	O	0.593222	-0.052260	0.984862
O38	O	0.593225	0.052352	0.880244
C39	C	0.373396	0.000042	0.932503
C40	C	0.319100	0.000041	0.932491
C41	C	0.533381	0.000035	0.652877
C42	C	0.533382	0.000031	0.557963
C43	C	0.533381	0.279700	0.932540
C44	C	0.533382	0.374613	0.932541
C45	C	-0.017643	-0.054552	0.987178
C46	C	-0.068667	-0.054549	0.987187
O47	O	-0.095074	-0.100958	1.033662
N48	N	-0.094182	0.000055	0.932577
C49	C	-0.068675	0.054668	0.877962
O50	O	-0.095062	0.101115	0.831514
C51	C	-0.017655	0.054671	0.877959
C52	C	0.007862	0.000055	0.932565
C53	C	0.007873	-0.109163	1.041779
C54	C	0.058895	-0.109167	1.041768
C55	C	0.084400	-0.054560	0.987155
C56	C	0.058883	0.000050	0.932553
C57	C	0.007847	0.109290	0.823352
C58	C	0.058870	0.109289	0.823354
C59	C	0.084387	0.054672	0.877959
C60	C	0.135409	0.054653	0.877929
N61	N	0.160924	0.000049	0.932539
C62	C	0.135419	-0.054558	0.987152
C63	C	-0.175820	0.054660	0.877974
C64	C	-0.226835	0.054652	0.877970
C65	C	-0.226824	-0.054564	0.987197
C66	C	-0.175805	-0.054562	0.987194
C67	C	-0.150305	0.000056	0.932584
C68	C	0.242568	-0.054563	0.987124
C69	C	0.293596	-0.054566	0.987104
C70	C	0.293578	0.054654	0.877882
C71	C	0.242558	0.054653	0.877897
C72	C	0.217052	0.000042	0.932526
O73	O	0.161847	0.101041	0.831481
O74	O	0.161807	-0.100985	1.033604
C75	C	0.693357	0.000048	0.932575
C76	C	0.747653	0.000049	0.932588
C77	C	0.533373	-0.279610	0.932538
C78	C	0.533372	-0.374523	0.932538
C79	C	0.533370	0.548398	0.932541
C80	C	0.533374	0.451694	0.932543
C81	C	0.533384	0.000033	0.480880
C82	C	0.533380	0.000045	0.384183
C83	C	0.533373	0.000055	1.212201
C84	C	0.533372	0.000059	1.307116
C85	C	0.373393	0.000052	1.212165
C86	C	0.319095	0.000054	1.307068
C87	C	0.373400	0.279697	0.932504
C88	C	0.319106	0.374608	0.932492
C89	C	0.373396	0.279707	1.212166
C90	C	0.319100	0.374622	1.307069
C91	C	0.693357	-0.279617	0.652912
C92	C	0.747653	-0.374532	0.558009
C93	C	0.693361	0.000038	0.652913
C94	C	0.747658	0.000036	0.558011
C95	C	0.693354	-0.279607	0.932574
C96	C	0.747648	-0.374518	0.932586
C97	C	0.293597	-0.054564	1.297025
C98	C	0.242586	-0.054583	1.386188
C99	C	0.217071	0.000024	1.485392
C100	C	0.242574	0.054644	1.495432
C101	C	0.293588	0.054656	1.406271
C102	C	0.293608	0.473799	0.987097
C103	C	0.242600	0.562987	0.987081
C104	C	0.217086	0.552982	0.932468
C105	C	0.242589	0.453780	0.877857
C106	C	0.293600	0.364595	0.877866
C107	C	0.293601	0.364589	1.406255
C108	C	0.242591	0.453763	1.495435
C109	C	0.217079	0.552969	1.485427
C110	C	0.242583	0.563000	1.386230
C111	C	0.293595	0.473827	1.297053
C112	C	0.773159	-0.364499	0.458823
C113	C	0.824184	-0.453673	0.369643
C114	C	0.849700	-0.552879	0.379652
C115	C	0.824192	-0.562910	0.478849
C116	C	0.773171	-0.473737	0.568026
C117	C	0.773162	0.054645	0.568053
C118	C	0.824187	0.054639	0.478891
C119	C	0.849704	0.000029	0.379687
C120	C	0.824198	-0.054587	0.369646
C121	C	0.773178	-0.054586	0.458808
C122	C	0.773146	-0.364480	0.987211
C123	C	0.824154	-0.453650	0.987242
C124	C	0.849668	-0.552859	0.932643
C125	C	0.824166	-0.562896	0.878016
C126	C	0.773154	-0.473726	0.877992
H127	H	0.314371	-0.099045	1.031569
O128	O	0.217749	-0.107499	1.376365
C129	C	0.188255	-0.067344	1.321326
H130	H	0.172936	0.015900	1.328789
H131	H	0.140619	-0.067493	1.355176
H132	H	0.227360	-0.117966	1.235511
H133	H	0.844913	-0.445458	1.031724
H134	H	0.844974	-0.643695	0.486985
H135	H	0.221842	0.643753	1.031556
H136	H	0.314366	0.283818	1.414424
H137	H	0.891248	0.000037	0.307094
O138	O	-0.251620	-0.107529	1.040410
C139	C	-0.281139	-0.067350	1.147004
H140	H	-0.258084	-0.027368	1.155932
H141	H	-0.269958	-0.133806	1.180469
H142	H	-0.339244	-0.008390	1.190806
H143	H	0.844944	-0.445485	0.288882
H144	H	0.314376	0.481966	1.031570
H145	H	0.175550	0.625611	0.932468
O146	O	0.217693	0.444256	0.824919
C147	C	0.167208	0.544251	0.836620
H148	H	0.144923	0.603352	0.910360
H149	H	0.124271	0.543293	0.842906
H150	H	0.191607	0.566966	0.766059
H151	H	0.314353	0.283832	0.833405
O152	O	0.217872	0.443819	1.591708
C153	C	0.251338	0.337133	1.581407
H154	H	0.272355	0.289593	1.501824
H155	H	0.213069	0.324697	1.645351
H156	H	0.295651	0.310841	1.588718
O157	O	0.748280	-0.107472	0.449175
C158	C	0.676801	-0.037353	0.497437
H159	H	0.655160	0.034517	0.558225
H160	H	0.650361	-0.076967	0.537007
H161	H	0.667082	-0.012910	0.436109
H162	H	0.221803	0.643786	1.378096
H163	H	0.175541	0.625571	1.558049
H164	H	-0.247599	0.099113	0.833491
O165	O	0.167491	-0.000057	1.571891
C166	C	0.150473	-0.059997	1.541741
H167	H	0.164538	-0.064096	1.459423
H168	H	0.092812	-0.022192	1.598058
H169	H	0.180304	-0.142171	1.543363
O170	O	0.318455	0.107565	1.415977
C171	C	0.389944	0.037492	1.367658
H172	H	0.403927	-0.044794	1.363530
H173	H	0.404597	0.061184	1.414965
H174	H	0.419114	0.039424	1.285411
O175	O	0.899158	-0.639398	0.932857
C176	C	0.874213	-0.639233	1.036187
H177	H	0.830813	-0.555951	1.092521
H178	H	0.917778	-0.672026	1.046552
H179	H	0.853880	-0.689588	1.053042
O180	O	0.748492	-0.483672	0.824824
C181	C	0.781944	-0.590359	0.776663
H182	H	0.833646	-0.637901	0.765887
H183	H	0.790753	-0.602812	0.697325
H184	H	0.748485	-0.616635	0.827829
O185	O	0.748484	-0.268170	1.040181
C186	C	0.802922	-0.256728	1.000035
H187	H	0.853957	-0.337006	0.960054
H188	H	0.795222	-0.209822	1.066503
H189	H	0.803606	-0.214105	0.941085
H190	H	0.314350	0.482011	1.216294
H191	H	0.221806	-0.099031	1.031609
H192	H	0.752387	-0.283728	0.450654
H193	H	0.891244	-0.625481	0.307029
H194	H	0.752405	-0.481919	0.648786
O195	O	0.748478	0.107715	0.664335
C196	C	0.781926	0.155926	0.654058
H197	H	0.833638	0.113085	0.574488
H198	H	0.790715	0.152991	0.718023
H199	H	0.748475	0.240687	0.661352
O200	O	0.848937	0.107785	0.488529
C201	C	0.836460	0.184442	0.440229
H202	H	0.830130	0.161471	0.379430
H203	H	0.881767	0.191072	0.400668
H204	H	0.787395	0.262767	0.501532
O205	O	0.318433	-0.107527	1.200587
C206	C	0.368942	-0.095839	1.124029
H207	H	0.360561	-0.022076	1.158775
H208	H	0.364803	-0.089598	1.055255
H209	H	0.422302	-0.166391	1.096149
O210	O	-0.017032	0.162421	0.770441
C211	C	-0.088512	0.239109	0.840515
H212	H	-0.110175	0.216172	0.912388
H213	H	-0.114935	0.245741	0.800868
H214	H	-0.098228	0.317425	0.864952
H215	H	0.844982	-0.099048	0.288863
H216	H	0.844947	-0.643683	0.833563
H217	H	-0.012890	-0.153629	1.086257
H218	H	-0.155032	-0.099034	1.031659
O219	O	0.083562	-0.162077	1.094990
C220	C	0.029113	-0.121925	1.201574
H221	H	-0.014243	-0.038685	1.220888
H222	H	0.048571	-0.122067	1.250983
H223	H	0.008982	-0.172555	1.219036
O224	O	-0.150979	0.107571	0.824741
C225	C	-0.121496	0.067422	0.718159
H226	H	-0.106182	-0.015819	0.698843
H227	H	-0.073857	0.067564	0.668748
H228	H	-0.160606	0.118053	0.700700
O229	O	0.217686	0.107675	1.591880
C230	C	0.167203	0.095926	1.668411
H231	H	0.144908	0.075800	1.633626
H232	H	0.124271	0.171933	1.737176
H233	H	0.191606	0.030549	1.696315
H234	H	0.221789	0.099112	0.833419
O235	O	0.083588	0.162358	0.770208
C236	C	0.050109	0.210579	0.722041
H237	H	0.029081	0.167747	0.711242
H238	H	0.088372	0.207639	0.642713
H239	H	0.005804	0.295340	0.773215
H240	H	0.314356	0.099110	0.833414
