data_functionalizedCrystal
_audit_creation_method	'MofGen! by Chris Wilmer'
_symmetry_space_group_name_H-M	'P1'
_symmetry_Int_Tables_number	1
_symmetry_cell_setting	triclinic
loop_
_symmetry_equiv_pos_as_xyz
  x,y,z
_cell_length_a	10.685904
_cell_length_b	10.685194
_cell_length_c	18.215399
_cell_angle_alpha	94.396576
_cell_angle_beta	94.394219
_cell_angle_gamma	98.381010
loop_
_atom_site_label
_atom_site_type_symbol
_atom_site_fract_x
_atom_site_fract_y
_atom_site_fract_z
Zn1	Zn	1.901942	-0.356671	0.485318
Zn2	Zn	1.885575	-0.568968	0.352029
Zn3	Zn	1.689672	-0.372978	0.352034
Zn4	Zn	1.673412	-0.585155	0.464833
O5	O	1.787650	-0.470943	0.413553
O6	O	2.077398	-0.371234	0.476208
O7	O	1.859543	-0.543019	0.249041
O8	O	1.731485	-0.193171	0.378289
O9	O	2.065373	-0.527208	0.378282
O10	O	1.887439	-0.181191	0.476212
O11	O	1.715614	-0.399026	0.249044
O12	O	1.509888	-0.414722	0.358425
O13	O	1.703772	-0.554796	0.570539
O14	O	1.497942	-0.570607	0.441298
O15	O	1.871672	-0.386930	0.585589
O16	O	1.843776	-0.748759	0.358418
O17	O	1.687901	-0.760651	0.441294
C18	C	1.457858	-0.496191	0.397640
C19	C	1.316769	-0.507024	0.390848
C20	C	1.762333	-0.800763	0.397650
C21	C	1.751618	-0.941853	0.390877
C22	C	2.118730	-0.445597	0.429530
C23	C	2.259817	-0.434795	0.436338
C24	C	1.787734	-0.470849	0.605514
C25	C	1.787770	-0.470810	0.687317
C26	C	1.813101	-0.139832	0.429536
C27	C	1.823947	0.001268	0.436347
C28	C	1.787647	-0.470939	0.222347
C29	C	1.787884	-0.470602	0.140574
C30	C	1.875231	-0.383324	0.883354
C31	C	1.875249	-0.383286	0.960215
C32	C	1.700414	-0.558092	0.944531
C33	C	1.700391	-0.558123	0.867672
C34	C	1.787807	-0.470741	0.837085
C35	C	1.787848	-0.470671	0.990806
C36	C	1.787866	-0.470630	1.074142
C37	C	1.787787	-0.470779	0.753743
H38	H	1.257593	-0.577142	0.346706
C39	C	1.917264	-0.919602	0.495208
C40	C	1.851062	-0.848987	0.542473
C41	C	1.936985	-0.776056	0.596699
H42	H	1.961244	-0.974053	0.522905
H43	H	1.976468	-0.863558	0.472230
H44	H	1.791880	-0.905024	0.565450
H45	H	1.807086	-0.794512	0.514798
H46	H	1.996190	-0.720012	0.573721
H47	H	1.980960	-0.830516	0.624390
H48	H	1.892081	-0.728126	0.628771
C49	C	1.338937	-0.341409	0.495177
C50	C	1.467840	-0.348900	0.490460
C51	C	1.540761	-0.262907	0.544656
H52	H	1.323961	-0.257673	0.487628
H53	H	1.315951	-0.361748	0.542695
H54	H	1.490817	-0.328553	0.442953
H55	H	1.482855	-0.432616	0.498017
H56	H	1.517775	-0.283245	0.592174
H57	H	1.525775	-0.179177	0.537102
H58	H	1.628228	-0.267986	0.541467
H59	H	1.681480	-1.001102	0.346766
C60	C	1.605577	-0.653170	0.977643
C61	C	1.623542	-0.776660	0.954199
C62	C	1.536192	-0.864282	0.984677
H63	H	1.618020	-0.640813	1.030043
H64	H	1.521686	-0.641208	0.961805
H65	H	1.707412	-0.788618	0.970041
H66	H	1.611088	-0.789057	0.901803
H67	H	1.452301	-0.852320	0.968840
H68	H	1.548641	-0.851914	1.037076
H69	H	1.548361	-0.948080	0.968770
C70	C	1.970185	-0.288302	0.850286
C71	C	2.046727	-0.211716	0.907261
C72	C	2.134201	-0.124152	0.876830
H73	H	2.021879	-0.332484	0.820639
H74	H	1.925900	-0.236653	0.820649
H75	H	2.091009	-0.263358	0.936885
H76	H	1.995069	-0.167505	0.936913
H77	H	2.089916	-0.072503	0.847194
H78	H	2.185886	-0.168345	0.847184
H79	H	2.186138	-0.072170	0.915483
H80	H	1.946436	-0.312100	0.997884
C81	C	1.605669	-0.653098	0.817342
C82	C	1.671279	-0.728950	0.772745
C83	C	1.584066	-0.816435	0.726366
H84	H	1.553578	-0.705266	0.846473
H85	H	1.554105	-0.608815	0.786991
H86	H	1.722822	-0.773231	0.803093
H87	H	1.723365	-0.676818	0.743599
H88	H	1.532501	-0.772151	0.696014
H89	H	1.531979	-0.868593	0.755503
H90	H	1.628569	-0.867903	0.696097
