data_functionalizedCrystal
_audit_creation_method	'MofGen! by Chris Wilmer'
_symmetry_space_group_name_H-M	'P1'
_symmetry_Int_Tables_number	1
_symmetry_cell_setting	triclinic
loop_
_symmetry_equiv_pos_as_xyz
  x,y,z
_cell_length_a	18.215407
_cell_length_b	25.639240
_cell_length_c	18.215399
_cell_angle_alpha	90.037217
_cell_angle_beta	90.019833
_cell_angle_gamma	90.033205
loop_
_atom_site_label
_atom_site_type_symbol
_atom_site_fract_x
_atom_site_fract_y
_atom_site_fract_z
Zn1	Zn	1.125032	-0.208150	0.416068
Zn2	Zn	1.458365	0.125183	0.749402
Zn3	Zn	1.791698	0.458517	1.082735
Zn4	Zn	1.124923	-0.295586	0.292982
Zn5	Zn	1.458257	0.037747	0.626316
Zn6	Zn	1.791590	0.371081	0.959649
Zn7	Zn	1.001964	-0.208167	0.293016
Zn8	Zn	1.335298	0.125166	0.626349
Zn9	Zn	1.668631	0.458500	0.959682
Zn10	Zn	1.001913	-0.295557	0.416007
Zn11	Zn	1.335247	0.037777	0.749341
Zn12	Zn	1.668580	0.371110	1.082674
O13	O	1.063458	-0.251865	0.354518
O14	O	1.396791	0.081468	0.687852
O15	O	1.730125	0.414802	1.021185
O16	O	1.228002	-0.219754	0.399752
O17	O	1.561335	0.113580	0.733086
O18	O	1.894668	0.446913	1.066419
O19	O	1.108588	-0.284009	0.190002
O20	O	1.441922	0.049324	0.523336
O21	O	1.775255	0.382658	0.856669
O22	O	1.018356	-0.135000	0.309379
O23	O	1.351690	0.198334	0.642712
O24	O	1.685023	0.531667	0.976045
O25	O	1.227922	-0.283992	0.309322
O26	O	1.561255	0.049341	0.642655
O27	O	1.894588	0.382674	0.975988
O28	O	1.108773	-0.134987	0.399785
O29	O	1.442107	0.198346	0.733118
O30	O	1.775440	0.531680	1.066452
O31	O	1.018251	-0.219783	0.190027
O32	O	1.351584	0.113551	0.523360
O33	O	1.684918	0.446884	0.856694
O34	O	0.898973	-0.219754	0.309319
O35	O	1.232307	0.113579	0.642653
O36	O	1.565640	0.446912	0.975986
O37	O	1.018269	-0.283943	0.519000
O38	O	1.351603	0.049391	0.852333
O39	O	1.684936	0.382724	1.185666
O40	O	0.898936	-0.283959	0.399681
O41	O	1.232269	0.049374	0.733014
O42	O	1.565602	0.382707	1.066347
O43	O	1.108724	-0.219725	0.519045
O44	O	1.442057	0.113608	0.852378
O45	O	1.775390	0.446941	1.185711
O46	O	1.108539	-0.368747	0.309262
O47	O	1.441872	-0.035414	0.642595
O48	O	1.775206	0.297919	0.975929
O49	O	1.018164	-0.368726	0.399648
O50	O	1.351497	-0.035393	0.732981
O51	O	1.684831	0.297941	1.066315
C52	C	0.872252	-0.251856	0.354497
C53	C	1.205585	0.081477	0.687831
C54	C	1.538918	0.414811	1.021164
C55	C	0.790453	-0.251865	0.354506
C56	C	1.123786	0.081469	0.687839
C57	C	1.457120	0.414802	1.021172
C58	C	0.602259	-0.285349	0.401498
C59	C	0.935592	0.047985	0.734831
C60	C	1.268925	0.381318	1.068164
C61	C	0.525400	-0.285350	0.401507
C62	C	0.858733	0.047983	0.734840
C63	C	1.192067	0.381316	1.068174
C64	C	0.525409	-0.218391	0.307555
C65	C	0.858743	0.114943	0.640889
C66	C	1.192076	0.448276	0.974222
C67	C	0.602267	-0.218387	0.307550
C68	C	0.935600	0.114947	0.640884
C69	C	1.268933	0.448280	0.974217
C70	C	0.640689	-0.251869	0.354520
C71	C	0.974023	0.081465	0.687854
C72	C	1.307356	0.414798	1.021187
C73	C	0.486973	-0.251874	0.354535
C74	C	0.820307	0.081459	0.687868
C75	C	1.153640	0.414792	1.021201
C76	C	0.403640	-0.251876	0.354544
C77	C	0.736973	0.081458	0.687877
C78	C	1.070306	0.414791	1.021211
C79	C	0.724028	-0.251867	0.354512
C80	C	1.057362	0.081467	0.687845
C81	C	1.390695	0.414800	1.021179
C82	C	1.063354	-0.387708	0.354461
C83	C	1.396687	-0.054374	0.687794
C84	C	1.730021	0.278959	1.021127
C85	C	1.063377	-0.445822	0.354461
C86	C	1.396710	-0.112488	0.687794
C87	C	1.730044	0.220845	1.021127
C88	C	1.110562	-0.806140	0.401678
C89	C	1.443895	-0.472806	0.735011
C90	C	1.777228	-0.139473	1.068345
C91	C	1.110583	-0.860744	0.401693
C92	C	1.443917	-0.527411	0.735026
C93	C	1.777250	-0.194077	1.068359
O94	O	1.150578	-0.888942	0.441779
O95	O	1.483911	-0.555609	0.775113
O96	O	1.817244	-0.222276	1.108446
N97	N	1.063560	-0.888104	0.354590
N98	N	1.396894	-0.554771	0.687923
N99	N	1.730227	-0.221437	1.021256
C100	C	1.016507	-0.860857	0.307474
C101	C	1.349840	-0.527524	0.640807
C102	C	1.683174	-0.194190	0.974140
O103	O	0.976512	-0.889143	0.267410
O104	O	1.309845	-0.555809	0.600744
O105	O	1.643178	-0.222476	0.934077
C106	C	1.016482	-0.806254	0.307463
C107	C	1.349815	-0.472920	0.640796
C108	C	1.683149	-0.139587	0.974129
C109	C	1.063514	-0.778896	0.354564
C110	C	1.396847	-0.445563	0.687897
C111	C	1.730180	-0.112230	1.021231
C112	C	1.157589	-0.778782	0.448776
C113	C	1.490922	-0.445449	0.782109
C114	C	1.824255	-0.112116	1.115442
C115	C	1.157568	-0.724182	0.448760
C116	C	1.490901	-0.390848	0.782093
C117	C	1.824234	-0.057515	1.115426
C118	C	1.110520	-0.696938	0.401646
C119	C	1.443853	-0.363605	0.734979
C120	C	1.777186	-0.030272	1.068312
C121	C	1.063493	-0.724296	0.354548
C122	C	1.396826	-0.390962	0.687881
C123	C	1.730159	-0.057629	1.021214
C124	C	0.969426	-0.779008	0.260351
C125	C	1.302759	-0.445674	0.593684
C126	C	1.636092	-0.112341	0.927018
C127	C	0.969405	-0.724401	0.260345
C128	C	1.302738	-0.391067	0.593678
C129	C	1.636071	-0.057734	0.927011
C130	C	1.016436	-0.697043	0.307446
C131	C	1.349769	-0.363710	0.640779
C132	C	1.683103	-0.030377	0.974113
C133	C	1.016424	-0.642452	0.307418
C134	C	1.349757	-0.309119	0.640751
C135	C	1.683090	0.024215	0.974084
N136	N	1.063447	-0.615092	0.354521
N137	N	1.396780	-0.281759	0.687854
N138	N	1.730114	0.051575	1.021188
C139	C	1.110495	-0.642335	0.401635
C140	C	1.443828	-0.309002	0.734968
C141	C	1.777162	0.024332	1.068302
C142	C	1.016562	-0.975528	0.307500
C143	C	1.349895	-0.642194	0.640834
C144	C	1.683229	-0.308861	0.974167
C145	C	1.016590	-1.030130	0.307507
C146	C	1.349923	-0.696796	0.640840
C147	C	1.683257	-0.363463	0.974174
C148	C	1.110666	-1.030013	0.401727
C149	C	1.443999	-0.696680	0.735061
C150	C	1.777332	-0.363346	1.068394
C151	C	1.110641	-0.975410	0.401717
C152	C	1.443974	-0.642076	0.735050
C153	C	1.777307	-0.308743	1.068383
C154	C	1.063585	-0.948167	0.354604
C155	C	1.396918	-0.614834	0.687937
C156	C	1.730252	-0.281501	1.021270
C157	C	1.110448	-0.527670	0.401597
C158	C	1.443781	-0.194337	0.734930
C159	C	1.777115	0.138997	1.068264
C160	C	1.110425	-0.473065	0.401575
C161	C	1.443758	-0.139731	0.734908
C162	C	1.777092	0.193602	1.068241
C163	C	1.016347	-0.473186	0.307357
C164	C	1.349680	-0.139853	0.640691
C165	C	1.683014	0.193480	0.974024
C166	C	1.016372	-0.527787	0.307377
C167	C	1.349706	-0.194454	0.640710
C168	C	1.683039	0.138880	0.974043
C169	C	1.063425	-0.555027	0.354503
C170	C	1.396759	-0.221694	0.687836
C171	C	1.730092	0.111639	1.021169
O172	O	0.976448	-0.614219	0.267354
O173	O	1.309781	-0.280886	0.600687
O174	O	1.643114	0.052448	0.934021
O175	O	1.150477	-0.614043	0.441698
O176	O	1.483810	-0.280709	0.775032
O177	O	1.817143	0.052624	1.108365
C178	C	1.255411	-0.251874	0.354540
C179	C	1.588744	0.081459	0.687873
C180	C	1.922078	0.414792	1.021207
C181	C	1.337210	-0.251878	0.354549
C182	C	1.670543	0.081455	0.687883
C183	C	2.003877	0.414788	1.021216
C184	C	1.063503	-0.251829	0.546471
C185	C	1.396836	0.081504	0.879805
C186	C	1.730170	0.414838	1.213138
C187	C	1.063522	-0.251814	0.628270
C188	C	1.396855	0.081520	0.961604
C189	C	1.730189	0.414853	1.294937
C190	C	1.063583	-0.115492	0.354592
C191	C	1.396916	0.217841	0.687926
C192	C	1.730249	0.551175	1.021259
C193	C	1.063636	-0.057378	0.354624
C194	C	1.396969	0.275956	0.687957
C195	C	1.730302	0.609289	1.021291
C196	C	1.063456	-0.251863	0.163312
C197	C	1.396789	0.081470	0.496646
C198	C	1.730122	0.414804	0.829979
C199	C	1.063579	-0.251731	0.081514
C200	C	1.396913	0.081602	0.414847
C201	C	1.730246	0.414935	0.748180
C202	C	1.110639	-0.218344	0.816489
C203	C	1.443972	0.114989	1.149822
C204	C	1.777305	0.448322	1.483156
C205	C	1.110647	-0.218329	0.893348
C206	C	1.443981	0.115004	1.226681
C207	C	1.777314	0.448338	1.560015
C208	C	1.016457	-0.285202	0.893290
C209	C	1.349791	0.048131	1.226623
C210	C	1.683124	0.381465	1.559956
C211	C	1.016446	-0.285214	0.816432
C212	C	1.349779	0.048119	1.149766
C213	C	1.683112	0.381452	1.483099
C214	C	1.063540	-0.251786	0.778034
C215	C	1.396874	0.081547	1.111367
C216	C	1.730207	0.414881	1.444701
C217	C	1.063561	-0.251759	0.931750
C218	C	1.396894	0.081575	1.265083
C219	C	1.730228	0.414908	1.598417
C220	C	1.063570	-0.251742	1.015084
C221	C	1.396904	0.081591	1.348417
C222	C	1.730237	0.414924	1.681751
C223	C	1.063530	-0.251801	0.694695
C224	C	1.396864	0.081532	1.028028
C225	C	1.730197	0.414865	1.361362
H226	H	0.494116	-0.191131	0.269313
H227	H	0.827450	0.142202	0.602646
H228	H	1.160783	0.475535	0.935979
F229	F	0.966326	-0.556904	0.257238
F230	F	1.299659	-0.223570	0.590571
F231	F	1.632992	0.109763	0.923904
H232	H	0.978300	-1.052400	0.269145
H233	H	1.311633	-0.719066	0.602478
H234	H	1.644967	-0.385733	0.935811
F235	F	0.643170	-0.182748	0.257552
F236	F	0.976503	0.150585	0.590885
F237	F	1.309837	0.483919	0.924218
H238	H	1.148937	-0.953139	0.440071
H239	H	1.482271	-0.619805	0.773404
H240	H	1.815604	-0.286472	1.106737
F241	F	0.966311	-0.320807	0.775503
F242	F	1.299644	0.012526	1.108836
F243	F	1.632977	0.345860	1.442170
H244	H	0.633540	-0.312611	0.439746
H245	H	0.966874	0.020723	0.773079
H246	H	1.300207	0.354056	1.106412
F247	F	0.484503	-0.320984	0.451508
F248	F	0.817836	0.012350	0.784841
F249	F	1.151169	0.345683	1.118175
H250	H	0.978116	-0.312419	0.924563
H251	H	1.311450	0.020914	1.257896
H252	H	1.644783	0.354248	1.591230
F253	F	0.966480	-0.946539	0.257349
F254	F	1.299813	-0.613206	0.590682
F255	F	1.633146	-0.279872	0.924015
F256	F	1.160486	-0.443952	0.451707
F257	F	1.493819	-0.110619	0.785040
F258	F	1.827152	0.222715	1.118374
H259	H	0.931128	-0.801273	0.221996
H260	H	1.264461	-0.467939	0.555329
H261	H	1.597794	-0.134606	0.888663
H262	H	1.148758	-0.549843	0.439977
H263	H	1.482091	-0.216510	0.773310
H264	H	1.815424	0.116824	1.106643
F265	F	1.160781	-0.182739	0.934271
F266	F	1.494114	0.150594	1.267605
F267	F	1.827448	0.483928	1.600938
F268	F	1.207665	-0.807768	0.498928
F269	F	1.540999	-0.474435	0.832262
F270	F	1.874332	-0.141102	1.165595
F271	F	1.207621	-0.695073	0.498896
F272	F	1.540955	-0.361739	0.832229
F273	F	1.874288	-0.028406	1.165563
H274	H	1.148973	-1.052204	0.440092
H275	H	1.482307	-0.718871	0.773425
H276	H	1.815640	-0.385538	1.106758
H277	H	0.931084	-0.702223	0.221981
H278	H	1.264417	-0.368889	0.555314
H279	H	1.597750	-0.035556	0.888647
H280	H	0.978043	-0.450996	0.268995
H281	H	1.311376	-0.117663	0.602329
H282	H	1.644710	0.215670	0.935662
F283	F	1.160759	-0.182766	0.775625
F284	F	1.494092	0.150568	1.108959
F285	F	1.827426	0.483901	1.442292
