data_functionalizedCrystal
_audit_creation_method	'MofGen! by Chris Wilmer'
_symmetry_space_group_name_H-M	'P1'
_symmetry_Int_Tables_number	1
_symmetry_cell_setting	triclinic
loop_
_symmetry_equiv_pos_as_xyz
  x,y,z
_cell_length_a	14.971475
_cell_length_b	13.448316
_cell_length_c	14.971506
_cell_angle_alpha	89.998220
_cell_angle_beta	96.383967
_cell_angle_gamma	90.004731
loop_
_atom_site_label
_atom_site_type_symbol
_atom_site_fract_x
_atom_site_fract_y
_atom_site_fract_z
O1	O	-1.186961	-0.082668	0.116513
O2	O	-0.686961	0.417332	0.616513
O3	O	-0.926560	-0.082674	0.130482
O4	O	-0.426560	0.417326	0.630482
O5	O	-1.063731	-0.082668	-0.006701
O6	O	-0.563731	0.417332	0.493299
O7	O	-1.049791	-0.082674	0.253697
O8	O	-0.549791	0.417326	0.753697
O9	O	-1.063715	0.082716	-0.006702
O10	O	-0.563715	0.582716	0.493298
O11	O	-0.926545	0.082710	0.130482
O12	O	-0.426545	0.582710	0.630482
O13	O	-1.186946	0.082716	0.116513
O14	O	-0.686946	0.582716	0.616513
Cu15	Cu	-1.056744	0.097814	0.123497
Cu16	Cu	-0.556744	0.597814	0.623497
Cu17	Cu	-1.056762	-0.097772	0.123498
Cu18	Cu	-0.556762	0.402228	0.623498
O19	O	-1.049775	0.082710	0.253696
O20	O	-0.549775	0.582710	0.753696
C21	C	-0.893228	0.000017	0.129859
C22	C	-0.393228	0.500017	0.629859
C23	C	-0.793930	0.000015	0.127992
C24	C	-0.293930	0.500015	0.627992
C25	C	-0.747277	0.090166	0.127113
C26	C	-0.247277	0.590166	0.627113
C27	C	-0.653978	0.090167	0.125344
C28	C	-0.153978	0.590167	0.625344
C29	C	-0.607333	0.000015	0.124462
C30	C	-0.107333	0.500015	0.624462
C31	C	-0.653993	-0.090144	0.125339
C32	C	-0.153993	0.409856	0.625339
C33	C	-0.747291	-0.090143	0.127101
C34	C	-0.247291	0.409857	0.627101
C35	C	-0.459530	-0.090138	0.121668
C36	C	0.040470	0.409862	0.621668
C37	C	-0.366226	-0.090139	0.119908
C38	C	0.133774	0.409861	0.619908
C39	C	-0.366217	0.090171	0.119912
C40	C	0.133783	0.590171	0.619912
C41	C	-0.459515	0.090172	0.121674
C42	C	0.040485	0.590172	0.621674
C43	C	-0.506169	0.000013	0.122552
C44	C	-0.006169	0.500013	0.622552
N45	N	-1.056738	0.235378	0.123497
N46	N	-0.556738	0.735378	0.623497
C47	C	-1.063096	0.000022	-0.040026
C48	C	-0.563096	0.500022	0.459974
C49	C	-1.061218	0.000018	-0.139322
C50	C	-0.561218	0.500018	0.360678
C51	C	-0.220277	0.000021	0.117142
C52	C	0.279723	0.500021	0.617142
C53	C	-0.319573	0.000012	0.119029
C54	C	0.180427	0.500012	0.619029
C55	C	-1.111044	0.287414	0.177835
C56	C	-0.611044	0.787414	0.677835
C57	C	-1.111054	0.391517	0.177832
C58	C	-0.611054	0.891517	0.677832
C59	C	-1.056753	0.443583	0.123494
C60	C	-0.556753	0.943583	0.623494
C61	C	-1.002445	0.391539	0.069149
C62	C	-0.502445	0.891539	0.569149
C63	C	-1.002440	0.287438	0.069148
C64	C	-0.502440	0.787438	0.569148
C65	C	-1.002457	0.608519	0.069156
C66	C	-0.502457	1.108519	0.569156
C67	C	-1.002460	0.712628	0.069158
C68	C	-0.502460	1.212628	0.569158
C69	C	-1.111071	0.712599	0.177840
C70	C	-0.611071	1.212599	0.677840
C71	C	-1.111066	0.608497	0.177839
C72	C	-0.611066	1.108497	0.677839
C73	C	-1.056757	0.556461	0.123495
C74	C	-0.556757	1.056461	0.623495
N75	N	-1.056766	0.764664	0.123497
N76	N	-0.556766	1.264664	0.623497
C77	C	-1.134637	0.000020	-0.577607
C78	C	-0.634637	0.500020	-0.077607
C79	C	-1.136394	0.000026	-0.484307
C80	C	-0.636394	0.500026	0.015693
C81	C	-1.055802	0.000021	-0.427084
C82	C	-0.555802	0.500021	0.072916
C83	C	-0.973446	0.000019	-0.463166
C84	C	-0.473446	0.500019	0.036834
C85	C	-0.971689	0.000020	-0.556464
C86	C	-0.471689	0.500020	-0.056464
C87	C	-0.977113	0.000016	-0.268703
C88	C	-0.477113	0.500016	0.231297
C89	C	-0.978869	0.000013	-0.175398
C90	C	-0.478869	0.500013	0.324602
C91	C	-1.141818	0.000022	-0.196546
C92	C	-0.641818	0.500022	0.303454
C93	C	-1.140061	0.000023	-0.289844
C94	C	-0.640061	0.500023	0.210156
C95	C	-1.057705	0.000019	-0.325919
C96	C	-0.557705	0.500019	0.174081
C97	C	-1.050410	0.000017	0.287021
C98	C	-0.550410	0.500017	0.787021
C99	C	-1.052288	0.000015	0.386317
C100	C	-0.552288	0.500015	0.886317
H101	H	-0.328228	0.163582	0.119197
H102	H	0.171772	0.663582	0.619197
Cl103	Cl	-0.307588	-0.203475	0.118796
Cl104	Cl	0.192412	0.296525	0.618796
Cl105	Cl	-0.934181	0.456993	0.000837
Cl106	Cl	-0.434181	0.956993	0.500837
Cl107	Cl	-0.518179	-0.203483	0.122771
Cl108	Cl	-0.018179	0.296517	0.622771
H109	H	-1.155257	0.245030	0.222089
H110	H	-0.655257	0.745030	0.722089
Cl111	Cl	-1.241379	0.000023	-0.361781
Cl112	Cl	-0.741379	0.500023	0.138219
H113	H	-0.616008	-0.163547	0.124614
H114	H	-0.116008	0.336453	0.624614
H115	H	-0.904632	0.000024	-0.585834
H116	H	-0.404632	0.500024	-0.085834
Cl117	Cl	-0.805942	-0.203481	0.128202
Cl118	Cl	-0.305942	0.296519	0.628202
Cl119	Cl	-0.934195	0.543104	0.000823
Cl120	Cl	-0.434195	1.043104	0.500823
Cl121	Cl	-1.179326	0.456930	0.246149
Cl122	Cl	-0.679326	0.956930	0.746149
H123	H	-0.910050	0.000026	-0.298071
H124	H	-0.410050	0.500026	0.201929
H125	H	-1.155279	0.566109	0.222090
H126	H	-0.655279	1.066109	0.722090
H127	H	-0.958242	0.755016	0.024913
H128	H	-0.458242	1.255016	0.524913
Cl129	Cl	-1.235960	0.000019	-0.649537
Cl130	Cl	-0.735960	0.500019	-0.149537
H131	H	-0.907826	0.000021	-0.416567
H132	H	-0.407826	0.500021	0.083433
H133	H	-0.785248	0.163579	0.127839
H134	H	-0.285248	0.663579	0.627839
H135	H	-1.155288	0.754972	0.222093
H136	H	-0.655288	1.254972	0.722093
Cl137	Cl	-1.239924	0.000007	-0.438960
Cl138	Cl	-0.739924	0.500007	0.061040
Cl139	Cl	-0.877551	0.000018	-0.103461
Cl140	Cl	-0.377551	0.500018	0.396539
H141	H	-0.615999	0.163577	0.124613
H142	H	-0.115999	0.663577	0.624613
Cl143	Cl	-0.934176	0.222021	0.000824
Cl144	Cl	-0.434176	0.722021	0.500824
H145	H	-0.497490	0.163582	0.122398
H146	H	0.002510	0.663582	0.622398
Cl147	Cl	-1.245351	0.000026	-0.151195
Cl148	Cl	-0.745351	0.500026	0.348805
