data_functionalizedCrystal
_audit_creation_method	'MofGen! by Chris Wilmer'
_symmetry_space_group_name_H-M	'P1'
_symmetry_Int_Tables_number	1
_symmetry_cell_setting	triclinic
loop_
_symmetry_equiv_pos_as_xyz
  x,y,z
_cell_length_a	14.519709
_cell_length_b	9.198806
_cell_length_c	10.723024
_cell_angle_alpha	89.997988
_cell_angle_beta	84.074007
_cell_angle_gamma	90.001670
loop_
_atom_site_label
_atom_site_type_symbol
_atom_site_fract_x
_atom_site_fract_y
_atom_site_fract_z
O1	O	1.224702	-0.120699	0.163572
O2	O	1.558036	0.212634	0.496905
O3	O	1.891369	0.545967	0.830238
O4	O	0.956324	-0.120743	0.182835
O5	O	1.289657	0.212590	0.516168
O6	O	1.622991	0.545923	0.849501
O7	O	1.096704	-0.120715	-0.008431
O8	O	1.430037	0.212619	0.324902
O9	O	1.763370	0.545952	0.658236
O10	O	1.084323	-0.120728	0.354837
O11	O	1.417656	0.212606	0.688170
O12	O	1.750989	0.545939	1.021504
O13	O	1.096693	0.121070	-0.008431
O14	O	1.430026	0.454404	0.324902
O15	O	1.763359	0.787737	0.658235
O16	O	0.956313	0.121042	0.182834
O17	O	1.289646	0.454375	0.516168
O18	O	1.622979	0.787709	0.849501
O19	O	1.224691	0.121086	0.163571
O20	O	1.558025	0.454419	0.496904
O21	O	1.891358	0.787753	0.830238
Cu22	Cu	1.090501	0.143141	0.173203
Cu23	Cu	1.423834	0.476474	0.506536
Cu24	Cu	1.757168	0.809807	0.839869
Cu25	Cu	1.090514	-0.142798	0.173203
Cu26	Cu	1.423848	0.190535	0.506536
Cu27	Cu	1.757181	0.523869	0.839870
O28	O	1.084311	0.121057	0.354837
O29	O	1.417645	0.454391	0.688170
O30	O	1.750978	0.787724	1.021503
C31	C	0.921954	0.000144	0.181937
C32	C	1.255287	0.333477	0.515270
C33	C	1.588621	0.666810	0.848603
C34	C	0.819559	0.000127	0.179246
C35	C	1.152892	0.333460	0.512580
C36	C	1.486226	0.666794	0.845913
N37	N	1.090498	0.344255	0.173201
N38	N	1.423832	0.677588	0.506535
N39	N	1.757165	1.010921	0.839868
N40	N	1.090524	-0.343912	0.173194
N41	N	1.423857	-0.010579	0.506528
N42	N	1.757191	0.322755	0.839861
C43	C	0.444613	0.000193	0.169343
C44	C	0.777946	0.333527	0.502676
C45	C	1.111279	0.666860	0.836009
C46	C	0.548935	0.000174	0.172093
C47	C	0.882268	0.333508	0.505426
C48	C	1.215601	0.666841	0.838760
C49	C	0.632082	0.000159	0.174294
C50	C	0.965416	0.333492	0.507628
C51	C	1.298749	0.666825	0.840961
C52	C	0.736411	0.000143	0.177045
C53	C	1.069744	0.333476	0.510378
C54	C	1.403078	0.666809	0.843712
C55	C	1.259061	0.000196	0.164469
C56	C	1.592395	0.333529	0.497802
C57	C	1.925728	0.666862	0.831136
C58	C	1.361456	0.000203	0.167159
C59	C	1.694790	0.333536	0.500493
C60	C	2.028123	0.666870	0.833826
C61	C	1.095797	0.000176	-0.054922
C62	C	1.429130	0.333509	0.278411
C63	C	1.762464	0.666843	0.611744
C64	C	1.093101	0.000170	-0.193451
C65	C	1.426435	0.333504	0.139882
C66	C	1.759768	0.666837	0.473215
C67	C	1.149440	0.416464	0.092543
C68	C	1.482773	0.749797	0.425876
C69	C	1.816106	1.083130	0.759210
C70	C	1.149454	0.583876	0.092538
C71	C	1.482787	0.917209	0.425872
C72	C	1.816121	1.250543	0.759205
C73	C	1.171651	0.000181	-0.269169
C74	C	1.504984	0.333514	0.064165
C75	C	1.838317	0.666848	0.397498
C76	C	1.168866	0.000175	-0.412346
C77	C	1.502200	0.333509	-0.079013
C78	C	1.835533	0.666842	0.254321
C79	C	1.085218	0.000164	0.401328
C80	C	1.418551	0.333497	0.734661
C81	C	1.751885	0.666830	1.067995
C82	C	1.087914	0.000160	0.539857
C83	C	1.421247	0.333493	0.873190
C84	C	1.754580	0.666826	1.206524
H85	H	1.199889	0.354348	0.023486
H86	H	1.533222	0.687681	0.356819
H87	H	1.866555	1.021014	0.690152
H88	H	1.040043	0.406373	0.242249
H89	H	1.373377	0.739706	0.575582
H90	H	1.706710	1.073039	0.908915
H91	H	1.199920	0.645972	0.023488
H92	H	1.533253	0.979306	0.356821
H93	H	1.866586	1.312639	0.690154
H94	H	1.240961	0.000201	-0.227995
H95	H	1.574294	0.333535	0.105339
H96	H	1.907627	0.666868	0.438672
H97	H	1.040063	0.594001	0.242258
H98	H	1.373396	0.927334	0.575591
H99	H	1.706729	1.260667	0.908924
H100	H	1.236110	0.000191	-0.477407
H101	H	1.569444	0.333524	-0.144074
H102	H	1.902777	0.666858	0.189259
H103	H	1.020666	0.000160	-0.395089
H104	H	1.353999	0.333494	-0.061755
H105	H	1.687333	0.666827	0.271578
H106	H	1.023791	0.000149	-0.234625
H107	H	1.357125	0.333483	0.098708
H108	H	1.690458	0.666816	0.432041
