data_functionalizedCrystal
_audit_creation_method	'MofGen! by Chris Wilmer'
_symmetry_space_group_name_H-M	'P1'
_symmetry_Int_Tables_number	1
_symmetry_cell_setting	triclinic
loop_
_symmetry_equiv_pos_as_xyz
  x,y,z
_cell_length_a	19.288864
_cell_length_b	10.268362
_cell_length_c	19.288857
_cell_angle_alpha	90.007434
_cell_angle_beta	83.134677
_cell_angle_gamma	90.018431
loop_
_atom_site_label
_atom_site_type_symbol
_atom_site_fract_x
_atom_site_fract_y
_atom_site_fract_z
O1	O	0.921346	0.108724	0.086649
O2	O	0.719085	0.108636	0.098337
O3	O	0.826063	0.108667	-0.008638
O4	O	0.814368	0.108693	0.193624
O5	O	0.826053	-0.107934	-0.008642
O6	O	0.719076	-0.107965	0.098333
O7	O	0.921337	-0.107877	0.086644
Cu8	Cu	0.820205	-0.127698	0.092488
Cu9	Cu	0.820216	0.128457	0.092493
O10	O	0.814359	-0.107908	0.193619
C11	C	0.693204	0.000324	0.097959
C12	C	0.616100	0.000290	0.096830
N13	N	0.820203	-0.307864	0.092484
C14	C	0.571402	0.000318	0.159598
C15	C	0.498955	0.000333	0.158537
C16	C	0.471209	0.000344	0.094705
C17	C	0.515917	0.000308	0.031929
C18	C	0.588363	0.000281	0.032991
C19	C	0.362952	0.076266	0.044527
C20	C	0.290508	0.076302	0.043467
C21	C	0.247764	0.000423	0.091425
C22	C	0.277472	-0.075475	0.140455
C23	C	0.349918	-0.075502	0.141518
C24	C	0.392656	0.000373	0.093546
C25	C	0.124510	0.000465	0.153048
C26	C	0.052062	0.000471	0.151984
C27	C	0.069026	0.000460	0.025374
C28	C	0.141472	0.000441	0.026439
C29	C	0.169210	0.000449	0.090278
C30	C	0.820213	-0.573535	0.092492
C31	C	0.820205	-0.425697	0.092490
C32	C	0.947218	0.000438	0.087022
C33	C	1.024321	0.000481	0.088151
C34	C	0.825683	0.000365	-0.034516
C35	C	0.824556	0.000361	-0.111620
N36	N	0.820224	0.308623	0.092492
C37	C	0.824035	0.118430	-0.147829
C38	C	0.822966	0.118439	-0.220275
C39	C	0.822432	0.000373	-0.256511
C40	C	0.822949	-0.117712	-0.220294
C41	C	0.824011	-0.117718	-0.147848
C42	C	0.861430	-0.090056	-0.376745
C43	C	0.860373	-0.090046	-0.449190
C44	C	0.819155	0.000386	-0.479957
C45	C	0.779003	0.090828	-0.438273
C46	C	0.780065	0.090822	-0.365827
C47	C	0.821281	0.000366	-0.335066
C48	C	0.817474	0.118473	-0.594720
C49	C	0.816401	0.118477	-0.667166
C50	C	0.816391	-0.117677	-0.667185
C51	C	0.817457	-0.117678	-0.594739
C52	C	0.818002	0.000401	-0.558511
C53	C	0.814739	0.000397	0.219498
C54	C	0.815866	0.000410	0.296602
H55	H	0.593981	0.000328	0.211581
C56	C	0.735893	0.190297	-0.319976
N57	N	0.702619	0.265219	-0.285440
H58	H	0.046436	0.000550	-0.026600
C59	C	0.824627	0.248320	-0.107981
N60	N	0.825072	0.346155	-0.077967
C61	C	0.449778	0.000379	0.227590
N62	N	0.412740	0.000421	0.279601
C63	C	0.822361	-0.247586	-0.260156
N64	N	0.821914	-0.345410	-0.290179
C65	C	0.257836	0.159781	-0.010470
N66	N	0.233230	0.222655	-0.051099
H67	H	0.397749	0.138064	0.005473
H68	H	0.374103	-0.137305	0.181437
H69	H	0.824432	-0.213867	-0.118368
C70	C	0.818038	-0.247565	-0.554909
N71	N	0.818473	-0.345402	-0.524910
C72	C	0.230459	-0.158954	0.193211
N73	N	0.195046	-0.221827	0.232946
H74	H	0.745439	0.164466	-0.463322
C75	C	0.637533	0.000258	-0.036062
N76	N	0.674569	0.000245	-0.088074
H77	H	0.893069	-0.163685	-0.483124
C78	C	0.485396	0.000323	-0.038287
N79	N	0.462407	0.000330	-0.091176
C80	C	0.818063	0.248360	-0.554865
N81	N	0.818504	0.346193	-0.524848
C82	C	0.155024	0.000458	0.223271
N83	N	0.178005	0.000450	0.276164
C84	C	0.002893	0.000484	0.221038
N85	N	-0.034142	0.000489	0.273051
H86	H	0.815973	0.214627	-0.696646
C87	C	0.822389	0.248329	-0.260111
N88	N	0.821953	0.346163	-0.290114
C89	C	0.815804	-0.247552	-0.707042
N90	N	0.815360	-0.345378	-0.737065
C91	C	0.906779	-0.189540	-0.342909
N92	N	0.940936	-0.264467	-0.317424
H93	H	0.177867	0.000425	-0.024674
