data_functionalizedCrystal
_audit_creation_method	'MofGen! by Chris Wilmer'
_symmetry_space_group_name_H-M	'P1'
_symmetry_Int_Tables_number	1
_symmetry_cell_setting	triclinic
loop_
_symmetry_equiv_pos_as_xyz
  x,y,z
_cell_length_a	15.711784
_cell_length_b	15.625429
_cell_length_c	7.681481
_cell_angle_alpha	66.294962
_cell_angle_beta	97.441369
_cell_angle_gamma	101.028942
loop_
_atom_site_label
_atom_site_type_symbol
_atom_site_fract_x
_atom_site_fract_y
_atom_site_fract_z
O1	O	1.121070	0.513578	-0.474389
O2	O	0.871834	0.443108	-0.429386
O3	O	1.007892	0.345952	-0.367355
O4	O	0.985012	0.610735	-0.536420
O5	O	1.024640	0.333954	-0.066837
O6	O	0.888582	0.431110	-0.128868
O7	O	1.137818	0.501580	-0.173871
Zn8	Zn	1.015859	0.464440	-0.103656
Zn9	Zn	0.993793	0.480248	-0.499601
O10	O	1.001760	0.598737	-0.235902
C11	C	0.848401	0.425598	-0.271775
C12	C	0.753624	0.391285	-0.249864
C13	C	0.633126	0.262112	-0.167384
C14	C	0.722181	0.294363	-0.187979
C15	C	0.696017	0.455996	-0.291189
C16	C	0.606957	0.423759	-0.270612
C17	C	0.575519	0.326816	-0.208707
C18	C	0.549350	0.488463	-0.311935
C19	C	0.460299	0.456227	-0.291350
C20	C	0.428854	0.359288	-0.229443
C21	C	0.486468	0.294581	-0.188122
C22	C	0.580790	0.585405	-0.373827
C23	C	0.523183	0.650108	-0.415150
C24	C	0.434129	0.617874	-0.394578
C25	C	0.402685	0.520935	-0.332670
C26	C	0.376515	0.682582	-0.435898
C27	C	0.287464	0.650346	-0.415314
C28	C	0.313634	0.488700	-0.312086
C29	C	1.016891	0.305281	-0.194961
C30	C	1.018744	0.201967	-0.129006
C31	C	0.979172	-0.105130	-0.731077
C32	C	0.980912	-0.202211	-0.669046
C33	C	0.999170	-0.215277	-0.341442
C34	C	0.997435	-0.118193	-0.403447
C35	C	0.987435	-0.063127	-0.598267
C36	C	1.005698	-0.076191	-0.270636
C37	C	1.003959	0.020883	-0.332636
C38	C	0.993957	0.075955	-0.527447
C39	C	0.985696	0.033947	-0.660267
C40	C	1.015692	-0.131260	-0.075817
C41	C	1.023955	-0.089258	0.056994
C42	C	1.022222	0.007819	-0.005006
C43	C	1.012220	0.062891	-0.199817
C44	C	1.030484	0.049827	0.127814
C45	C	1.028744	0.146901	0.065813
C46	C	1.010481	0.159965	-0.261817
C47	C	1.161251	0.519091	-0.331485
C48	C	1.256027	0.553403	-0.353409
C49	C	0.992761	0.639407	-0.408299
C50	C	0.990907	0.742721	-0.474266
N51	N	1.030925	0.453653	0.166566
N52	N	0.978734	0.491030	-0.769819
H53	H	0.288035	0.409760	-0.261696
C54	C	1.102907	0.402118	0.301064
N55	N	1.157122	0.363301	0.402371
C56	C	0.330894	0.323829	-0.206802
N57	N	0.257110	0.297121	-0.189753
C58	C	0.451881	0.187938	-0.120042
N59	N	0.425830	0.107619	-0.068764
H60	H	0.925459	0.529178	0.130628
H61	H	0.607528	0.183172	-0.116994
H62	H	0.721626	0.534927	-0.341586
C63	C	0.678750	0.620862	-0.396475
N64	N	0.752533	0.647568	-0.413538
C65	C	0.557775	0.756743	-0.483245
N66	N	0.583828	0.837063	-0.534541
C67	C	0.785547	0.223175	-0.142526
N68	N	0.833274	0.169558	-0.108292
H69	H	0.240559	0.703035	-0.448956
C70	C	0.411111	0.789216	-0.503975
N71	N	0.437168	0.869534	-0.555251
H72	H	1.007309	-0.260125	-0.182819
H73	H	1.032094	-0.134106	0.215618
H74	H	1.038617	0.004976	0.286437
C75	C	0.992045	0.182740	-0.595649
N76	N	0.990607	0.263172	-0.647019
H77	H	0.974175	-0.236406	-0.777211
H78	H	1.002346	0.204805	-0.420459
H79	H	0.977560	0.078787	-0.818909
C80	C	0.968175	-0.044550	-0.945391
N81	N	0.959890	0.001077	-1.106804
H82	H	1.017099	-0.210306	-0.025341
C83	C	1.037839	0.193107	0.211912
N84	N	1.044688	0.227910	0.321957
