data_functionalizedCrystal
_audit_creation_method	'MofGen! by Chris Wilmer'
_symmetry_space_group_name_H-M	'P1'
_symmetry_Int_Tables_number	1
_symmetry_cell_setting	triclinic
loop_
_symmetry_equiv_pos_as_xyz
  x,y,z
_cell_length_a	13.897449
_cell_length_b	18.050590
_cell_length_c	13.897441
_cell_angle_alpha	90.033006
_cell_angle_beta	90.023394
_cell_angle_gamma	90.019379
loop_
_atom_site_label
_atom_site_type_symbol
_atom_site_fract_x
_atom_site_fract_y
_atom_site_fract_z
Zn1	Zn	1.474697	-0.295619	0.545434
Zn2	Zn	1.724697	-0.045619	0.795434
Zn3	Zn	1.974697	0.204381	1.045434
Zn4	Zn	2.224697	0.454381	1.295434
Zn5	Zn	1.474588	-0.419824	0.384128
Zn6	Zn	1.724588	-0.169824	0.634128
Zn7	Zn	1.974588	0.080176	0.884128
Zn8	Zn	2.224588	0.330176	1.134128
Zn9	Zn	1.313386	-0.295654	0.384144
Zn10	Zn	1.563386	-0.045654	0.634144
Zn11	Zn	1.813386	0.204346	0.884144
Zn12	Zn	2.063386	0.454346	1.134144
Zn13	Zn	1.313365	-0.419774	0.545373
Zn14	Zn	1.563365	-0.169774	0.795373
Zn15	Zn	1.813365	0.080226	1.045373
Zn16	Zn	2.063365	0.330226	1.295373
O17	O	1.394009	-0.357718	0.464770
O18	O	1.644009	-0.107718	0.714770
O19	O	1.894009	0.142282	0.964770
O20	O	2.144009	0.392282	1.214770
O21	O	1.609664	-0.312102	0.524054
O22	O	1.859664	-0.062102	0.774054
O23	O	2.109664	0.187898	1.024054
O24	O	2.359664	0.437898	1.274054
O25	O	1.453168	-0.403387	0.249149
O26	O	1.703168	-0.153387	0.499149
O27	O	1.953168	0.096613	0.749149
O28	O	2.203168	0.346613	0.999149
O29	O	1.334838	-0.191725	0.405572
O30	O	1.584838	0.058275	0.655572
O31	O	1.834838	0.308275	0.905572
O32	O	2.084838	0.558275	1.155572
O33	O	1.609584	-0.403354	0.405544
O34	O	1.859584	-0.153354	0.655544
O35	O	2.109584	0.096646	0.905544
O36	O	2.359584	0.346646	1.155544
O37	O	1.453353	-0.191699	0.524070
O38	O	1.703353	0.058301	0.774070
O39	O	1.953353	0.308301	1.024070
O40	O	2.203353	0.558301	1.274070
O41	O	1.334733	-0.312160	0.249161
O42	O	1.584733	-0.062160	0.499161
O43	O	1.834733	0.187840	0.749161
O44	O	2.084733	0.437840	0.999161
O45	O	1.178402	-0.312112	0.405513
O46	O	1.428402	-0.062112	0.655513
O47	O	1.678402	0.187888	0.905513
O48	O	1.928402	0.437888	1.155513
O49	O	1.334803	-0.403269	0.680363
O50	O	1.584803	-0.153269	0.930363
O51	O	1.834803	0.096731	1.180363
O52	O	2.084803	0.346731	1.430363
O53	O	1.178386	-0.403303	0.523967
O54	O	1.428386	-0.153303	0.773967
O55	O	1.678386	0.096697	1.023967
O56	O	1.928386	0.346697	1.273967
O57	O	1.453333	-0.312053	0.680407
O58	O	1.703333	-0.062053	0.930407
O59	O	1.953333	0.187947	1.180407
O60	O	2.203333	0.437947	1.430407
O61	O	1.453148	-0.523742	0.405486
O62	O	1.703148	-0.273742	0.655486
O63	O	1.953148	-0.023742	0.905486
O64	O	2.203148	0.226258	1.155486
O65	O	1.334698	-0.523705	0.523952
O66	O	1.584698	-0.273705	0.773952
O67	O	1.834698	-0.023705	1.023952
O68	O	2.084698	0.226295	1.273952
C69	C	1.143395	-0.357706	0.464736
C70	C	1.393395	-0.107706	0.714736
C71	C	1.643395	0.142294	0.964736
C72	C	1.893395	0.392294	1.214736
C73	C	1.036181	-0.357719	0.464745
C74	C	1.286181	-0.107719	0.714745
C75	C	1.536181	0.142281	0.964745
C76	C	1.786181	0.392281	1.214745
C77	C	0.949111	-0.357722	0.464761
C78	C	1.199111	-0.107722	0.714761
C79	C	1.449111	0.142278	0.964761
C80	C	1.699111	0.392278	1.214761
C81	C	0.839879	-0.357727	0.464790
C82	C	1.089879	-0.107727	0.714790
C83	C	1.339879	0.142273	0.964790
C84	C	1.589879	0.392273	1.214790
C85	C	1.393935	-0.550670	0.464731
C86	C	1.643935	-0.300670	0.714731
C87	C	1.893935	-0.050670	0.964731
C88	C	2.143935	0.199330	1.214731
C89	C	1.393992	-0.633216	0.464747
C90	C	1.643992	-0.383216	0.714747
C91	C	1.893992	-0.133216	0.964747
C92	C	2.143992	0.116784	1.214747
C93	C	1.458539	-0.832659	0.400415
C94	C	1.708539	-0.582659	0.650415
C95	C	1.958539	-0.332659	0.900415
C96	C	2.208539	-0.082659	1.150415
C97	C	1.482104	-0.881986	0.488452
C98	C	1.732104	-0.631986	0.738452
C99	C	1.982104	-0.381986	0.988452
C100	C	2.232104	-0.131986	1.238452
C101	C	1.394046	-0.784346	0.464786
C102	C	1.644046	-0.534346	0.714786
C103	C	1.894046	-0.284346	0.964786
C104	C	2.144046	-0.034346	1.214786
C105	C	1.370579	-0.882101	0.376789
C106	C	1.620579	-0.632101	0.626789
C107	C	1.870579	-0.382101	0.876789
C108	C	2.120579	-0.132101	1.126789
C109	C	1.394101	-0.930331	0.464815
C110	C	1.644101	-0.680331	0.714815
C111	C	1.894101	-0.430331	0.964815
C112	C	2.144101	-0.180331	1.214815
C113	C	1.417657	-0.832585	0.552868
C114	C	1.667657	-0.582585	0.802868
C115	C	1.917657	-0.332585	1.052868
C116	C	2.167657	-0.082585	1.302868
C117	C	1.306091	-0.832696	0.441146
C118	C	1.556091	-0.582696	0.691146
C119	C	1.806091	-0.332696	0.941146
C120	C	2.056091	-0.082696	1.191146
C121	C	1.329623	-0.882000	0.529243
C122	C	1.579623	-0.632000	0.779243
C123	C	1.829623	-0.382000	1.029243
C124	C	2.079623	-0.132000	1.279243
C125	C	1.394017	-0.700248	0.464767
C126	C	1.644017	-0.450248	0.714767
C127	C	1.894017	-0.200248	0.964767
C128	C	2.144017	0.049752	1.214767
C129	C	1.394130	-1.014427	0.464843
C130	C	1.644130	-0.764427	0.714843
C131	C	1.894130	-0.514427	0.964843
C132	C	2.144130	-0.264427	1.214843
C133	C	1.645602	-0.357730	0.464804
C134	C	1.895602	-0.107730	0.714804
C135	C	2.145602	0.142270	0.964804
C136	C	2.395602	0.392270	1.214804
C137	C	1.752816	-0.357735	0.464819
C138	C	2.002816	-0.107735	0.714819
C139	C	2.252816	0.142265	0.964819
C140	C	2.502816	0.392265	1.214819
C141	C	1.394078	-0.357652	0.716363
C142	C	1.644078	-0.107652	0.966363
C143	C	1.894078	0.142348	1.216363
C144	C	2.144078	0.392348	1.466363
C145	C	1.394107	-0.357624	0.823577
C146	C	1.644107	-0.107624	1.073577
C147	C	1.894107	0.142376	1.323577
C148	C	2.144107	0.392376	1.573577
C149	C	1.394110	-0.164012	0.464830
C150	C	1.644110	0.085988	0.714830
C151	C	1.894110	0.335988	0.964830
C152	C	2.144110	0.585988	1.214830
C153	C	1.394153	-0.081466	0.464855
C154	C	1.644153	0.168534	0.714855
C155	C	1.894153	0.418534	0.964855
C156	C	2.144153	0.668534	1.214855
C157	C	1.393996	-0.357729	0.214156
C158	C	1.643996	-0.107729	0.464156
C159	C	1.893996	0.142271	0.714156
C160	C	2.143996	0.392271	0.964156
C161	C	1.394154	-0.357548	0.106942
C162	C	1.644154	-0.107548	0.356942
C163	C	1.894154	0.142452	0.606942
C164	C	2.144154	0.392452	0.856942
C165	C	1.394133	-0.357574	1.019872
C166	C	1.644133	-0.107574	1.269872
C167	C	1.894133	0.142426	1.519872
C168	C	2.144133	0.392426	1.769872
C169	C	1.394115	-0.357604	0.910640
C170	C	1.644115	-0.107604	1.160640
C171	C	1.894115	0.142396	1.410640
C172	C	2.144115	0.392396	1.660640
H173	H	1.513096	-0.810993	0.346035
H174	H	1.763096	-0.560993	0.596035
H175	H	2.013096	-0.310993	0.846035
H176	H	2.263096	-0.060993	1.096035
O177	O	1.257411	-0.910524	0.601445
O178	O	1.507411	-0.660524	0.851445
O179	O	1.757411	-0.410524	1.101445
O180	O	2.007411	-0.160524	1.351445
H181	H	1.184633	-0.889897	0.582378
H182	H	1.434633	-0.639897	0.832378
H183	H	1.684633	-0.389897	1.082378
H184	H	1.934633	-0.139897	1.332378
H185	H	1.231706	-0.811027	0.421107
H186	H	1.481706	-0.561027	0.671107
H187	H	1.731706	-0.311027	0.921107
H188	H	1.981706	-0.061027	1.171107
O189	O	1.580658	-0.910671	0.514973
O190	O	1.830658	-0.660671	0.764973
O191	O	2.080658	-0.410671	1.014973
O192	O	2.330658	-0.160671	1.264973
H193	H	1.634045	-0.890914	0.461428
H194	H	1.884045	-0.640914	0.711428
H195	H	2.134045	-0.390914	0.961428
H196	H	2.384045	-0.140914	1.211428
O197	O	1.344145	-0.910902	0.278225
O198	O	1.594145	-0.660902	0.528225
O199	O	1.844145	-0.410902	0.778225
O200	O	2.094145	-0.160902	1.028225
H201	H	1.403738	-0.945597	0.250031
H202	H	1.653738	-0.695597	0.500031
H203	H	1.903738	-0.445597	0.750031
H204	H	2.153738	-0.195597	1.000031
O205	O	1.444106	-0.803909	0.651489
O206	O	1.694106	-0.553909	0.901489
O207	O	1.944106	-0.303909	1.151489
O208	O	2.194106	-0.053909	1.401489
H209	H	1.443914	-0.742422	0.650691
H210	H	1.693914	-0.492422	0.900691
H211	H	1.943914	-0.242422	1.150691
H212	H	2.193914	0.007578	1.400691
