data_functionalizedCrystal
_audit_creation_method	'MofGen! by Chris Wilmer'
_symmetry_space_group_name_H-M	'P1'
_symmetry_Int_Tables_number	1
_symmetry_cell_setting	triclinic
loop_
_symmetry_equiv_pos_as_xyz
  x,y,z
_cell_length_a	29.839134
_cell_length_b	21.295417
_cell_length_c	21.295411
_cell_angle_alpha	89.978356
_cell_angle_beta	89.965732
_cell_angle_gamma	90.025367
loop_
_atom_site_label
_atom_site_type_symbol
_atom_site_fract_x
_atom_site_fract_y
_atom_site_fract_z
Zn1	Zn	0.686808	-0.250767	-0.356074
Zn2	Zn	1.186808	0.249233	0.143926
Zn3	Zn	0.686739	-0.356019	-0.250800
Zn4	Zn	1.186739	0.143981	0.249200
Zn5	Zn	0.611675	-0.250758	-0.250802
Zn6	Zn	1.111675	0.249242	0.249198
Zn7	Zn	0.611653	-0.355993	-0.356014
Zn8	Zn	1.111653	0.144007	0.143986
O9	O	0.649219	-0.303384	-0.303422
O10	O	1.149219	0.196616	0.196578
O11	O	0.749666	-0.264744	-0.342134
O12	O	1.249666	0.235256	0.157866
O13	O	0.676761	-0.342063	-0.162711
O14	O	1.176761	0.157937	0.337289
O15	O	0.621680	-0.162670	-0.264792
O16	O	1.121680	0.337330	0.235208
O17	O	0.749615	-0.342072	-0.264789
O18	O	1.249615	0.157928	0.235211
O19	O	0.676880	-0.162677	-0.342136
O20	O	1.176880	0.337323	0.157864
O21	O	0.621612	-0.264728	-0.162712
O22	O	1.121612	0.235272	0.337288
O23	O	0.548805	-0.264703	-0.264734
O24	O	1.048805	0.235297	0.235266
O25	O	0.621643	-0.342027	-0.444111
O26	O	1.121643	0.157973	0.055889
O27	O	0.548789	-0.342019	-0.342032
O28	O	1.048789	0.157981	0.157968
O29	O	0.676859	-0.264718	-0.444156
O30	O	1.176859	0.235282	0.055844
O31	O	0.676740	-0.444105	-0.264730
O32	O	1.176740	0.055895	0.235270
O33	O	0.621575	-0.444086	-0.342031
O34	O	1.121575	0.055914	0.157969
C35	C	0.649160	-0.466936	-0.303388
C36	C	1.149160	0.033064	0.196612
C37	C	0.649176	-0.536904	-0.303394
C38	C	1.149176	-0.036904	0.196606
C39	C	0.532496	-0.303358	-0.303377
C40	C	1.032496	0.196642	0.196623
C41	C	0.482562	-0.303361	-0.303372
C42	C	0.982562	0.196639	0.196628
C43	C	0.677926	-0.569760	-0.263185
C44	C	1.177926	-0.069760	0.236815
C45	C	0.677947	-0.635502	-0.263199
C46	C	1.177947	-0.135502	0.236801
C47	C	0.649210	-0.668387	-0.303415
C48	C	1.149210	-0.168387	0.196585
C49	C	0.620458	-0.635523	-0.343632
C50	C	1.120458	-0.135523	0.156368
C51	C	0.620441	-0.569782	-0.343621
C52	C	1.120441	-0.069782	0.156379
N53	N	0.609910	-0.771648	-0.308199
N54	N	1.109910	-0.271648	0.191801
N55	N	0.609927	-0.834100	-0.308206
N56	N	1.109927	-0.334100	0.191794
C57	C	0.649260	-0.866461	-0.303451
C58	C	1.149260	-0.366461	0.196549
N59	N	0.688576	-0.834012	-0.298678
N60	N	1.188576	-0.334012	0.201322
N61	N	0.688558	-0.771555	-0.298668
N62	N	1.188558	-0.271555	0.201332
C63	C	0.649225	-0.739672	-0.303432
C64	C	1.149225	-0.239672	0.196568
C65	C	0.678035	-0.970603	-0.263256
C66	C	1.178035	-0.470603	0.236744
C67	C	0.678057	-1.036346	-0.263274
C68	C	1.178057	-0.536346	0.236726
C69	C	0.620564	-1.036366	-0.343704
C70	C	1.120564	-0.536366	0.156296
C71	C	0.620546	-0.970623	-0.343689
C72	C	1.120546	-0.470623	0.156311
C73	C	0.649281	-0.937746	-0.303461
C74	C	1.149281	-0.437746	0.196539
C75	C	0.172919	-0.343702	-0.343623
C76	C	0.672919	0.156298	0.156377
C77	C	-0.014754	-0.343720	-0.343651
C78	C	0.485246	0.156280	0.156349
O79	O	-0.039018	-0.377989	-0.377846
O80	O	0.460982	0.122011	0.122154
N81	N	-0.038223	-0.303407	-0.303470
N82	N	0.461777	0.196593	0.196530
C83	C	-0.014772	-0.263085	-0.263282
C84	C	0.485228	0.236915	0.236718
O85	O	-0.039041	-0.228793	-0.229111
O86	O	0.460959	0.271207	0.270889
C87	C	0.172900	-0.263064	-0.263258
C88	C	0.672900	0.236936	0.236742
C89	C	0.196367	-0.303384	-0.303437
C90	C	0.696367	0.196616	0.196563
C91	C	0.196387	-0.384018	-0.383799
C92	C	0.696387	0.115982	0.116201
C93	C	0.243302	-0.384015	-0.383789
C94	C	0.743302	0.115985	0.116211
C95	C	0.266750	-0.343697	-0.343603
C96	C	0.766750	0.156303	0.156397
C97	C	0.243283	-0.303382	-0.303427
C98	C	0.743283	0.196618	0.196573
C99	C	0.196351	-0.222739	-0.223074
C100	C	0.696351	0.277261	0.276926
C101	C	0.243272	-0.222736	-0.223072
C102	C	0.743272	0.277264	0.276928
C103	C	0.266739	-0.263056	-0.263251
C104	C	0.766739	0.236944	0.236749
C105	C	0.313646	-0.263061	-0.263231
C106	C	0.813646	0.236939	0.236769
N107	N	0.337116	-0.303373	-0.303412
N108	N	0.837116	0.196627	0.196588
C109	C	0.313668	-0.343691	-0.343598
C110	C	0.813668	0.156309	0.156402
C111	C	-0.113303	-0.263099	-0.263297
C112	C	0.386697	0.236901	0.236703
C113	C	-0.160220	-0.263105	-0.263302
C114	C	0.339780	0.236895	0.236698
C115	C	-0.160199	-0.343739	-0.343671
C116	C	0.339801	0.156261	0.156329
C117	C	-0.113280	-0.343736	-0.343663
C118	C	0.386720	0.156264	0.156337
C119	C	-0.089833	-0.303412	-0.303478
C120	C	0.410167	0.196588	0.196522
C121	C	0.412194	-0.343684	-0.343574
C122	C	0.912194	0.156316	0.156426
C123	C	0.459114	-0.343680	-0.343558
C124	C	0.959114	0.156320	0.156442
C125	C	0.459088	-0.263043	-0.263192
C126	C	0.959088	0.236957	0.236808
C127	C	0.412172	-0.263049	-0.263204
C128	C	0.912172	0.236951	0.236796
C129	C	0.388727	-0.303372	-0.303400
C130	C	0.888727	0.196628	0.196600
O131	O	0.337939	-0.228804	-0.229059
O132	O	0.837939	0.271196	0.270941
O133	O	0.337945	-0.377969	-0.377773
O134	O	0.837945	0.122031	0.122227
C135	C	0.126004	-0.343705	-0.343632
C136	C	0.626004	0.156295	0.156368
C137	C	0.102537	-0.303389	-0.303456
C138	C	0.602537	0.196611	0.196544
C139	C	0.125985	-0.263071	-0.263270
C140	C	0.625985	0.236929	0.236730
C141	C	0.055619	-0.303395	-0.303461
C142	C	0.555619	0.196605	0.196539
C143	C	0.032171	-0.343713	-0.343647
C144	C	0.532171	0.156287	0.156353
C145	C	0.055640	-0.384025	-0.383828
C146	C	0.555640	0.115975	0.116172
C147	C	0.102556	-0.384023	-0.383818
C148	C	0.602556	0.115977	0.116182
C149	C	0.102515	-0.222758	-0.223090
C150	C	0.602515	0.277242	0.276910
C151	C	0.055599	-0.222764	-0.223102
C152	C	0.555599	0.277236	0.276898
C153	C	0.032151	-0.263083	-0.263288
C154	C	0.532151	0.236917	0.236712
C155	C	0.766397	-0.303412	-0.303468
C156	C	1.266397	0.196588	0.196532
C157	C	0.816331	-0.303423	-0.303488
C158	C	1.316331	0.196577	0.196512
C159	C	0.649256	-0.303371	-0.467613
C160	C	1.149256	0.196629	0.032387
C161	C	0.649272	-0.303365	-0.537581
C162	C	1.149272	0.196635	-0.037581
C163	C	0.649290	-0.139194	-0.303471
C164	C	1.149290	0.360806	0.196529
C165	C	0.649320	-0.069226	-0.303492
C166	C	1.149320	0.430774	0.196508
C167	C	0.678022	-0.263109	-0.570472
C168	C	1.178022	0.236891	-0.070472
C169	C	0.678021	-0.263082	-0.636214
C170	C	1.178021	0.236918	-0.136214
C171	C	0.649275	-0.303322	-0.669063
C172	C	1.149275	0.196678	-0.169063
C173	C	0.620520	-0.343581	-0.636165
C174	C	1.120520	0.156419	-0.136165
C175	C	0.620518	-0.343603	-0.570423
C176	C	1.120518	0.156397	-0.070423
N177	N	0.645809	-0.358389	-0.772278
N178	N	1.145809	0.141611	-0.272278
N179	N	0.645814	-0.358367	-0.834729
N180	N	1.145814	0.141633	-0.334729
C181	C	0.649278	-0.303258	-0.867138
C182	C	1.149278	0.196742	-0.367138
N183	N	0.652747	-0.248171	-0.834736
N184	N	1.152747	0.251829	-0.334736
N185	N	0.652745	-0.248195	-0.772279
N186	N	1.152745	0.251805	-0.272279
C187	C	0.649274	-0.303303	-0.740349
C188	C	1.149274	0.196697	-0.240349
C189	C	0.678029	-0.262969	-0.971315
C190	C	1.178029	0.237031	-0.471315
C191	C	0.678025	-0.262940	-1.037059
C192	C	1.178025	0.237060	-0.537059
C193	C	0.620526	-0.343446	-1.037008
C194	C	1.120526	0.156554	-0.537008
C195	C	0.620528	-0.343469	-0.971265
C196	C	1.120528	0.156531	-0.471265
C197	C	0.649281	-0.303231	-0.938423
C198	C	1.149281	0.196769	-0.438423
C199	C	0.649207	-0.303352	-0.139871
C200	C	1.149207	0.196648	0.360129
C201	C	0.649279	-0.303181	-0.069903
C202	C	1.149279	0.196819	0.430097
H203	H	0.701360	-0.662259	-0.230456
H204	H	1.201360	-0.162259	0.269544
C205	C	-0.185605	-0.387475	-0.387409
C206	C	0.314395	0.112525	0.112591
C207	C	-0.174151	-0.373861	-0.449713
C208	C	0.325849	0.126139	0.050287
C209	C	-0.197544	-0.414136	-0.490022
C210	C	0.302456	0.085864	0.009978
H211	H	-0.216914	-0.381740	-0.381740
H212	H	0.283086	0.118260	0.118260
H213	H	-0.177925	-0.429769	-0.378162
H214	H	0.322075	0.070231	0.121838
H215	H	-0.181834	-0.331576	-0.458957
H216	H	0.318166	0.168424	0.041043
H217	H	-0.142846	-0.379599	-0.455402
H218	H	0.357154	0.120401	0.044598
H219	H	-0.189864	-0.456430	-0.480775
H220	H	0.310136	0.043570	0.019225
H221	H	-0.228852	-0.408397	-0.484348
H222	H	0.271148	0.091603	0.015652
H223	H	-0.189773	-0.404908	-0.532300
H224	H	0.310227	0.095092	-0.032300
H225	H	0.701472	-1.063096	-0.230533
H226	H	1.201472	-0.563096	0.269467
H227	H	0.597061	-0.662302	-0.376378
H228	H	1.097061	-0.162302	0.123622
H229	H	-0.094176	-0.376567	-0.376381
H230	H	0.405824	0.123433	0.123619
H231	H	0.262405	-0.416846	-0.416508
H232	H	0.762405	0.083154	0.083492
H233	H	0.597119	-0.376254	-0.944485
H234	H	1.097119	0.123746	-0.444485
H235	H	0.478188	-0.230219	-0.230471
H236	H	0.978188	0.269781	0.269529
C237	C	0.589386	-0.387352	-0.671859
C238	C	1.089386	0.112648	-0.171859
C239	C	0.614808	-0.427705	-0.709604
C240	C	1.114808	0.072295	-0.209604
C241	C	0.586141	-0.468040	-0.742486
C242	C	1.086141	0.031960	-0.242486
H243	H	0.569814	-0.363334	-0.697544
H244	H	1.069814	0.136666	-0.197544
H245	H	0.572271	-0.411369	-0.642871
H246	H	1.072271	0.088631	-0.142871
H247	H	0.631916	-0.403691	-0.738588
H248	H	1.131916	0.096309	-0.238588
H249	H	0.634379	-0.451737	-0.683934
H250	H	1.134379	0.048263	-0.183934
H251	H	0.569026	-0.492057	-0.713499
H252	H	1.069026	0.007943	-0.213499
H253	H	0.566570	-0.444017	-0.768168
H254	H	1.066570	0.055983	-0.268168
H255	H	0.603386	-0.495428	-0.768096
H256	H	1.103386	0.004572	-0.268096
H257	H	0.701434	-0.943832	-0.230502
H258	H	1.201434	-0.443832	0.269498
H259	H	0.701436	-0.230155	-1.063837
H260	H	1.201436	0.269845	-0.563837
H261	H	0.393064	-0.230219	-0.230486
H262	H	0.893064	0.269781	0.269514
C263	C	0.170910	-0.427694	-0.427510
C264	C	0.670910	0.072306	0.072490
C265	C	0.144011	-0.392125	-0.467945
C266	C	0.644011	0.107875	0.032055
C267	C	0.120544	-0.432344	-0.508225
C268	C	0.620544	0.067656	-0.008225
H269	H	0.152554	-0.455104	-0.403455
H270	H	0.652554	0.044896	0.096545
H271	H	0.191599	-0.451689	-0.451469
H272	H	0.691599	0.048311	0.048531
H273	H	0.123325	-0.368141	-0.443988
H274	H	0.623325	0.131859	0.056012
H275	H	0.162356	-0.364717	-0.492014
H276	H	0.662356	0.135283	0.007986
H277	H	0.141233	-0.456339	-0.532184
H278	H	0.641233	0.043661	-0.032184
H279	H	0.102191	-0.459752	-0.484165
H280	H	0.602191	0.040248	0.015835
H281	H	0.102293	-0.408217	-0.535668
H282	H	0.602293	0.091783	-0.035668
C283	C	-0.185777	-0.219416	-0.219684
C284	C	0.314223	0.280584	0.280316
C285	C	-0.231886	-0.228060	-0.228267
C286	C	0.268114	0.271940	0.271733
C287	C	-0.255441	-0.187832	-0.188087
C288	C	0.244559	0.312168	0.311913
H289	H	-0.178130	-0.177104	-0.228923
H290	H	0.321870	0.322896	0.271077
H291	H	-0.178130	-0.228584	-0.177363
H292	H	0.321870	0.271416	0.322637
H293	H	-0.239530	-0.218887	-0.270579
H294	H	0.260470	0.281113	0.229421
H295	H	-0.239547	-0.270364	-0.219024
H296	H	0.260453	0.229636	0.280976
H297	H	-0.247794	-0.197001	-0.145765
H298	H	0.252206	0.302999	0.354235
H299	H	-0.247789	-0.145524	-0.197330
H300	H	0.252211	0.354476	0.302670
H301	H	-0.286728	-0.193697	-0.193901
H302	H	0.213272	0.306303	0.306099
C303	C	0.589382	-1.072174	-0.387303
C304	C	1.089382	-0.572174	0.112697
C305	C	0.595544	-1.136781	-0.378699
C306	C	1.095544	-0.636781	0.121301
C307	C	0.566824	-1.169789	-0.418850
C308	C	1.066824	-0.669789	0.081150
H309	H	0.595912	-1.061443	-0.429632
H310	H	1.095912	-0.561443	0.070368
H311	H	0.559187	-1.061477	-0.378038
H312	H	1.059187	-0.561477	0.121962
H313	H	0.625732	-1.147473	-0.387969
H314	H	1.125732	-0.647473	0.112031
H315	H	0.589011	-1.147530	-0.336380
H316	H	1.089011	-0.647530	0.163620
H317	H	0.536629	-1.159093	-0.409585
H318	H	1.036629	-0.659093	0.090415
H319	H	0.573356	-1.159053	-0.461176
H320	H	1.073356	-0.659053	0.038824
H321	H	0.570998	-1.213628	-0.413014
H322	H	1.070998	-0.713628	0.086986
C323	C	0.589376	-0.934833	-0.387316
C324	C	1.089376	-0.434833	0.112684
C325	C	0.595519	-0.870222	-0.378710
C326	C	1.095519	-0.370222	0.121290
C327	C	0.566817	-0.837234	-0.418898
C328	C	1.066817	-0.337234	0.081102
H329	H	0.559179	-0.945570	-0.378099
H330	H	1.059179	-0.445570	0.121901
H331	H	0.595943	-0.945540	-0.429637
H332	H	1.095943	-0.445540	0.070363
H333	H	0.588949	-0.859520	-0.336399
H334	H	1.088949	-0.359520	0.163601
H335	H	0.625711	-0.859467	-0.387932
H336	H	1.125711	-0.359467	0.112068
H337	H	0.573385	-0.847941	-0.461219
H338	H	1.073385	-0.347941	0.038781
H339	H	0.536622	-0.847976	-0.409678
H340	H	1.036622	-0.347976	0.090322
H341	H	0.570985	-0.793392	-0.413069
H342	H	1.070985	-0.293392	0.086931
C343	C	0.589174	-0.534219	-0.387301
C344	C	1.089174	-0.034219	0.112699
C345	C	0.564004	-0.577085	-0.422517
C346	C	1.064004	-0.077085	0.077483
C347	C	0.535192	-0.544347	-0.462754
C348	C	1.035192	-0.044347	0.037246
H349	H	0.606293	-0.508535	-0.414804
H350	H	1.106293	-0.008535	0.085196
H351	H	0.569576	-0.508624	-0.363199
H352	H	1.069576	-0.008624	0.136801
H353	H	0.583599	-0.602669	-0.446617
H354	H	1.083599	-0.102669	0.053383
H355	H	0.546876	-0.602771	-0.395030
H356	H	1.046876	-0.102771	0.104970
H357	H	0.515594	-0.518752	-0.438653
H358	H	1.015594	-0.018752	0.061347
H359	H	0.552314	-0.518664	-0.490253
H360	H	1.052314	-0.018664	0.009747
H361	H	0.518108	-0.573426	-0.486649
H362	H	1.018108	-0.073426	0.013351
H363	H	0.478219	-0.376515	-0.376277
H364	H	0.978219	0.123485	0.123723
H365	H	0.393110	-0.376517	-0.376307
H366	H	0.893110	0.123483	0.123693
C367	C	-0.087930	-0.219294	-0.219592
C368	C	0.412070	0.280706	0.280408
C369	C	-0.118532	-0.184008	-0.184397
C370	C	0.381468	0.315992	0.315603
C371	C	-0.095178	-0.143656	-0.144122
C372	C	0.404822	0.356344	0.355878
H373	H	-0.069608	-0.191839	-0.243646
H374	H	0.430392	0.308161	0.256354
H375	H	-0.069657	-0.243315	-0.192081
H376	H	0.430343	0.256685	0.307919
H377	H	-0.136797	-0.159988	-0.211904
H378	H	0.363203	0.340012	0.288096
H379	H	-0.136855	-0.211446	-0.160331
H380	H	0.363145	0.288554	0.339669
H381	H	-0.076905	-0.167678	-0.116612
H382	H	0.423095	0.332322	0.383388
H383	H	-0.076856	-0.116206	-0.168181
H384	H	0.423144	0.383794	0.331819
H385	H	-0.115937	-0.119715	-0.120234
H386	H	0.384063	0.380285	0.379766
C387	C	0.030152	-0.427693	-0.427539
C388	C	0.530152	0.072307	0.072461
C389	C	0.003257	-0.392101	-0.467960
C390	C	0.503257	0.107899	0.032040
C391	C	-0.020227	-0.432299	-0.508241
C392	C	0.479773	0.067701	-0.008241
H393	H	0.011791	-0.455096	-0.403484
H394	H	0.511791	0.044904	0.096516
H395	H	0.050830	-0.451694	-0.451509
H396	H	0.550830	0.048306	0.048491
H397	H	-0.017418	-0.368109	-0.443993
H398	H	0.482582	0.131891	0.056007
H399	H	0.021607	-0.364698	-0.492029
H400	H	0.521607	0.135302	0.007971
H401	H	0.000451	-0.456301	-0.532210
H402	H	0.500451	0.043699	-0.032210
H403	H	-0.038585	-0.459701	-0.484181
H404	H	0.461415	0.040299	0.015819
H405	H	-0.038475	-0.408155	-0.535675
H406	H	0.461525	0.091845	-0.035675
C407	C	0.170961	-0.178889	-0.179430
C408	C	0.670961	0.321111	0.320570
C409	C	0.201547	-0.143570	-0.144257
C410	C	0.701547	0.356430	0.355743
C411	C	0.178176	-0.103159	-0.104050
C412	C	0.678176	0.396841	0.395950
H413	H	0.152635	-0.202850	-0.151898
H414	H	0.652635	0.297150	0.348102
H415	H	0.152690	-0.151464	-0.203552
H416	H	0.652690	0.348536	0.296448
H417	H	0.219811	-0.170992	-0.120137
H418	H	0.719811	0.329008	0.379863
H419	H	0.219874	-0.119595	-0.171772
H420	H	0.719874	0.380405	0.328228
H421	H	0.159905	-0.075733	-0.128172
H422	H	0.659905	0.424267	0.371828
H423	H	0.159851	-0.127125	-0.076523
H424	H	0.659851	0.372875	0.423477
H425	H	0.198925	-0.079186	-0.080185
H426	H	0.698925	0.420814	0.419815
H427	H	0.597105	-0.376384	-0.543644
H428	H	1.097105	0.123616	-0.043644
H429	H	0.701324	-0.542993	-0.230431
H430	H	1.201324	-0.042993	0.269569
C431	C	0.268786	-0.179059	-0.179402
C432	C	0.768786	0.320941	0.320598
C433	C	0.295699	-0.214638	-0.138993
C434	C	0.795699	0.285362	0.361007
C435	C	0.319213	-0.174426	-0.098761
C436	C	0.819213	0.325574	0.401239
H437	H	0.248140	-0.155034	-0.155416
H438	H	0.748140	0.344966	0.344584
H439	H	0.287136	-0.151675	-0.203512
H440	H	0.787136	0.348325	0.296488
H441	H	0.277351	-0.242010	-0.114885
H442	H	0.777351	0.257990	0.385115
H443	H	0.316353	-0.238661	-0.162962
H444	H	0.816353	0.261339	0.337038
H445	H	0.337562	-0.147043	-0.122871
H446	H	0.837562	0.352957	0.377129
H447	H	0.298564	-0.150404	-0.074779
H448	H	0.798564	0.349596	0.425221
H449	H	0.337479	-0.198560	-0.071342
H450	H	0.837479	0.301440	0.428658
H451	H	0.121659	-0.416855	-0.416536
H452	H	0.621659	0.083145	0.083464
C453	C	0.030205	-0.178916	-0.179452
C454	C	0.530205	0.321084	0.320548
C455	C	0.060788	-0.143597	-0.144272
C456	C	0.560788	0.356403	0.355728
C457	C	0.037413	-0.103190	-0.104067
C458	C	0.537413	0.396810	0.395933
H459	H	0.011877	-0.202880	-0.151924
H460	H	0.511877	0.297120	0.348076
H461	H	0.011935	-0.151490	-0.203575
H462	H	0.511935	0.348510	0.296425
H463	H	0.079050	-0.171020	-0.120151
H464	H	0.579050	0.328980	0.379849
H465	H	0.079116	-0.119621	-0.171784
H466	H	0.579116	0.380379	0.328216
H467	H	0.019142	-0.075763	-0.128190
H468	H	0.519142	0.424237	0.371810
H469	H	0.019086	-0.127158	-0.076544
H470	H	0.519086	0.372842	0.423456
H471	H	0.058159	-0.079217	-0.080198
H472	H	0.558159	0.420783	0.419802
C473	C	0.709278	-0.219512	-0.534772
C474	C	1.209278	0.280488	-0.034772
C475	C	0.738064	-0.255159	-0.497049
C476	C	1.238064	0.244841	0.002951
C477	C	0.766860	-0.215015	-0.464154
C478	C	1.266860	0.284985	0.035846
H479	H	0.692143	-0.192085	-0.509071
H480	H	1.192143	0.307915	-0.009071
H481	H	0.726426	-0.195534	-0.563752
H482	H	1.226426	0.304466	-0.063752
H483	H	0.720917	-0.279127	-0.468072
H484	H	1.220917	0.220873	0.031928
H485	H	0.755209	-0.282585	-0.522734
H486	H	1.255209	0.217415	-0.022734
H487	H	0.784009	-0.191036	-0.493134
H488	H	1.284009	0.308964	0.006866
H489	H	0.749722	-0.187589	-0.438457
H490	H	1.249722	0.312411	0.061543
H491	H	0.786398	-0.239195	-0.438559
H492	H	1.286398	0.260805	0.061441
H493	H	0.701439	-0.230201	-0.944573
H494	H	1.201439	0.269799	-0.444573
H495	H	0.121602	-0.189926	-0.190365
H496	H	0.621602	0.310074	0.309635
H497	H	0.701432	-0.230296	-0.662999
H498	H	1.201432	0.269704	-0.162999
C499	C	0.589369	-0.387119	-1.072778
C500	C	1.089369	0.112881	-0.572778
C501	C	0.595532	-0.378497	-1.137392
C502	C	1.095532	0.121503	-0.637392
C503	C	0.566842	-0.418725	-1.170366
C504	C	1.066842	0.081275	-0.670366
H505	H	0.559168	-0.377949	-1.062058
H506	H	1.059168	0.122051	-0.562058
H507	H	0.595934	-0.429431	-1.062040
H508	H	1.095934	0.070569	-0.562040
H509	H	0.588963	-0.336195	-1.148125
H510	H	1.088963	0.163805	-0.648125
H511	H	0.625727	-0.387671	-1.148130
H512	H	1.125727	0.112329	-0.648130
H513	H	0.573407	-0.461037	-1.159628
H514	H	1.073407	0.038963	-0.659628
H515	H	0.536643	-0.409552	-1.159641
H516	H	1.036643	0.090448	-0.659641
H517	H	0.571022	-0.412885	-1.214210
H518	H	1.071022	0.087115	-0.714210
