data_functionalizedCrystal
_audit_creation_method	'MofGen! by Chris Wilmer'
_symmetry_space_group_name_H-M	'P1'
_symmetry_Int_Tables_number	1
_symmetry_cell_setting	triclinic
loop_
_symmetry_equiv_pos_as_xyz
  x,y,z
_cell_length_a	16.109301
_cell_length_b	19.188930
_cell_length_c	14.586319
_cell_angle_alpha	90.017486
_cell_angle_beta	90.005889
_cell_angle_gamma	83.303183
loop_
_atom_site_label
_atom_site_type_symbol
_atom_site_fract_x
_atom_site_fract_y
_atom_site_fract_z
O1	O	1.102838	0.089753	0.076200
O2	O	0.860739	0.100921	0.076215
O3	O	0.988775	-0.006302	0.076189
O4	O	0.974802	0.196976	0.076226
O5	O	0.988757	-0.006320	-0.076292
O6	O	0.860721	0.100903	-0.076266
O7	O	1.102820	0.089735	-0.076280
Cu8	Cu	0.981769	0.095317	-0.090196
Cu9	Cu	0.981790	0.095339	0.090130
O10	O	0.974784	0.196958	-0.076255
C11	C	0.829757	0.100460	-0.000024
C12	C	0.737466	0.099103	-0.000020
C13	C	0.428271	0.158294	-0.000025
C14	C	0.514987	0.159575	-0.000019
C15	C	0.535282	0.032358	-0.000030
C16	C	0.448568	0.031077	-0.000029
C17	C	0.395064	0.094048	-0.000031
C18	C	0.568495	0.096609	-0.000027
C19	C	0.662516	0.097997	-0.000021
C20	C	0.301037	0.092659	-0.000035
C21	C	0.988313	-0.032323	-0.000054
C22	C	0.986955	-0.109831	-0.000062
C23	C	1.062082	-0.154579	-0.000070
C24	C	1.060806	-0.227406	-0.000056
C25	C	0.984398	-0.255481	-0.000050
C26	C	0.909261	-0.210723	-0.000036
C27	C	0.910540	-0.137898	-0.000042
N28	N	0.925988	-0.363629	-0.051939
N29	N	0.924779	-0.432810	-0.051936
C30	C	0.980543	-0.474899	-0.000032
N31	N	1.037574	-0.445194	0.051858
N32	N	1.038786	-0.376006	0.051850
C33	C	0.983004	-0.334447	-0.000044
C34	C	1.054291	-0.598615	-0.000023
C35	C	1.053012	-0.671443	-0.000003
C36	C	0.901465	-0.654758	0.000007
C37	C	0.902747	-0.581932	-0.000004
C38	C	0.979162	-0.553865	-0.000024
C39	C	1.133802	0.090196	-0.000039
C40	C	1.226093	0.091553	-0.000038
C41	C	0.975245	0.222980	-0.000010
C42	C	0.976604	0.300487	0.000004
N43	N	0.981760	0.095302	-0.217028
C44	C	0.931518	0.052973	-0.548062
C45	C	0.931511	0.052963	-0.452080
C46	C	1.032054	0.137679	-0.452011
C47	C	1.032064	0.137685	-0.547990
C48	C	0.981791	0.095333	-0.596013
C49	C	0.981774	0.095318	-0.404052
C50	C	0.981767	0.095308	-0.299985
C51	C	0.981799	0.095342	-0.700087
N52	N	0.981806	0.095349	0.216962
H53	H	0.421531	-0.021243	-0.000031
H54	H	1.073007	0.172180	-0.587034
H55	H	0.890574	0.018469	-0.413042
H56	H	0.847050	-0.233587	-0.000030
H57	H	0.542020	0.211890	-0.000013
H58	H	0.841570	-0.545497	-0.000002
H59	H	1.072983	0.172162	-0.412899
C60	C	0.876224	0.006383	-0.600886
C61	C	0.808384	0.039950	-0.666865
C62	C	0.753090	-0.006643	-0.719686
C63	C	0.765635	-0.086803	-0.706528
C64	C	0.833477	-0.120375	-0.640546
C65	C	0.888772	-0.073782	-0.587725
H66	H	0.799095	0.099294	-0.676608
H67	H	0.702868	0.018210	-0.768531
H68	H	0.724703	-0.121294	-0.745629
H69	H	0.842767	-0.179718	-0.630803
H70	H	0.938993	-0.098634	-0.538881
H71	H	0.384711	0.209568	-0.000026
C72	C	0.827894	-0.088670	-0.000041
C73	C	0.765216	-0.091777	0.079143
C74	C	0.682570	-0.042547	0.079142
C75	C	0.662602	0.009788	-0.000044
C76	C	0.725281	0.012897	-0.079233
C77	C	0.807927	-0.036332	-0.079232
H78	H	0.779996	-0.130521	0.137766
H79	H	0.636170	-0.044849	0.137764
H80	H	0.601422	0.046231	-0.000045
H81	H	0.710501	0.051641	-0.137856
H82	H	0.854327	-0.034031	-0.137854
H83	H	1.116513	-0.575762	-0.000035
C84	C	1.143451	-0.276641	-0.000075
C85	C	1.227503	-0.245769	-0.000098
C86	C	1.310146	-0.295002	-0.000120
C87	C	1.308738	-0.375106	-0.000119
C88	C	1.224683	-0.405982	-0.000096
C89	C	1.142039	-0.356750	-0.000073
H90	H	1.228548	-0.186467	-0.000099
H91	H	1.372370	-0.272144	-0.000137
H92	H	1.369916	-0.411551	-0.000135
H93	H	1.223638	-0.465284	-0.000095
H94	H	1.079816	-0.379607	-0.000056
C95	C	0.594139	-0.036906	-0.000037
C96	C	0.656535	-0.053533	-0.079221
C97	C	0.715391	-0.122798	-0.079231
C98	C	0.711851	-0.175436	-0.000056
C99	C	0.649452	-0.158811	0.079134
C100	C	0.590597	-0.089546	0.079144
H101	H	0.659157	-0.014565	-0.137837
H102	H	0.761582	-0.135105	-0.137854
H103	H	0.755419	-0.226711	-0.000063
H104	H	0.646830	-0.197778	0.137750
H105	H	0.544405	-0.077239	0.137766
H106	H	1.124306	-0.131732	-0.000083
H107	H	1.114192	-0.707877	-0.000005
H108	H	0.839252	-0.677616	0.000016
