data_functionalizedCrystal
_audit_creation_method	'MofGen! by Chris Wilmer'
_symmetry_space_group_name_H-M	'P1'
_symmetry_Int_Tables_number	1
_symmetry_cell_setting	triclinic
loop_
_symmetry_equiv_pos_as_xyz
  x,y,z
_cell_length_a	25.639242
_cell_length_b	25.639240
_cell_length_c	16.625539
_cell_angle_alpha	89.961562
_cell_angle_beta	89.971228
_cell_angle_gamma	90.027658
loop_
_atom_site_label
_atom_site_type_symbol
_atom_site_fract_x
_atom_site_fract_y
_atom_site_fract_z
Zn1	Zn	0.799284	-0.208221	-0.456029
Zn2	Zn	1.299284	0.291779	0.043971
Zn3	Zn	0.799205	-0.295659	-0.321172
Zn4	Zn	1.299205	0.204341	0.178828
Zn5	Zn	0.711849	-0.208231	-0.321190
Zn6	Zn	1.211849	0.291769	0.178810
Zn7	Zn	0.711814	-0.295619	-0.455943
Zn8	Zn	1.211814	0.204381	0.044057
O9	O	0.755538	-0.251933	-0.388584
O10	O	1.255538	0.248067	0.111416
O11	O	0.872439	-0.219832	-0.438168
O12	O	1.372439	0.280168	0.061832
O13	O	0.787599	-0.284082	-0.208342
O14	O	1.287599	0.215918	0.291658
O15	O	0.723495	-0.135065	-0.339120
O16	O	1.223495	0.364935	0.160880
O17	O	0.872381	-0.284072	-0.339090
O18	O	1.372381	0.215928	0.160910
O19	O	0.787733	-0.135057	-0.438186
O20	O	1.287733	0.364943	0.061814
O21	O	0.723419	-0.219850	-0.208355
O22	O	1.223419	0.280150	0.291645
O23	O	0.638679	-0.219812	-0.339037
O24	O	1.138679	0.280188	0.160963
O25	O	0.723435	-0.284005	-0.568787
O26	O	1.223435	0.215995	-0.068787
O27	O	0.638654	-0.284015	-0.438039
O28	O	1.138654	0.215985	0.061961
O29	O	0.787699	-0.219794	-0.568850
O30	O	1.287699	0.280206	-0.068850
O31	O	0.787565	-0.368819	-0.339006
O32	O	1.287565	0.131181	0.160994
O33	O	0.723359	-0.368790	-0.438022
O34	O	1.223359	0.131210	0.061978
C35	C	0.619696	-0.251911	-0.388531
C36	C	1.119696	0.248089	0.111469
C37	C	0.561581	-0.251914	-0.388528
C38	C	1.061581	0.248086	0.111472
C39	C	0.310393	-0.218446	-0.337122
C40	C	0.810393	0.281554	0.162878
C41	C	0.364997	-0.218441	-0.337112
C42	C	0.864997	0.281559	0.162888
O43	O	0.393237	-0.189955	-0.293360
O44	O	0.893237	0.310045	0.206640
N45	N	0.392308	-0.251920	-0.388568
N46	N	0.892308	0.248080	0.111432
C47	C	0.365011	-0.285402	-0.440044
C48	C	0.865011	0.214598	0.059956
O49	O	0.393255	-0.313878	-0.483811
O50	O	0.893255	0.186122	0.016189
C51	C	0.310408	-0.285404	-0.440058
C52	C	0.810408	0.214596	0.059942
C53	C	0.283100	-0.251927	-0.388592
C54	C	0.783100	0.248073	0.111408
C55	C	0.283085	-0.184971	-0.285662
C56	C	0.783085	0.315029	0.214338
C57	C	0.228484	-0.184977	-0.285671
C58	C	0.728484	0.315023	0.214329
C59	C	0.201191	-0.218457	-0.337141
C60	C	0.701191	0.281543	0.162859
C61	C	0.228499	-0.251932	-0.388602
C62	C	0.728499	0.248068	0.111398
C63	C	0.283112	-0.318883	-0.491537
C64	C	0.783112	0.181117	0.008463
C65	C	0.228505	-0.318882	-0.491547
C66	C	0.728505	0.181118	0.008453
C67	C	0.201197	-0.285405	-0.440081
C68	C	0.701197	0.214595	0.059919
C69	C	0.146606	-0.285419	-0.440081
C70	C	0.646606	0.214581	0.059919
N71	N	0.119296	-0.251940	-0.388625
N72	N	0.619296	0.248060	0.111375
C73	C	0.146588	-0.218459	-0.337155
C74	C	0.646588	0.281541	0.162845
C75	C	0.479682	-0.285395	-0.440012
C76	C	0.979682	0.214605	0.059988
C77	C	0.534284	-0.285397	-0.439995
C78	C	1.034284	0.214603	0.060005
C79	C	0.534266	-0.218435	-0.337064
C80	C	1.034266	0.281565	0.162936
C81	C	0.479663	-0.218436	-0.337078
C82	C	0.979663	0.281564	0.162922
C83	C	0.452371	-0.251916	-0.388556
C84	C	0.952371	0.248084	0.111444
C85	C	0.031923	-0.218474	-0.337178
C86	C	0.531923	0.281526	0.162822
C87	C	-0.022682	-0.218484	-0.337189
C88	C	0.477318	0.281516	0.162811
C89	C	-0.022660	-0.285444	-0.440123
C90	C	0.477340	0.214556	0.059877
C91	C	0.031941	-0.285436	-0.440109
C92	C	0.531941	0.214564	0.059891
C93	C	0.059231	-0.251947	-0.388634
C94	C	0.559231	0.248053	0.111366
O95	O	0.118331	-0.313889	-0.483813
O96	O	0.618331	0.186111	0.016187
O97	O	0.118338	-0.189983	-0.293402
O98	O	0.618338	0.310017	0.206598
C99	C	0.755464	-0.387775	-0.388520
C100	C	1.255464	0.112225	0.111480
C101	C	0.755480	-0.445889	-0.388520
C102	C	1.255480	0.054111	0.111480
C103	C	0.789003	-0.806210	-0.440260
C104	C	1.289003	-0.306210	0.059740
C105	C	0.789019	-0.860814	-0.440276
C106	C	1.289019	-0.360814	0.059724
O107	O	0.817433	-0.889015	-0.484202
O108	O	1.317433	-0.389015	0.015798
N109	N	0.755611	-0.888172	-0.388662
N110	N	1.255611	-0.388172	0.111338
C111	C	0.722181	-0.860922	-0.337033
C112	C	1.222181	-0.360922	0.162967
O113	O	0.693766	-0.889206	-0.293132
O114	O	1.193766	-0.389206	0.206868
C115	C	0.722163	-0.806319	-0.337021
C116	C	1.222163	-0.306319	0.162979
C117	C	0.755578	-0.778964	-0.388633
C118	C	1.255578	-0.278964	0.111367
C119	C	0.822414	-0.778855	-0.491869
C120	C	1.322414	-0.278855	0.008131
C121	C	0.822399	-0.724254	-0.491851
C122	C	1.322399	-0.224254	0.008149
C123	C	0.788974	-0.697009	-0.440225
C124	C	1.288974	-0.197009	0.059775
C125	C	0.755563	-0.724364	-0.388616
C126	C	1.255563	-0.224364	0.111384
C127	C	0.688732	-0.779070	-0.285397
C128	C	1.188732	-0.279070	0.214603
C129	C	0.688717	-0.724463	-0.285390
C130	C	1.188717	-0.224463	0.214610
C131	C	0.722131	-0.697108	-0.337002
C132	C	1.222131	-0.197108	0.162998
C133	C	0.722122	-0.642517	-0.336972
C134	C	1.222122	-0.142517	0.163028
N135	N	0.755530	-0.615160	-0.388586
N136	N	1.255530	-0.115160	0.111414
C137	C	0.788956	-0.642405	-0.440213
C138	C	1.288956	-0.142405	0.059787
C139	C	0.722220	-0.975593	-0.337062
C140	C	1.222220	-0.475593	0.162938
C141	C	0.722240	-1.030195	-0.337069
C142	C	1.222240	-0.530195	0.162931
C143	C	0.789077	-1.030083	-0.440314
C144	C	1.289077	-0.530083	0.059686
C145	C	0.789059	-0.975480	-0.440303
C146	C	1.289059	-0.475480	0.059697
C147	C	0.755628	-0.948235	-0.388677
C148	C	1.255628	-0.448235	0.111323
C149	C	0.788923	-0.527740	-0.440172
C150	C	1.288923	-0.027740	0.059828
C151	C	0.788906	-0.473135	-0.440147
C152	C	1.288906	0.026865	0.059853
C153	C	0.722067	-0.473252	-0.336905
C154	C	1.222067	0.026748	0.163095
C155	C	0.722085	-0.527852	-0.336927
C156	C	1.222085	-0.027852	0.163073
C157	C	0.755515	-0.555095	-0.388566
C158	C	1.255515	-0.055095	0.111434
O159	O	0.693720	-0.614282	-0.293070
O160	O	1.193720	-0.114282	0.206930
O161	O	0.817361	-0.614115	-0.484114
O162	O	1.317361	-0.114115	0.015886
C163	C	0.891911	-0.251955	-0.388637
C164	C	1.391911	0.248045	0.111363
C165	C	0.950025	-0.251965	-0.388659
C166	C	1.450025	0.248035	0.111341
C167	C	0.755572	-0.251894	-0.598893
C168	C	1.255572	0.248106	-0.098893
C169	C	0.755587	-0.251877	-0.688514
C170	C	1.255587	0.248123	-0.188514
C171	C	0.755626	-0.115560	-0.388665
C172	C	1.255626	0.384440	0.111335
C173	C	0.755664	-0.057446	-0.388699
C174	C	1.255664	0.442554	0.111301
C175	C	0.755611	-0.251819	-1.016690
C176	C	1.255611	0.248181	-0.516690
C177	C	0.755603	-0.251837	-0.925381
C178	C	1.255603	0.248163	-0.425381
C179	C	0.755599	-0.251848	-0.852605
C180	C	1.255599	0.248152	-0.352605
C181	C	0.755590	-0.251865	-0.761290
C182	C	1.255590	0.248135	-0.261290
C183	C	0.755534	-0.251934	-0.179093
C184	C	1.255534	0.248066	0.320907
C185	C	0.755621	-0.251803	-0.089472
C186	C	1.255621	0.248197	0.410528
H187	H	-0.044891	-0.312705	-0.482026
H188	H	0.455109	0.187295	0.017974
H189	H	0.694854	-0.451060	-0.294869
H190	H	1.194854	0.048940	0.205131
N191	N	0.450213	-0.182329	-0.281568
N192	N	0.950213	0.317671	0.218432
H193	H	0.427535	-0.203548	-0.244143
H194	H	0.927535	0.296452	0.255857
H195	H	0.475828	-0.161131	-0.249016
H196	H	0.975828	0.338869	0.250984
N197	N	0.061397	-0.321549	-0.495608
N198	N	0.561397	0.178451	0.004392
H199	H	0.084074	-0.300332	-0.533035
H200	H	0.584074	0.199668	-0.033035
H201	H	0.084000	-0.345740	-0.462703
H202	H	0.584000	0.154260	0.037297
H203	H	0.816118	-0.450864	-0.482176
H204	H	1.316118	0.049136	0.017824
N205	N	0.563708	-0.182321	-0.281548
N206	N	1.063708	0.317679	0.218452
H207	H	0.602442	-0.187402	-0.289355
H208	H	1.102442	0.312598	0.210645
H209	H	0.554187	-0.144991	-0.294213
H210	H	1.054187	0.355009	0.205787
N211	N	0.199034	-0.148867	-0.230164
N212	N	0.699034	0.351133	0.269836
H213	H	0.224617	-0.127658	-0.197563
H214	H	0.724617	0.372342	0.302437
H215	H	0.176404	-0.124698	-0.263062
H216	H	0.676404	0.375302	0.236938
N217	N	0.450246	-0.321516	-0.495525
N218	N	0.950246	0.178484	0.004475
H219	H	0.459779	-0.313446	-0.553158
H220	H	0.959779	0.186554	-0.053158
H221	H	0.459743	-0.358845	-0.482811
H222	H	0.959743	0.141155	0.017189
N223	N	0.563735	-0.321512	-0.495491
N224	N	1.063735	0.178488	0.004509
H225	H	0.538154	-0.342722	-0.528094
H226	H	1.038154	0.157278	-0.028094
H227	H	0.586414	-0.300262	-0.532869
H228	H	1.086414	0.199738	-0.032869
H229	H	0.816293	-1.052277	-0.482353
H230	H	1.316293	-0.552277	0.017647
N231	N	0.858435	-0.694754	-0.547525
N232	N	1.358435	-0.194754	-0.047525
H233	H	0.879608	-0.720307	-0.580231
H234	H	1.379608	-0.220307	-0.080231
H235	H	0.837130	-0.672098	-0.584800
H236	H	1.337130	-0.172098	-0.084800
H237	H	0.695037	-1.052463	-0.295033
H238	H	1.195037	-0.552463	0.204967
N239	N	0.312557	-0.354993	-0.547045
N240	N	0.812557	0.145007	-0.047045
H241	H	0.286974	-0.376197	-0.579651
H242	H	0.786974	0.123803	-0.079651
H243	H	0.335236	-0.333740	-0.584420
H244	H	0.835236	0.166260	-0.084420
N245	N	0.686054	-0.557359	-0.281249
N246	N	1.186054	-0.057359	0.218751
H247	H	0.661817	-0.580013	-0.313981
H248	H	1.161817	-0.080013	0.186019
H249	H	0.707361	-0.579989	-0.243941
H250	H	1.207361	-0.079989	0.256059
H251	H	0.206287	-0.346144	-0.533470
H252	H	0.706287	0.153856	-0.033470
H253	H	0.305301	-0.157704	-0.243749
H254	H	0.805301	0.342296	0.256251
N255	N	0.858456	-0.808236	-0.547577
N256	N	1.358456	-0.308236	-0.047577
H257	H	0.879611	-0.782614	-0.580271
H258	H	1.379611	-0.282614	-0.080271
H259	H	0.882678	-0.830895	-0.514822
H260	H	1.382678	-0.330895	-0.014822
N261	N	0.824972	-0.557119	-0.495876
N262	N	1.324972	-0.057119	0.004124
H263	H	0.846131	-0.531498	-0.528564
H264	H	1.346131	-0.031498	-0.028564
H265	H	0.849190	-0.579777	-0.463111
H266	H	1.349190	-0.079777	0.036889
H267	H	0.661523	-0.801333	-0.243368
H268	H	1.161523	-0.301333	0.256632
H269	H	0.816268	-0.953211	-0.482330
H270	H	1.316268	-0.453211	0.017670
N271	N	0.686165	-0.946209	-0.281370
N272	N	1.186165	-0.446209	0.218630
H273	H	0.665007	-0.971829	-0.248677
H274	H	1.165007	-0.471829	0.251323
H275	H	0.707454	-0.923558	-0.244084
H276	H	1.207454	-0.423558	0.255916
H277	H	-0.044914	-0.191222	-0.295278
H278	H	0.455086	0.308778	0.204722
N279	N	0.652660	-0.695075	-0.229707
N280	N	1.152660	-0.195075	0.270293
H281	H	0.615302	-0.704600	-0.242173
H282	H	1.115302	-0.204600	0.257827
H283	H	0.660848	-0.704616	-0.172135
H284	H	1.160848	-0.204616	0.327865
N285	N	0.061353	-0.182352	-0.281663
N286	N	0.561353	0.317648	0.218337
H287	H	0.035761	-0.161149	-0.249069
H288	H	0.535761	0.338851	0.250931
H289	H	0.083985	-0.203599	-0.244278
H290	H	0.583985	0.296401	0.255722
