data_functionalizedCrystal
_audit_creation_method	'MofGen! by Chris Wilmer'
_symmetry_space_group_name_H-M	'P1'
_symmetry_Int_Tables_number	1
_symmetry_cell_setting	triclinic
loop_
_symmetry_equiv_pos_as_xyz
  x,y,z
_cell_length_a	8.634740
_cell_length_b	8.559648
_cell_length_c	7.681481
_cell_angle_alpha	85.078974
_cell_angle_beta	83.381330
_cell_angle_gamma	94.825515
loop_
_atom_site_label
_atom_site_type_symbol
_atom_site_fract_x
_atom_site_fract_y
_atom_site_fract_z
O1	O	1.969405	-0.524273	0.146315
O2	O	1.525533	-0.481372	0.146326
O3	O	1.786570	-0.276244	0.146363
O4	O	1.708368	-0.729400	0.146278
O5	O	1.818707	-0.250929	-0.146490
O6	O	1.557670	-0.456057	-0.146527
O7	O	2.001542	-0.498958	-0.146538
Zn8	Zn	1.784709	-0.473488	-0.193029
Zn9	Zn	1.742366	-0.506841	0.192817
O10	O	1.740505	-0.704085	-0.146575
C11	C	1.485302	-0.458995	-0.000098
C12	C	1.317549	-0.430018	-0.000091
C13	C	1.808564	-0.204971	-0.000049
C14	C	1.826201	-0.030311	-0.000005
C15	C	2.041773	-0.521335	-0.000110
C16	C	2.209524	-0.550313	-0.000106
N17	N	1.813617	-0.450726	-0.456360
C18	C	1.718505	0.224637	-0.000110
C19	C	1.700850	0.049963	0.000004
N20	N	1.713471	-0.529593	0.456148
H21	H	1.281687	-0.304855	-0.000017
H22	H	1.580037	-0.014933	-0.000013
O23	O	1.591638	-0.625856	-0.454252
C24	C	1.464696	-0.889985	-0.397650
C25	C	1.602769	-0.781150	-0.499213
H26	H	1.473631	-1.015557	-0.433991
H27	H	1.468434	-0.887151	-0.250074
H28	H	1.349730	-0.847784	-0.433788
H29	H	1.717804	-0.823274	-0.463222
H30	H	1.598893	-0.783994	-0.646763
H31	H	1.915861	-0.370236	-0.531551
O32	O	1.970413	0.047061	-0.000308
C33	C	2.231755	0.106269	-0.151961
C34	C	2.068502	0.018597	-0.151860
H35	H	2.311115	0.083261	-0.274460
H36	H	2.220891	0.238094	-0.152061
H37	H	2.284149	0.062268	-0.029348
H38	H	2.016015	0.062467	-0.274453
H39	H	2.079466	-0.113215	-0.151669
H40	H	1.245376	-0.675470	-0.000145
