data_functionalizedCrystal
_audit_creation_method	'MofGen! by Chris Wilmer'
_symmetry_space_group_name_H-M	'P1'
_symmetry_Int_Tables_number	1
_symmetry_cell_setting	triclinic
loop_
_symmetry_equiv_pos_as_xyz
  x,y,z
_cell_length_a	12.759401
_cell_length_b	17.640280
_cell_length_c	12.759393
_cell_angle_alpha	101.231878
_cell_angle_beta	90.019437
_cell_angle_gamma	78.800756
loop_
_atom_site_label
_atom_site_type_symbol
_atom_site_fract_x
_atom_site_fract_y
_atom_site_fract_z
Zn1	Zn	1.690816	-0.314624	0.509542
Zn2	Zn	1.726241	-0.446821	0.298372
Zn3	Zn	1.515129	-0.314665	0.333867
Zn4	Zn	1.550620	-0.446759	0.474027
O5	O	1.620701	-0.380717	0.403952
O6	O	1.842538	-0.332168	0.481538
O7	O	1.698208	-0.429333	0.156048
O8	O	1.508756	-0.204052	0.386889
O9	O	1.868565	-0.429293	0.326392
O10	O	1.637832	-0.204022	0.515957
O11	O	1.543105	-0.332238	0.182126
O12	O	1.372814	-0.332179	0.352452
O13	O	1.569246	-0.429188	0.625770
O14	O	1.398889	-0.429228	0.455426
O15	O	1.672247	-0.332109	0.651863
O16	O	1.732623	-0.557419	0.291954
O17	O	1.603595	-0.557374	0.421007
C18	C	1.347730	-0.380702	0.403937
C19	C	1.230957	-0.380715	0.403951
C20	C	1.675833	-0.586076	0.348798
C21	C	1.699515	-0.673930	0.325238
C22	C	1.079999	-0.431338	0.457458
C23	C	1.189720	-0.431328	0.457443
C24	C	1.162467	-0.330114	0.350460
C25	C	1.052749	-0.330129	0.350468
C26	C	1.038768	-0.481948	0.510963
C27	C	1.107250	-0.532550	0.564453
C28	C	1.216971	-0.532540	0.564439
C29	C	1.258210	-0.481928	0.510935
C30	C	1.441226	-0.962889	0.583316
C31	C	1.463481	-1.045441	0.561145
C32	C	1.597920	-1.045422	0.426898
C33	C	1.575681	-0.962869	0.449062
C34	C	1.497332	-0.921609	0.527271
C35	C	1.631786	-0.921588	0.393017
C36	C	1.609544	-0.839042	0.415175
C37	C	1.531197	-0.797776	0.493379
C38	C	1.475090	-0.839062	0.549430
C39	C	1.710130	-0.962850	0.314802
C40	C	1.766235	-0.921570	0.258757
C41	C	1.743999	-0.839022	0.280921
C42	C	1.665651	-0.797756	0.359124
C43	C	1.800106	-0.797736	0.224870
C44	C	1.777864	-0.715190	0.247028
C45	C	1.643409	-0.715210	0.381283
C46	C	1.894739	-0.380733	0.403967
C47	C	2.011517	-0.380739	0.403973
C48	C	1.620754	-0.380637	0.678007
C49	C	1.620776	-0.380603	0.794793
C50	C	1.565383	-0.174556	0.459344
C51	C	1.541810	-0.086703	0.482949
C52	C	1.620695	-0.380739	0.130978
C53	C	1.620816	-0.380551	0.014253
C54	C	1.674416	-0.330049	0.863244
C55	C	1.674434	-0.330021	0.972976
C56	C	1.567169	-0.431107	0.945793
C57	C	1.567146	-0.431131	0.836064
C58	C	1.728047	-0.279521	0.821972
C59	C	1.781693	-0.228964	0.890425
C60	C	1.781710	-0.228935	1.000157
C61	C	1.728081	-0.279464	1.041436
H62	H	0.949428	-0.481961	0.510984
H63	H	1.523447	-0.472285	0.780332
H64	H	1.825382	-0.187763	1.055890
Cl65	Cl	1.849088	-0.165433	0.838536
Cl66	Cl	1.214311	-0.266489	0.283208
Cl67	Cl	1.499760	-0.494628	0.997688
Cl68	Cl	1.303063	-0.596159	0.631670
Cl69	Cl	1.392926	-1.097334	0.631599
H70	H	1.661709	-1.079027	0.363216
Cl71	Cl	1.055411	-0.596183	0.631695
Cl72	Cl	1.544921	-0.663334	0.479615
Cl73	Cl	1.898590	-0.849615	0.126547
H74	H	1.513081	-0.730562	0.511412
H75	H	1.347555	-0.481928	0.510920
Cl76	Cl	0.966654	-0.266523	0.283221
Cl77	Cl	1.738129	-1.066624	0.286984
H78	H	1.411298	-0.805467	0.613124
Cl79	Cl	1.728088	-0.279415	1.179389
H80	H	1.377434	-0.929294	0.647010
Cl81	Cl	1.864730	-0.973447	0.160443
Cl82	Cl	1.848387	-0.663290	0.176561
Cl83	Cl	1.728033	-0.279556	0.684024
