data_functionalizedCrystal
_audit_creation_method	'MofGen! by Chris Wilmer'
_symmetry_space_group_name_H-M	'P1'
_symmetry_Int_Tables_number	1
_symmetry_cell_setting	triclinic
loop_
_symmetry_equiv_pos_as_xyz
  x,y,z
_cell_length_a	17.077404
_cell_length_b	19.121063
_cell_length_c	17.077396
_cell_angle_alpha	92.407870
_cell_angle_beta	89.982756
_cell_angle_gamma	92.469213
loop_
_atom_site_label
_atom_site_type_symbol
_atom_site_fract_x
_atom_site_fract_y
_atom_site_fract_z
Zn1	Zn	1.186680	-0.279604	-0.457151
Zn2	Zn	1.686680	0.220396	0.042849
Zn3	Zn	1.180980	-0.397062	-0.331476
Zn4	Zn	1.680980	0.102938	0.168524
Zn5	Zn	1.055415	-0.279630	-0.325901
Zn6	Zn	1.555415	0.220370	0.174099
Zn7	Zn	1.049770	-0.397019	-0.462698
Zn8	Zn	1.549770	0.102981	0.037302
O9	O	1.118211	-0.338329	-0.394306
O10	O	1.618211	0.161671	0.105694
O11	O	1.295770	-0.295192	-0.440492
O12	O	1.795770	0.204808	0.059508
O13	O	1.164301	-0.381514	-0.220891
O14	O	1.664301	0.118486	0.279109
O15	O	1.077575	-0.181342	-0.338657
O16	O	1.577575	0.318658	0.161343
O17	O	1.291583	-0.381488	-0.348159
O18	O	1.791583	0.118512	0.151841
O19	O	1.174015	-0.181323	-0.435086
O20	O	1.674015	0.318677	0.064914
O21	O	1.072049	-0.295237	-0.216795
O22	O	1.572049	0.204763	0.283205
O23	O	0.944820	-0.295195	-0.344035
O24	O	1.444820	0.204805	0.155965
O25	O	1.067954	-0.381414	-0.571807
O26	O	1.567954	0.118586	-0.071807
O27	O	0.940672	-0.381440	-0.444539
O28	O	1.440672	0.118560	0.055461
O29	O	1.168541	-0.295150	-0.567733
O30	O	1.668541	0.204850	-0.067733
O31	O	1.158828	-0.495341	-0.353537
O32	O	1.658828	0.004659	0.146463
O33	O	1.062428	-0.495309	-0.449945
O34	O	1.562428	0.004691	0.050055
C35	C	0.914264	-0.338316	-0.394284
C36	C	1.414264	0.161684	0.105716
C37	C	0.827014	-0.338328	-0.394294
C38	C	1.327014	0.161672	0.105706
C39	C	1.109418	-0.520809	-0.402965
C40	C	1.609418	-0.020809	0.097035
C41	C	1.105728	-0.598875	-0.406696
C42	C	1.605728	-0.098875	0.093304
C43	C	0.783881	-0.383303	-0.446549
C44	C	1.283881	0.116697	0.053451
C45	C	0.701901	-0.383305	-0.446562
C46	C	1.201901	0.116695	0.053438
C47	C	0.663054	-0.338334	-0.394315
C48	C	1.163054	0.161666	0.105685
C49	C	0.706193	-0.293353	-0.342057
C50	C	1.206193	0.206647	0.157943
C51	C	0.788172	-0.293349	-0.342049
C52	C	1.288172	0.206651	0.157951
C53	C	0.535322	-0.293367	-0.342077
C54	C	1.035322	0.206633	0.157923
C55	C	0.453337	-0.293372	-0.342084
C56	C	0.953337	0.206628	0.157916
C57	C	0.449051	-0.383323	-0.446590
C58	C	0.949051	0.116677	0.053410
C59	C	0.531030	-0.383319	-0.446581
C60	C	1.031030	0.116681	0.053419
C61	C	0.574163	-0.338339	-0.394323
C62	C	1.074163	0.161661	0.105677
C63	C	1.154223	-0.635544	-0.358296
C64	C	1.654223	-0.135544	0.141704
C65	C	1.150758	-0.708895	-0.361809
C66	C	1.650758	-0.208895	0.138191
C67	C	1.098792	-0.745576	-0.413719
C68	C	1.598792	-0.245576	0.086281
C69	C	1.050294	-0.708902	-0.462125
C70	C	1.550294	-0.208902	0.037875
C71	C	1.053764	-0.635553	-0.458615
C72	C	1.553764	-0.135553	0.041385
C73	C	1.085804	-0.967046	-0.426829
C74	C	1.585804	-0.467046	0.073171
C75	C	1.082336	-1.040401	-0.430334
C76	C	1.582336	-0.540401	0.069666
C77	C	1.182801	-1.040389	-0.330019
C78	C	1.682801	-0.540389	0.169981
C79	C	1.186263	-0.967038	-0.326510
C80	C	1.686263	-0.467038	0.173490
C81	C	1.137769	-0.930370	-0.374919
C82	C	1.637769	-0.430370	0.125081
C83	C	1.095246	-0.820553	-0.417310
C84	C	1.595246	-0.320553	0.082690
C85	C	1.141319	-0.855395	-0.371332
C86	C	1.641319	-0.355395	0.128668
C87	C	1.322955	-0.338342	-0.394329
C88	C	1.822955	0.161658	0.105671
C89	C	1.410205	-0.338348	-0.394339
C90	C	1.910205	0.161652	0.105661
C91	C	1.118253	-0.338274	-0.599048
C92	C	1.618253	0.161726	-0.099048
C93	C	1.118271	-0.338251	-0.686297
C94	C	1.618271	0.161749	-0.186297
C95	C	1.127061	-0.155136	-0.385631
C96	C	1.627061	0.344864	0.114369
C97	C	1.130832	-0.077070	-0.381934
C98	C	1.630832	0.422930	0.118066
C99	C	1.070251	-0.293321	-0.725153
C100	C	1.570251	0.206679	-0.225153
C101	C	1.070265	-0.293305	-0.807133
C102	C	1.570265	0.206695	-0.307133
C103	C	1.118303	-0.338216	-0.850255
C104	C	1.618303	0.161784	-0.350255
C105	C	1.166325	-0.383151	-0.811393
C106	C	1.666325	0.116849	-0.311393
C107	C	1.166307	-0.383170	-0.729415
C108	C	1.666307	0.116830	-0.229415
C109	C	1.166361	-0.383107	-0.982261
C110	C	1.666361	0.116893	-0.482261
C111	C	1.166381	-0.383087	-1.064245
C112	C	1.666381	0.116913	-0.564245
C113	C	1.070319	-0.293243	-1.059979
C114	C	1.570319	0.206757	-0.559979
C115	C	1.070301	-0.293262	-0.978001
C116	C	1.570301	0.206738	-0.478001
C117	C	1.118324	-0.338196	-0.939145
C118	C	1.618324	0.161804	-0.439145
C119	C	1.118217	-0.338332	-0.190359
C120	C	1.618217	0.161668	0.309641
C121	C	1.118361	-0.338158	-0.103101
C122	C	1.618361	0.161842	0.396899
H123	H	0.815504	-0.419926	-0.489093
H124	H	1.315504	0.080074	0.010907
H125	H	1.031137	-0.256746	-0.690049
H126	H	1.531137	0.243254	-0.190049
Br127	Br	0.846710	-0.232304	-0.271132
Br128	Br	1.346710	0.267696	0.228868
Br129	Br	1.231584	-0.444032	-1.122767
Br130	Br	1.731584	0.055968	-0.622767
Br131	Br	1.231531	-0.444094	-0.929528
Br132	Br	1.731531	0.055906	-0.429528
Br133	Br	1.231474	-0.444154	-0.676680
Br134	Br	1.731474	0.055846	-0.176680
H135	H	0.674557	-0.256734	-0.299520
H136	H	1.174557	0.243266	0.200480
Br137	Br	1.005047	-0.232365	-0.859866
Br138	Br	1.505047	0.267635	-0.359866
H139	H	1.196536	-0.605683	-0.316022
H140	H	1.696536	-0.105683	0.183978
H141	H	1.222284	-1.070251	-0.290609
H142	H	1.722284	-0.570251	0.209391
H143	H	1.031187	-0.256688	-0.942893
H144	H	1.531187	0.243312	-0.442893
Br145	Br	1.005148	-0.232257	-1.112711
Br146	Br	1.505148	0.267743	-0.612711
H147	H	0.570439	-0.256733	-0.299529
H148	H	1.070439	0.243267	0.200471
H149	H	0.413928	-0.419945	-0.489143
H150	H	0.913928	0.080055	0.010857
Br151	Br	1.024724	-0.870340	-0.487759
Br152	Br	1.524724	-0.370340	0.012241
Br153	Br	1.231514	-0.444109	-0.869915
Br154	Br	1.731514	0.055891	-0.369915
H155	H	1.190247	-0.738748	-0.322396
H156	H	1.690247	-0.238748	0.177604
Br157	Br	1.011793	-1.090183	-0.500775
Br158	Br	1.511793	-0.590183	-0.000775
Br159	Br	0.643366	-0.444344	-0.517485
Br160	Br	1.143366	0.055656	-0.017485
H161	H	1.046317	-0.937197	-0.466244
H162	H	1.546317	-0.437197	0.033756
Br163	Br	0.583750	-0.444358	-0.517482
Br164	Br	1.083750	0.055642	-0.017482
H165	H	0.421711	-0.256744	-0.299549
H166	H	0.921711	0.243256	0.200451
Br167	Br	0.987951	-0.585787	-0.524308
Br168	Br	1.487951	-0.085787	-0.024308
Br169	Br	1.256801	-0.917261	-0.256069
Br170	Br	1.756801	-0.417261	0.243931
Br171	Br	0.979775	-0.758683	-0.532582
Br172	Br	1.479775	-0.258683	-0.032582
H173	H	1.183633	-0.825527	-0.329069
H174	H	1.683633	-0.325527	0.170931
