data_functionalizedCrystal
_audit_creation_method	'MofGen! by Chris Wilmer'
_symmetry_space_group_name_H-M	'P1'
_symmetry_Int_Tables_number	1
_symmetry_cell_setting	triclinic
loop_
_symmetry_equiv_pos_as_xyz
  x,y,z
_cell_length_a	19.077105
_cell_length_b	25.639239
_cell_length_c	25.639234
_cell_angle_alpha	89.975095
_cell_angle_beta	87.682510
_cell_angle_gamma	87.734929
loop_
_atom_site_label
_atom_site_type_symbol
_atom_site_fract_x
_atom_site_fract_y
_atom_site_fract_z
Zn1	Zn	1.075912	-0.240348	-0.327690
Zn2	Zn	1.409246	0.092985	0.005643
Zn3	Zn	1.742579	0.426319	0.338976
Zn4	Zn	1.075795	-0.327773	-0.240251
Zn5	Zn	1.409128	0.005561	0.093082
Zn6	Zn	1.742461	0.338894	0.426416
Zn7	Zn	0.958214	-0.236838	-0.236759
Zn8	Zn	1.291547	0.096496	0.096574
Zn9	Zn	1.624880	0.429829	0.429907
Zn10	Zn	0.958155	-0.324234	-0.324148
Zn11	Zn	1.291488	0.009100	0.009186
Zn12	Zn	1.624821	0.342433	0.342519
O13	O	1.017019	-0.282298	-0.282212
O14	O	1.350352	0.051035	0.051121
O15	O	1.683685	0.384369	0.384455
O16	O	1.174387	-0.254895	-0.319035
O17	O	1.507720	0.078438	0.014298
O18	O	1.841053	0.411772	0.347632
O19	O	1.060173	-0.315722	-0.166622
O20	O	1.393506	0.017611	0.166711
O21	O	1.726839	0.350945	0.500045
O22	O	0.973901	-0.164140	-0.248843
O23	O	1.307234	0.169193	0.084491
O24	O	1.640567	0.502526	0.417824
O25	O	1.174300	-0.319126	-0.254794
O26	O	1.507634	0.014208	0.078540
O27	O	1.840967	0.347541	0.411873
O28	O	1.060373	-0.166719	-0.315649
O29	O	1.393707	0.166614	0.017684
O30	O	1.727040	0.499947	0.351017
O31	O	0.973787	-0.248913	-0.164057
O32	O	1.307120	0.084421	0.169277
O33	O	1.640453	0.417754	0.502610
O34	O	0.859716	-0.245481	-0.245408
O35	O	1.193049	0.087852	0.087926
O36	O	1.526383	0.421186	0.421259
O37	O	0.973800	-0.313094	-0.397784
O38	O	1.307133	0.020239	-0.064450
O39	O	1.640467	0.353573	0.268883
O40	O	0.859672	-0.309690	-0.309612
O41	O	1.193006	0.023643	0.023722
O42	O	1.526339	0.356976	0.357055
O43	O	1.060316	-0.251463	-0.400386
O44	O	1.393649	0.081870	-0.067053
O45	O	1.726983	0.415203	0.266280
O46	O	1.060115	-0.400466	-0.251359
O47	O	1.393449	-0.067133	0.081974
O48	O	1.726782	0.266201	0.415308
O49	O	0.973686	-0.397866	-0.312997
O50	O	1.307019	-0.064533	0.020336
O51	O	1.640352	0.268801	0.353669
C52	C	0.834157	-0.276821	-0.276747
C53	C	1.167490	0.056512	0.056587
C54	C	1.500824	0.389846	0.389920
C55	C	0.755928	-0.274491	-0.274421
C56	C	1.089261	0.058843	0.058912
C57	C	1.422594	0.392176	0.392246
C58	C	0.719171	-0.306877	-0.306703
C59	C	1.052505	0.026457	0.026630
C60	C	1.385838	0.359790	0.359963
C61	C	0.645667	-0.304680	-0.304521
C62	C	0.979000	0.028653	0.028813
C63	C	1.312333	0.361987	0.362146
C64	C	0.608920	-0.270100	-0.270053
C65	C	0.942253	0.063233	0.063281
C66	C	1.275586	0.396567	0.396614
C67	C	0.645681	-0.237710	-0.237769
C68	C	0.979015	0.095623	0.095564
C69	C	1.312348	0.428956	0.428898
C70	C	0.719185	-0.239905	-0.239955
C71	C	1.052518	0.093429	0.093379
C72	C	1.385851	0.426762	0.426712
C73	C	0.389089	-0.259945	-0.259939
C74	C	0.722422	0.073389	0.073394
C75	C	1.055756	0.406722	0.406727
C76	C	0.315581	-0.257754	-0.257755
C77	C	0.648914	0.075580	0.075578
C78	C	0.982247	0.408913	0.408912
C79	C	0.315571	-0.324723	-0.324508
C80	C	0.648904	0.008610	0.008826
C81	C	0.982237	0.341944	0.342159
C82	C	0.389075	-0.326917	-0.326688
C83	C	0.722409	0.006417	0.006645
C84	C	1.055742	0.339750	0.339979
C85	C	0.425831	-0.294525	-0.294406
C86	C	0.759164	0.038808	0.038927
C87	C	1.092497	0.372142	0.372260
N88	N	0.533786	-0.267855	-0.267820
N89	N	0.867120	0.065478	0.065514
N90	N	1.200453	0.398812	0.398847
N91	N	0.500963	-0.296768	-0.296642
N92	N	0.834296	0.036566	0.036691
N93	N	1.167630	0.369899	0.370024
C94	C	1.016900	-0.418137	-0.282185
C95	C	1.350234	-0.084804	0.051149
C96	C	1.683567	0.248530	0.384482
C97	C	1.016914	-0.476251	-0.282192
C98	C	1.350248	-0.142918	0.051141
C99	C	1.683581	0.190415	0.384474
C100	C	1.062140	-0.837962	-0.250177
C101	C	1.395473	-0.504629	0.083156
C102	C	1.728807	-0.171296	0.416489
C103	C	1.062167	-0.892567	-0.250185
C104	C	1.395501	-0.559234	0.083148
C105	C	1.728834	-0.225901	0.416481
O106	O	1.100497	-0.921947	-0.222935
O107	O	1.433831	-0.588613	0.110398
O108	O	1.767164	-0.255280	0.443732
N109	N	1.017143	-0.918541	-0.282250
N110	N	1.350476	-0.585207	0.051083
N111	N	1.683809	-0.251874	0.384416
C112	C	0.972092	-0.889906	-0.314314
C113	C	1.305426	-0.556573	0.019019
C114	C	1.638759	-0.223239	0.352353
O115	O	0.933798	-0.917012	-0.341589
O116	O	1.267132	-0.583679	-0.008256
O117	O	1.600465	-0.250346	0.325078
C118	C	0.972069	-0.835302	-0.314308
C119	C	1.305403	-0.501969	0.019025
C120	C	1.638736	-0.168635	0.352358
C121	C	1.017092	-0.809332	-0.282237
C122	C	1.350425	-0.475998	0.051096
C123	C	1.683759	-0.142665	0.384429
C124	C	1.107160	-0.811992	-0.218109
C125	C	1.440493	-0.478658	0.115224
C126	C	1.773826	-0.145325	0.448557
C127	C	1.107131	-0.757390	-0.218101
C128	C	1.440465	-0.424057	0.115233
C129	C	1.773798	-0.090724	0.448566
C130	C	1.062083	-0.728760	-0.250161
C131	C	1.395417	-0.395426	0.083173
C132	C	1.728750	-0.062093	0.416506
C133	C	1.017064	-0.754730	-0.282229
C134	C	1.350397	-0.421397	0.051105
C135	C	1.683730	-0.088064	0.384438
C136	C	0.927023	-0.806668	-0.346374
C137	C	1.260357	-0.473335	-0.013041
C138	C	1.593690	-0.140002	0.320292
C139	C	0.927004	-0.752061	-0.346366
C140	C	1.260338	-0.418728	-0.013033
C141	C	1.593671	-0.085394	0.320300
C142	C	0.972027	-0.726090	-0.314295
C143	C	1.305360	-0.392757	0.019038
C144	C	1.638694	-0.059424	0.352372
C145	C	0.971987	-0.671498	-0.314280
C146	C	1.305321	-0.338165	0.019053
C147	C	1.638654	-0.004831	0.352386
N148	N	1.017012	-0.645525	-0.282215
N149	N	1.350345	-0.312191	0.051118
N150	N	1.683679	0.021142	0.384452
C151	C	1.062060	-0.674156	-0.250155
C152	C	1.395394	-0.340822	0.083178
C153	C	1.728727	-0.007489	0.416512
C154	C	0.972146	-1.004578	-0.314324
C155	C	1.305479	-0.671245	0.019010
C156	C	1.638812	-0.337912	0.352343
C157	C	0.972165	-1.059181	-0.314327
C158	C	1.305498	-0.725848	0.019007
C159	C	1.638831	-0.392514	0.352340
C160	C	1.062241	-1.061839	-0.250198
C161	C	1.395574	-0.728506	0.083135
C162	C	1.728907	-0.395172	0.416468
C163	C	1.062218	-1.007235	-0.250193
C164	C	1.395551	-0.673901	0.083140
C165	C	1.728884	-0.340568	0.416474
C166	C	1.017170	-0.978605	-0.282258
C167	C	1.350504	-0.645272	0.051075
C168	C	1.683837	-0.311938	0.384408
C169	C	1.061997	-0.559489	-0.250140
C170	C	1.395330	-0.226155	0.083194
C171	C	1.728663	0.107178	0.416527
C172	C	1.061962	-0.504882	-0.250132
C173	C	1.395296	-0.171549	0.083201
C174	C	1.728629	0.161784	0.416534
C175	C	0.971889	-0.502229	-0.314262
C176	C	1.305223	-0.168896	0.019071
C177	C	1.638556	0.164437	0.352404
C178	C	0.971921	-0.556831	-0.314268
C179	C	1.305254	-0.223498	0.019066
C180	C	1.638587	0.109836	0.352399
C181	C	1.016980	-0.585459	-0.282205
C182	C	1.350314	-0.252126	0.051129
C183	C	1.683647	0.081207	0.384462
O184	O	0.933679	-0.642085	-0.341518
O185	O	1.267012	-0.308752	-0.008185
O186	O	1.600346	0.024582	0.325149
O187	O	1.100354	-0.647043	-0.222890
O188	O	1.433688	-0.313709	0.110444
O189	O	1.767021	0.019624	0.443777
C190	C	1.200595	-0.287797	-0.287699
C191	C	1.533928	0.045537	0.045634
C192	C	1.867262	0.378870	0.378968
C193	C	1.278824	-0.290140	-0.290037
C194	C	1.612157	0.043194	0.043296
C195	C	1.945491	0.376527	0.376629
C196	C	1.017065	-0.282276	-0.418587
C197	C	1.350398	0.051058	-0.085253
C198	C	1.683731	0.384391	0.248080
C199	C	1.017084	-0.282266	-0.476701
C200	C	1.350417	0.051067	-0.143368
C201	C	1.683751	0.384401	0.189966
C202	C	1.017157	-0.145929	-0.282252
C203	C	1.350490	0.187404	0.051082
C204	C	1.683824	0.520738	0.384415
C205	C	1.017216	-0.087817	-0.282269
C206	C	1.350549	0.245517	0.051065
C207	C	1.683882	0.578850	0.384398
C208	C	0.972123	-0.247417	-0.835735
C209	C	1.305456	0.085917	-0.502401
C210	C	1.638789	0.419250	-0.169068
C211	C	0.972126	-0.247407	-0.890339
C212	C	1.305460	0.085926	-0.557006
C213	C	1.638793	0.419259	-0.223672
O214	O	0.933863	-0.217834	-0.917444
O215	O	1.267196	0.115500	-0.584111
O216	O	1.600530	0.448833	-0.250778
N217	N	1.017107	-0.282185	-0.918985
N218	N	1.350441	0.051149	-0.585651
N219	N	1.683774	0.384482	-0.252318
C220	C	1.062083	-0.316977	-0.893023
C221	C	1.395416	0.016356	-0.559689
C222	C	1.728749	0.349689	-0.226356
O223	O	1.100342	-0.346558	-0.922402
O224	O	1.433676	-0.013224	-0.589068
O225	O	1.767009	0.320109	-0.255735
C226	C	1.062075	-0.316989	-0.838419
C227	C	1.395408	0.016345	-0.505086
C228	C	1.728741	0.349678	-0.171752
C229	C	1.017096	-0.282205	-0.809777
C230	C	1.350429	0.051128	-0.476443
C231	C	1.683762	0.384461	-0.143110
C232	C	0.927147	-0.212637	-0.807092
C233	C	1.260480	0.120697	-0.473759
C234	C	1.593813	0.454030	-0.140426
C235	C	0.927144	-0.212645	-0.752492
C236	C	1.260477	0.120688	-0.419158
C237	C	1.593811	0.454021	-0.085825
C238	C	0.972117	-0.247434	-0.726533
C239	C	1.305451	0.085899	-0.393200
C240	C	1.638784	0.419232	-0.059867
C241	C	1.017093	-0.282214	-0.755176
C242	C	1.350426	0.051119	-0.421843
C243	C	1.683760	0.384452	-0.088509
C244	C	1.107046	-0.351783	-0.812458
C245	C	1.440379	-0.018450	-0.479125
C246	C	1.773713	0.314883	-0.145791
C247	C	1.107034	-0.351792	-0.757850
C248	C	1.440367	-0.018459	-0.424517
C249	C	1.773700	0.314874	-0.091184
C250	C	1.062055	-0.317009	-0.729208
C251	C	1.395388	0.016324	-0.395875
C252	C	1.728721	0.349658	-0.062541
C253	C	1.062064	-0.317012	-0.674617
C254	C	1.395397	0.016321	-0.341284
C255	C	1.728730	0.349655	-0.007950
N256	N	1.017083	-0.282235	-0.645972
N257	N	1.350416	0.051099	-0.312638
N258	N	1.683749	0.384432	0.020695
C259	C	0.972109	-0.247446	-0.671930
C260	C	1.305443	0.085888	-0.338596
C261	C	1.638776	0.419221	-0.005263
C262	C	1.062095	-0.316951	-1.007694
C263	C	1.395428	0.016382	-0.674360
C264	C	1.728762	0.349716	-0.341027
C265	C	1.062107	-0.316937	-1.062296
C266	C	1.395440	0.016396	-0.728963
C267	C	1.728774	0.349729	-0.395630
C268	C	0.972149	-0.247368	-1.059609
C269	C	1.305483	0.085965	-0.726276
C270	C	1.638816	0.419299	-0.392942
C271	C	0.972142	-0.247379	-1.005006
C272	C	1.305475	0.085954	-0.671672
C273	C	1.638808	0.419287	-0.338339
C274	C	1.017114	-0.282174	-0.979048
C275	C	1.350447	0.051160	-0.645715
C276	C	1.683780	0.384493	-0.312382
C277	C	0.972108	-0.247467	-0.557265
C278	C	1.305441	0.085867	-0.223931
C279	C	1.638774	0.419200	0.109402
C280	C	0.972111	-0.247477	-0.502659
C281	C	1.305444	0.085856	-0.169326
C282	C	1.638778	0.419190	0.164007
C283	C	1.062065	-0.317048	-0.505351
C284	C	1.395399	0.016285	-0.172018
C285	C	1.728732	0.349619	0.161315
C286	C	1.062065	-0.317036	-0.559952
C287	C	1.395398	0.016297	-0.226619
C288	C	1.728732	0.349631	0.106715
C289	C	1.017080	-0.282243	-0.585907
C290	C	1.350414	0.051090	-0.252574
C291	C	1.683747	0.384423	0.080760
O292	O	1.100305	-0.346572	-0.647477
O293	O	1.433639	-0.013239	-0.314143
O294	O	1.766972	0.320095	0.019190
O295	O	0.933849	-0.217875	-0.642544
O296	O	1.267183	0.115458	-0.309211
O297	O	1.600516	0.448792	0.024123
C298	C	1.017014	-0.282284	-0.146369
C299	C	1.350347	0.051049	0.186964
C300	C	1.683680	0.384383	0.520297
C301	C	1.017131	-0.282150	-0.088259
C302	C	1.350464	0.051183	0.245074
C303	C	1.683797	0.384516	0.578407
H304	H	0.749111	-0.213530	-0.213670
H305	H	1.082444	0.119804	0.119664
H306	H	1.415778	0.453137	0.452997
Cl307	Cl	1.163800	-0.847975	-0.177800
Cl308	Cl	1.497133	-0.514642	0.155533
Cl309	Cl	1.830466	-0.181309	0.488867
Cl310	Cl	0.269360	-0.365442	-0.365087
Cl311	Cl	0.602694	-0.032108	-0.031754
Cl312	Cl	0.936027	0.301225	0.301580
H313	H	1.098725	-0.345282	-0.986563
H314	H	1.432059	-0.011949	-0.653230
H315	H	1.765392	0.321385	-0.319896
H316	H	1.143795	-0.736249	-0.191987
H317	H	1.477128	-0.402915	0.141346
H318	H	1.810462	-0.069582	0.474679
Cl319	Cl	1.118567	-0.472237	-0.209811
Cl320	Cl	1.451900	-0.138904	0.123522
Cl321	Cl	1.785234	0.194429	0.456855
Cl322	Cl	0.269385	-0.214282	-0.214416
Cl323	Cl	0.602719	0.119051	0.118917
Cl324	Cl	0.936052	0.452385	0.452250
H325	H	0.419006	-0.233573	-0.233649
H326	H	0.752340	0.099760	0.099684
H327	H	1.085673	0.433094	0.433017
H328	H	0.615756	-0.209552	-0.209707
H329	H	0.949090	0.123781	0.123627
H330	H	1.282423	0.457114	0.456960
Cl331	Cl	1.118642	-0.595470	-0.209830
Cl332	Cl	1.451976	-0.262137	0.123503
Cl333	Cl	1.785309	0.071196	0.456836
H334	H	0.890521	-0.184307	-0.828221
H335	H	1.223854	0.149027	-0.494888
H336	H	1.557187	0.482360	-0.161555
H337	H	1.098924	-1.085160	-0.224095
H338	H	1.432257	-0.751827	0.109238
H339	H	1.765590	-0.418493	0.442571
H340	H	1.098741	-0.345256	-1.085613
H341	H	1.432074	-0.011923	-0.752279
H342	H	1.765408	0.321411	-0.418946
H343	H	0.935457	-0.981270	-0.340433
H344	H	1.268790	-0.647937	-0.007100
H345	H	1.602124	-0.314603	0.326234
H346	H	1.098879	-0.986093	-0.224078
H347	H	1.432213	-0.652760	0.109255
H348	H	1.765546	-0.319426	0.442588
H349	H	0.890357	-0.827804	-0.372488
H350	H	1.223691	-0.494471	-0.039154
H351	H	1.557024	-0.161137	0.294179
Cl352	Cl	0.915554	-1.091823	-0.354640
Cl353	Cl	1.248887	-0.758489	-0.021307
Cl354	Cl	1.582220	-0.425156	0.312027
H355	H	0.935516	-0.219056	-0.981688
H356	H	1.268849	0.114278	-0.648355
H357	H	1.602183	0.447611	-0.315022
Cl358	Cl	0.870371	-0.716072	-0.386680
Cl359	Cl	1.203704	-0.382739	-0.053347
Cl360	Cl	1.537038	-0.049406	0.279986
Cl361	Cl	0.915306	-0.589480	-0.354575
Cl362	Cl	1.248639	-0.256147	-0.021242
Cl363	Cl	1.581972	0.077187	0.312092
H364	H	0.935209	-0.478910	-0.340364
H365	H	1.268543	-0.145576	-0.007030
H366	H	1.601876	0.187757	0.326303
Cl367	Cl	0.870591	-0.168919	-0.716492
Cl368	Cl	1.203924	0.164415	-0.383158
Cl369	Cl	1.537258	0.497748	-0.049825
H370	H	1.143672	-0.380108	-0.835769
H371	H	1.477005	-0.046775	-0.502436
H372	H	1.810339	0.286558	-0.169103
H373	H	0.935484	-0.219150	-0.479341
H374	H	1.268817	0.114183	-0.146008
H375	H	1.602150	0.447517	0.187326
Cl376	Cl	1.163572	-0.395538	-0.725222
Cl377	Cl	1.496906	-0.062204	-0.391889
Cl378	Cl	1.830239	0.271129	-0.058555
Cl379	Cl	0.765360	-0.350354	-0.350035
Cl380	Cl	1.098693	-0.017021	-0.016701
Cl381	Cl	1.432027	0.316313	0.316632
H382	H	0.935477	-0.219135	-0.578391
H383	H	1.268811	0.114199	-0.245057
H384	H	1.602144	0.447532	0.088276
H385	H	0.615743	-0.331053	-0.330808
H386	H	0.949076	0.002281	0.002525
H387	H	1.282409	0.335614	0.335859
Cl388	Cl	1.118622	-0.360755	-0.595961
Cl389	Cl	1.451956	-0.027422	-0.262628
Cl390	Cl	1.785289	0.305911	0.070706
H391	H	0.935529	-0.219041	-1.080754
H392	H	1.268863	0.114292	-0.747421
H393	H	1.602196	0.447625	-0.414087
H394	H	1.098683	-0.345371	-0.484206
H395	H	1.432017	-0.012038	-0.150873
H396	H	1.765350	0.321296	0.182460
H397	H	0.418990	-0.355077	-0.354754
H398	H	0.752323	-0.021743	-0.021421
H399	H	1.085656	0.311590	0.311912
