data_functionalizedCrystal
_audit_creation_method	'MofGen! by Chris Wilmer'
_symmetry_space_group_name_H-M	'P1'
_symmetry_Int_Tables_number	1
_symmetry_cell_setting	triclinic
loop_
_symmetry_equiv_pos_as_xyz
  x,y,z
_cell_length_a	11.026607
_cell_length_b	10.268362
_cell_length_c	11.026607
_cell_angle_alpha	89.996950
_cell_angle_beta	71.413983
_cell_angle_gamma	90.003722
loop_
_atom_site_label
_atom_site_type_symbol
_atom_site_fract_x
_atom_site_fract_y
_atom_site_fract_z
O1	O	1.726734	0.108297	-0.533625
O2	O	2.060067	0.441630	-0.200291
O3	O	2.393400	0.774964	0.133042
O4	O	1.360154	0.108299	-0.472861
O5	O	1.693487	0.441632	-0.139528
O6	O	2.026820	0.774966	0.193806
O7	O	1.513062	0.108294	-0.319953
O8	O	1.846395	0.441627	0.013381
O9	O	2.179729	0.774960	0.346714
O10	O	1.573825	0.108303	-0.686533
O11	O	1.907159	0.441636	-0.353199
O12	O	2.240492	0.774969	-0.019866
O13	O	1.513043	-0.108307	-0.319941
O14	O	1.846376	0.225026	0.013392
O15	O	2.179710	0.558360	0.346726
O16	O	1.360135	-0.108302	-0.472849
O17	O	1.693468	0.225032	-0.139516
O18	O	2.026802	0.558365	0.193817
O19	O	1.726715	-0.108304	-0.533613
O20	O	2.060048	0.225030	-0.200280
O21	O	2.393382	0.558363	0.133054
Cu22	Cu	1.543423	-0.128080	-0.503230
Cu23	Cu	1.876757	0.205253	-0.169897
Cu24	Cu	2.210090	0.538587	0.163437
Cu25	Cu	1.543445	0.128075	-0.503244
Cu26	Cu	1.876779	0.461409	-0.169911
Cu27	Cu	2.210112	0.794742	0.163423
O28	O	1.573807	-0.108298	-0.686521
O29	O	1.907140	0.225035	-0.353188
O30	O	2.240473	0.558369	-0.019854
C31	C	1.312485	-0.000001	-0.461645
C32	C	1.645818	0.333332	-0.128312
C33	C	1.979151	0.666666	0.205021
C34	C	1.170471	-0.000000	-0.428228
C35	C	1.503804	0.333333	-0.094895
C36	C	1.837137	0.666667	0.238438
C37	C	1.116821	0.000003	-0.520498
C38	C	1.450155	0.333336	-0.187165
C39	C	1.783488	0.666670	0.146169
C40	C	0.970043	0.000004	-0.485962
C41	C	1.303376	0.333337	-0.152629
C42	C	1.636709	0.666671	0.180704
N43	N	1.543417	-0.308246	-0.503221
N44	N	1.876750	0.025088	-0.169888
N45	N	2.210083	0.358421	0.163445
C46	C	1.543438	-0.573916	-0.503240
C47	C	1.876772	-0.240583	-0.169907
C48	C	2.210105	0.092750	0.163427
C49	C	1.543423	-0.426078	-0.503233
C50	C	1.876756	-0.092745	-0.169899
C51	C	2.210090	0.240588	0.163434
C52	C	1.774384	-0.000001	-0.544828
C53	C	2.107717	0.333333	-0.211495
C54	C	2.441051	0.666666	0.121838
C55	C	1.916398	0.000007	-0.578245
C56	C	2.249731	0.333340	-0.244912
C57	C	2.583064	0.666674	0.088421
C58	C	1.501843	-0.000005	-0.272287
C59	C	1.835176	0.333328	0.061046
C60	C	2.168509	0.666661	0.394379
C61	C	1.468426	-0.000000	-0.130273
C62	C	1.801759	0.333333	0.203060
C63	C	2.135092	0.666666	0.536393
N64	N	1.543460	0.308241	-0.503244
N65	N	1.876793	0.641575	-0.169911
N66	N	2.210126	0.974908	0.163422
C67	C	1.585026	0.000004	-0.734187
C68	C	1.918359	0.333337	-0.400853
C69	C	2.251693	0.666670	-0.067520
C70	C	1.618443	0.000007	-0.876200
C71	C	1.951776	0.333341	-0.542867
C72	C	2.285109	0.666674	-0.209534
C73	C	1.560695	0.000001	-0.076624
C74	C	1.894029	0.333334	0.256709
C75	C	2.227362	0.666668	0.590043
C76	C	1.526160	0.000006	0.070155
C77	C	1.859493	0.333339	0.403488
C78	C	2.192826	0.666673	0.736821
H79	H	1.179555	-0.000002	-0.625061
H80	H	1.512888	0.333332	-0.291728
H81	H	1.846221	0.666665	0.041606
C82	C	1.384895	0.000008	0.154886
C83	C	1.718229	0.333342	0.488219
C84	C	2.051562	0.666675	0.821552
H85	H	1.380215	0.000003	0.242422
H86	H	1.713548	0.333336	0.575755
H87	H	2.046881	0.666669	0.909088
H88	H	1.343667	0.075539	0.137252
H89	H	1.677000	0.408872	0.470585
H90	H	2.010334	0.742206	0.803919
H91	H	1.343660	-0.075537	0.137270
H92	H	1.676993	0.257796	0.470603
H93	H	2.010326	0.591129	0.803936
H94	H	1.363863	0.000009	-0.067540
H95	H	1.697196	0.333342	0.265793
H96	H	2.030530	0.666675	0.599126
C97	C	1.001121	0.000006	-0.719513
C98	C	1.334454	0.333339	-0.386179
C99	C	1.667787	0.666673	-0.052846
H100	H	0.948425	-0.000002	-0.772921
H101	H	1.281759	0.333332	-0.439588
H102	H	1.615092	0.666665	-0.106254
H103	H	1.053608	0.075536	-0.736394
H104	H	1.386941	0.408869	-0.403061
H105	H	1.720275	0.742202	-0.069728
H106	H	1.053584	-0.075541	-0.736378
H107	H	1.386917	0.257793	-0.403044
H108	H	1.720251	0.591126	-0.069711
C109	C	1.085736	0.000004	-0.286971
C110	C	1.419069	0.333337	0.046362
C111	C	1.752402	0.666670	0.379696
H112	H	0.998200	0.000015	-0.282290
H113	H	1.331533	0.333348	0.051043
H114	H	1.664866	0.666682	0.384376
H115	H	1.103352	-0.075527	-0.245727
H116	H	1.436685	0.257806	0.087606
H117	H	1.770019	0.591140	0.420939
H118	H	1.103369	0.075549	-0.245751
H119	H	1.436702	0.408883	0.087583
H120	H	1.770035	0.742216	0.420916
C121	C	1.701953	-0.000005	-0.161359
C122	C	2.035286	0.333329	0.171974
C123	C	2.368620	0.666662	0.505308
H124	H	1.706633	-0.000017	-0.248895
H125	H	2.039967	0.333317	0.084438
H126	H	2.373300	0.666650	0.417772
H127	H	1.743197	0.075526	-0.143742
H128	H	2.076530	0.408860	0.189591
H129	H	2.409864	0.742193	0.522924
H130	H	1.743173	-0.075550	-0.143726
H131	H	2.076506	0.257783	0.189607
H132	H	2.409839	0.591117	0.522941
C133	C	1.759710	0.000008	0.039077
C134	C	2.093043	0.333341	0.372410
C135	C	2.426377	0.666674	0.705743
H136	H	1.813118	0.000019	0.091772
H137	H	2.146452	0.333352	0.425105
H138	H	2.479785	0.666685	0.758439
H139	H	1.776580	-0.075524	-0.013396
H140	H	2.109913	0.257809	0.319938
H141	H	2.443247	0.591142	0.653271
H142	H	1.776587	0.075552	-0.013402
H143	H	2.109920	0.408885	0.319932
H144	H	2.443254	0.742219	0.653265
C145	C	0.885312	0.000008	-0.344698
C146	C	1.218645	0.333341	-0.011365
C147	C	1.551978	0.666674	0.321969
H148	H	0.797776	0.000019	-0.340017
H149	H	1.131109	0.333352	-0.006684
H150	H	1.464442	0.666686	0.326649
H151	H	0.902928	-0.075523	-0.303454
H152	H	1.236262	0.257810	0.029879
H153	H	1.569595	0.591144	0.363212
H154	H	0.902945	0.075553	-0.303478
H155	H	1.236278	0.408887	0.029856
H156	H	1.569612	0.742220	0.363189
