data_functionalizedCrystal
_audit_creation_method	'MofGen! by Chris Wilmer'
_symmetry_space_group_name_H-M	'P1'
_symmetry_Int_Tables_number	1
_symmetry_cell_setting	triclinic
loop_
_symmetry_equiv_pos_as_xyz
  x,y,z
_cell_length_a	12.759401
_cell_length_b	19.077068
_cell_length_c	12.759393
_cell_angle_alpha	92.262348
_cell_angle_beta	89.979062
_cell_angle_gamma	92.328499
loop_
_atom_site_label
_atom_site_type_symbol
_atom_site_fract_x
_atom_site_fract_y
_atom_site_fract_z
Zn1	Zn	1.589374	-0.280138	-0.610771
Zn2	Zn	1.582167	-0.397851	-0.442129
Zn3	Zn	1.413670	-0.280175	-0.435108
Zn4	Zn	1.406569	-0.397802	-0.617763
O5	O	1.497945	-0.338992	-0.526443
O6	O	1.735438	-0.295758	-0.588412
O7	O	1.559771	-0.382278	-0.294179
O8	O	1.442966	-0.181680	-0.452545
O9	O	1.730143	-0.382241	-0.464512
O10	O	1.572054	-0.181652	-0.581604
O11	O	1.435977	-0.295822	-0.289020
O12	O	1.265708	-0.295774	-0.459326
O13	O	1.430863	-0.382158	-0.763855
O14	O	1.260490	-0.382194	-0.593522
O15	O	1.565169	-0.295710	-0.758717
O16	O	1.552885	-0.496336	-0.471292
O17	O	1.423874	-0.496300	-0.600330
C18	C	1.224978	-0.338983	-0.526421
C19	C	1.108201	-0.338996	-0.526438
C20	C	1.050645	-0.384064	-0.596212
C21	C	0.940921	-0.384066	-0.596233
C22	C	0.946317	-0.293932	-0.456697
C23	C	1.056040	-0.293927	-0.456682
C24	C	1.486856	-0.521855	-0.537355
C25	C	1.482208	-0.600085	-0.542058
C26	C	1.547245	-0.636833	-0.477141
C27	C	1.542880	-0.710338	-0.481570
C28	C	1.473471	-0.747094	-0.550913
C29	C	1.408431	-0.710341	-0.615838
C30	C	1.412802	-0.636837	-0.611413
C31	C	1.453194	-0.966927	-0.571352
C32	C	1.448825	-1.040436	-0.575770
C33	C	1.583276	-1.040429	-0.441503
C34	C	1.587637	-0.966923	-0.437080
C35	C	1.522600	-0.930177	-0.502008
N36	N	1.469005	-0.822228	-0.555441
N37	N	1.527073	-0.855044	-0.497485
C38	C	1.771978	-0.339001	-0.526465
C39	C	1.888754	-0.339005	-0.526474
C40	C	1.498028	-0.338924	-0.800472
C41	C	1.498063	-0.338895	-0.917247
C42	C	1.509106	-0.155414	-0.515511
C43	C	1.513862	-0.077184	-0.510853
C44	C	1.568001	-0.293875	-0.969435
C45	C	1.568021	-0.293845	-1.079158
C46	C	1.428160	-0.383861	-1.084494
C47	C	1.428136	-0.383887	-0.974774
C48	C	1.497926	-0.339008	-0.253476
C49	C	1.498106	-0.338839	-0.136690
H50	H	0.903834	-0.257239	-0.399902
H51	H	1.624937	-0.257238	-0.922600
H52	H	1.624970	-0.257183	-1.121644
H53	H	1.636226	-1.070356	-0.388644
H54	H	1.371231	-0.420494	-1.131346
H55	H	1.644155	-0.936998	-0.380615
H56	H	1.093112	-0.420761	-0.653015
H57	H	0.894064	-0.420764	-0.653052
H58	H	1.102903	-0.257223	-0.399863
H59	H	1.603761	-0.606911	-0.420670
H60	H	1.595840	-0.740255	-0.428707
H61	H	1.392316	-1.070361	-0.632256
H62	H	1.371177	-0.420548	-0.932281
H63	H	1.400236	-0.937014	-0.624217
H64	H	1.359843	-0.606918	-0.664277
H65	H	1.351921	-0.740273	-0.672303
