data_functionalizedCrystal
_audit_creation_method	'MofGen! by Chris Wilmer'
_symmetry_space_group_name_H-M	'P1'
_symmetry_Int_Tables_number	1
_symmetry_cell_setting	triclinic
loop_
_symmetry_equiv_pos_as_xyz
  x,y,z
_cell_length_a	13.339071
_cell_length_b	13.262508
_cell_length_c	9.130313
_cell_angle_alpha	105.913806
_cell_angle_beta	89.996912
_cell_angle_gamma	99.430290
loop_
_atom_site_label
_atom_site_type_symbol
_atom_site_fract_x
_atom_site_fract_y
_atom_site_fract_z
O1	O	1.344493	0.526822	0.088055
O2	O	1.049675	0.457673	0.060510
O3	O	1.204503	0.341620	0.014283
O4	O	1.189665	0.642875	0.134282
O5	O	1.204492	0.341613	0.257878
O6	O	1.049665	0.457666	0.304105
O7	O	1.344482	0.526814	0.331650
Cu8	Cu	1.197072	0.492239	0.340120
Cu9	Cu	1.197085	0.492248	0.052040
O10	O	1.189654	0.642868	0.377877
C11	C	1.011932	0.445989	0.177654
C12	C	0.899484	0.411172	0.163785
C13	C	0.858330	0.302598	0.120542
C14	C	0.752680	0.269882	0.107503
C15	C	0.688173	0.345738	0.137717
C16	C	0.729327	0.454314	0.180971
C17	C	0.834987	0.487033	0.194000
C18	C	0.664830	0.530173	0.211175
C19	C	0.705984	0.638750	0.254430
C20	C	0.811634	0.671464	0.267458
C21	C	0.876141	0.595608	0.237244
C22	C	0.559170	0.497455	0.198147
C23	C	0.535827	0.681890	0.271605
C24	C	0.641477	0.714606	0.284644
C25	C	1.203667	0.302272	0.120405
C26	C	1.201179	0.185032	0.073696
C27	C	1.194138	-0.145477	0.473182
C28	C	1.196467	-0.035326	0.517069
C29	C	1.197646	0.019769	0.406229
C30	C	1.196494	-0.035298	0.251496
C31	C	1.194156	-0.145460	0.207604
C32	C	1.197664	0.019785	0.140651
C33	C	1.196512	-0.035281	-0.014083
C34	C	1.194175	-0.145433	-0.057966
C35	C	1.192997	-0.200528	0.052873
C36	C	1.200001	0.129948	0.184543
C37	C	1.200019	0.129965	-0.081035
C38	C	1.197690	0.019814	-0.124922
C39	C	1.382225	0.538499	0.214502
C40	C	1.494673	0.573316	0.228362
C41	C	1.190491	0.682216	0.271752
C42	C	1.192978	0.799456	0.318451
N43	N	1.197071	0.492234	0.542741
N44	N	1.197094	0.492247	-0.150583
C45	C	1.265652	0.440883	0.598938
C46	C	1.265661	0.440886	0.752276
C47	C	1.128506	0.543600	0.793209
C48	C	1.128492	0.543590	0.639871
H49	H	0.719181	0.181479	0.072283
C50	C	1.340143	0.385012	0.493700
C51	C	1.400185	0.340016	0.575733
C52	C	1.468808	0.288524	0.478837
H53	H	1.382552	0.435017	0.453780
H54	H	1.303548	0.330581	0.412251
H55	H	1.436778	0.394441	0.657154
H56	H	1.357804	0.289996	0.615650
H57	H	1.432212	0.234092	0.397388
H58	H	1.511210	0.338536	0.438922
H59	H	1.509548	0.257980	0.534478
H60	H	1.321505	0.399069	0.798025
C61	C	1.053942	0.599373	0.898410
C62	C	0.993858	0.644315	0.816359
C63	C	0.925148	0.695690	0.913211
H64	H	1.090439	0.653821	0.979905
H65	H	1.011577	0.549277	0.938256
H66	H	1.036217	0.694407	0.776537
H67	H	0.957339	0.589890	0.734870
H68	H	0.882783	0.645595	0.953056
H69	H	0.961653	0.750134	0.994701
H70	H	0.884366	0.726181	0.857550
H71	H	0.525674	0.409051	0.162928
H72	H	0.602149	0.319094	0.127098
H73	H	0.910860	0.240848	0.095936
H74	H	0.962171	0.622240	0.247865
H75	H	0.845137	0.759874	0.302657
H76	H	0.483305	0.743659	0.296207
H77	H	1.072641	0.585406	0.594114
H78	H	0.675000	0.803011	0.319862
H79	H	1.200930	0.174771	0.310527
C80	C	1.199973	0.139331	0.453772
C81	C	1.113709	0.162249	0.390568
C82	C	1.115817	0.272381	0.434354
H83	H	1.259436	0.173551	0.418339
H84	H	1.200439	0.164271	0.561794
H85	H	1.113253	0.137321	0.282569
H86	H	1.054233	0.128056	0.425993
H87	H	1.116282	0.297321	0.542376
H88	H	1.175283	0.306591	0.398919
H89	H	1.057284	0.287944	0.391489
C90	C	1.193077	-0.205341	-0.225893
C91	C	1.278758	-0.255064	-0.253422
C92	C	1.277776	-0.310274	-0.408092
H93	H	1.194165	-0.156876	-0.285801
H94	H	1.133202	-0.257548	-0.252225
H95	H	1.338618	-0.202863	-0.227108
H96	H	1.277687	-0.303546	-0.193552
H97	H	1.217901	-0.362480	-0.434423
H98	H	1.278862	-0.261801	-0.467986
H99	H	1.335904	-0.344025	-0.426787
H100	H	1.197416	0.009503	0.643054
H101	H	1.193171	-0.190346	0.563410
H102	H	1.191105	-0.290221	0.017148
H103	H	1.196751	-0.025037	-0.250909
H104	H	1.200972	0.174822	-0.171291
