data_functionalizedCrystal
_audit_creation_method	'MofGen! by Chris Wilmer'
_symmetry_space_group_name_H-M	'P1'
_symmetry_Int_Tables_number	1
_symmetry_cell_setting	triclinic
loop_
_symmetry_equiv_pos_as_xyz
  x,y,z
_cell_length_a	23.096457
_cell_length_b	14.560432
_cell_length_c	23.096457
_cell_angle_alpha	89.999110
_cell_angle_beta	60.000185
_cell_angle_gamma	60.002951
loop_
_atom_site_label
_atom_site_type_symbol
_atom_site_fract_x
_atom_site_fract_y
_atom_site_fract_z
Zr1	Zr	0.633737	-0.120513	0.557781
O2	O	0.754518	-0.267146	0.465335
O3	O	0.512952	-0.075569	0.586118
O4	O	0.633735	-0.267161	0.586121
O5	O	0.633738	0.075584	0.465332
O6	O	0.633736	-0.267166	0.681402
O7	O	0.633736	-0.075553	0.465332
O8	O	0.417678	0.075557	0.681396
O9	O	0.849796	-0.267139	0.465338
O10	O	0.562635	-0.056397	0.669313
O11	O	0.562635	0.056399	0.598206
O12	O	0.704841	-0.169176	0.598210
O13	O	0.704842	-0.056380	0.527103
Zr14	Zr	0.633743	0.120525	0.709742
Zr15	Zr	0.633739	-0.120522	0.709742
Zr16	Zr	0.633741	0.120534	0.557781
Zr17	Zr	0.785694	-0.120503	0.557785
Zr18	Zr	0.481786	0.120515	0.709738
O19	O	0.754528	0.075580	0.681405
O20	O	0.754522	-0.267158	0.681405
O21	O	0.754524	0.075592	0.465335
O22	O	0.512961	0.267157	0.802187
O23	O	0.512956	-0.075581	0.802187
O24	O	0.512958	0.267169	0.586118
O25	O	0.633741	-0.075573	0.802190
O26	O	0.633745	0.267172	0.681401
O27	O	0.633743	0.267177	0.586121
O28	O	0.633744	0.075565	0.802190
O29	O	0.849798	-0.267146	0.586127
O30	O	0.417681	0.267157	0.681396
O31	O	0.417683	0.267150	0.802185
O32	O	0.417680	0.075550	0.802185
O33	O	0.849800	-0.075539	0.465338
O34	O	0.849802	-0.075546	0.586127
O35	O	0.562638	0.169187	0.669313
O36	O	0.562638	0.056391	0.740420
O37	O	0.704844	-0.056388	0.669316
O38	O	0.704845	0.056409	0.598210
C39	C	0.443664	-0.000007	0.633757
C40	C	0.379154	-0.000011	0.633755
C41	C	0.633737	0.000017	0.443681
C42	C	0.633736	0.000020	0.379170
C43	C	0.633745	0.301519	0.633761
C44	C	0.633746	0.403850	0.633761
C45	C	0.348853	-0.058894	0.670867
C46	C	0.288231	-0.058885	0.670874
C47	C	0.257924	-0.000008	0.633755
C48	C	0.288229	0.058887	0.596641
C49	C	0.348844	0.058886	0.596641
N50	N	0.195527	-0.008169	0.573351
N51	N	0.137946	-0.008173	0.573352
C52	C	0.075292	0.000002	0.633754
N53	N	0.072401	0.008161	0.694154
N54	N	0.129990	0.008159	0.694151
C55	C	0.192196	0.000001	0.633751
C56	C	-0.020744	-0.058873	0.670877
C57	C	-0.081371	-0.058856	0.670886
C58	C	-0.081366	0.058909	0.596647
C59	C	-0.020746	0.058899	0.596644
C60	C	0.009564	0.000002	0.633758
C61	C	0.823815	0.000018	0.633766
C62	C	0.888325	0.000023	0.633768
C63	C	0.633735	-0.301508	0.633761
C64	C	0.633733	-0.403838	0.633761
C65	C	0.782212	0.286125	0.559536
C66	C	0.856442	0.275339	0.522426
C67	C	0.856438	0.371492	0.522428
C68	C	0.782197	0.478438	0.559541
C69	C	0.707967	0.489224	0.596651
C70	C	0.707978	0.393063	0.596647
C71	C	0.559503	0.606947	0.670871
C72	C	0.559505	0.510796	0.670874
C73	C	0.485262	0.713894	0.707984
C74	C	0.411030	0.724681	0.745098
C75	C	0.411036	0.628520	0.745096
C76	C	0.485275	0.521582	0.707984
C77	C	0.559507	0.058879	0.385979
C78	C	0.559506	0.058884	0.325363
C79	C	0.633737	0.000008	0.257939
C80	C	0.707975	-0.058853	0.251132
C81	C	0.707975	-0.058847	0.311747
N82	N	0.688991	-0.095813	0.135145
N83	N	0.688987	-0.095817	0.077565
C84	C	0.633745	-0.000012	0.075306
N85	N	0.578495	0.095796	0.132808
N86	N	0.578496	0.095797	0.190394
C87	C	0.633747	-0.000004	0.192208
C88	C	0.559510	0.058857	0.016392
C89	C	0.559512	0.058865	-0.044226
C90	C	0.707984	-0.058882	-0.118457
C91	C	0.707979	-0.058879	-0.057839
C92	C	0.633741	-0.000012	0.009583
C93	C	0.633743	-0.000005	0.823842
C94	C	0.633744	-0.000009	0.888353
C95	C	0.443668	-0.000018	0.823837
C96	C	0.379159	-0.000026	0.888347
C97	C	0.443669	0.301506	0.633756
C98	C	0.379161	0.403833	0.633755
C99	C	0.443672	0.301495	0.823837
C100	C	0.379165	0.403818	0.888347
C101	C	0.823807	-0.301484	0.443686
C102	C	0.888314	-0.403806	0.379176
C103	C	0.823812	0.000029	0.443686
C104	C	0.888321	0.000037	0.379176
C105	C	0.823810	-0.301495	0.633766
C106	C	0.888319	-0.403821	0.633768
C107	C	0.348863	-0.058914	0.881524
C108	C	0.288259	-0.058944	0.942132
C109	C	0.257947	-0.000079	1.009562
C110	C	0.288248	0.058811	1.016383
C111	C	0.348856	0.058834	0.955776
C112	C	0.348869	0.510771	0.670871
C113	C	0.288265	0.606926	0.670867
C114	C	0.257950	0.596142	0.633750
C115	C	0.288248	0.489192	0.596629
C116	C	0.348855	0.393039	0.596630
C117	C	0.348872	0.392991	0.955764
C118	C	0.288269	0.489125	1.016384
C119	C	0.257957	0.596084	1.009584
C120	C	0.288256	0.606909	0.942159
C121	C	0.348862	0.510776	0.881541
C122	C	0.918615	-0.392980	0.311758
C123	C	0.979237	-0.489114	0.251139
C124	C	1.009552	-0.596073	0.257938
C125	C	0.979249	-0.606898	0.325363
C126	C	0.918633	-0.510765	0.385981
C127	C	0.918623	0.058916	0.385998
C128	C	0.979244	0.058919	0.325390
C129	C	1.009558	0.000050	0.257960
C130	C	0.979254	-0.058835	0.251139
C131	C	0.918638	-0.058844	0.311747
C132	C	0.918614	-0.393001	0.670892
C133	C	0.979218	-0.489138	0.670907
C134	C	1.009530	-0.596095	0.633794
C135	C	0.979229	-0.606913	0.596669
C136	C	0.918621	-0.510777	0.596658
H137	H	0.373528	-0.106848	0.701089
F138	F	0.193446	0.698488	0.633756
H139	H	0.373542	-0.106863	0.826625
H140	H	0.893936	-0.305897	0.306208
H141	H	1.058915	0.000067	0.208616
H142	H	0.373544	0.519573	0.701096
F143	F	0.480500	0.121513	0.088149
H144	H	0.893944	-0.305919	0.701114
F145	F	0.011506	0.121568	0.557142
F146	F	0.480504	0.121526	-0.036975
H147	H	0.768415	-0.106789	0.196231
H148	H	0.350588	0.811759	0.775309
F149	F	0.256029	0.720739	0.710379
F150	F	0.935442	0.360013	0.482933
F151	F	1.011483	0.121600	0.332665
H152	H	0.373543	0.305908	0.961314
F153	F	0.485260	0.816227	0.707982
F154	F	0.886391	-0.522311	0.557137
H155	H	-0.106046	-0.106801	0.701112
H156	H	0.373516	0.106835	0.566418
H157	H	1.003940	-0.693996	0.330891
F158	F	0.256030	0.477581	1.088136
H159	H	1.003918	-0.694011	0.566453
H160	H	0.263549	0.106826	0.566419
F161	F	0.255969	-0.121549	0.710382
H162	H	0.208607	0.674353	1.058949
F163	F	1.011475	-0.477570	0.179387
F164	F	0.485288	0.419240	0.707982
F165	F	1.074066	-0.698378	0.193416
H166	H	0.893962	-0.519594	0.440874
F167	F	0.011512	-0.121549	0.710381
F168	F	0.255976	0.477732	0.557130
F169	F	0.786987	-0.121535	-0.190212
H170	H	0.782201	0.556725	0.559532
F171	F	-0.113617	0.121570	0.557141
H172	H	0.768424	-0.106816	-0.063387
F173	F	0.255987	0.720753	0.934934
F174	F	0.256018	-0.121622	0.934858
F175	F	0.193441	-0.000112	1.074060
F176	F	0.332029	0.640011	0.784590
H177	H	0.499056	0.106806	0.440873
F178	F	0.381088	0.121521	0.963048
H179	H	0.373511	0.305969	0.566408
F180	F	0.886373	0.121573	0.457757
H181	H	0.768422	-0.106774	0.306197
H182	H	0.782222	0.207826	0.559540
H183	H	0.916888	0.188254	0.492209
F184	F	0.255978	0.121459	1.088153
F185	F	0.480499	0.121528	0.332608
F186	F	0.381093	0.522316	0.809792
H187	H	1.003945	-0.106764	0.196230
F188	F	0.886390	-0.121508	0.304475
F189	F	1.011460	-0.477601	0.710419
H190	H	1.058881	-0.674366	0.633808
