data_functionalizedCrystal
_audit_creation_method	'MofGen! by Chris Wilmer'
_symmetry_space_group_name_H-M	'P1'
_symmetry_Int_Tables_number	1
_symmetry_cell_setting	triclinic
loop_
_symmetry_equiv_pos_as_xyz
  x,y,z
_cell_length_a	15.297475
_cell_length_b	18.050589
_cell_length_c	15.296720
_cell_angle_alpha	99.646980
_cell_angle_beta	91.617114
_cell_angle_gamma	80.331321
loop_
_atom_site_label
_atom_site_type_symbol
_atom_site_fract_x
_atom_site_fract_y
_atom_site_fract_z
Zn1	Zn	1.253324	-0.577978	-0.726619
Zn2	Zn	1.753324	-0.077978	-0.226619
Zn3	Zn	1.278573	-0.684914	-0.580139
Zn4	Zn	1.778573	-0.184914	-0.080139
Zn5	Zn	1.132208	-0.536258	-0.554858
Zn6	Zn	1.632208	-0.036258	-0.054858
Zn7	Zn	1.106800	-0.677614	-0.701267
Zn8	Zn	1.606800	-0.177614	-0.201267
O9	O	1.192726	-0.619191	-0.640721
O10	O	1.692726	-0.119191	-0.140721
O11	O	1.379249	-0.612678	-0.728378
O12	O	1.879249	-0.112678	-0.228378
O13	O	1.280357	-0.650790	-0.454210
O14	O	1.780357	-0.150790	0.045790
O15	O	1.148341	-0.437882	-0.577673
O16	O	1.648341	0.062118	-0.077673
O17	O	1.397799	-0.691244	-0.620759
O18	O	1.897799	-0.191244	-0.120759
O19	O	1.237325	-0.468533	-0.703865
O20	O	1.737325	0.031467	-0.203865
O21	O	1.172823	-0.541573	-0.435637
O22	O	1.672823	-0.041573	0.064363
O23	O	1.006262	-0.534494	-0.553090
O24	O	1.506262	-0.034494	-0.053090
O25	O	1.105037	-0.678802	-0.827205
O26	O	1.605037	-0.178802	-0.327205
O27	O	0.987595	-0.638348	-0.660656
O28	O	1.487595	-0.138348	-0.160656
O29	O	1.212688	-0.605600	-0.845831
O30	O	1.712688	-0.105600	-0.345831
O31	O	1.255720	-0.787856	-0.596176
O32	O	1.755720	-0.287856	-0.096176
O33	O	1.129519	-0.782493	-0.685169
O34	O	1.629519	-0.282493	-0.185169
C35	C	0.965146	-0.581102	-0.601379
C36	C	1.465146	-0.081102	-0.101379
C37	C	0.867783	-0.564828	-0.584569
C38	C	1.367783	-0.064828	-0.084569
C39	C	0.554614	-0.735511	-0.760865
C40	C	1.054614	-0.235511	-0.260865
C41	C	0.646092	-0.750806	-0.776656
C42	C	1.146092	-0.250806	-0.276656
C43	C	0.701519	-0.704313	-0.728636
C44	C	1.201519	-0.204313	-0.228636
C45	C	0.665459	-0.642522	-0.664822
C46	C	1.165459	-0.142522	-0.164822
C47	C	0.573973	-0.627228	-0.649024
C48	C	1.073973	-0.127228	-0.149024
C49	C	0.720878	-0.596030	-0.616795
C50	C	1.220878	-0.096030	-0.116795
C51	C	0.684818	-0.534239	-0.552980
C52	C	1.184818	-0.034239	-0.052980
C53	C	0.593341	-0.518948	-0.537186
C54	C	1.093341	-0.018948	-0.037186
C55	C	0.537914	-0.565441	-0.585206
C56	C	1.037914	-0.065441	-0.085206
C57	C	0.812364	-0.611324	-0.632593
C58	C	1.312364	-0.111324	-0.132593
C59	C	0.831723	-0.503041	-0.520751
C60	C	1.331723	-0.003041	-0.020751
C61	C	0.740245	-0.487746	-0.504960
C62	C	1.240245	0.012254	-0.004960
C63	C	1.192623	-0.812124	-0.640688
C64	C	1.692623	-0.312124	-0.140688
C65	C	1.192654	-0.894678	-0.640717
C66	C	1.692654	-0.394678	-0.140717
C67	C	1.124087	-1.091246	-0.689101
C68	C	1.624087	-0.591246	-0.189101
C69	C	1.116577	-1.127707	-0.605486
C70	C	1.616577	-0.627707	-0.105486
C71	C	1.192738	-1.045824	-0.640743
C72	C	1.692738	-0.545824	-0.140743
C73	C	1.200290	-1.156454	-0.724374
C74	C	1.700290	-0.656454	-0.224374
C75	C	1.192816	-1.191825	-0.640775
C76	C	1.692816	-0.691825	-0.140775
C77	C	1.185193	-1.081185	-0.557079
C78	C	1.685193	-0.581185	-0.057079
C79	C	1.268934	-1.109941	-0.676028
C80	C	1.768934	-0.609941	-0.176028
C81	C	1.261463	-1.146377	-0.592364
C82	C	1.761463	-0.646377	-0.092364
C83	C	1.192690	-0.961717	-0.640726
C84	C	1.692690	-0.461717	-0.140726
C85	C	1.192866	-1.275930	-0.640784
C86	C	1.692866	-0.775930	-0.140784
C87	C	1.421195	-0.657429	-0.680217
C88	C	1.921195	-0.157429	-0.180217
C89	C	1.518555	-0.673724	-0.697047
C90	C	2.018555	-0.173724	-0.197047
C91	C	1.153212	-0.646040	-0.869189
C92	C	1.653212	-0.146040	-0.369189
C93	C	1.136373	-0.657482	-0.966549
C94	C	1.636373	-0.157482	-0.466549
C95	C	1.192850	-0.425511	-0.640777
C96	C	1.692850	0.074489	-0.140777
C97	C	1.192903	-0.342976	-0.640801
C98	C	1.692903	0.157024	-0.140801
C99	C	1.313107	-0.537292	-1.279781
C100	C	1.813107	-0.037292	-0.779781
C101	C	1.328934	-0.526544	-1.188308
C102	C	1.828934	-0.026544	-0.688308
C103	C	1.280795	-0.559277	-1.132864
C104	C	1.780795	-0.059277	-0.632864
C105	C	1.216827	-0.602761	-1.168902
C106	C	1.716827	-0.102761	-0.668902
C107	C	1.201004	-0.613514	-1.260385
C108	C	1.701004	-0.113514	-0.760385
C109	C	1.168692	-0.635500	-1.113467
C110	C	1.668692	-0.135500	-0.613467
C111	C	1.104724	-0.678984	-1.149505
C112	C	1.604724	-0.178984	-0.649505
C113	C	1.088904	-0.689735	-1.240979
C114	C	1.588904	-0.189735	-0.740979
C115	C	1.137042	-0.657002	-1.296423
C116	C	1.637042	-0.157002	-0.796423
C117	C	1.184515	-0.624746	-1.021984
C118	C	1.684515	-0.124746	-0.521984
C119	C	1.072411	-0.700969	-1.002587
C120	C	1.572411	-0.200969	-0.502587
C121	C	1.056585	-0.711717	-1.094061
C122	C	1.556585	-0.211717	-0.594061
C123	C	1.232137	-0.592401	-0.413150
C124	C	1.732137	-0.092401	0.086850
C125	C	1.249146	-0.580779	-0.315820
C126	C	1.749146	-0.080779	0.184180
H127	H	0.710872	-0.437435	-0.453001
H128	H	1.210872	0.062565	0.046999
H129	H	0.876853	-0.465184	-0.481648
H130	H	1.376853	0.034816	0.018352
Br131	Br	1.210885	-1.210842	-0.842232
Br132	Br	1.710885	-0.710842	-0.342232
H133	H	0.509479	-0.773363	-0.799951
H134	H	1.009479	-0.273363	-0.299951
H135	H	1.352300	-0.510650	-1.324932
H136	H	1.852300	-0.010650	-0.824932
Br137	Br	1.415745	-0.467535	-1.139405
Br138	Br	1.915745	0.032465	-0.639405
Br139	Br	1.007084	-0.745404	-0.927350
Br140	Br	1.507084	-0.245404	-0.427350
Br141	Br	1.271326	-0.565736	-0.973087
Br142	Br	1.771326	-0.065736	-0.473087
Br143	Br	1.358303	-1.186336	-0.524138
Br144	Br	1.858303	-0.686336	-0.024138
Br145	Br	0.861292	-0.695182	-0.719194
Br146	Br	1.361292	-0.195182	-0.219194
Br147	Br	1.115569	-0.671590	-1.420572
Br148	Br	1.615569	-0.171590	-0.920572
Br149	Br	0.413757	-0.544679	-0.563785
Br150	Br	0.913757	-0.044679	-0.063785
H151	H	1.293685	-0.550524	-1.058383
H152	H	1.793685	-0.050524	-0.558383
Br153	Br	1.376238	-1.096034	-0.725787
Br154	Br	1.876238	-0.596034	-0.225787
H155	H	1.036824	-0.725149	-1.270319
H156	H	1.536824	-0.225149	-0.770319
H157	H	1.004502	-0.747121	-1.123416
H158	H	1.504502	-0.247121	-0.623416
Br159	Br	0.695026	-0.834665	-0.863255
Br160	Br	1.195026	-0.334665	-0.363255
Br161	Br	0.544405	-0.435095	-0.450571
Br162	Br	1.044405	0.064905	0.049429
H163	H	0.776004	-0.716770	-0.741498
H164	H	1.276004	-0.216770	-0.241498
H165	H	1.052176	-1.136053	-0.575667
H166	H	1.552176	-0.636053	-0.075667
Br167	Br	1.027228	-1.051027	-0.757127
Br168	Br	1.527228	-0.551027	-0.257127
Br169	Br	1.174476	-1.026932	-0.439163
Br170	Br	1.674476	-0.526932	0.060837
