data_functionalizedCrystal
_audit_creation_method	'MofGen! by Chris Wilmer'
_symmetry_space_group_name_H-M	'P1'
_symmetry_Int_Tables_number	1
_symmetry_cell_setting	triclinic
loop_
_symmetry_equiv_pos_as_xyz
  x,y,z
_cell_length_a	18.760492
_cell_length_b	14.628931
_cell_length_c	14.628931
_cell_angle_alpha	90.000000
_cell_angle_beta	120.001258
_cell_angle_gamma	59.998655
loop_
_atom_site_label
_atom_site_type_symbol
_atom_site_fract_x
_atom_site_fract_y
_atom_site_fract_z
Zr1	Zr	0.780251	-0.119997	-0.880583
O2	O	0.928964	-0.265965	-0.734615
O3	O	0.631538	-0.075245	-0.925335
O4	O	0.780251	-0.265958	-0.925328
O5	O	0.780251	0.075180	-0.734622
O6	O	0.780251	-0.265957	-1.075760
O7	O	0.780251	-0.075252	-0.734622
O8	O	0.514231	0.075193	-1.075773
O9	O	1.046271	-0.265971	-0.734610
O10	O	0.692706	-0.056164	-1.056681
O11	O	0.692706	0.056101	-0.944415
O12	O	0.867796	-0.168439	-0.944407
O13	O	0.867796	-0.056173	-0.832141
Zr14	Zr	0.780250	0.119925	-1.120505
Zr15	Zr	0.780251	-0.119996	-1.120505
Zr16	Zr	0.780251	0.119925	-0.880583
Zr17	Zr	0.967342	-0.120006	-0.880574
Zr18	Zr	0.593159	0.119934	-1.120514
O19	O	0.928963	0.075173	-1.075753
O20	O	0.928963	-0.265965	-1.075753
O21	O	0.928963	0.075173	-0.734615
O22	O	0.631537	0.265894	-1.266473
O23	O	0.631538	-0.075244	-1.266473
O24	O	0.631538	0.265893	-0.925335
O25	O	0.780250	-0.075251	-1.266466
O26	O	0.780250	0.265886	-1.075761
O27	O	0.780250	0.265886	-0.925328
O28	O	0.780250	0.075181	-1.266466
O29	O	1.046271	-0.265970	-0.925315
O30	O	0.514230	0.265899	-1.075773
O31	O	0.514230	0.265899	-1.266479
O32	O	0.514230	0.075193	-1.266478
O33	O	1.046271	-0.075265	-0.734610
O34	O	1.046270	-0.075264	-0.925316
O35	O	0.692705	0.168367	-1.056681
O36	O	0.692705	0.056102	-1.168947
O37	O	0.867795	-0.056173	-1.056673
O38	O	0.867795	0.056093	-0.944407
C39	C	0.546228	-0.000025	-1.000555
C40	C	0.466803	-0.000021	-1.000559
C41	C	0.780251	-0.000036	-0.700438
C42	C	0.780251	-0.000036	-0.598585
C43	C	0.780250	0.300070	-1.000545
C44	C	0.780250	0.401923	-1.000545
C45	C	0.131008	0.058556	-0.941928
C46	C	0.131013	-0.058652	-1.059135
C47	C	0.205628	-0.058645	-1.059144
C48	C	0.242938	-0.000038	-1.000542
C49	C	0.205633	0.058562	-0.941932
C50	C	0.242947	-0.117253	-1.117744
C51	C	0.317567	-0.117250	-1.117753
C52	C	0.354874	-0.058636	-1.059158
C53	C	0.317563	-0.000033	-1.000546
C54	C	0.354873	0.058574	-0.941944
C55	C	0.317558	0.117184	-0.883339
C56	C	0.242939	0.117175	-0.883336
C57	C	0.429493	-0.058627	-1.059160
C58	C	0.429497	0.058579	-0.941948
C59	C	1.014273	-0.000047	-1.000533
C60	C	1.093698	-0.000051	-1.000530
C61	C	0.780251	-0.300141	-1.000544
C62	C	0.780251	-0.401994	-1.000544
C63	C	0.867106	0.391637	-0.944849
C64	C	0.867108	0.496906	-0.944848
C65	C	0.693395	0.055659	-0.608872
C66	C	0.693393	0.055660	-0.503602
C67	C	0.780250	-0.000035	-0.300650
C68	C	0.780250	-0.000035	-0.402503
C69	C	0.546227	-0.000024	-1.300661
C70	C	0.466802	-0.000020	-1.402517
C71	C	0.546227	0.300081	-1.000555
C72	C	0.466802	0.401938	-1.000559
C73	C	0.546227	0.300082	-1.300661
C74	C	0.466801	0.401939	-1.402518
C75	C	1.014274	-0.300153	-0.700427
C76	C	1.093700	-0.402010	-0.598570
C77	C	1.014274	-0.000047	-0.700428
C78	C	1.093699	-0.000051	-0.598571
C79	C	1.014274	-0.300152	-1.000533
C80	C	1.093699	-0.402009	-1.000529
C81	C	0.429503	-0.058630	-1.391749
C82	C	0.354885	-0.058649	-1.487445
C83	C	0.317562	-0.000050	-1.593908
C84	C	0.354868	0.058561	-1.604675
C85	C	0.429490	0.058573	-1.508980
C86	C	0.429503	0.508383	-1.059163
C87	C	0.354885	0.604097	-1.059162
C88	C	0.317562	0.593365	-1.000564
C89	C	0.354869	0.486909	-0.941953
C90	C	0.429490	0.391197	-0.941948
C91	C	0.429502	0.391170	-1.508963
C92	C	0.354884	0.486867	-1.604677
C93	C	0.317561	0.593330	-1.593945
C94	C	0.354867	0.604096	-1.487489
C95	C	0.429489	0.508401	-1.391777
C96	C	1.131008	-0.391242	-0.492126
C97	C	1.205650	-0.486938	-0.396411
C98	C	1.242977	-0.593402	-0.407144
C99	C	1.205665	-0.604168	-0.513600
C100	C	1.131030	-0.508472	-0.609312
C101	C	1.131006	0.058549	-0.609340
C102	C	1.205644	0.058541	-0.513644
C103	C	1.242970	-0.000061	-0.407180
C104	C	1.205661	-0.058668	-0.396413
C105	C	1.131028	-0.058666	-0.492108
C106	C	1.130998	-0.391241	-1.059139
C107	C	1.205617	-0.486937	-1.059157
C108	C	1.242940	-0.593401	-1.000559
C109	C	1.205634	-0.604167	-0.941947
C110	C	1.131011	-0.508472	-0.941936
H111	H	0.459868	0.106307	-0.894229
H112	H	0.619035	0.103346	-0.695612
H113	H	0.619032	0.103336	-0.512234
H114	H	1.236016	-0.478150	-0.309740
H115	H	0.459882	0.517143	-1.106881
H116	H	1.236034	-0.690863	-0.894238
C117	C	0.201895	0.181632	-0.818866
N118	N	0.170981	0.230175	-0.770303
C119	C	0.967567	0.274456	-0.880430
N120	N	1.043237	0.186195	-0.831909
C121	C	0.967571	0.485239	-0.880432
N122	N	1.043242	0.476452	-0.831911
H123	H	0.854615	-0.047725	-0.393863
H124	H	0.324468	0.690792	-1.478767
H125	H	0.459850	0.304528	-0.894230
C126	C	0.880712	-0.064457	-0.481405
N127	N	0.956382	-0.112983	-0.393144
C128	C	1.325064	-0.000046	-0.301923
N129	N	1.386894	-0.000026	-0.222647
C130	C	0.313851	0.474999	-1.721768
N131	N	0.282945	0.466056	-1.809958
C132	C	0.470550	-0.123105	-1.274647
N133	N	0.501467	-0.171677	-1.186449
C134	C	0.313852	0.721188	-1.123653
N135	N	0.282945	0.809378	-1.172232
C136	C	0.358599	-0.181713	-1.182230
N137	N	0.389502	-0.230263	-1.230798
C138	C	0.470549	0.274069	-1.520796
N139	N	0.501466	0.185870	-1.529718
H140	H	1.303749	-0.671314	-0.329200
H141	H	0.459876	-0.106353	-1.106870
H142	H	1.235984	-0.478149	-1.106884
C143	C	0.235466	0.698588	-1.699243
N144	N	0.173629	0.777864	-1.778557
H145	H	0.256800	0.671309	-1.000577
H146	H	0.347950	0.164896	-0.835619
H147	H	1.100655	-0.517254	-0.695981
H148	H	1.236067	-0.690862	-0.522325
H149	H	1.303703	-0.671313	-1.000576
H150	H	1.100621	-0.304561	-1.106857
H151	H	1.100621	-0.304562	-0.483366
H152	H	0.459848	0.517185	-1.305108
C153	C	0.679785	0.609681	-1.064965
N154	N	0.604113	0.618468	-1.113485
H155	H	0.100620	0.106279	-0.894217
H156	H	1.236009	0.106270	-0.522432
H157	H	0.324469	0.478186	-0.894244
H158	H	1.100621	0.106277	-0.696019
H159	H	0.705890	0.488663	-1.048221
C160	C	1.089988	-0.123120	-0.480244
N161	N	1.059078	-0.171668	-0.471299
H162	H	0.100638	-0.106374	-1.106841
H163	H	0.212572	-0.164976	-1.165449
H164	H	0.324519	-0.106377	-1.478657
H165	H	0.256799	-0.000068	-1.671820
H166	H	1.236063	-0.106380	-0.309718
H167	H	0.324468	0.106270	-1.691370
H168	H	0.459849	0.106306	-1.517764
H169	H	1.100651	-0.517256	-0.894204
