data_functionalizedCrystal
_audit_creation_method	'MofGen! by Chris Wilmer'
_symmetry_space_group_name_H-M	'P1'
_symmetry_Int_Tables_number	1
_symmetry_cell_setting	triclinic
loop_
_symmetry_equiv_pos_as_xyz
  x,y,z
_cell_length_a	27.732048
_cell_length_b	17.019282
_cell_length_c	26.210047
_cell_angle_alpha	86.108150
_cell_angle_beta	90.018179
_cell_angle_gamma	83.017024
loop_
_atom_site_label
_atom_site_type_symbol
_atom_site_fract_x
_atom_site_fract_y
_atom_site_fract_z
O1	O	0.061547	1.045932	-0.003537
O2	O	0.069409	0.816166	0.006563
O3	O	-0.004892	0.938185	0.001190
O4	O	0.135847	0.923913	0.001836
O5	O	-0.004909	0.938212	-0.083670
O6	O	0.069392	0.816194	-0.078296
O7	O	0.061530	1.045959	-0.088397
Cu8	Cu	0.065459	0.931079	-0.091095
Cu9	Cu	0.065479	0.931047	0.009261
O10	O	0.135830	0.923940	-0.083023
C11	C	0.069104	0.786794	-0.034575
C12	C	0.068214	0.699233	-0.030726
C13	C	0.067786	0.658116	-0.075176
C14	C	0.066942	0.575844	-0.071561
C15	C	0.066530	0.534691	-0.023495
C16	C	0.066957	0.575814	0.020958
C17	C	0.067797	0.658084	0.017342
C18	C	0.063991	0.286286	-0.010265
C19	C	0.063153	0.204010	-0.006653
C20	C	0.063137	0.204046	-0.099172
C21	C	0.063980	0.286318	-0.102783
C22	C	0.064404	0.327434	-0.058330
C23	C	0.065670	0.450596	-0.019799
C24	C	0.065261	0.411528	-0.062027
C25	C	-0.022908	0.937899	-0.041228
C26	C	-0.076567	0.936997	-0.041193
C27	C	-0.415126	1.003423	-0.044087
C28	C	-0.616799	1.000076	-0.043932
O29	O	-0.647821	1.060818	-0.046580
N30	N	-0.636201	0.927724	-0.040752
C31	C	-0.605181	0.856203	-0.037607
O32	O	-0.626311	0.794587	-0.034893
C33	C	-0.403509	0.859551	-0.037758
C34	C	-0.384110	0.931908	-0.040943
C35	C	-0.395727	1.075774	-0.047271
C36	C	-0.345311	1.076610	-0.047313
C37	C	-0.314296	1.005095	-0.044169
C38	C	-0.333695	0.932744	-0.040985
C39	C	-0.372491	0.788032	-0.034609
C40	C	-0.322070	0.788875	-0.034646
C41	C	-0.302671	0.861232	-0.037831
C42	C	-0.252265	0.862065	-0.037883
N43	N	-0.232863	0.934417	-0.041063
C44	C	-0.263878	1.005932	-0.044206
C45	C	-0.711062	0.854451	-0.037529
C46	C	-0.761479	0.853614	-0.037493
C47	C	-0.773094	0.997486	-0.043817
C48	C	-0.722675	0.998323	-0.043857
C49	C	-0.691660	0.926803	-0.040709
C50	C	-0.158002	1.007682	-0.044293
C51	C	-0.107582	1.008512	-0.044336
C52	C	-0.095972	0.864640	-0.038009
C53	C	-0.146388	0.863809	-0.037969
C54	C	-0.177402	0.935337	-0.041109
O55	O	-0.221214	0.801356	-0.035230
O56	O	-0.242739	1.067540	-0.046908
C57	C	-0.465541	1.002587	-0.044045
C58	C	-0.484941	0.930236	-0.040861
C59	C	-0.453925	0.858721	-0.037717
C60	C	-0.535358	0.929399	-0.040824
C61	C	-0.566374	1.000914	-0.043967
C62	C	-0.546972	1.073266	-0.047147
C63	C	-0.496557	1.074102	-0.047189
C64	C	-0.473327	0.786369	-0.034537
C65	C	-0.523743	0.785539	-0.034497
C66	C	-0.554758	0.857054	-0.037640
C67	C	0.153847	0.924226	-0.040604
C68	C	0.207505	0.925128	-0.040636
C69	C	0.061835	1.075332	-0.047257
C70	C	0.062724	1.162893	-0.051103
N71	N	0.065490	0.931025	0.079846
N72	N	0.065445	0.931107	-0.161680
C73	C	0.098308	0.876941	0.488196
C74	C	0.098318	0.876917	0.274538
O75	O	0.126254	0.830901	0.248946
N76	N	0.065485	0.931045	0.245429
C77	C	0.032650	0.985186	0.269738
O78	O	0.004728	1.031230	0.240076
C79	C	0.032644	0.985212	0.483394
C80	C	0.065475	0.931076	0.512501
C81	C	0.131137	0.822809	0.517302
C82	C	0.131133	0.822813	0.570713
C83	C	0.098300	0.876948	0.595018
C84	C	0.065471	0.931079	0.565912
C85	C	-0.000188	1.039356	0.507701
C86	C	-0.000186	1.039359	0.561119
C87	C	0.032645	0.985223	0.590226
C88	C	0.032633	0.985218	0.643628
N89	N	0.065465	0.931090	0.672737
C90	C	0.098299	0.876955	0.648432
C91	C	0.032656	0.985167	0.157565
C92	C	0.032657	0.985160	0.104151
C93	C	0.098324	0.876892	0.108955
C94	C	0.098321	0.876896	0.162370
C95	C	0.065488	0.931040	0.186674
C96	C	0.098287	0.876966	0.760599
C97	C	0.098278	0.876972	0.814015
C98	C	0.032612	0.985242	0.809207
C99	C	0.032619	0.985234	0.755795
C100	C	0.065460	0.931092	0.731493
O101	O	0.004715	1.031216	0.669254
O102	O	0.126224	0.830930	0.678102
C103	C	0.098313	0.876937	0.434784
C104	C	0.065484	0.931069	0.405678
C105	C	0.032651	0.985204	0.429983
C106	C	0.065485	0.931061	0.352264
C107	C	0.098318	0.876926	0.327959
C108	C	0.131150	0.822799	0.357068
C109	C	0.131146	0.822802	0.410479
C110	C	-0.000182	1.039331	0.400874
C111	C	-0.000175	1.039323	0.347463
C112	C	0.032658	0.985188	0.323158
H113	H	0.062790	0.170561	-0.135363
C114	C	0.134411	0.817404	0.733875
N115	N	0.161617	0.772537	0.713747
H116	H	0.005918	1.029258	0.177349
H117	H	0.064335	0.319754	0.025932
H118	H	0.065334	0.417079	0.019336
H119	H	0.157868	0.778732	0.594409
C120	C	-0.287956	0.710195	-0.031184
N121	N	-0.262262	0.650933	-0.028579
H122	H	-0.777269	0.794693	-0.034907
H123	H	-0.162183	0.804891	-0.035389
C124	C	0.134450	0.817363	0.194382
N125	N	0.161669	0.772527	0.218490
H126	H	0.005878	1.029316	0.829004
H127	H	-0.070711	0.806414	-0.035452
H128	H	-0.183249	1.065927	-0.046848
H129	H	0.062819	0.170504	0.032489
C130	C	0.068270	0.703312	0.066241
N131	N	0.068624	0.737377	0.103073
C132	C	0.068238	0.703377	-0.128051
N133	N	0.068577	0.737467	-0.167879
H134	H	0.066619	0.542301	0.060093
H135	H	-0.448079	0.728131	-0.031976
C136	C	-0.036313	1.098899	0.475697
N137	N	-0.063528	1.143747	0.451591
C138	C	0.065727	0.456797	-0.114897
N139	N	0.066085	0.490899	-0.154719
H140	H	-0.091791	1.067436	-0.046932
C141	C	-0.036300	1.098873	0.315452
N142	N	-0.063507	1.143727	0.291343
H143	H	-0.329522	1.135530	-0.049905
C144	C	-0.429837	1.154453	-0.050735
N145	N	-0.455526	1.213720	-0.053350
H146	H	0.125013	0.832885	0.837713
C147	C	0.167257	0.763247	0.490575
N148	N	0.194462	0.718376	0.470449
H149	H	0.066585	0.542373	-0.107757
H150	H	0.125058	0.832812	0.089157
H151	H	-0.706884	1.057242	-0.046451
H152	H	-0.798355	1.055717	-0.046377
C153	C	-0.003469	1.044701	0.072141
N154	N	-0.030679	1.089550	0.048032
H155	H	0.064313	0.319820	-0.141923
H156	H	-0.480767	1.133022	-0.049783
H157	H	-0.572234	1.131496	-0.049709
H158	H	0.157880	0.778719	0.434174
H159	H	0.157883	0.778717	0.337270
H160	H	-0.026922	1.083451	0.580904
C161	C	-0.676951	0.775768	-0.034067
N162	N	-0.651260	0.716503	-0.031460
C163	C	-0.393818	0.708432	-0.031101
N164	N	-0.409880	0.648473	-0.028457
H165	H	-0.539532	0.726613	-0.031907
C166	C	-0.003494	1.044791	0.723777
N167	N	-0.030690	1.089659	0.699664
H168	H	-0.026918	1.083416	0.420659
