data_functionalizedCrystal
_audit_creation_method	'MofGen! by Chris Wilmer'
_symmetry_space_group_name_H-M	'P1'
_symmetry_Int_Tables_number	1
_symmetry_cell_setting	triclinic
loop_
_symmetry_equiv_pos_as_xyz
  x,y,z
_cell_length_a	12.645331
_cell_length_b	19.120786
_cell_length_c	19.121595
_cell_angle_alpha	85.200660
_cell_angle_beta	87.543252
_cell_angle_gamma	92.464092
loop_
_atom_site_label
_atom_site_type_symbol
_atom_site_fract_x
_atom_site_fract_y
_atom_site_fract_z
Zn1	Zn	1.628519	-0.263205	-0.385890
Zn2	Zn	2.128519	0.236795	0.114110
Zn3	Zn	1.612593	-0.385897	-0.263199
Zn4	Zn	2.112593	0.114103	0.236801
Zn5	Zn	1.443350	-0.268241	-0.268237
Zn6	Zn	1.943350	0.231759	0.231763
Zn7	Zn	1.443291	-0.380840	-0.380827
Zn8	Zn	1.943291	0.119160	0.119173
O9	O	1.531938	-0.324546	-0.324538
O10	O	2.031938	0.175454	0.175462
O11	O	1.774754	-0.279489	-0.369625
O12	O	2.274754	0.220511	0.130375
O13	O	1.583503	-0.374514	-0.165402
O14	O	2.083503	0.125486	0.334598
O15	O	1.474603	-0.169102	-0.288071
O16	O	1.974603	0.330898	0.211929
O17	O	1.763053	-0.369630	-0.279485
O18	O	2.263053	0.130370	0.220515
O19	O	1.610645	-0.165402	-0.374510
O20	O	2.110645	0.334598	0.125490
O21	O	1.459160	-0.288072	-0.169103
O22	O	1.959160	0.211928	0.330897
O23	O	1.294995	-0.283168	-0.283161
O24	O	1.794995	0.216832	0.216839
O25	O	1.474502	-0.361012	-0.479964
O26	O	1.974502	0.138988	0.020036
O27	O	1.294952	-0.365895	-0.365880
O28	O	1.794952	0.134105	0.134120
O29	O	1.610588	-0.274585	-0.483684
O30	O	2.110588	0.225415	0.016316
O31	O	1.583446	-0.483697	-0.274576
O32	O	2.083446	0.016303	0.225424
O33	O	1.459060	-0.479981	-0.360996
O34	O	1.959060	0.020019	0.139004
C35	C	1.256508	-0.324530	-0.324518
C36	C	1.756508	0.175470	0.175482
C37	C	1.138678	-0.324539	-0.324526
C38	C	1.638678	0.175461	0.175474
C39	C	0.971143	-0.272233	-0.272798
C40	C	1.471143	0.227767	0.227202
C41	C	1.093677	-0.272385	-0.272554
C42	C	1.593677	0.227615	0.227446
C43	C	1.087809	-0.399529	-0.301100
C44	C	1.587809	0.100471	0.198900
C45	C	0.965206	-0.399246	-0.300744
C46	C	1.465206	0.100754	0.199256
C47	C	0.977789	-0.302552	-0.399859
C48	C	1.477789	0.197448	0.100141
C49	C	1.100478	-0.300914	-0.399516
C50	C	1.600478	0.199086	0.100484
C51	C	1.519548	-0.507371	-0.316705
C52	C	2.019548	-0.007371	0.183295
C53	C	1.514346	-0.585583	-0.313378
C54	C	2.014346	-0.085583	0.186622
C55	C	1.582684	-0.620339	-0.356855
C56	C	2.082684	-0.120339	0.143145
C57	C	1.577792	-0.693828	-0.353730
C58	C	2.077792	-0.193828	0.146270
C59	C	1.504566	-0.732559	-0.307123
C60	C	2.004566	-0.232559	0.192877
C61	C	1.436221	-0.697798	-0.263644
C62	C	1.936221	-0.197798	0.236356
C63	C	1.441109	-0.624311	-0.266773
C64	C	1.941109	-0.124311	0.233227
C65	C	1.486263	-0.954544	-0.295425
C66	C	1.986263	-0.454544	0.204575
C67	C	1.481382	-1.028036	-0.292297
C68	C	1.981382	-0.528036	0.207703
C69	C	1.622953	-1.024061	-0.382385
C70	C	2.122953	-0.524061	0.117615
C71	C	1.627838	-0.950572	-0.385507
C72	C	2.127838	-0.450572	0.114493
C73	C	1.559489	-0.915817	-0.342030
C74	C	2.059489	-0.415817	0.157970
C75	C	1.499566	-0.807677	-0.303926
C76	C	1.999566	-0.307677	0.196074
C77	C	1.564485	-0.840701	-0.345231
C78	C	2.064485	-0.340701	0.154769
C79	C	1.808444	-0.324562	-0.324558
C80	C	2.308444	0.175438	0.175442
C81	C	1.926274	-0.324569	-0.324567
C82	C	2.426274	0.175431	0.175433
C83	C	1.544315	-0.316673	-0.508069
C84	C	2.044315	0.183327	-0.008069
C85	C	1.549589	-0.313318	-0.586278
C86	C	2.049589	0.186682	-0.086278
C87	C	1.544407	-0.141006	-0.332417
C88	C	2.044407	0.358994	0.167583
C89	C	1.549720	-0.062792	-0.335775
C90	C	2.049720	0.437208	0.164225
C91	C	1.481216	-0.356736	-0.621086
C92	C	1.981216	0.143264	-0.121086
C93	C	1.486180	-0.353583	-0.694573
C94	C	1.986180	0.146417	-0.194573
C95	C	1.559514	-0.307009	-0.733250
C96	C	2.059514	0.192991	-0.233250
C97	C	1.627894	-0.263589	-0.698437
C98	C	2.127894	0.236411	-0.198437
C99	C	1.622934	-0.266746	-0.624952
C100	C	2.122934	0.233254	-0.124952
C101	C	1.578039	-0.295231	-0.955225
C102	C	2.078039	0.204769	-0.455225
C103	C	1.582992	-0.292076	-1.028715
C104	C	2.082992	0.207924	-0.528715
C105	C	1.441279	-0.382071	-1.024845
C106	C	1.941279	0.117929	-0.524845
C107	C	1.436321	-0.385221	-0.951359
C108	C	1.936321	0.114779	-0.451359
C109	C	1.504705	-0.341804	-0.916552
C110	C	2.004705	0.158196	-0.416552
C111	C	1.564588	-0.303784	-0.808365
C112	C	2.064588	0.196216	-0.308365
C113	C	1.499636	-0.345033	-0.841438
C114	C	1.999636	0.154967	-0.341438
C115	C	1.519674	-0.332337	-0.141724
C116	C	2.019674	0.167663	0.358276
C117	C	1.514619	-0.335494	-0.063523
C118	C	2.014619	0.164506	0.436477
H119	H	0.935790	-0.286887	-0.217399
H120	H	1.435790	0.213113	0.282601
Br121	Br	1.336828	-0.750361	-0.200400
Br122	Br	1.836828	-0.250361	0.299600
Br123	Br	0.909581	-0.429746	-0.208847
Br124	Br	1.409581	0.070254	0.291153
Br125	Br	1.348480	-0.440993	-1.072086
Br126	Br	1.848480	0.059007	-0.572086
H127	H	1.687465	-0.919038	-0.423458
H128	H	2.187465	-0.419038	0.076542
H129	H	1.687608	-0.225670	-0.729934
H130	H	2.187608	0.274330	-0.229934
Br131	Br	1.715704	-1.071231	-0.441387
Br132	Br	2.215704	-0.571231	0.058613
Br133	Br	1.400120	-0.408242	-0.788947
Br134	Br	1.900120	0.091758	-0.288947
H135	H	1.421748	-1.059570	-0.254344
H136	H	1.921748	-0.559570	0.245656
Br137	Br	1.715737	-0.207824	-0.577712
Br138	Br	2.215737	0.292176	-0.077712
Br139	Br	1.336785	-0.448425	-0.898873
Br140	Br	1.836785	0.051575	-0.398873
H141	H	1.642706	-0.254143	-1.060205
H142	H	2.142706	0.245857	-0.560205
Br143	Br	1.670844	-0.236305	-0.907997
Br144	Br	2.170844	0.263695	-0.407997
Br145	Br	0.915273	-0.466724	-0.360556
Br146	Br	1.415273	0.033276	0.139444
Br147	Br	0.929525	-0.366021	-0.464214
Br148	Br	1.429525	0.133979	0.035786
H149	H	1.128330	-0.216876	-0.287601
H150	H	1.628330	0.283124	0.212399
H151	H	1.624295	-0.265862	-0.839865
H152	H	2.124295	0.234138	-0.339865
H153	H	0.946233	-0.216565	-0.287716
H154	H	1.446233	0.283435	0.212284
H155	H	1.421488	-0.394653	-0.589600
H156	H	1.921488	0.105347	-0.089600
H157	H	1.118419	-0.287191	-0.216824
H158	H	1.618419	0.212809	0.283176
H159	H	1.113761	-0.418078	-0.246536
H160	H	1.613761	0.081922	0.253464
H161	H	1.116721	-0.439702	-0.337484
H162	H	1.616721	0.060298	0.162516
H163	H	1.430505	-0.388940	-0.722909
H164	H	1.930505	0.111060	-0.222909
H165	H	0.951702	-0.248658	-0.420551
H166	H	1.451702	0.251342	0.079449
Br167	Br	1.156833	-0.208916	-0.428872
Br168	Br	1.656833	0.291084	0.071128
Br169	Br	1.152169	-0.359394	-0.467673
Br170	Br	1.652169	0.140606	0.032327
H171	H	1.642317	-0.588808	-0.394804
H172	H	2.142317	-0.088808	0.105196
Br173	Br	1.393490	-0.907385	-0.236429
Br174	Br	1.893490	-0.407385	0.263571
Br175	Br	1.663852	-0.788136	-0.408487
Br176	Br	2.163852	-0.288136	0.091513
H177	H	1.385459	-0.596013	-0.231370
H178	H	1.885459	-0.096013	0.268630
H179	H	1.633448	-0.722123	-0.389129
H180	H	2.133448	-0.222123	0.110871
H181	H	1.439948	-0.839220	-0.265976
H182	H	1.939948	-0.339220	0.234024
