data_functionalizedCrystal
_audit_creation_method	'MofGen! by Chris Wilmer'
_symmetry_space_group_name_H-M	'P1'
_symmetry_Int_Tables_number	1
_symmetry_cell_setting	triclinic
loop_
_symmetry_equiv_pos_as_xyz
  x,y,z
_cell_length_a	23.532355
_cell_length_b	23.532409
_cell_length_c	9.798715
_cell_angle_alpha	89.999924
_cell_angle_beta	90.002144
_cell_angle_gamma	82.838529
loop_
_atom_site_label
_atom_site_type_symbol
_atom_site_fract_x
_atom_site_fract_y
_atom_site_fract_z
O1	O	0.755279	0.068993	-0.113297
O2	O	0.589411	0.079027	-0.113339
O3	O	0.677346	-0.008923	-0.113318
O4	O	0.667344	0.156942	-0.113317
O5	O	0.677340	-0.008923	0.113664
O6	O	0.589405	0.079027	0.113643
O7	O	0.755272	0.068993	0.113685
Zn8	Zn	0.672337	0.074010	0.149703
Zn9	Zn	0.672346	0.074010	-0.149356
O10	O	0.667337	0.156942	0.113665
C11	C	0.568191	0.078776	0.000147
C12	C	0.504973	0.078022	0.000130
C13	C	0.112955	0.073284	0.123915
C14	C	0.053556	0.072566	0.123921
O15	O	0.022834	0.072176	0.229145
N16	N	0.023851	0.072211	0.000193
C17	C	0.053549	0.072567	-0.123548
O18	O	0.022829	0.072198	-0.228787
C19	C	0.112948	0.073280	-0.123552
C20	C	0.142649	0.073641	0.000184
C21	C	0.142657	0.073645	0.247641
C22	C	0.202052	0.074363	0.247635
C23	C	0.231746	0.074721	0.123904
C24	C	0.202044	0.074360	0.000178
C25	C	0.142646	0.073632	-0.247291
C26	C	0.202049	0.074345	-0.247284
C27	C	0.231750	0.074706	-0.123549
C28	C	0.291134	0.075436	-0.123559
N29	N	0.320839	0.075792	0.000168
C30	C	0.291145	0.075434	0.123900
C31	C	-0.071192	0.071068	-0.123530
C32	C	-0.130591	0.070358	-0.123528
C33	C	-0.130580	0.070357	0.123941
C34	C	-0.071181	0.071070	0.123937
C35	C	-0.041487	0.071423	0.000197
C36	C	0.415879	0.076943	0.123878
C37	C	0.475279	0.077664	0.123862
C38	C	0.475263	0.077663	-0.123607
C39	C	0.415868	0.076945	-0.123591
C40	C	0.386177	0.076583	0.000163
O41	O	0.321893	0.075825	-0.228730
O42	O	0.321873	0.075796	0.229122
C43	C	0.677088	-0.030139	0.000169
C44	C	0.676322	-0.093356	0.000159
C45	C	0.673066	-0.366600	-0.123576
C46	C	0.673778	-0.307200	-0.123576
O47	O	0.674169	-0.276475	-0.228798
N48	N	0.674126	-0.277498	0.000154
C49	C	0.673769	-0.307200	0.123893
O50	O	0.674132	-0.276482	0.229135
C51	C	0.673062	-0.366599	0.123891
C52	C	0.672707	-0.396298	0.000153
C53	C	0.672712	-0.396298	-0.247304
C54	C	0.671999	-0.455694	-0.247303
C55	C	0.671641	-0.485392	-0.123574
C56	C	0.671994	-0.455693	0.000154
C57	C	0.672709	-0.396301	0.247628
C58	C	0.672001	-0.455704	0.247616
C59	C	0.671647	-0.485403	0.123878
C60	C	0.670923	-0.544787	0.123883
N61	N	0.670574	-0.574489	0.000153
C62	C	0.670933	-0.544791	-0.123576
C63	C	0.675256	-0.182457	0.123886
C64	C	0.675960	-0.123058	0.123889
C65	C	0.675969	-0.123062	-0.123580
C66	C	0.675262	-0.182462	-0.123581
C67	C	0.674907	-0.212159	0.000156
C68	C	0.669436	-0.669527	-0.123565
C69	C	0.668721	-0.728927	-0.123553
C70	C	0.668714	-0.728918	0.123915
C71	C	0.669426	-0.669522	0.123904
C72	C	0.669789	-0.639828	0.000153
O73	O	0.670534	-0.575550	0.229051
O74	O	0.670578	-0.575518	-0.228800
C75	C	0.776492	0.069243	0.000197
C76	C	0.839711	0.069998	0.000204
C77	C	0.667596	0.178158	0.000174
C78	C	0.668362	0.241375	0.000175
N79	N	0.672336	0.074009	0.353802
N80	N	0.672352	0.074006	-0.353456
C81	C	0.709259	0.036921	0.421588
C82	C	0.709269	0.036919	0.578751
H83	H	0.118474	0.073337	-0.348050
O84	O	0.671631	-0.484460	0.367941
C85	C	0.672111	-0.445507	0.477142
H86	H	0.654587	-0.400706	0.440858
H87	H	0.644251	-0.458893	0.563678
H88	H	0.717883	-0.445424	0.515193
H89	H	0.640741	0.105762	0.588260
O90	O	0.669680	-0.640702	-0.243816
C91	C	0.620181	-0.648510	-0.319089
H92	H	0.585509	-0.660128	-0.246677
H93	H	0.604086	-0.607196	-0.375242
H94	H	0.630921	-0.684520	-0.396214
H95	H	-0.154767	0.070065	0.224690
O96	O	0.674995	-0.211377	-0.243698
C97	C	0.723924	-0.252453	-0.251133
H98	H	0.740264	-0.263606	-0.143708
H99	H	0.712332	-0.292704	-0.303527
H100	H	0.758740	-0.234265	-0.312175
O101	O	0.746958	-0.001042	0.648135
C102	C	0.737861	-0.057340	0.613346
H103	H	0.715938	-0.057133	0.509569
H104	H	0.780764	-0.085728	0.608595
H105	H	0.709524	-0.074684	0.693741
O106	O	0.230800	0.074716	-0.367612
C107	C	0.191845	0.074230	-0.476809
H108	H	0.147043	0.091750	-0.440525
H109	H	0.205225	0.102092	-0.563351
H110	H	0.191767	0.028457	-0.514853
O111	O	0.672950	-0.367394	-0.367440
C112	C	0.624001	-0.326341	-0.374832
H113	H	0.607692	-0.315179	-0.267390
H114	H	0.635555	-0.286089	-0.427292
H115	H	0.589176	-0.344556	-0.435790
O116	O	0.387103	0.076580	-0.243906
C117	C	0.426049	0.077071	-0.353114
H118	H	0.470854	0.059549	-0.316845
H119	H	0.412662	0.049214	-0.439659
H120	H	0.426124	0.122846	-0.391147
O121	O	0.674820	-0.211350	0.244011
C122	C	0.625068	-0.238962	0.251412
H123	H	0.608527	-0.245628	0.143976
H124	H	0.635654	-0.282240	0.303812
H125	H	0.590793	-0.211348	0.312432
H126	H	0.499450	0.077956	-0.224345
O127	O	0.676320	-0.094303	0.244210
C128	C	0.675834	-0.133257	0.353406
H129	H	0.693362	-0.178058	0.317127
H130	H	0.703689	-0.119872	0.439960
H131	H	0.630060	-0.133342	0.391432
O132	O	0.504046	0.077987	0.244187
C133	C	0.465093	0.077529	0.353391
H134	H	0.425214	0.058985	0.317114
H135	H	0.486031	0.050082	0.439929
H136	H	0.452536	0.123149	0.391437
H137	H	0.640729	0.105758	0.412119
O138	O	-0.042443	0.071444	-0.243862
C139	C	-0.081402	0.070964	-0.353053
H140	H	-0.126202	0.088485	-0.316758
H141	H	-0.068024	0.098828	-0.439593
H142	H	-0.081484	0.025193	-0.391104
H143	H	0.740863	0.005168	0.363273
O144	O	0.386969	0.076670	0.244003
C145	C	0.345886	0.125594	0.251432
H146	H	0.334732	0.141930	0.144005
H147	H	0.305637	0.113996	0.303822
H148	H	0.364068	0.160415	0.312475
O149	O	0.230972	0.074630	0.367748
C150	C	0.272051	0.025702	0.375168
H151	H	0.283200	0.009369	0.267739
H152	H	0.312304	0.037294	0.427559
H153	H	0.253868	-0.009119	0.436207
H154	H	0.668430	-0.753105	-0.224320
H155	H	0.118486	0.073352	0.348403
O156	O	0.671564	-0.484547	-0.367475
C157	C	0.621834	-0.512192	-0.374927
H158	H	0.587558	-0.489600	-0.304722
H159	H	0.605279	-0.510595	-0.484374
H160	H	0.632450	-0.558735	-0.341714
O161	O	0.676212	-0.094148	-0.243712
C162	C	0.627266	-0.053090	-0.251091
H163	H	0.610953	-0.041941	-0.143646
H164	H	0.638827	-0.012834	-0.303517
H165	H	0.592442	-0.071295	-0.312076
H166	H	0.673003	-0.372132	0.348389
H167	H	0.669692	-0.645338	0.224662
H168	H	-0.047002	0.071365	0.224694
H169	H	0.668420	-0.753108	0.224651
H170	H	-0.154769	0.070073	-0.224286
