data_functionalizedCrystal
_audit_creation_method	'MofGen! by Chris Wilmer'
_symmetry_space_group_name_H-M	'P1'
_symmetry_Int_Tables_number	1
_symmetry_cell_setting	triclinic
loop_
_symmetry_equiv_pos_as_xyz
  x,y,z
_cell_length_a	31.640172
_cell_length_b	21.606444
_cell_length_c	21.606444
_cell_angle_alpha	59.991153
_cell_angle_beta	89.996430
_cell_angle_gamma	59.996615
loop_
_atom_site_label
_atom_site_type_symbol
_atom_site_fract_x
_atom_site_fract_y
_atom_site_fract_z
Zr1	Zr	0.407177	0.677452	-0.081360
O2	O	0.339685	0.806597	-0.180205
O3	O	0.427867	0.548317	-0.051044
O4	O	0.427863	0.677453	-0.180188
O5	O	0.339693	0.677456	0.050794
O6	O	0.497419	0.677443	-0.180192
O7	O	0.339689	0.677461	-0.051060
O8	O	0.497426	0.446442	0.050823
O9	O	0.339686	0.908457	-0.180222
O10	O	0.488600	0.601421	-0.038136
O11	O	0.436693	0.601425	0.037880
O12	O	0.436689	0.753466	-0.114171
O13	O	0.384782	0.753471	-0.038155
Zr14	Zr	0.518117	0.677428	0.081079
Zr15	Zr	0.518111	0.677435	-0.081367
Zr16	Zr	0.407183	0.677445	0.081085
Zr17	Zr	0.407178	0.839907	-0.081387
Zr18	Zr	0.518116	0.514973	0.081106
O19	O	0.497427	0.806563	0.050763
O20	O	0.497419	0.806573	-0.180214
O21	O	0.339693	0.806587	0.050772
O22	O	0.585609	0.548284	0.179923
O23	O	0.585601	0.548294	-0.051053
O24	O	0.427875	0.548307	0.179933
O25	O	0.585601	0.677424	-0.051075
O26	O	0.497431	0.677427	0.179907
O27	O	0.427875	0.677438	0.179911
O28	O	0.585605	0.677419	0.050779
O29	O	0.427863	0.908444	-0.180227
O30	O	0.497430	0.446437	0.179946
O31	O	0.585608	0.446424	0.179940
O32	O	0.585604	0.446429	0.050818
O33	O	0.339690	0.908451	-0.051099
O34	O	0.427868	0.908438	-0.051104
O35	O	0.488605	0.601414	0.113889
O36	O	0.540511	0.601410	0.037874
O37	O	0.488600	0.753455	-0.038161
O38	O	0.436694	0.753460	0.037855
C39	C	0.462646	0.474233	-0.000107
C40	C	0.462646	0.405267	-0.000095
C41	C	0.424323	0.429010	-0.056221
C42	C	0.424325	0.364221	-0.056237
C43	C	0.462647	0.275689	-0.000123
C44	C	0.500973	0.251946	0.056006
C45	C	0.500973	0.316735	0.056018
C46	C	0.500973	-0.009340	0.055959
C47	C	0.500969	-0.074129	0.055944
C48	C	0.424324	0.038145	-0.056296
C49	C	0.424324	0.102934	-0.056284
C50	C	0.462652	0.079186	-0.000158
C51	C	0.462651	0.149439	-0.000143
C52	C	0.462646	0.205437	-0.000135
C53	C	0.323885	0.677461	-0.000132
C54	C	0.276791	0.677468	-0.000130
C55	C	-0.015217	0.677427	-0.056251
C56	C	-0.192203	0.677416	-0.056257
O57	O	-0.215077	0.677379	-0.103960
N58	N	-0.214332	0.677415	-0.000145
C59	C	-0.192209	0.677412	0.055974
O60	O	-0.215089	0.677402	0.103705
C61	C	-0.015222	0.677416	0.055982
C62	C	0.006902	0.677426	-0.000137
C63	C	0.006907	0.677435	-0.112366
C64	C	0.051149	0.677443	-0.112366
C65	C	0.073268	0.677442	-0.056252
C66	C	0.051144	0.677433	-0.000138
C67	C	0.006902	0.677406	0.112105
C68	C	0.051153	0.677405	0.112103
C69	C	0.073276	0.677415	0.055983
C70	C	0.117505	0.677440	0.055976
N71	N	0.139634	0.677440	-0.000135
C72	C	0.117515	0.677441	-0.056250
C73	C	-0.285131	0.677411	0.055965
C74	C	-0.329378	0.677411	0.055963
C75	C	-0.329369	0.677414	-0.056268
C76	C	-0.285123	0.677420	-0.056268
C77	C	-0.263002	0.677411	-0.000146
C78	C	0.210427	0.677458	-0.056247
C79	C	0.254672	0.677469	-0.056244
C80	C	0.254660	0.677462	0.055989
C81	C	0.210417	0.677455	0.055984
C82	C	0.188303	0.677450	-0.000137
O83	O	0.140410	0.677467	0.103659
O84	O	0.140409	0.677432	-0.103963
C85	C	-0.059459	0.677419	-0.056251
C86	C	-0.081583	0.677411	-0.000136
C87	C	-0.059464	0.677410	0.055978
C88	C	-0.125830	0.677411	-0.000139
C89	C	-0.147949	0.677412	-0.056253
C90	C	-0.125820	0.677413	-0.112365
C91	C	-0.081578	0.677420	-0.112365
C92	C	-0.081593	0.677409	0.112089
C93	C	-0.125836	0.677403	0.112085
C94	C	-0.147954	0.677404	0.055971
C95	C	0.601409	0.677419	-0.000149
C96	C	0.648503	0.677412	-0.000152
C97	C	0.462640	0.677449	-0.203335
C98	C	0.462637	0.677452	-0.272298
C99	C	0.462648	0.880647	-0.000175
C100	C	0.462648	0.949613	-0.000186
C101	C	0.435540	0.756817	-0.344386
C102	C	0.435545	0.756815	-0.409181
C103	C	0.462644	0.677446	-0.401886
C104	C	0.489744	0.598075	-0.329790
C105	C	0.489743	0.598078	-0.264997
C106	C	0.489753	0.598059	-0.591093
C107	C	0.489751	0.598062	-0.655894
C108	C	0.435555	0.756796	-0.735277
C109	C	0.435553	0.756800	-0.670484
C110	C	0.462655	0.677429	-0.598394
C111	C	0.462651	0.677432	-0.528136
C112	C	0.462645	0.677442	-0.472142
C113	C	0.462654	0.677431	0.203054
C114	C	0.462656	0.677428	0.272016
C115	C	0.601408	0.474213	-0.000115
C116	C	0.648502	0.405239	-0.000106
C117	C	0.462653	0.474225	0.203088
C118	C	0.462655	0.405255	0.272062
C119	C	0.601415	0.474204	0.203080
C120	C	0.648511	0.405227	0.272051
C121	C	0.323879	0.880676	-0.203361
C122	C	0.276782	0.949653	-0.272332
C123	C	0.323886	0.880668	-0.000166
C124	C	0.276792	0.949641	-0.000175
C125	C	0.462641	0.880656	-0.203369
C126	C	0.462638	0.949625	-0.272343
C127	C	0.643521	0.372854	-0.039785
C128	C	0.687766	0.308055	-0.039792
C129	C	0.736993	0.275638	-0.000115
C130	C	0.741973	0.308029	0.039565
C131	C	0.697728	0.372831	0.039567
C132	C	0.489754	0.372861	0.344136
C133	C	0.489754	0.308066	0.408950
C134	C	0.462658	0.275662	0.401689
C135	C	0.435556	0.308063	0.329608
C136	C	0.435554	0.372861	0.264795
C137	C	0.697728	0.372833	0.264761
C138	C	0.741984	0.308031	0.329561
C139	C	0.737023	0.275621	0.401649
C140	C	0.687802	0.308021	0.408938
C141	C	0.643546	0.372826	0.344139
C142	C	0.227566	0.982055	-0.265042
C143	C	0.183310	1.046877	-0.329842
C144	C	0.188270	1.079291	-0.401930
C145	C	0.237492	1.046886	-0.409219
C146	C	0.281747	0.982070	-0.344420
C147	C	0.281773	0.982033	0.039497
C148	C	0.237527	1.046850	0.039486
C149	C	0.188301	1.079270	-0.000193
C150	C	0.183320	1.046875	-0.039870
C151	C	0.227566	0.982064	-0.039863
C152	C	0.489739	0.982008	-0.265058
C153	C	0.489747	1.046804	-0.329860
C154	C	0.462651	1.079219	-0.401947
C155	C	0.435550	1.046830	-0.409230
C156	C	0.435545	0.982031	-0.344429
H157	H	0.532177	-0.146219	0.101641
H158	H	0.511818	0.399237	0.350062
O159	O	0.789803	0.276656	0.322503
C160	C	0.817023	0.292485	0.357600
H161	H	0.788311	0.349272	0.360595
H162	H	0.843297	0.231314	0.417371
C163	C	0.885318	0.245951	0.307476
C164	C	0.850052	0.315703	0.311148
H165	H	0.905694	0.260269	0.278824
H166	H	0.866980	0.235283	0.283832
H167	H	0.907207	0.194982	0.357288
H168	H	0.828160	0.366668	0.261337
H169	H	0.868387	0.326380	0.334782
H170	H	0.413480	0.821442	-0.467876
O171	O	0.387003	0.387272	-0.110607
C172	C	0.358979	0.353169	-0.076152
H173	H	0.383747	0.294630	-0.014910
H174	H	0.322122	0.405792	-0.077273
C175	C	0.314280	0.395808	-0.194947
C176	C	0.344702	0.323904	-0.119730
H177	H	0.305471	0.377760	-0.221829
H178	H	0.333159	0.418787	-0.218161
H179	H	0.283570	0.439655	-0.195871
H180	H	0.375415	0.280065	-0.118807
H181	H	0.325828	0.300918	-0.096516
H182	H	0.143236	1.073250	-0.323893
H183	H	0.511825	0.281692	0.467636
O184	O	-0.350878	0.677297	0.110490
C185	C	-0.350712	0.601879	0.151573
H186	H	-0.348757	0.576740	0.115425
H187	H	-0.315629	0.549075	0.205669
C188	C	-0.402964	0.655659	0.216601
C189	C	-0.400568	0.624788	0.172201
H190	H	-0.433716	0.669788	0.229329
H191	H	-0.403075	0.706469	0.188925
H192	H	-0.373726	0.611651	0.261676
H193	H	-0.429802	0.668800	0.127124
H194	H	-0.400464	0.573986	0.199870
O195	O	-0.014588	0.677277	0.166640
C196	C	-0.014419	0.601856	0.207720
H197	H	-0.012468	0.576724	0.171568
H198	H	0.020666	0.549050	0.261812
C199	C	-0.066664	0.655618	0.272764
C200	C	-0.064271	0.624755	0.228359
H201	H	-0.097413	0.669741	0.285499
H202	H	-0.066776	0.706430	0.245090
H203	H	-0.037423	0.611608	0.317836
H204	H	-0.093508	0.668769	0.183285
H205	H	-0.064165	0.573951	0.256026
H206	H	0.223517	0.955667	-0.206350
O207	O	0.242308	1.078284	0.078095
C208	C	0.218346	1.062434	0.133799
H209	H	0.188179	1.054399	0.117113
H210	H	0.248770	1.000105	0.190717
C211	C	0.228876	1.150042	0.160792
C212	C	0.191821	1.140180	0.140295
H213	H	0.212516	1.197996	0.164802
H214	H	0.245022	1.160718	0.123265
H215	H	0.254227	1.098095	0.208222
H216	H	0.166475	1.192121	0.092862
H217	H	0.175671	1.129514	0.177814
O218	O	0.789806	0.276389	0.078208
C219	C	0.817018	0.185577	0.133883
H220	H	0.788298	0.167862	0.148629
H221	H	0.843261	0.148524	0.111161
C222	C	0.885362	0.182119	0.187362
C223	C	0.850087	0.160363	0.205478
H224	H	0.905763	0.166564	0.231525
H225	H	0.867030	0.243300	0.149852
H226	H	0.907226	0.151240	0.168426
H227	H	0.828220	0.191250	0.224405
H228	H	0.868417	0.099186	0.242994
H229	H	0.223502	0.955692	-0.072167
O230	O	0.387164	0.515037	-0.110751
C231	C	0.410613	0.555877	-0.151814
H232	H	0.452468	0.516849	-0.115653
H233	H	0.409730	0.558614	-0.205912
C234	C	0.329476	0.697448	-0.216856
C235	C	0.380882	0.649517	-0.172439
H236	H	0.311135	0.755211	-0.229581
H237	H	0.313676	0.669934	-0.189193
H238	H	0.328747	0.699720	-0.261932
H239	H	0.381610	0.647236	-0.127360
H240	H	0.396680	0.677033	-0.200095
H241	H	0.321820	0.955688	-0.350365
H242	H	0.773063	0.222852	0.454407
H243	H	0.511820	0.533427	-0.649946
H244	H	0.413489	0.399228	0.206112
H245	H	0.152231	1.132068	-0.454688
O246	O	0.538249	0.165989	0.110555
C247	C	0.572065	0.158928	0.160108
H248	H	0.570245	0.221569	0.129880
H249	H	0.559999	0.148556	0.212284
C250	C	0.630000	0.003670	0.221714
C251	C	0.627767	0.080604	0.184586
H252	H	0.664359	-0.044646	0.236816
H253	H	0.607216	0.008426	0.188331
H254	H	0.619942	-0.004961	0.265190
H255	H	0.637819	0.089240	0.141106
H256	H	0.650554	0.075848	0.217962
O257	O	0.702663	0.404156	0.078188
C258	C	0.755601	0.361655	0.113189
H259	H	0.779191	0.295979	0.121036
H260	H	0.768638	0.404152	0.076000
C261	C	0.734976	0.427202	0.181423
C262	C	0.763950	0.346534	0.191066
H263	H	0.740126	0.417878	0.229460
H264	H	0.699311	0.455838	0.157840
H265	H	0.745843	0.462608	0.150429
H266	H	0.753077	0.311134	0.222052
H267	H	0.799613	0.317891	0.214657
H268	H	0.511816	1.073169	-0.323914
O269	O	0.409235	1.078451	-0.479314
C270	C	0.415063	1.142575	-0.534939
H271	H	0.425050	1.170890	-0.509674
H272	H	0.447502	1.111574	-0.555208
C273	C	0.351852	1.181471	-0.633479
C274	C	0.364114	1.216254	-0.602450
H275	H	0.320425	1.226919	-0.675125
H276	H	0.347926	1.138268	-0.596005
H277	H	0.378888	1.155638	-0.650364
H278	H	0.337081	1.242077	-0.585558
H279	H	0.368034	1.259464	-0.639923
H280	H	0.683770	0.281623	0.467641
O281	O	0.538225	-0.032563	0.110555
C282	C	0.572054	-0.124596	0.160068
H283	H	0.551405	-0.154321	0.157386
H284	H	0.607683	-0.148740	0.142399
C285	C	0.614131	-0.115852	0.244937
C286	C	0.588769	-0.152360	0.241648
H287	H	0.624444	-0.132979	0.295260
H288	H	0.591342	-0.053847	0.211578
H289	H	0.643819	-0.135975	0.230209
H290	H	0.559078	-0.132229	0.256366
H291	H	0.611553	-0.214362	0.275011
O292	O	0.387072	0.061119	-0.110721
C293	C	0.359030	0.027009	-0.076374
H294	H	0.383730	-0.031454	-0.015088
H295	H	0.322103	0.079665	-0.077642
C296	C	0.314578	0.069396	-0.195205
C297	C	0.344917	-0.002413	-0.119934
H298	H	0.305871	0.051251	-0.222076
H299	H	0.333469	0.092380	-0.218346
H300	H	0.283809	0.113271	-0.196252
H301	H	0.375689	-0.046281	-0.118888
H302	H	0.326031	-0.025405	-0.096793
O303	O	0.595777	0.404160	0.351361
C304	C	0.600896	0.361665	0.428885
H305	H	0.640389	0.295985	0.463438
H306	H	0.597268	0.404162	0.447971
C307	C	0.509532	0.427227	0.398674
C308	C	0.558037	0.346555	0.441112
H309	H	0.483094	0.417909	0.406216
H310	H	0.506083	0.455860	0.346444
H311	H	0.506516	0.462633	0.414583
H312	H	0.561055	0.311154	0.425196
H313	H	0.561486	0.317915	0.493339
O314	O	0.538132	0.293781	0.110559
C315	C	0.514684	0.327869	0.151637
H316	H	0.472829	0.386310	0.115482
H317	H	0.515571	0.275190	0.205729
C318	C	0.595823	0.285544	0.216687
C319	C	0.544416	0.357327	0.172278
H320	H	0.614163	0.303711	0.229422
H321	H	0.611621	0.262575	0.189014
H322	H	0.596554	0.241651	0.261757
H323	H	0.543685	0.401213	0.127204
H324	H	0.528619	0.380304	0.199943
O325	O	-0.263721	0.677560	0.110424
C326	C	-0.300292	0.752956	0.106860
H327	H	-0.330444	0.805663	0.047664
H328	H	-0.320162	0.735907	0.150364
C329	C	-0.235633	0.722408	0.196868
C330	C	-0.272665	0.787147	0.124161
H331	H	-0.218592	0.743498	0.207543
H332	H	-0.210995	0.671611	0.199272
H333	H	-0.252198	0.708207	0.233112
H334	H	-0.256099	0.801339	0.087917
H335	H	-0.297300	0.837948	0.121751
H336	H	0.511821	0.533431	-0.532403
O337	O	0.242214	1.078442	-0.479305
C338	C	0.192596	1.142608	-0.534926
H339	H	0.163273	1.131965	-0.509653
H340	H	0.181324	1.210388	-0.555206
C341	C	0.229249	1.148590	-0.633467
C342	C	0.193234	1.135513	-0.602429
H343	H	0.229642	1.144217	-0.675108
H344	H	0.262678	1.105362	-0.595995
H345	H	0.219851	1.205073	-0.650361
H346	H	0.202636	1.079027	-0.585527
H347	H	0.159807	1.178731	-0.639900
H348	H	0.462664	0.222899	0.454470
O349	O	0.189001	0.677495	-0.110838
C350	C	0.218030	0.677482	-0.160349
H351	H	0.240154	0.705049	-0.157673
H352	H	0.246591	0.607634	-0.142673
C353	C	0.154099	0.700728	-0.245211
C354	C	0.181269	0.734593	-0.241928
H355	H	0.131424	0.735952	-0.295532
H356	H	0.134542	0.700733	-0.211853
H357	H	0.177905	0.642521	-0.230477
H358	H	0.157463	0.792794	-0.256652
H359	H	0.200821	0.734598	-0.275290
O360	O	0.409186	0.833979	-0.805251
C361	C	0.385277	0.904030	-0.797793
H362	H	0.379911	0.880762	-0.739969
H363	H	0.410670	0.928430	-0.803104
C364	C	0.338698	1.007597	-0.931603
C365	C	0.332104	0.979021	-0.860585
H366	H	0.305900	1.053858	-0.970337
H367	H	0.354808	0.960404	-0.936629
H368	H	0.359861	1.027925	-0.936018
H369	H	0.310947	0.958684	-0.856167
H370	H	0.315990	1.026214	-0.855560
H371	H	0.152278	1.132043	-0.000193
H372	H	0.321852	0.955642	0.071813
H373	H	0.511804	0.955625	-0.206367
H374	H	0.462659	1.131983	-0.454706
H375	H	0.143234	1.073281	-0.072176
H376	H	0.413474	0.955672	-0.350371
H377	H	0.272683	0.677479	-0.101946
O378	O	0.072588	0.677404	-0.166913
C379	C	0.043564	0.677423	-0.216443
H380	H	0.021435	0.649860	-0.186201
H381	H	0.015007	0.747273	-0.268630
C382	C	0.107506	0.654173	-0.278046
C383	C	0.080331	0.620313	-0.240900
H384	H	0.130185	0.618949	-0.293135
H385	H	0.127060	0.654164	-0.244679
H386	H	0.083704	0.712381	-0.321531
H387	H	0.104133	0.562110	-0.197411
H388	H	0.060782	0.620311	-0.274261
H389	H	0.393117	0.175019	-0.101976
H390	H	0.413496	0.281670	0.323707
H391	H	-0.011097	0.677433	-0.158061
H392	H	0.413484	0.821430	-0.676430
O393	O	-0.263684	0.677383	-0.110814
C394	C	-0.292709	0.677410	-0.160351
H395	H	-0.314839	0.649848	-0.130114
H396	H	-0.321264	0.747262	-0.212536
C397	C	-0.228765	0.654163	-0.221952
C398	C	-0.255942	0.620304	-0.184812
H399	H	-0.206086	0.618942	-0.237044
H400	H	-0.209211	0.654149	-0.188580
H401	H	-0.252566	0.712373	-0.265435
H402	H	-0.232141	0.562100	-0.141325
H403	H	-0.275491	0.620308	-0.218177
H404	H	0.701777	0.399212	0.206069
O405	O	0.072556	0.677452	0.166650
C406	C	0.043543	0.677427	0.216184
H407	H	0.002594	0.704977	0.185947
H408	H	0.062692	0.607577	0.268375
C409	C	0.091591	0.700704	0.277770
C410	C	0.041296	0.734548	0.240632
H411	H	0.090207	0.735935	0.292855
H412	H	0.111139	0.700717	0.244401
H413	H	0.107543	0.642496	0.321258
H414	H	0.025347	0.792751	0.197140
H415	H	0.021745	0.734546	0.273995
H416	H	-0.347386	0.677416	-0.101959
H417	H	0.192400	0.677460	0.101675
H418	H	0.272675	0.677465	0.101675
H419	H	0.511808	0.533450	-0.206299
O420	O	-0.060140	0.677385	-0.166913
C421	C	-0.089165	0.677406	-0.216445
H422	H	-0.111292	0.649839	-0.186202
H423	H	-0.117724	0.747257	-0.268630
C424	C	-0.025226	0.654166	-0.278053
C425	C	-0.052399	0.620301	-0.240906
H426	H	-0.002547	0.618945	-0.293146
H427	H	-0.005672	0.654155	-0.244685
H428	H	-0.049029	0.712375	-0.321536
H429	H	-0.028596	0.562098	-0.197419
H430	H	-0.071948	0.620301	-0.274268
H431	H	-0.143838	0.677418	-0.158057
H432	H	-0.063587	0.677407	0.157785
O433	O	0.409207	0.833996	-0.351611
C434	C	0.385281	0.904044	-0.429135
H435	H	0.406536	0.880770	-0.463683
H436	H	0.343224	0.928453	-0.448232
C437	C	0.361141	1.007614	-0.398918
C438	C	0.387250	0.979030	-0.441351
H439	H	0.362352	1.053871	-0.406454
H440	H	0.377258	0.960422	-0.346689
H441	H	0.326095	1.027949	-0.414837
H442	H	0.422296	0.958687	-0.425425
H443	H	0.371138	1.026221	-0.493578
O444	O	0.516024	0.521052	-0.322834
C445	C	0.510197	0.538060	-0.395478
H446	H	0.473587	0.606262	-0.438426
H447	H	0.545192	0.534316	-0.412027
C448	C	0.550976	0.385802	-0.341708
C449	C	0.506009	0.469565	-0.394457
H450	H	0.548395	0.343549	-0.341079
H451	H	0.554904	0.374341	-0.292766
H452	H	0.580134	0.382694	-0.355506
H453	H	0.476853	0.472675	-0.380654
H454	H	0.502076	0.481024	-0.443397
H455	H	0.683701	0.281690	-0.072104
H456	H	-0.143848	0.677402	0.157783
H457	H	0.773016	0.222871	-0.000122
O458	O	0.595744	0.404269	-0.078397
C459	C	0.600846	0.361765	-0.113402
H460	H	0.640332	0.335061	-0.121255
H461	H	0.597222	0.305482	-0.076211
C462	C	0.509476	0.460239	-0.181624
C463	C	0.557973	0.427446	-0.191275
H464	H	0.483029	0.500751	-0.229659
H465	H	0.506038	0.488872	-0.158039
H466	H	0.506464	0.413328	-0.150630
H467	H	0.560987	0.474355	-0.222261
H468	H	0.561410	0.398822	-0.214868
