data_functionalizedCrystal
_audit_creation_method	'MofGen! by Chris Wilmer'
_symmetry_space_group_name_H-M	'P1'
_symmetry_Int_Tables_number	1
_symmetry_cell_setting	triclinic
loop_
_symmetry_equiv_pos_as_xyz
  x,y,z
_cell_length_a	14.519709
_cell_length_b	14.519709
_cell_length_c	7.540329
_cell_angle_alpha	89.995460
_cell_angle_beta	90.002655
_cell_angle_gamma	83.680145
loop_
_atom_site_label
_atom_site_type_symbol
_atom_site_fract_x
_atom_site_fract_y
_atom_site_fract_z
O1	O	1.223866	0.120890	-0.147255
O2	O	1.473866	0.370890	0.102745
O3	O	1.723866	0.620890	0.352745
O4	O	1.973866	0.870890	0.602745
O5	O	0.955389	0.135126	-0.147310
O6	O	1.205389	0.385126	0.102690
O7	O	1.455389	0.635126	0.352690
O8	O	1.705389	0.885126	0.602690
O9	O	1.096745	-0.006230	-0.147265
O10	O	1.346745	0.243770	0.102735
O11	O	1.596745	0.493770	0.352735
O12	O	1.846745	0.743770	0.602735
O13	O	1.082509	0.262247	-0.147300
O14	O	1.332509	0.512247	0.102700
O15	O	1.582509	0.762247	0.352700
O16	O	1.832509	1.012247	0.602700
O17	O	1.096737	-0.006232	0.147700
O18	O	1.346737	0.243768	0.397700
O19	O	1.596737	0.493768	0.647700
O20	O	1.846737	0.743768	0.897700
O21	O	0.955380	0.135125	0.147655
O22	O	1.205380	0.385125	0.397655
O23	O	1.455380	0.635125	0.647655
O24	O	1.705380	0.885125	0.897655
O25	O	1.223857	0.120888	0.147710
O26	O	1.473857	0.370888	0.397710
O27	O	1.723857	0.620888	0.647710
O28	O	1.973857	0.870888	0.897710
Cu29	Cu	1.089618	0.128006	0.174615
Cu30	Cu	1.339618	0.378006	0.424615
Cu31	Cu	1.589618	0.628006	0.674615
Cu32	Cu	1.839618	0.878006	0.924615
Cu33	Cu	1.089628	0.128008	-0.174215
Cu34	Cu	1.339628	0.378008	0.075785
Cu35	Cu	1.589628	0.628008	0.325785
Cu36	Cu	1.839628	0.878008	0.575785
O37	O	1.082500	0.262245	0.147665
O38	O	1.332500	0.512245	0.397665
O39	O	1.582500	0.762245	0.647665
O40	O	1.832500	1.012245	0.897665
C41	C	0.921025	0.134462	0.000166
C42	C	1.171025	0.384462	0.250166
C43	C	1.421025	0.634462	0.500166
C44	C	1.671025	0.884462	0.750166
C45	C	0.818643	0.132474	0.000145
C46	C	1.068643	0.382474	0.250145
C47	C	1.318643	0.632474	0.500145
C48	C	1.568643	0.882474	0.750145
C49	C	0.443748	0.125154	0.000227
C50	C	0.693748	0.375154	0.250227
C51	C	0.943748	0.625154	0.500227
C52	C	1.193748	0.875154	0.750227
C53	C	0.548056	0.127187	0.000204
C54	C	0.798056	0.377187	0.250204
C55	C	1.048056	0.627187	0.500204
C56	C	1.298056	0.877187	0.750204
C57	C	0.631192	0.128814	0.000184
C58	C	0.881192	0.378814	0.250184
C59	C	1.131192	0.628814	0.500184
C60	C	1.381192	0.878814	0.750184
C61	C	0.735507	0.130847	0.000164
C62	C	0.985507	0.380847	0.250164
C63	C	1.235507	0.630847	0.500164
C64	C	1.485507	0.880847	0.750164
C65	C	1.096078	-0.040591	0.000217
C66	C	1.346078	0.209409	0.250217
C67	C	1.596078	0.459409	0.500217
C68	C	1.846078	0.709409	0.750217
C69	C	1.094090	-0.142972	0.000218
C70	C	1.344090	0.107028	0.250218
C71	C	1.594090	0.357028	0.500218
C72	C	1.844090	0.607028	0.750218
C73	C	1.086770	-0.517868	0.000170
C74	C	1.336770	-0.267868	0.250170
C75	C	1.586770	-0.017868	0.500170
C76	C	1.836770	0.232132	0.750170
C77	C	1.088803	-0.413560	0.000184
C78	C	1.338803	-0.163560	0.250184
C79	C	1.588803	0.086440	0.500184
C80	C	1.838803	0.336440	0.750184
C81	C	1.090430	-0.330423	0.000196
C82	C	1.340430	-0.080423	0.250196
C83	C	1.590430	0.169577	0.500196
C84	C	1.840430	0.419577	0.750196
C85	C	1.092463	-0.226109	0.000206
C86	C	1.342463	0.023891	0.250206
C87	C	1.592463	0.273891	0.500206
C88	C	1.842463	0.523891	0.750206
C89	C	1.258221	0.121553	0.000230
C90	C	1.508221	0.371553	0.250230
C91	C	1.758221	0.621553	0.500230
C92	C	2.008221	0.871553	0.750230
C93	C	1.360602	0.123541	0.000239
C94	C	1.610602	0.373541	0.250239
C95	C	1.860602	0.623541	0.500239
C96	C	2.110602	0.873541	0.750239
C97	C	1.083168	0.296606	0.000178
C98	C	1.333168	0.546606	0.250178
C99	C	1.583168	0.796606	0.500178
C100	C	1.833168	1.046606	0.750178
C101	C	1.085156	0.398987	0.000166
C102	C	1.335156	0.648987	0.250166
C103	C	1.585156	0.898987	0.500166
C104	C	1.835156	1.148987	0.750166
N105	N	1.089618	0.128004	0.419963
N106	N	1.339618	0.378004	0.669963
N107	N	1.589618	0.628004	0.919963
N108	N	1.839618	0.878004	1.169963
N109	N	1.089635	0.128003	-0.419564
N110	N	1.339635	0.378003	-0.169564
N111	N	1.589635	0.628003	0.080436
N112	N	1.839635	0.878003	0.330436
