data_functionalizedCrystal
_audit_creation_method	'MofGen! by Chris Wilmer'
_symmetry_space_group_name_H-M	'P1'
_symmetry_Int_Tables_number	1
_symmetry_cell_setting	triclinic
loop_
_symmetry_equiv_pos_as_xyz
  x,y,z
_cell_length_a	11.792254
_cell_length_b	10.268362
_cell_length_c	17.699083
_cell_angle_alpha	90.006174
_cell_angle_beta	83.740806
_cell_angle_gamma	90.004525
loop_
_atom_site_label
_atom_site_type_symbol
_atom_site_fract_x
_atom_site_fract_y
_atom_site_fract_z
O1	O	1.505656	0.108302	0.103782
O2	O	1.175189	0.108305	0.114463
O3	O	1.349759	0.108292	-0.001016
O4	O	1.331086	0.108315	0.219262
O5	O	1.349744	-0.108309	-0.001021
O6	O	1.175174	-0.108296	0.114459
O7	O	1.505641	-0.108299	0.103778
Cu8	Cu	1.340406	-0.128074	0.109118
Cu9	Cu	1.340424	0.128081	0.109123
O10	O	1.331071	-0.108286	0.219257
C11	C	1.132899	0.000005	0.113788
C12	C	1.006910	0.000006	0.111774
N13	N	1.340402	-0.308240	0.109113
C14	C	0.904593	0.000011	0.110138
C15	C	0.776231	0.000012	0.108092
C16	C	1.340418	-0.573911	0.109122
C17	C	1.340406	-0.426073	0.109119
C18	C	1.547931	0.000004	0.104453
C19	C	1.673920	0.000012	0.106467
C20	C	1.349083	-0.000009	-0.029219
C21	C	1.347075	-0.000009	-0.113248
N22	N	1.340437	0.308247	0.109122
C23	C	1.449544	-0.000012	-0.161320
C24	C	1.447651	-0.000000	-0.240273
C25	C	1.343288	0.000005	-0.271153
C26	C	1.240812	0.000011	-0.223076
C27	C	1.242706	0.000009	-0.144124
C28	C	1.233171	0.000022	-0.541480
C29	C	1.231285	0.000020	-0.620438
C30	C	1.438117	0.000013	-0.637629
C31	C	1.440011	0.000010	-0.558677
C32	C	1.337535	0.000024	-0.510606
C33	C	1.339588	0.000014	-0.424996
C34	C	1.341234	0.000005	-0.356762
C35	C	1.331748	0.000018	0.247460
C36	C	1.333755	0.000027	0.331489
H37	H	1.534529	-0.000024	-0.136184
H38	H	1.531092	-0.000005	-0.279411
O39	O	1.541418	0.000238	-0.528718
C40	C	1.603887	0.112402	-0.553249
H41	H	1.542859	0.190808	-0.569918
H42	H	1.652043	0.150058	-0.505225
H43	H	1.667272	0.087042	-0.604440
O44	O	1.143241	-0.000164	-0.097348
C45	C	1.138122	-0.112358	-0.051182
H46	H	1.228192	-0.149764	-0.046821
H47	H	1.095686	-0.087123	0.007977
H48	H	1.086348	-0.190908	-0.077370
H49	H	1.149728	0.000033	-0.502349
O50	O	1.537561	0.000072	-0.684435
C51	C	1.513520	0.000049	-0.760743
H52	H	1.424387	0.041062	-0.764136
H53	H	1.578857	0.062932	-0.796233
H54	H	1.517875	-0.103864	-0.783565
O55	O	1.139361	-0.000153	-0.252980
C56	C	1.076909	-0.112345	-0.228476
H57	H	1.107689	-0.149747	-0.173600
H58	H	0.982368	-0.087109	-0.217905
H59	H	1.090169	-0.190898	-0.274108
H60	H	1.146295	0.000022	-0.645577
