data_functionalizedCrystal
_audit_creation_method	'MofGen! by Chris Wilmer'
_symmetry_space_group_name_H-M	'P1'
_symmetry_Int_Tables_number	1
_symmetry_cell_setting	triclinic
loop_
_symmetry_equiv_pos_as_xyz
  x,y,z
_cell_length_a	18.050590
_cell_length_b	21.295416
_cell_length_c	18.050583
_cell_angle_alpha	90.037986
_cell_angle_beta	89.999666
_cell_angle_gamma	89.980502
loop_
_atom_site_label
_atom_site_type_symbol
_atom_site_fract_x
_atom_site_fract_y
_atom_site_fract_z
Zn1	Zn	1.135290	0.250746	-0.419593
Zn2	Zn	1.135193	0.356033	-0.295399
Zn3	Zn	1.011106	0.250761	-0.295451
Zn4	Zn	1.011052	0.355962	-0.419582
O5	O	1.073160	0.303375	-0.357506
O6	O	1.239201	0.264736	-0.403101
O7	O	1.118715	0.342104	-0.191481
O8	O	1.027643	0.162670	-0.311945
O9	O	1.239131	0.342090	-0.311857
O10	O	1.118879	0.162659	-0.403151
O11	O	1.027549	0.264762	-0.191519
O12	O	0.907175	0.264693	-0.311934
O13	O	1.027550	0.341968	-0.523508
O14	O	0.907135	0.341983	-0.403132
O15	O	1.118827	0.264667	-0.523516
O16	O	1.118663	0.444113	-0.311846
O17	O	1.027457	0.444060	-0.403082
C18	C	0.880208	0.303332	-0.357538
C19	C	0.797663	0.303329	-0.357569
C20	C	0.598212	0.345480	-0.407045
C21	C	0.548821	0.288079	-0.425322
C22	C	0.646532	0.303364	-0.357533
C23	C	0.548841	0.360798	-0.339255
C24	C	0.500547	0.303403	-0.357499
C25	C	0.598229	0.245933	-0.375846
C26	C	0.598253	0.318691	-0.289747
C27	C	0.548885	0.261250	-0.307998
C28	C	0.730630	0.303343	-0.357554
C29	C	0.416450	0.303419	-0.357478
C30	C	1.073064	0.466927	-0.357473
C31	C	1.073090	0.536895	-0.357484
C32	C	1.120623	0.569768	-0.310028
C33	C	1.120658	0.635511	-0.310048
C34	C	1.073147	0.668378	-0.357516
C35	C	1.025610	0.635497	-0.404982
C36	C	1.025582	0.569756	-0.404966
N37	N	1.008181	0.771632	-0.363194
N38	N	1.008210	0.834084	-0.363205
C39	C	1.073231	0.866452	-0.357569
N40	N	1.138223	0.834010	-0.351907
N41	N	1.138194	0.771553	-0.351892
C42	C	1.073173	0.739663	-0.357540
C43	C	1.120806	0.970611	-0.310132
C44	C	1.120842	1.036354	-0.310157
C45	C	1.025788	1.036339	-0.405088
C46	C	1.025758	0.970597	-0.405066
C47	C	1.073266	0.937737	-0.357584
C48	C	1.266866	0.303419	-0.357474
C49	C	1.349412	0.303438	-0.357461
C50	C	1.073279	1.139185	-0.357568
C51	C	1.073331	1.069217	-0.357627
C52	C	1.073193	0.303308	-0.551212
C53	C	1.073207	0.303280	-0.633758
C54	C	1.122893	0.261223	-0.833213
C55	C	1.055160	0.245805	-0.882627
C56	C	1.073237	0.303269	-0.784888
C57	C	1.140997	0.318646	-0.882556
C58	C	1.073272	0.303257	-0.930873
C59	C	1.005468	0.287822	-0.833215
C60	C	1.091351	0.360689	-0.833140
C61	C	1.023571	0.345294	-0.882531
C62	C	1.073218	0.303274	-0.700790
C63	C	1.073283	0.303252	-1.014970
C64	C	1.073170	0.303397	-0.164554
C65	C	1.073300	0.303248	-0.082009
H66	H	0.619833	0.197364	-0.391356
Cl67	Cl	0.916989	0.267654	-0.799896
Cl68	Cl	0.965820	0.528427	-0.464630
Cl69	Cl	0.631777	0.338700	-0.201274
H70	H	1.159554	1.063118	-0.271514
H71	H	1.159493	0.943855	-0.271471
Cl72	Cl	1.187623	0.206295	-0.799775
Cl73	Cl	0.958687	0.400176	-0.915771
H74	H	0.986928	0.662261	-0.443633
Cl75	Cl	0.966063	1.077652	-0.464768
H76	H	0.527362	0.225610	-0.266114
Cl77	Cl	0.515297	0.268083	-0.513805
Cl78	Cl	0.965995	0.929269	-0.464726
H79	H	0.527143	0.409352	-0.323812
Cl80	Cl	1.031522	0.170828	-0.916191
H81	H	1.106681	0.409240	-0.811388
H82	H	1.198286	0.331657	-0.904233
H83	H	0.619873	0.381033	-0.448963
H84	H	1.159309	0.543015	-0.271367
Cl85	Cl	1.180418	0.676845	-0.250382
