data_functionalizedCrystal
_audit_creation_method	'MofGen! by Chris Wilmer'
_symmetry_space_group_name_H-M	'P1'
_symmetry_Int_Tables_number	1
_symmetry_cell_setting	triclinic
loop_
_symmetry_equiv_pos_as_xyz
  x,y,z
_cell_length_a	10.540535
_cell_length_b	10.540539
_cell_length_c	13.101039
_cell_angle_alpha	93.398267
_cell_angle_beta	86.610860
_cell_angle_gamma	84.524567
loop_
_atom_site_label
_atom_site_type_symbol
_atom_site_fract_x
_atom_site_fract_y
_atom_site_fract_z
O1	O	1.692806	0.171935	-0.085153
O2	O	1.323393	0.188796	-0.085167
O3	O	1.516527	-0.004341	-0.085159
O4	O	1.499671	0.365072	-0.085162
O5	O	1.502670	0.009539	0.085271
O6	O	1.309536	0.202676	0.085262
O7	O	1.678949	0.185815	0.085276
Zn8	Zn	1.492042	0.196449	0.112328
Zn9	Zn	1.510299	0.178161	-0.112219
O10	O	1.485815	0.378952	0.085267
C11	C	1.269162	0.194472	0.000046
C12	C	1.128214	0.190692	0.000040
C13	C	1.091543	0.049679	0.000046
C14	C	0.944910	0.045734	0.000443
C15	C	0.910979	0.262975	0.097186
C16	C	1.057739	0.265981	0.097257
C17	C	1.073381	0.252247	-0.096559
C18	C	0.927138	0.245623	-0.097826
C19	C	1.508335	-0.044704	0.000054
C20	C	1.504553	-0.185653	0.000048
C21	C	1.359667	-0.369109	-0.000339
C22	C	1.363470	-0.222459	0.000044
C23	C	1.564536	-0.239385	0.097375
C24	C	1.559714	-0.385923	0.097456
C25	C	1.578342	-0.402226	-0.096353
C26	C	1.579746	-0.255348	-0.097640
C27	C	1.733180	0.180138	0.000061
C28	C	1.874129	0.183918	0.000060
C29	C	1.494007	0.419315	0.000053
C30	C	1.497789	0.560263	0.000051
N31	N	1.479592	0.208930	0.265576
N32	N	1.522760	0.165671	-0.265467
C33	C	1.462652	0.225922	0.474618
C34	C	1.539696	0.148683	0.525497
C35	C	1.530270	0.158138	0.641815
C36	C	1.472076	0.216469	0.358290
H37	H	1.139174	-0.010144	-0.069596
F38	F	1.635546	0.053354	0.468253
F39	F	1.699574	-0.209785	0.102113
F40	F	1.102504	0.210938	0.192520
H41	H	0.904378	0.187995	-0.169681
F42	F	1.367194	0.321631	0.531861
H43	H	0.921232	-0.015577	-0.069167
H44	H	1.129346	0.002099	0.069595
H45	H	1.095642	0.355922	-0.097500
F46	F	1.301055	-0.174196	-0.091146
H47	H	0.910763	-0.003931	0.070479
H48	H	1.680299	-0.449506	-0.097004
H49	H	0.863351	0.365012	0.100523
F50	F	1.087406	0.401537	0.102670
F51	F	1.136702	0.186893	-0.192818
F52	F	0.862881	0.206900	0.192031
H53	H	1.309611	-0.403392	-0.070134
F54	F	0.863695	0.376822	-0.105884
F55	F	1.285722	-0.160435	0.091380
F56	F	1.486392	-0.415039	0.192542
F57	F	1.691863	-0.448155	0.103243
F58	F	1.279573	-0.401651	0.090121
F59	F	1.495194	-0.175998	0.192039
H60	H	1.538677	-0.439786	-0.170120
H61	H	1.535921	-0.220353	-0.169639
H62	H	1.683084	-0.231607	-0.103513
