data_functionalizedCrystal
_audit_creation_method	'MofGen! by Chris Wilmer'
_symmetry_space_group_name_H-M	'P1'
_symmetry_Int_Tables_number	1
_symmetry_cell_setting	triclinic
loop_
_symmetry_equiv_pos_as_xyz
  x,y,z
_cell_length_a	18.101398
_cell_length_b	18.050589
_cell_length_c	18.050582
_cell_angle_alpha	89.981795
_cell_angle_beta	89.979764
_cell_angle_gamma	90.023488
loop_
_atom_site_label
_atom_site_type_symbol
_atom_site_fract_x
_atom_site_fract_y
_atom_site_fract_z
Zn1	Zn	1.132106	-0.295800	-0.420040
Zn2	Zn	1.465439	0.037533	-0.086707
Zn3	Zn	1.798773	0.370866	0.246626
Zn4	Zn	1.132017	-0.419984	-0.295860
Zn5	Zn	1.465350	-0.086650	0.037474
Zn6	Zn	1.798684	0.246683	0.370807
Zn7	Zn	1.008274	-0.295802	-0.295853
Zn8	Zn	1.341607	0.037532	0.037480
Zn9	Zn	1.674940	0.370865	0.370814
Zn10	Zn	1.008222	-0.419943	-0.419997
Zn11	Zn	1.341555	-0.086609	-0.086663
Zn12	Zn	1.674889	0.246724	0.246670
O13	O	1.070155	-0.357882	-0.357937
O14	O	1.403488	-0.024549	-0.024604
O15	O	1.736821	0.308785	0.308729
O16	O	1.235727	-0.312290	-0.403589
O17	O	1.569060	0.021043	-0.070255
O18	O	1.902394	0.354377	0.263078
O19	O	1.115587	-0.403528	-0.191934
O20	O	1.448920	-0.070195	0.141399
O21	O	1.782253	0.263138	0.474732
O22	O	1.024759	-0.191877	-0.312342
O23	O	1.358093	0.141456	0.020991
O24	O	1.691426	0.474790	0.354325
O25	O	1.235662	-0.403527	-0.312354
O26	O	1.568995	-0.070194	0.020980
O27	O	1.902328	0.263140	0.354313
O28	O	1.115738	-0.191876	-0.403582
O29	O	1.449072	0.141457	-0.070249
O30	O	1.782405	0.474791	0.263085
O31	O	1.024673	-0.312292	-0.191929
O32	O	1.358006	0.021041	0.141404
O33	O	1.691340	0.354374	0.474737
O34	O	0.904634	-0.312253	-0.312300
O35	O	1.237967	0.021081	0.021034
O36	O	1.571301	0.354414	0.354367
O37	O	1.024671	-0.403457	-0.523927
O38	O	1.358004	-0.070124	-0.190594
O39	O	1.691338	0.263209	0.142739
O40	O	0.904596	-0.403459	-0.403508
O41	O	1.237929	-0.070125	-0.070174
O42	O	1.571263	0.263208	0.263159
O43	O	1.115688	-0.312250	-0.523959
O44	O	1.449021	0.021083	-0.190626
O45	O	1.782355	0.354416	0.142707
O46	O	1.115536	-0.523903	-0.312311
O47	O	1.448870	-0.190570	0.021022
O48	O	1.782203	0.142764	0.354355
O49	O	1.024585	-0.523873	-0.403514
O50	O	1.357918	-0.190540	-0.070181
O51	O	1.691251	0.142794	0.263152
C52	C	0.877744	-0.357852	-0.357899
C53	C	1.211077	-0.024519	-0.024565
C54	C	1.544411	0.308815	0.308768
C55	C	0.795430	-0.357857	-0.357900
C56	C	1.128763	-0.024524	-0.024566
C57	C	1.462097	0.308810	0.308767
C58	C	0.496339	-0.357903	-0.357962
C59	C	0.829672	-0.024570	-0.024629
C60	C	1.163006	0.308763	0.308705
C61	C	0.527663	-0.300232	-0.300857
C62	C	0.860997	0.033101	0.032477
C63	C	1.194330	0.366434	0.365810
C64	C	0.613282	-0.300387	-0.300613
C65	C	0.946615	0.032946	0.032720
C66	C	1.279948	0.366280	0.366054
C67	C	0.644722	-0.357880	-0.357931
C68	C	0.978055	-0.024546	-0.024598
C69	C	1.311388	0.308787	0.308736
C70	C	0.613609	-0.436109	-0.336553
C71	C	0.946942	-0.102775	-0.003219
C72	C	1.280276	0.230558	0.330114
C73	C	0.527964	-0.435788	-0.336156
C74	C	0.861297	-0.102455	-0.002822
C75	C	1.194630	0.230878	0.330511
C76	C	0.527947	-0.338025	-0.436581
C77	C	0.861280	-0.004692	-0.103247
C78	C	1.194614	0.328641	0.230086
C79	C	0.613598	-0.336283	-0.436152
C80	C	0.946931	-0.002950	-0.102818
C81	C	1.280264	0.330383	0.230515
C82	C	0.728581	-0.357871	-0.357915
C83	C	1.061914	-0.024538	-0.024582
C84	C	1.395248	0.308795	0.308752
C85	C	0.412480	-0.357917	-0.357977
C86	C	0.745813	-0.024584	-0.024643
C87	C	1.079146	0.308750	0.308690
C88	C	1.070065	-0.550834	-0.357925
C89	C	1.403399	-0.217501	-0.024592
C90	C	1.736732	0.115832	0.308742
C91	C	1.070095	-0.633380	-0.357945
C92	C	1.403428	-0.300047	-0.024611
C93	C	1.736761	0.033287	0.308722
C94	C	1.020684	-0.832841	-0.407524
C95	C	1.354017	-0.499508	-0.074190
C96	C	1.687350	-0.166175	0.259143
C97	C	1.002637	-0.882274	-0.339755
C98	C	1.335970	-0.548940	-0.006421
C99	C	1.669303	-0.215607	0.326912
C100	C	1.070167	-0.784510	-0.357954
C101	C	1.403501	-0.451177	-0.024621
C102	C	1.736834	-0.117844	0.308712
C103	C	1.088251	-0.882160	-0.425731
C104	C	1.421584	-0.548826	-0.092398
C105	C	1.754918	-0.215493	0.240936
C106	C	1.070236	-0.930495	-0.357970
C107	C	1.403570	-0.597162	-0.024636
C108	C	1.736903	-0.263829	0.308697
C109	C	1.052085	-0.832856	-0.290149
C110	C	1.385418	-0.499522	0.043184
C111	C	1.718752	-0.166189	0.376517
C112	C	1.137730	-0.832737	-0.376172
C113	C	1.471064	-0.499404	-0.042839
C114	C	1.804397	-0.166070	0.290495
C115	C	1.119709	-0.882147	-0.308356
C116	C	1.453042	-0.548814	0.024977
C117	C	1.786376	-0.215481	0.358311
C118	C	1.070126	-0.700412	-0.357947
C119	C	1.403459	-0.367079	-0.024613
C120	C	1.736793	-0.033745	0.308720
C121	C	1.070278	-1.014592	-0.357970
C122	C	1.403611	-0.681259	-0.024637
C123	C	1.736945	-0.347925	0.308697
C124	C	1.263316	-0.357913	-0.357977
C125	C	1.596650	-0.024580	-0.024643
C126	C	1.929983	0.308754	0.308690
C127	C	1.345631	-0.357926	-0.357994
C128	C	1.678964	-0.024593	-0.024660
C129	C	2.012297	0.308741	0.308673
C130	C	1.070184	-0.357849	-0.551643
C131	C	1.403517	-0.024516	-0.218310
C132	C	1.736850	0.308817	0.115024
C133	C	1.070196	-0.357835	-0.634189
C134	C	1.403529	-0.024502	-0.300856
C135	C	1.736863	0.308831	0.032478
C136	C	1.070265	-0.164177	-0.357966
C137	C	1.403598	0.169157	-0.024633
C138	C	1.736931	0.502490	0.308701
C139	C	1.070311	-0.081631	-0.357978
C140	C	1.403645	0.251703	-0.024645
C141	C	1.736978	0.585036	0.308688
C142	C	1.020739	-0.407366	-0.833622
C143	C	1.354072	-0.074032	-0.500289
C144	C	1.687405	0.259301	-0.166956
C145	C	1.088304	-0.425525	-0.883021
C146	C	1.421637	-0.092192	-0.549688
C147	C	1.754970	0.241142	-0.216355
C148	C	1.070233	-0.357779	-0.785319
C149	C	1.403566	-0.024445	-0.451986
C150	C	1.736899	0.308888	-0.118653
C151	C	1.002705	-0.339599	-0.883002
C152	C	1.336038	-0.006266	-0.549669
C153	C	1.669371	0.327068	-0.216336
C154	C	1.070262	-0.357725	-0.931305
C155	C	1.403595	-0.024392	-0.597971
C156	C	1.736929	0.308941	-0.264638
C157	C	1.137833	-0.375973	-0.833631
C158	C	1.471166	-0.042640	-0.500298
C159	C	1.804500	0.290694	-0.166965
C160	C	1.052188	-0.290016	-0.833608
C161	C	1.385522	0.043318	-0.500274
C162	C	1.718855	0.376651	-0.166941
C163	C	1.119800	-0.308149	-0.882984
C164	C	1.453133	0.025184	-0.549651
C165	C	1.786467	0.358518	-0.216318
C166	C	1.070215	-0.357811	-0.701221
C167	C	1.403548	-0.024478	-0.367888
C168	C	1.736881	0.308856	-0.034554
C169	C	1.070287	-0.357692	-1.015401
C170	C	1.403621	-0.024359	-0.682068
C171	C	1.736954	0.308974	-0.348735
C172	C	1.070168	-0.357861	-0.164985
C173	C	1.403502	-0.024528	0.168348
C174	C	1.736835	0.308805	0.501681
C175	C	1.070299	-0.357666	-0.082440
C176	C	1.403633	-0.024333	0.250893
C177	C	1.736966	0.309000	0.584227
H178	H	0.634318	-0.242377	-0.314013
H179	H	0.967652	0.090957	0.019321
H180	H	1.300985	0.424290	0.352654
H181	H	1.194969	-0.391392	-0.812035
H182	H	1.528303	-0.058059	-0.478702
H183	H	1.861636	0.275274	-0.145369
H184	H	1.036889	-0.232749	-0.811886
H185	H	1.370222	0.100584	-0.478553
H186	H	1.703555	0.433918	-0.145220
H187	H	1.194821	-0.810964	-0.391599
H188	H	1.528154	-0.477630	-0.058265
H189	H	1.861488	-0.144297	0.275068
H190	H	1.036751	-0.811288	-0.232822
H191	H	1.370085	-0.477955	0.100511
H192	H	1.703418	-0.144621	0.433845
H193	H	1.161716	-0.266192	-0.904521
H194	H	1.495049	0.067142	-0.571188
H195	H	1.828383	0.400475	-0.237855
H196	H	0.945533	-0.904049	-0.324360
H197	H	1.278867	-0.570716	0.008973
H198	H	1.612200	-0.237383	0.342307
C199	C	0.925545	-0.318850	-0.912301
C200	C	1.258879	0.014484	-0.578968
C201	C	1.592212	0.347817	-0.245635
H202	H	0.928926	-0.275020	-0.941259
H203	H	1.262260	0.058313	-0.607926
H204	H	1.595593	0.391647	-0.274593
H205	H	0.893132	-0.310632	-0.871731
H206	H	1.226465	0.022701	-0.538398
H207	H	1.559799	0.356034	-0.205065
H208	H	0.906980	-0.358100	-0.942002
H209	H	1.240314	-0.024767	-0.608669
H210	H	1.573647	0.308566	-0.275336
H211	H	0.633938	-0.278715	-0.452272
H212	H	0.967271	0.054618	-0.118938
H213	H	1.300604	0.387951	0.214395
C214	C	0.964249	-0.464082	-0.804335
C215	C	1.297582	-0.130748	-0.471002
C216	C	1.630915	0.202585	-0.137669
H217	H	0.928066	-0.439300	-0.775371
H218	H	1.261399	-0.105967	-0.442037
H219	H	1.594732	0.227366	-0.108704
H220	H	0.988872	-0.499837	-0.774658
H221	H	1.322205	-0.166504	-0.441324
H222	H	1.655539	0.166830	-0.107991
H223	H	0.940949	-0.488090	-0.844916
H224	H	1.274282	-0.154757	-0.511582
H225	H	1.607616	0.178577	-0.178249
C226	C	0.642506	-0.388890	-0.496715
C227	C	0.975839	-0.055557	-0.163382
C228	C	1.309172	0.277776	0.169952
H229	H	0.622828	-0.374539	-0.543344
H230	H	0.956161	-0.041205	-0.210011
H231	H	1.289494	0.292128	0.123323
H232	H	0.627625	-0.438161	-0.485747
H233	H	0.960958	-0.104827	-0.152414
H234	H	1.294291	0.228506	0.180920
H235	H	0.694904	-0.386419	-0.498424
H236	H	1.028237	-0.053086	-0.165091
H237	H	1.361570	0.280248	0.168242
H238	H	0.507089	-0.242045	-0.314109
H239	H	0.840423	0.091289	0.019225
H240	H	1.173756	0.424622	0.352558
C241	C	0.498805	-0.262306	-0.462846
C242	C	0.832138	0.071027	-0.129512
C243	C	1.165472	0.404360	0.203821
H244	H	0.518540	-0.251368	-0.510385
H245	H	0.851873	0.081965	-0.177051
H246	H	1.185207	0.415299	0.156282
H247	H	0.513473	-0.225035	-0.428739
H248	H	0.846806	0.108298	-0.095405
H249	H	1.180139	0.441632	0.237928
H250	H	0.446418	-0.263808	-0.465624
H251	H	0.779751	0.069526	-0.132291
H252	H	1.113084	0.402859	0.201043
C253	C	1.108965	-0.502908	-0.912325
C254	C	1.442299	-0.169575	-0.578992
C255	C	1.775632	0.163758	-0.245659
H256	H	1.152681	-0.499535	-0.941274
H257	H	1.486014	-0.166202	-0.607941
H258	H	1.819347	0.167131	-0.274607
H259	H	1.069824	-0.521524	-0.942019
H260	H	1.403158	-0.188190	-0.608686
H261	H	1.736491	0.145143	-0.275352
H262	H	1.117154	-0.535407	-0.871746
H263	H	1.450487	-0.202074	-0.538413
H264	H	1.783820	0.131259	-0.205079
H265	H	0.506119	-0.313224	-0.242940
H266	H	0.839452	0.020109	0.090394
H267	H	1.172786	0.353443	0.423727
C268	C	1.108880	-0.911415	-0.503152
C269	C	1.442214	-0.578082	-0.169818
C270	C	1.775547	-0.244749	0.163515
H271	H	1.073649	-0.894524	-0.538302
H272	H	1.406982	-0.561191	-0.204968
H273	H	1.740315	-0.227857	0.128365
H274	H	1.109201	-0.964036	-0.502496
H275	H	1.442535	-0.630703	-0.169163
H276	H	1.775868	-0.297370	0.164171
H277	H	1.156514	-0.893718	-0.516427
H278	H	1.489848	-0.560385	-0.183094
H279	H	1.823181	-0.227051	0.150240
H280	H	1.161585	-0.903660	-0.266395
H281	H	1.494919	-0.570327	0.066938
H282	H	1.828252	-0.236994	0.400271
H283	H	0.978776	-0.811191	-0.449383
H284	H	1.312109	-0.477858	-0.116050
H285	H	1.645442	-0.144524	0.217284
H286	H	0.507957	-0.452647	-0.278682
H287	H	0.841290	-0.119313	0.054652
H288	H	1.174624	0.214020	0.387985
C289	C	0.640928	-0.318143	-0.221919
C290	C	0.974262	0.015190	0.111414
C291	C	1.307595	0.348523	0.444748
H292	H	0.693410	-0.318292	-0.221499
H293	H	1.026744	0.015041	0.111834
H294	H	1.360077	0.348375	0.445167
H295	H	0.623158	-0.365461	-0.207282
H296	H	0.956491	-0.032128	0.126051
H297	H	1.289824	0.301205	0.459384
H298	H	0.623282	-0.281620	-0.188424
H299	H	0.956615	0.051714	0.144909
H300	H	1.289948	0.385047	0.478242
C301	C	0.499965	-0.495738	-0.389958
C302	C	0.833298	-0.162405	-0.056625
C303	C	1.166632	0.170928	0.276709
H304	H	0.540935	-0.520192	-0.411949
H305	H	0.874269	-0.186858	-0.078615
H306	H	1.207602	0.146475	0.254718
H307	H	0.470852	-0.473273	-0.427531
H308	H	0.804185	-0.139940	-0.094197
H309	H	1.137519	0.193393	0.239136
H310	H	0.470844	-0.530728	-0.363599
H311	H	0.804178	-0.197395	-0.030265
H312	H	1.137511	0.135939	0.303068
H313	H	0.633973	-0.480229	-0.376844
H314	H	0.967306	-0.146896	-0.043511
H315	H	1.300639	0.186438	0.289822
H316	H	0.635029	-0.453260	-0.279700
H317	H	0.968362	-0.119926	0.053634
H318	H	1.301695	0.213407	0.386967
H319	H	0.507690	-0.380031	-0.479130
H320	H	0.841023	-0.046698	-0.145796
H321	H	1.174356	0.286636	0.187537
