data_functionalizedCrystal
_audit_creation_method	'MofGen! by Chris Wilmer'
_symmetry_space_group_name_H-M	'P1'
_symmetry_Int_Tables_number	1
_symmetry_cell_setting	triclinic
loop_
_symmetry_equiv_pos_as_xyz
  x,y,z
_cell_length_a	17.000371
_cell_length_b	14.853567
_cell_length_c	13.930277
_cell_angle_alpha	90.000757
_cell_angle_beta	89.992357
_cell_angle_gamma	100.382911
loop_
_atom_site_label
_atom_site_type_symbol
_atom_site_fract_x
_atom_site_fract_y
_atom_site_fract_z
O1	O	1.056142	-0.032482	-0.079833
O2	O	0.824445	-0.065199	-0.079831
O3	O	0.946482	0.082889	-0.079835
O4	O	0.934104	-0.180570	-0.079829
O5	O	0.946465	0.082890	0.079827
O6	O	0.824428	-0.065198	0.079831
O7	O	1.056125	-0.032480	0.079829
Zn8	Zn	0.940274	-0.048839	0.105180
Zn9	Zn	0.940296	-0.048841	-0.105182
O10	O	0.934088	-0.180568	0.079833
C11	C	0.794785	-0.066956	-0.000000
C12	C	0.706432	-0.072181	-0.000000
N13	N	0.940264	-0.048836	0.248746
C14	C	0.945913	0.116433	-0.000007
C15	C	0.944232	0.216381	-0.000015
C16	C	0.674318	0.008233	-0.000000
C17	C	0.591300	0.003318	-0.000007
C18	C	0.540398	-0.082013	-0.000007
C19	C	0.572518	-0.162433	-0.000010
C20	C	0.655534	-0.157517	-0.000010
C21	C	0.289273	-0.101003	-0.000013
C22	C	0.206252	-0.105913	-0.000010
C23	C	0.225040	0.059839	-0.000009
C24	C	0.308057	0.064748	-0.000004
C25	C	0.340169	-0.015673	-0.000011
C26	C	0.455541	-0.087039	-0.000011
C27	C	0.425025	-0.010646	-0.000014
C28	C	1.085785	-0.030724	-0.000004
C29	C	1.174138	-0.025498	-0.000010
C30	C	0.934657	-0.214112	0.000003
C31	C	0.936338	-0.314061	0.000005
C32	C	0.864635	0.622492	0.000004
C33	C	1.009618	0.655472	0.000003
C34	C	1.011198	0.561566	-0.000003
C35	C	0.939496	0.498118	-0.000004
C36	C	0.866213	0.528576	0.000001
C37	C	1.084480	0.531100	0.000002
C38	C	1.086063	0.437188	-0.000002
C39	C	1.014360	0.373739	-0.000010
C40	C	0.941074	0.404202	-0.000007
C41	C	0.869372	0.340755	-0.000008
C42	C	0.796085	0.371217	-0.000011
C43	C	0.794510	0.465127	-0.000007
C44	C	1.015935	0.279828	-0.000014
C45	C	0.870950	0.246839	-0.000010
N46	N	0.940312	-0.048836	-0.248748
C47	C	0.886256	-0.114390	0.701017
C48	C	0.994358	0.016717	0.700983
C49	C	0.994349	0.016719	0.600487
C50	C	0.940293	-0.048835	0.550251
C51	C	0.886246	-0.114392	0.600512
C52	C	1.048400	0.082269	0.550219
C53	C	1.048393	0.082273	0.449718
C54	C	0.994333	0.016722	0.399480
C55	C	0.940283	-0.048837	0.449746
C56	C	0.886227	-0.114391	0.399511
C57	C	0.832174	-0.179947	0.449775
C58	C	0.832186	-0.179943	0.550274
C59	C	0.994320	0.016718	0.298981
C60	C	0.886218	-0.114393	0.299006
H61	H	0.715757	0.077719	0.000004
H62	H	0.842244	-0.167763	0.741944
H63	H	1.038373	0.070086	0.741888
Br64	Br	0.765179	0.663829	-0.000014
Br65	Br	1.121766	0.171226	0.618392
H66	H	0.565157	0.068800	-0.000008
H67	H	0.164809	-0.175403	-0.000005
Br68	Br	0.332844	-0.210145	-0.000025
Br69	Br	1.185520	0.395855	-0.000013
Br70	Br	0.698778	0.285099	0.000000
Br71	Br	1.115386	0.238489	0.000013
H72	H	1.092405	0.135652	0.408798
Br73	Br	0.503438	-0.278241	-0.000023
Br74	Br	1.067680	0.105672	0.230771
H75	H	0.198885	0.125313	-0.000014
H76	H	0.681680	-0.222999	-0.000005
H77	H	0.466473	0.058830	-0.000020
Br78	Br	0.377133	0.180558	0.000008
H79	H	0.414088	-0.156515	-0.000010
H80	H	0.812560	0.195185	-0.000015
H81	H	1.142856	0.582765	0.000012
Br82	Br	1.106924	0.741578	0.000025
Br83	Br	0.695059	0.506475	-0.000018
Br84	Br	0.812846	-0.203358	0.230836
H85	H	0.788164	-0.233326	0.408862
Br86	Br	0.758834	-0.268906	0.618491
