data_functionalizedCrystal
_audit_creation_method	'MofGen! by Chris Wilmer'
_symmetry_space_group_name_H-M	'P1'
_symmetry_Int_Tables_number	1
_symmetry_cell_setting	triclinic
loop_
_symmetry_equiv_pos_as_xyz
  x,y,z
_cell_length_a	19.902436
_cell_length_b	21.606444
_cell_length_c	21.606444
_cell_angle_alpha	90.000833
_cell_angle_beta	60.000418
_cell_angle_gamma	59.996104
loop_
_atom_site_label
_atom_site_type_symbol
_atom_site_fract_x
_atom_site_fract_y
_atom_site_fract_z
Zr1	Zr	0.735533	0.596147	-0.081256
O2	O	0.875716	0.497306	-0.180081
O3	O	0.595350	0.626457	-0.050959
O4	O	0.735539	0.626437	-0.180084
O5	O	0.735522	0.497331	0.050898
O6	O	0.735544	0.728286	-0.180087
O7	O	0.735527	0.497326	-0.050956
O8	O	0.484771	0.728322	0.050893
O9	O	0.986295	0.497296	-0.180083
O10	O	0.653013	0.715381	-0.038042
O11	O	0.653006	0.639376	0.037973
O12	O	0.818060	0.639352	-0.114055
O13	O	0.818053	0.563347	-0.038039
Zr14	Zr	0.735533	0.758594	0.081184
Zr15	Zr	0.735541	0.758586	-0.081262
Zr16	Zr	0.735525	0.596156	0.081190
Zr17	Zr	0.911894	0.596131	-0.081258
Zr18	Zr	0.559172	0.758611	0.081187
O19	O	0.875716	0.728285	0.050887
O20	O	0.875727	0.728273	-0.180089
O21	O	0.875705	0.497318	0.050896
O22	O	0.595350	0.857435	0.180009
O23	O	0.595361	0.857423	-0.050967
O24	O	0.595339	0.626468	0.180018
O25	O	0.735544	0.857410	-0.050969
O26	O	0.735527	0.728305	0.180012
O27	O	0.735522	0.626455	0.180016
O28	O	0.735539	0.857415	0.050885
O29	O	0.986301	0.626413	-0.180088
O30	O	0.484765	0.728328	0.180016
O31	O	0.484771	0.857445	0.180011
O32	O	0.484777	0.857439	0.050889
O33	O	0.986289	0.497302	-0.050960
O34	O	0.986295	0.626419	-0.050965
O35	O	0.653006	0.715389	0.113983
O36	O	0.653013	0.791394	0.037968
O37	O	0.818060	0.715366	-0.038045
O38	O	0.818053	0.639360	0.037971
C39	C	0.514933	0.677392	-0.000032
C40	C	0.440063	0.677399	-0.000031
C41	C	0.735524	0.474185	-0.000029
C42	C	0.735520	0.405225	-0.000026
C43	C	0.735542	0.677360	-0.203230
C44	C	0.735546	0.677357	-0.272193
C45	C	0.303005	0.677379	-0.000034
C46	C	0.274493	0.725322	-0.047983
C47	C	0.196882	0.725102	-0.048241
C48	C	0.168061	0.677362	-0.000037
C49	C	0.260034	0.594742	-0.034753
C50	C	0.337976	0.595015	-0.035114
C51	C	0.210952	0.711389	0.082656
C52	C	0.132221	0.713047	0.082530
C53	C	0.091799	0.677347	-0.000039
C54	C	0.379272	0.677388	-0.000036
C55	C	0.956133	0.677350	-0.000039
C56	C	1.031003	0.677343	-0.000040
C57	C	0.649368	0.412512	0.039649
C58	C	0.649370	0.347715	0.039650
C59	C	0.735527	0.275631	-0.000030
C60	C	0.821686	0.268346	-0.039706
C61	C	0.821682	0.333143	-0.039702
C62	C	0.821702	0.007028	-0.039723
C63	C	0.821699	-0.057770	-0.039726
C64	C	0.649391	0.021600	0.039629
C65	C	0.649387	0.086397	0.039633
C66	C	0.735545	0.079106	-0.000040
C67	C	0.735542	0.149367	-0.000039
C68	C	0.735531	0.205371	-0.000035
C69	C	0.735542	0.880557	-0.000043
C70	C	0.735546	0.949516	-0.000046
C71	C	0.821698	0.637670	-0.344269
C72	C	0.821696	0.637677	-0.409064
C73	C	0.735539	0.677366	-0.401781
C74	C	0.649380	0.717058	-0.329697
C75	C	0.649384	0.717055	-0.264904
C76	C	0.649364	0.717070	-0.591000
C77	C	0.649367	0.717067	-0.655801
C78	C	0.821675	0.637691	-0.735160
C79	C	0.821679	0.637689	-0.670367
C80	C	0.735521	0.677383	-0.598289
C81	C	0.735524	0.677377	-0.528032
C82	C	0.735535	0.677368	-0.472037
C83	C	0.735524	0.677381	0.203159
C84	C	0.735520	0.677384	0.272121
C85	C	0.514942	0.880577	-0.000040
C86	C	0.440076	0.949544	-0.000041
C87	C	0.514923	0.677402	0.203162
C88	C	0.440050	0.677413	0.272126
C89	C	0.514933	0.880588	0.203155
C90	C	0.440063	0.949558	0.272116
C91	C	0.956133	0.474154	-0.203227
C92	C	1.031003	0.405184	-0.272188
C93	C	0.956124	0.474164	-0.000032
C94	C	1.030990	0.405197	-0.000031
C95	C	0.956143	0.677339	-0.203234
C96	C	1.031016	0.677329	-0.272197
C97	C	0.404918	0.942253	-0.039725
C98	C	0.334582	1.007048	-0.039741
C99	C	0.299402	1.079134	-0.000069
C100	C	0.334567	1.086423	0.039616
C101	C	0.404906	1.021628	0.039627
C102	C	0.404889	0.717096	0.344195
C103	C	0.334548	0.717103	0.409000
C104	C	0.299365	0.677431	0.401734
C105	C	0.334533	0.637743	0.329657
C106	C	0.404877	0.637732	0.264854
C107	C	0.404907	1.021628	0.264821
C108	C	0.334569	1.086439	0.329611
C109	C	0.299383	1.079178	0.401695
C110	C	0.334546	1.007100	0.408988
C111	C	0.404888	0.942291	0.344199
C112	C	1.066167	0.333114	-0.264893
C113	C	1.136527	0.268303	-0.329683
C114	C	1.171717	0.275563	-0.401767
C115	C	1.136550	0.347641	-0.409060
C116	C	1.066196	0.412450	-0.344271
C117	C	1.066156	0.412488	0.039646
C118	C	1.136510	0.347693	0.039645
C119	C	1.171694	0.275608	-0.000030
C120	C	1.136525	0.268319	-0.039711
C121	C	1.066177	0.333113	-0.039714
C122	C	1.066177	0.717009	-0.264907
C123	C	1.136519	0.717013	-0.329699
C124	C	1.171703	0.677334	-0.401781
C125	C	1.136534	0.637653	-0.409070
C126	C	1.066189	0.637653	-0.344279
H127	H	0.132112	0.785932	-0.024978
H128	H	0.247556	0.786313	-0.024847
H129	H	0.339672	0.701938	-0.108619
H130	H	0.891830	0.605372	-0.793856
H131	H	0.433496	0.605419	0.206174
C132	C	0.916482	-0.137066	-0.083373
N133	N	0.987869	-0.196790	-0.116247
H134	H	0.433545	1.027554	0.206133
H135	H	1.037569	0.605337	-0.350225
C136	C	0.221998	1.150478	0.472958
N137	N	0.163708	1.204184	0.526631
H138	H	1.228976	0.222854	-0.000021
C139	C	0.443608	0.862965	-0.083376
N140	N	0.472751	0.803247	-0.116260
C141	C	0.916478	0.594009	-0.352291
N142	N	0.987870	0.561124	-0.358335
H143	H	1.165145	0.749325	-0.323750
C144	C	1.249101	0.204263	-0.473030
N145	N	1.307383	0.150557	-0.526703
C146	C	0.172238	0.792368	0.121868
N147	N	0.143081	0.853363	0.151395
H148	H	0.305887	1.001200	0.467687
C149	C	0.443549	0.863015	0.352235
N150	N	0.472668	0.803306	0.358294
C151	C	1.175213	0.594039	-0.488368
N152	N	1.204339	0.561198	-0.548097
H153	H	1.228982	0.677340	-0.454533
C154	C	0.554607	0.760714	-0.321687
N155	N	0.483222	0.793594	-0.315653
H156	H	0.403937	0.567806	-0.095955
C157	C	0.233760	0.693178	-0.130647
N158	N	0.261546	0.669120	-0.192718
C159	C	0.221974	0.677458	0.473027
N160	N	0.163679	0.677486	0.526728
H161	H	0.891858	0.001081	-0.072040
C162	C	1.175224	0.189018	-0.083338
N163	N	1.204366	0.129286	-0.116191
C164	C	0.295815	0.594110	0.321677
N165	N	0.266646	0.561251	0.315669
C166	C	0.295906	0.999013	-0.083392
N167	N	0.266774	0.992959	-0.116267
C168	C	0.367154	0.544087	0.009016
N169	N	0.389139	0.505717	0.042244
H170	H	0.243718	0.557449	-0.001492
H171	H	1.165210	0.353544	-0.467758
C172	C	0.554587	0.760727	-0.511721
N173	N	0.483196	0.793611	-0.452004
C174	C	0.916470	0.593985	-0.488348
N175	N	0.987859	0.561064	-0.548067
H176	H	0.288100	0.567337	-0.095007
H177	H	1.037515	0.471178	0.071959
C178	C	1.027478	0.325108	-0.185607
N179	N	0.998347	0.319072	-0.125890
C180	C	0.222020	1.150403	-0.000084
N181	N	0.163733	1.204080	-0.000094
H182	H	0.305947	1.145121	0.323660
C183	C	0.043584	0.795278	0.117575
N184	N	-0.023182	0.857213	0.143969
H185	H	0.891836	0.605367	-0.676304
C186	C	1.175197	0.189025	-0.321644
N187	N	1.204321	0.129314	-0.315587
H188	H	1.165133	0.353643	0.071962
H189	H	1.037565	0.471131	-0.350219
C190	C	0.295867	0.760773	0.488277
N191	N	0.266732	0.793668	0.547986
H192	H	0.108770	0.681759	0.121232
H193	H	1.037541	0.749321	-0.206220
H194	H	1.037547	0.327166	-0.072022
H195	H	0.228777	0.676637	0.118544
C196	C	0.295851	1.165724	0.083259
N197	N	0.266682	1.225455	0.116135
H198	H	0.579209	0.471203	0.071964
H199	H	0.579216	0.353655	0.071958
H200	H	0.579230	0.145088	0.071941
H201	H	0.891836	0.327205	-0.072000
C202	C	0.554613	0.029616	0.083277
N203	N	0.483229	0.035653	0.116151
H204	H	0.579204	0.749389	-0.649862
C205	C	0.916459	0.189051	-0.083356
N206	N	0.987844	0.129326	-0.116238
H207	H	0.579230	0.749372	-0.206216
H208	H	0.433522	1.027575	0.071947
H209	H	0.433528	0.749401	0.350126
