data_functionalizedCrystal
_audit_creation_method	'MofGen! by Chris Wilmer'
_symmetry_space_group_name_H-M	'P1'
_symmetry_Int_Tables_number	1
_symmetry_cell_setting	triclinic
loop_
_symmetry_equiv_pos_as_xyz
  x,y,z
_cell_length_a	10.654550
_cell_length_b	10.654551
_cell_length_c	17.766277
_cell_angle_alpha	89.995031
_cell_angle_beta	89.997462
_cell_angle_gamma	84.485132
loop_
_atom_site_label
_atom_site_type_symbol
_atom_site_fract_x
_atom_site_fract_y
_atom_site_fract_z
O1	O	-1.667831	-0.176405	0.062651
O2	O	-1.302353	-0.193211	0.062638
O3	O	-1.493494	-0.002069	0.062645
O4	O	-1.476690	-0.367547	0.062644
O5	O	-1.493499	-0.002050	-0.062543
O6	O	-1.302357	-0.193192	-0.062550
O7	O	-1.667836	-0.176386	-0.062538
Cu8	Cu	-1.485097	-0.184787	-0.073974
Cu9	Cu	-1.485092	-0.184810	0.074075
O10	O	-1.476694	-0.367528	-0.062544
C11	C	-1.255557	-0.191968	0.000043
C12	C	-1.116114	-0.188276	0.000038
C13	C	-1.492263	0.044739	0.000053
C14	C	-1.488570	0.184182	0.000058
C15	C	-1.714632	-0.177629	0.000060
C16	C	-1.854075	-0.181321	0.000070
C17	C	-1.036629	-0.300817	0.000049
C18	C	-0.905608	-0.297341	0.000062
C19	C	-0.933570	-0.068771	0.000057
C20	C	-1.064589	-0.072249	0.000038
C21	C	-1.020484	-0.432780	0.000055
C22	C	-0.889463	-0.429304	0.000068
C23	C	-1.477926	-0.414336	0.000050
C24	C	-1.481619	-0.553779	0.000050
C25	C	-1.486835	0.249683	0.068297
C26	C	-1.483355	0.380704	0.068293
C27	C	-1.483350	0.380710	-0.068194
C28	C	-1.486821	0.249691	-0.068190
C29	C	-1.486844	0.249681	0.147097
C30	C	-1.483364	0.380702	0.147093
N31	N	-1.485089	-0.184817	0.178206
N32	N	-1.485110	-0.184770	-0.178105
C33	C	-1.569880	-0.100348	0.217596
C34	C	-1.569891	-0.100346	0.296398
C35	C	-1.485089	-0.184801	0.335806
C36	C	-1.400291	-0.269286	0.296407
C37	C	-1.400291	-0.269294	0.217607
C38	C	-1.370848	-0.199982	0.460647
C39	C	-1.370846	-0.199965	0.539446
C40	C	-1.485089	-0.184783	0.578853
C41	C	-1.599338	-0.169590	0.539451
C42	C	-1.599338	-0.169598	0.460650
C43	C	-1.485080	-0.184802	0.421252
C44	C	-1.569899	-0.100307	0.703689
C45	C	-1.569912	-0.100313	0.782492
C46	C	-1.400301	-0.269247	0.782500
C47	C	-1.400299	-0.269247	0.703698
C48	C	-1.485097	-0.184770	0.664297
H49	H	-1.129302	0.019393	0.000019
H50	H	-1.049817	-0.484382	-0.052340
O51	O	-1.586869	0.435781	0.183285
C52	C	-1.587830	0.391688	0.258091
H53	H	-1.529237	0.296597	0.262046
H54	H	-1.688965	0.380622	0.275910
H55	H	-1.546067	0.462188	0.296807
O56	O	-1.062941	-0.483136	0.064489
C57	C	-1.006692	-0.607612	0.072958
H58	H	-0.974874	-0.646744	0.015613
H59	H	-1.078066	-0.668817	0.098182
H60	H	-0.921653	-0.607933	0.111925
H61	H	-1.400053	0.203396	0.177353
O62	O	-1.374163	0.415928	0.176392
C63	C	-1.361085	0.373301	0.251371
H64	H	-1.457841	0.358134	0.275168
H65	H	-1.316743	0.446726	0.286668
H66	H	-1.298098	0.280577	0.252907
H67	H	-1.578442	0.220111	0.171549
H68	H	-1.277811	-0.212352	0.428569
H69	H	-0.891602	0.025694	0.000068
O70	O	-1.481607	0.444148	-0.134554
C71	C	-1.483918	0.358239	-0.194783
H72	H	-1.446707	0.259988	-0.174774
H73	H	-1.422047	0.388650	-0.242514
H74	H	-1.584867	0.356610	-0.215764
H75	H	-0.843794	-0.469176	-0.053980
H76	H	-1.331258	-0.338017	0.814586
H77	H	-0.847728	-0.479033	0.052463
O78	O	-1.652387	-0.018260	0.179440
C79	C	-1.727213	0.056313	0.231111
H80	H	-1.728965	0.004804	0.287290
H81	H	-1.827361	0.074341	0.208350
H82	H	-1.685821	0.150094	0.239477
O83	O	-1.317801	-0.351338	0.665547
C84	C	-1.242974	-0.425904	0.717224
H85	H	-1.241207	-0.374381	0.773392
H86	H	-1.142830	-0.443949	0.694455
H87	H	-1.284375	-0.519677	0.725614
H88	H	-1.638941	-0.031558	0.328475
O89	O	-1.488275	0.185983	-0.134459
C90	C	-1.381721	0.096897	-0.138533
H91	H	-1.304790	0.127093	-0.099804
H92	H	-1.345306	0.090964	-0.198889
H93	H	-1.408904	0.000599	-0.120202
H94	H	-1.331245	-0.338052	0.328497
H95	H	-1.692364	-0.157232	0.428572
H96	H	-1.692366	-0.157237	0.571533
H97	H	-1.638951	-0.031524	0.671607
O98	O	-1.652331	-0.018135	0.820641
C99	C	-1.727190	0.056398	0.768963
H100	H	-1.675697	0.058386	0.712791
H101	H	-1.745658	0.156505	0.791725
H102	H	-1.820744	0.014575	0.760586
O103	O	-1.259760	-0.214790	0.577601
C104	C	-1.158926	-0.228180	0.525925
H105	H	-1.193889	-0.263088	0.469759
H106	H	-1.081280	-0.299151	0.548699
H107	H	-1.120070	-0.133133	0.517532
O108	O	-1.317740	-0.351218	0.179373
C109	C	-1.193309	-0.329428	0.198640
H110	H	-1.192016	-0.228847	0.220298
H111	H	-1.130390	-0.343171	0.146818
H112	H	-1.156903	-0.398643	0.244383
