data_functionalizedCrystal
_audit_creation_method	'MofGen! by Chris Wilmer'
_symmetry_space_group_name_H-M	'P1'
_symmetry_Int_Tables_number	1
_symmetry_cell_setting	triclinic
loop_
_symmetry_equiv_pos_as_xyz
  x,y,z
_cell_length_a	17.038272
_cell_length_b	15.538191
_cell_length_c	14.750488
_cell_angle_alpha	82.431025
_cell_angle_beta	103.581856
_cell_angle_gamma	69.191825
loop_
_atom_site_label
_atom_site_type_symbol
_atom_site_fract_x
_atom_site_fract_y
_atom_site_fract_z
O1	O	-0.958413	-0.218637	0.079702
O2	O	-0.731675	-0.215468	0.079730
O3	O	-0.889180	-0.083460	0.079715
O4	O	-0.800909	-0.350645	0.079717
O5	O	-0.933715	-0.046143	-0.079947
O6	O	-0.776211	-0.178151	-0.079931
O7	O	-1.002949	-0.181320	-0.079960
Zn8	Zn	-0.896651	-0.173810	-0.105295
Zn9	Zn	-0.837973	-0.222977	0.105066
O10	O	-0.845445	-0.313328	-0.079945
C11	C	-0.725633	-0.193921	-0.000097
C12	C	-0.641281	-0.185306	-0.000086
C13	C	-0.920682	-0.030446	-0.000114
C14	C	-0.948190	0.071922	-0.000108
C15	C	-1.008991	-0.202867	-0.000131
C16	C	-1.093341	-0.211484	-0.000135
C17	C	-0.568730	-0.264430	-0.000086
C18	C	-0.489481	-0.256323	-0.000099
C19	C	-0.482783	-0.169094	-0.000106
C20	C	-0.555343	-0.089964	-0.000108
C21	C	-0.634592	-0.098070	-0.000102
C22	C	-0.245151	-0.140459	-0.000131
C23	C	-0.165892	-0.132360	-0.000135
C24	C	-0.100036	-0.298720	-0.000128
C25	C	-0.179288	-0.306819	-0.000116
C26	C	-0.251843	-0.227687	-0.000123
C27	C	-0.401777	-0.160807	-0.000116
C28	C	-0.332848	-0.235974	-0.000120
C29	C	-0.813942	-0.366342	-0.000114
C30	C	-0.786433	-0.468711	-0.000113
N31	N	-0.936703	-0.140255	-0.248861
C32	C	-0.674891	0.381611	-0.000094
C33	C	-0.700760	0.477805	-0.000099
C34	C	-0.846268	0.488591	-0.000117
C35	C	-0.820409	0.392395	-0.000107
C36	C	-0.734720	0.338912	-0.000097
C37	C	-0.880238	0.349697	-0.000110
C38	C	-0.854383	0.253510	-0.000105
C39	C	-0.768698	0.200022	-0.000097
C40	C	-0.708864	0.242726	-0.000092
C41	C	-0.965929	0.403183	-0.000127
C42	C	-1.025758	0.360485	-0.000130
C43	C	-0.999901	0.264295	-0.000118
C44	C	-0.914216	0.210806	-0.000110
C45	C	-1.059735	0.221591	-0.000123
C46	C	-1.033879	0.125404	-0.000118
C47	C	-0.888361	0.114620	-0.000105
C48	C	-1.048517	-0.046596	-0.399614
C49	C	-1.020458	-0.070094	-0.299108
C50	C	-0.880972	-0.186942	-0.299109
C51	C	-0.909018	-0.163450	-0.399618
C52	C	-0.992791	-0.093277	-0.449862
C53	C	-0.853292	-0.210132	-0.449866
C54	C	-0.881338	-0.186645	-0.550365
C55	C	-0.965109	-0.116477	-0.600617
C56	C	-1.020837	-0.069791	-0.550362
C57	C	-0.769521	-0.280309	-0.399620
C58	C	-0.713796	-0.326990	-0.449868
C59	C	-0.741839	-0.303499	-0.550369
C60	C	-0.825610	-0.233331	-0.600621
C61	C	-0.686111	-0.350185	-0.600624
C62	C	-0.714156	-0.326698	-0.701124
C63	C	-0.853655	-0.209844	-0.701120
N64	N	-0.797930	-0.256526	0.248632
H65	H	-0.574174	-0.335461	-0.000080
F66	F	-0.994959	-0.091485	-0.707579
H67	H	-1.089051	-0.012642	-0.591273
H68	H	-0.605112	0.338060	-0.000078
H69	H	-0.668779	-0.364713	-0.742036
F70	F	-1.116954	0.417416	-0.000148
H71	H	-0.639085	0.199175	-0.000076
F72	F	-0.741182	0.097652	-0.000100
F73	F	-1.150933	0.278526	-0.000150
F74	F	-1.137675	0.028100	-0.453091
H75	H	-0.818582	0.071069	-0.000089
F76	F	-0.791817	-0.261626	-0.245627
H77	H	-0.652037	0.512568	-0.000111
H78	H	-0.916038	0.532151	-0.000130
F79	F	-0.993447	0.505556	-0.000139
H80	H	-1.065845	-0.032075	-0.258201
H81	H	-1.082598	0.090639	-0.000121
F82	F	-0.942814	-0.135148	-0.754596
H83	H	-0.338307	-0.306994	-0.000120
F84	F	-0.322359	-0.056239	-0.000140
F85	F	-0.739679	-0.305306	-0.292658
F86	F	-0.186407	-0.399661	-0.000104
H87	H	-0.430409	-0.320755	-0.000098
H88	H	-0.645587	-0.384128	-0.408947
F89	F	-0.022816	-0.382930	-0.000122
F90	F	-0.596960	-0.424875	-0.547140
F91	F	-0.394640	-0.067975	-0.000120
F92	F	-0.711809	-0.013855	-0.000105
H93	H	-0.549887	-0.018937	-0.000127
F94	F	-0.158774	-0.039511	-0.000158
