data_functionalizedCrystal
_audit_creation_method	'MofGen! by Chris Wilmer'
_symmetry_space_group_name_H-M	'P1'
_symmetry_Int_Tables_number	1
_symmetry_cell_setting	triclinic
loop_
_symmetry_equiv_pos_as_xyz
  x,y,z
_cell_length_a	21.295419
_cell_length_b	10.686285
_cell_length_c	10.686551
_cell_angle_alpha	99.084519
_cell_angle_beta	94.395937
_cell_angle_gamma	85.646337
loop_
_atom_site_label
_atom_site_type_symbol
_atom_site_fract_x
_atom_site_fract_y
_atom_site_fract_z
Zn1	Zn	1.005650	-0.449639	0.679093
Zn2	Zn	1.505650	0.050361	1.179093
Zn3	Zn	1.005599	-0.678219	0.450591
Zn4	Zn	1.505599	-0.178219	0.950591
Zn5	Zn	0.892880	-0.466052	0.466846
Zn6	Zn	1.392880	0.033948	0.966846
Zn7	Zn	0.907884	-0.661887	0.662786
Zn8	Zn	1.407884	-0.161887	1.162786
O9	O	0.953003	-0.563949	0.564829
O10	O	1.453003	-0.063949	1.064829
O11	O	1.093732	-0.479927	0.648804
O12	O	1.593732	0.020073	1.148804
O13	O	0.984346	-0.663778	0.275116
O14	O	1.484346	-0.163778	0.775116
O15	O	0.901581	-0.286255	0.508628
O16	O	1.401581	0.213745	1.008628
O17	O	1.093695	-0.647864	0.480924
O18	O	1.593695	-0.147864	0.980924
O19	O	0.984433	-0.274197	0.664565
O20	O	1.484433	0.225803	1.164565
O21	O	0.901532	-0.507900	0.287058
O22	O	1.401532	-0.007900	0.787058
O23	O	0.806781	-0.492064	0.492815
O24	O	1.306781	0.007936	0.992815
O25	O	0.927154	-0.620029	0.842580
O26	O	1.427154	-0.120029	1.342580
O27	O	0.817805	-0.635943	0.636772
O28	O	1.317805	-0.135943	1.136772
O29	O	0.998982	-0.464091	0.854561
O30	O	1.498982	0.035909	1.354561
O31	O	0.998895	-0.853672	0.465112
O32	O	1.498895	-0.353672	0.965112
O33	O	0.927104	-0.841673	0.621011
O34	O	1.427104	-0.341673	1.121011
C35	C	0.964641	-0.893725	0.539556
C36	C	1.464641	-0.393725	1.039556
C37	C	0.969678	-1.034801	0.528786
C38	C	1.469678	-0.534801	1.028786
C39	C	0.789453	-0.564013	0.564789
C40	C	1.289453	-0.064013	1.064789
C41	C	0.719487	-0.564069	0.564799
C42	C	1.219487	-0.064069	1.064799
C43	C	0.686672	-0.476747	0.652330
C44	C	1.186672	0.023253	1.152330
C45	C	0.620928	-0.476712	0.652337
C46	C	1.120928	0.023288	1.152337
C47	C	0.588004	-0.564021	0.564826
C48	C	1.088004	-0.064021	1.064826
C49	C	0.620827	-0.651350	0.477279
C50	C	1.120827	-0.151350	0.977279
C51	C	0.686569	-0.651373	0.477266
C52	C	1.186569	-0.151373	0.977266
N53	N	0.488326	-0.675838	0.546418
N54	N	0.988326	-0.175838	1.046418
N55	N	0.425874	-0.675812	0.546438
N56	N	0.925874	-0.175812	1.046438
C57	C	0.389928	-0.563953	0.564859
C58	C	0.889928	-0.063953	1.064859
N59	N	0.418793	-0.452118	0.583283
N60	N	0.918793	0.047882	1.083283
N61	N	0.481251	-0.452146	0.583270
N62	N	0.981251	0.047854	1.083270
C63	C	0.516718	-0.564005	0.564830
C64	C	1.016718	-0.064005	1.064830
C65	C	0.285825	-0.476587	0.652402
C66	C	0.785825	0.023413	1.152402
C67	C	0.220080	-0.476551	0.652401
C68	C	0.720080	0.023449	1.152401
C69	C	0.219981	-0.651199	0.477349
C70	C	0.719981	-0.151199	0.977349
C71	C	0.285724	-0.651224	0.477345
C72	C	0.785724	-0.151224	0.977345
C73	C	0.318643	-0.563920	0.564878
C74	C	0.818643	-0.063920	1.064878
C75	C	1.117193	-0.563886	0.564870
C76	C	1.617193	-0.063886	1.064870
C77	C	1.187161	-0.563860	0.564888
C78	C	1.687161	-0.063860	1.064888
C79	C	0.964747	-0.538407	0.895916
C80	C	1.464747	-0.038407	1.395916
C81	C	0.969752	-0.527523	1.037006
C82	C	1.469752	-0.027523	1.537006
C83	C	0.941339	-0.232884	0.590229
C84	C	1.441339	0.267116	1.090229
C85	C	0.936368	-0.091803	0.601053
C86	C	1.436368	0.408197	1.101053
C87	C	0.941338	-0.589301	0.235037
C88	C	1.441338	-0.089301	0.735037
C89	C	0.936443	-0.599828	0.093975
C90	C	1.436443	-0.099828	0.593975
H91	H	0.903997	-1.032679	0.671164
H92	H	1.403997	-0.532679	1.171164
C93	C	0.183768	-0.747239	0.381084
C94	C	0.683768	-0.247239	0.881084
N95	N	0.156489	-0.819578	0.308573
N96	N	0.656489	-0.319578	0.808573
H97	H	1.002047	-1.093935	0.458662
H98	H	1.502047	-0.593935	0.958662
H99	H	0.312629	-0.405491	0.723670
H100	H	0.812629	0.094509	1.223670
H101	H	0.312444	-0.722336	0.406073
H102	H	0.812444	-0.222336	0.906073
C103	C	0.584824	-0.380655	0.748638
C104	C	1.084824	0.119345	1.248638
N105	N	0.557633	-0.308307	0.821175
N106	N	1.057633	0.191693	1.321175
H107	H	0.713470	-0.405656	0.723605
H108	H	1.213470	0.094344	1.223605
H109	H	0.904099	-0.670062	1.034812
H110	H	1.404099	-0.170062	1.534812
H111	H	0.594016	-0.722436	0.406026
H112	H	1.094016	-0.222436	0.906026
H113	H	0.713287	-0.722483	0.405986
H114	H	1.213287	-0.222483	0.905986
C115	C	0.183983	-0.380484	0.748695
C116	C	0.683983	0.119516	1.248695
N117	N	0.156795	-0.308126	0.821228
N118	N	0.656795	0.191874	1.321228
C119	C	1.013452	-0.432635	1.116938
C120	C	1.513452	0.067365	1.616938
N121	N	1.046365	-0.361163	1.177144
N122	N	1.546365	0.138837	1.677144
