data_functionalizedCrystal
_audit_creation_method	'MofGen! by Chris Wilmer'
_symmetry_space_group_name_H-M	'P1'
_symmetry_Int_Tables_number	1
_symmetry_cell_setting	triclinic
loop_
_symmetry_equiv_pos_as_xyz
  x,y,z
_cell_length_a	16.625548
_cell_length_b	12.594516
_cell_length_c	12.594509
_cell_angle_alpha	90.025520
_cell_angle_beta	90.021290
_cell_angle_gamma	90.019240
loop_
_atom_site_label
_atom_site_type_symbol
_atom_site_fract_x
_atom_site_fract_y
_atom_site_fract_z
Zn1	Zn	1.232710	-0.423696	0.601859
Zn2	Zn	1.232622	-0.601701	0.423884
Zn3	Zn	1.097870	-0.423741	0.423889
Zn4	Zn	1.097853	-0.601636	0.601815
O5	O	1.165264	-0.512694	0.512862
O6	O	1.345531	-0.447317	0.578267
O7	O	1.214717	-0.578141	0.274939
O8	O	1.115802	-0.274789	0.447518
O9	O	1.345466	-0.578097	0.447509
O10	O	1.214868	-0.274756	0.578272
O11	O	1.115716	-0.447393	0.274943
O12	O	0.985036	-0.447330	0.447475
O13	O	1.115771	-0.577986	0.750767
O14	O	0.985023	-0.578029	0.578197
O15	O	1.214851	-0.447254	0.750799
O16	O	1.214700	-0.750639	0.447467
O17	O	1.115686	-0.750591	0.578192
C18	C	0.955773	-0.512678	0.512832
C19	C	0.866152	-0.512697	0.512845
C20	C	1.165203	-0.789235	0.512847
C21	C	1.165251	-0.907540	0.512877
C22	C	0.537976	-0.512704	0.512890
C23	C	0.629285	-0.512700	0.512874
C24	C	0.702061	-0.512702	0.512867
C25	C	0.793375	-0.512695	0.512852
C26	C	1.111441	-1.047569	0.583942
C27	C	1.184949	-0.976657	0.610056
C28	C	1.091750	-0.976881	0.486810
C29	C	1.238930	-1.047413	0.539081
C30	C	1.145682	-1.047643	0.415790
C31	C	1.219240	-0.976763	0.441867
C32	C	1.375573	-0.512710	0.512893
C33	C	1.465194	-0.512716	0.512906
C34	C	1.165319	-0.512608	0.790483
C35	C	1.165342	-0.512571	0.908789
C36	C	1.165347	-0.235073	0.512900
C37	C	1.165382	-0.116767	0.512916
C38	C	1.165255	-0.512702	0.236321
C39	C	1.165388	-0.512439	0.118016
C40	C	1.111487	-0.583587	1.048788
C41	C	1.091776	-0.486523	0.977984
C42	C	1.185017	-0.609626	0.978021
C43	C	1.145640	-0.415322	1.048771
C44	C	1.238914	-0.538491	1.048813
C45	C	1.219232	-0.441359	0.978042
H46	H	1.065937	-1.078656	0.644069
O47	O	1.125747	-1.085006	0.317933
C48	C	1.033459	-1.190428	0.214597
C49	C	1.055967	-1.148205	0.325481
H50	H	0.977030	-1.241515	0.220659
H51	H	1.085089	-1.240235	0.181957
H52	H	1.021566	-1.120717	0.159064
H53	H	1.067846	-1.217851	0.381093
H54	H	1.004323	-1.098367	0.358033
H55	H	1.128948	-0.333164	1.079719
O56	O	1.204795	-0.939276	0.707944
C57	C	1.227577	-0.785152	0.817343
C58	C	1.205116	-0.827335	0.706427
H59	H	1.227827	-0.694643	0.816159
H60	H	1.289870	-0.815299	0.840189
H61	H	1.181601	-0.814295	0.877821
H62	H	1.251037	-0.798209	0.645875
H63	H	1.142802	-0.797196	0.683670
H64	H	1.264795	-0.381178	0.947175
O65	O	1.313179	-1.084085	0.565672
C66	C	1.417996	-1.088781	0.697777
C67	C	1.333914	-1.047157	0.667782
H68	H	1.434780	-1.058960	0.780344
H69	H	1.464002	-1.058978	0.637660
H70	H	1.417428	-1.179295	0.697557
H71	H	1.334403	-0.956646	0.668014
H72	H	1.287944	-1.077041	0.727906
O73	O	1.017593	-0.939789	0.460352
C74	C	0.939027	-0.836432	0.337234
C75	C	1.023058	-0.878342	0.367077
H76	H	0.943414	-0.786762	0.261807
H77	H	0.914704	-0.785284	0.404665
H78	H	0.896738	-0.906299	0.323100
H79	H	1.065407	-0.808541	0.381194
H80	H	1.047314	-0.929522	0.299630
O81	O	1.313032	-0.564873	1.086096
C82	C	1.391228	-0.686784	1.191342
C83	C	1.307244	-0.656995	1.149210
H84	H	1.386580	-0.761280	1.242360
H85	H	1.416041	-0.618659	1.241198
H86	H	1.433255	-0.702504	1.121586
H87	H	1.265156	-0.641293	1.218902
H88	H	1.282497	-0.725137	1.099323
H89	H	1.065889	-0.643623	1.079852
H90	H	1.029577	-0.464538	0.946872
O91	O	1.273761	-0.939947	0.370311
C92	C	1.412872	-0.934360	0.316959
C93	C	1.351213	-0.976107	0.398078
H94	H	1.475503	-0.963597	0.339367
H95	H	1.412116	-0.843847	0.316974
H96	H	1.396627	-0.964792	0.234428
H97	H	1.367416	-0.945753	0.480649
H98	H	1.351981	-1.066619	0.397970
H99	H	1.201639	-0.691761	0.946944
