data_functionalizedCrystal
_audit_creation_method	'MofGen! by Chris Wilmer'
_symmetry_space_group_name_H-M	'P1'
_symmetry_Int_Tables_number	1
_symmetry_cell_setting	triclinic
loop_
_symmetry_equiv_pos_as_xyz
  x,y,z
_cell_length_a	10.654541
_cell_length_b	15.944551
_cell_length_c	9.130307
_cell_angle_alpha	90.005644
_cell_angle_beta	89.999406
_cell_angle_gamma	83.991333
loop_
_atom_site_label
_atom_site_type_symbol
_atom_site_fract_x
_atom_site_fract_y
_atom_site_fract_z
O1	O	1.666311	0.117967	0.121758
O2	O	1.300686	0.129209	0.121771
O3	O	1.493483	0.001371	0.121751
O4	O	1.473514	0.245805	0.121778
O5	O	1.493480	0.001366	-0.121848
O6	O	1.300683	0.129205	-0.121828
O7	O	1.666308	0.117962	-0.121841
Cu8	Cu	1.483495	0.123583	-0.144077
Cu9	Cu	1.483499	0.123589	0.144007
O10	O	1.473511	0.245801	-0.121821
C11	C	1.253897	0.128382	-0.000027
C12	C	1.114486	0.125914	-0.000022
C13	C	1.492652	-0.029930	-0.000049
C14	C	1.490167	-0.123190	-0.000049
C15	C	1.084537	0.278779	0.000013
C16	C	1.004069	0.354048	0.000036
C17	C	0.873081	0.351724	0.000038
C18	C	0.822560	0.274122	0.000011
C19	C	0.903028	0.198852	-0.000012
C20	C	1.034017	0.201185	-0.000009
C21	C	0.932976	0.045989	-0.000058
C22	C	1.063965	0.048311	-0.000049
C23	C	0.882455	-0.031613	-0.000085
C24	C	0.962924	-0.106885	-0.000098
C25	C	1.093919	-0.104557	-0.000097
C26	C	1.144433	-0.026958	-0.000072
C27	C	1.364722	-0.338772	-0.000025
C28	C	1.422973	-0.399455	-0.120136
C29	C	1.485671	-0.293942	-0.000038
C30	C	1.423005	-0.399434	0.120034
C31	C	1.481319	-0.458880	-0.000021
C32	C	1.543955	-0.353397	-0.120248
C33	C	1.543970	-0.353369	0.120029
C34	C	1.602309	-0.414034	-0.000111
C35	C	1.488175	-0.198925	-0.000049
C36	C	1.478825	-0.553896	-0.000020
C37	C	1.713097	0.118790	-0.000040
C38	C	1.852508	0.121258	-0.000035
C39	C	1.474342	0.277102	-0.000018
C40	C	1.476827	0.370362	-0.000008
N41	N	1.483502	0.123578	-0.346700
N42	N	1.483502	0.123587	0.346630
C43	C	1.654558	0.010599	0.346602
C44	C	1.740082	-0.045901	0.423255
C45	C	1.740081	-0.045910	0.576589
C46	C	1.654550	0.010588	0.653273
C47	C	1.569026	0.067088	0.576620
C48	C	1.569034	0.067090	0.423283
C49	C	1.397978	0.180078	0.576647
C50	C	1.397971	0.180085	0.423314
C51	C	1.312447	0.236577	0.653332
C52	C	1.226915	0.293074	0.576679
C53	C	1.226918	0.293080	0.423336
C54	C	1.312447	0.236585	0.346661
H55	H	1.045218	0.417231	0.000054
H56	H	1.595067	-0.333113	-0.221904
C57	C	1.738041	-0.458053	-0.000206
H58	H	1.780795	-0.442295	-0.085603
H59	H	1.781324	-0.441577	0.084303
H60	H	1.735734	-0.517451	0.000591
C61	C	0.678478	0.271561	-0.000001
H62	H	0.659914	0.214567	-0.000026
H63	H	0.643308	0.299263	0.084949
H64	H	0.643324	0.299263	-0.084958
H65	H	1.157287	0.339075	0.639124
C66	C	1.613016	-0.325762	0.257204
H67	H	1.569921	-0.341353	0.342466
H68	H	1.696943	-0.352572	0.258065
H69	H	1.614751	-0.266319	0.255726
H70	H	1.264329	-0.306045	-0.000141
H71	H	1.371815	-0.419861	-0.221677
H72	H	0.775797	-0.033501	-0.000092
C73	C	1.132819	0.355217	0.339029
H74	H	1.081874	0.388852	0.406664
H75	H	1.177864	0.390532	0.279206
H76	H	1.080637	0.324592	0.279223
H77	H	1.371834	-0.419804	0.221585
C78	C	0.907349	-0.192235	-0.000124
H79	H	0.817813	-0.182839	-0.000119
H80	H	0.934972	-0.223261	-0.085075
H81	H	0.934959	-0.223258	0.084832
C82	C	1.654548	0.010604	0.177940
H83	H	1.591357	0.052340	0.143272
H84	H	1.734760	0.022692	0.143247
H85	H	1.637495	-0.043223	0.143248
C86	C	1.182425	-0.187355	-0.000115
H87	H	1.133571	-0.233900	-0.000119
H88	H	1.234153	-0.189626	-0.085058
H89	H	1.234137	-0.189628	0.084850
C90	C	1.834155	-0.108050	0.338908
H91	H	1.885094	-0.141696	0.406522
H92	H	1.789082	-0.143353	0.279083
H93	H	1.886347	-0.077437	0.279103
H94	H	1.809727	-0.091914	0.639000
H95	H	1.251088	-0.025055	-0.000055
C96	C	1.654559	0.010589	0.821935
H97	H	1.591380	0.052331	0.856626
H98	H	1.637528	-0.043234	0.856621
H99	H	1.734778	0.022691	0.856611
C100	C	1.312442	0.236566	0.821994
H101	H	1.375617	0.194820	0.856665
H102	H	1.329479	0.290386	0.856706
H103	H	1.232221	0.224467	0.856664
H104	H	1.312452	0.236582	0.221809
H105	H	1.191193	0.280679	0.000044
H106	H	0.807563	0.413015	0.000046
