data_functionalizedCrystal
_audit_creation_method	'MofGen! by Chris Wilmer'
_symmetry_space_group_name_H-M	'P1'
_symmetry_Int_Tables_number	1
_symmetry_cell_setting	triclinic
loop_
_symmetry_equiv_pos_as_xyz
  x,y,z
_cell_length_a	17.699104
_cell_length_b	17.699083
_cell_length_c	8.965430
_cell_angle_alpha	89.991076
_cell_angle_beta	90.004904
_cell_angle_gamma	96.712734
loop_
_atom_site_label
_atom_site_type_symbol
_atom_site_fract_x
_atom_site_fract_y
_atom_site_fract_z
O1	O	-1.004064	0.095790	-0.124101
O2	O	-0.670731	0.429123	0.209232
O3	O	-0.337397	0.762457	0.542565
O4	O	-0.783688	0.108226	-0.124092
O5	O	-0.450354	0.441559	0.209242
O6	O	-0.117021	0.774893	0.542575
O7	O	-0.900102	-0.008181	-0.124084
O8	O	-0.566769	0.325153	0.209250
O9	O	-0.233435	0.658486	0.542583
O10	O	-0.887650	0.212197	-0.124109
O11	O	-0.554316	0.545530	0.209224
O12	O	-0.220983	0.878863	0.542557
O13	O	-0.900096	-0.008192	0.123995
O14	O	-0.566762	0.325141	0.457329
O15	O	-0.233429	0.658475	0.790662
O16	O	-0.783682	0.108215	0.123987
O17	O	-0.450348	0.441548	0.457320
O18	O	-0.117015	0.774881	0.790654
O19	O	-1.004058	0.095779	0.123978
O20	O	-0.670724	0.429112	0.457311
O21	O	-0.337391	0.762446	0.790644
Cu22	Cu	-0.893869	0.101996	0.146634
Cu23	Cu	-0.560536	0.435329	0.479967
Cu24	Cu	-0.227202	0.768662	0.813301
Cu25	Cu	-0.893876	0.102009	-0.146748
Cu26	Cu	-0.560543	0.435342	0.186585
Cu27	Cu	-0.227210	0.768676	0.519919
O28	O	-0.887643	0.212186	0.123969
O29	O	-0.554310	0.545519	0.457303
O30	O	-0.220977	0.878852	0.790636
C31	C	-0.755488	0.107772	-0.000051
C32	C	-0.422155	0.441105	0.333282
C33	C	-0.088821	0.774439	0.666616
C34	C	-0.671471	0.106427	-0.000047
C35	C	-0.338137	0.439761	0.333286
C36	C	-0.004804	0.773094	0.666620
C37	C	-0.146600	0.167171	-0.000055
C38	C	0.186734	0.500504	0.333279
C39	C	0.520067	0.833838	0.666612
C40	C	-0.225543	0.168430	-0.000061
C41	C	0.107790	0.501764	0.333272
C42	C	0.441123	0.835097	0.666605
C43	C	-0.274161	0.100095	-0.000054
C44	C	0.059172	0.433428	0.333279
C45	C	0.392506	0.766762	0.666612
C46	C	-0.243831	0.030496	-0.000056
C47	C	0.089502	0.363829	0.333278
C48	C	0.422835	0.697163	0.666611
C49	C	-0.164889	0.029238	-0.000060
C50	C	0.168445	0.362571	0.333274
C51	C	0.501778	0.695905	0.666607
C52	C	-0.562197	0.035569	-0.000042
C53	C	-0.228864	0.368903	0.333292
C54	C	0.104469	0.702236	0.666625
C55	C	-0.641144	0.036833	-0.000033
C56	C	-0.307811	0.370166	0.333300
C57	C	0.025522	0.703500	0.666634
C58	C	-0.622852	0.174762	-0.000043
C59	C	-0.289519	0.508095	0.333290
C60	C	0.043815	0.841428	0.666623
C61	C	-0.543909	0.173503	-0.000047
C62	C	-0.210576	0.506837	0.333286
C63	C	0.122757	0.840170	0.666619
C64	C	-0.513587	0.103905	-0.000057
C65	C	-0.180253	0.437238	0.333277
C66	C	0.153080	0.770572	0.666610
C67	C	-0.427987	0.102541	-0.000052
C68	C	-0.094653	0.435874	0.333281
C69	C	0.238680	0.769207	0.666615
C70	C	-0.359759	0.101459	-0.000048
C71	C	-0.026426	0.434792	0.333285
C72	C	0.306907	0.768125	0.666619
C73	C	-0.899653	-0.036383	-0.000044
C74	C	-0.566319	0.296950	0.333289
C75	C	-0.232986	0.630283	0.666623
C76	C	-0.898314	-0.120402	-0.000043
C77	C	-0.564981	0.212932	0.333290
C78	C	-0.231647	0.546265	0.666623
C79	C	-0.966647	-0.169017	-0.000044
C80	C	-0.633314	0.164316	0.333289
C81	C	-0.299980	0.497649	0.666622
C82	C	-0.965385	-0.247961	-0.000057
C83	C	-0.632051	0.085373	0.333276
C84	C	-0.298718	0.418706	0.666609
C85	C	-0.895789	-0.278287	-0.000059
C86	C	-0.562455	0.055047	0.333274
C87	C	-0.229122	0.388380	0.666608
C88	C	-0.827451	-0.229665	-0.000063
C89	C	-0.494118	0.103669	0.333271
C90	C	-0.160784	0.437002	0.666604
C91	C	-0.828714	-0.150723	-0.000060
C92	C	-0.495381	0.182611	0.333273
C93	C	-0.162047	0.515944	0.666607
C94	C	-0.822356	-0.548028	-0.000074
C95	C	-0.489022	-0.214695	0.333259
C96	C	-0.155689	0.118639	0.666592
C97	C	-0.821098	-0.626976	-0.000072
C98	C	-0.487764	-0.293643	0.333261
C99	C	-0.154431	0.039690	0.666594
C100	C	-0.959026	-0.645266	-0.000072
C101	C	-0.625693	-0.311933	0.333262
C102	C	-0.292360	0.021401	0.666595
C103	C	-0.960289	-0.566324	-0.000069
C104	C	-0.626956	-0.232991	0.333264
C105	C	-0.293623	0.100342	0.666597
C106	C	-0.891952	-0.517709	-0.000081
C107	C	-0.558618	-0.184376	0.333253
C108	C	-0.225285	0.148958	0.666586
C109	C	-0.893321	-0.432110	-0.000069
C110	C	-0.559988	-0.098776	0.333264
C111	C	-0.226655	0.234557	0.666597
C112	C	-0.894419	-0.363885	-0.000060
C113	C	-0.561085	-0.030551	0.333274
C114	C	-0.227752	0.302782	0.666607
C115	C	-0.032258	0.096233	-0.000059
C116	C	0.301076	0.429566	0.333274
C117	C	0.634409	0.762899	0.666607
C118	C	-0.116275	0.097578	-0.000052
C119	C	0.217059	0.430911	0.333282
C120	C	0.550392	0.764244	0.666615
C121	C	-0.888093	0.240388	-0.000073
C122	C	-0.554759	0.573722	0.333260
C123	C	-0.221426	0.907055	0.666593
C124	C	-0.889431	0.324406	-0.000084
C125	C	-0.556098	0.657740	0.333249
C126	C	-0.222765	0.991073	0.666583
N127	N	-0.893869	0.101986	0.352983
N128	N	-0.560536	0.435319	0.686316
N129	N	-0.227203	0.768653	1.019650
C130	C	-0.947295	0.047736	0.549657
C131	C	-0.613961	0.381070	0.882990
C132	C	-0.280628	0.714403	1.216324
C133	C	-0.962464	0.115891	0.450171
C134	C	-0.629131	0.449224	0.783504
C135	C	-0.295798	0.782557	1.116838
C136	C	-0.878733	0.033837	0.450261
C137	C	-0.545400	0.367170	0.783595
C138	C	-0.212067	0.700504	1.116928
C139	C	-0.909086	0.170200	0.549606
C140	C	-0.575753	0.503533	0.882939
C141	C	-0.242420	0.836867	1.216272
C142	C	-0.825326	0.088102	0.549705
C143	C	-0.491992	0.421435	0.883038
C144	C	-0.158659	0.754768	1.216372
C145	C	-0.840466	0.156306	0.450264
C146	C	-0.507133	0.489639	0.783597
C147	C	-0.173800	0.822972	1.116930
N148	N	-0.893883	0.102011	0.646903
N149	N	-0.560549	0.435345	0.980236
N150	N	-0.227216	0.768678	1.313569
H151	H	-0.647550	0.231432	-0.000042
H152	H	-0.314216	0.564765	0.333291
H153	H	0.019117	0.898099	0.666624
N154	N	-0.925253	0.242530	0.604081
N155	N	-0.591920	0.575864	0.937415
N156	N	-0.258586	0.909197	1.270748
N157	N	-0.936738	0.294058	0.514412
N158	N	-0.603405	0.627391	0.847745
N159	N	-0.270072	0.960725	1.181078
H160	H	-0.948159	0.345140	0.552885
H161	H	-0.614826	0.678473	0.886219
H162	H	-0.281493	1.011807	1.219552
N163	N	-0.752618	0.073340	0.604594
N164	N	-0.419285	0.406673	0.937927
N165	N	-0.085951	0.740007	1.271260
N166	N	-0.694324	0.116837	0.570949
N167	N	-0.360991	0.450170	0.904282
N168	N	-0.027658	0.783503	1.237615
H169	H	-0.642973	0.106405	0.609712
H170	H	-0.309640	0.439739	0.943045
H171	H	0.023694	0.773072	1.276378
H172	H	-0.764421	-0.651664	-0.000071
H173	H	-0.431088	-0.318331	0.333263
H174	H	-0.097755	0.015003	0.666596
N175	N	-1.028841	-0.694916	-0.000092
N176	N	-0.695508	-0.361583	0.333242
N177	N	-0.362174	-0.028249	0.666575
N178	N	-1.090974	-0.667828	-0.000087
N179	N	-0.757640	-0.334495	0.333246
N180	N	-0.424307	-0.001161	0.666580
H181	H	-1.140280	-0.702891	-0.000098
H182	H	-0.806947	-0.369557	0.333235
H183	H	-0.473613	-0.036224	0.666569
H184	H	-0.865925	-0.023807	0.406621
H185	H	-0.532592	0.309527	0.739954
H186	H	-0.199259	0.642860	1.073287
H187	H	-0.795289	0.202243	0.406898
H188	H	-0.461956	0.535577	0.740231
H189	H	-0.128623	0.868910	1.073564
H190	H	-0.107020	0.222818	-0.000049
H191	H	0.226313	0.556151	0.333284
H192	H	0.559647	0.889484	0.666618
H193	H	-0.537518	-0.021102	-0.000045
H194	H	-0.204185	0.312232	0.333288
H195	H	0.129148	0.645565	0.666622
H196	H	-1.023320	-0.144333	-0.000034
H197	H	-0.689986	0.189001	0.333300
H198	H	-0.356653	0.522334	0.666633
N199	N	-0.256507	0.239525	-0.000081
N200	N	0.076827	0.572858	0.333252
N201	N	0.410160	0.906192	0.666585
N202	N	-0.213090	0.300533	-0.000087
N203	N	0.120243	0.633866	0.333246
N204	N	0.453576	0.967200	0.666579
H205	H	-0.234957	0.350748	-0.000107
H206	H	0.098377	0.684081	0.333226
H207	H	0.431710	1.017414	0.666559
H208	H	-1.020435	0.127650	0.406451
H209	H	-0.687102	0.460984	0.739784
H210	H	-0.353769	0.794317	1.073118
H211	H	-1.021028	-0.287541	-0.000055
H212	H	-0.687695	0.045792	0.333279
H213	H	-0.354361	0.379125	0.666612
N214	N	-0.494260	0.243313	-0.000040
N215	N	-0.160926	0.576646	0.333293
N216	N	0.172407	0.909980	0.666627
N217	N	-0.521346	0.305447	-0.000044
N218	N	-0.188013	0.638780	0.333289
N219	N	0.145321	0.972113	0.666623
H220	H	-0.486282	0.354752	-0.000042
H221	H	-0.152949	0.688086	0.333291
H222	H	0.180385	1.021419	0.666625
N223	N	-0.690797	-0.032981	-0.000019
N224	N	-0.357464	0.300353	0.333314
N225	N	-0.024131	0.633686	0.666648
N226	N	-0.663715	-0.095116	-0.000025
N227	N	-0.330381	0.238217	0.333309
N228	N	0.002952	0.571550	0.666642
H229	H	-0.698781	-0.144420	-0.000011
H230	H	-0.365448	0.188913	0.333322
H231	H	-0.032115	0.522246	0.666656
H232	H	-0.766711	-0.508455	-0.000083
H233	H	-0.433377	-0.175121	0.333250
H234	H	-0.100044	0.158212	0.666583
H235	H	-0.992499	0.001899	0.593297
H236	H	-0.659166	0.335233	0.926630
H237	H	-0.325833	0.668566	1.259963
H238	H	-0.770785	-0.254362	-0.000073
H239	H	-0.437451	0.078971	0.333260
H240	H	-0.104118	0.412304	0.666593
H241	H	-0.283422	-0.025143	-0.000059
H242	H	0.049911	0.308190	0.333274
H243	H	0.383245	0.641523	0.666608
H244	H	-0.140200	-0.027432	-0.000060
H245	H	0.193133	0.305901	0.333273
H246	H	0.526466	0.639234	0.666607
N247	N	-1.031386	-0.535361	-0.000053
N248	N	-0.698053	-0.202027	0.333280
N249	N	-0.364720	0.131306	0.666613
N250	N	-1.092394	-0.578777	-0.000055
N251	N	-0.759061	-0.245444	0.333278
N252	N	-0.425727	0.087890	0.666611
H253	H	-1.142609	-0.556911	-0.000048
H254	H	-0.809275	-0.223578	0.333286
H255	H	-0.475942	0.109756	0.666619
H256	H	-0.773070	-0.111140	-0.000060
H257	H	-0.439737	0.222193	0.333274
H258	H	-0.106404	0.555527	0.666607
