data_functionalizedCrystal
_audit_creation_method	'MofGen! by Chris Wilmer'
_symmetry_space_group_name_H-M	'P1'
_symmetry_Int_Tables_number	1
_symmetry_cell_setting	triclinic
loop_
_symmetry_equiv_pos_as_xyz
  x,y,z
_cell_length_a	12.594517
_cell_length_b	13.897449
_cell_length_c	12.594510
_cell_angle_alpha	89.978681
_cell_angle_beta	90.028761
_cell_angle_gamma	89.992087
loop_
_atom_site_label
_atom_site_type_symbol
_atom_site_fract_x
_atom_site_fract_y
_atom_site_fract_z
Zn1	Zn	0.423614	1.474782	-0.601857
Zn2	Zn	0.601642	1.474706	-0.423894
Zn3	Zn	0.423682	1.313470	-0.423890
Zn4	Zn	0.601555	1.313484	-0.601829
O5	O	0.512623	1.394111	-0.512867
O6	O	0.447238	1.609754	-0.578263
O7	O	0.578100	1.453279	-0.274948
O8	O	0.274727	1.334894	-0.447508
O9	O	0.578034	1.609698	-0.447515
O10	O	0.274677	1.453410	-0.578259
O11	O	0.447353	1.334820	-0.274945
O12	O	0.447269	1.178490	-0.447481
O13	O	0.577885	1.334919	-0.750778
O14	O	0.577951	1.178501	-0.578211
O15	O	0.447153	1.453424	-0.750799
O16	O	0.750576	1.453293	-0.447488
O17	O	0.750512	1.334845	-0.578215
C18	C	0.512609	1.143496	-0.512843
C19	C	0.512628	1.036282	-0.512858
C20	C	0.235002	1.394159	-0.512886
C21	C	0.116697	1.394180	-0.512894
C22	C	0.512632	0.839987	-0.512886
C23	C	0.512627	0.949220	-0.512867
C24	C	0.047416	1.458633	-0.584014
C25	C	-0.023331	1.482199	-0.486913
C26	C	-0.023355	1.370644	-0.609999
C27	C	0.047508	1.417792	-0.415742
C28	C	0.047489	1.306195	-0.538894
C29	C	-0.023226	1.329728	-0.441726
C30	C	0.789164	1.394089	-0.512872
C31	C	0.907469	1.394167	-0.512910
C32	C	0.512502	1.394182	-0.790488
C33	C	0.512450	1.394212	-0.908794
C34	C	0.512638	1.645703	-0.512892
C35	C	0.512644	1.752917	-0.512903
C36	C	0.441324	1.458690	-1.048822
C37	C	0.538444	1.482255	-0.978009
C38	C	0.415341	1.370689	-0.978035
C39	C	0.609589	1.417863	-1.048767
C40	C	0.486421	1.306256	-1.048799
C41	C	0.583608	1.329788	-0.978018
C42	C	0.512666	1.394095	-0.236326
C43	C	0.512418	1.394252	-0.118022
H44	H	0.078435	1.513186	-0.644076
H45	H	0.381263	1.513241	-1.079909
O46	O	-0.060402	1.571014	-0.460852
C47	C	-0.024398	1.638762	-0.536007
H48	H	-0.004557	1.600424	-0.613504
H49	H	-0.089189	1.694443	-0.550941
H50	H	0.049664	1.676204	-0.504350
O51	O	0.564672	1.571078	-0.941086
C52	C	0.582160	1.633608	-1.027505
H53	H	0.538621	1.605228	-1.100428
H54	H	0.551141	1.708396	-1.007025
H55	H	0.670855	1.637765	-1.044944
O56	O	0.317469	1.346809	-0.940844
C57	C	0.324796	1.262303	-0.879294
H58	H	0.409490	1.253737	-0.848743
H59	H	0.267900	1.267381	-0.809148
H60	H	0.302921	1.197458	-0.930218
H61	H	0.691717	1.437883	-1.079707
O62	O	0.655572	1.264868	-0.941203
C63	C	0.757763	1.290034	-0.977461
H64	H	0.759786	1.370066	-0.997238
H65	H	0.818618	1.273824	-0.912847
H66	H	0.777519	1.246564	-1.051614
H67	H	0.464383	1.231879	-1.079919
H68	H	-0.054048	1.275217	-0.381520
O69	O	0.084654	1.441656	-0.317823
C70	C	0.196595	1.441383	-0.318999
H71	H	0.225860	1.452147	-0.403814
H72	H	0.227519	1.502207	-0.266743
H73	H	0.226925	1.369576	-0.287392
H74	H	-0.054483	1.350744	-0.692113
O75	O	0.084590	1.217492	-0.565346
C76	C	0.048525	1.192951	-0.667814
H77	H	0.028607	1.261315	-0.713743
H78	H	0.113310	1.151546	-0.711463
H79	H	-0.025502	1.146148	-0.661098
