data_functionalizedCrystal
_audit_creation_method	'MofGen! by Chris Wilmer'
_symmetry_space_group_name_H-M	'P1'
_symmetry_Int_Tables_number	1
_symmetry_cell_setting	triclinic
loop_
_symmetry_equiv_pos_as_xyz
  x,y,z
_cell_length_a	23.532407
_cell_length_b	10.654554
_cell_length_c	22.610064
_cell_angle_alpha	90.002038
_cell_angle_beta	90.018120
_cell_angle_gamma	96.332289
loop_
_atom_site_label
_atom_site_type_symbol
_atom_site_fract_x
_atom_site_fract_y
_atom_site_fract_z
O1	O	-0.079984	1.665302	0.049176
O2	O	-0.087602	1.299583	0.049175
O3	O	-0.000934	1.493470	0.049183
O4	O	-0.166653	1.471414	0.049168
O5	O	-0.000956	1.493457	-0.049186
O6	O	-0.087625	1.299569	-0.049194
O7	O	-0.080007	1.665288	-0.049194
Zn8	Zn	-0.083819	1.482427	-0.064812
Zn9	Zn	-0.083790	1.482444	0.064794
O10	O	-0.166675	1.471401	-0.049201
C11	C	-0.087054	1.252796	-0.000009
C12	C	-0.085378	1.113406	-0.000009
C13	C	-0.134836	0.901331	-0.000012
C14	C	-0.136410	1.032302	-0.000012
C15	C	-0.032769	1.063533	0.000001
C16	C	-0.031196	0.932563	0.000005
C17	C	-0.194672	0.883301	-0.000022
C18	C	-0.196246	1.014272	-0.000022
C19	C	-0.187884	1.471969	-0.000018
C20	C	-0.251112	1.473658	-0.000024
C21	C	-0.649536	1.369511	0.000006
C22	C	-0.708946	1.371079	0.000010
O23	O	-0.745061	1.274534	0.000032
N24	N	-0.732324	1.486346	0.000010
C25	C	-0.696288	1.600051	0.000011
O26	O	-0.721628	1.698237	0.000011
C27	C	-0.636879	1.598480	0.000011
C28	C	-0.613504	1.483207	0.000006
C29	C	-0.626161	1.254246	0.000001
C30	C	-0.566754	1.252678	-0.000004
C31	C	-0.530723	1.366374	-0.000004
C32	C	-0.554098	1.481639	0.000000
C33	C	-0.600844	1.712184	0.000016
C34	C	-0.541431	1.710604	0.000017
C35	C	-0.518057	1.595330	0.000012
C36	C	-0.458660	1.593767	-0.000005
N37	N	-0.435282	1.478500	-0.000005
C38	C	-0.471314	1.364804	-0.000004
C39	C	-0.821052	1.603339	0.000012
C40	C	-0.880460	1.604910	0.000007
C41	C	-0.893114	1.375939	0.000008
C42	C	-0.833705	1.374369	0.000008
C43	C	-0.797674	1.488073	0.000012
C44	C	-0.346556	1.361520	-0.000016
C45	C	-0.287143	1.359961	-0.000023
C46	C	-0.274495	1.588932	-0.000021
C47	C	-0.333902	1.590491	-0.000016
C48	C	-0.369931	1.476775	-0.000012
O49	O	-0.422511	1.690261	-0.000025
O50	O	-0.445965	1.266633	0.000003
C51	C	0.020275	1.492902	0.000002
C52	C	0.083503	1.491213	0.000011
C53	C	-0.080555	1.712075	-0.000008
C54	C	-0.082231	1.851465	-0.000004
N55	N	-0.083839	1.482424	-0.153264
C56	C	-0.122169	1.396543	-0.438116
C57	C	-0.122174	1.396539	-0.376196
O58	O	-0.154788	1.323482	-0.344180
N59	N	-0.083816	1.482415	-0.345217
C60	C	-0.045446	1.568292	-0.376160
O61	O	-0.012820	1.641335	-0.344124
C62	C	-0.045438	1.568288	-0.438079
C63	C	-0.083803	1.482415	-0.469055
C64	C	-0.160530	1.310676	-0.469092
C65	C	-0.160525	1.310681	-0.531008
C66	C	-0.122159	1.396553	-0.561947
C67	C	-0.083798	1.482420	-0.530971
C68	C	-0.007066	1.654157	-0.469022
C69	C	-0.007061	1.654146	-0.530945
C70	C	-0.045426	1.568273	-0.561921
C71	C	-0.045427	1.568298	-0.623826
N72	N	-0.083785	1.482422	-0.654805
C73	C	-0.122151	1.396550	-0.623866
C74	C	-0.045465	1.568291	-0.246127
C75	C	-0.045475	1.568301	-0.184209
C76	C	-0.122202	1.396547	-0.184249
C77	C	-0.122195	1.396544	-0.246168
C78	C	-0.083823	1.482415	-0.277106
C79	C	-0.122138	1.396568	-0.753893
C80	C	-0.122131	1.396585	-0.815814
C81	C	-0.045402	1.568334	-0.815769
C82	C	-0.045411	1.568323	-0.753854
C83	C	-0.083781	1.482429	-0.722917
O84	O	-0.012828	1.641315	-0.655881
O85	O	-0.154767	1.323508	-0.655909
N86	N	-0.083766	1.482457	0.153246
H87	H	-0.219648	1.042887	-0.041196
C88	C	-0.665789	1.129172	0.000002
H89	H	-0.704522	1.146594	0.000007
H90	H	-0.658658	1.081877	-0.034301
H91	H	-0.658638	1.081886	0.034310
C92	C	0.035147	1.748606	-0.564977
H93	H	0.029662	1.736309	-0.606290
H94	H	0.028610	1.832332	-0.554828
H95	H	0.073211	1.735431	-0.554811
C96	C	-0.501798	1.835679	0.000021
H97	H	-0.463067	1.818244	0.000023
H98	H	-0.508948	1.882977	-0.034279
H99	H	-0.508924	1.882968	0.034332
H100	H	-0.212760	0.837072	-0.042495
H101	H	-0.215292	1.049308	0.042451
C102	C	-0.932754	1.250870	0.000013
H103	H	-0.910327	1.181989	0.000008
H104	H	-0.956181	1.246737	0.034317
H105	H	-0.956204	1.246724	-0.034294
H106	H	0.024174	1.724082	-0.443810
C107	C	-0.234856	1.713992	-0.000018
H108	H	-0.257282	1.782873	-0.000019
H109	H	-0.211406	1.718128	0.034285
H110	H	-0.211429	1.718135	-0.034327
C111	C	0.023364	1.152743	0.000006
H112	H	0.014894	1.237886	-0.000001
H113	H	0.044922	1.137702	0.034311
H114	H	0.044905	1.137688	-0.034300
H115	H	-0.153382	1.326625	-0.728712
C116	C	0.026668	0.877709	0.000026
H117	H	0.020298	0.788093	0.000034
H118	H	0.047703	0.905576	-0.034272
H119	H	0.047700	0.905601	0.034340
C120	C	-0.261435	1.233156	-0.000025
H121	H	-0.291406	1.165670	-0.000017
H122	H	-0.238535	1.227770	-0.034329
H123	H	-0.238511	1.227791	0.034283
H124	H	-0.352934	1.684356	-0.000020
H125	H	-0.375884	1.268920	-0.000012
C126	C	-0.906166	1.731711	0.000007
H127	H	-0.876194	1.799193	0.000010
H128	H	-0.929092	1.737087	-0.034293
H129	H	-0.929063	1.737091	0.034318
H130	H	-0.153434	1.326618	-0.271385
H131	H	-0.153374	1.326657	-0.841033
C132	C	-0.003198	1.662780	-0.849808
H133	H	0.019649	1.713930	-0.822495
H134	H	0.020695	1.617893	-0.873951
H135	H	-0.023903	1.714799	-0.873972
C136	C	-0.202727	1.216223	-0.565074
H137	H	-0.225572	1.165083	-0.537772
H138	H	-0.226623	1.261094	-0.589236
H139	H	-0.182021	1.164196	-0.589220
C140	C	-0.541050	1.125876	-0.000001
H141	H	-0.571024	1.058398	0.000006
H142	H	-0.518148	1.120483	-0.034304
H143	H	-0.518129	1.120508	0.034308
C144	C	-0.202741	1.216224	-0.435065
H145	H	-0.197258	1.228506	-0.393750
H146	H	-0.240800	1.229399	-0.445240
H147	H	-0.196202	1.132490	-0.445210
H148	H	-0.217211	0.840847	0.041142
C149	C	-0.003214	1.662785	-0.719779
H150	H	0.019637	1.713925	-0.747076
H151	H	-0.023919	1.714795	-0.695627
H152	H	0.020685	1.617900	-0.695620
C153	C	-0.781423	1.728422	0.000005
H154	H	-0.803859	1.797287	-0.000001
H155	H	-0.757971	1.732589	0.034307
H156	H	-0.757998	1.732564	-0.034305
C157	C	-0.807998	1.247569	0.000011
H158	H	-0.837971	1.180087	0.000015
H159	H	-0.785094	1.242181	-0.034290
H160	H	-0.785079	1.242202	0.034321
H161	H	-0.619865	1.806052	0.000021
H162	H	-0.153441	1.326623	-0.159047
H163	H	-0.014241	1.638240	-0.158993
C164	C	-0.003260	1.662771	-0.280154
H165	H	0.019577	1.713917	-0.252832
H166	H	0.020643	1.617911	-0.304299
H167	H	-0.023968	1.714790	-0.304315
