data_functionalizedCrystal
_audit_creation_method	'MofGen! by Chris Wilmer'
_symmetry_space_group_name_H-M	'P1'
_symmetry_Int_Tables_number	1
_symmetry_cell_setting	triclinic
loop_
_symmetry_equiv_pos_as_xyz
  x,y,z
_cell_length_a	13.339070
_cell_length_b	13.262485
_cell_length_c	15.186229
_cell_angle_alpha	105.914272
_cell_angle_beta	90.003852
_cell_angle_gamma	80.569888
loop_
_atom_site_label
_atom_site_type_symbol
_atom_site_fract_x
_atom_site_fract_y
_atom_site_fract_z
O1	O	1.344489	-0.526823	-0.052923
O2	O	1.049672	-0.457674	-0.036366
O3	O	1.204500	-0.341620	-0.008572
O4	O	1.189661	-0.642876	-0.080717
O5	O	1.204490	-0.341615	-0.155028
O6	O	1.049662	-0.457668	-0.182822
O7	O	1.344479	-0.526817	-0.199379
Zn8	Zn	1.197069	-0.492242	-0.214354
Zn9	Zn	1.197082	-0.492249	-0.021392
O10	O	1.189650	-0.642871	-0.227173
C11	C	1.011929	-0.445990	-0.106797
C12	C	0.899481	-0.411173	-0.098460
C13	C	1.203665	-0.302273	-0.072376
C14	C	1.201178	-0.185033	-0.044294
N15	N	1.197067	-0.492239	-0.346046
C16	C	0.535823	-0.681893	-0.163278
C17	C	0.641473	-0.714608	-0.171109
C18	C	0.705980	-0.638752	-0.152948
C19	C	0.664827	-0.530175	-0.126953
C20	C	0.559167	-0.497456	-0.119114
C21	C	0.729324	-0.454316	-0.108784
C22	C	0.688171	-0.345739	-0.082790
C23	C	0.582521	-0.313025	-0.074953
C24	C	0.518014	-0.388881	-0.093114
C25	C	0.834984	-0.487035	-0.116623
C26	C	0.858328	-0.302599	-0.072460
C27	C	0.752678	-0.269883	-0.064628
C28	C	1.382222	-0.538501	-0.128946
C29	C	1.494670	-0.573318	-0.137278
C30	C	1.194139	0.145472	-0.284477
C31	C	1.196468	0.035321	-0.310862
C32	C	1.197646	-0.019773	-0.244222
C33	C	1.196494	0.035295	-0.151193
C34	C	1.194157	0.145458	-0.124805
C35	C	1.197664	-0.019787	-0.084550
C36	C	1.196512	0.035281	0.008480
C37	C	1.194176	0.145433	0.034863
C38	C	1.192998	0.200527	-0.031777
C39	C	1.200001	-0.129950	-0.110938
C40	C	1.200019	-0.129964	0.048734
C41	C	1.197690	-0.019813	0.075119
C42	C	1.190488	0.317781	-0.163369
C43	C	1.192980	0.200541	-0.191449
C44	C	1.265648	-0.440881	-0.559469
C45	C	1.265651	-0.440880	-0.651658
C46	C	1.128503	-0.543605	-0.676269
C47	C	1.128496	-0.543600	-0.584080
C48	C	1.197074	-0.492241	-0.525683
C49	C	1.197085	-0.492244	-0.710061
C50	C	1.197088	-0.492243	-0.810017
C51	C	1.197070	-0.492240	-0.425720
N52	N	1.197092	-0.492246	0.110302
H53	H	0.792004	-0.665396	-0.159324
H54	H	0.674971	-0.803011	-0.192267
C55	C	1.102670	0.371832	-0.034241
C56	C	1.190420	0.321614	-0.002792
H57	H	1.101074	0.446588	-0.016349
H58	H	1.103207	0.346897	-0.099174
H59	H	1.044217	0.356081	-0.008515
H60	H	1.248874	0.337359	-0.028524
H61	H	1.189892	0.346559	0.062153
H62	H	1.072670	-0.585422	-0.723825
C63	C	1.114035	-0.164050	-0.235311
C64	C	1.200212	-0.140854	-0.273225
H65	H	1.115621	-0.238804	-0.253224
H66	H	1.113524	-0.139144	-0.170378
H67	H	1.054513	-0.129945	-0.256631
H68	H	1.259734	-0.174953	-0.251899
H69	H	1.200732	-0.165772	-0.338171
C70	C	1.196250	0.046402	-0.466036
C71	C	1.197762	-0.025211	-0.413116
H72	H	1.197063	0.009027	-0.529167
H73	H	1.136344	0.098534	-0.450240
H74	H	1.254331	0.080200	-0.454602
H75	H	1.139677	-0.059003	-0.424545
H76	H	1.257675	-0.077362	-0.428918
H77	H	0.483293	-0.743642	-0.178055
C78	C	0.992933	-0.645154	-0.617663
C79	C	1.053116	-0.600062	-0.546937
H80	H	0.946403	-0.680012	-0.594730
H81	H	0.956322	-0.590786	-0.640604
H82	H	1.035263	-0.695261	-0.665613
H83	H	1.010788	-0.549950	-0.498989
H84	H	1.089730	-0.654437	-0.523982
C85	C	0.373025	-0.291812	0.005420
C86	C	0.401877	-0.352920	-0.084502
H87	H	0.301326	-0.269610	0.010733
H88	H	0.392617	-0.333276	0.046552
H89	H	0.405552	-0.231096	0.019951
H90	H	0.369356	-0.413640	-0.099032
H91	H	0.382274	-0.311454	-0.125647
C92	C	0.847602	-0.654304	-0.081389
C93	C	0.880207	-0.606378	-0.145201
H94	H	0.875515	-0.727988	-0.099039
H95	H	0.869730	-0.621783	-0.022540
H96	H	0.775446	-0.645659	-0.079326
H97	H	0.952363	-0.615017	-0.147259
H98	H	0.858085	-0.638910	-0.204066
H99	H	0.549018	-0.224615	-0.053776
C100	C	1.190564	0.314345	-0.314910
C101	C	1.192855	0.206030	-0.357720
H102	H	1.189780	0.351728	-0.360133
H103	H	1.131192	0.341564	-0.275597
H104	H	1.249180	0.323201	-0.279978
H105	H	1.134236	0.197173	-0.392646
H106	H	1.252234	0.178803	-0.397049
H107	H	1.321487	-0.399060	-0.511923
H108	H	0.719156	-0.181477	-0.043456
H109	H	1.321489	-0.399057	-0.679163
H110	H	0.910850	-0.240830	-0.057667
H111	H	1.200929	-0.174774	-0.186683
C112	C	1.194470	0.134347	0.190042
C113	C	1.192927	0.205963	0.137121
H114	H	1.193712	0.171714	0.253170
H115	H	1.136383	0.100571	0.178646
H116	H	1.254371	0.082194	0.174208
H117	H	1.133022	0.258112	0.152950
H118	H	1.251020	0.239756	0.148522
H119	H	1.196751	0.025039	0.150866
C120	C	1.203505	-0.298813	0.079191
C121	C	1.201238	-0.190501	0.121996
H122	H	1.204239	-0.336185	0.124418
H123	H	1.144918	-0.307653	0.044233
H124	H	1.262907	-0.326060	0.039904
H125	H	1.141832	-0.163252	0.161279
H126	H	1.259831	-0.181654	0.156970
