data_functionalizedCrystal
_audit_creation_method	'MofGen! by Chris Wilmer'
_symmetry_space_group_name_H-M	'P1'
_symmetry_Int_Tables_number	1
_symmetry_cell_setting	triclinic
loop_
_symmetry_equiv_pos_as_xyz
  x,y,z
_cell_length_a	18.050589
_cell_length_b	19.805407
_cell_length_c	18.050582
_cell_angle_alpha	90.015480
_cell_angle_beta	89.981795
_cell_angle_gamma	89.975629
loop_
_atom_site_label
_atom_site_type_symbol
_atom_site_fract_x
_atom_site_fract_y
_atom_site_fract_z
Zn1	Zn	-0.295783	-1.034702	-0.419946
Zn2	Zn	-0.045783	-0.784702	-0.169946
Zn3	Zn	0.204217	-0.534702	0.080054
Zn4	Zn	0.454217	-0.284702	0.330054
Zn5	Zn	-0.419966	-1.034621	-0.295766
Zn6	Zn	-0.169966	-0.784621	-0.045766
Zn7	Zn	0.080034	-0.534621	0.204234
Zn8	Zn	0.330034	-0.284621	0.454234
Zn9	Zn	-0.295786	-0.921524	-0.295769
Zn10	Zn	-0.045786	-0.671524	-0.045769
Zn11	Zn	0.204214	-0.421524	0.204231
Zn12	Zn	0.454214	-0.171524	0.454231
Zn13	Zn	-0.419927	-0.921477	-0.419913
Zn14	Zn	-0.169927	-0.671477	-0.169913
Zn15	Zn	0.080073	-0.421477	0.080087
Zn16	Zn	0.330073	-0.171477	0.330087
O17	O	-0.357866	-0.978081	-0.357848
O18	O	-0.107866	-0.728081	-0.107848
O19	O	0.142134	-0.478081	0.142152
O20	O	0.392134	-0.228081	0.392152
O21	O	-0.312271	-1.129408	-0.403486
O22	O	-0.062271	-0.879408	-0.153486
O23	O	0.187729	-0.629408	0.096514
O24	O	0.437729	-0.379408	0.346514
O25	O	-0.403511	-1.019604	-0.191841
O26	O	-0.153511	-0.769604	0.058159
O27	O	0.096489	-0.519604	0.308159
O28	O	0.346489	-0.269604	0.558159
O29	O	-0.191861	-0.936591	-0.312257
O30	O	0.058139	-0.686591	-0.062257
O31	O	0.308139	-0.436591	0.187743
O32	O	0.558139	-0.186591	0.437743
O33	O	-0.403508	-1.129348	-0.312251
O34	O	-0.153508	-0.879348	-0.062251
O35	O	0.096492	-0.629348	0.187749
O36	O	0.346492	-0.379348	0.437749
O37	O	-0.191859	-1.019743	-0.403489
O38	O	0.058141	-0.769743	-0.153489
O39	O	0.308141	-0.519743	0.096511
O40	O	0.558141	-0.269743	0.346511
O41	O	-0.312277	-0.936513	-0.191844
O42	O	-0.062277	-0.686513	0.058156
O43	O	0.187723	-0.436513	0.308156
O44	O	0.437723	-0.186513	0.558156
O45	O	-0.312239	-0.826801	-0.312224
O46	O	-0.062239	-0.576801	-0.062224
O47	O	0.187761	-0.326801	0.187776
O48	O	0.437761	-0.076801	0.437776
O49	O	-0.403442	-0.936511	-0.523842
O50	O	-0.153442	-0.686511	-0.273842
O51	O	0.096558	-0.436511	-0.023842
O52	O	0.346558	-0.186511	0.226158
O53	O	-0.403445	-0.826767	-0.403432
O54	O	-0.153445	-0.576767	-0.153432
O55	O	0.096555	-0.326767	0.096568
O56	O	0.346555	-0.076767	0.346568
O57	O	-0.312233	-1.019697	-0.523866
O58	O	-0.062233	-0.769697	-0.273866
O59	O	0.187767	-0.519697	-0.023866
O60	O	0.437767	-0.269697	0.226134
O61	O	-0.523886	-1.019558	-0.312219
O62	O	-0.273886	-0.769558	-0.062219
O63	O	-0.023886	-0.519558	0.187781
O64	O	0.226114	-0.269558	0.437781
O65	O	-0.523857	-0.936432	-0.403429
O66	O	-0.273857	-0.686432	-0.153429
O67	O	-0.023857	-0.436432	0.096571
O68	O	0.226143	-0.186432	0.346571
C69	C	-0.357838	-0.802225	-0.357826
C70	C	-0.107838	-0.552225	-0.107826
C71	C	0.142162	-0.302225	0.142174
C72	C	0.392162	-0.052225	0.392174
C73	C	-0.357845	-0.726993	-0.357834
C74	C	-0.107845	-0.476993	-0.107834
C75	C	0.142155	-0.226993	0.142166
C76	C	0.392155	0.023007	0.392166
C77	C	-0.310421	-0.691681	-0.405411
C78	C	-0.060421	-0.441681	-0.155411
C79	C	0.189579	-0.191681	0.094589
C80	C	0.439579	0.058319	0.344589
C81	C	-0.310423	-0.620992	-0.405412
C82	C	-0.060423	-0.370992	-0.155412
C83	C	0.189577	-0.120992	0.094588
C84	C	0.439577	0.129008	0.344588
C85	C	-0.357854	-0.585618	-0.357839
C86	C	-0.107854	-0.335618	-0.107839
C87	C	0.142146	-0.085618	0.142161
C88	C	0.392146	0.164382	0.392161
C89	C	-0.405280	-0.620935	-0.310256
C90	C	-0.155280	-0.370935	-0.060256
C91	C	0.094720	-0.120935	0.189744
C92	C	0.344720	0.129065	0.439744
C93	C	-0.405273	-0.691622	-0.310252
C94	C	-0.155273	-0.441622	-0.060252
C95	C	0.094727	-0.191622	0.189748
C96	C	0.344727	0.058378	0.439748
C97	C	-0.405307	-0.335862	-0.310271
C98	C	-0.155307	-0.085862	-0.060271
C99	C	0.094693	0.164138	0.189729
C100	C	0.344693	0.414138	0.439729
C101	C	-0.405311	-0.265169	-0.310281
C102	C	-0.155311	-0.015169	-0.060281
C103	C	0.094689	0.234831	0.189719
C104	C	0.344689	0.484831	0.439719
C105	C	-0.310457	-0.265232	-0.405431
C106	C	-0.060457	-0.015232	-0.155431
C107	C	0.189543	0.234768	0.094569
C108	C	0.439543	0.484768	0.344569
C109	C	-0.310450	-0.335919	-0.405427
C110	C	-0.060450	-0.085919	-0.155427
C111	C	0.189550	0.164081	0.094573
C112	C	0.439550	0.414081	0.344573
C113	C	-0.357873	-0.371230	-0.357842
C114	C	-0.107873	-0.121230	-0.107842
C115	C	0.142127	0.128770	0.142158
C116	C	0.392127	0.378770	0.392158
C117	C	-0.357869	-0.447879	-0.357841
C118	C	-0.107869	-0.197879	-0.107841
C119	C	0.142131	0.052121	0.142159
C120	C	0.392131	0.302121	0.392159
C121	C	-0.357862	-0.508970	-0.357843
C122	C	-0.107862	-0.258970	-0.107843
C123	C	0.142138	-0.008970	0.142157
C124	C	0.392138	0.241030	0.392157
C125	C	-0.550818	-0.977999	-0.357836
C126	C	-0.300818	-0.727999	-0.107836
C127	C	-0.050818	-0.477999	0.142164
C128	C	0.199182	-0.227999	0.392164
C129	C	-0.633364	-0.978026	-0.357856
C130	C	-0.383364	-0.728026	-0.107856
C131	C	-0.133364	-0.478026	0.142144
C132	C	0.116636	-0.228026	0.392144
C133	C	-0.832826	-0.932867	-0.407439
C134	C	-0.582826	-0.682867	-0.157439
C135	C	-0.332826	-0.432867	0.092561
C136	C	-0.082826	-0.182867	0.342561
C137	C	-0.882258	-0.916372	-0.339671
C138	C	-0.632258	-0.666372	-0.089671
C139	C	-0.382258	-0.416372	0.160329
C140	C	-0.132258	-0.166372	0.410329
C141	C	-0.784494	-0.978093	-0.357865
C142	C	-0.534494	-0.728093	-0.107865
C143	C	-0.284494	-0.478093	0.142135
C144	C	-0.034494	-0.228093	0.392135
C145	C	-0.882143	-0.994620	-0.425641
C146	C	-0.632143	-0.744620	-0.175641
C147	C	-0.382143	-0.494620	0.074359
C148	C	-0.132143	-0.244620	0.324359
C149	C	-0.930479	-0.978156	-0.357881
C150	C	-0.680479	-0.728156	-0.107881
C151	C	-0.430479	-0.478156	0.142119
C152	C	-0.180479	-0.228156	0.392119
C153	C	-0.832839	-0.961566	-0.290062
C154	C	-0.582839	-0.711566	-0.040062
C155	C	-0.332839	-0.461566	0.209938
C156	C	-0.082839	-0.211566	0.459938
C157	C	-0.832720	-1.039843	-0.376077
C158	C	-0.582720	-0.789843	-0.126077
C159	C	-0.332720	-0.539843	0.123923
C160	C	-0.082720	-0.289843	0.373923
C161	C	-0.882130	-1.023372	-0.308263
C162	C	-0.632130	-0.773372	-0.058263
C163	C	-0.382130	-0.523372	0.191737
C164	C	-0.132130	-0.273372	0.441737
C165	C	-0.700396	-0.978055	-0.357857
C166	C	-0.450396	-0.728055	-0.107857
C167	C	-0.200396	-0.478055	0.142143
C168	C	0.049604	-0.228055	0.392143
C169	C	-1.014575	-0.978194	-0.357881
C170	C	-0.764575	-0.728194	-0.107881
C171	C	-0.514575	-0.478194	0.142119
C172	C	-0.264575	-0.228194	0.392119
C173	C	-0.164160	-0.978182	-0.357877
C174	C	0.085840	-0.728182	-0.107877
C175	C	0.335840	-0.478182	0.142123
C176	C	0.585840	-0.228182	0.392123
C177	C	-0.081614	-0.978224	-0.357889
C178	C	0.168386	-0.728224	-0.107889
C179	C	0.418386	-0.478224	0.142111
C180	C	0.668386	-0.228224	0.392111
C181	C	-0.357833	-0.978108	-0.551554
C182	C	-0.107833	-0.728108	-0.301554
C183	C	0.142167	-0.478108	-0.051554
C184	C	0.392167	-0.228108	0.198446
C185	C	-0.357819	-0.978119	-0.634100
C186	C	-0.107819	-0.728119	-0.384100
C187	C	0.142181	-0.478119	-0.134100
C188	C	0.392181	-0.228119	0.115900
C189	C	-0.357888	-0.154624	-0.357865
C190	C	-0.107888	0.095376	-0.107865
C191	C	0.142112	0.345376	0.142135
C192	C	0.392112	0.595376	0.392135
C193	C	-0.357883	-0.229856	-0.357855
C194	C	-0.107883	0.020144	-0.107855
C195	C	0.142117	0.270144	0.142145
C196	C	0.392117	0.520144	0.392145
C197	C	-0.407350	-0.932917	-0.833537
C198	C	-0.157350	-0.682917	-0.583537
C199	C	0.092650	-0.432917	-0.333537
C200	C	0.342650	-0.182917	-0.083537
C201	C	-0.425508	-0.994669	-0.882931
C202	C	-0.175508	-0.744669	-0.632931
C203	C	0.074492	-0.494669	-0.382931
C204	C	0.324492	-0.244669	-0.132931
C205	C	-0.357762	-0.978152	-0.785230
C206	C	-0.107762	-0.728152	-0.535230
C207	C	0.142238	-0.478152	-0.285230
C208	C	0.392238	-0.228152	-0.035230
C209	C	-0.339583	-0.916434	-0.882919
C210	C	-0.089583	-0.666434	-0.632919
C211	C	0.160417	-0.416434	-0.382919
C212	C	0.410417	-0.166434	-0.132919
C213	C	-0.357709	-0.978179	-0.931216
C214	C	-0.107709	-0.728179	-0.681216
C215	C	0.142291	-0.478179	-0.431216
C216	C	0.392291	-0.228179	-0.181216
C217	C	-0.375956	-1.039937	-0.833536
C218	C	-0.125956	-0.789937	-0.583536
C219	C	0.124044	-0.539937	-0.333536
C220	C	0.374044	-0.289937	-0.083536
C221	C	-0.289999	-0.961660	-0.833520
C222	C	-0.039999	-0.711660	-0.583520
C223	C	0.210001	-0.461660	-0.333520
C224	C	0.460001	-0.211660	-0.083520
C225	C	-0.308132	-1.023455	-0.882891
C226	C	-0.058132	-0.773455	-0.632891
C227	C	0.191868	-0.523455	-0.382891
C228	C	0.441868	-0.273455	-0.132891
C229	C	-0.357795	-0.978136	-0.701132
C230	C	-0.107795	-0.728136	-0.451132
C231	C	0.142205	-0.478136	-0.201132
C232	C	0.392205	-0.228136	0.048868
C233	C	-0.357676	-0.978202	-1.015312
C234	C	-0.107676	-0.728202	-0.765312
C235	C	0.142324	-0.478202	-0.515312
C236	C	0.392324	-0.228202	-0.265312
C237	C	-0.357845	-0.978094	-0.164896
C238	C	-0.107845	-0.728094	0.085104
C239	C	0.142155	-0.478094	0.335104
C240	C	0.392155	-0.228094	0.585104
C241	C	-0.357650	-0.978214	-0.082351
C242	C	-0.107650	-0.728214	0.167649
C243	C	0.142350	-0.478214	0.417649
C244	C	0.392350	-0.228214	0.667649
H245	H	-0.271840	-0.236473	-0.444175
H246	H	-0.021840	0.013527	-0.194175
H247	H	0.228160	0.263527	0.055825
H248	H	0.478160	0.513527	0.305825
H249	H	-0.324230	-0.864229	-0.904611
H250	H	-0.074230	-0.614229	-0.654611
H251	H	0.175770	-0.364229	-0.404611
H252	H	0.425770	-0.114229	-0.154611
H253	H	-0.811176	-0.894564	-0.449302
H254	H	-0.561176	-0.644564	-0.199302
H255	H	-0.311176	-0.394564	0.050698
H256	H	-0.061176	-0.144564	0.300698
H257	H	-0.271807	-0.592244	-0.444156
H258	H	-0.021807	-0.342244	-0.194156
H259	H	0.228193	-0.092244	0.055844
H260	H	0.478193	0.157756	0.305844
H261	H	-0.811272	-0.947552	-0.232736
H262	H	-0.561272	-0.697552	0.017264
H263	H	-0.311272	-0.447552	0.267264
H264	H	-0.061272	-0.197552	0.517264
C265	C	-0.911655	-0.845862	-0.318864
C266	C	-0.661655	-0.595862	-0.068864
C267	C	-0.411655	-0.345862	0.181136
C268	C	-0.161655	-0.095862	0.431136
N269	N	-0.933795	-0.792752	-0.303197
N270	N	-0.683795	-0.542752	-0.053197
N271	N	-0.433795	-0.292752	0.196803
N272	N	-0.183795	-0.042752	0.446803
H273	H	-0.271799	-0.720478	-0.444153
H274	H	-0.021799	-0.470478	-0.194153
H275	H	0.228201	-0.220478	0.055847
H276	H	0.478201	0.029522	0.305847
C277	C	-0.457453	-0.582020	-0.257924
C278	C	-0.207453	-0.332020	-0.007924
C279	C	0.042547	-0.082020	0.242076
C280	C	0.292547	0.167980	0.492076
N281	N	-0.496752	-0.552710	-0.218508
N282	N	-0.246752	-0.302710	0.031492
N283	N	0.003248	-0.052710	0.281492
N284	N	0.253248	0.197290	0.531492
H285	H	-0.903643	-1.061645	-0.266299
H286	H	-0.653643	-0.811645	-0.016299
H287	H	-0.403643	-0.561645	0.233701
H288	H	-0.153643	-0.311645	0.483701
C289	C	-0.457485	-0.226259	-0.257938
C290	C	-0.207485	0.023741	-0.007938
C291	C	0.042515	0.273741	0.242062
C292	C	0.292515	0.523741	0.492062
N293	N	-0.496779	-0.196951	-0.218514
N294	N	-0.246779	0.053049	0.031486
N295	N	0.003221	0.303049	0.281486
N296	N	0.253221	0.553049	0.531486
H297	H	-0.232733	-0.947677	-0.811800
H298	H	0.017267	-0.697677	-0.561800
H299	H	0.267267	-0.447677	-0.311800
H300	H	0.517267	-0.197677	-0.061800
C301	C	-0.457444	-0.730465	-0.257915
C302	C	-0.207444	-0.480465	-0.007915
C303	C	0.042556	-0.230465	0.242085
C304	C	0.292556	0.019535	0.492085
N305	N	-0.496740	-0.759721	-0.218491
N306	N	-0.246740	-0.509721	0.031509
N307	N	0.003260	-0.259721	0.281509
N308	N	0.253260	-0.009721	0.531509
C309	C	-0.258271	-0.374827	-0.457758
C310	C	-0.008271	-0.124827	-0.207758
C311	C	0.241729	0.125173	0.042242
C312	C	0.491729	0.375173	0.292242
N313	N	-0.218964	-0.404132	-0.497172
N314	N	0.031036	-0.154132	-0.247172
N315	N	0.281036	0.095868	0.002828
N316	N	0.531036	0.345868	0.252828
C317	C	-0.803288	-1.110328	-0.396919
C318	C	-0.553288	-0.860328	-0.146919
C319	C	-0.303288	-0.610328	0.103081
C320	C	-0.053288	-0.360328	0.353081
N321	N	-0.781114	-1.163416	-0.412627
N322	N	-0.531114	-0.913416	-0.162627
N323	N	-0.281114	-0.663416	0.087373
N324	N	-0.031114	-0.413416	0.337373
C325	C	-0.457476	-0.374695	-0.257930
C326	C	-0.207476	-0.124695	-0.007930
C327	C	0.042524	0.125305	0.242070
C328	C	0.292524	0.375305	0.492070
N329	N	-0.496774	-0.403946	-0.218504
N330	N	-0.246774	-0.153946	0.031496
N331	N	0.003226	0.096054	0.281496
N332	N	0.253226	0.346054	0.531496
H333	H	-0.903800	-1.008574	-0.482951
H334	H	-0.653800	-0.758574	-0.232951
H335	H	-0.403800	-0.508574	0.017049
H336	H	-0.153800	-0.258574	0.267049
H337	H	-0.449340	-0.894699	-0.811868
H338	H	-0.199340	-0.644699	-0.561868
H339	H	0.050660	-0.394699	-0.311868
H340	H	0.300660	-0.144699	-0.061868
H341	H	-0.391374	-1.092157	-0.811936
H342	H	-0.141374	-0.842157	-0.561936
H343	H	0.108626	-0.592157	-0.311936
H344	H	0.358626	-0.342157	-0.061936
H345	H	-0.266174	-1.061765	-0.904425
H346	H	-0.016174	-0.811765	-0.654425
H347	H	0.233826	-0.561765	-0.404425
H348	H	0.483826	-0.311765	-0.154425
H349	H	-0.482791	-1.008634	-0.904634
H350	H	-0.232791	-0.758634	-0.654634
H351	H	0.017209	-0.508634	-0.404634
H352	H	0.267209	-0.258634	-0.154634
