data_functionalizedCrystal
_audit_creation_method	'MofGen! by Chris Wilmer'
_symmetry_space_group_name_H-M	'P1'
_symmetry_Int_Tables_number	1
_symmetry_cell_setting	triclinic
loop_
_symmetry_equiv_pos_as_xyz
  x,y,z
_cell_length_a	19.902436
_cell_length_b	14.446369
_cell_length_c	14.446369
_cell_angle_alpha	60.000250
_cell_angle_beta	90.002769
_cell_angle_gamma	59.998044
loop_
_atom_site_label
_atom_site_type_symbol
_atom_site_fract_x
_atom_site_fract_y
_atom_site_fract_z
Zr1	Zr	0.647327	1.013130	-0.121447
O2	O	0.540036	1.206258	-0.269270
O3	O	0.680217	0.820008	-0.076126
O4	O	0.680218	1.013117	-0.269245
O5	O	0.540035	1.013158	0.076178
O6	O	0.790797	1.013099	-0.269233
O7	O	0.540035	1.013150	-0.076150
O8	O	0.790794	0.667663	0.076222
O9	O	0.540037	1.358594	-0.269277
O10	O	0.776768	0.899426	-0.056795
O11	O	0.694245	0.899446	0.056877
O12	O	0.694246	1.126806	-0.170496
O13	O	0.611723	1.126826	-0.056824
Zr14	Zr	0.823687	1.013115	0.121519
Zr15	Zr	0.823688	1.013101	-0.121428
Zr16	Zr	0.647327	1.013143	0.121499
Zr17	Zr	0.647329	1.256088	-0.121459
Zr18	Zr	0.823686	0.770157	0.121530
O19	O	0.790798	1.206237	0.076198
O20	O	0.790798	1.206218	-0.269242
O21	O	0.540036	1.206277	0.076169
O22	O	0.930978	0.819986	0.269341
O23	O	0.930979	0.819967	-0.076098
O24	O	0.680216	0.820027	0.269313
O25	O	0.930980	1.013086	-0.076107
O26	O	0.790796	1.013128	0.269317
O27	O	0.680218	1.013146	0.269304
O28	O	0.930980	1.013095	0.076222
O29	O	0.680220	1.358571	-0.269261
O30	O	0.790794	0.667673	0.269333
O31	O	0.930977	0.667650	0.269348
O32	O	0.930977	0.667640	0.076238
O33	O	0.540037	1.358605	-0.076166
O34	O	0.680220	1.358582	-0.076151
O35	O	0.776768	0.899439	0.170568
O36	O	0.859292	0.899419	0.056896
O37	O	0.776770	1.126799	-0.056805
O38	O	0.694246	1.126819	0.056867
C39	C	0.735505	0.709219	0.000050
C40	C	0.735505	0.606077	0.000054
C41	C	0.683706	0.459080	0.072076
C42	C	0.683425	0.566700	0.071785
C43	C	0.697536	0.655072	-0.123485
C44	C	0.697147	0.547840	-0.123111
C45	C	0.825308	0.372607	0.050509
C46	C	0.825176	0.478758	0.053030
C47	C	0.514907	1.013158	0.000011
C48	C	0.440038	1.013170	0.000003
C49	C	0.168036	1.013106	0.000047
C50	C	0.144470	1.156542	-0.071334
C51	C	0.222308	1.156632	-0.071731
C52	C	0.302979	1.013139	0.000025
C53	C	0.300567	0.941901	-0.052267
C54	C	0.222340	0.942818	-0.052795
C55	C	0.223327	0.939881	0.123752
C56	C	0.300248	0.942577	0.123562
C57	C	0.379246	1.013150	0.000013
C58	C	0.091771	1.013091	0.000054
C59	C	0.956107	1.013086	0.000061
C60	C	1.030977	1.013074	0.000069
C61	C	0.735508	1.013106	-0.303854
C62	C	0.735508	1.013100	-0.406991
C63	C	0.735509	1.317026	0.000022
C64	C	0.735510	1.420168	0.000017
C65	C	0.787814	0.869706	-0.481961
C66	C	0.787587	0.869610	-0.374632
C67	C	0.645840	1.084342	-0.481564
C68	C	0.646127	1.083432	-0.588423
C69	C	0.772145	1.086365	-0.589982
C70	C	0.773960	1.083662	-0.481310
C71	C	0.735507	1.013139	0.303925
C72	C	0.735507	1.013145	0.407062
C73	C	0.956105	0.709183	0.000074
C74	C	1.030974	0.606029	0.000088
C75	C	0.735505	0.709236	0.303939
C76	C	0.735504	0.606099	0.407081
C77	C	0.956105	0.709200	0.303964
C78	C	1.030974	0.606051	0.407114
C79	C	0.514910	1.317045	-0.303892
C80	C	0.440041	1.420193	-0.407043
C81	C	0.514909	1.317061	-0.000003
C82	C	0.440040	1.420216	-0.000016
C83	C	0.735510	1.317009	-0.303868
C84	C	0.735510	1.420145	-0.407010
C85	C	1.023057	0.557590	-0.059262
C86	C	1.093398	0.460680	-0.059272
C87	C	1.171655	0.412202	0.000074
C88	C	1.179570	0.460651	0.059425
C89	C	1.109230	0.557566	0.059428
C90	C	1.109217	0.557601	0.396219
C91	C	1.179571	0.460696	0.493131
C92	C	1.171680	0.412236	0.600936
C93	C	1.093429	0.460695	0.611829
C94	C	1.023076	0.557605	0.514919
C95	C	0.361798	1.468655	-0.396148
C96	C	0.291444	1.565591	-0.493059
C97	C	0.299335	1.614056	-0.600864
C98	C	0.377586	1.565590	-0.611757
C99	C	0.447938	1.468663	-0.514847
C100	C	0.447958	1.468664	0.059323
C101	C	0.377617	1.565602	0.059307
C102	C	0.299360	1.614083	-0.000043
C103	C	0.291444	1.565630	-0.059389
C104	C	0.361784	1.468701	-0.059379
C105	C	0.683204	0.459793	0.482065
C106	C	0.683426	0.566714	0.374731
C107	C	0.825174	0.479232	0.481651
C108	C	0.824892	0.371857	0.588514
C109	C	0.698875	0.546850	0.590078
C110	C	0.697055	0.655320	0.481402
H111	H	0.732442	0.525862	-0.179717
N112	N	1.263962	0.408417	0.481363
H113	H	1.307339	0.339671	0.559107
H114	H	1.270477	0.482428	0.438488
N115	N	0.353264	1.416411	-0.279885
H116	H	0.380536	1.433267	-0.237030
H117	H	0.380509	1.319145	-0.237114
N118	N	0.207037	1.617904	-0.123378
H119	H	0.163685	1.686646	-0.114361
H120	H	0.200528	1.543883	-0.092193
N121	N	1.084932	0.408403	0.728112
H122	H	1.053865	0.368186	0.737198
H123	H	1.053882	0.482388	0.737135
H124	H	0.631068	0.588546	-0.163531
N125	N	0.220773	1.230667	-0.025287
H126	H	0.270869	1.170615	0.044302
H127	H	0.169376	1.263544	-0.004429
H128	H	0.511645	1.429207	-0.523731
N129	N	0.223499	1.718607	-0.000026
H130	H	0.172718	1.741971	-0.046622
H131	H	0.223547	1.798947	-0.033766
H132	H	0.837177	1.040455	-0.594089
H133	H	0.867025	0.500251	0.006006
N134	N	1.247564	0.307711	0.705456
H135	H	1.298325	0.284376	0.682185
H136	H	1.247529	0.227358	0.752061
H137	H	0.384001	1.605064	-0.699544
H138	H	0.357380	0.836395	-0.002777
H139	H	0.616301	1.034875	-0.429962
N140	N	0.717094	0.517065	0.303500
H141	H	0.767872	0.515671	0.294702
H142	H	0.674069	0.576721	0.226326
N143	N	0.532358	1.416387	0.123340
H144	H	0.526687	1.461805	0.160918
H145	H	0.563420	1.433243	0.068851
N146	N	0.386165	1.617848	0.123320
H147	H	0.446415	1.572412	0.160926
H148	H	0.358852	1.600998	0.182974
N149	N	0.861469	1.014851	-0.413200
H150	H	0.876151	0.938292	-0.334527
H151	H	0.866842	1.078074	-0.407840
N152	N	0.595517	0.509121	0.478959
H153	H	0.563021	0.533993	0.407079
H154	H	0.569937	0.588307	0.481001
N155	N	1.117774	0.609806	0.123445
H156	H	1.148854	0.535856	0.206463
H157	H	1.061315	0.678577	0.114356
H158	H	1.086937	0.421245	-0.107603
H159	H	0.959370	0.597041	0.523805
N160	N	0.728751	1.222324	-0.515120
H161	H	0.682493	1.241456	-0.482600
H162	H	0.705412	1.285145	-0.600513
N163	N	1.117753	0.609852	0.279958
H164	H	1.090484	0.707136	0.237098
H165	H	1.090506	0.592892	0.237190
N166	N	0.721923	1.226334	-0.693590
H167	H	0.675667	1.242295	-0.742233
H168	H	0.758313	1.242803	-0.738498
H169	H	0.857030	0.278861	0.140079
H170	H	0.227735	1.605035	-0.484168
H171	H	0.617396	0.656073	0.320452
H172	H	0.617859	0.494851	0.037363
N173	N	0.223451	1.718598	-0.705385
H174	H	0.172689	1.741934	-0.682114
H175	H	0.223484	1.684798	-0.751985
N176	N	0.716557	0.341026	0.480686
H177	H	0.682612	0.367319	0.409123
H178	H	0.713757	0.273406	0.548881
H179	H	0.355326	1.429256	-0.107697
H180	H	0.854223	0.281099	0.588247
H181	H	0.959343	0.597060	-0.107602
H182	H	0.105303	1.212844	-0.036439
N183	N	0.595689	0.684349	0.025413
H184	H	0.557047	0.666424	0.005073
H185	H	0.588375	0.763050	-0.044494
H186	H	0.865984	0.341898	0.667100
N187	N	0.749099	0.514023	0.693681
H188	H	0.795356	0.417614	0.742323
H189	H	0.712712	0.535720	0.738591
N190	N	0.879047	0.508679	0.517727
H191	H	0.845766	0.604773	0.486002
H192	H	0.926736	0.486127	0.488122
N193	N	0.302608	1.007426	-0.171706
H194	H	0.352742	0.942201	-0.176934
H195	H	0.305066	1.083243	-0.192063
N196	N	0.864307	0.428138	0.413309
H197	H	0.824102	0.486961	0.334062
H198	H	0.879588	0.336464	0.450698
H199	H	0.633842	0.586433	0.594186
H200	H	0.630995	0.745823	0.429970
H201	H	0.731195	0.687442	0.506926
H202	H	0.220533	1.212854	-0.162982
N203	N	0.717156	0.518074	0.192285
H204	H	0.681701	0.496958	0.236546
H205	H	0.717039	0.588090	0.192236
H206	H	0.709040	0.370213	0.163272
H207	H	0.187015	0.985784	0.167435
H208	H	1.243297	0.421166	0.107742
N209	N	0.745141	0.693112	-0.197669
H210	H	0.791885	0.678929	-0.151800
H211	H	0.707324	0.788418	-0.263396
N212	N	0.610841	0.777348	-0.177411
H213	H	0.611582	0.848197	-0.180435
H214	H	0.575959	0.757548	-0.131009
N215	N	0.862778	0.426346	0.173559
H216	H	0.821903	0.484815	0.193776
H217	H	0.914034	0.424340	0.180879
N218	N	0.876679	0.338190	-0.018676
H219	H	0.841999	0.353300	-0.082411
H220	H	0.925022	0.243137	0.031453
H221	H	0.104559	1.212559	-0.162038
N222	N	0.299756	1.011369	0.175316
H223	H	0.349542	0.948217	0.245938
H224	H	0.248071	1.044056	0.195628
N225	N	0.173928	1.009864	-0.173370
H226	H	0.203504	1.038548	-0.225679
H227	H	0.117388	1.088881	-0.195769
H228	H	0.762634	0.813697	-0.480927
N229	N	0.875504	0.795110	-0.478843
H230	H	0.914063	0.765879	-0.409653
H231	H	0.882102	0.853634	-0.549384
N232	N	1.247516	0.307658	0.000076
H233	H	1.298297	0.284289	0.046678
H234	H	1.247464	0.341466	-0.080331
N235	N	0.376354	0.803905	0.199949
H236	H	0.413848	0.784769	0.155357
H237	H	0.359959	0.741103	0.230603
H238	H	0.853616	0.813715	-0.320349
N239	N	0.249720	0.799916	0.194532
H240	H	0.199464	0.798657	0.197566
H241	H	0.285243	0.753439	0.273873
N242	N	0.753906	0.795142	-0.303397
H243	H	0.753619	0.794769	-0.233300
H244	H	0.789660	0.702131	-0.280445
N245	N	0.607282	1.016380	-0.588073
H246	H	0.590135	0.987691	-0.518642
H247	H	0.648388	0.937367	-0.586946
H248	H	0.241686	0.837581	-0.004165
H249	H	0.605175	1.189846	-0.508804
N250	N	0.591696	1.222825	-0.692529
H251	H	0.567619	1.284590	-0.668865
H252	H	0.545737	1.234211	-0.736986
