data_functionalizedCrystal
_audit_creation_method	'MofGen! by Chris Wilmer'
_symmetry_space_group_name_H-M	'P1'
_symmetry_Int_Tables_number	1
_symmetry_cell_setting	triclinic
loop_
_symmetry_equiv_pos_as_xyz
  x,y,z
_cell_length_a	19.077312
_cell_length_b	16.625545
_cell_length_c	19.076919
_cell_angle_alpha	87.727920
_cell_angle_beta	85.331053
_cell_angle_gamma	87.731596
loop_
_atom_site_label
_atom_site_type_symbol
_atom_site_fract_x
_atom_site_fract_y
_atom_site_fract_z
Zn1	Zn	1.061644	-0.386153	0.355274
Zn2	Zn	1.066297	-0.515779	0.237395
Zn3	Zn	0.948502	-0.375770	0.242142
Zn4	Zn	0.943728	-0.515745	0.359978
O5	O	1.005043	-0.448362	0.298697
O6	O	1.160907	-0.407707	0.335682
O7	O	1.054616	-0.492875	0.139377
O8	O	0.963561	-0.264318	0.257167
O9	O	1.164325	-0.502943	0.249077
O10	O	1.046686	-0.271946	0.340285
O11	O	0.968072	-0.390011	0.142864
O12	O	0.849223	-0.389978	0.261728
O13	O	0.955425	-0.502886	0.458001
O14	O	0.845715	-0.492818	0.348301
O15	O	1.042057	-0.407675	0.454546
O16	O	1.049987	-0.628603	0.253637
O17	O	0.959936	-0.628579	0.343698
C18	C	0.821891	-0.440268	0.306040
C19	C	0.743538	-0.436826	0.309199
C20	C	0.302298	-0.412074	0.331858
C21	C	0.375920	-0.415323	0.328886
C22	C	0.414504	-0.466444	0.282237
C23	C	0.379463	-0.514324	0.238561
C24	C	0.305842	-0.511079	0.241536
C25	C	0.634876	-0.481461	0.268498
C26	C	0.708502	-0.484701	0.265525
C27	C	0.704953	-0.385701	0.355851
C28	C	0.631332	-0.382457	0.358820
C29	C	0.596297	-0.430340	0.315147
N30	N	0.489757	-0.469764	0.279197
N31	N	0.521045	-0.427024	0.318191
C32	C	1.004967	-0.657848	0.298678
C33	C	1.004998	-0.747471	0.298691
C34	C	1.005025	-0.820255	0.298704
C35	C	1.005065	-0.911566	0.298717
C36	C	1.005101	-0.984345	0.298725
C37	C	1.005141	-1.075661	0.298738
C38	C	1.188909	-0.456487	0.291325
C39	C	1.267262	-0.459949	0.288184
C40	C	0.997690	-0.456435	0.482567
C41	C	0.994556	-0.459875	0.560921
C42	C	1.005137	-0.238059	0.298731
C43	C	1.005177	-0.148440	0.298745
C44	C	1.012408	-0.440263	0.115541
C45	C	1.015678	-0.436602	0.037181
C46	C	1.038187	-0.411923	0.595934
C47	C	1.035234	-0.415152	0.669557
C48	C	0.988654	-0.466339	0.708165
C49	C	0.945018	-0.514293	0.673147
C50	C	0.947968	-0.511059	0.599526
C51	C	0.974992	-0.481322	0.928542
C52	C	0.972047	-0.484554	1.002168
C53	C	1.062262	-0.385411	0.998573
C54	C	1.065210	-0.382186	0.924951
C55	C	1.021573	-0.430137	0.889939
N56	N	0.985636	-0.469643	0.783419
N57	N	1.024587	-0.426828	0.814686
H58	H	0.277317	-0.550066	0.205974
H59	H	0.270888	-0.370441	0.369841
H60	H	0.410884	-0.555951	0.200581
H61	H	1.103143	-0.340506	0.893521
H62	H	0.934114	-0.526239	1.033601
H63	H	1.097788	-0.346371	1.027088
H64	H	0.739915	-0.526333	0.227536
H65	H	0.939469	-0.520380	0.900044
H66	H	0.404442	-0.376341	0.364453
H67	H	0.599921	-0.340832	0.396809
H68	H	0.733487	-0.346718	0.391408
H69	H	0.912432	-0.550099	0.571020
H70	H	0.907089	-0.555968	0.704588
H71	H	0.606360	-0.520449	0.232934
H72	H	1.076119	-0.370243	0.564505
H73	H	1.070764	-0.376106	0.698061
