data_functionalizedCrystal
_audit_creation_method	'MofGen! by Chris Wilmer'
_symmetry_space_group_name_H-M	'P1'
_symmetry_Int_Tables_number	1
_symmetry_cell_setting	triclinic
loop_
_symmetry_equiv_pos_as_xyz
  x,y,z
_cell_length_a	19.188940
_cell_length_b	14.519709
_cell_length_c	13.596369
_cell_angle_alpha	90.000291
_cell_angle_beta	89.993572
_cell_angle_gamma	83.414430
loop_
_atom_site_label
_atom_site_type_symbol
_atom_site_fract_x
_atom_site_fract_y
_atom_site_fract_z
O1	O	0.091524	1.223304	-0.081664
O2	O	0.102302	0.954761	-0.081695
O3	O	-0.004715	1.096777	-0.081671
O4	O	0.198541	1.081287	-0.081688
O5	O	-0.004720	1.096763	0.081912
O6	O	0.102296	0.954747	0.081888
O7	O	0.091518	1.223290	0.081919
Zn8	Zn	0.096906	1.089016	0.107876
Zn9	Zn	0.096914	1.089035	-0.107652
O10	O	0.198535	1.081273	0.081895
C11	C	0.101797	0.920397	0.000093
C12	C	0.100292	0.818025	0.000082
C13	C	-0.030730	1.096267	0.000120
C14	C	-0.108240	1.094757	0.000120
C15	C	0.094750	0.443163	0.000127
C16	C	0.096289	0.547462	0.000114
C17	C	0.097521	0.630591	0.000103
C18	C	0.099060	0.734896	0.000092
C19	C	-0.661540	1.084005	0.089264
C20	C	-0.588711	1.085414	0.089270
C21	C	-0.552286	1.086130	0.000102
C22	C	-0.588694	1.085414	-0.089078
C23	C	-0.661521	1.083996	-0.089081
N24	N	-0.443065	1.140841	-0.066262
N25	N	-0.373882	1.142190	-0.066253
C26	C	-0.332861	1.090401	0.000106
N27	N	-0.363638	1.037224	0.066470
N28	N	-0.432827	1.035879	0.066464
C29	C	-0.473317	1.087667	0.000095
C30	C	-0.217491	1.092639	0.089286
C31	C	-0.144660	1.094042	0.089288
C32	C	-0.144645	1.094052	-0.089062
C33	C	-0.217474	1.092639	-0.089062
C34	C	-0.253893	1.091937	0.000115
C35	C	0.224550	1.081783	0.000102
C36	C	0.302060	1.083294	0.000096
C37	C	0.092023	1.257654	0.000129
C38	C	0.093529	1.360026	0.000134
N39	N	0.096901	1.089010	0.254968
N40	N	0.096914	1.089048	-0.254744
C41	C	0.096915	1.089033	0.656259
C42	C	0.096913	1.089024	0.544607
C43	C	0.096908	1.089022	0.455617
C44	C	0.096906	1.089012	0.343958
H45	H	-0.559067	1.085975	0.161884
H46	H	-0.114987	1.094624	-0.161664
C47	C	-0.701567	1.083223	-0.187172
C48	C	-0.743809	1.002191	-0.211704
C49	C	-0.783857	1.001421	-0.309795
C50	C	-0.781663	1.081683	-0.383354
C51	C	-0.739419	1.162721	-0.358823
C52	C	-0.699371	1.163490	-0.260732
H53	H	-0.745434	0.942771	-0.157250
H54	H	-0.815129	0.941431	-0.327954
H55	H	-0.811309	1.081113	-0.455967
H56	H	-0.737794	1.222141	-0.413277
H57	H	-0.668100	1.223480	-0.242573
H58	H	-0.247145	1.092059	0.161900
H59	H	-0.115024	1.094619	0.161903
C60	C	-0.257520	1.091869	-0.187150
C61	C	-0.217458	1.092656	-0.285235
C62	C	-0.257504	1.091883	-0.383329
C63	C	-0.337611	1.090322	-0.383336
C64	C	-0.377677	1.089535	-0.285247
C65	C	-0.337631	1.090308	-0.187154
H66	H	-0.158154	1.093812	-0.285233
H67	H	-0.227844	1.092466	-0.455941
H68	H	-0.367255	1.089750	-0.455950
H69	H	-0.436981	1.088379	-0.285249
H70	H	-0.367291	1.089725	-0.114542
H71	H	-0.691188	1.083432	0.161879
H72	H	-0.559031	1.085994	-0.161679
