data_functionalizedCrystal
_audit_creation_method	'MofGen! by Chris Wilmer'
_symmetry_space_group_name_H-M	'P1'
_symmetry_Int_Tables_number	1
_symmetry_cell_setting	triclinic
loop_
_symmetry_equiv_pos_as_xyz
  x,y,z
_cell_length_a	19.188905
_cell_length_b	19.188924
_cell_length_c	9.730217
_cell_angle_alpha	89.994694
_cell_angle_beta	89.991471
_cell_angle_gamma	83.138260
loop_
_atom_site_label
_atom_site_type_symbol
_atom_site_fract_x
_atom_site_fract_y
_atom_site_fract_z
O1	O	0.926151	0.087083	-0.114523
O2	O	0.722837	0.098836	-0.114476
O3	O	0.830363	-0.008697	-0.114485
O4	O	0.818624	0.194616	-0.114514
O5	O	0.830360	-0.008698	0.114095
O6	O	0.722833	0.098835	0.114104
O7	O	0.926148	0.087083	0.114057
Zn8	Zn	0.824490	0.092959	0.150373
Zn9	Zn	0.824494	0.092960	-0.150792
O10	O	0.818621	0.194615	0.114066
C11	C	0.696824	0.098458	-0.000180
C12	C	0.619318	0.097324	-0.000162
C13	C	0.829982	-0.034708	-0.000193
C14	C	0.828844	-0.112213	-0.000189
C15	C	0.582928	0.096780	-0.124765
C16	C	0.510105	0.095707	-0.124782
C17	C	0.473676	0.095164	-0.000189
C18	C	0.510074	0.095712	0.124430
C19	C	0.582895	0.096792	0.124443
N20	N	0.364655	0.053735	0.092539
N21	N	0.295478	0.052707	0.092518
C22	C	0.254269	0.091911	-0.000222
N23	N	0.284852	0.132173	-0.092960
N24	N	0.354035	0.133197	-0.092943
C25	C	0.394713	0.093993	-0.000190
C26	C	0.138915	0.090205	-0.124851
C27	C	0.066090	0.089136	-0.124863
C28	C	0.066062	0.089134	0.124352
C29	C	0.138885	0.090210	0.124361
C30	C	0.175308	0.090742	-0.000245
C31	C	0.828314	-0.148611	-0.124789
C32	C	0.827234	-0.221434	-0.124799
C33	C	0.826698	-0.257857	-0.000203
C34	C	0.827224	-0.221450	0.124413
C35	C	0.828297	-0.148627	0.124420
N36	N	0.864745	-0.377524	0.092523
N37	N	0.863727	-0.446702	0.092508
C38	C	0.823464	-0.477266	-0.000215
N39	N	0.784265	-0.436039	-0.092944
N40	N	0.785286	-0.366855	-0.092933
C41	C	0.825534	-0.336821	-0.000196
C42	C	0.821762	-0.592627	-0.124834
C43	C	0.820678	-0.665450	-0.124839
C44	C	0.820675	-0.665466	0.124376
C45	C	0.821752	-0.592643	0.124378
C46	C	0.822299	-0.556228	-0.000231
C47	C	0.952160	0.087461	-0.000242
C48	C	1.029666	0.088594	-0.000269
C49	C	0.819002	0.220627	-0.000229
C50	C	0.820141	0.298132	-0.000242
N51	N	0.824492	0.092957	0.355909
N52	N	0.824498	0.092956	-0.356328
C53	C	0.919745	-0.002236	0.355892
C54	C	0.967377	-0.049830	0.427824
C55	C	0.967384	-0.049831	0.571704
C56	C	0.919753	-0.002233	0.643655
C57	C	0.872122	0.045362	0.571724
C58	C	0.872121	0.045358	0.427841
C59	C	0.776866	0.140550	0.571740
C60	C	0.776861	0.140555	0.427861
C61	C	0.729236	0.188148	0.643692
C62	C	0.681606	0.235747	0.571760
C63	C	0.681602	0.235746	0.427872
C64	C	0.729230	0.188150	0.355929
H65	H	0.612580	0.097213	-0.226228
O66	O	1.013755	-0.096035	0.358115
C67	C	1.082819	-0.084821	0.393265
H68	H	1.082620	-0.057892	0.497715
H69	H	1.104303	-0.050123	0.312274
C70	C	1.129755	-0.188894	0.271686
C71	C	1.129511	-0.155825	0.399979
H72	H	1.158558	-0.232691	0.275821
H73	H	1.083225	-0.196448	0.247999
H74	H	1.147656	-0.159971	0.204206
H75	H	1.111602	-0.184743	0.467452
H76	H	1.176039	-0.148277	0.423677
O77	O	1.013554	-0.096132	0.641651
C78	C	0.976301	-0.139097	0.724931
H79	H	0.921246	-0.140143	0.681586
H80	H	0.972570	-0.117229	0.833967
C81	C	1.082638	-0.212876	0.780402
C82	C	1.015020	-0.214165	0.727158
H83	H	1.106523	-0.259181	0.781781
H84	H	1.107737	-0.183928	0.724299
H85	H	1.079520	-0.194649	0.871260
H86	H	1.018140	-0.232383	0.636296
H87	H	0.989923	-0.243118	0.783246
H88	H	0.919756	-0.002242	0.760810
O89	O	0.635305	0.282048	0.358215
C90	C	0.593259	0.324041	0.452580
H91	H	0.621884	0.324758	0.555130
H92	H	0.541469	0.301495	0.467906
C93	C	0.543462	0.398521	0.270472
C94	C	0.578623	0.399406	0.396423
H95	H	0.534430	0.445009	0.235831
H96	H	0.571787	0.370228	0.206895
H97	H	0.500308	0.379729	0.283261
H98	H	0.621779	0.418189	0.383629
H99	H	0.550304	0.427703	0.459997
O100	O	0.474794	0.095215	0.245583
C101	C	0.522536	0.095907	0.355568
H102	H	0.571486	0.118780	0.319047
H103	H	0.537786	0.040021	0.393890
C104	C	0.427840	0.113169	0.518136
C105	C	0.487959	0.141267	0.473283
H106	H	0.406511	0.141146	0.590751
H107	H	0.395675	0.112700	0.444038
H108	H	0.440557	0.066598	0.550062
H109	H	0.475240	0.187834	0.441343
H110	H	0.520121	0.141745	0.547379
H111	H	0.822204	-0.562976	-0.226298
H112	H	0.828725	-0.118992	0.225886
O113	O	0.174224	0.090605	0.245438
C114	C	0.164509	0.029893	0.321257
H115	H	0.150164	-0.012658	0.248350
H116	H	0.120397	0.042934	0.398940
C117	C	0.250482	0.055699	0.487172
C118	C	0.232869	0.003435	0.397625
H119	H	0.292647	0.039379	0.534285
H120	H	0.257025	0.096603	0.436095
H121	H	0.213716	0.066561	0.551896
H122	H	0.269630	-0.007420	0.332893
H123	H	0.226333	-0.037472	0.448693
H124	H	0.480470	0.095265	-0.226251
O125	O	0.618338	0.097223	0.245401
C126	C	0.668549	0.037379	0.252886
H127	H	0.682171	0.017386	0.144705
H128	H	0.646149	-0.005369	0.314376
C129	C	0.718522	0.081319	0.457002
C130	C	0.735258	0.056767	0.324132
H131	H	0.759671	0.093277	0.500955
H132	H	0.684693	0.121636	0.451964
H133	H	0.699855	0.045691	0.508227
H134	H	0.753917	0.092397	0.272905
H135	H	0.769092	0.016456	0.329163
O136	O	0.030804	0.088702	-0.245998
C137	C	0.040492	0.149426	-0.321804
H138	H	0.090659	0.170365	-0.286369
H139	H	-0.006169	0.191154	-0.304555
C140	C	-0.015276	0.105385	-0.519298
C141	C	0.046344	0.131099	-0.475784
H142	H	-0.011670	0.094082	-0.614281
H143	H	-0.021806	0.064475	-0.468225
H144	H	-0.054154	0.140163	-0.504913
H145	H	0.085219	0.096318	-0.490154
H146	H	0.052881	0.172002	-0.526863
H147	H	0.168572	0.090645	-0.226312
O148	O	0.820124	-0.700726	0.245534
C149	C	0.820845	-0.652982	0.355514
H150	H	0.799512	-0.598109	0.318994
H151	H	0.876960	-0.652745	0.393816
C152	C	0.800846	-0.742673	0.518099
C153	C	0.774639	-0.675277	0.473247
H154	H	0.772347	-0.756427	0.590726
H155	H	0.800363	-0.774840	0.444005
H156	H	0.847608	-0.742466	0.550008
H157	H	0.727881	-0.675487	0.441323
H158	H	0.775113	-0.643110	0.547339
H159	H	0.729233	0.188147	0.238775
H160	H	0.729240	0.188143	0.760846
O161	O	0.826809	-0.256880	-0.245764
C162	C	0.886653	-0.307091	-0.253269
H163	H	0.906645	-0.320719	-0.145094
H164	H	0.929402	-0.284688	-0.314754
C165	C	0.842713	-0.357052	-0.457401
C166	C	0.867265	-0.373795	-0.324537
H167	H	0.830756	-0.398197	-0.501368
H168	H	0.802397	-0.323222	-0.452349
H169	H	0.878342	-0.338381	-0.508621
H170	H	0.831634	-0.392457	-0.273315
H171	H	0.907575	-0.407630	-0.329583
H172	H	0.036401	0.088696	0.225798
O173	O	0.822152	-0.557236	0.245381
C174	C	0.762327	-0.507001	0.252846
H175	H	0.719748	-0.523278	0.182146
H176	H	0.776810	-0.453639	0.219373
C177	C	0.787228	-0.482229	0.488554
C178	C	0.734929	-0.502224	0.401728
H179	H	0.770329	-0.479279	0.580392
H180	H	0.827535	-0.516071	0.483524
H181	H	0.799293	-0.437763	0.460644
H182	H	0.722872	-0.546693	0.429628
H183	H	0.694619	-0.468389	0.406766
O184	O	0.635410	0.281951	0.641864
C185	C	0.645613	0.271728	0.784279
H186	H	0.701204	0.245493	0.803911
H187	H	0.606209	0.236804	0.825123
C188	C	0.566614	0.375397	0.834042
C189	C	0.634894	0.343180	0.858154
H190	H	0.559999	0.419472	0.879614
H191	H	0.559737	0.382284	0.738095
H192	H	0.533785	0.346287	0.868079
H193	H	0.667721	0.372287	0.824102
H194	H	0.641776	0.336300	0.954098
H195	H	0.828757	-0.118967	-0.226255
O196	O	0.919872	-0.002236	0.216129
C197	C	0.986090	0.011815	0.168037
H198	H	1.027272	-0.002596	0.250939
H199	H	0.984059	0.070008	0.142505
C200	C	0.954959	-0.014279	-0.063818
C201	C	1.005540	-0.031984	0.038001
H202	H	0.966955	-0.041293	-0.144033
H203	H	0.910345	-0.023743	-0.031419
H204	H	0.953271	0.034215	-0.085077
H205	H	1.007220	-0.080475	0.059271
H206	H	1.050155	-0.022529	0.005603
H207	H	0.826785	-0.251110	0.225860
H208	H	0.820243	-0.695084	-0.226307
