data_functionalizedCrystal
_audit_creation_method	'MofGen! by Chris Wilmer'
_symmetry_space_group_name_H-M	'P1'
_symmetry_Int_Tables_number	1
_symmetry_cell_setting	triclinic
loop_
_symmetry_equiv_pos_as_xyz
  x,y,z
_cell_length_a	6.817900
_cell_length_b	10.773972
_cell_length_c	10.773894
_cell_angle_alpha	96.486187
_cell_angle_beta	96.645922
_cell_angle_gamma	96.646171
loop_
_atom_site_label
_atom_site_type_symbol
_atom_site_fract_x
_atom_site_fract_y
_atom_site_fract_z
V1	V	-3.915801	-0.168033	-0.386968
O2	O	-3.940462	0.012792	-0.381691
O3	O	-3.834381	-0.337718	-0.382312
O4	O	-3.834380	-0.163378	-0.556655
O5	O	-3.940463	-0.162755	-0.206141
V6	V	-4.407986	-0.146649	-0.365584
O7	O	-4.158058	-0.214941	-0.433876
O8	O	-4.615927	-0.099741	-0.318676
O9	O	-4.266200	0.023037	-0.370239
O10	O	-4.500722	-0.327474	-0.370861
O11	O	-4.500721	-0.151927	-0.546410
O12	O	-4.266201	-0.151303	-0.195897
C13	C	-3.672417	-0.379149	-0.375689
C14	C	-3.686913	-0.517855	-0.373013
C15	C	-3.879078	-0.729023	-0.374892
C16	C	-3.864100	-0.585664	-0.377664
C17	C	-3.672415	-0.156759	-0.598079
C18	C	-3.686909	-0.154076	-0.736785
C19	C	-3.864079	-0.158726	-0.804593
C20	C	-3.879064	-0.155953	-0.947953
C21	C	-4.091505	0.064460	-0.376859
C22	C	-4.056245	0.203166	-0.379543
C23	C	-4.091508	-0.157927	-0.154466
C24	C	-4.056254	-0.160604	-0.015759
H25	H	-3.546308	-0.565927	-0.366987
H26	H	-3.738488	-0.777102	-0.368866
F27	F	-4.047847	-0.166616	-0.741754
F28	F	-4.240017	-0.734001	-0.387438
H29	H	-3.738462	-0.149910	-0.996028
F30	F	-4.047885	-0.522836	-0.385560
H31	H	-4.196857	-0.166642	-0.967685
F32	F	-3.503141	-0.146180	-0.799623
