data_functionalizedCrystal
_audit_creation_method	'MofGen! by Chris Wilmer'
_symmetry_space_group_name_H-M	'P1'
_symmetry_Int_Tables_number	1
_symmetry_cell_setting	triclinic
loop_
_symmetry_equiv_pos_as_xyz
  x,y,z
_cell_length_a	23.096457
_cell_length_b	20.919309
_cell_length_c	23.096457
_cell_angle_alpha	57.439354
_cell_angle_beta	90.003973
_cell_angle_gamma	62.591463
loop_
_atom_site_label
_atom_site_type_symbol
_atom_site_fract_x
_atom_site_fract_y
_atom_site_fract_z
Zr1	Zr	0.582450	0.700794	-0.100706
O2	O	0.494693	0.834373	-0.197868
O3	O	0.606088	0.567226	-0.067657
O4	O	0.610774	0.700812	-0.193165
O5	O	0.490023	0.700769	0.022930
O6	O	0.706055	0.700814	-0.193169
O7	O	0.490007	0.700787	-0.072360
O8	O	0.697672	0.461853	0.031342
O9	O	0.498406	0.939730	-0.201581
O10	O	0.691220	0.622162	-0.057508
O11	O	0.620126	0.622147	0.013608
O12	O	0.625643	0.779427	-0.134162
O13	O	0.554549	0.779413	-0.063045
Zr14	Zr	0.734438	0.700768	0.051264
Zr15	Zr	0.734412	0.700797	-0.100712
Zr16	Zr	0.582477	0.700766	0.051270
Zr17	Zr	0.588373	0.868827	-0.106629
Zr18	Zr	0.728516	0.532736	0.057186
O19	O	0.710800	0.834337	0.018215
O20	O	0.710762	0.834377	-0.197876
O21	O	0.494731	0.834333	0.018223
O22	O	0.822196	0.567189	0.148426
O23	O	0.822158	0.567230	-0.067665
O24	O	0.606126	0.567185	0.148434
O25	O	0.826865	0.700793	-0.072372
O26	O	0.706114	0.700751	0.143723
O27	O	0.610834	0.700749	0.143727
O28	O	0.826882	0.700775	0.022918
O29	O	0.619195	0.939732	-0.201586
O30	O	0.697693	0.461830	0.152143
O31	O	0.818482	0.461832	0.152139
O32	O	0.818461	0.461855	0.031338
O33	O	0.498427	0.939708	-0.080780
O34	O	0.619216	0.939710	-0.080785
O35	O	0.691245	0.622135	0.084719
O36	O	0.762339	0.622150	0.013603
O37	O	0.696763	0.779415	-0.063050
O38	O	0.625668	0.779401	0.008066
C39	C	0.651036	0.490598	-0.017314
C40	C	0.648522	0.419264	-0.014799
C41	C	0.468364	0.700778	-0.024714
C42	C	0.403852	0.700777	-0.024712
C43	C	0.684450	0.385759	-0.050740
C44	C	0.682089	0.318728	-0.048371
C45	C	0.643797	0.285208	-0.010065
C46	C	0.607868	0.318716	0.025880
C47	C	0.610233	0.385741	0.023515
C48	C	0.634803	0.082831	-0.001062
C49	C	0.632439	0.015804	0.001298
C50	C	0.706661	0.015819	-0.072953
C51	C	0.709019	0.082849	-0.075318
C52	C	0.673094	0.116348	-0.039370
C53	C	0.641381	0.216694	-0.007644
C54	C	0.675514	0.184856	-0.041786
C55	C	0.407777	0.618688	0.015294
C56	C	0.347162	0.618687	0.015297
C57	C	0.282622	0.700779	-0.024719
C58	C	0.278700	0.782878	-0.064727
C59	C	0.339315	0.782877	-0.064723
N60	N	0.161969	0.761890	-0.087289
N61	N	0.104389	0.761886	-0.087291
C62	C	0.099989	0.700787	-0.024732
N63	N	0.155350	0.639679	0.037829
N64	N	0.212936	0.639681	0.037829
C65	C	0.216891	0.700789	-0.024728
C66	C	0.038190	0.618691	0.015280
C67	C	-0.022428	0.618693	0.015285
C68	C	-0.090889	0.782887	-0.064746
C69	C	-0.030272	0.782883	-0.064744
C70	C	0.034266	0.700782	-0.024732
C71	C	0.848525	0.700785	-0.024728
C72	C	0.913036	0.700786	-0.024731
C73	C	0.658411	0.700817	-0.214820
C74	C	0.658400	0.700829	-0.279338
C75	C	0.665852	0.910964	-0.032129
C76	C	0.668366	0.982298	-0.034643
C77	C	0.710892	0.700831	-0.309634
C78	C	0.710907	0.700813	-0.370241
C79	C	0.658420	0.700810	-0.400559
C80	C	0.605922	0.700803	-0.370253
C81	C	0.605912	0.700812	-0.309643
N82	N	0.597989	0.752056	-0.520721
N83	N	0.598002	0.752049	-0.578300
C84	C	0.658448	0.700780	-0.583173
N85	N	0.718885	0.649531	-0.528299
N86	N	0.718873	0.649541	-0.470718
C87	C	0.658425	0.700800	-0.466280
C88	C	0.710961	0.700762	-0.679186
C89	C	0.710977	0.700738	-0.739791
C90	C	0.605986	0.700737	-0.739807
C91	C	0.605976	0.700751	-0.679198
C92	C	0.658463	0.700768	-0.648893
C93	C	0.658478	0.700746	0.165378
C94	C	0.658489	0.700734	0.229896
C95	C	0.841117	0.490602	-0.017321
C96	C	0.903114	0.419269	-0.014809
C97	C	0.651070	0.490563	0.172786
C98	C	0.648567	0.419216	0.239818
C99	C	0.841150	0.490566	0.172779
C100	C	0.903159	0.419221	0.239808
C101	C	0.475738	0.910996	-0.222221
C102	C	0.413730	0.982341	-0.289250
C103	C	0.475772	0.910961	-0.032122
C104	C	0.413774	0.982294	-0.034633
C105	C	0.665819	0.911000	-0.222228
C106	C	0.668322	0.982346	-0.289260
C107	C	0.895105	0.385776	-0.050755
C108	C	0.953353	0.318761	-0.048410
C109	C	1.019609	0.285234	-0.010113
C110	C	1.027616	0.318733	0.025834
C111	C	0.969370	0.385752	0.023483
C112	C	0.684515	0.385705	0.308422
C113	C	0.682161	0.318677	0.371411
C114	C	0.643862	0.285157	0.365795
C115	C	0.607910	0.318675	0.297183
C116	C	0.610260	0.385706	0.234195
C117	C	0.969396	0.385724	0.234164
C118	C	1.027666	0.318697	0.297139
C119	C	1.019697	0.285164	0.365758
C120	C	0.953453	0.318667	0.371401
C121	C	0.895185	0.385698	0.308426
C122	C	0.347493	1.015846	-0.283607
C123	C	0.289224	1.082894	-0.346583
C124	C	0.297193	1.116431	-0.415202
C125	C	0.363436	1.082923	-0.420844
C126	C	0.421704	1.015881	-0.357869
C127	C	0.421783	1.015793	0.001306
C128	C	0.363536	1.082827	-0.001057
C129	C	0.297281	1.116356	-0.039355
C130	C	0.289273	1.082854	-0.075299
C131	C	0.347520	1.015826	-0.072940
C132	C	0.706627	1.015845	-0.283620
C133	C	0.708992	1.082874	-0.346597
C134	C	0.673048	1.116406	-0.415215
C135	C	0.634741	1.082901	-0.420853
C136	C	0.632380	1.015869	-0.357876
H137	H	0.715628	0.413050	-0.081937
C138	C	0.207705	0.873180	-0.108748
N139	N	0.154230	0.941197	-0.141905
C140	C	0.334995	0.873185	-0.108741
N141	N	0.331741	0.941206	-0.141898
H142	H	0.563187	0.700798	-0.394940
C143	C	0.570710	0.422597	0.063053
N144	N	0.540941	0.450354	0.092836
C145	C	0.109183	0.528380	0.059301
N146	N	0.162654	0.460356	0.092460
C147	C	0.590285	-0.021035	0.043410
N148	N	0.558525	-0.048770	0.075116
H149	H	0.841254	0.412962	0.313032
H150	H	0.475727	0.988499	0.032498
H151	H	0.605477	1.110214	-0.476730
H152	H	0.753726	0.700734	-0.764455
H153	H	0.249859	1.170935	-0.041270
C154	C	0.216362	1.119739	-0.340359
N155	N	0.161485	1.147488	-0.335670
H156	H	0.841162	0.413073	-0.081949
H157	H	0.576693	0.291415	0.057074
H158	H	1.081599	0.291426	0.292532
H159	H	0.706695	0.212147	-0.072972
C160	C	0.641291	0.211412	0.435091
N161	N	0.639360	0.155862	0.487287
H162	H	0.735911	-0.011463	-0.102219
H163	H	0.674975	1.170988	-0.466489
C164	C	0.351476	0.528379	0.059304
N165	N	0.354728	0.460359	0.092450
C166	C	1.083801	0.211422	0.435026
N167	N	1.132087	0.155876	0.487196
H168	H	0.235320	1.110163	-0.106481
H169	H	0.249741	1.171021	-0.466474
C170	C	0.494563	0.979023	-0.364089
N171	N	0.549439	0.951262	-0.368780
H172	H	0.946975	0.291354	0.427279
C173	C	-0.018106	0.528384	0.059291
N174	N	-0.014850	0.460362	0.092435
C175	C	0.372190	1.119816	-0.496332
N176	N	0.378781	1.147599	-0.553191
H177	H	-0.143438	0.849728	-0.097328
H178	H	0.370070	1.110094	0.028217
C179	C	0.721721	0.281811	0.446878
N180	N	0.751521	0.254044	0.503717
C181	C	0.746176	0.978967	-0.208146
N182	N	0.775971	0.951189	-0.151301
C183	C	0.751129	1.119721	-0.340378
N184	N	0.782866	1.147474	-0.335692
H185	H	0.340989	0.988552	-0.102205
C186	C	-0.034591	0.873188	-0.108765
N187	N	-0.037846	0.941210	-0.141924
H188	H	0.605553	0.110095	0.028212
C189	C	0.768635	0.700837	-0.276296
N190	N	0.812130	0.700837	-0.251183
H191	H	0.975900	0.413013	0.052760
H192	H	0.340991	0.988544	-0.227739
H193	H	0.601185	0.988602	-0.362479
C194	C	0.726645	0.422570	0.314618
N195	N	0.758375	0.450337	0.319291
C196	C	0.548248	0.700735	-0.773153
N197	N	0.504759	0.700732	-0.798273
C198	C	0.548189	0.700844	-0.645918
N199	N	0.504650	0.700943	-0.620866
H200	H	0.753655	0.700815	-0.394912
H201	H	0.946819	0.291494	-0.077682
H202	H	0.711344	0.291448	-0.077637
H203	H	0.563166	0.700810	-0.284976
H204	H	0.610203	0.189395	0.023545
C205	C	0.751147	0.119713	-0.117455
N206	N	0.782877	0.147480	-0.149194
H207	H	1.067031	0.230662	-0.008205
H208	H	0.460322	0.551835	0.047870
H209	H	0.753701	0.700771	-0.654508
C210	C	1.100504	0.281838	0.067963
N211	N	1.155405	0.254040	0.099700
C212	C	0.565787	0.281788	0.291017
N213	N	0.534065	0.253998	0.286375
H214	H	0.580989	0.412982	0.178337
H215	H	0.975897	0.413018	0.178297
