data_functionalizedCrystal
_audit_creation_method	'MofGen! by Chris Wilmer'
_symmetry_space_group_name_H-M	'P1'
_symmetry_Int_Tables_number	1
_symmetry_cell_setting	triclinic
loop_
_symmetry_equiv_pos_as_xyz
  x,y,z
_cell_length_a	12.759401
_cell_length_b	18.215405
_cell_length_c	12.759393
_cell_angle_alpha	89.962431
_cell_angle_beta	89.981504
_cell_angle_gamma	90.025046
loop_
_atom_site_label
_atom_site_type_symbol
_atom_site_fract_x
_atom_site_fract_y
_atom_site_fract_z
Zn1	Zn	1.606181	-0.292938	-0.593937
Zn2	Zn	1.606044	-0.416024	-0.418239
Zn3	Zn	1.430483	-0.292976	-0.418277
Zn4	Zn	1.430440	-0.415967	-0.593881
O5	O	1.518287	-0.354476	-0.506084
O6	O	1.753184	-0.309273	-0.570639
O7	O	1.582716	-0.399741	-0.271223
O8	O	1.453865	-0.189987	-0.441618
O9	O	1.753083	-0.399704	-0.441554
O10	O	1.582949	-0.189959	-0.570675
O11	O	1.453732	-0.309339	-0.271251
O12	O	1.283456	-0.309284	-0.441563
O13	O	1.453792	-0.399607	-0.740909
O14	O	1.283425	-0.399645	-0.570578
O15	O	1.582908	-0.309218	-0.740951
O16	O	1.582675	-0.519001	-0.441499
O17	O	1.453660	-0.518959	-0.570542
C18	C	1.245320	-0.354463	-0.506069
C19	C	1.128543	-0.354475	-0.506088
C20	C	1.518176	-0.545683	-0.506033
C21	C	1.518225	-0.627482	-0.506047
C22	C	1.073692	-0.401601	-0.573155
C23	C	0.963968	-0.401610	-0.573167
C24	C	0.963956	-0.307365	-0.439035
C25	C	1.073678	-0.307353	-0.439029
C26	C	1.073699	-0.456015	-0.650592
C27	C	0.963975	-0.456025	-0.650604
C28	C	1.585561	-0.815673	-0.438977
C29	C	1.585608	-0.892531	-0.439003
C30	C	1.451148	-0.892528	-0.573265
C31	C	1.451107	-0.815671	-0.573244
C32	C	1.518312	-0.777245	-0.506094
C33	C	1.518400	-0.930961	-0.506141
C34	C	1.518450	-1.014295	-0.506169
C35	C	1.518263	-0.693906	-0.506067
C36	C	1.792320	-0.354491	-0.506098
C37	C	1.909097	-0.354497	-0.506105
C38	C	1.518361	-0.354402	-0.780117
C39	C	1.518392	-0.354370	-0.896894
C40	C	1.518427	-0.162523	-0.506157
C41	C	1.518487	-0.080724	-0.506189
C42	C	1.585632	-0.307300	-0.951779
C43	C	1.585657	-0.307274	-1.061503
C44	C	1.451199	-0.401394	-1.061447
C45	C	1.451170	-0.401416	-0.951725
C46	C	1.663263	-0.252963	-0.951813
C47	C	1.663288	-0.252936	-1.061537
C48	C	1.518274	-0.354497	-0.233116
C49	C	1.518447	-0.354322	-0.116340
H50	H	0.919271	-0.268999	-0.384439
H51	H	0.934165	-0.513008	-0.628663
C52	C	1.378049	-0.452383	-1.120926
C53	C	1.274103	-0.436345	-1.094256
C54	C	1.206688	-0.483295	-1.149036
H55	H	1.393243	-0.501861	-1.102967
H56	H	1.387623	-0.445621	-1.194144
H57	H	1.264533	-0.443112	-1.021055
H58	H	1.258876	-0.386875	-1.112218
H59	H	1.216262	-0.476534	-1.222254
H60	H	1.221892	-0.532771	-1.131073
H61	H	1.136153	-0.472416	-1.130956
C62	C	1.118844	-0.528235	-0.611560
C63	C	1.036906	-0.576089	-0.585697
C64	C	1.078455	-0.642626	-0.549747
H65	H	1.160714	-0.519534	-0.551288
H66	H	1.160729	-0.549617	-0.665004
H67	H	0.995039	-0.554711	-0.532258
H68	H	0.995030	-0.584811	-0.645953
H69	H	1.120340	-0.664009	-0.603191
H70	H	1.120324	-0.633918	-0.489478
H71	H	1.022867	-0.675106	-0.532204
C72	C	1.378323	-0.452559	-0.892005
C73	C	1.437740	-0.499741	-0.828969
C74	C	1.370664	-0.546858	-0.773934
H75	H	1.338274	-0.480641	-0.940262
H76	H	1.332575	-0.424429	-0.849157
H77	H	1.483470	-0.527868	-0.871814
H78	H	1.477787	-0.471679	-0.780694
H79	H	1.324916	-0.518728	-0.731085
H80	H	1.330618	-0.574935	-0.822198
H81	H	1.410967	-0.578872	-0.731150
H82	H	1.740530	-0.273395	-0.917774
H83	H	1.634188	-0.198783	-1.095593
H84	H	1.118333	-0.268973	-0.384424
C85	C	1.771830	-0.273346	-1.101045
C86	C	1.838198	-0.285856	-1.015518
C87	C	1.938185	-0.304669	-1.051872
H88	H	1.799046	-0.234368	-1.142401
H89	H	1.767420	-0.316611	-1.142355
H90	H	1.842612	-0.242596	-0.974225
H91	H	1.811016	-0.324836	-0.974153
H92	H	1.933774	-0.347934	-1.093182
H93	H	1.965390	-0.265689	-1.093228
H94	H	1.983225	-0.313166	-0.993848
H95	H	1.396345	-0.784381	-0.627904
C96	C	1.113255	-0.435696	-0.759192
C97	C	1.027758	-0.423280	-0.825629
C98	C	1.064157	-0.404550	-0.925671
H99	H	1.154586	-0.474685	-0.786259
H100	H	1.154600	-0.392412	-0.754922
H101	H	0.986430	-0.466558	-0.829903
H102	H	0.986418	-0.384288	-0.798596
H103	H	1.105502	-0.361266	-0.921401
H104	H	1.105488	-0.443542	-0.952728
H105	H	1.006153	-0.396117	-0.970758
C106	C	1.658644	-0.774085	-0.366040
C107	C	1.717567	-0.824193	-0.307288
C108	C	1.784915	-0.785912	-0.240097
H109	H	1.618583	-0.744151	-0.320124
H110	H	1.704438	-0.744068	-0.406239
H111	H	1.671779	-0.854197	-0.267092
H112	H	1.757649	-0.854129	-0.353176
H113	H	1.830709	-0.755895	-0.280296
H114	H	1.744845	-0.755980	-0.194188
H115	H	1.824909	-0.819904	-0.200232
C116	C	1.658818	-0.934265	-0.366342
C117	C	1.726167	-0.978266	-0.425954
C118	C	1.793666	-1.016701	-0.359071
H119	H	1.618863	-0.964377	-0.320484
H120	H	1.698894	-0.900371	-0.326405
H121	H	1.686096	-1.012155	-0.465873
H122	H	1.766145	-0.948171	-0.471810
H123	H	1.833742	-0.982807	-0.319133
H124	H	1.753702	-1.046809	-0.313216
H125	H	1.839377	-1.046555	-0.399508
H126	H	0.929982	-0.435680	-0.727959
H127	H	1.396430	-0.923824	-0.627935
H128	H	1.641509	-0.195969	-0.922065
