data_functionalizedCrystal
_audit_creation_method	'MofGen! by Chris Wilmer'
_symmetry_space_group_name_H-M	'P1'
_symmetry_Int_Tables_number	1
_symmetry_cell_setting	triclinic
loop_
_symmetry_equiv_pos_as_xyz
  x,y,z
_cell_length_a	8.597213
_cell_length_b	10.723024
_cell_length_c	7.088929
_cell_angle_alpha	83.718137
_cell_angle_beta	88.663806
_cell_angle_gamma	84.901223
loop_
_atom_site_label
_atom_site_type_symbol
_atom_site_fract_x
_atom_site_fract_y
_atom_site_fract_z
O1	O	2.034823	0.225536	-0.494159
O2	O	1.585473	0.233945	-0.420145
O3	O	1.820514	0.048356	-0.458852
O4	O	1.799783	0.411125	-0.455452
O5	O	1.851924	0.023496	-0.146050
O6	O	1.616883	0.209085	-0.107343
O7	O	2.066234	0.200676	-0.181356
Cu8	Cu	1.844426	0.202611	-0.115788
Cu9	Cu	1.807280	0.232010	-0.485713
O10	O	1.831193	0.386265	-0.142649
C11	C	1.543641	0.219227	-0.254267
C12	C	1.372200	0.212395	-0.226028
C13	C	1.834710	-0.010601	-0.302205
C14	C	1.830196	-0.149239	-0.301468
C15	C	1.961712	-0.221779	-0.323133
C16	C	1.957049	-0.365068	-0.322372
C17	C	2.108065	0.215394	-0.347239
C18	C	2.279505	0.222227	-0.375490
C19	C	1.816996	0.445223	-0.299301
C20	C	1.821509	0.583861	-0.300050
N21	N	1.870564	0.181932	0.144395
N22	N	1.781154	0.252680	-0.745899
H23	H	1.331302	0.235881	-0.525046
C24	C	2.075008	-0.574875	-0.341826
C25	C	2.109048	-0.449216	-0.347421
H26	H	2.168850	-0.626822	-0.357304
H27	H	2.027518	-0.600189	-0.223122
H28	H	2.005588	-0.582834	-0.441282
H29	H	2.178460	-0.441255	-0.247955
H30	H	2.156563	-0.423895	-0.466140
C31	C	2.143089	0.110465	0.161448
C32	C	1.995673	0.082955	0.234007
H33	H	2.220322	0.049364	0.216781
H34	H	2.144852	0.109045	0.027677
H35	H	2.164079	0.191639	0.190706
H36	H	1.974679	0.001785	0.204736
H37	H	1.993907	0.084362	0.367808
C38	C	1.687039	0.471293	0.207620
C39	C	1.656054	0.351652	0.164494
H40	H	1.609810	0.532395	0.152280
H41	H	1.685254	0.472701	0.341393
H42	H	1.787061	0.489929	0.158403
H43	H	1.556036	0.333012	0.213723
H44	H	1.657823	0.350241	0.030694
C45	C	1.335246	0.294096	0.075470
C46	C	1.302276	0.193973	-0.024115
H47	H	1.292067	0.282723	0.200115
H48	H	1.445138	0.296415	0.082347
H49	H	1.290868	0.371052	0.011495
H50	H	1.346664	0.117017	0.039853
H51	H	1.192362	0.191641	-0.030983
H52	H	2.077760	-0.177802	-0.342236
C53	C	1.647330	-0.243630	-0.434823
C54	C	1.669500	-0.332000	-0.275016
H55	H	1.553480	-0.191687	-0.419370
H56	H	1.732959	-0.193020	-0.448905
H57	H	1.640489	-0.286258	-0.544570
H58	H	1.676352	-0.289372	-0.165270
H59	H	1.583849	-0.382616	-0.260913
H60	H	1.714148	-0.193215	-0.282366
