data_functionalizedCrystal
_audit_creation_method	'MofGen! by Chris Wilmer'
_symmetry_space_group_name_H-M	'P1'
_symmetry_Int_Tables_number	1
_symmetry_cell_setting	triclinic
loop_
_symmetry_equiv_pos_as_xyz
  x,y,z
_cell_length_a	12.759395
_cell_length_b	13.897448
_cell_length_c	12.759387
_cell_angle_alpha	90.033869
_cell_angle_beta	90.018815
_cell_angle_gamma	90.019229
loop_
_atom_site_label
_atom_site_type_symbol
_atom_site_fract_x
_atom_site_fract_y
_atom_site_fract_z
Zn1	Zn	1.606229	-0.383913	0.593991
Zn2	Zn	1.606116	-0.545244	0.418306
Zn3	Zn	1.430533	-0.383969	0.418328
Zn4	Zn	1.430511	-0.545173	0.593945
O5	O	1.518347	-0.464575	0.506142
O6	O	1.753235	-0.405321	0.570696
O7	O	1.582786	-0.523904	0.271287
O8	O	1.453896	-0.248980	0.441659
O9	O	1.753152	-0.523850	0.441621
O10	O	1.582979	-0.248939	0.570718
O11	O	1.453786	-0.405416	0.271304
O12	O	1.283509	-0.405347	0.441614
O13	O	1.453858	-0.523728	0.740972
O14	O	1.283492	-0.523782	0.570639
O15	O	1.582958	-0.405251	0.741006
O16	O	1.582765	-0.680216	0.441576
O17	O	1.453748	-0.680164	0.570617
C18	C	1.245380	-0.464563	0.506124
C19	C	1.128603	-0.464581	0.506142
C20	C	1.128625	-0.588108	0.640278
C21	C	1.073775	-0.649878	0.707349
C22	C	0.964053	-0.649890	0.707362
C23	C	0.909179	-0.588122	0.640299
C24	C	0.964029	-0.526352	0.573227
C25	C	1.073753	-0.526349	0.573220
C26	C	0.964007	-0.402822	0.439098
C27	C	1.073729	-0.402814	0.439078
C28	C	0.909133	-0.341054	0.372035
C29	C	0.963983	-0.279287	0.304957
C30	C	1.073711	-0.279279	0.304946
C31	C	1.128579	-0.341043	0.372007
C32	C	1.518270	-0.715189	0.506112
C33	C	1.518334	-0.822403	0.506134
C34	C	1.518444	-1.018698	0.506200
C35	C	1.518380	-0.909466	0.506167
C36	C	1.792381	-0.464587	0.506161
C37	C	1.909157	-0.464593	0.506169
C38	C	1.518418	-0.464475	0.780176
C39	C	1.518449	-0.464433	0.896953
C40	C	1.518453	-0.212982	0.506196
C41	C	1.518498	-0.105768	0.506219
C42	C	1.518337	-0.464605	0.233175
C43	C	1.518510	-0.464375	0.116399
C44	C	1.384130	-0.341043	0.896989
C45	C	1.316989	-0.279329	0.951868
C46	C	1.317021	-0.279294	1.061589
C47	C	1.384198	-0.340982	1.116435
C48	C	1.451338	-0.402696	1.061556
C49	C	1.451301	-0.402722	0.951832
C50	C	1.585650	-0.526089	1.061520
C51	C	1.585626	-0.526121	0.951798
C52	C	1.652827	-0.587777	1.116365
C53	C	1.719974	-0.649488	1.061487
C54	C	1.719941	-0.649520	0.951758
C55	C	1.652766	-0.587835	0.896919
H56	H	1.118363	-0.228971	0.250335
O57	O	0.802550	-0.340911	0.372139
C58	C	0.645123	-0.248474	0.399264
C59	C	0.765827	-0.248506	0.399215
H60	H	0.615395	-0.173767	0.421131
H61	H	0.615288	-0.303179	0.458752
H62	H	0.615325	-0.268446	0.317864
H63	H	0.795714	-0.228510	0.480571
H64	H	0.795590	-0.193821	0.339672
H65	H	1.217920	-0.341045	0.372002
H66	H	1.262348	-0.229042	1.106271
H67	H	1.774660	-0.699713	1.106150
O68	O	0.910634	-0.219430	0.239706
C69	C	0.786636	-0.206300	0.097952
C70	C	0.847011	-0.274197	0.171769
H71	H	0.735166	-0.250551	0.043021
H72	H	0.844635	-0.162170	0.049929
H73	H	0.735354	-0.155901	0.146319
H74	H	0.898294	-0.324655	0.123483
H75	H	0.788955	-0.318259	0.219796
O76	O	1.383938	-0.340980	0.790406
C77	C	1.310246	-0.273270	0.632967
C78	C	1.310341	-0.273260	0.753671
H79	H	1.250765	-0.218509	0.603231
H80	H	1.288332	-0.347943	0.603094
H81	H	1.391636	-0.253319	0.603216
H82	H	1.228975	-0.293170	0.783512
H83	H	1.332314	-0.198578	0.783473
O84	O	1.785258	-0.709504	0.898615
C85	C	1.918428	-0.831947	0.910173
C86	C	1.844529	-0.764044	0.970482
H87	H	1.966352	-0.876074	0.968251
H88	H	1.973449	-0.787737	0.858848
H89	H	1.870130	-0.882347	0.858759
H90	H	1.892742	-0.713630	1.021953
H91	H	1.789505	-0.808314	1.021741
H92	H	1.262293	-0.229106	0.907200
O93	O	1.652727	-0.588044	0.790336
C94	C	1.625563	-0.680545	0.632854
C95	C	1.625599	-0.680448	0.753558
H96	H	1.603610	-0.755241	0.603082
H97	H	1.706927	-0.660616	0.603008
H98	H	1.566048	-0.625819	0.603111
H99	H	1.685061	-0.735176	0.783391
H100	H	1.544197	-0.700335	0.783332
H101	H	1.217966	-0.588111	0.640266
H102	H	1.118465	-0.700167	0.761952
H103	H	0.819838	-0.588129	0.640324
H104	H	0.919395	-0.700184	0.761982
H105	H	1.384208	-0.340957	1.205776
H106	H	1.652843	-0.587749	1.205707
