data_functionalizedCrystal
_audit_creation_method	'MofGen! by Chris Wilmer'
_symmetry_space_group_name_H-M	'P1'
_symmetry_Int_Tables_number	1
_symmetry_cell_setting	triclinic
loop_
_symmetry_equiv_pos_as_xyz
  x,y,z
_cell_length_a	12.759401
_cell_length_b	13.032721
_cell_length_c	13.033429
_cell_angle_alpha	89.068252
_cell_angle_beta	97.162366
_cell_angle_gamma	97.205831
loop_
_atom_site_label
_atom_site_type_symbol
_atom_site_fract_x
_atom_site_fract_y
_atom_site_fract_z
Zn1	Zn	1.482513	-0.335469	-0.633435
Zn2	Zn	1.982513	0.164531	-0.133435
Zn3	Zn	1.476803	-0.529323	-0.483297
Zn4	Zn	1.976803	-0.029323	0.016703
Zn5	Zn	1.325969	-0.357370	-0.461486
Zn6	Zn	1.825969	0.142630	0.038514
Zn7	Zn	1.282050	-0.507408	-0.655217
Zn8	Zn	1.782050	-0.007408	-0.155217
O9	O	1.391834	-0.432393	-0.558359
O10	O	1.891834	0.067607	-0.058359
O11	O	1.628774	-0.361190	-0.613531
O12	O	2.128774	0.138810	-0.113531
O13	O	1.472785	-0.524851	-0.336494
O14	O	1.972785	-0.024851	0.163506
O15	O	1.367505	-0.210545	-0.466052
O16	O	1.867505	0.289455	0.033948
O17	O	1.624579	-0.503614	-0.503225
O18	O	2.124579	-0.003614	-0.003225
O19	O	1.482517	-0.194454	-0.592382
O20	O	1.982517	0.305546	-0.092382
O21	O	1.361968	-0.398517	-0.320469
O22	O	1.861968	0.101483	0.179531
O23	O	1.173125	-0.377267	-0.487173
O24	O	1.673125	0.122733	0.012827
O25	O	1.292652	-0.466263	-0.796237
O26	O	1.792652	0.033737	-0.296237
O27	O	1.140858	-0.487500	-0.629506
O28	O	1.640858	0.012500	-0.129506
O29	O	1.439931	-0.339940	-0.780234
O30	O	1.939931	0.160060	-0.280234
O31	O	1.430199	-0.670336	-0.524346
O32	O	1.930199	-0.170336	-0.024346
O33	O	1.287115	-0.654236	-0.650655
O34	O	1.787115	-0.154236	-0.150655
C35	C	1.118871	-0.432383	-0.558337
C36	C	1.618871	0.067617	-0.058337
C37	C	1.002090	-0.432400	-0.558355
C38	C	1.502090	0.067600	-0.058355
C39	C	1.353297	-0.699600	-0.592253
C40	C	1.853297	-0.199600	-0.092253
C41	C	1.336903	-0.813908	-0.606788
C42	C	1.836903	-0.313908	-0.106788
C43	C	0.930451	-0.489911	-0.632377
C44	C	1.430451	0.010089	-0.132377
C45	C	0.820724	-0.489913	-0.632398
C46	C	1.320724	0.010087	-0.132398
C47	C	0.854286	-0.374890	-0.484365
C48	C	1.354286	0.125110	0.015635
C49	C	0.964010	-0.374883	-0.484350
C50	C	1.464010	0.125117	0.015650
C51	C	1.400441	-0.872796	-0.550819
C52	C	1.900441	-0.372796	-0.050819
C53	C	1.383498	-0.990939	-0.565840
C54	C	1.883498	-0.490939	-0.065840
C55	C	1.665863	-0.432403	-0.558381
C56	C	2.165863	0.067597	-0.058381
C57	C	1.782638	-0.432408	-0.558391
C58	C	2.282638	0.067592	-0.058391
C59	C	1.362029	-0.398214	-0.826593
C60	C	1.862029	0.101786	-0.326593
C61	C	1.349328	-0.383649	-0.940899
C62	C	1.849328	0.116351	-0.440899
C63	C	1.430547	-0.164139	-0.524354
C64	C	1.930547	0.335861	-0.024354
C65	C	1.447045	-0.049826	-0.509864
C66	C	1.947045	0.450174	-0.009864
C67	C	1.385373	-0.424624	-1.117928
C68	C	1.885373	0.075376	-0.617928
C69	C	1.398502	-0.439672	-0.999786
C70	C	1.898502	0.060328	-0.499786
C71	C	1.421594	-0.466364	-0.291158
C72	C	1.921594	0.033636	0.208842
C73	C	1.434540	-0.480640	-0.176816
C74	C	1.934540	0.019360	0.323184
H75	H	0.961450	-0.536742	-0.692638
H76	H	1.461450	-0.036742	-0.192638
Br77	Br	1.271926	-1.052673	-0.664256
Br78	Br	1.771926	-0.552673	-0.164256
H79	H	1.022343	-0.328045	-0.424072
H80	H	1.522343	0.171955	0.075928
H81	H	1.486357	-0.539733	-1.139769
H82	H	1.986357	-0.039733	-0.639769
H83	H	1.467385	-0.835749	-0.491786
H84	H	1.967385	-0.335749	0.008214
H85	H	1.513993	-1.012782	-0.450827
H86	H	2.013993	-0.512782	0.049173
H87	H	0.762399	-0.536742	-0.692675
H88	H	1.262399	-0.036742	-0.192675
Br89	Br	0.802599	-0.296836	-0.383935
Br90	Br	1.302599	0.203164	0.116065
Br91	Br	1.225336	-0.875646	-0.705199
Br92	Br	1.725336	-0.375646	-0.205199
Br93	Br	1.299022	-0.326112	-1.179662
Br94	Br	1.799022	0.173888	-0.679662
Br95	Br	1.484877	-0.538172	-0.938054
Br96	Br	1.984877	-0.038172	-0.438054
H97	H	1.297518	-0.324542	-0.977940
H98	H	1.797518	0.175458	-0.477940
