data_functionalizedCrystal
_audit_creation_method	'MofGen! by Chris Wilmer'
_symmetry_space_group_name_H-M	'P1'
_symmetry_Int_Tables_number	1
_symmetry_cell_setting	triclinic
loop_
_symmetry_equiv_pos_as_xyz
  x,y,z
_cell_length_a	12.827893
_cell_length_b	10.686685
_cell_length_c	10.685910
_cell_angle_alpha	89.667638
_cell_angle_beta	85.620701
_cell_angle_gamma	85.638050
loop_
_atom_site_label
_atom_site_type_symbol
_atom_site_fract_x
_atom_site_fract_y
_atom_site_fract_z
Zn1	Zn	-1.673323	0.445274	0.747722
Zn2	Zn	-1.173323	0.945274	1.247722
Zn3	Zn	-1.675311	0.671061	0.554065
Zn4	Zn	-1.175311	1.171061	1.054065
Zn5	Zn	-1.486304	0.461326	0.537964
Zn6	Zn	-0.986304	0.961326	1.037964
Zn7	Zn	-1.512898	0.654966	0.763774
Zn8	Zn	-1.012898	1.154966	1.263774
O9	O	-1.586959	0.558157	0.650881
O10	O	-1.086959	1.058157	1.150881
O11	O	-1.819825	0.475244	0.722054
O12	O	-1.319825	0.975244	1.222054
O13	O	-1.639941	0.656693	0.376382
O14	O	-1.139941	1.156693	0.876382
O15	O	-1.499151	0.283666	0.552333
O16	O	-0.999151	0.783666	1.052333
O17	O	-1.821286	0.641128	0.579775
O18	O	-1.321286	1.141128	1.079775
O19	O	-1.636553	0.271872	0.706441
O20	O	-1.136553	0.771872	1.206441
O21	O	-1.501078	0.502602	0.364552
O22	O	-1.001078	1.002602	0.864552
O23	O	-1.343593	0.486995	0.567898
O24	O	-0.843593	0.986995	1.067898
O25	O	-1.544477	0.613696	0.937192
O26	O	-1.044477	1.113696	1.437192
O27	O	-1.363132	0.629261	0.733799
O28	O	-0.863132	1.129261	1.233799
O29	O	-1.662340	0.459637	0.925399
O30	O	-1.162340	0.959637	1.425399
O31	O	-1.665728	0.844457	0.595340
O32	O	-1.165728	1.344457	1.095340
O33	O	-1.546404	0.832632	0.749412
O34	O	-1.046404	1.332632	1.249412
C35	C	-1.315445	0.558124	0.650844
C36	C	-0.815445	1.058124	1.150844
C37	C	-1.199293	0.558138	0.650860
C38	C	-0.699293	1.058138	1.150860
C39	C	-1.017771	0.487643	0.568910
C40	C	-0.517771	0.987643	1.068910
C41	C	-1.137820	0.487627	0.568892
C42	C	-0.637820	0.987627	1.068892
C43	C	-1.609198	0.884056	0.675892
C44	C	-1.109198	1.384056	1.175892
C45	C	-1.618809	1.023474	0.686634
C46	C	-1.118809	1.523474	1.186634
C47	C	-1.606153	0.533081	0.978086
C48	C	-1.106153	1.033081	1.478086
C49	C	-1.614333	0.522395	1.117521
C50	C	-1.114333	1.022395	1.617521
C51	C	-0.859532	0.558181	0.650909
C52	C	-0.359532	1.058181	1.150909
C53	C	-0.975684	0.558167	0.650893
C54	C	-0.475684	1.058167	1.150893
C55	C	-1.564664	0.230983	0.625800
C56	C	-1.064664	0.730983	1.125800
C57	C	-1.555163	0.091561	0.615112
C58	C	-1.055163	0.591561	1.115112
C59	C	-1.567835	0.583166	1.324952
C60	C	-1.067835	1.083166	1.824952
C61	C	-1.559662	0.593859	1.185517
C62	C	-1.059662	1.093859	1.685517
H63	H	-1.174051	0.427254	0.498699
H64	H	-0.674051	0.927254	0.998699
H65	H	-1.667405	0.453036	1.165986
H66	H	-1.167405	0.953036	1.665986
H67	H	-1.163069	0.618523	0.721048
H68	H	-0.663069	1.118523	1.221048
O69	O	-1.489342	0.685713	1.121346
O70	O	-0.989342	1.185713	1.621346
H71	H	-1.515413	0.782271	1.153960
H72	H	-1.015413	1.282271	1.653960
O73	O	-1.045672	0.638113	0.743869
O74	O	-0.545672	1.138113	1.243869
H75	H	-1.096442	0.706105	0.692457
H76	H	-0.596442	1.206105	1.192457
O77	O	-1.700738	1.087534	0.778628
O78	O	-1.200738	1.587534	1.278628
H79	H	-1.686815	1.054889	0.875153
H80	H	-1.186815	1.554889	1.375153
O81	O	-0.947774	0.407711	0.475932
O82	O	-0.447774	0.907711	0.975932
H83	H	-0.896989	0.339732	0.527342
H84	H	-0.396989	0.839732	1.027342
O85	O	-1.473238	1.027509	0.523121
O86	O	-0.973238	1.527509	1.023121
H87	H	-1.478287	0.924383	0.528848
H88	H	-0.978287	1.424383	1.028848
