data_functionalizedCrystal
_audit_creation_method	'MofGen! by Chris Wilmer'
_symmetry_space_group_name_H-M	'P1'
_symmetry_Int_Tables_number	1
_symmetry_cell_setting	triclinic
loop_
_symmetry_equiv_pos_as_xyz
  x,y,z
_cell_length_a	16.109295
_cell_length_b	9.798715
_cell_length_c	16.109301
_cell_angle_alpha	90.004570
_cell_angle_beta	96.539666
_cell_angle_gamma	89.999244
loop_
_atom_site_label
_atom_site_type_symbol
_atom_site_fract_x
_atom_site_fract_y
_atom_site_fract_z
O1	O	-1.103134	0.113402	0.106843
O2	O	-0.769801	0.446736	0.440176
O3	O	-0.436467	0.780069	0.773510
O4	O	-0.861071	0.113426	0.120147
O5	O	-0.527738	0.446759	0.453481
O6	O	-0.194405	0.780093	0.786814
O7	O	-0.988752	0.113400	-0.007536
O8	O	-0.655419	0.446733	0.325797
O9	O	-0.322086	0.780066	0.659131
O10	O	-0.975453	0.113429	0.234526
O11	O	-0.642120	0.446762	0.567860
O12	O	-0.308786	0.780095	0.901193
O13	O	-0.988743	-0.113582	-0.007536
O14	O	-0.655410	0.219751	0.325797
O15	O	-0.322076	0.553084	0.659130
O16	O	-0.861062	-0.113556	0.120147
O17	O	-0.527729	0.219777	0.453480
O18	O	-0.194395	0.553111	0.786814
O19	O	-1.103125	-0.113580	0.106843
O20	O	-0.769791	0.219754	0.440176
O21	O	-0.436458	0.553087	0.773509
Zn22	Zn	-0.982092	-0.149606	0.113495
Zn23	Zn	-0.648758	0.183727	0.446828
Zn24	Zn	-0.315425	0.517060	0.780162
Zn25	Zn	-0.982104	0.149453	0.113495
Zn26	Zn	-0.648771	0.482786	0.446829
Zn27	Zn	-0.315438	0.816119	0.780162
O28	O	-0.975444	-0.113553	0.234526
O29	O	-0.642110	0.219780	0.567859
O30	O	-0.308777	0.553113	0.901193
C31	C	-0.830092	-0.000062	0.119609
C32	C	-0.496758	0.333271	0.452942
C33	C	-0.163425	0.666605	0.786276
C34	C	-0.737796	-0.000054	0.117996
C35	C	-0.404463	0.333280	0.451329
C36	C	-0.071129	0.666613	0.784662
N37	N	-0.982089	-0.353706	0.113494
N38	N	-0.648756	-0.020373	0.446827
N39	N	-0.315423	0.312961	0.780161
C40	C	-0.515523	-0.000059	0.190008
C41	C	-0.182190	0.333274	0.523341
C42	C	0.151143	0.666607	0.856675
C43	C	-0.428803	-0.000068	0.188486
C44	C	-0.095469	0.333266	0.521819
C45	C	0.237864	0.666599	0.855152
C46	C	-0.448677	-0.000080	0.036996
C47	C	-0.115344	0.333253	0.370330
C48	C	0.217990	0.666586	0.703663
C49	C	-0.535396	-0.000082	0.038520
C50	C	-0.202063	0.333252	0.371853
C51	C	0.131271	0.666585	0.705186
C52	C	-0.568816	-0.000064	0.115028
C53	C	-0.235483	0.333269	0.448361
C54	C	0.097850	0.666602	0.781695
C55	C	-0.395377	-0.000071	0.111982
C56	C	-0.062044	0.333262	0.445316
C57	C	0.271290	0.666595	0.778649
C58	C	-0.301351	-0.000080	0.110331
C59	C	0.031983	0.333253	0.443665
C60	C	0.365316	0.666586	0.776998
C61	C	-0.662849	-0.000058	0.116679
C62	C	-0.329515	0.333276	0.450013
C63	C	0.003818	0.666609	0.783346
C64	C	-1.035701	-0.421494	0.059649
C65	C	-0.702368	-0.088161	0.392983
C66	C	-0.369034	0.245173	0.726316
C67	C	-1.035714	-0.578657	0.059646
C68	C	-0.702381	-0.245323	0.392980
C69	C	-0.369048	0.088010	0.726313
C70	C	-0.134104	-0.000087	0.107386
C71	C	0.199230	0.333246	0.440719
C72	C	0.532563	0.666580	0.774053
C73	C	-0.226397	-0.000082	0.109014
C74	C	0.106936	0.333251	0.442348
C75	C	0.440270	0.666585	0.775681
C76	C	-0.988209	-0.000092	-0.038511
C77	C	-0.654876	0.333241	0.294822
C78	C	-0.321542	0.666575	0.628156
C79	C	-0.986594	-0.000094	-0.130806
C80	C	-0.653260	0.333240	0.202527
C81	C	-0.319927	0.666573	0.535860
N82	N	-0.982113	0.353552	0.113489
N83	N	-0.648780	0.686886	0.446823
N84	N	-0.315447	1.020219	0.780156
C85	C	-1.058602	-0.000079	-0.353080
C86	C	-0.725268	0.333254	-0.019747
C87	C	-0.391935	0.666587	0.313587
C88	C	-1.057078	-0.000068	-0.439800
C89	C	-0.723744	0.333265	-0.106467
C90	C	-0.390411	0.666599	0.226866
C91	C	-0.905588	-0.000058	-0.419923
C92	C	-0.572255	0.333275	-0.086590
C93	C	-0.238922	0.666608	0.246744
C94	C	-0.907113	-0.000060	-0.333204
C95	C	-0.573780	0.333273	0.000129
C96	C	-0.240447	0.666607	0.333462
C97	C	-0.983622	-0.000077	-0.299785
C98	C	-0.650289	0.333256	0.033548
C99	C	-0.316956	0.666589	0.366881
C100	C	-0.980573	-0.000064	-0.473225
C101	C	-0.647240	0.333269	-0.139891
C102	C	-0.313907	0.666602	0.193442
C103	C	-0.978920	-0.000052	-0.567251
C104	C	-0.645587	0.333281	-0.233917
C105	C	-0.312254	0.666615	0.099416
C106	C	-0.985276	-0.000087	-0.205754
C107	C	-0.651943	0.333246	0.127580
C108	C	-0.318609	0.666580	0.460913
C109	C	-0.975987	-0.000059	0.265501
C110	C	-0.642654	0.333275	0.598834
C111	C	-0.309320	0.666608	0.932168
C112	C	-0.977602	-0.000048	0.357796
C113	C	-0.644269	0.333285	0.691130
C114	C	-0.310935	0.666619	1.024463
H115	H	-0.385414	-0.000067	0.249542
H116	H	-0.052081	0.333267	0.582875
H117	H	0.281253	0.666600	0.916209
H118	H	-0.936197	-0.412021	0.159588
H119	H	-0.602863	-0.078688	0.492921
H120	H	-0.269530	0.254646	0.826254
N121	N	-0.412630	-0.000106	-0.045520
N122	N	-0.079297	0.333227	0.287814
N123	N	0.254037	0.666560	0.621147
H124	H	-0.349607	-0.000104	-0.035109
H125	H	-0.016274	0.333229	0.298225
H126	H	0.317060	0.666563	0.631558
H127	H	-0.432128	0.084032	-0.078332
H128	H	-0.098795	0.417366	0.255002
H129	H	0.234539	0.750699	0.588335
H130	H	-1.120900	-0.000090	-0.325874
H131	H	-0.787567	0.333243	0.007460
H132	H	-0.454234	0.666576	0.340793
H133	H	-0.578790	-0.000090	-0.022542
H134	H	-0.245457	0.333244	0.310791
H135	H	0.087877	0.666577	0.644125
N136	N	-1.096470	-0.344265	-0.001435
N137	N	-0.763137	-0.010932	0.331898
N138	N	-0.429803	0.322401	0.665231
H139	H	-1.087838	-0.242940	0.007217
H140	H	-0.754504	0.090393	0.340550
H141	H	-0.421171	0.423726	0.673883
H142	H	-1.155514	-0.369136	0.007985
H143	H	-0.822181	-0.035803	0.341318
H144	H	-0.488848	0.297531	0.674651
N145	N	-1.096523	-0.655861	-0.001416
N146	N	-0.763189	-0.322527	0.331918
N147	N	-0.429856	0.010806	0.665251
H148	H	-1.087914	-0.757188	0.007239
H149	H	-0.754581	-0.423855	0.340572
H150	H	-0.421248	-0.090522	0.673906
H151	H	-1.086783	-0.630968	-0.060369
H152	H	-0.753449	-0.297634	0.272965
H153	H	-0.420116	0.035699	0.606298
H154	H	-1.118133	-0.000066	-0.483190
H155	H	-0.784800	0.333267	-0.149857
H156	H	-0.451467	0.666600	0.183477
H157	H	-0.542731	-0.000055	0.252306
H158	H	-0.209398	0.333278	0.585639
H159	H	0.123936	0.666611	0.918972
H160	H	-0.936215	-0.588162	0.159594
H161	H	-0.602881	-0.254828	0.492927
H162	H	-0.269548	0.078505	0.826260
H163	H	-0.843297	-0.000047	-0.447144
H164	H	-0.509964	0.333286	-0.113810
H165	H	-0.176631	0.666620	0.219523
H166	H	-0.846052	-0.000054	-0.289809
H167	H	-0.512719	0.333279	0.043524
H168	H	-0.179386	0.666612	0.376857
