data_functionalizedCrystal
_audit_creation_method	'MofGen! by Chris Wilmer'
_symmetry_space_group_name_H-M	'P1'
_symmetry_Int_Tables_number	1
_symmetry_cell_setting	triclinic
loop_
_symmetry_equiv_pos_as_xyz
  x,y,z
_cell_length_a	14.472311
_cell_length_b	14.971486
_cell_length_c	14.971486
_cell_angle_alpha	96.385871
_cell_angle_beta	89.988325
_cell_angle_gamma	89.988828
loop_
_atom_site_label
_atom_site_type_symbol
_atom_site_fract_x
_atom_site_fract_y
_atom_site_fract_z
O1	O	-0.076735	-1.186930	0.116573
O2	O	0.423265	-0.686930	0.616573
O3	O	-0.076760	-0.926530	0.130532
O4	O	0.423240	-0.426530	0.630532
O5	O	-0.076740	-1.063709	-0.006648
O6	O	0.423260	-0.563709	0.493352
O7	O	-0.076755	-1.049750	0.253753
O8	O	0.423245	-0.549750	0.753753
O9	O	0.076942	-1.063727	-0.006673
O10	O	0.576942	-0.563727	0.493327
O11	O	0.076922	-0.926548	0.130507
O12	O	0.576922	-0.426548	0.630507
O13	O	0.076947	-1.186948	0.116548
O14	O	0.576947	-0.686948	0.616548
Cu15	Cu	0.090967	-1.056749	0.123525
Cu16	Cu	0.590967	-0.556749	0.623525
Cu17	Cu	-0.090780	-1.056728	0.123555
Cu18	Cu	0.409220	-0.556728	0.623555
O19	O	0.076927	-1.049768	0.253728
O20	O	0.576927	-0.549768	0.753728
C21	C	0.000077	-0.893214	0.129895
C22	C	0.500077	-0.393214	0.629895
C23	C	0.000068	-0.793917	0.128024
C24	C	0.500068	-0.293917	0.628024
N25	N	-0.218611	-1.056713	0.123569
N26	N	0.281389	-0.556713	0.623569
C27	C	0.000100	-1.063094	-0.039985
C28	C	0.500100	-0.563094	0.460015
C29	C	0.000099	-1.061223	-0.139282
C30	C	0.500099	-0.561223	0.360718
C31	C	-0.592702	-1.056752	0.123525
C32	C	-0.092702	-0.556752	0.623525
C33	C	-0.553547	-0.983428	0.197007
C34	C	-0.053547	-0.483428	0.697007
C35	C	-0.446459	-0.983156	0.196830
C36	C	0.053541	-0.483156	0.696830
C37	C	-0.407111	-1.056733	0.123548
C38	C	0.092889	-0.556733	0.623548
C39	C	-0.445962	-1.036493	0.030122
C40	C	0.054038	-0.536493	0.530122
C41	C	-0.553083	-1.035978	0.030540
C42	C	-0.053083	-0.535978	0.530540
C43	C	-0.553208	-1.150531	0.142635
C44	C	-0.053208	-0.650531	0.642635
C45	C	-0.446080	-1.149897	0.144769
C46	C	0.053920	-0.649897	0.644769
C47	C	-0.302223	-1.056724	0.123555
C48	C	0.197777	-0.556724	0.623555
C49	C	-0.697590	-1.056759	0.123512
C50	C	-0.197590	-0.556759	0.623512
N51	N	0.218798	-1.056771	0.123504
N52	N	0.718798	-0.556771	0.623504
C53	C	0.000107	-1.220263	0.117185
C54	C	0.500107	-0.720263	0.617185
C55	C	0.000110	-1.319561	0.119056
C56	C	0.500110	-0.819561	0.619056
C57	C	0.000065	-0.736692	0.208614
C58	C	0.500065	-0.236692	0.708614
C59	C	0.000079	-0.643392	0.206850
C60	C	0.500079	-0.143392	0.706850
C61	C	0.000089	-0.607320	0.124497
C62	C	0.500089	-0.107320	0.624497
C63	C	0.000095	-0.664552	0.043902
C64	C	0.500095	-0.164552	0.543902
C65	C	0.000088	-0.757850	0.045666
C66	C	0.500088	-0.257850	0.545666
C67	C	0.000108	-0.470090	0.040231
C68	C	0.500108	0.029910	0.540231
C69	C	0.000114	-0.376786	0.038466
C70	C	0.500114	0.123214	0.538466
C71	C	0.000099	-0.355632	0.201415
C72	C	0.500099	0.144368	0.701415
C73	C	0.000092	-0.448930	0.203179
C74	C	0.500092	0.051070	0.703179
C75	C	0.000096	-0.506156	0.122584
C76	C	0.500096	-0.006156	0.622584
C77	C	0.000108	-1.141812	-0.196507
C78	C	0.500108	-0.641812	0.303493
C79	C	0.000098	-1.140049	-0.289807
C80	C	0.500098	-0.640049	0.210193
C81	C	0.000087	-1.057696	-0.325879
C82	C	0.500087	-0.557696	0.174121
C83	C	0.000076	-0.977101	-0.268646
C84	C	0.500076	-0.477101	0.231354
C85	C	0.000078	-0.978865	-0.175349
C86	C	0.500078	-0.478865	0.324651
C87	C	0.000072	-0.973430	-0.463109
C88	C	0.500072	-0.473430	0.036891
C89	C	0.000071	-0.971665	-0.556413
C90	C	0.500071	-0.471665	-0.056413
C91	C	0.000092	-1.134614	-0.577567
C92	C	0.500092	-0.634614	-0.077567
C93	C	0.000094	-1.136378	-0.484269
C94	C	0.500094	-0.636378	0.015731
C95	C	0.000085	-1.055782	-0.427043
C96	C	0.500085	-0.555782	0.072957
C97	C	0.000084	-1.050384	0.287065
C98	C	0.500084	-0.550384	0.787065
C99	C	0.000079	-1.052254	0.386362
C100	C	0.500079	-0.552254	0.886362
H101	H	-0.420194	-0.995190	0.266266
H102	H	0.079806	-0.495190	0.766266
H103	H	0.000100	-0.309033	0.267039
H104	H	0.500100	0.190967	0.767039
H105	H	0.000076	-0.904606	-0.585780
H106	H	0.500076	-0.404606	-0.085780
H107	H	0.000123	-1.208874	-0.167145
H108	H	0.500123	-0.708874	0.332855
N109	N	0.000125	-0.528534	-0.042103
N110	N	0.500125	-0.028534	0.457897
N111	N	0.000135	-0.496318	-0.115628
N112	N	0.500135	0.003682	0.384372
H113	H	0.000145	-0.537593	-0.173776
H114	H	0.500145	-0.037593	0.326224
N115	N	-0.585892	-0.998288	0.284394
N116	N	-0.085892	-0.498288	0.784394
N117	N	-0.638183	-1.063087	0.293540
N118	N	-0.138183	-0.563087	0.793540
H119	H	-0.661033	-1.073583	0.355260
H120	H	-0.161033	-0.573583	0.855260
H121	H	0.000062	-0.907800	-0.416517
H122	H	0.500062	-0.407800	0.083483
H123	H	0.000075	-0.596802	0.272474
H124	H	0.500075	-0.096802	0.772474
H125	H	0.000061	-0.910047	-0.298024
H126	H	0.500061	-0.410047	0.201976
H127	H	0.000071	-0.913240	-0.128756
H128	H	0.500071	-0.413240	0.371244
N129	N	0.000125	-0.627708	-0.040221
N130	N	0.500125	-0.127708	0.459779
N131	N	0.064913	-0.578026	-0.059393
N132	N	0.564913	-0.078026	0.440607
H133	H	0.064933	-0.552006	-0.118807
H134	H	0.564933	-0.052006	0.381193
H135	H	0.000110	-1.203437	-0.454903
H136	H	0.500110	-0.703437	0.045097
N137	N	0.000105	-1.216953	-0.636001
N138	N	0.500105	-0.716953	-0.136001
N139	N	0.064896	-1.271704	-0.632676
N140	N	0.564896	-0.771704	-0.132676
H141	H	0.064910	-1.329855	-0.673946
H142	H	0.564910	-0.829855	-0.173946
N143	N	0.000046	-0.773549	0.292729
N144	N	0.500046	-0.273549	0.792729
N145	N	-0.064740	-0.823232	0.311904
N146	N	0.435260	-0.323232	0.811904
H147	H	-0.064751	-0.849262	0.371312
H148	H	0.435249	-0.349262	0.871312
H149	H	-0.420471	-1.088481	-0.025882
H150	H	0.079529	-0.588481	0.474118
N151	N	0.000126	-0.339952	-0.045662
N152	N	0.500126	0.160048	0.454338
N153	N	0.000139	-0.391053	-0.117614
N154	N	0.500139	0.108947	0.382386
H155	H	0.000150	-0.365040	-0.177032
H156	H	0.500150	0.134960	0.322968
H157	H	-0.420842	-0.913558	0.184591
H158	H	0.079158	-0.413558	0.684591
N159	N	-0.587336	-0.896618	0.181862
N160	N	-0.087336	-0.396618	0.681862
N161	N	-0.640128	-0.888517	0.117185
N162	N	-0.140128	-0.388517	0.617185
H163	H	-0.663994	-0.827208	0.106486
H164	H	-0.163994	-0.327208	0.606486
N165	N	-0.584429	-0.950177	0.009495
N166	N	-0.084429	-0.450177	0.509495
N167	N	-0.527192	-0.891093	-0.005397
N168	N	-0.027192	-0.391093	0.494603
H169	H	-0.549325	-0.830491	-0.020252
H170	H	-0.049325	-0.330491	0.479748
H171	H	-0.578982	-1.087359	-0.025799
H172	H	-0.078982	-0.587359	0.474201
N173	N	0.000101	-0.816295	-0.036663
N174	N	0.500101	-0.316295	0.463337
N175	N	0.000115	-0.784079	-0.110187
N176	N	0.500115	-0.284079	0.389813
H177	H	0.000130	-0.825354	-0.168335
H178	H	0.500130	-0.325354	0.331665
H179	H	0.000107	-1.205673	-0.336396
H180	H	0.500107	-0.705673	0.163604
H181	H	-0.419134	-0.968887	0.012933
H182	H	0.080866	-0.468887	0.512933
H183	H	-0.580242	-1.170017	0.209317
H184	H	-0.080242	-0.670017	0.709317
N185	N	0.000067	-0.485764	0.287307
N186	N	0.500067	0.014236	0.787307
N187	N	0.000061	-0.434662	0.359260
N188	N	0.500061	0.065338	0.859260
H189	H	0.000044	-0.460675	0.418678
H190	H	0.500044	0.039325	0.918678
H191	H	-0.419293	-1.207004	0.094750
H192	H	0.080707	-0.707004	0.594750
N193	N	-0.414246	-1.169149	0.230999
N194	N	0.085754	-0.669149	0.730999
N195	N	-0.363045	-1.114507	0.276702
N196	N	0.136955	-0.614507	0.776702
H197	H	-0.340564	-1.128097	0.337608
H198	H	0.159436	-0.628097	0.837608
H199	H	-0.578531	-1.205095	0.089055
H200	H	-0.078531	-0.705095	0.589055
