data_functionalizedCrystal
_audit_creation_method	'MofGen! by Chris Wilmer'
_symmetry_space_group_name_H-M	'P1'
_symmetry_Int_Tables_number	1
_symmetry_cell_setting	triclinic
loop_
_symmetry_equiv_pos_as_xyz
  x,y,z
_cell_length_a	15.944551
_cell_length_b	19.288864
_cell_length_c	14.421503
_cell_angle_alpha	89.979999
_cell_angle_beta	90.010110
_cell_angle_gamma	96.682508
loop_
_atom_site_label
_atom_site_type_symbol
_atom_site_fract_x
_atom_site_fract_y
_atom_site_fract_z
O1	O	0.104788	-0.921625	0.077411
O2	O	0.118923	-0.719402	0.077348
O3	O	-0.010441	-0.826036	0.077373
O4	O	0.234151	-0.814991	0.077386
O5	O	-0.010455	-0.826024	-0.076851
O6	O	0.118908	-0.719390	-0.076876
O7	O	0.104773	-0.921614	-0.076812
Cu8	Cu	0.111839	-0.820501	-0.090926
Cu9	Cu	0.111856	-0.820515	0.091461
O10	O	0.234137	-0.814980	-0.076837
C11	C	0.118461	-0.693519	0.000228
C12	C	0.117095	-0.616411	0.000204
C13	C	-0.041740	-0.825572	0.000261
C14	C	-0.134981	-0.824197	0.000260
C15	C	0.105235	-0.947497	0.000310
C16	C	0.106600	-1.024604	0.000340
C17	C	-0.349571	-0.754815	0.000251
C18	C	-0.410719	-0.787028	-0.075780
C19	C	-0.305697	-0.821710	0.000266
C20	C	-0.410688	-0.787055	0.076272
C21	C	-0.470601	-0.819303	0.000276
C22	C	-0.365618	-0.853942	-0.075828
C23	C	-0.365581	-0.853960	0.076293
C24	C	-0.426712	-0.886222	0.000243
C25	C	-0.210700	-0.823095	0.000260
C26	C	-0.565597	-0.817924	0.000276
C27	C	0.265436	-0.815444	0.000277
C28	C	0.358677	-0.816819	0.000284
N29	N	0.111827	-0.820497	-0.219207
C30	C	0.193000	-0.571915	0.000222
C31	C	0.191717	-0.499465	0.000233
C32	C	0.114526	-0.471514	0.000243
C33	C	0.038611	-0.516020	0.000219
C34	C	0.039896	-0.588469	0.000199
C35	C	0.053849	-0.363096	0.054302
C36	C	0.052568	-0.290648	0.054327
C37	C	0.110560	-0.248058	0.000299
C38	C	0.169847	-0.277923	-0.053743
C39	C	0.171132	-0.350371	-0.053763
C40	C	0.113124	-0.392956	0.000263
C41	C	0.185079	-0.125002	0.000327
C42	C	0.183793	-0.052550	0.000331
C43	C	0.030684	-0.069107	0.000327
C44	C	0.031972	-0.141557	0.000313
C45	C	0.109172	-0.169500	0.000318
N46	N	0.111862	-0.820525	0.219743
C47	C	0.052128	-0.869931	0.469377
C48	C	0.128029	-0.883255	0.531224
C49	C	0.111852	-0.820515	0.408904
C50	C	0.035940	-0.807215	0.531151
C51	C	0.111836	-0.820508	0.591625
C52	C	0.187792	-0.833871	0.469390
C53	C	0.095653	-0.757804	0.469311
C54	C	0.171610	-0.771101	0.531131
C55	C	0.111860	-0.820522	0.303643
C56	C	0.111836	-0.820502	0.696884
H57	H	-0.316049	-0.699288	0.000158
H58	H	-0.021917	-0.624699	0.000185
H59	H	-0.024239	-0.493258	0.000240
H60	H	-0.028250	-0.795968	0.558281
N61	N	-0.437219	-0.749539	-0.160942
H62	H	-0.500526	-0.749285	-0.160618
H63	H	-0.419963	-0.774326	-0.218321
H64	H	0.001685	-0.911750	0.442263
N65	N	0.272843	-0.848847	0.433616
H66	H	0.272317	-0.848777	0.363585
H67	H	0.285162	-0.896042	0.456752
H68	H	0.219404	-0.374684	-0.097768
H69	H	0.081929	-0.704789	0.442097
H70	H	0.141730	-0.936285	0.558419
N71	N	-0.011377	-0.258444	0.112612
H72	H	-0.047983	-0.232266	0.071227
H73	H	0.018998	-0.225104	0.158826
N74	N	0.232397	-0.232003	-0.112036
H75	H	0.291723	-0.238226	-0.091867
H76	H	0.222516	-0.181595	-0.103814
N77	N	-0.470932	-0.959831	0.000207
H78	H	-0.507054	-0.967544	0.057643
H79	H	-0.427499	-0.993990	-0.000389
H80	H	0.222165	-0.729306	0.558074
H81	H	-0.345742	-0.882207	-0.140177
H82	H	0.247939	-0.147754	0.000317
H83	H	0.255862	-0.594661	0.000228
H84	H	0.253530	-0.463229	0.000245
H85	H	-0.345553	-0.882234	0.140592
H86	H	-0.430650	-0.758757	0.140555
H87	H	0.245606	-0.016321	0.000341
N88	N	-0.052575	-0.038971	0.000327
H89	H	-0.041872	0.013677	0.000339
H90	H	-0.085776	-0.055271	0.057494
H91	H	-0.029838	-0.177787	0.000303
N92	N	-0.008705	-0.409030	0.112576
H93	H	-0.046452	-0.379119	0.146819
H94	H	0.022743	-0.435766	0.158719
