data_functionalizedCrystal
_audit_creation_method	'MofGen! by Chris Wilmer'
_symmetry_space_group_name_H-M	'P1'
_symmetry_Int_Tables_number	1
_symmetry_cell_setting	triclinic
loop_
_symmetry_equiv_pos_as_xyz
  x,y,z
_cell_length_a	19.288840
_cell_length_b	12.811415
_cell_length_c	18.366186
_cell_angle_alpha	84.562925
_cell_angle_beta	89.983729
_cell_angle_gamma	83.586086
loop_
_atom_site_label
_atom_site_type_symbol
_atom_site_fract_x
_atom_site_fract_y
_atom_site_fract_z
O1	O	0.922014	0.130809	-0.069307
O2	O	0.719838	0.148499	-0.070450
O3	O	0.826011	-0.013164	-0.059786
O4	O	0.815841	0.292471	-0.079972
O5	O	0.825993	-0.013172	0.061314
O6	O	0.719820	0.148491	0.050650
O7	O	0.921996	0.130801	0.051793
Zn8	Zn	0.820905	0.139645	0.070448
Zn9	Zn	0.820929	0.139655	-0.089106
O10	O	0.815823	0.292463	0.041128
C11	C	0.693950	0.147930	-0.009860
C12	C	0.616837	0.146234	-0.009738
C13	C	0.580639	0.145424	-0.075697
C14	C	0.508184	0.143819	-0.075600
C15	C	0.471932	0.143004	-0.009539
C16	C	0.508138	0.143820	0.056429
C17	C	0.580590	0.145435	0.056330
C18	C	0.362278	0.078964	0.045252
C19	C	0.289828	0.077342	0.045350
C20	C	0.248463	0.138026	-0.009229
C21	C	0.279560	0.200319	-0.063916
C22	C	0.352012	0.201934	-0.064016
C23	C	0.393369	0.141253	-0.009423
C24	C	0.133702	0.135477	-0.075088
C25	C	0.061245	0.133879	-0.074988
C26	C	0.061200	0.133869	0.057044
C27	C	0.133655	0.135478	0.056942
C28	C	0.169902	0.136277	-0.009126
C29	C	0.825432	-0.052269	0.003346
C30	C	0.823724	-0.168780	0.011037
C31	C	0.820522	-0.387694	-0.106549
C32	C	0.818917	-0.497166	-0.099326
C33	C	0.818905	-0.497196	0.032706
C34	C	0.820510	-0.387724	0.025482
C35	C	0.821319	-0.332977	-0.044147
C36	C	0.822929	-0.223505	-0.051369
C37	C	0.822911	-0.223535	0.080661
C38	C	0.821307	-0.333007	0.087884
C39	C	0.947884	0.131369	-0.008800
C40	C	1.024997	0.133065	-0.008926
C41	C	0.816402	0.331569	-0.022005
C42	C	0.818110	0.448079	-0.029701
N43	N	0.820894	0.139637	0.179340
N44	N	0.820946	0.139654	-0.197997
C45	C	0.867923	0.068088	0.222160
C46	C	0.867927	0.068083	0.298389
C47	C	0.820909	0.139645	0.331792
C48	C	0.773871	0.211200	0.288962
C49	C	0.773864	0.211196	0.212736
C50	C	0.812086	0.235280	0.446237
C51	C	0.812099	0.235286	0.522461
C52	C	0.820929	0.139659	0.566899
C53	C	0.829762	0.044021	0.535103
C54	C	0.829754	0.044017	0.458877
C55	C	0.820912	0.139658	0.414446
C56	C	0.867965	0.068098	0.692375
C57	C	0.867965	0.068092	0.768605
C58	C	0.773912	0.211219	0.759176
C59	C	0.773910	0.211216	0.682949
C60	C	0.820940	0.139657	0.649553
H61	H	0.245882	0.249738	-0.108357
H62	H	0.264515	0.026614	0.089876
H63	H	0.377328	0.252657	-0.108542
C64	C	0.620413	0.146320	0.128887
H65	H	0.668754	0.147403	0.119365
H66	H	0.613655	0.084863	0.160071
H67	H	0.603404	0.207258	0.151983
H68	H	0.610147	0.146075	-0.129495
H69	H	0.820645	-0.377596	0.144574
C70	C	0.818005	-0.557422	0.109291
H71	H	0.818704	-0.509157	0.145424
H72	H	0.857830	-0.608337	0.115390
H73	H	0.776914	-0.591915	0.114310
H74	H	0.804883	0.313157	0.410061
H75	H	0.804911	0.313159	0.548344
H76	H	0.163128	0.136131	0.110654
C77	C	0.722138	0.289912	0.165628
H78	H	0.728868	0.279659	0.115447
H79	H	0.729884	0.359931	0.173491
H80	H	0.675749	0.278695	0.178876
C81	C	0.407775	0.012210	0.105291
H82	H	0.455378	0.022100	0.097405
H83	H	0.401949	-0.060196	0.103707
H84	H	0.394073	0.033563	0.151805
C85	C	0.468358	0.142938	-0.148159
H86	H	0.500322	0.143644	-0.187520
H87	H	0.434969	0.203503	-0.154903
H88	H	0.445221	0.081108	-0.146822
C89	C	0.821419	-0.327467	-0.183133
H90	H	0.822494	-0.254434	-0.178497
H91	H	0.780706	-0.337199	-0.209614
H92	H	0.861622	-0.353603	-0.208534
H93	H	0.836944	-0.033854	0.432991
C94	C	0.919646	-0.010635	0.185429
H95	H	0.947651	-0.053255	0.221854
H96	H	0.948663	0.027000	0.153189
H97	H	0.894528	-0.054235	0.158591
H98	H	0.735617	0.269482	0.648082
H99	H	0.735588	0.269466	0.316164
H100	H	0.163214	0.136139	-0.128885
H101	H	0.836952	-0.033848	0.571283
C102	C	0.919662	-0.010618	0.345503
H103	H	0.912927	-0.000368	0.395684
H104	H	0.966046	0.000602	0.332250
H105	H	0.911919	-0.080647	0.337648
C106	C	0.021428	0.132982	-0.147547
H107	H	0.053395	0.133678	-0.186905
H108	H	-0.011962	0.193545	-0.154302
H109	H	-0.001706	0.071150	-0.146203
H110	H	0.031684	0.133211	0.110832
H111	H	0.906259	0.009823	0.803470
H112	H	0.906258	0.009827	0.665183
C113	C	0.468256	0.143002	0.129090
H114	H	0.419920	0.141938	0.119702
H115	H	0.475009	0.204484	0.152119
H116	H	0.485228	0.082089	0.160273
H117	H	0.823563	-0.178974	0.131473
C118	C	0.823820	-0.163280	-0.127956
H119	H	0.824896	-0.090246	-0.123322
H120	H	0.783103	-0.173013	-0.154430
H121	H	0.864020	-0.189418	-0.153360
C122	C	0.818053	-0.557354	-0.167967
H123	H	0.818773	-0.509068	-0.210467
H124	H	0.776976	-0.591867	-0.168435
H125	H	0.857892	-0.608252	-0.167353
H126	H	0.735627	0.269482	0.786373
