data_functionalizedCrystal
_audit_creation_method	'MofGen! by Chris Wilmer'
_symmetry_space_group_name_H-M	'P1'
_symmetry_Int_Tables_number	1
_symmetry_cell_setting	triclinic
loop_
_symmetry_equiv_pos_as_xyz
  x,y,z
_cell_length_a	12.827893
_cell_length_b	15.298852
_cell_length_c	12.827885
_cell_angle_alpha	99.703852
_cell_angle_beta	90.019272
_cell_angle_gamma	80.333173
loop_
_atom_site_label
_atom_site_type_symbol
_atom_site_fract_x
_atom_site_fract_y
_atom_site_fract_z
Zn1	Zn	1.669673	-0.359105	0.518901
Zn2	Zn	2.169673	0.140895	1.018901
Zn3	Zn	1.699819	-0.509985	0.313931
Zn4	Zn	2.199819	-0.009985	0.813931
Zn5	Zn	1.494923	-0.359149	0.344165
Zn6	Zn	1.994923	0.140851	0.844165
Zn7	Zn	1.525138	-0.509918	0.488645
Zn8	Zn	2.025138	-0.009918	0.988645
O9	O	1.597388	-0.434539	0.416411
O10	O	2.097388	0.065461	0.916411
O11	O	1.819910	-0.379129	0.491720
O12	O	2.319910	0.120871	0.991720
O13	O	1.672610	-0.490023	0.171697
O14	O	2.172610	0.009977	0.671697
O15	O	1.492842	-0.232902	0.392659
O16	O	1.992842	0.267098	0.892659
O17	O	1.842058	-0.489980	0.341130
O18	O	2.342058	0.010020	0.841130
O19	O	1.621230	-0.232870	0.521037
O20	O	2.121230	0.267130	1.021037
O21	O	1.522074	-0.379204	0.193909
O22	O	2.022074	0.120796	0.693909
O23	O	1.352693	-0.379139	0.363322
O24	O	1.852693	0.120861	0.863322
O25	O	1.544340	-0.489866	0.638904
O26	O	2.044340	0.010134	1.138904
O27	O	1.374892	-0.489908	0.469470
O28	O	1.874892	0.010092	0.969470
O29	O	1.650529	-0.379064	0.661132
O30	O	2.150529	0.120936	1.161132
O31	O	1.701909	-0.636217	0.311792
O32	O	2.201909	-0.136217	0.811792
O33	O	1.573572	-0.636168	0.440154
O34	O	2.073572	-0.136168	0.940154
C35	C	1.325875	-0.434522	0.416394
C36	C	1.825875	0.065478	0.916394
C37	C	1.209725	-0.434536	0.416408
C38	C	1.709725	0.065464	0.916408
C39	C	1.644319	-0.668925	0.369432
C40	C	2.144319	-0.168925	0.869432
C41	C	1.664492	-0.769196	0.349369
C42	C	2.164492	-0.269196	0.849369
C43	C	1.168970	-0.489434	0.468818
C44	C	1.668970	0.010566	0.968818
C45	C	1.048922	-0.489450	0.468833
C46	C	1.548922	0.010550	0.968833
C47	C	1.453894	-1.051868	0.559902
C48	C	1.953894	-0.551868	1.059902
C49	C	1.434944	-0.957658	0.578759
C50	C	1.934944	-0.457658	1.078759
C51	C	1.492329	-0.910538	0.521413
C52	C	1.992329	-0.410538	1.021413
C53	C	1.568668	-0.957637	0.445207
C54	C	2.068668	-0.457637	0.945207
C55	C	1.587627	-1.051856	0.426354
C56	C	2.087627	-0.551856	0.926354
C57	C	1.626061	-0.910526	0.387865
C58	C	2.126061	-0.410526	0.887865
C59	C	1.702401	-0.957625	0.311659
C60	C	2.202401	-0.457625	0.811659
C61	C	1.721355	-1.051835	0.292808
C62	C	2.221355	-0.551835	0.792808
C63	C	1.663970	-1.098955	0.350154
C64	C	2.163970	-0.598955	0.850154
C65	C	1.607103	-0.816307	0.406718
C66	C	2.107103	-0.316307	0.906718
C67	C	1.740835	-0.816296	0.273170
C68	C	2.240835	-0.316296	0.773170
C69	C	1.759786	-0.910505	0.254313
C70	C	2.259786	-0.410505	0.754313
C71	C	1.869962	-0.434557	0.416428
C72	C	2.369962	0.065443	0.916428
C73	C	1.986117	-0.434565	0.416435
C74	C	2.486117	0.065435	0.916435
C75	C	1.597442	-0.434453	0.688998
C76	C	2.097442	0.065547	1.188998
C77	C	1.597465	-0.434416	0.805159
C78	C	2.097465	0.065584	1.305159
C79	C	1.550303	-0.199238	0.463595
C80	C	2.050303	0.300762	0.963595
C81	C	1.530238	-0.098967	0.483703
C82	C	2.030238	0.401033	0.983703
C83	C	1.597382	-0.434560	0.144896
C84	C	2.097382	0.065440	0.644896
C85	C	1.597510	-0.434343	0.028787
C86	C	2.097510	0.065657	0.528787
C87	C	1.650015	-0.379577	0.867945
C88	C	2.150015	0.120423	1.367945
C89	C	1.650040	-0.379538	0.988004
C90	C	2.150040	0.120462	1.488004
H91	H	1.222951	-0.536419	0.513682
H92	H	1.722951	-0.036419	1.013682
H93	H	1.821943	-0.948867	0.192265
H94	H	2.321943	-0.448867	0.692265
H95	H	1.679390	-1.175669	0.334799
H96	H	2.179390	-0.675669	0.834799
H97	H	1.787565	-0.777931	0.226476
H98	H	2.287565	-0.277931	0.726476
C99	C	1.001520	-0.552947	0.529454
C100	C	1.501520	-0.052947	1.029454
N101	N	0.965814	-0.600775	0.575116
N102	N	1.465814	-0.100775	1.075116
C103	C	1.536703	-0.497802	0.852612
C104	C	2.036703	0.002198	1.352612
N105	N	1.490935	-0.545547	0.888351
N106	N	1.990935	-0.045547	1.388351
C107	C	1.710769	-0.316185	0.820494
C108	C	2.210769	0.183815	1.320494
N109	N	1.756531	-0.268436	0.784755
N110	N	2.256531	0.231564	1.284755
C111	C	1.033511	-0.371063	0.355815
C112	C	1.533511	0.128937	0.855815
N113	N	1.069216	-0.323230	0.310160
N114	N	1.569216	0.176770	0.810160
H115	H	1.155742	-0.387544	0.371553
H116	H	1.655742	0.112456	0.871553
H117	H	1.695034	-0.332591	1.041955
H118	H	2.195034	0.167409	1.541955
C119	C	1.523135	-0.764509	0.490548
C120	C	2.023135	-0.264509	0.990548
N121	N	1.459886	-0.725495	0.553695
N122	N	1.959886	-0.225495	1.053695
H123	H	1.476894	-0.833828	0.536771
H124	H	1.976894	-0.333828	1.036771
H125	H	1.372790	-0.919313	0.640807
H126	H	1.872790	-0.419313	1.140807
H127	H	1.552522	-0.481299	0.974840
H128	H	2.052522	0.018701	1.474840
H129	H	1.407185	-1.090241	0.606591
H130	H	1.907185	-0.590241	1.106591
C131	C	1.805335	-1.103642	0.208983
C132	C	2.305335	-0.603642	0.708983
N133	N	1.868588	-1.142661	0.145844
N134	N	2.368588	-0.642661	0.645844
