data_functionalizedCrystal
_audit_creation_method	'MofGen! by Chris Wilmer'
_symmetry_space_group_name_H-M	'P1'
_symmetry_Int_Tables_number	1
_symmetry_cell_setting	triclinic
loop_
_symmetry_equiv_pos_as_xyz
  x,y,z
_cell_length_a	8.559649
_cell_length_b	26.809956
_cell_length_c	8.559649
_cell_angle_alpha	89.994698
_cell_angle_beta	69.778664
_cell_angle_gamma	90.007415
loop_
_atom_site_label
_atom_site_type_symbol
_atom_site_fract_x
_atom_site_fract_y
_atom_site_fract_z
O1	O	2.126897	0.041472	-0.055059
O2	O	1.651412	0.041474	0.028722
O3	O	1.931045	0.041472	-0.250911
O4	O	1.847264	0.041473	0.224574
O5	O	1.930993	-0.041487	-0.250868
O6	O	1.651360	-0.041486	0.028765
O7	O	2.126845	-0.041487	-0.055016
Zn8	Zn	1.889095	-0.054658	-0.013118
Zn9	Zn	1.889163	0.054644	-0.013176
O10	O	1.847212	-0.041486	0.224617
C11	C	1.591077	-0.000006	0.035093
C12	C	1.411378	-0.000005	0.053992
N13	N	1.889060	-0.129254	-0.013081
C14	C	2.012967	-0.473881	-0.136968
C15	C	2.013008	-0.682759	-0.136998
O16	O	2.118291	-0.709763	-0.242313
N17	N	1.889176	-0.708881	-0.013213
C18	C	1.765318	-0.682781	0.110582
O19	O	1.659982	-0.709793	0.215859
C20	C	1.765271	-0.473904	0.110604
C21	C	1.889122	-0.447784	-0.013180
C22	C	2.136806	-0.447761	-0.260743
C23	C	2.136799	-0.395545	-0.260729
C24	C	2.012954	-0.369448	-0.136941
C25	C	1.889115	-0.395568	-0.013166
C26	C	1.641408	-0.447805	0.234390
C27	C	1.641405	-0.395583	0.234382
C28	C	1.765255	-0.369463	0.110599
C29	C	1.765263	-0.317256	0.110636
N30	N	1.889096	-0.291133	-0.013149
C31	C	2.012941	-0.317229	-0.136938
C32	C	1.765353	-0.792444	0.110564
C33	C	1.765366	-0.844663	0.110561
C34	C	2.013055	-0.844637	-0.137021
C35	C	2.013048	-0.792417	-0.137010
C36	C	1.889186	-0.766322	-0.013221
C37	C	2.012919	-0.207571	-0.136898
C38	C	2.012906	-0.155350	-0.136870
C39	C	1.765213	-0.155381	0.110707
C40	C	1.765230	-0.207598	0.110684
C41	C	1.889091	-0.233691	-0.013133
O42	O	1.660025	-0.290219	0.215885
O43	O	2.118240	-0.290209	-0.242219
C44	C	2.012973	-0.526097	-0.136982
C45	C	1.889134	-0.552217	-0.013208
C46	C	1.765289	-0.526121	0.110581
C47	C	1.889147	-0.604436	-0.013211
C48	C	2.012993	-0.630532	-0.136999
C49	C	2.136825	-0.604410	-0.260784
C50	C	2.136819	-0.552193	-0.260770
C51	C	1.641457	-0.552243	0.234366
C52	C	1.641474	-0.604460	0.234343
C53	C	1.765320	-0.630556	0.110555
C54	C	2.187180	-0.000007	-0.061387
C55	C	2.366879	-0.000005	-0.080286
C56	C	1.937369	-0.000007	-0.311198
C57	C	1.956268	-0.000004	-0.490898
N58	N	1.889212	0.129240	-0.013227
C59	C	1.840889	-0.000006	0.284904
C60	C	1.821990	-0.000005	0.464604
H61	H	1.466258	-0.000002	-0.209705
H62	H	2.085696	-0.000008	-0.590286
N63	N	1.279769	-0.000006	0.225455
H64	H	1.208072	0.030746	0.239436
H65	H	1.208159	-0.030780	0.239345
N66	N	2.146495	-0.127178	-0.270380
H67	H	2.224945	-0.151637	-0.348800
H68	H	2.093203	-0.105511	-0.334514
H69	H	1.664383	-0.134125	0.211498
H70	H	2.113776	-0.228811	-0.237723
H71	H	2.237644	-0.374281	-0.361528
H72	H	1.692570	-0.000007	-0.436018
H73	H	2.237656	-0.469004	-0.361554
H74	H	1.540537	-0.374338	0.335185
H75	H	2.113897	-0.865894	-0.237813
N76	N	2.146626	-0.764247	-0.270517
H77	H	2.225079	-0.788707	-0.348927
H78	H	2.093334	-0.742584	-0.334662
H79	H	1.540558	-0.469065	0.335185
H80	H	1.664487	-0.771201	0.211373
N81	N	1.631792	-0.872834	0.244073
H82	H	1.636324	-0.863748	0.356937
H83	H	1.519040	-0.863737	0.239284
N84	N	1.631678	-0.235774	0.244212
H85	H	1.553229	-0.211316	0.322639
H86	H	1.567585	-0.257439	0.190864
N87	N	2.270400	-0.524025	-0.394280
H88	H	2.348845	-0.548487	-0.472691
H89	H	2.217112	-0.502360	-0.458423
H90	H	2.237670	-0.625666	-0.361573
H91	H	1.540622	-0.625723	0.335156
H92	H	1.540605	-0.531000	0.335168
