data_functionalizedCrystal
_audit_creation_method	'MofGen! by Chris Wilmer'
_symmetry_space_group_name_H-M	'P1'
_symmetry_Int_Tables_number	1
_symmetry_cell_setting	triclinic
loop_
_symmetry_equiv_pos_as_xyz
  x,y,z
_cell_length_a	25.639242
_cell_length_b	25.639240
_cell_length_c	19.805399
_cell_angle_alpha	90.035908
_cell_angle_beta	90.027395
_cell_angle_gamma	90.028283
loop_
_atom_site_label
_atom_site_type_symbol
_atom_site_fract_x
_atom_site_fract_y
_atom_site_fract_z
Zn1	Zn	0.799274	-0.208225	0.382822
Zn2	Zn	1.132607	0.125108	0.716155
Zn3	Zn	1.465940	0.458441	1.049488
Zn4	Zn	0.799198	-0.295659	0.269617
Zn5	Zn	1.132531	0.037674	0.602950
Zn6	Zn	1.465865	0.371007	0.936284
Zn7	Zn	0.711842	-0.208233	0.269631
Zn8	Zn	1.045175	0.125100	0.602964
Zn9	Zn	1.378509	0.458434	0.936297
Zn10	Zn	0.711804	-0.295625	0.382748
Zn11	Zn	1.045137	0.037709	0.716082
Zn12	Zn	1.378471	0.371042	1.049415
O13	O	0.755529	-0.251936	0.326204
O14	O	1.088863	0.081398	0.659538
O15	O	1.422196	0.414731	0.992871
O16	O	0.872429	-0.219835	0.367830
O17	O	1.205762	0.113498	0.701163
O18	O	1.539095	0.446832	1.034496
O19	O	0.787594	-0.284080	0.174902
O20	O	1.120928	0.049254	0.508236
O21	O	1.454261	0.382587	0.841569
O22	O	0.723487	-0.135067	0.284682
O23	O	1.056821	0.198267	0.618016
O24	O	1.390154	0.531600	0.951349
O25	O	0.872373	-0.284072	0.284659
O26	O	1.205707	0.049261	0.617992
O27	O	1.539040	0.382594	0.951325
O28	O	0.787723	-0.135061	0.367843
O29	O	1.121056	0.198272	0.701177
O30	O	1.454390	0.531606	1.034510
O31	O	0.723414	-0.219848	0.174912
O32	O	1.056748	0.113486	0.508246
O33	O	1.390081	0.446819	0.841579
O34	O	0.638672	-0.219814	0.284611
O35	O	0.972005	0.113519	0.617945
O36	O	1.305338	0.446852	0.951278
O37	O	0.723423	-0.284013	0.477475
O38	O	1.056756	0.049320	0.810808
O39	O	1.390089	0.382653	1.144141
O40	O	0.638644	-0.284021	0.367718
O41	O	0.971977	0.049313	0.701051
O42	O	1.305311	0.382646	1.034385
O43	O	0.787686	-0.219801	0.477529
O44	O	1.121020	0.113532	0.810862
O45	O	1.454353	0.446865	1.144195
O46	O	0.787558	-0.368820	0.284588
O47	O	1.120891	-0.035487	0.617921
O48	O	1.454224	0.297847	0.951254
O49	O	0.723350	-0.368794	0.367705
O50	O	1.056683	-0.035461	0.701038
O51	O	1.390016	0.297872	1.034371
C52	C	0.619687	-0.251915	0.326159
C53	C	0.953020	0.081418	0.659492
C54	C	1.286354	0.414752	0.992825
C55	C	0.561573	-0.251919	0.326155
C56	C	0.894906	0.081415	0.659488
C57	C	1.228240	0.414748	0.992822
C58	C	0.201204	-0.285424	0.369437
C59	C	0.534538	0.047910	0.702770
C60	C	0.867871	0.381243	1.036104
C61	C	0.146600	-0.285427	0.369448
C62	C	0.479933	0.047906	0.702781
C63	C	0.813267	0.381240	1.036114
O64	O	0.118358	-0.313888	0.406209
O65	O	0.451692	0.019445	0.739542
O66	O	0.785025	0.352778	1.072876
N67	N	0.119290	-0.251950	0.326249
N68	N	0.452624	0.081383	0.659582
N69	N	0.785957	0.414717	0.992915
C70	C	0.146588	-0.218464	0.283041
C71	C	0.479921	0.114870	0.616374
C72	C	0.813255	0.448203	0.949707
O73	O	0.118345	-0.189989	0.246298
O74	O	0.451679	0.143344	0.579631
O75	O	0.785012	0.476678	0.912964
C76	C	0.201191	-0.218458	0.283034
C77	C	0.534525	0.114875	0.616367
C78	C	0.867858	0.448208	0.949701
C79	C	0.228498	-0.251941	0.326231
C80	C	0.561831	0.081392	0.659564
C81	C	0.895165	0.414725	0.992898
C82	C	0.228511	-0.318903	0.412631
C83	C	0.561844	0.014430	0.745965
C84	C	0.895178	0.347763	1.079298
C85	C	0.283111	-0.318901	0.412620
C86	C	0.616445	0.014433	0.745953
C87	C	0.949778	0.347766	1.079286
C88	C	0.310405	-0.285418	0.369414
C89	C	0.643739	0.047915	0.702747
C90	C	0.977072	0.381248	1.036080
C91	C	0.283099	-0.251939	0.326219
C92	C	0.616432	0.081395	0.659553
C93	C	0.949765	0.414728	0.992886
C94	C	0.228488	-0.184970	0.239830
C95	C	0.561821	0.148363	0.573163
C96	C	0.895155	0.481697	0.906497
C97	C	0.283095	-0.184967	0.239827
C98	C	0.616428	0.148366	0.573161
C99	C	0.949762	0.481699	0.906494
C100	C	0.310402	-0.218450	0.283025
C101	C	0.643735	0.114883	0.616358
C102	C	0.977068	0.448217	0.949691
C103	C	0.364993	-0.218454	0.283002
C104	C	0.698326	0.114880	0.616335
C105	C	1.031660	0.448213	0.949668
N106	N	0.392302	-0.251931	0.326201
N107	N	0.725636	0.081403	0.659534
N108	N	1.058969	0.414736	0.992868
C109	C	0.365009	-0.285413	0.369407
C110	C	0.698342	0.047920	0.702740
C111	C	1.031675	0.381254	1.036074
C112	C	0.031917	-0.218477	0.283059
C113	C	0.365251	0.114856	0.616392
C114	C	0.698584	0.448189	0.949726
C115	C	-0.022685	-0.218485	0.283062
C116	C	0.310648	0.114848	0.616395
C117	C	0.643982	0.448182	0.949728
C118	C	-0.022669	-0.285447	0.369470
C119	C	0.310664	0.047886	0.702803
C120	C	0.643997	0.381219	1.036137
C121	C	0.031934	-0.285442	0.369463
C122	C	0.365267	0.047891	0.702797
C123	C	0.698601	0.381225	1.036130
C124	C	0.059227	-0.251954	0.326258
C125	C	0.392560	0.081379	0.659592
C126	C	0.725894	0.414713	0.992925
C127	C	0.479674	-0.285405	0.369379
C128	C	0.813007	0.047928	0.702712
C129	C	1.146340	0.381261	1.036045
C130	C	0.534279	-0.285401	0.369361
C131	C	0.867612	0.047932	0.702694
C132	C	1.200946	0.381266	1.036028
C133	C	0.534259	-0.218437	0.282956
C134	C	0.867592	0.114896	0.616289
C135	C	1.200925	0.448230	0.949622
C136	C	0.479658	-0.218443	0.282970
C137	C	0.812991	0.114891	0.616304
C138	C	1.146325	0.448224	0.949637
C139	C	0.452367	-0.251929	0.326187
C140	C	0.785700	0.081405	0.659521
C141	C	1.119034	0.414738	0.992854
O142	O	0.393269	-0.190005	0.246261
O143	O	0.726602	0.143328	0.579594
O144	O	1.059936	0.476662	0.912928
O145	O	0.393258	-0.313878	0.406150
O146	O	0.726591	0.019455	0.739483
O147	O	1.059925	0.352789	1.072817
C148	C	0.755456	-0.387778	0.326151
C149	C	1.088789	-0.054445	0.659485
C150	C	1.422122	0.278889	0.992818
C151	C	0.755472	-0.445892	0.326151
C152	C	1.088805	-0.112559	0.659485
C153	C	1.422138	0.220775	0.992818
C154	C	0.788994	-0.806214	0.369584
C155	C	1.122327	-0.472880	0.702918
C156	C	1.455660	-0.139547	1.036251
C157	C	0.789009	-0.860818	0.369598
C158	C	1.122342	-0.527485	0.702931
C159	C	1.455676	-0.194151	1.036265
O160	O	0.817423	-0.889020	0.406472
O161	O	1.150756	-0.555686	0.739805
O162	O	1.484089	-0.222353	1.073139
N163	N	0.755602	-0.888175	0.326270
N164	N	1.088935	-0.554841	0.659603
N165	N	1.422269	-0.221508	0.992937
C166	C	0.722174	-0.860924	0.282930
C167	C	1.055507	-0.527591	0.616263
C168	C	1.388840	-0.194257	0.949597
O169	O	0.693759	-0.889207	0.246077
O170	O	1.027093	-0.555873	0.579411
O171	O	1.360426	-0.222540	0.912744
C172	C	0.722156	-0.806321	0.282920
C173	C	1.055489	-0.472987	0.616253
C174	C	1.388823	-0.139654	0.949587
C175	C	0.755569	-0.778967	0.326246
C176	C	1.088902	-0.445634	0.659580
C177	C	1.422236	-0.112300	0.992913
C178	C	0.822403	-0.778860	0.412908
C179	C	1.155737	-0.445527	0.746241
C180	C	1.489070	-0.112193	1.079574
C181	C	0.822388	-0.724260	0.412893
C182	C	1.155722	-0.390926	0.746226
C183	C	1.489055	-0.057593	1.079560
C184	C	0.788964	-0.697013	0.369555
C185	C	1.122297	-0.363679	0.702888
C186	C	1.455631	-0.030346	1.036221
C187	C	0.755554	-0.724366	0.326231
C188	C	1.088887	-0.391033	0.659565
C189	C	1.422221	-0.057700	0.992898
C190	C	0.688725	-0.779071	0.239584
C191	C	1.022059	-0.445738	0.572917
C192	C	1.355392	-0.112404	0.906251
C193	C	0.688710	-0.724464	0.239578
C194	C	1.022044	-0.391131	0.572911
C195	C	1.355377	-0.057797	0.906245
C196	C	0.722123	-0.697110	0.282904
C197	C	1.055457	-0.363777	0.616238
C198	C	1.388790	-0.030444	0.949571
C199	C	0.722115	-0.642519	0.282879
C200	C	1.055448	-0.309186	0.616212
C201	C	1.388781	0.024148	0.949545
N202	N	0.755522	-0.615163	0.326207
N203	N	1.088855	-0.281829	0.659540
N204	N	1.422188	0.051504	0.992873
C205	C	0.788946	-0.642409	0.369545
C206	C	1.122280	-0.309076	0.702878
C207	C	1.455613	0.024257	1.036212
C208	C	0.722213	-0.975594	0.282955
C209	C	1.055546	-0.642261	0.616288
C210	C	1.388879	-0.308928	0.949621
C211	C	0.722233	-1.030197	0.282961
C212	C	1.055566	-0.696863	0.616294
C213	C	1.388899	-0.363530	0.949627
C214	C	0.789067	-1.030087	0.369630
C215	C	1.122401	-0.696754	0.702963
C216	C	1.455734	-0.363421	1.036297
C217	C	0.789050	-0.975484	0.369620
C218	C	1.122383	-0.642151	0.702953
C219	C	1.455716	-0.308817	1.036287
C220	C	0.755620	-0.948238	0.326283
C221	C	1.088953	-0.614905	0.659616
C222	C	1.422286	-0.281571	0.992950
C223	C	0.788913	-0.527744	0.369510
C224	C	1.122246	-0.194411	0.702843
C225	C	1.455579	0.138922	1.036177
C226	C	0.788896	-0.473139	0.369489
C227	C	1.122230	-0.139806	0.702823
C228	C	1.455563	0.193528	1.036156
C229	C	0.722060	-0.473253	0.282823
C230	C	1.055393	-0.139920	0.616156
C231	C	1.388727	0.193413	0.949490
C232	C	0.722078	-0.527854	0.282841
C233	C	1.055411	-0.194521	0.616174
C234	C	1.388745	0.138813	0.949507
C235	C	0.755506	-0.555098	0.326190
C236	C	1.088839	-0.221765	0.659523
C237	C	1.422173	0.111569	0.992856
O238	O	0.693714	-0.614283	0.246025
O239	O	1.027047	-0.280949	0.579359
O240	O	1.360381	0.052384	0.912692
O241	O	0.817351	-0.614120	0.406397
O242	O	1.150684	-0.280787	0.739731
O243	O	1.484017	0.052547	1.073064
C244	C	0.891902	-0.251957	0.326251
C245	C	1.225236	0.081377	0.659584
C246	C	1.558569	0.414710	0.992918
C247	C	0.950016	-0.251966	0.326271
C248	C	1.283350	0.081368	0.659604
C249	C	1.616683	0.414701	0.992937
C250	C	0.755559	-0.251903	0.502747
C251	C	1.088892	0.081431	0.836081
C252	C	1.422225	0.414764	1.169414
C253	C	0.755571	-0.251889	0.577979
C254	C	1.088905	0.081445	0.911313
C255	C	1.422238	0.414778	1.244646
C256	C	0.755618	-0.115562	0.326272
C257	C	1.088951	0.217771	0.659606
C258	C	1.422285	0.551104	0.992939
C259	C	0.755656	-0.057448	0.326302
C260	C	1.088989	0.275885	0.659635
C261	C	1.422322	0.609218	0.992968
C262	C	0.755530	-0.251931	0.150348
C263	C	1.088864	0.081403	0.483682
C264	C	1.422197	0.414736	0.817015
C265	C	0.755619	-0.251797	0.075117
C266	C	1.088952	0.081536	0.408450
C267	C	1.422286	0.414869	0.741784
C268	C	0.789034	-0.218452	0.613353
C269	C	1.122367	0.114882	0.946686
C270	C	1.455701	0.448215	1.280019
C271	C	0.789039	-0.218437	0.684041
C272	C	1.122373	0.114897	1.017374
C273	C	1.455706	0.448230	1.350708
C274	C	0.755584	-0.251861	0.719355
C275	C	1.088918	0.081472	1.052688
C276	C	1.422251	0.414805	1.386022
C277	C	0.722118	-0.285300	0.683977
C278	C	1.055451	0.048034	1.017310
C279	C	1.388784	0.381367	1.350643
C280	C	0.722110	-0.285312	0.613289
C281	C	1.055444	0.048022	0.946623
C282	C	1.388777	0.381355	1.279956
C283	C	0.722147	-0.285251	0.969050
C284	C	1.055481	0.048083	1.302383
C285	C	1.388814	0.381416	1.635717
C286	C	0.722159	-0.285237	1.039742
C287	C	1.055492	0.048096	1.373076
C288	C	1.388825	0.381429	1.706409
C289	C	0.789077	-0.218376	1.039802
C290	C	1.122410	0.114958	1.373135
C291	C	1.455743	0.448291	1.706468
C292	C	0.789069	-0.218388	0.969115
C293	C	1.122402	0.114946	1.302448
C294	C	1.455736	0.448279	1.635781
C295	C	0.755601	-0.251824	0.933742
C296	C	1.088934	0.081509	1.267076
C297	C	1.422267	0.414843	1.600409
C298	C	0.755595	-0.251839	0.857094
C299	C	1.088928	0.081494	1.190427
C300	C	1.422261	0.414827	1.523761
C301	C	0.755593	-0.251849	0.796002
C302	C	1.088926	0.081484	1.129335
C303	C	1.422259	0.414818	1.462669
H304	H	0.457460	-0.312671	0.404571
H305	H	0.790793	0.020662	0.737905
H306	H	1.124126	0.353995	1.071238
F307	F	0.824678	-0.182815	0.931535
F308	F	1.158011	0.150519	1.264868
F309	F	1.491345	0.483852	1.598201
H310	H	0.816326	-0.191148	1.068610
H311	H	1.149659	0.142185	1.401944
H312	H	1.482993	0.475518	1.735277
H313	H	0.816289	-0.191210	0.712839
H314	H	1.149623	0.142123	1.046172
H315	H	1.482956	0.475457	1.379506
H316	H	0.694913	-0.312457	1.068493
H317	H	1.028246	0.020877	1.401826
H318	H	1.361580	0.354210	1.735160
F319	F	0.653161	-0.808171	0.193471
F320	F	0.986494	-0.474838	0.526804
F321	F	1.319827	-0.141504	0.860138
H322	H	-0.044902	-0.312709	0.404653
H323	H	0.288431	0.020624	0.737986
H324	H	0.621765	0.353958	1.071320
H325	H	0.694903	-0.312484	0.940259
H326	H	1.028236	0.020849	1.273592
H327	H	1.361570	0.354182	1.606925
F328	F	0.686510	-0.320871	0.721562
F329	F	1.019843	0.012463	1.054896
F330	F	1.353177	0.345796	1.388229
F331	F	0.686493	-0.320898	0.575643
F332	F	1.019827	0.012435	0.908976
F333	F	1.353160	0.345768	1.242310
H334	H	0.816130	-0.549920	0.404814
H335	H	1.149463	-0.216587	0.738147
H336	H	1.482796	0.116747	1.071480
H337	H	0.694875	-0.550126	0.247556
H338	H	1.028208	-0.216793	0.580889
H339	H	1.361541	0.116540	0.914222
F340	F	0.563338	-0.321041	0.415338
F341	F	0.896671	0.012293	0.748671
F342	F	1.230004	0.345626	1.082005
F343	F	0.824611	-0.946377	0.415734
F344	F	1.157945	-0.613044	0.749067
F345	F	1.491278	-0.279710	1.082401
H346	H	0.661486	-0.702283	0.204289
H347	H	0.994819	-0.368950	0.537622
H348	H	1.328152	-0.035616	0.870955
H349	H	0.694847	-0.451060	0.247535
H350	H	1.028181	-0.117727	0.580869
H351	H	1.361514	0.215606	0.914202
H352	H	-0.044913	-0.191225	0.247879
H353	H	0.288420	0.142108	0.581213
H354	H	0.621753	0.475442	0.914546
H355	H	0.206294	-0.346169	0.447819
H356	H	0.539627	-0.012836	0.781152
H357	H	0.872961	0.320498	1.114485
F358	F	0.563316	-0.182805	0.236975
F359	F	0.896650	0.150529	0.570308
F360	F	1.229983	0.483862	0.903641
F361	F	0.060991	-0.321078	0.415440
F362	F	0.394324	0.012255	0.748773
F363	F	0.727658	0.345589	1.082107
F364	F	0.312166	-0.354536	0.458599
F365	F	0.645500	-0.021203	0.791933
F366	F	0.978833	0.312131	1.125266
H367	H	0.206264	-0.157706	0.204652
H368	H	0.539598	0.175627	0.537986
H369	H	0.872931	0.508961	0.871319
F370	F	0.060960	-0.182836	0.237067
F371	F	0.394293	0.150498	0.570400
F372	F	0.727627	0.483831	0.903733
H373	H	0.305314	-0.157694	0.204648
H374	H	0.638647	0.175640	0.537981
H375	H	0.971981	0.508973	0.871314
F376	F	0.450595	-0.182814	0.236985
F377	F	0.783929	0.150519	0.570319
F378	F	1.117262	0.483852	0.903652
H379	H	0.849595	-0.701991	0.448175
H380	H	1.182928	-0.368658	0.781508
H381	H	1.516261	-0.035325	1.114841
F382	F	0.824462	-0.444030	0.415604
F383	F	1.157795	-0.110697	0.748937
F384	F	1.491128	0.222636	1.082271
F385	F	0.857980	-0.807850	0.459041
F386	F	1.191313	-0.474517	0.792374
F387	F	1.524646	-0.141183	1.125707
H388	H	0.695030	-1.052464	0.247673
H389	H	1.028363	-0.719130	0.581006
H390	H	1.361697	-0.385797	0.914339
F391	F	0.824641	-1.059095	0.415755
F392	F	1.157974	-0.725762	0.749089
F393	F	1.491307	-0.392428	1.082422
F394	F	0.686632	-0.946602	0.236822
F395	F	1.019966	-0.613269	0.570156
F396	F	1.353299	-0.279935	0.903489
H397	H	0.816279	-0.191235	0.584605
H398	H	1.149612	0.142098	0.917938
H399	H	1.482945	0.475432	1.251272
