data_functionalizedCrystal
_audit_creation_method	'MofGen! by Chris Wilmer'
_symmetry_space_group_name_H-M	'P1'
_symmetry_Int_Tables_number	1
_symmetry_cell_setting	triclinic
loop_
_symmetry_equiv_pos_as_xyz
  x,y,z
_cell_length_a	10.654562
_cell_length_b	16.776229
_cell_length_c	10.654550
_cell_angle_alpha	90.005457
_cell_angle_beta	95.512517
_cell_angle_gamma	89.991296
loop_
_atom_site_label
_atom_site_type_symbol
_atom_site_fract_x
_atom_site_fract_y
_atom_site_fract_z
O1	O	-1.667836	0.066316	0.176477
O2	O	-1.302360	0.066311	0.193267
O3	O	-1.493501	0.066310	0.002133
O4	O	-1.476695	0.066316	0.367611
O5	O	-1.493476	-0.066266	0.002121
O6	O	-1.302334	-0.066266	0.193255
O7	O	-1.667811	-0.066261	0.176465
Zn8	Zn	-1.485068	-0.087313	0.184858
Zn9	Zn	-1.485102	0.087363	0.184874
O10	O	-1.476670	-0.066261	0.367599
C11	C	-1.255549	0.000022	0.192025
C12	C	-1.116107	0.000020	0.188326
C13	C	-1.064567	0.000015	0.072313
C14	C	-0.933545	0.000019	0.068846
C15	C	-0.905613	0.000029	0.297415
C16	C	-1.036633	0.000031	0.300881
C17	C	-1.080693	0.000006	-0.059649
C18	C	-0.949671	0.000010	-0.063117
N19	N	-1.485055	-0.206524	0.184846
C20	C	-1.569718	-0.248241	0.100248
C21	C	-1.569725	-0.331693	0.100247
C22	C	-1.485074	-0.373427	0.184851
C23	C	-1.400401	-0.331704	0.269454
C24	C	-1.400389	-0.248253	0.269448
C25	C	-1.400446	-0.668251	0.269479
C26	C	-1.400468	-0.751708	0.269481
C27	C	-1.569783	-0.751691	0.100278
C28	C	-1.569771	-0.668241	0.100272
C29	C	-1.485094	-0.626525	0.184869
C30	C	-1.485086	-0.536036	0.184868
C31	C	-1.485087	-0.463914	0.184860
C32	C	-0.714622	0.000026	0.177704
C33	C	-0.854065	0.000022	0.181393
C34	C	-1.492254	0.000023	-0.044671
C35	C	-1.488563	0.000026	-0.184114
N36	N	-1.485126	0.206574	0.184876
C37	C	-1.601103	0.000025	-0.263595
C38	C	-1.597627	0.000030	-0.394616
C39	C	-1.369059	0.000034	-0.366663
C40	C	-1.372537	0.000034	-0.235645
C41	C	-1.733066	0.000019	-0.279735
C42	C	-1.729589	0.000025	-0.410756
C43	C	-1.477916	0.000029	0.414403
C44	C	-1.481608	0.000031	0.553846
H45	H	-1.078590	0.000048	0.395350
C46	C	-0.909974	-0.074947	-0.132831
N47	N	-0.880074	-0.131402	-0.185336
C48	C	-1.662919	-0.797586	0.007207
N49	N	-1.733068	-0.832153	-0.062892
C50	C	-1.783505	0.077349	-0.472417
N51	N	-1.824120	0.135587	-0.518863
H52	H	-0.914053	0.057252	-0.105142
H53	H	-1.122451	0.055485	-0.109374
C54	C	-1.142344	-0.077326	-0.113520
N55	N	-1.188781	-0.135573	-0.154095
H56	H	-1.274594	0.000042	-0.408635
H57	H	-1.779300	-0.055456	-0.452519
H58	H	-1.638656	-0.214267	0.031358
H59	H	-0.840890	0.000038	0.389053
H60	H	-1.638664	-0.365659	0.031359
C61	C	-1.802802	0.074971	-0.240056
N62	N	-1.855323	0.131425	-0.210170
H63	H	-1.775076	-0.057224	-0.244111
H64	H	-1.280895	0.000046	-0.170935
H65	H	-1.638706	-0.634264	0.031383
C66	C	-1.307331	-0.797613	0.362549
N67	N	-1.237184	-0.832188	0.432644
H68	H	-1.331502	-0.634293	0.338364
C69	C	-1.307271	-0.377614	0.362509
N70	N	-1.237123	-0.412192	0.432599
H71	H	-1.331445	-0.214288	0.338335
