data_functionalizedCrystal
_audit_creation_method	'MofGen! by Chris Wilmer'
_symmetry_space_group_name_H-M	'P1'
_symmetry_Int_Tables_number	1
_symmetry_cell_setting	triclinic
loop_
_symmetry_equiv_pos_as_xyz
  x,y,z
_cell_length_a	18.050590
_cell_length_b	21.395361
_cell_length_c	21.395355
_cell_angle_alpha	90.021511
_cell_angle_beta	90.006016
_cell_angle_gamma	90.017531
loop_
_atom_site_label
_atom_site_type_symbol
_atom_site_fract_x
_atom_site_fract_y
_atom_site_fract_z
Zn1	Zn	-1.135350	0.249732	-0.353938
Zn2	Zn	-1.135235	0.354491	-0.249155
Zn3	Zn	-1.011148	0.249708	-0.249209
Zn4	Zn	-1.011112	0.354451	-0.353930
O5	O	-1.073211	0.302095	-0.301558
O6	O	-1.239259	0.263655	-0.340020
O7	O	-1.118741	0.340598	-0.161485
O8	O	-1.027688	0.162033	-0.263128
O9	O	-1.239174	0.340622	-0.263036
O10	O	-1.118938	0.162050	-0.340072
O11	O	-1.027576	0.263614	-0.161524
O12	O	-0.907219	0.263575	-0.263119
O13	O	-1.027625	0.340553	-0.441609
O14	O	-0.907192	0.340530	-0.340057
O15	O	-1.118903	0.263616	-0.441615
O16	O	-1.118706	0.442164	-0.263028
O17	O	-1.027513	0.442134	-0.340005
C18	C	-0.880259	0.302046	-0.301593
C19	C	-0.797713	0.302040	-0.301623
C20	C	-0.598270	0.344001	-0.343371
C21	C	-0.548883	0.286871	-0.358795
C22	C	-0.646583	0.302070	-0.301599
C23	C	-0.548888	0.359227	-0.286180
C24	C	-0.500598	0.302103	-0.301577
C25	C	-0.598283	0.244910	-0.317053
C26	C	-0.598293	0.317304	-0.244411
C27	C	-0.548929	0.260135	-0.259814
C28	C	-0.730681	0.302051	-0.301613
C29	C	-0.416501	0.302116	-0.301562
C30	C	-1.073113	0.464883	-0.301523
C31	C	-1.073139	0.534524	-0.301529
C32	C	-0.266917	0.302137	-0.301534
C33	C	-0.349463	0.302132	-0.301550
C34	C	-1.073273	0.302083	-0.464981
C35	C	-1.073299	0.302077	-0.534623
C36	C	-1.073330	0.138672	-0.301607
C37	C	-1.073380	0.069031	-0.301628
C38	C	-1.120665	0.567232	-0.261488
C39	C	-1.120700	0.632667	-0.261502
C40	C	-1.073195	0.665393	-0.301551
C41	C	-1.025666	0.632677	-0.341599
C42	C	-1.025638	0.567243	-0.341589
C43	C	-1.006327	0.769095	-0.306479
C44	C	-1.006353	0.834528	-0.306485
C45	C	-1.073282	0.867213	-0.301587
C46	C	-1.140185	0.834458	-0.296670
C47	C	-1.140157	0.769024	-0.296659
C48	C	-1.073220	0.736345	-0.301567
C49	C	-1.120849	0.970874	-0.261560
C50	C	-1.120885	1.036310	-0.261578
C51	C	-1.025844	1.036318	-0.341672
C52	C	-1.025815	0.970883	-0.341657
C53	C	-1.073316	0.938165	-0.301597
C54	C	-1.120825	0.262015	-0.567340
C55	C	-1.120824	0.261988	-0.632776
C56	C	-1.073305	0.302035	-0.665491
C57	C	-1.025770	0.342100	-0.632766
C58	C	-1.025767	0.342122	-0.567331
C59	C	-1.067407	0.358449	-0.769155
C60	C	-1.067415	0.358428	-0.834588
C61	C	-1.073310	0.301968	-0.867312
C62	C	-1.079212	0.245527	-0.834595
C63	C	-1.079209	0.245548	-0.769160
C64	C	-1.073302	0.302016	-0.736444
C65	C	-1.120837	0.261873	-0.970982
C66	C	-1.120831	0.261845	-1.036419
C67	C	-1.025780	0.341963	-1.036407
C68	C	-1.025783	0.341986	-0.970972
C69	C	-1.073315	0.301941	-0.938263
C70	C	-1.073193	0.302063	-0.138771
C71	C	-1.073310	0.301892	-0.069130
H72	H	-0.527179	0.273997	-0.407148
H73	H	-0.527188	0.407549	-0.273150
H74	H	-1.194684	0.861069	-0.292682
N75	N	-1.085571	0.184621	-0.869873
H76	H	-1.131333	0.185466	-0.897027
H77	H	-1.040299	0.178754	-0.896980
H78	H	-1.062408	0.404414	-0.742517
N79	N	-1.172071	0.218808	-0.532064
H80	H	-1.164855	0.224896	-0.485646
H81	H	-1.225107	0.228562	-0.543499
N82	N	-1.171909	0.531945	-0.218292
H83	H	-1.164682	0.485529	-0.224360
H84	H	-1.160381	0.543412	-0.173540
N85	N	-1.171962	0.667956	-0.218315
H86	H	-1.202050	0.637300	-0.192937
H87	H	-1.141755	0.695137	-0.189312
N88	N	-1.172089	0.218774	-0.668070
H89	H	-1.225142	0.228528	-0.656686
H90	H	-1.164816	0.224858	-0.714475
N91	N	-1.085576	0.184678	-0.733871
H92	H	-1.089313	0.148905	-0.764526
H93	H	-1.040331	0.178858	-0.706719
H94	H	-0.619889	0.196573	-0.330140
N95	N	-0.974421	0.667966	-0.384791
H96	H	-0.985924	0.656551	-0.429563
H97	H	-0.981669	0.714371	-0.378668
N98	N	-1.061052	0.419300	-0.869875
H99	H	-1.103969	0.447358	-0.858486
H100	H	-1.012945	0.440555	-0.858472
H101	H	-1.159537	0.229263	-0.944349
N102	N	-1.172080	0.218621	-1.071710
H103	H	-1.202187	0.193257	-1.041058
H104	H	-1.206430	0.244119	-1.098867
H105	H	-0.987082	0.374564	-1.063044
N106	N	-1.172144	1.071593	-0.218387
H107	H	-1.206561	1.098706	-0.243869
H108	H	-1.202178	1.040896	-0.193017
N109	N	-1.172080	0.935578	-0.218357
H110	H	-1.202198	0.966231	-0.192996
H111	H	-1.206420	0.908393	-0.243873
N112	N	-0.974510	0.385187	-0.935679
H113	H	-0.944401	0.410549	-0.966331
H114	H	-1.004703	0.414203	-0.908523
N115	N	-1.212310	0.733693	-0.291359
H116	H	-1.254716	0.764324	-0.288257
H117	H	-1.219169	0.706520	-0.329534
H118	H	-0.527400	0.224649	-0.224479
N119	N	-0.974504	0.385284	-0.668047
H120	H	-0.981716	0.379191	-0.714464
H121	H	-0.986018	0.430042	-0.656611
H122	H	-0.987062	0.374745	-0.540693
H123	H	-0.987168	1.062963	-0.374283
H124	H	-0.986936	0.540612	-0.374196
N125	N	-0.974541	0.935603	-0.384835
H126	H	-0.981731	0.889185	-0.378751
H127	H	-0.986076	0.947008	-0.429591
N128	N	-0.934197	0.869854	-0.311779
H129	H	-0.891795	0.839221	-0.314886
H130	H	-0.935254	0.896985	-0.350387
N131	N	-0.627059	0.334371	-0.180376
H132	H	-0.609121	0.377563	-0.168773
H133	H	-0.683005	0.333791	-0.180802
H134	H	-0.951821	0.742489	-0.310470
H135	H	-0.619937	0.379400	-0.378733
