data_functionalizedCrystal
_audit_creation_method	'MofGen! by Chris Wilmer'
_symmetry_space_group_name_H-M	'P1'
_symmetry_Int_Tables_number	1
_symmetry_cell_setting	triclinic
loop_
_symmetry_equiv_pos_as_xyz
  x,y,z
_cell_length_a	10.654545
_cell_length_b	15.021413
_cell_length_c	10.654550
_cell_angle_alpha	89.998540
_cell_angle_beta	84.484005
_cell_angle_gamma	89.992776
loop_
_atom_site_label
_atom_site_type_symbol
_atom_site_fract_x
_atom_site_fract_y
_atom_site_fract_z
O1	O	1.667825	0.074023	0.176363
O2	O	1.302346	0.074027	0.193175
O3	O	1.493488	0.074019	0.002029
O4	O	1.476682	0.074030	0.367508
O5	O	1.493511	-0.074045	0.002042
O6	O	1.302368	-0.074038	0.193187
O7	O	1.667847	-0.074041	0.176375
Zn8	Zn	1.485111	-0.097548	0.184783
Zn9	Zn	1.485082	0.097533	0.184767
O10	O	1.476705	-0.074034	0.367520
C11	C	1.255559	-0.000005	0.191948
C12	C	1.116115	-0.000004	0.188258
C13	C	1.050623	-0.080714	0.186528
C14	C	0.919604	-0.080714	0.183040
C15	C	0.919580	0.080714	0.183018
C16	C	1.050598	0.080713	0.186497
N17	N	1.485141	-0.230685	0.184793
C18	C	1.573543	-0.470348	0.096387
C19	C	1.459846	-0.529677	0.071009
C20	C	1.485112	-0.412292	0.184777
C21	C	1.598780	-0.529705	0.210081
C22	C	1.485093	-0.587716	0.184759
C23	C	1.371357	-0.470314	0.159343
C24	C	1.510366	-0.470338	0.298464
C25	C	1.396588	-0.529640	0.273134
C26	C	1.485124	-0.311235	0.184784
C27	C	1.485068	-0.688772	0.184752
C28	C	1.714634	-0.000008	0.177602
C29	C	1.854078	-0.000003	0.181292
C30	C	1.492266	-0.000012	-0.044762
C31	C	1.488574	-0.000011	-0.184206
N32	N	1.485062	0.230671	0.184747
C33	C	1.601115	-0.000012	-0.263693
C34	C	1.597639	-0.000001	-0.394714
C35	C	1.369069	0.000008	-0.366747
C36	C	1.372547	0.000003	-0.235729
C37	C	1.477927	-0.000000	0.414312
C38	C	1.481619	0.000004	0.553755
H39	H	0.866219	0.146430	0.181586
O40	O	0.855960	-0.159095	0.181134
C41	C	0.721299	-0.252768	0.068628
C42	C	0.793336	-0.163975	0.070620
H43	H	0.670628	-0.256734	-0.020700
H44	H	0.790594	-0.310487	0.070399
H45	H	0.649269	-0.256791	0.154774
H46	H	0.865366	-0.159865	-0.015510
H47	H	0.723966	-0.106298	0.068914
H48	H	1.694915	-0.555793	0.231491
O49	O	1.256444	0.000132	-0.416950
C50	C	1.119826	0.076871	-0.548584
C51	C	1.247430	0.076834	-0.491840
H52	H	1.112485	0.138887	-0.609123
H53	H	1.112473	0.014949	-0.609306
H54	H	1.040006	0.076829	-0.469243
H55	H	1.327324	0.076907	-0.571099
H56	H	1.254673	0.138750	-0.431085
O57	O	1.263099	-0.000036	-0.158686
C58	C	1.036021	0.000029	-0.144761
C59	C	1.159867	0.000048	-0.232156
H60	H	0.952526	0.000116	-0.204126
H61	H	1.031856	-0.061951	-0.082746
H62	H	1.032005	0.061979	-0.082697
H63	H	1.163966	-0.061860	-0.294298
H64	H	1.163981	0.062068	-0.294085
H65	H	1.321714	-0.555509	0.347878
H66	H	1.648247	-0.444314	0.021596
O67	O	1.114298	-0.159096	0.188449
C68	C	1.249005	-0.252762	0.300953
C69	C	1.176934	-0.163970	0.298957
H70	H	1.299686	-0.256724	0.390276
H71	H	1.179731	-0.310482	0.299196
H72	H	1.321029	-0.256787	0.214802
H73	H	1.104909	-0.159858	0.385092
H74	H	1.246283	-0.106292	0.300650
O75	O	1.114024	0.159199	0.188231
C76	C	1.100195	0.319314	0.187765
C77	C	1.028204	0.230499	0.185834
H78	H	1.030844	0.376983	0.185802
H79	H	1.150763	0.323414	0.277149
H80	H	1.172300	0.323292	0.101676
H81	H	0.956039	0.226461	0.271862
H82	H	0.977722	0.226437	0.096394
O83	O	1.434553	-0.560740	-0.043778
C84	C	1.499108	-0.565731	-0.266713
C85	C	1.527904	-0.530514	-0.136789
H86	H	1.574550	-0.541292	-0.341951
H87	H	1.498496	-0.641619	-0.265414
H88	H	1.402893	-0.540302	-0.288968
H89	H	1.624122	-0.555877	-0.114454
H90	H	1.528432	-0.454627	-0.138155
O91	O	1.256726	-0.439182	0.133641
C92	C	1.128101	-0.310183	0.104919
C93	C	1.257985	-0.345322	0.134002
H94	H	1.129068	-0.234294	0.105227
H95	H	1.106336	-0.335084	0.008285
H96	H	1.052706	-0.335167	0.179808
H97	H	1.333463	-0.320352	0.059193
H98	H	1.279642	-0.320428	0.230673
H99	H	1.531779	-0.444253	0.394584
O100	O	1.713742	0.000102	-0.213493
C101	C	1.850338	0.076834	-0.081860
C102	C	1.722732	0.076801	-0.138600
H103	H	1.857660	0.138848	-0.021318
H104	H	1.857715	0.014910	-0.021140
H105	H	1.930156	0.076795	-0.161203
H106	H	1.642841	0.076872	-0.059338
H107	H	1.715466	0.138720	-0.199352
H108	H	1.689282	0.000000	-0.459428
