data_functionalizedCrystal
_audit_creation_method	'MofGen! by Chris Wilmer'
_symmetry_space_group_name_H-M	'P1'
_symmetry_Int_Tables_number	1
_symmetry_cell_setting	triclinic
loop_
_symmetry_equiv_pos_as_xyz
  x,y,z
_cell_length_a	16.959455
_cell_length_b	19.121063
_cell_length_c	16.959447
_cell_angle_alpha	87.593376
_cell_angle_beta	90.020374
_cell_angle_gamma	92.466224
loop_
_atom_site_label
_atom_site_type_symbol
_atom_site_fract_x
_atom_site_fract_y
_atom_site_fract_z
Zn1	Zn	1.194915	-0.279655	0.460438
Zn2	Zn	1.189180	-0.397115	0.333888
Zn3	Zn	1.062742	-0.279677	0.328262
Zn4	Zn	1.057054	-0.397063	0.466010
O5	O	1.125973	-0.338378	0.397150
O6	O	1.304765	-0.295249	0.443673
O7	O	1.172389	-0.381568	0.222533
O8	O	1.085056	-0.181390	0.341109
O9	O	1.300551	-0.381547	0.350698
O10	O	1.182163	-0.181374	0.438218
O11	O	1.079496	-0.295287	0.218399
O12	O	0.951378	-0.295236	0.346513
O13	O	1.075360	-0.381457	0.575881
O14	O	0.947198	-0.381479	0.447715
O15	O	1.176647	-0.295198	0.571787
O16	O	1.166873	-0.495393	0.356101
O17	O	1.069800	-0.495354	0.453171
C18	C	0.920608	-0.338355	0.397109
C19	C	0.832751	-0.338362	0.397111
C20	C	0.459072	-0.383268	0.348709
C21	C	0.463474	-0.293545	0.445689
C22	C	0.546020	-0.293534	0.445669
C23	C	0.585096	-0.338391	0.397170
C24	C	0.541626	-0.383260	0.348690
C25	C	0.589497	-0.248671	0.494154
C26	C	0.672048	-0.248658	0.494137
C27	C	0.711126	-0.293512	0.445632
C28	C	0.667650	-0.338382	0.397150
C29	C	0.706726	-0.383239	0.348651
C30	C	0.663252	-0.428106	0.300164
C31	C	0.580704	-0.428114	0.300186
C32	C	0.793675	-0.293505	0.445610
C33	C	0.789280	-0.383231	0.348631
C34	C	1.117118	-0.520857	0.405868
C35	C	1.113402	-0.598923	0.409624
C36	C	1.162236	-0.635595	0.360892
C37	C	1.158746	-0.708946	0.364429
C38	C	1.106418	-0.745624	0.416696
C39	C	1.057581	-0.708947	0.465433
C40	C	1.061076	-0.635597	0.461899
C41	C	1.093339	-0.967092	0.429896
C42	C	1.089847	-1.040447	0.433424
C43	C	1.191013	-1.040442	0.332421
C44	C	1.194500	-0.967091	0.328888
C45	C	1.145667	-0.930420	0.377629
C46	C	1.102847	-0.820600	0.420311
C47	C	1.149242	-0.855445	0.374017
C48	C	1.332140	-0.338401	0.397191
C49	C	1.419996	-0.338411	0.397209
C50	C	1.126009	-0.338319	0.603315
C51	C	1.126024	-0.338295	0.691171
C52	C	1.134884	-0.155185	0.388415
C53	C	1.138681	-0.077119	0.384692
C54	C	1.125985	-0.338385	0.191784
C55	C	1.126133	-0.338212	0.103919
C56	C	1.073387	-0.383132	1.064777
C57	C	1.178857	-0.293309	1.060509
C58	C	1.178835	-0.293324	0.977964
C59	C	1.126089	-0.338244	0.938821
C60	C	1.073365	-0.383150	0.982224
C61	C	1.231564	-0.248425	0.934555
C62	C	1.231545	-0.248438	0.852005
C63	C	1.178794	-0.293356	0.812861
C64	C	1.126067	-0.338262	0.856269
C65	C	1.073321	-0.383182	0.817126
C66	C	1.020590	-0.428086	0.860533
C67	C	1.020614	-0.428067	0.943080
C68	C	1.178770	-0.293375	0.730313
C69	C	1.073299	-0.383200	0.734574
H70	H	0.829067	-0.256976	0.485089
H71	H	0.545300	-0.464642	0.260710
H72	H	1.230772	-1.070307	0.292740
Cl73	Cl	1.245060	-0.236934	0.675749
H74	H	0.695079	-0.464633	0.260680
H75	H	1.047244	-1.070308	0.476000
H76	H	0.707438	-0.212124	0.533617
Cl77	Cl	0.404422	-0.439667	0.287754
Cl78	Cl	0.414349	-0.237164	0.506665
Cl79	Cl	0.540369	-0.192292	0.555131
H80	H	1.191851	-0.825580	0.331465
H81	H	1.021311	-0.605739	0.501583
Cl82	Cl	1.228020	-0.589494	0.295177
Cl83	Cl	1.297874	-0.191963	0.983766
H84	H	1.221805	-0.256741	1.092384
H85	H	1.053576	-0.937241	0.469581
H86	H	1.060239	-0.850471	0.462865
Cl87	Cl	0.991800	-0.755056	0.531145
H88	H	1.030340	-0.419774	0.702710
Cl89	Cl	1.220144	-0.755045	0.303165
Cl90	Cl	1.297831	-0.191987	0.797444
Cl91	Cl	1.260299	-0.920987	0.263191
H92	H	0.977647	-0.464663	0.828652
Cl93	Cl	0.954334	-0.484515	0.997653
H94	H	1.030452	-0.419689	1.100122
H95	H	0.821090	-0.419757	0.309134
