data_functionalizedCrystal
_audit_creation_method	'MofGen! by Chris Wilmer'
_symmetry_space_group_name_H-M	'P1'
_symmetry_Int_Tables_number	1
_symmetry_cell_setting	triclinic
loop_
_symmetry_equiv_pos_as_xyz
  x,y,z
_cell_length_a	16.974810
_cell_length_b	16.992695
_cell_length_c	16.053802
_cell_angle_alpha	87.258926
_cell_angle_beta	88.925582
_cell_angle_gamma	87.022613
loop_
_atom_site_label
_atom_site_type_symbol
_atom_site_fract_x
_atom_site_fract_y
_atom_site_fract_z
O1	O	-1.055372	-0.099982	0.001911
O2	O	-0.555372	0.400018	0.501911
O3	O	-0.826667	-0.111982	-0.013551
O4	O	-0.326667	0.388018	0.486449
O5	O	-0.940102	0.008162	-0.005875
O6	O	-0.440102	0.508162	0.494125
O7	O	-0.941937	-0.220126	-0.005764
O8	O	-0.441937	0.279874	0.494236
O9	O	-0.933857	0.001577	0.132561
O10	O	-0.433857	0.501577	0.632561
O11	O	-0.820421	-0.118568	0.124886
O12	O	-0.320421	0.381432	0.624886
O13	O	-1.049127	-0.106567	0.140348
O14	O	-0.549127	0.393433	0.640348
Zn15	Zn	-0.933782	-0.113613	0.154596
Zn16	Zn	-0.433782	0.386387	0.654596
Zn17	Zn	-0.942011	-0.104936	-0.027799
Zn18	Zn	-0.442011	0.395064	0.472201
O19	O	-0.935691	-0.226712	0.132672
O20	O	-0.435691	0.273288	0.632672
C21	C	-0.794145	-0.114698	0.053680
C22	C	-0.294145	0.385302	0.553680
C23	C	-0.706543	-0.112967	0.047758
C24	C	-0.206543	0.387033	0.547758
C25	C	-0.934621	0.034087	0.063184
C26	C	-0.434621	0.534087	0.563184
C27	C	-0.927583	0.121146	0.062707
C28	C	-0.427583	0.621146	0.562707
N29	N	-0.928172	-0.119535	0.279077
N30	N	-0.428172	0.380465	0.779077
C31	C	-0.661988	-0.115742	0.120439
C32	C	-0.161988	0.384258	0.620439
C33	C	-0.579678	-0.114103	0.114877
C34	C	-0.079678	0.385897	0.614877
C35	C	-0.541924	-0.109695	0.036633
C36	C	-0.041924	0.390305	0.536633
C37	C	-0.586486	-0.106918	-0.036054
C38	C	-0.086486	0.393082	0.463946
C39	C	-0.668795	-0.108551	-0.030491
C40	C	-0.168795	0.391449	0.469509
C41	C	-0.296122	-0.104421	0.011903
C42	C	0.203878	0.395579	0.511903
C43	C	-0.213807	-0.102791	0.006346
C44	C	0.286193	0.397209	0.506346
C45	C	-0.207005	-0.109975	0.157277
C46	C	0.292995	0.390025	0.657277
C47	C	-0.289316	-0.111612	0.162833
C48	C	0.210684	0.388388	0.662833
C49	C	-0.333870	-0.108831	0.090147
C50	C	0.166130	0.391169	0.590147
N51	N	-0.457790	-0.108023	0.030945
N52	N	0.042210	0.391977	0.530945
N53	N	-0.418003	-0.110497	0.095835
N54	N	0.081997	0.389503	0.595835
C55	C	-0.081649	-0.103848	0.073114
C56	C	0.418351	0.396152	0.573114
C57	C	-0.169252	-0.105566	0.079027
C58	C	0.330748	0.394434	0.579027
C59	C	-0.941173	-0.252636	0.063612
C60	C	-0.441173	0.247364	0.563612
C61	C	-0.948211	-0.339695	0.064082
C62	C	-0.448211	0.160305	0.564082
C63	C	-0.995491	0.171244	0.067299
C64	C	-0.495491	0.671244	0.567299
C65	C	-0.988874	0.253045	0.066844
C66	C	-0.488874	0.753045	0.566844
C67	C	-0.914347	0.284746	0.061803
C68	C	-0.414347	0.784746	0.561803
C69	C	-0.846433	0.234642	0.057208
C70	C	-0.346433	0.734642	0.557208
C71	C	-0.853052	0.152843	0.057657
C72	C	-0.353052	0.652843	0.557657
C73	C	-0.886916	0.528402	0.059937
C74	C	-0.386916	1.028402	0.559937
C75	C	-0.880303	0.610207	0.059490
C76	C	-0.380303	1.110207	0.559490
C77	C	-1.022744	0.628605	0.069125
C78	C	-0.522744	1.128605	0.569125
C79	C	-1.029356	0.546803	0.069579
C80	C	-0.529356	1.046803	0.569579
C81	C	-0.961442	0.496706	0.064980
C82	C	-0.461442	0.996706	0.564980
N83	N	-0.907581	0.368359	0.061340
N84	N	-0.407581	0.868359	0.561340
N85	N	-0.968209	0.413095	0.065437
N86	N	-0.468209	0.913095	0.565437
N87	N	-0.947627	-0.099009	-0.152280
N88	N	-0.447627	0.400991	0.347720
C89	C	-0.976459	-0.068431	0.326038
C90	C	-0.476459	0.431569	0.826038
C91	C	-0.972543	-0.072581	0.413180
C92	C	-0.472543	0.427419	0.913180
C93	C	-0.920343	-0.127838	0.453359
C94	C	-0.420343	0.372162	0.953359
C95	C	-0.872050	-0.178944	0.406392
C96	C	-0.372050	0.321056	0.906392
C97	C	-0.875963	-0.174790	0.319251
C98	C	-0.375963	0.325210	0.819251
C99	C	-0.903248	-0.145961	0.713612
C100	C	-0.403248	0.354039	1.213612
C101	C	-0.899340	-0.150112	0.800759
C102	C	-0.399340	0.349888	1.300759
C103	C	-0.999832	-0.043748	0.807542
C104	C	-0.499832	0.456252	1.307542
C105	C	-1.003744	-0.039602	0.720399
C106	C	-0.503744	0.460398	1.220399
C107	C	-0.955449	-0.090705	0.673439
C108	C	-0.455449	0.409295	1.173439
N109	N	-0.916340	-0.132083	0.542432
N110	N	-0.416340	0.367917	1.042432
N111	N	-0.959448	-0.086456	0.584368
N112	N	-0.459448	0.413544	1.084368
H113	H	-0.692721	-0.119338	0.184154
H114	H	-0.192721	0.380662	0.684154
Br115	Br	-0.801200	-0.253932	0.460916
Br116	Br	-0.301200	0.246068	0.960916
Br117	Br	-0.828494	-0.225114	0.855282
Br118	Br	-0.328494	0.274886	1.355282
H119	H	-1.046249	0.005393	0.687688
H120	H	-0.546249	0.505393	1.187688
Br121	Br	-0.810423	-0.244143	0.255517
Br122	Br	-0.310423	0.255857	0.755517
H123	H	-0.543405	-0.116350	0.174062
H124	H	-0.043405	0.383650	0.674062
Br125	Br	-0.146535	-0.113748	0.255918
Br126	Br	0.353465	0.386252	0.755918
H127	H	-1.056179	0.145439	0.071410
H128	H	-0.556179	0.645439	0.571410
H129	H	-0.332389	-0.102154	-0.047284
H130	H	0.167611	0.397846	0.452716
Br131	Br	-1.081040	0.321033	0.073076
Br132	Br	-0.581040	0.821033	0.573076
Br133	Br	-0.162570	-0.096814	-0.099850
Br134	Br	0.337430	0.403186	0.400150
H135	H	-0.785752	0.260459	0.053098
H136	H	-0.285752	0.760459	0.553098
H137	H	-0.320049	-0.115198	0.226548
H138	H	0.179951	0.384802	0.726548
H139	H	-1.039151	-0.002141	0.845784
H140	H	-0.539151	0.497859	1.345784
Br141	Br	-1.130504	0.503787	0.076394
Br142	Br	-0.630504	1.003787	0.576394
H143	H	-0.555740	-0.103323	-0.099762
H144	H	-0.055740	0.396677	0.400238
H145	H	-0.705071	-0.106293	-0.089676
H146	H	-0.205071	0.393707	0.410324
H147	H	-1.078035	0.669402	0.072868
H148	H	-0.578035	1.169402	0.572868
H149	H	-0.831616	0.487622	0.056192
H150	H	-0.331616	0.987622	0.556192
H151	H	-0.797753	0.112053	0.053918
H152	H	-0.297753	0.612053	0.553918
Br153	Br	-0.779152	0.653229	0.052657
Br154	Br	-0.279152	1.153229	0.552657
H155	H	-0.863926	-0.187572	0.675384
H156	H	-0.363926	0.312428	1.175384
Br157	Br	-1.047312	0.006559	0.271519
Br158	Br	-0.547312	0.506559	0.771519
Br159	Br	-1.038072	-0.003223	0.476916
Br160	Br	-0.538072	0.496777	0.976916
