data_functionalizedCrystal
_audit_creation_method	'MofGen! by Chris Wilmer'
_symmetry_space_group_name_H-M	'P1'
_symmetry_Int_Tables_number	1
_symmetry_cell_setting	triclinic
loop_
_symmetry_equiv_pos_as_xyz
  x,y,z
_cell_length_a	10.685976
_cell_length_b	10.685194
_cell_length_c	10.686551
_cell_angle_alpha	81.584560
_cell_angle_beta	89.651515
_cell_angle_gamma	90.347622
loop_
_atom_site_label
_atom_site_type_symbol
_atom_site_fract_x
_atom_site_fract_y
_atom_site_fract_z
Zn1	Zn	1.922252	-0.609709	-0.518955
Zn2	Zn	1.887530	-0.835439	-0.293307
Zn3	Zn	1.696574	-0.607341	-0.325497
Zn4	Zn	1.696608	-0.803214	-0.521403
O5	O	1.800741	-0.713926	-0.414791
O6	O	2.091995	-0.654130	-0.474526
O7	O	1.847653	-0.817677	-0.121156
O8	O	1.741028	-0.431213	-0.363606
O9	O	2.066484	-0.819973	-0.308744
O10	O	1.906833	-0.432952	-0.505739
O11	O	1.707359	-0.650094	-0.144805
O12	O	1.522230	-0.618847	-0.365980
O13	O	1.741086	-0.765050	-0.697500
O14	O	1.522255	-0.762754	-0.509912
O15	O	1.906866	-0.622882	-0.695701
O16	O	1.847686	-1.007607	-0.311118
O17	O	1.707417	-0.983931	-0.478699
C18	C	1.477036	-0.687047	-0.441705
C19	C	1.338554	-0.675577	-0.453248
C20	C	1.773824	-1.041520	-0.391706
C21	C	1.762426	-1.181672	-0.381863
C22	C	2.125710	-0.740910	-0.387771
C23	C	2.264193	-0.752409	-0.376257
C24	C	1.827853	-0.690636	-0.743624
C25	C	1.839406	-0.680711	-0.883753
C26	C	1.827800	-0.385054	-0.437990
C27	C	1.839331	-0.244908	-0.447876
C28	C	1.773814	-0.737041	-0.087237
C29	C	1.762531	-0.746630	0.052887
H30	H	1.306477	-0.826978	-0.301511
H31	H	1.914071	-0.616683	-0.936717
O32	O	1.928169	-1.181623	-0.524475
C33	C	1.908636	-1.202552	-0.650146
H34	H	1.806691	-1.230215	-0.662178
H35	H	1.931423	-1.112326	-0.717571
H36	H	1.971996	-1.282033	-0.672309
H37	H	1.687847	-1.234759	-0.317819
H38	H	1.296275	-0.601024	-0.528000
H39	H	1.687879	-0.810664	-0.894154
