data_functionalizedCrystal
_audit_creation_method	'MofGen! by Chris Wilmer'
_symmetry_space_group_name_H-M	'P1'
_symmetry_Int_Tables_number	1
_symmetry_cell_setting	triclinic
loop_
_symmetry_equiv_pos_as_xyz
  x,y,z
_cell_length_a	17.077404
_cell_length_b	12.759400
_cell_length_c	17.077396
_cell_angle_alpha	89.973580
_cell_angle_beta	89.982756
_cell_angle_gamma	90.014910
loop_
_atom_site_label
_atom_site_type_symbol
_atom_site_fract_x
_atom_site_fract_y
_atom_site_fract_z
Zn1	Zn	1.200082	-0.418251	-0.443859
Zn2	Zn	1.533415	-0.084918	-0.110525
Zn3	Zn	1.866749	0.248415	0.222808
Zn4	Zn	1.200013	-0.593954	-0.312599
Zn5	Zn	1.533346	-0.260621	0.020734
Zn6	Zn	1.866680	0.072712	0.354068
Zn7	Zn	1.068819	-0.418291	-0.312606
Zn8	Zn	1.402152	-0.084957	0.020727
Zn9	Zn	1.735486	0.248376	0.354060
Zn10	Zn	1.068800	-0.593890	-0.443823
Zn11	Zn	1.402134	-0.260556	-0.110489
Zn12	Zn	1.735467	0.072777	0.222844
O13	O	1.134429	-0.506097	-0.378222
O14	O	1.467762	-0.172763	-0.044888
O15	O	1.801095	0.160570	0.288445
O16	O	1.309920	-0.441569	-0.426459
O17	O	1.643253	-0.108236	-0.093125
O18	O	1.976586	0.225097	0.240208
O19	O	1.182589	-0.570696	-0.202753
O20	O	1.515922	-0.237363	0.130580
O21	O	1.849255	0.095971	0.463914
O22	O	1.086268	-0.271264	-0.330035
O23	O	1.419601	0.062069	0.003298
O24	O	1.752934	0.395402	0.336631
O25	O	1.309869	-0.570658	-0.330023
O26	O	1.643202	-0.237324	0.003310
O27	O	1.976536	0.096009	0.336644
O28	O	1.182706	-0.271236	-0.426466
O29	O	1.516039	0.062098	-0.093132
O30	O	1.849373	0.395431	0.240201
O31	O	1.086201	-0.441637	-0.202759
O32	O	1.419534	-0.108303	0.130575
O33	O	1.752868	0.225030	0.463908
O34	O	0.958970	-0.441574	-0.330001
O35	O	1.292303	-0.108240	0.003333
O36	O	1.625636	0.225093	0.336666
O37	O	1.086236	-0.570547	-0.553674
O38	O	1.419570	-0.237214	-0.220341
O39	O	1.752903	0.096120	0.112992
O40	O	0.958956	-0.570585	-0.426405
O41	O	1.292289	-0.237252	-0.093071
O42	O	1.625623	0.096081	0.240262
O43	O	1.182688	-0.441506	-0.553701
O44	O	1.516022	-0.108173	-0.220367
O45	O	1.849355	0.225160	0.112966
O46	O	1.182571	-0.740967	-0.329988
O47	O	1.515904	-0.407634	0.003345
O48	O	1.849237	-0.074300	0.336678
O49	O	1.086170	-0.740919	-0.426398
O50	O	1.419503	-0.407586	-0.093064
O51	O	1.752836	-0.074252	0.240269
C52	C	0.930481	-0.506077	-0.378200
C53	C	1.263814	-0.172744	-0.044867
C54	C	1.597147	0.160589	0.288467
C55	C	0.843231	-0.506095	-0.378209
C56	C	1.176564	-0.172761	-0.044876
C57	C	1.509898	0.160572	0.288457
C58	C	0.802254	-0.573372	-0.428326
C59	C	1.135588	-0.240039	-0.094993
C60	C	1.468921	0.093294	0.238340
C61	C	0.720274	-0.573375	-0.428339
C62	C	1.053607	-0.240041	-0.095006
C63	C	1.386940	0.093292	0.238328
C64	C	0.679271	-0.506104	-0.378230
C65	C	1.012605	-0.172770	-0.044897
C66	C	1.345938	0.160563	0.288437
C67	C	0.720254	-0.438819	-0.328111
C68	C	1.053587	-0.105485	0.005223
C69	C	1.386921	0.227848	0.338556
C70	C	0.802233	-0.438812	-0.328103
C71	C	1.135566	-0.105478	0.005231
C72	C	1.468899	0.227855	0.338564
C73	C	0.549384	-0.438839	-0.328130
C74	C	0.882717	-0.105506	0.005204
C75	C	1.216050	0.227827	0.338537
C76	C	0.467399	-0.438847	-0.328136
C77	C	0.800733	-0.105514	0.005197
C78	C	1.134066	0.227820	0.338530
C79	C	0.467425	-0.573402	-0.428366
C80	C	0.800758	-0.240069	-0.095033
C81	C	1.134091	0.093265	0.238301
C82	C	0.549404	-0.573395	-0.428358
C83	C	0.882737	-0.240062	-0.095025
C84	C	1.216070	0.093271	0.238309
C85	C	0.590380	-0.506111	-0.378237
C86	C	0.923714	-0.172778	-0.044904
C87	C	1.257047	0.160555	0.288429
C88	C	1.134382	-0.779064	-0.378205
C89	C	1.467715	-0.445731	-0.044872
C90	C	1.801049	-0.112397	0.288461
C91	C	1.134434	-0.895841	-0.378225
C92	C	1.467767	-0.562507	-0.044891
C93	C	1.801101	-0.229174	0.288442
C94	C	1.184686	-0.950692	-0.328080
C95	C	1.518019	-0.617359	0.005254
C96	C	1.851352	-0.284026	0.338587
C97	C	1.184734	-1.060416	-0.328104
C98	C	1.518067	-0.727083	0.005229
C99	C	1.851401	-0.393750	0.338563
C100	C	1.084272	-1.060427	-0.428420
C101	C	1.417605	-0.727094	-0.095087
C102	C	1.750938	-0.393760	0.238247
C103	C	1.084228	-0.950705	-0.428399
C104	C	1.417561	-0.617372	-0.095066
C105	C	1.750895	-0.284038	0.238267
C106	C	1.234891	-0.895828	-0.277905
C107	C	1.568225	-0.562495	0.055428
C108	C	1.901558	-0.229161	0.388762
C109	C	1.285147	-0.950680	-0.227755
C110	C	1.618480	-0.617347	0.105578
C111	C	1.951813	-0.284013	0.438911
C112	C	1.285195	-1.060404	-0.227780
C113	C	1.618528	-0.727071	0.105554
C114	C	1.951862	-0.393737	0.438887
C115	C	1.234988	-1.115276	-0.277954
C116	C	1.568321	-0.781943	0.055380
C117	C	1.901655	-0.448609	0.388713
C118	C	1.339173	-0.506116	-0.378244
C119	C	1.672506	-0.172783	-0.044911
C120	C	2.005839	0.160550	0.288423
C121	C	1.426423	-0.506125	-0.378253
C122	C	1.759756	-0.172792	-0.044920
C123	C	2.093089	0.160542	0.288413
C124	C	1.134468	-0.506015	-0.582966
C125	C	1.467801	-0.172682	-0.249633
C126	C	1.801135	0.160652	0.083701
C127	C	1.134485	-0.505980	-0.670216
C128	C	1.467818	-0.172647	-0.336883
C129	C	1.801151	0.160686	-0.003549
C130	C	1.134497	-0.232063	-0.378255
C131	C	1.467830	0.101270	-0.044922
C132	C	1.801163	0.434603	0.288411
C133	C	1.134526	-0.115287	-0.378270
C134	C	1.467859	0.218047	-0.044936
C135	C	1.801192	0.551380	0.288397
C136	C	1.084311	-0.438771	-0.711208
C137	C	1.417644	-0.105438	-0.377875
C138	C	1.750978	0.227895	-0.044542
C139	C	1.084324	-0.438747	-0.793189
C140	C	1.417657	-0.105414	-0.459855
C141	C	1.750990	0.227919	-0.126522
C142	C	1.134515	-0.505928	-0.834175
C143	C	1.467848	-0.172595	-0.500842
C144	C	1.801182	0.160738	-0.167509
C145	C	1.184691	-0.573145	-0.793177
C146	C	1.518024	-0.239812	-0.459844
C147	C	1.851358	0.093522	-0.126511
C148	C	1.184674	-0.573173	-0.711198
C149	C	1.518007	-0.239840	-0.377865
C150	C	1.851340	0.093493	-0.044532
C151	C	1.184725	-0.573079	-0.964047
C152	C	1.518058	-0.239746	-0.630714
C153	C	1.851392	0.093587	-0.297381
C154	C	1.184743	-0.573050	-1.046032
C155	C	1.518077	-0.239716	-0.712699
C156	C	1.851410	0.093617	-0.379365
C157	C	1.084375	-0.438653	-1.046038
C158	C	1.417708	-0.105320	-0.712705
C159	C	1.751042	0.228013	-0.379371
C160	C	1.084358	-0.438682	-0.964059
C161	C	1.417691	-0.105348	-0.630726
C162	C	1.751024	0.227985	-0.297392
C163	C	1.134535	-0.505897	-0.923066
C164	C	1.467868	-0.172564	-0.589733
C165	C	1.801202	0.160769	-0.256400
C166	C	1.134434	-0.506102	-0.174274
C167	C	1.467768	-0.172768	0.159059
C168	C	1.801101	0.160565	0.492393
C169	C	1.134570	-0.505840	-0.087025
C170	C	1.467903	-0.172507	0.246309
C171	C	1.801236	0.160826	0.579642
H172	H	0.434017	-0.384057	-0.287342
H173	H	0.767351	-0.050723	0.045991
H174	H	1.100684	0.282610	0.379324
F175	F	1.234788	-1.232055	-0.277723
F176	F	1.568121	-0.898721	0.055611
F177	F	1.901455	-0.565388	0.388944
H178	H	0.835632	-0.628156	-0.469129
H179	H	1.168966	-0.294822	-0.135795
H180	H	1.502299	0.038511	0.197538
F181	F	0.676667	-0.644981	-0.481681
F182	F	1.010000	-0.311647	-0.148348
F183	F	1.343334	0.021686	0.184986
H184	H	1.043464	-0.384023	-0.826561
H185	H	1.376798	-0.050689	-0.493228
H186	H	1.710131	0.282644	-0.159894
H187	H	1.043491	-0.383972	-0.930690
H188	H	1.376825	-0.050639	-0.597356
H189	H	1.710158	0.282694	-0.264023
H190	H	0.835595	-0.384022	-0.287296
H191	H	1.168928	-0.050688	0.046037
H192	H	1.502262	0.282645	0.379370
H193	H	1.043309	-0.906044	-0.469233
H194	H	1.376642	-0.572711	-0.135899
H195	H	1.709976	-0.239377	0.197434
F196	F	0.423814	-0.645000	-0.481717
F197	F	0.757147	-0.311666	-0.148384
F198	F	1.090480	0.021667	0.184950
H199	H	1.326121	-1.105062	-0.186951
H200	H	1.659454	-0.771728	0.146382
H201	H	1.992787	-0.438395	0.479715
H202	H	0.582786	-0.628179	-0.469157
H203	H	0.916119	-0.294846	-0.135823
H204	H	1.249452	0.038488	0.197510
F205	F	0.592992	-0.367226	-0.274786
F206	F	0.926326	-0.033893	0.058547
F207	F	1.259659	0.299441	0.391880
F208	F	1.030840	-1.118829	-0.481813
F209	F	1.364174	-0.785496	-0.148480
F210	F	1.697507	-0.452162	0.184853
F211	F	0.676614	-0.367217	-0.274786
F212	F	1.009947	-0.033884	0.058548
F213	F	1.343281	0.299450	0.391881
F214	F	1.030894	-0.367262	-0.667594
F215	F	1.364227	-0.033928	-0.334261
F216	F	1.697560	0.299405	-0.000928
H217	H	1.234856	-0.806485	-0.277878
H218	H	1.568189	-0.473152	0.055456
H219	H	1.901522	-0.139819	0.388789
F220	F	1.338584	-0.892280	-0.174367
F221	F	1.671917	-0.558947	0.158967
F222	F	2.005250	-0.225614	0.492300
H223	H	1.043520	-0.383923	-1.079418
H224	H	1.376853	-0.050589	-0.746085
H225	H	1.710187	0.282744	-0.412751
F226	F	1.238167	-0.644545	-1.089652
F227	F	1.571500	-0.311212	-0.756318
F228	F	1.904833	0.022121	-0.422985
H229	H	1.225591	-0.627804	-0.930674
H230	H	1.558925	-0.294471	-0.597341
H231	H	1.892258	0.038863	-0.264007
H232	H	1.225553	-0.627850	-0.826555
H233	H	1.558887	-0.294517	-0.493222
H234	H	1.892220	0.038817	-0.159889
H235	H	1.225536	-0.627894	-0.677823
H236	H	1.558869	-0.294561	-0.344490
H237	H	1.892203	0.038773	-0.011157
