data_functionalizedCrystal
_audit_creation_method	'MofGen! by Chris Wilmer'
_symmetry_space_group_name_H-M	'P1'
_symmetry_Int_Tables_number	1
_symmetry_cell_setting	triclinic
loop_
_symmetry_equiv_pos_as_xyz
  x,y,z
_cell_length_a	20.875641
_cell_length_b	15.698487
_cell_length_c	20.875625
_cell_angle_alpha	61.744739
_cell_angle_beta	92.966338
_cell_angle_gamma	57.588940
loop_
_atom_site_label
_atom_site_type_symbol
_atom_site_fract_x
_atom_site_fract_y
_atom_site_fract_z
Zr1	Zr	0.638201	0.870199	-0.060755
O2	O	0.526136	1.058835	-0.167286
O3	O	0.672555	0.689140	-0.028100
O4	O	0.665328	0.867558	-0.162183
O5	O	0.539063	0.879858	0.072567
O6	O	0.775126	0.856857	-0.158157
O7	O	0.533362	0.880416	-0.033202
O8	O	0.788053	0.537699	0.081694
O9	O	0.526136	1.199016	-0.167283
O10	O	0.769147	0.752820	-0.011166
O11	O	0.691460	0.760390	0.064764
O12	O	0.682952	0.970454	-0.093102
O13	O	0.605266	0.978024	-0.017173
Zr14	Zr	0.822407	0.852242	0.114357
Zr15	Zr	0.813315	0.853132	-0.054333
Zr16	Zr	0.647292	0.869309	0.107935
Zr17	Zr	0.638201	1.093772	-0.060752
Zr18	Zr	0.822407	0.628669	0.114353
O19	O	0.788053	1.033302	0.081702
O20	O	0.775126	1.034567	-0.158153
O21	O	0.539063	1.057569	0.072570
O22	O	0.934471	0.663607	0.220887
O23	O	0.921545	0.664872	-0.018968
O24	O	0.685481	0.687874	0.211755
O25	O	0.921545	0.842583	-0.018965
O26	O	0.795279	0.854884	0.215785
O27	O	0.685481	0.865585	0.211758
O28	O	0.927245	0.842025	0.086804
O29	O	0.665328	1.185450	-0.162178
O30	O	0.795279	0.536992	0.215780
O31	O	0.934471	0.523426	0.220885
O32	O	0.927245	0.524133	0.086799
O33	O	0.533362	1.198308	-0.033197
O34	O	0.672555	1.184742	-0.028092
O35	O	0.777655	0.751987	0.146704
O36	O	0.855342	0.744418	0.070774
O37	O	0.769147	0.962052	-0.011162
O38	O	0.691460	0.969621	0.064767
C39	C	0.730304	0.581565	0.026796
C40	C	0.730304	0.486652	0.026795
C41	C	0.511262	0.882569	0.018767
C42	C	0.436922	0.889814	0.016041
C43	C	0.446987	0.779619	0.057526
C44	C	0.377133	0.786434	0.054962
C45	C	0.297215	0.903446	0.010908
C46	C	0.287151	1.013650	-0.030578
C47	C	0.357005	1.006834	-0.028009
C48	C	0.083475	0.936015	-0.001356
C49	C	0.013621	0.942823	-0.003924
C50	C	0.103607	0.715605	0.081618
C51	C	0.173458	0.708799	0.084178
C52	C	0.163389	0.819003	0.042696
N53	N	0.225812	0.910415	0.008285
N54	N	0.234791	0.812033	0.045325
C55	C	0.730302	0.312870	0.026808
C56	C	0.730301	0.409575	0.026803
C57	C	0.949345	0.839872	0.034835
C58	C	1.023686	0.832627	0.037561
C59	C	0.718932	0.862334	-0.184205
C60	C	0.715072	0.862712	-0.255818
C61	C	0.730304	1.140876	0.026806
C62	C	0.730304	1.235789	0.026807
C63	C	0.773747	0.856995	-0.287244
C64	C	0.770123	0.857340	-0.354528
C65	C	0.707820	0.863409	-0.390389
C66	C	0.649142	0.869123	-0.358957
C67	C	0.652771	0.868769	-0.291671
C68	C	0.690486	0.865090	-0.591862
C69	C	0.686860	0.865446	-0.659154
C70	C	0.807842	0.853661	-0.654719
C71	C	0.811462	0.853315	-0.587435
C72	C	0.752787	0.859022	-0.556007
N73	N	0.704113	0.863765	-0.459166
N74	N	0.756499	0.858657	-0.487228
C75	C	0.741676	0.860107	0.237807
C76	C	0.745535	0.859730	0.309420
C77	C	0.949345	0.560217	0.034830
C78	C	1.023686	0.458059	0.037555
C79	C	0.741676	0.580452	0.237802
C80	C	0.745535	0.485161	0.309414
C81	C	0.960717	0.559103	0.245835
C82	C	1.038917	0.456568	0.320174
C83	C	0.499891	1.163338	-0.192234
C84	C	0.421691	1.265874	-0.266572
C85	C	0.511262	1.162225	0.018772
C86	C	0.436922	1.264383	0.016047
C87	C	0.718932	1.141990	-0.184200
C88	C	0.715072	1.237280	-0.255812
C89	C	1.013604	0.414470	-0.003944
C90	C	1.083447	0.318495	-0.001400
C91	C	1.163372	0.266104	0.042648
C92	C	1.173452	0.309701	0.084149
C93	C	1.103609	0.405681	0.081599
C94	C	0.792341	0.436026	0.385822
C95	C	0.795964	0.346503	0.453115
C96	C	0.752787	0.306111	0.443998
C97	C	0.705975	0.355256	0.367582
C98	C	0.702347	0.444783	0.300290
C99	C	1.116199	0.404464	0.315450
C100	C	1.189683	0.308132	0.385292
C101	C	1.185882	0.263900	0.459858
C102	C	1.108592	0.316014	0.464580
C103	C	1.035110	0.412349	0.394738
C104	C	0.344408	1.317989	-0.261848
C105	C	0.270924	1.414348	-0.331690
C106	C	0.274725	1.458585	-0.406256
C107	C	0.352016	1.406465	-0.410978
C108	C	0.425498	1.310114	-0.341137
C109	C	0.447003	1.307980	0.057539
C110	C	0.377159	1.403980	0.054976
C111	C	0.297234	1.456375	0.010925
C112	C	0.287154	1.412773	-0.030572
C113	C	0.356997	1.316781	-0.028013
C114	C	0.758260	1.277643	-0.246669
C115	C	0.754650	1.367165	-0.313949
C116	C	0.707847	1.416329	-0.390371
C117	C	0.664658	1.375958	-0.399512
C118	C	0.668274	1.286431	-0.332232
H119	H	0.512057	0.684334	0.093402
Br120	Br	0.849757	0.849575	-0.397177
H121	H	0.355100	1.442495	-0.471698
Br122	Br	0.638823	0.511452	0.196595
H123	H	-0.051455	1.038113	-0.039801
Br124	Br	0.813264	1.421941	-0.301525
H125	H	0.222076	1.108924	-0.066443
Br126	Br	1.285617	0.133156	0.554637
Br127	Br	0.896014	0.845085	-0.538768
H128	H	0.240370	1.534537	0.008849
H129	H	0.348777	1.281287	-0.061799
Br130	Br	1.258151	0.135845	0.046100
Br131	Br	0.573142	0.876516	-0.249017
H132	H	0.512076	1.265328	0.093416
H133	H	0.488422	1.267683	-0.344992
Br134	Br	0.178678	1.483890	-0.090350
H135	H	0.827502	0.468903	0.393260
H136	H	0.834086	0.306499	0.515330
Br137	Br	0.339227	1.257972	-0.160661
H138	H	0.948530	0.457126	-0.039823
H139	H	0.972186	0.454761	0.398596
Br140	Br	0.390859	1.463130	0.111301
Br141	Br	1.294566	0.237424	0.378865
Br142	Br	0.166042	1.485059	-0.325263
Br143	Br	0.281916	0.549991	0.143965
Br144	Br	0.821784	1.210940	-0.142962
Br145	Br	1.103448	0.255971	0.565783
Br146	Br	0.647382	0.300424	0.355222
Br147	Br	0.702948	1.537833	-0.481671
Br148	Br	0.601136	1.442704	-0.503233
H149	H	0.633101	1.253578	-0.339688
Br150	Br	0.174991	1.589350	-0.501035
Br151	Br	1.069747	0.259346	-0.057725
Br152	Br	0.757719	0.184607	0.535333
Br153	Br	1.281928	0.238582	0.143928
H154	H	0.385336	0.696701	0.088745
Br155	Br	0.069801	1.085578	-0.057655
Br156	Br	0.564591	0.877347	-0.407618
H157	H	0.111796	0.625884	0.115391
Br158	Br	1.121381	0.464477	0.214263
Br159	Br	0.343344	1.156391	-0.084306
H160	H	0.824478	0.852060	-0.258053
H161	H	0.855614	0.849013	-0.680314
Br162	Br	0.602295	0.873692	-0.707822
H163	H	0.642709	0.869739	-0.566280
Br164	Br	1.117308	0.464818	0.137931
