data_functionalizedCrystal
_audit_creation_method	'MofGen! by Chris Wilmer'
_symmetry_space_group_name_H-M	'P1'
_symmetry_Int_Tables_number	1
_symmetry_cell_setting	triclinic
loop_
_symmetry_equiv_pos_as_xyz
  x,y,z
_cell_length_a	12.811445
_cell_length_b	14.044190
_cell_length_c	11.892095
_cell_angle_alpha	94.240074
_cell_angle_beta	80.666316
_cell_angle_gamma	88.597571
loop_
_atom_site_label
_atom_site_type_symbol
_atom_site_fract_x
_atom_site_fract_y
_atom_site_fract_z
O1	O	1.420303	0.112366	-0.239606
O2	O	1.920303	0.612366	0.260394
O3	O	1.113967	0.128263	-0.208208
O4	O	1.613967	0.628263	0.291792
O5	O	1.262532	-0.017657	-0.223413
O6	O	1.762532	0.482343	0.276587
O7	O	1.271738	0.258285	-0.224401
O8	O	1.771738	0.758285	0.275599
O9	O	1.250143	-0.005509	-0.034137
O10	O	1.750143	0.494491	0.465863
O11	O	1.101578	0.140410	-0.018933
O12	O	1.601578	0.640410	0.481067
O13	O	1.407915	0.124514	-0.050330
O14	O	1.907915	0.624514	0.449670
Zn15	Zn	1.252779	0.134391	-0.004580
Zn16	Zn	1.752779	0.634391	0.495420
Zn17	Zn	1.269102	0.118385	-0.253958
Zn18	Zn	1.769102	0.618385	0.246042
O19	O	1.259350	0.270433	-0.035126
O20	O	1.759350	0.770433	0.464874
C21	C	1.068331	0.133817	-0.109528
C22	C	1.568331	0.633817	0.390472
C23	C	0.950807	0.132258	-0.097481
C24	C	1.450807	0.632258	0.402519
C25	C	0.743472	0.116100	-0.281214
C26	C	1.243472	0.616100	0.218786
C27	C	0.633048	0.114635	-0.269900
C28	C	1.133048	0.614635	0.230100
C29	C	0.619533	0.127869	-0.063541
C30	C	1.119533	0.627869	0.436459
C31	C	0.729957	0.129334	-0.074855
C32	C	1.229957	0.629334	0.425145
C33	C	0.791923	0.123448	-0.183695
C34	C	1.291923	0.623448	0.316305
C35	C	0.902349	0.124906	-0.195007
C36	C	1.402349	0.624906	0.304993
C37	C	0.888832	0.138147	0.011351
C38	C	1.388832	0.638147	0.511351
C39	C	0.778408	0.136682	0.022665
C40	C	1.278408	0.636682	0.522665
C41	C	1.252310	-0.046887	-0.128359
C42	C	1.752310	0.453113	0.371641
C43	C	1.240299	-0.152080	-0.127118
C44	C	1.740299	0.347920	0.372882
C45	C	1.303525	-0.402537	-0.133643
C46	C	1.803525	0.097463	0.366357
C47	C	1.218361	-0.344682	-0.124906
C48	C	1.718361	0.155318	0.375094
C49	C	1.230571	-0.237509	-0.126137
C50	C	1.730571	0.262491	0.373863
C51	C	1.291318	-0.509720	-0.132412
C52	C	1.791318	-0.009720	0.367588
C53	C	1.453551	0.118959	-0.149013
C54	C	1.953551	0.618959	0.350987
C55	C	1.571075	0.120518	-0.161067
C56	C	2.071075	0.620518	0.338933
C57	C	1.269571	0.299663	-0.130182
C58	C	1.769571	0.799663	0.369818
C59	C	1.281582	0.404856	-0.131430
C60	C	1.781582	0.904856	0.368570
N61	N	1.241647	0.145313	0.165613
N62	N	1.741647	0.645313	0.665613
N63	N	1.280242	0.107455	-0.424153
N64	N	1.780242	0.607455	0.075847
C65	C	1.357700	0.031397	0.390384
C66	C	1.857700	0.531397	0.890384
C67	C	1.349927	0.039038	0.509521
C68	C	1.849927	0.539038	1.009521
C69	C	1.218323	0.168233	0.523028
C70	C	1.718323	0.668233	1.023028
C71	C	1.226096	0.160592	0.403891
C72	C	1.726096	0.660592	0.903891
C73	C	1.295788	0.092172	0.337573
C74	C	1.795788	0.592172	0.837573
C75	C	1.303566	0.084535	0.218433
C76	C	1.803566	0.584535	0.718433
C77	C	1.171957	0.213725	0.231942
C78	C	1.671957	0.713725	0.731942
C79	C	1.164184	0.221367	0.351079
C80	C	1.664184	0.721367	0.851079
H81	H	0.569062	0.132670	0.025072
H82	H	1.069062	0.632670	0.525072
H83	H	0.593603	0.108654	-0.349310
H84	H	1.093603	0.608654	0.150690
H85	H	1.107439	0.277071	0.405090
H86	H	1.607439	0.777071	0.905090
C87	C	0.710234	0.143154	0.142382
C88	C	1.210234	0.643154	0.642382
N89	N	0.658886	0.148025	0.232556
N90	N	1.158886	0.648025	0.732556
H91	H	0.928292	0.144128	0.090758
H92	H	1.428292	0.644128	0.590758
H93	H	0.952800	0.120113	-0.283631
H94	H	1.452800	0.620113	0.216369
C95	C	1.103849	0.280582	0.173840
C96	C	1.603849	0.780582	0.673840
N97	N	1.052554	0.330939	0.130077
N98	N	1.552554	0.830939	0.630077
C99	C	1.107473	-0.386504	-0.113542
C100	C	1.607473	0.113496	0.386458
N101	N	1.023954	-0.418008	-0.104978
N102	N	1.523954	0.081992	0.395022
C103	C	1.414404	-0.360713	-0.144979
C104	C	1.914404	0.139287	0.355021
N105	N	1.497917	-0.329199	-0.153508
N106	N	1.997917	0.170801	0.346492
C107	C	1.380224	0.009271	0.145484
C108	C	1.880224	0.509271	0.645484
N109	N	1.437962	-0.047424	0.090543
N110	N	1.937962	0.452576	0.590543
C111	C	1.418032	-0.027823	0.567610
C112	C	1.918032	0.472177	1.067610
N113	N	1.469329	-0.078187	0.611362
N114	N	1.969329	0.421813	1.111362
C115	C	0.811636	0.109622	-0.400937
C116	C	1.311636	0.609622	0.099063
N117	N	0.862977	0.104743	-0.491115
N118	N	1.362977	0.604743	0.008885
H119	H	1.414453	-0.024307	0.336386
H120	H	1.914453	0.475693	0.836386
H121	H	1.161574	0.223932	0.577041
H122	H	1.661574	0.723932	1.077041
