data_functionalizedCrystal
_audit_creation_method	'MofGen! by Chris Wilmer'
_symmetry_space_group_name_H-M	'P1'
_symmetry_Int_Tables_number	1
_symmetry_cell_setting	triclinic
loop_
_symmetry_equiv_pos_as_xyz
  x,y,z
_cell_length_a	10.685980
_cell_length_b	17.637651
_cell_length_c	10.686551
_cell_angle_alpha	75.377812
_cell_angle_beta	81.591741
_cell_angle_gamma	104.582338
loop_
_atom_site_label
_atom_site_type_symbol
_atom_site_fract_x
_atom_site_fract_y
_atom_site_fract_z
Zn1	Zn	1.931680	-0.183381	-0.802524
Zn2	Zn	1.863442	-0.331597	-0.538388
Zn3	Zn	1.695146	-0.206152	-0.566019
Zn4	Zn	1.667593	-0.331518	-0.734326
O5	O	1.789465	-0.263162	-0.660314
O6	O	2.103581	-0.193545	-0.784463
O7	O	1.824090	-0.324520	-0.361074
O8	O	1.766612	-0.088636	-0.637497
O9	O	2.053447	-0.302439	-0.590403
O10	O	1.940392	-0.071906	-0.811256
O11	O	1.700444	-0.232356	-0.381375
O12	O	1.510538	-0.232278	-0.571368
O13	O	1.719652	-0.302304	-0.924352
O14	O	1.490295	-0.324384	-0.695022
O15	O	1.913675	-0.193468	-0.974457
O16	O	1.797373	-0.446082	-0.524274
O17	O	1.653484	-0.446023	-0.668229
C18	C	1.453497	-0.280794	-0.628794
C19	C	1.309764	-0.288356	-0.615333
C20	C	1.715072	-0.475737	-0.585885
C21	C	1.683368	-0.566669	-0.554098
C22	C	2.031191	-0.821881	-0.902283
C23	C	2.001358	-0.907329	-0.872388
C24	C	1.820496	-0.924860	-0.691303
C25	C	1.850318	-0.839412	-0.721179
C26	C	1.955666	-0.787929	-0.826671
C27	C	1.774793	-0.805460	-0.645567
C28	C	1.804609	-0.720019	-0.675445
C29	C	1.909950	-0.668531	-0.780935
C30	C	1.985483	-0.702488	-0.856549
C31	C	1.669439	-0.856944	-0.540081
C32	C	1.593914	-0.822992	-0.464469
C33	C	1.623736	-0.737550	-0.494341
C34	C	1.729077	-0.686062	-0.599831
C35	C	1.548204	-0.703592	-0.418727
C36	C	1.578020	-0.618152	-0.448605
C37	C	1.758893	-0.600621	-0.629709
C38	C	2.126745	-0.245461	-0.691959
C39	C	2.270474	-0.237918	-0.705443
C40	C	1.821201	-0.245337	-0.997642
C41	C	1.834726	-0.237741	-1.141391
C42	C	1.864187	-0.049754	-0.735066
C43	C	1.896029	0.041188	-0.766921
C44	C	1.757947	-0.280854	-0.324327
C45	C	1.744754	-0.288206	-0.180683
H46	H	1.844687	-0.558701	-0.715603
O47	O	1.640666	-0.346723	-1.089483
C48	C	1.688524	-0.399795	-0.999790
H49	H	1.794756	-0.366844	-0.998999
H50	H	1.686333	-0.456969	-1.031847
C51	C	1.469785	-0.465518	-0.860546
C52	C	1.600256	-0.425044	-0.859567
H53	H	1.415335	-0.481097	-0.774051
H54	H	1.437540	-0.429765	-0.920976
H55	H	1.467978	-0.513158	-0.887267
H56	H	1.602064	-0.377400	-0.832863
H57	H	1.632499	-0.460790	-0.799129
H58	H	1.233434	-0.337325	-0.527876
H59	H	1.934225	-0.598960	-0.805260
O60	O	1.445786	-0.753489	-0.316253
C61	C	1.385540	-0.705199	-0.255898
H62	H	1.407266	-0.641721	-0.329737
H63	H	1.426904	-0.698817	-0.165338
C64	C	1.207820	-0.824787	-0.121869
C65	C	1.234495	-0.746823	-0.212563
H66	H	1.114650	-0.850463	-0.095132
H67	H	1.248411	-0.857321	-0.162527
H68	H	1.242300	-0.819457	-0.046413
H69	H	1.200030	-0.752154	-0.288023
H70	H	1.193895	-0.714290	-0.171916
O71	O	1.361686	-0.179567	-0.809725
C72	C	1.489706	-0.184742	-0.800396
H73	H	1.481943	-0.249135	-0.737478
H74	H	1.538543	-0.137783	-0.752214
C75	C	1.583603	-0.087755	-1.017560
C76	C	1.574068	-0.166846	-0.940292
H77	H	1.635644	-0.076713	-1.103854
H78	H	1.497354	-0.084266	-1.023844
H79	H	1.624296	-0.048632	-0.977393
H80	H	1.533360	-0.205968	-0.980451
H81	H	1.660312	-0.170342	-0.934018
O82	O	2.087684	-0.652502	-0.959185
C83	C	2.064180	-0.668057	-1.078099
H84	H	1.953267	-0.696682	-1.066618
H85	H	2.119388	-0.712178	-1.101145
C86	C	2.249978	-0.551625	-1.206472
C87	C	2.113751	-0.586776	-1.192375
H88	H	2.280561	-0.501488	-1.276965
H89	H	2.265817	-0.541146	-1.126358
H90	H	2.295967	-0.588400	-1.225671
H91	H	2.067763	-0.550006	-1.173160
H92	H	2.097906	-0.597247	-1.272489
H93	H	2.116986	-0.779961	-0.988177
H94	H	2.062851	-0.934968	-0.933985
O95	O	1.718090	-0.974958	-0.588972
C96	C	1.624152	-1.024889	-0.637399
H97	H	1.674441	-1.030077	-0.735260
H98	H	1.541116	-0.996285	-0.654027
C99	C	1.504012	-1.104689	-0.415446
C100	C	1.565780	-1.111066	-0.535636
H101	H	1.468000	-1.157846	-0.352673
H102	H	1.567296	-1.071048	-0.382819
H103	H	1.434824	-1.080849	-0.429322
H104	H	1.634977	-1.134896	-0.521762
H105	H	1.502506	-1.144714	-0.568258
O106	O	1.938860	-0.179280	-1.232634
C107	C	1.929653	-0.184461	-1.360662
H108	H	1.822183	-0.215541	-1.360231
H109	H	1.994669	-0.222001	-1.390922
C110	C	2.108939	-0.059252	-1.460751
C111	C	1.976940	-0.097419	-1.460224
H112	H	2.138113	-0.005561	-1.522168
H113	H	2.115146	-0.055763	-1.374496
H114	H	2.163103	-0.090544	-1.485964
H115	H	1.922777	-0.066133	-1.434995
H116	H	1.970725	-0.100901	-1.546477
H117	H	1.645156	-0.926515	-0.515769
O118	O	1.491668	-0.873123	-0.362004
C119	C	1.481521	-0.955816	-0.351866
H120	H	1.581215	-0.959954	-0.399612
H121	H	1.402760	-0.980476	-0.404978
C122	C	1.319715	-1.002163	-0.145907
C123	C	1.442164	-1.007246	-0.204539
H124	H	1.295432	-1.033889	-0.055030
H125	H	1.326547	-0.946452	-0.152738
H126	H	1.254096	-1.022712	-0.190180
H127	H	1.507784	-0.986688	-0.160277
H128	H	1.435342	-1.062956	-0.197697
H129	H	1.516518	-0.590508	-0.387035
