data_functionalizedCrystal
_audit_creation_method	'MofGen! by Chris Wilmer'
_symmetry_space_group_name_H-M	'P1'
_symmetry_Int_Tables_number	1
_symmetry_cell_setting	triclinic
loop_
_symmetry_equiv_pos_as_xyz
  x,y,z
_cell_length_a	8.597366
_cell_length_b	23.532407
_cell_length_c	7.088929
_cell_angle_alpha	83.810936
_cell_angle_beta	103.954530
_cell_angle_gamma	84.099999
loop_
_atom_site_label
_atom_site_type_symbol
_atom_site_fract_x
_atom_site_fract_y
_atom_site_fract_z
O1	O	2.100119	0.078210	0.186939
O2	O	1.635289	0.087508	0.110362
O3	O	1.881725	-0.000053	0.150995
O4	O	1.853683	0.165771	0.146306
O5	O	1.914659	-0.011781	0.474401
O6	O	1.668223	0.075780	0.433768
O7	O	2.133053	0.066482	0.510344
Cu8	Cu	1.903645	0.070060	0.501585
Cu9	Cu	1.864697	0.083930	0.119121
O10	O	1.886617	0.154042	0.469711
C11	C	1.592299	0.081299	0.262270
C12	C	1.415134	0.080264	0.233085
C13	C	1.897478	-0.027134	0.312585
C14	C	1.895333	-0.090355	0.312247
C15	C	2.027693	-0.489254	0.333947
C16	C	2.025698	-0.548656	0.333604
O17	O	2.148400	-0.585212	0.353748
N18	N	1.879195	-0.571505	0.309470
C19	C	1.734675	-0.534946	0.285658
O20	O	1.609880	-0.559835	0.265097
C21	C	1.736671	-0.475544	0.285988
C22	C	1.883186	-0.452700	0.310143
C23	C	2.174196	-0.466409	0.358098
C24	C	2.176191	-0.407010	0.358445
C25	C	2.031684	-0.370457	0.334641
C26	C	1.885181	-0.393301	0.310490
C27	C	1.592152	-0.438986	0.262162
C28	C	1.594160	-0.379581	0.262492
C29	C	1.740675	-0.356736	0.286648
C30	C	1.742668	-0.297349	0.287032
N31	N	1.889172	-0.274501	0.311166
C32	C	2.033679	-0.311054	0.334970
C33	C	1.730495	-0.659695	0.284964
C34	C	1.728499	-0.719096	0.284648
C35	C	2.019522	-0.732802	0.332591
C36	C	2.021518	-0.673400	0.332920
C37	C	1.876999	-0.636846	0.309098
C38	C	2.037858	-0.186313	0.335698
C39	C	2.039841	-0.126909	0.336051
C40	C	1.748818	-0.113208	0.288099
C41	C	1.746835	-0.172607	0.287756
C42	C	1.891367	-0.209158	0.311551
O43	O	1.620030	-0.260758	0.266891
O44	O	2.158452	-0.286156	0.355502
C45	C	2.176043	0.072691	0.358432
C46	C	2.353206	0.073726	0.387604
C47	C	1.870863	0.181124	0.308117
C48	C	1.873007	0.244345	0.308443
N49	N	1.931051	0.060304	0.770592
N50	N	1.837304	0.093681	-0.149884
H51	H	1.332619	0.085066	0.078456
C52	C	2.062324	0.013577	0.902546
N53	N	2.161195	-0.021618	1.001934
H54	H	1.435732	0.068919	0.542244
C55	C	2.201025	-0.101784	0.362619
N56	N	2.322424	-0.082862	0.382624
C57	C	2.196853	-0.226512	0.361892
N58	N	2.316610	-0.256790	0.381638
C59	C	2.178483	-0.773022	0.358756
N60	N	2.298203	-0.803317	0.378459
H61	H	2.295498	-0.388416	0.378107
H62	H	1.740146	0.128268	0.752450
H63	H	2.140823	-0.654805	0.352588
C64	C	2.333183	-0.506610	0.384308
N65	N	2.452945	-0.536888	0.404072
H66	H	1.476471	-0.349821	0.243090
H67	H	1.609196	-0.737692	0.265013
H68	H	1.612804	-0.629936	0.265581
H69	H	1.472843	-0.457575	0.242481
C70	C	1.585664	-0.197737	0.261197
N71	N	1.464264	-0.216659	0.241171
H72	H	1.631165	-0.083435	0.268725
