data_functionalizedCrystal
_audit_creation_method	'MofGen! by Chris Wilmer'
_symmetry_space_group_name_H-M	'P1'
_symmetry_Int_Tables_number	1
_symmetry_cell_setting	triclinic
loop_
_symmetry_equiv_pos_as_xyz
  x,y,z
_cell_length_a	13.635800
_cell_length_b	27.923496
_cell_length_c	27.954368
_cell_angle_alpha	100.440068
_cell_angle_beta	99.360562
_cell_angle_gamma	81.036054
loop_
_atom_site_label
_atom_site_type_symbol
_atom_site_fract_x
_atom_site_fract_y
_atom_site_fract_z
V1	V	1.878239	-0.067793	-0.151576
O2	O	1.886204	0.002572	-0.148375
O3	O	1.843731	-0.133763	-0.150843
O4	O	1.800204	-0.067052	-0.217545
O5	O	1.930032	-0.064602	-0.081211
V6	V	2.128364	-0.059341	-0.143123
O7	O	1.990521	-0.086334	-0.170119
O8	O	2.241181	-0.040801	-0.124580
O9	O	2.051269	0.006628	-0.143856
O10	O	2.179098	-0.129707	-0.146324
O11	O	2.135270	-0.062533	-0.213488
O12	O	2.094796	-0.060083	-0.077154
V13	V	2.378239	-0.067793	-0.151576
O14	O	2.386204	0.002572	-0.148375
O15	O	2.343731	-0.133763	-0.150843
O16	O	2.300204	-0.067052	-0.217545
O17	O	2.430032	-0.064602	-0.081211
V18	V	2.628364	-0.059341	-0.143123
O19	O	2.490521	-0.086334	-0.170119
O20	O	2.741181	-0.040801	-0.124580
O21	O	2.551269	0.006628	-0.143856
O22	O	2.679098	-0.129707	-0.146324
O23	O	2.635270	-0.062533	-0.213488
O24	O	2.594796	-0.060083	-0.077154
C25	C	1.765466	-0.149836	-0.148530
C26	C	1.777536	-0.203769	-0.148370
C27	C	1.941131	-0.540703	-0.149865
C28	C	1.986541	-0.743410	-0.149288
O29	O	2.067803	-0.771735	-0.151303
N30	N	1.903560	-0.766274	-0.146781
C31	C	1.809218	-0.738458	-0.144422
O32	O	1.739678	-0.762557	-0.142282
C33	C	1.763808	-0.535753	-0.145003
C34	C	1.846797	-0.512891	-0.147505
C35	C	2.024113	-0.517841	-0.152367
C36	C	2.012761	-0.467167	-0.152509
C37	C	1.918428	-0.439355	-0.150148
C38	C	1.835446	-0.462217	-0.147646
C39	C	1.669466	-0.507939	-0.142647
C40	C	1.658121	-0.457260	-0.142794
C41	C	1.741110	-0.434398	-0.145296
C42	C	1.729761	-0.383731	-0.145428
N43	N	1.812742	-0.360867	-0.147934
C44	C	1.907075	-0.388679	-0.150294
C45	C	1.833066	-0.844881	-0.144116
C46	C	1.844419	-0.895557	-0.143970
C47	C	2.021740	-0.900505	-0.148837
C48	C	2.010388	-0.849828	-0.148979
C49	C	1.916047	-0.822017	-0.146623
C50	C	1.883229	-0.282260	-0.150591
C51	C	1.871869	-0.231581	-0.150731
C52	C	1.694548	-0.226637	-0.145867
C53	C	1.705907	-0.277312	-0.145725
C54	C	1.800255	-0.305122	-0.148089
O55	O	1.648529	-0.355377	-0.143419
O56	O	1.976598	-0.364573	-0.152445
C57	C	1.952483	-0.591377	-0.149723
C58	C	1.869501	-0.614239	-0.147221
C59	C	1.775167	-0.586427	-0.144861
C60	C	1.880853	-0.664915	-0.147075
C61	C	1.975187	-0.692727	-0.149436
C62	C	2.058168	-0.669864	-0.151942
C63	C	2.046816	-0.619190	-0.152084
C64	C	1.692186	-0.609291	-0.142354
C65	C	1.703546	-0.659965	-0.142212
C66	C	1.797879	-0.687777	-0.144573
C67	C	1.709943	-0.064738	-0.233615
C68	C	1.686714	-0.064568	-0.287547
C69	C	1.961206	0.022698	-0.146168
C70	C	1.938752	0.076631	-0.146330
C71	C	2.016730	-0.062398	-0.061082
C72	C	2.029579	-0.062566	-0.007149
C73	C	2.265466	-0.149836	-0.148530
C74	C	2.277536	-0.203769	-0.148370
C75	C	2.209853	-0.061216	0.380483
C76	C	2.161673	-0.060645	0.177776
O77	O	2.230896	-0.058485	0.153680
N78	N	2.066918	-0.063005	0.149948
C79	C	1.984200	-0.065504	0.172799
O80	O	1.902498	-0.067492	0.144478
C81	C	2.032379	-0.066070	0.375505
C82	C	2.127142	-0.063716	0.403331
C83	C	2.304608	-0.058861	0.408309
C84	C	2.316652	-0.059006	0.458982
C85	C	2.233941	-0.061506	0.481830
C86	C	2.139186	-0.063861	0.454004
C87	C	1.949662	-0.068566	0.398356
C88	C	1.961714	-0.068706	0.449037
C89	C	2.056477	-0.066352	0.476862
C90	C	2.068520	-0.066507	0.527525
N91	N	2.163275	-0.064147	0.555354
C92	C	2.245986	-0.061647	0.532506
C93	C	1.958912	-0.065207	0.066375
C94	C	1.946868	-0.065066	0.015698
C95	C	2.124341	-0.060207	0.020680
C96	C	2.136387	-0.060351	0.071357
C97	C	2.053668	-0.062848	0.094204
C98	C	2.271273	-0.061953	0.638923
C99	C	2.283311	-0.062100	0.689601
C100	C	2.105836	-0.066957	0.684615
C101	C	2.093799	-0.066812	0.633942
C102	C	2.176525	-0.064308	0.611098
O103	O	1.999342	-0.068660	0.551654
O104	O	2.327675	-0.059648	0.560837
C105	C	2.197808	-0.061071	0.329810
C106	C	2.103053	-0.063425	0.301985
C107	C	2.020343	-0.065926	0.324832
C108	C	2.091009	-0.063285	0.251308
C109	C	2.173720	-0.060784	0.228460
C110	C	2.268475	-0.058425	0.256289
C111	C	2.280519	-0.058570	0.306962
C112	C	1.925587	-0.068285	0.297003
C113	C	1.913550	-0.068140	0.246330
C114	C	1.996261	-0.065640	0.223482
C115	C	2.213432	-0.064746	0.766384
C116	C	2.200600	-0.064601	0.712448
C117	C	2.461206	0.022698	-0.146168
C118	C	2.438752	0.076631	-0.146330
C119	C	2.516730	-0.062398	-0.061082
C120	C	2.529579	-0.062566	-0.007149
C121	C	1.764438	-0.066918	-0.315358
C122	C	1.742625	-0.066752	-0.366032
C123	C	1.643089	-0.064239	-0.388895
C124	C	1.565359	-0.061888	-0.361080
C125	C	1.587172	-0.062050	-0.310406
C126	C	2.371869	-0.231581	-0.150731
C127	C	2.383222	-0.282258	-0.150588
C128	C	2.300241	-0.305122	-0.148082
C129	C	2.205899	-0.277307	-0.145723
C130	C	2.194547	-0.226631	-0.145869
C131	C	2.516911	0.104443	-0.143971
C132	C	2.495829	0.155120	-0.144116
C133	C	2.396586	0.177983	-0.146624
C134	C	2.318421	0.150168	-0.148982
C135	C	2.339505	0.099493	-0.148833
C136	C	2.446876	-0.065073	0.015701
C137	C	2.458932	-0.065225	0.066377
C138	C	2.553693	-0.062873	0.094201
C139	C	2.636402	-0.060364	0.071348
C140	C	2.624343	-0.060209	0.020673
H141	H	1.939454	-0.212969	-0.152766
H142	H	2.371966	-0.056823	0.389712
H143	H	1.581295	-0.434619	-0.140878
H144	H	2.138341	-0.295930	-0.143682
O145	O	2.125871	-0.547831	-0.154907
H146	H	2.122289	-0.576361	-0.188202
H147	H	2.369708	-0.066988	-0.006947
O148	O	2.357686	-0.055724	0.231643
H149	H	2.333377	-0.056014	0.191732
H150	H	2.563501	-0.063005	0.135462
O151	O	1.869688	-0.067899	0.091015
H152	H	1.883391	-0.101321	0.108667
H153	H	2.237617	0.168792	-0.151023
H154	H	1.625341	-0.064108	-0.430157
O155	O	2.255195	0.069498	-0.151384
H156	H	2.254815	0.040966	-0.184678
O157	O	1.592807	-0.196631	-0.143326
H158	H	1.565483	-0.199838	-0.108887
H159	H	1.523875	-0.060138	-0.287766
H160	H	2.439449	-0.212972	-0.152769
O161	O	2.484982	-0.312251	-0.153127
H162	H	2.507408	-0.330135	-0.119933
O163	O	2.373859	0.232641	-0.146787
H164	H	2.291719	0.243872	-0.148924
H165	H	2.309499	-0.346386	-0.147963
O166	O	1.847420	-0.071139	0.368395
H167	H	1.825105	-0.037961	0.350491
H168	H	2.391576	-0.067268	0.084977
H169	H	2.713555	-0.058447	0.094010
H170	H	2.357683	-0.056653	0.329614
H171	H	2.559486	0.177760	-0.142197
H172	H	1.836381	-0.070061	0.223678
H173	H	2.117729	-0.203989	-0.143944
H174	H	1.484316	-0.059842	-0.379702
H175	H	2.597726	0.085834	-0.141930
H176	H	1.869707	-0.066991	-0.006954
H177	H	2.691695	-0.058170	0.002072
H178	H	1.960054	-0.304898	-0.152517
H179	H	2.080340	-0.448559	-0.154549
H180	H	2.077967	-0.831217	-0.151015
H181	H	1.776841	-0.914165	-0.141927
O182	O	2.123490	-0.930507	-0.151385
H183	H	2.117431	-0.969585	-0.150866
H184	H	2.338639	-0.059915	0.620330
H185	H	2.134981	-0.692516	-0.153859
H186	H	1.601886	-0.526544	-0.140607
O187	O	1.731309	-0.814887	-0.141571
H188	H	1.675526	-0.839303	-0.139799
H189	H	2.016638	-0.068734	0.611284
O190	O	1.616404	-0.301975	-0.143025
H191	H	1.548900	-0.274119	-0.141410
H192	H	1.858231	-0.070321	0.315600
O193	O	2.136320	-0.594536	-0.154798
H194	H	2.203813	-0.622397	-0.156424
O195	O	1.614028	-0.684622	-0.139518
H196	H	1.546527	-0.656765	-0.137907
H197	H	1.615369	-0.586651	-0.140433
H198	H	2.360481	-0.060184	0.712254
H199	H	2.393815	-0.057087	0.481634
H200	H	2.213549	-0.058434	0.094009
O201	O	1.871798	-0.069621	-0.290703
H202	H	1.922167	-0.071219	-0.318560
H203	H	2.191687	-0.058173	0.002068
O204	O	1.826467	-0.069288	-0.396027
H205	H	1.899342	-0.071071	-0.371614
H206	H	2.038498	-0.068995	0.703227
O207	O	1.872497	-0.071403	0.473679
H208	H	1.804587	-0.073020	0.445813
