data_functionalizedCrystal
_audit_creation_method	'MofGen! by Chris Wilmer'
_symmetry_space_group_name_H-M	'P1'
_symmetry_Int_Tables_number	1
_symmetry_cell_setting	triclinic
loop_
_symmetry_equiv_pos_as_xyz
  x,y,z
_cell_length_a	12.837943
_cell_length_b	26.809956
_cell_length_c	12.837942
_cell_angle_alpha	89.994543
_cell_angle_beta	94.828940
_cell_angle_gamma	90.008566
loop_
_atom_site_label
_atom_site_type_symbol
_atom_site_fract_x
_atom_site_fract_y
_atom_site_fract_z
O1	O	1.402343	0.041470	0.272126
O2	O	1.099209	0.041473	0.258683
O3	O	1.244054	0.041469	0.113838
O4	O	1.257497	0.041475	0.416972
O5	O	1.244026	-0.041491	0.113860
O6	O	1.099181	-0.041486	0.258705
O7	O	1.402315	-0.041489	0.272148
Zn8	Zn	1.250743	-0.054659	0.265430
Zn9	Zn	1.250780	0.054643	0.265401
O10	O	1.257470	-0.041485	0.416993
C11	C	1.060126	-0.000006	0.254153
C12	C	0.943711	-0.000005	0.240608
N13	N	1.250726	-0.129255	0.265449
C14	C	0.718837	-0.000009	0.403437
C15	C	0.609454	-0.000008	0.390716
C16	C	0.615562	-0.000007	0.202445
C17	C	0.724944	-0.000007	0.215166
C18	C	0.776578	-0.000008	0.315666
C19	C	0.885962	-0.000005	0.328386
C20	C	0.892067	-0.000007	0.140116
C21	C	0.782685	-0.000006	0.127395
C22	C	1.314910	-0.473883	0.201281
C23	C	1.314933	-0.682761	0.201267
O24	O	1.369463	-0.709766	0.146711
N25	N	1.250784	-0.708882	0.265379
C26	C	1.186618	-0.682781	0.329494
O27	O	1.132048	-0.709792	0.384016
C28	C	1.186590	-0.473904	0.329501
C29	C	1.250752	-0.447786	0.265393
C30	C	1.379066	-0.447764	0.137177
C31	C	1.379064	-0.395548	0.137185
C32	C	1.314906	-0.369451	0.201297
C33	C	1.250750	-0.395569	0.265401
C34	C	1.122420	-0.447804	0.393609
C35	C	1.122417	-0.395581	0.393603
C36	C	1.186579	-0.369463	0.329495
C37	C	1.186590	-0.317255	0.329521
N38	N	1.250740	-0.291134	0.265409
C39	C	1.314898	-0.317232	0.201297
C40	C	1.186639	-0.792444	0.329487
C41	C	1.186647	-0.844663	0.329486
C42	C	1.314961	-0.844639	0.201258
C43	C	1.314958	-0.792420	0.201265
C44	C	1.250789	-0.766323	0.265375
C45	C	1.314889	-0.207574	0.201320
C46	C	1.314884	-0.155353	0.201337
C47	C	1.186566	-0.155381	0.329561
C48	C	1.186575	-0.207597	0.329548
C49	C	1.250739	-0.233692	0.265419
O50	O	1.132080	-0.290218	0.384040
O51	O	1.369443	-0.290212	0.146766
C52	C	1.314913	-0.526099	0.201272
C53	C	1.250757	-0.552218	0.265376
C54	C	1.186599	-0.526121	0.329488
C55	C	1.250765	-0.604437	0.265376
C56	C	1.314923	-0.630535	0.201264
C57	C	1.379073	-0.604413	0.137152
C58	C	1.379071	-0.552197	0.137160
C59	C	1.122449	-0.552242	0.393600
C60	C	1.122457	-0.604458	0.393587
C61	C	1.186615	-0.630556	0.329475
C62	C	1.441398	-0.000009	0.276679
C63	C	1.557813	-0.000006	0.290223
C64	C	1.239499	-0.000011	0.074780
C65	C	1.225954	-0.000010	-0.041635
N66	N	1.250805	0.129239	0.265375
C67	C	1.388784	-0.000001	-0.266510
C68	C	1.376062	0.000000	-0.375892
C69	C	1.187791	-0.000003	-0.369785
C70	C	1.200513	-0.000004	-0.260402
C71	C	1.301012	-0.000004	-0.208769
C72	C	1.313732	-0.000008	-0.099384
C73	C	1.125462	-0.000008	-0.093279
C74	C	1.112741	-0.000007	-0.202661
C75	C	1.262025	-0.000004	0.456052
C76	C	1.275569	-0.000002	0.572467
H77	H	0.928000	-0.000006	0.410218
Cl78	Cl	1.041740	-0.362778	0.474203
Cl79	Cl	0.550633	-0.000013	0.076113
Cl80	Cl	0.717764	-0.000007	0.001059
Cl81	Cl	1.440073	-0.000011	-0.034474
Cl82	Cl	0.536869	-0.000011	0.501063
Cl83	Cl	1.015114	-0.000018	-0.020684
H84	H	0.760878	-0.000008	0.485268
H85	H	0.939092	-0.000002	0.068646
H86	H	1.070202	-0.530997	0.445806
Cl87	Cl	1.395552	-0.122521	0.120740
H88	H	1.470614	-0.000005	-0.224469
H89	H	1.134384	-0.771200	0.381695
H90	H	1.367136	-0.228814	0.149099
Cl91	Cl	1.395614	-0.877458	0.120660
H92	H	1.431311	-0.469008	0.084964
H93	H	1.030917	-0.000005	-0.244717
H94	H	1.431307	-0.374285	0.084980
H95	H	1.367203	-0.771157	0.149062
Cl96	Cl	1.105999	-0.877492	0.410098
Cl97	Cl	1.041753	-0.480628	0.474203
Cl98	Cl	1.105924	-0.240431	0.410156
H99	H	1.134333	-0.134124	0.381763
Cl100	Cl	1.459734	-0.519369	0.056562
Cl101	Cl	1.061460	0.000011	-0.434714
Cl102	Cl	1.459731	-0.637232	0.056558
Cl103	Cl	1.041793	-0.637287	0.474193
H104	H	1.447536	0.000004	-0.422901
