data_functionalizedCrystal
_audit_creation_method	'MofGen! by Chris Wilmer'
_symmetry_space_group_name_H-M	'P1'
_symmetry_Int_Tables_number	1
_symmetry_cell_setting	triclinic
loop_
_symmetry_equiv_pos_as_xyz
  x,y,z
_cell_length_a	19.077105
_cell_length_b	12.594516
_cell_length_c	19.076919
_cell_angle_alpha	92.277239
_cell_angle_beta	90.076224
_cell_angle_gamma	87.712633
loop_
_atom_site_label
_atom_site_type_symbol
_atom_site_fract_x
_atom_site_fract_y
_atom_site_fract_z
Zn1	Zn	1.058319	-0.514930	-0.440450
Zn2	Zn	1.558319	-0.014930	0.059550
Zn3	Zn	1.062975	-0.686069	-0.322954
Zn4	Zn	1.562975	-0.186069	0.177046
Zn5	Zn	0.945535	-0.500672	-0.318243
Zn6	Zn	1.445535	-0.000672	0.181757
Zn7	Zn	0.940797	-0.685427	-0.435707
Zn8	Zn	1.440797	-0.185427	0.064293
O9	O	1.001907	-0.596775	-0.379338
O10	O	1.501907	-0.096775	0.120662
O11	O	1.157269	-0.543868	-0.428821
O12	O	1.657269	-0.043868	0.071179
O13	O	1.051328	-0.655777	-0.223998
O14	O	1.551328	-0.155777	0.276002
O15	O	0.960531	-0.353620	-0.334467
O16	O	1.460531	0.146380	0.165533
O17	O	1.160690	-0.669603	-0.342497
O18	O	1.660690	-0.169603	0.157503
O19	O	1.043393	-0.364096	-0.424253
O20	O	1.543393	0.135904	0.075747
O21	O	0.965046	-0.519567	-0.220536
O22	O	1.465046	-0.019567	0.279464
O23	O	0.846574	-0.518944	-0.329868
O24	O	1.346574	-0.018944	0.170132
O25	O	0.952455	-0.668509	-0.534668
O26	O	1.452455	-0.168509	-0.034668
O27	O	0.843093	-0.654683	-0.416168
O28	O	1.343093	-0.154683	0.083832
O29	O	1.038798	-0.543246	-0.538153
O30	O	1.538798	-0.043246	-0.038153
O31	O	1.046733	-0.834927	-0.337898
O32	O	1.546733	-0.334927	0.162102
O33	O	0.956969	-0.834455	-0.420737
O34	O	1.456969	-0.334455	0.079263
C35	C	0.819337	-0.585197	-0.371992
C36	C	1.319337	-0.085197	0.128008
C37	C	0.741233	-0.580271	-0.368866
C38	C	1.241233	-0.080271	0.131134
C39	C	0.702747	-0.648728	-0.412259
C40	C	1.202747	-0.148728	0.087741
C41	C	0.629360	-0.644085	-0.409325
C42	C	1.129360	-0.144085	0.090675
C43	C	0.594459	-0.570991	-0.362994
C44	C	1.094459	-0.070991	0.137006
C45	C	0.632949	-0.502527	-0.319600
C46	C	1.132949	-0.002527	0.180400
C47	C	0.706335	-0.507165	-0.322538
C48	C	1.206335	-0.007165	0.177462
C49	C	0.375169	-0.549525	-0.349400
C50	C	0.875169	-0.049525	0.150600
C51	C	0.301778	-0.544895	-0.346464
C52	C	0.801778	-0.044895	0.153536
C53	C	0.298194	-0.686452	-0.436191
C54	C	0.798194	-0.186452	0.063809
C55	C	0.371582	-0.691088	-0.439121
C56	C	0.871582	-0.191088	0.060879
C57	C	0.410065	-0.622620	-0.395730
C58	C	0.910065	-0.122620	0.104270
N59	N	0.519445	-0.566246	-0.359993
N60	N	1.019445	-0.066246	0.140007
N61	N	0.485078	-0.627361	-0.398735
N62	N	0.985078	-0.127361	0.101265
C63	C	1.001861	-0.873312	-0.379330
C64	C	1.501861	-0.373312	0.120670
C65	C	1.001905	-0.991622	-0.379352
C66	C	1.501905	-0.491622	0.120648
C67	C	0.953079	-1.060655	-0.424375
C68	C	1.453079	-0.560655	0.075625
C69	C	0.938538	-1.126689	-0.359570
C70	C	1.438538	-0.626689	0.140430
C71	C	1.016509	-1.136391	-0.444171
C72	C	1.516509	-0.636391	0.055829
C73	C	0.987331	-1.056094	-0.314511
C74	C	1.487331	-0.556094	0.185489
C75	C	1.065330	-1.065794	-0.399157
C76	C	1.565330	-0.565794	0.100843
C77	C	1.050816	-1.131795	-0.334309
C78	C	1.550816	-0.631795	0.165691
C79	C	1.185189	-0.608398	-0.386714
C80	C	1.685189	-0.108398	0.113286
C81	C	1.263293	-0.613351	-0.389857
C82	C	1.763293	-0.113351	0.110143
C83	C	0.994578	-0.607396	-0.562619
C84	C	1.494578	-0.107396	-0.062619
C85	C	0.991455	-0.611923	-0.640723
C86	C	1.491455	-0.111923	-0.140723
C87	C	1.001971	-0.319159	-0.379363
C88	C	1.501971	0.180841	0.120637
C89	C	1.001998	-0.200856	-0.379374
C90	C	1.501998	0.299144	0.120626
C91	C	1.034940	-0.548834	-0.679231
C92	C	1.534940	-0.048834	-0.179231
C93	C	1.031997	-0.553083	-0.752617
C94	C	1.531997	-0.053083	-0.252617
C95	C	0.985572	-0.620426	-0.787494
C96	C	1.485572	-0.120426	-0.287494
C97	C	0.942083	-0.683517	-0.748980
C98	C	1.442083	-0.183517	-0.248980
C99	C	0.945023	-0.679262	-0.675595
C100	C	1.445023	-0.179262	-0.175595
C101	C	0.971956	-0.640139	-1.006776
C102	C	1.471956	-0.140139	-0.506776
C103	C	0.969021	-0.644391	-1.080166
C104	C	1.469021	-0.144391	-0.580166
C105	C	1.058935	-0.513955	-1.083799
C106	C	1.558935	-0.013955	-0.583799
C107	C	1.061873	-0.509711	-1.010412
C108	C	1.561873	-0.009711	-0.510412
C109	C	1.018381	-0.572798	-0.971905
C110	C	1.518381	-0.072798	-0.471905
N111	N	0.982565	-0.624772	-0.862506
N112	N	1.482565	-0.124772	-0.362506
N113	N	1.021386	-0.568445	-0.896894
N114	N	1.521386	-0.068445	-0.396894
C115	C	1.009247	-0.586120	-0.196772
C116	C	1.509247	-0.086120	0.303228
C117	C	1.012506	-0.581302	-0.118675
C118	C	1.512506	-0.081302	0.381325
H119	H	0.399993	-0.750611	-0.476847
H120	H	0.899993	-0.250611	0.023153
O121	O	0.903836	-1.023343	-0.469810
O122	O	1.403836	-0.523343	0.030190
C123	C	0.880734	-0.924542	-0.573520
C124	C	1.380734	-0.424542	-0.073520
C125	C	0.936575	-0.966757	-0.522133
C126	C	1.436575	-0.466757	-0.022133
H127	H	0.907181	-0.878765	-0.615827
H128	H	1.407181	-0.378765	-0.115827
H129	H	0.852403	-0.994140	-0.598983
H130	H	1.352403	-0.494140	-0.098983
H131	H	0.841264	-0.869404	-0.543757
H132	H	1.341264	-0.369404	-0.043757
H133	H	0.976089	-1.021878	-0.551844
H134	H	1.476089	-0.521878	-0.051844
H135	H	0.964852	-0.897107	-0.496670
H136	H	1.464852	-0.397107	0.003330
O137	O	1.129220	-1.033469	-0.419109
O138	O	1.629220	-0.533469	0.080891
C139	C	1.200875	-0.884974	-0.440900
C140	C	1.700875	-0.384974	0.059100
C141	C	1.128493	-0.921435	-0.418268
C142	C	1.628493	-0.421435	0.081732
H143	H	1.200306	-0.794393	-0.440242
H144	H	1.700306	-0.294393	0.059758
H145	H	1.242679	-0.915438	-0.403084
H146	H	1.742679	-0.415438	0.096916
H147	H	1.213211	-0.918113	-0.496182
H148	H	1.713211	-0.418113	0.003818
H149	H	1.116089	-0.888311	-0.363000
H150	H	1.616089	-0.388311	0.137000
H151	H	1.086729	-0.890985	-0.456131
H152	H	1.586729	-0.390985	0.043869
H153	H	0.598028	-0.699830	-0.444659
H154	H	1.098028	-0.199830	0.055341
H155	H	1.094343	-0.462592	-1.115159
H156	H	1.594343	0.037408	-0.615159
O157	O	0.972444	-1.014308	-0.249144
O158	O	1.472444	-0.514308	0.250856
C159	C	0.894269	-0.901152	-0.177452
C160	C	1.394269	-0.401152	0.322548
C161	C	0.911041	-0.948421	-0.251510
C162	C	1.411041	-0.448421	0.248490
H163	H	0.844632	-0.847855	-0.179343
H164	H	1.344632	-0.347855	0.320657
H165	H	0.885904	-0.968261	-0.140340
H166	H	1.385904	-0.468261	0.359660
H167	H	0.939891	-0.852288	-0.157852
H168	H	1.439891	-0.352288	0.342148
H169	H	0.865442	-0.997274	-0.271174
H170	H	1.365442	-0.497274	0.228826
H171	H	0.919432	-0.881263	-0.288576
H172	H	1.419432	-0.381263	0.211424
O173	O	1.100049	-1.168767	-0.288748
O174	O	1.600049	-0.668767	0.211252
C175	C	1.140332	-1.169387	-0.168988
C176	C	1.640332	-0.669387	0.331012
C177	C	1.084523	-1.127457	-0.220507
C178	C	1.584523	-0.627457	0.279493
H179	H	1.127807	-1.135988	-0.113807
H180	H	1.627807	-0.635988	0.386193
H181	H	1.140326	-1.259938	-0.169605
H182	H	1.640326	-0.759938	0.330395
H183	H	1.194213	-1.143219	-0.185425
H184	H	1.694213	-0.643219	0.314575
H185	H	1.030614	-1.153547	-0.204106
H186	H	1.530614	-0.653547	0.295894
H187	H	1.084591	-1.036910	-0.219882
H188	H	1.584591	-0.536910	0.280118
H189	H	0.931215	-0.699232	-1.108560
H190	H	1.431215	-0.199232	-0.608560
O191	O	0.874651	-1.158984	-0.339573
O192	O	1.374651	-0.658984	0.160427
C193	C	0.803313	-1.307395	-0.316656
C194	C	1.303313	-0.807395	0.183344
C195	C	0.875705	-1.270971	-0.339288
C196	C	1.375705	-0.770971	0.160712
H197	H	0.804137	-1.397939	-0.316433
H198	H	1.304137	-0.897939	0.183567
H199	H	0.790481	-1.273087	-0.261759
H200	H	1.290481	-0.773087	0.238241
H201	H	0.761709	-1.278113	-0.355075
H202	H	1.261709	-0.778113	0.144925
H203	H	0.917355	-1.300241	-0.300919
H204	H	1.417355	-0.800241	0.199081
H205	H	0.888476	-1.305267	-0.394201
H206	H	1.388476	-0.805267	0.105799
H207	H	1.028824	-1.171502	-0.498979
H208	H	1.528824	-0.671502	0.001021
H209	H	1.067409	-0.501712	-0.783968
H210	H	1.567409	-0.001712	-0.283968
O211	O	0.260773	-0.752797	-0.478417
O212	O	0.760773	-0.252797	0.021583
C213	C	0.174113	-0.767587	-0.569927
C214	C	0.674113	-0.267587	-0.069927
C215	C	0.216458	-0.692333	-0.522155
C216	C	0.716458	-0.192333	-0.022155
H217	H	0.138262	-0.718732	-0.605291
H218	H	0.638262	-0.218732	-0.105291
H219	H	0.211627	-0.820608	-0.603598
H220	H	0.711627	-0.320608	-0.103598
H221	H	0.141063	-0.819144	-0.536217
H222	H	0.641063	-0.319144	-0.036217
H223	H	0.249511	-0.640709	-0.555810
H224	H	0.749511	-0.140709	-0.055810
H225	H	0.178905	-0.639384	-0.488480
H226	H	0.678905	-0.139384	0.011520
O227	O	1.079961	-0.483259	-0.645385
O228	O	1.579961	0.016741	-0.145385
C229	C	1.115036	-0.303076	-0.624366
C230	C	1.615036	0.196924	-0.124366
C231	C	1.063995	-0.377222	-0.662721
C232	C	1.563995	0.122778	-0.162721
H233	H	1.102155	-0.217332	-0.638379
H234	H	1.602155	0.282668	-0.138379
H235	H	1.109670	-0.310775	-0.565292
H236	H	1.609670	0.189225	-0.065292
H237	H	1.171110	-0.326249	-0.641070
H238	H	1.671110	0.173751	-0.141070
H239	H	1.007900	-0.354097	-0.646075
H240	H	1.507900	0.145903	-0.146075
H241	H	1.069423	-0.369513	-0.721788
H242	H	1.569423	0.130487	-0.221788
O243	O	0.412622	-0.483174	-0.307213
O244	O	0.912622	0.016826	0.192787
C245	C	0.499210	-0.468355	-0.215636
C246	C	0.999210	0.031645	0.284364
C247	C	0.456851	-0.543623	-0.263386
C248	C	0.956851	-0.043623	0.236614
H249	H	0.534969	-0.517198	-0.180179
H250	H	1.034969	-0.017198	0.319821
H251	H	0.532338	-0.416831	-0.249294
H252	H	1.032338	0.083169	0.250706
H253	H	0.461639	-0.415304	-0.182051
H254	H	0.961639	0.084696	0.317949
H255	H	0.494372	-0.596741	-0.296980
H256	H	0.994372	-0.096741	0.203020
H257	H	0.423715	-0.595074	-0.229688
H258	H	0.923715	-0.095074	0.270312
H259	H	0.731159	-0.708252	-0.449984
H260	H	1.231159	-0.208252	0.050016
H261	H	1.099679	-0.454876	-0.982021
H262	H	1.599679	0.045124	-0.482021
H263	H	0.273363	-0.485360	-0.308740
H264	H	0.773363	0.014640	0.191260
O265	O	0.929675	-0.701510	-0.969483
O266	O	1.429675	-0.201510	-0.469483
C267	C	0.840128	-0.831246	-0.973629
C268	C	1.340128	-0.331246	-0.473629
C269	C	0.887994	-0.761827	-1.015953
C270	C	1.387994	-0.261827	-0.515953
H271	H	0.806406	-0.880013	-1.011182
H272	H	1.306406	-0.380013	-0.511182
H273	H	0.873699	-0.887033	-0.940573
H274	H	1.373699	-0.387033	-0.440573
H275	H	0.804807	-0.778019	-0.937789
H276	H	1.304807	-0.278019	-0.437789
H277	H	0.923323	-0.814971	-1.051832
H278	H	1.423323	-0.314971	-0.551832
H279	H	0.854381	-0.706032	-1.048963
H280	H	1.354381	-0.206032	-0.548963
H281	H	0.904280	-0.738345	-0.777382
H282	H	1.404280	-0.238345	-0.277382
O283	O	0.599018	-0.431666	-0.274521
O284	O	1.099018	0.068334	0.225479
C285	C	0.519901	-0.406379	-0.176379
C286	C	1.019901	0.093621	0.323621
C287	C	0.558297	-0.486745	-0.227375
C288	C	1.058297	0.013255	0.272625
H289	H	0.486958	-0.450878	-0.138258
H290	H	0.986958	0.049122	0.361742
H291	H	0.559984	-0.358256	-0.145817
H292	H	1.059984	0.141744	0.354183
H293	H	0.484296	-0.350490	-0.207347
H294	H	0.984296	0.149510	0.292653
H295	H	0.593901	-0.542702	-0.196462
H296	H	1.093901	-0.042702	0.303538
H297	H	0.518177	-0.534791	-0.257938
H298	H	1.018177	-0.034791	0.242062
H299	H	0.737669	-0.451416	-0.287206
H300	H	1.237669	0.048584	0.212794
H301	H	0.909606	-0.730624	-0.644242
H302	H	1.409606	-0.230624	-0.144242
