data_functionalizedCrystal
_audit_creation_method	'MofGen! by Chris Wilmer'
_symmetry_space_group_name_H-M	'P1'
_symmetry_Int_Tables_number	1
_symmetry_cell_setting	triclinic
loop_
_symmetry_equiv_pos_as_xyz
  x,y,z
_cell_length_a	19.188930
_cell_length_b	8.965430
_cell_length_c	19.188930
_cell_angle_alpha	90.005777
_cell_angle_beta	83.144779
_cell_angle_gamma	90.010958
loop_
_atom_site_label
_atom_site_type_symbol
_atom_site_fract_x
_atom_site_fract_y
_atom_site_fract_z
O1	O	0.926138	0.124535	0.087164
O2	O	0.722826	0.124435	0.098899
O3	O	0.830349	0.124459	-0.008624
O4	O	0.818615	0.124512	0.194687
O5	O	0.830354	-0.123620	-0.008621
O6	O	0.722831	-0.123643	0.098902
O7	O	0.926143	-0.123543	0.087168
Cu8	Cu	0.824487	-0.146245	0.093035
Cu9	Cu	0.824482	0.147137	0.093031
O10	O	0.818620	-0.123567	0.194690
C11	C	0.696818	0.000383	0.098520
C12	C	0.619313	0.000343	0.097380
N13	N	0.824497	-0.352594	0.093037
C14	C	0.574389	0.000383	0.160470
C15	C	0.501566	0.000399	0.159399
C16	C	0.473669	0.000406	0.095233
C17	C	0.518603	0.000357	0.032133
C18	C	0.591425	0.000326	0.033207
N19	N	0.365687	0.084885	0.046185
N20	N	0.296509	0.084918	0.045169
C21	C	0.254260	0.000496	0.091994
N22	N	0.283803	-0.083941	0.139884
N23	N	0.352988	-0.083967	0.140902
C24	C	0.394707	0.000438	0.094062
C25	C	0.130372	0.000551	0.153928
C26	C	0.057547	0.000558	0.152853
C27	C	0.074586	0.000531	0.025586
C28	C	0.147409	0.000509	0.026662
C29	C	0.175298	0.000526	0.090835
C30	C	0.874238	-0.449849	0.043315
C31	C	0.811187	-0.549289	0.029946
C32	C	0.887523	-0.549281	0.106361
C33	C	0.761414	-0.449845	0.079638
C34	C	0.837791	-0.449829	0.156079
C35	C	0.774695	-0.549224	0.142738
C36	C	0.952151	0.000513	0.087546
C37	C	1.029656	0.000562	0.088687
C38	C	0.829972	0.000415	-0.034634
C39	C	0.828831	0.000402	-0.112138
N40	N	0.824478	0.353486	0.093023
C41	C	0.891922	0.000426	-0.157062
C42	C	0.890850	0.000449	-0.229886
C43	C	0.826684	0.000419	-0.257782
C44	C	0.763585	0.000403	-0.212849
C45	C	0.764658	0.000395	-0.140026
N46	N	0.777638	-0.084031	-0.365786
N47	N	0.776623	-0.084027	-0.434965
C48	C	0.823446	0.000447	-0.477191
N49	N	0.871333	0.084897	-0.447627
N50	N	0.872351	0.084886	-0.378442
C51	C	0.825513	0.000429	-0.336745
C52	C	0.885379	0.000499	-0.601079
C53	C	0.884305	0.000531	-0.673904
C54	C	0.757038	0.000470	-0.656865
C55	C	0.758114	0.000453	-0.584042
C56	C	0.822286	0.000460	-0.556154
C57	C	0.818997	0.000480	0.220700
C58	C	0.820138	0.000503	0.298204
H59	H	0.464982	0.000427	0.210776
O60	O	0.690065	0.000411	-0.535582
H61	H	0.687518	-0.100702	-0.502001
O62	O	0.718907	-0.606666	0.198431
H63	H	0.743870	-0.674797	0.236897
O64	O	0.009092	0.000597	0.220907
H65	H	-0.024504	-0.100513	0.223470
H66	H	0.849069	-0.406108	0.209382
H67	H	0.944176	0.000437	-0.134360
H68	H	0.051874	0.000629	-0.026659
H69	H	0.183988	0.000485	-0.024713
O70	O	0.696605	0.000359	-0.091571
H71	H	0.708132	0.000362	-0.036247
O72	O	0.958135	-0.607123	0.121306
H73	H	0.981269	-0.676951	0.076665
O74	O	0.954590	0.000524	-0.570994
H75	H	0.958116	0.101626	-0.538209
H76	H	0.916263	-0.406215	0.001245
H77	H	0.935683	0.000559	-0.710481
H78	H	0.704792	0.000453	-0.679578
O79	O	0.958900	0.000455	-0.278354
H80	H	1.003702	0.000446	-0.246727
O81	O	0.488521	0.000356	-0.037077
H82	H	0.455776	0.101490	-0.040618
O83	O	0.604471	0.000358	0.229682
H84	H	0.560993	0.000367	0.273373
H85	H	0.799929	-0.592978	-0.023373
H86	H	0.711340	0.000382	-0.235567
O87	O	0.639886	0.000283	-0.034843
H88	H	0.630017	0.101396	-0.065564
O89	O	0.160457	0.000535	0.223139
H90	H	0.142408	0.101647	0.253451
O91	O	0.690790	-0.392253	0.064597
H92	H	0.691364	-0.268457	0.064686
