data_functionalizedCrystal
_audit_creation_method	'MofGen! by Chris Wilmer'
_symmetry_space_group_name_H-M	'P1'
_symmetry_Int_Tables_number	1
_symmetry_cell_setting	triclinic
loop_
_symmetry_equiv_pos_as_xyz
  x,y,z
_cell_length_a	10.654562
_cell_length_b	10.654550
_cell_length_c	9.130313
_cell_angle_alpha	89.999890
_cell_angle_beta	90.003070
_cell_angle_gamma	95.512497
loop_
_atom_site_label
_atom_site_type_symbol
_atom_site_fract_x
_atom_site_fract_y
_atom_site_fract_z
O1	O	1.667825	-0.176469	0.121892
O2	O	1.302348	-0.193259	0.121873
O3	O	1.493490	-0.002125	0.121877
O4	O	1.476683	-0.367603	0.121887
O5	O	1.493487	-0.002130	-0.121721
O6	O	1.302346	-0.193264	-0.121726
O7	O	1.667822	-0.176474	-0.121707
Cu8	Cu	1.485084	-0.184869	-0.143959
Cu9	Cu	1.485087	-0.184863	0.144125
O10	O	1.476681	-0.367608	-0.121711
C11	C	1.255549	-0.192025	0.000071
C12	C	1.116107	-0.188327	0.000064
C13	C	1.050575	-0.186605	-0.132710
C14	C	0.919553	-0.183140	-0.132686
C15	C	0.919605	-0.183125	0.132899
C16	C	1.050626	-0.186580	0.132873
C17	C	1.116056	-0.188351	-0.265519
C18	C	1.050523	-0.186630	-0.398304
C19	C	0.919501	-0.183165	-0.398280
C20	C	0.854011	-0.181421	-0.265470
C21	C	1.492254	0.044671	0.000080
C22	C	1.488563	0.184114	0.000085
C23	C	1.714621	-0.177708	0.000098
C24	C	1.854064	-0.181406	0.000115
C25	C	1.477916	-0.414403	0.000090
C26	C	1.481608	-0.553847	0.000094
N27	N	1.485091	-0.184873	-0.346582
C28	C	1.601103	0.263595	0.000086
C29	C	1.597627	0.394615	0.000096
C30	C	1.369059	0.366662	0.000097
C31	C	1.372537	0.235644	0.000098
C32	C	1.717129	0.212064	0.000073
C33	C	1.829680	0.291546	0.000072
C34	C	1.826203	0.422567	0.000083
C35	C	1.710176	0.474106	0.000093
C36	C	1.569750	-0.100268	-0.423232
C37	C	1.569747	-0.100253	-0.576568
C38	C	1.400421	-0.269459	-0.576592
C39	C	1.400419	-0.269467	-0.423258
C40	C	1.654422	-0.015674	-0.346556
C41	C	1.739089	0.068937	-0.423206
C42	C	1.739086	0.068952	-0.576543
C43	C	1.654415	-0.015644	-0.653229
N44	N	1.485089	-0.184850	0.346748
H45	H	1.103983	-0.187989	0.240990
N46	N	1.257372	-0.192073	-0.265535
H47	H	1.279448	-0.270617	-0.213393
H48	H	1.288823	-0.192865	-0.369848
H49	H	1.654435	-0.015681	-0.221701
H50	H	1.331487	-0.338335	-0.639040
H51	H	1.808016	0.137853	-0.638950
H52	H	1.808018	0.137819	-0.360760
N53	N	1.121151	-0.188499	-0.541542
H54	H	1.214095	-0.190958	-0.521414
H55	H	1.088739	-0.265615	-0.599519
H56	H	1.654411	-0.015616	-0.778087
H57	H	1.719973	0.105382	0.000060
N58	N	1.243930	0.422259	0.000086
H59	H	1.194574	0.393346	-0.090220
H60	H	1.194669	0.393340	0.090445
N61	N	1.706428	0.615422	0.000088
H62	H	1.615851	0.636008	0.000083
H63	H	1.750521	0.652380	0.090394
N64	N	1.954814	0.235962	0.000053
H65	H	2.025581	0.306197	0.000060
H66	H	1.961242	0.182204	0.090353
N67	N	1.309107	-0.360713	-0.340572
H68	H	1.255474	-0.414307	-0.412410
H69	H	1.357664	-0.416688	-0.276950
H70	H	0.866149	-0.181754	-0.506400
N71	N	1.947587	0.508297	0.000095
H72	H	2.021611	0.455767	0.000086
H73	H	1.951115	0.563268	-0.090208
N74	N	1.251168	0.149890	0.000087
H75	H	1.200595	0.166569	0.090385
H76	H	1.200695	0.166609	-0.090279
N77	N	0.712696	-0.177666	-0.265439
H78	H	0.681116	-0.176833	-0.369704
H79	H	0.671746	-0.254551	-0.213227
H80	H	0.866273	-0.181708	0.241026
