data_functionalizedCrystal
_audit_creation_method	'MofGen! by Chris Wilmer'
_symmetry_space_group_name_H-M	'P1'
_symmetry_Int_Tables_number	1
_symmetry_cell_setting	triclinic
loop_
_symmetry_equiv_pos_as_xyz
  x,y,z
_cell_length_a	9.065215
_cell_length_b	14.519731
_cell_length_c	7.540329
_cell_angle_alpha	89.995423
_cell_angle_beta	89.997574
_cell_angle_gamma	84.351775
loop_
_atom_site_label
_atom_site_type_symbol
_atom_site_fract_x
_atom_site_fract_y
_atom_site_fract_z
O1	O	1.957883	0.135211	-0.147467
O2	O	2.291217	0.468545	0.185867
O3	O	2.624550	0.801878	0.519200
O4	O	1.528392	0.146306	-0.147475
O5	O	1.861725	0.479639	0.185858
O6	O	2.195058	0.812973	0.519192
O7	O	1.754508	0.006605	-0.147454
O8	O	2.087842	0.339938	0.185879
O9	O	2.421175	0.673271	0.519212
O10	O	1.731766	0.274913	-0.147487
O11	O	2.065100	0.608246	0.185846
O12	O	2.398433	0.941579	0.519180
O13	O	1.754495	0.006603	0.147511
O14	O	2.087828	0.339936	0.480844
O15	O	2.421162	0.673269	0.814177
O16	O	1.528378	0.146304	0.147490
O17	O	1.861711	0.479637	0.480823
O18	O	2.195045	0.812971	0.814157
O19	O	1.957870	0.135209	0.147498
O20	O	2.291203	0.468543	0.480832
O21	O	2.624537	0.801876	0.814165
Cu22	Cu	1.743123	0.140757	0.174427
Cu23	Cu	2.076456	0.474090	0.507760
Cu24	Cu	2.409789	0.807423	0.841094
Cu25	Cu	1.743139	0.140759	-0.174403
Cu26	Cu	2.076472	0.474092	0.158930
Cu27	Cu	2.409805	0.807425	0.492263
O28	O	1.731753	0.274911	0.147478
O29	O	2.065086	0.608244	0.480811
O30	O	2.398420	0.941577	0.814145
C31	C	1.473418	0.145239	0.000007
C32	C	1.806751	0.478573	0.333340
C33	C	2.140085	0.811906	0.666673
C34	C	1.309634	0.142053	0.000004
C35	C	1.642967	0.475386	0.333337
C36	C	1.976301	0.808720	0.666671
C37	C	1.753436	-0.027764	0.000028
C38	C	2.086769	0.305570	0.333362
C39	C	2.420103	0.638903	0.666695
C40	C	1.750243	-0.130167	0.000029
C41	C	2.083576	0.203166	0.333363
C42	C	2.416910	0.536500	0.666696
C43	C	1.747648	-0.213330	0.000025
C44	C	2.080982	0.120003	0.333359
C45	C	2.414315	0.453336	0.666692
C46	C	1.744406	-0.317663	0.000012
C47	C	2.077740	0.015671	0.333345
C48	C	2.411073	0.349004	0.666678
C49	C	1.741833	-0.400821	0.000000
C50	C	2.075167	-0.067487	0.333334
C51	C	2.408500	0.265846	0.666667
C52	C	1.738592	-0.505160	-0.000010
C53	C	2.071925	-0.171826	0.333323
C54	C	2.405258	0.161507	0.666657
C55	C	2.012844	0.136276	0.000013
C56	C	2.346177	0.469609	0.333346
C57	C	2.679510	0.802943	0.666680
C58	C	2.176627	0.139462	0.000004
C59	C	2.509961	0.472796	0.333337
C60	C	2.843294	0.806129	0.666671
C61	C	1.732825	0.309279	-0.000009
C62	C	2.066159	0.642612	0.333324
C63	C	2.399492	0.975946	0.666658
C64	C	1.736018	0.411682	-0.000022
C65	C	2.069352	0.745016	0.333312
C66	C	2.402685	1.078349	0.666645
N67	N	1.743122	0.140755	0.419775
N68	N	2.076456	0.474088	0.753109
N69	N	2.409789	0.807421	1.086442
N70	N	1.743151	0.140754	-0.419752
N71	N	2.076484	0.474087	-0.086419
N72	N	2.409817	0.807420	0.246915
