data_functionalizedCrystal
_audit_creation_method	'MofGen! by Chris Wilmer'
_symmetry_space_group_name_H-M	'P1'
_symmetry_Int_Tables_number	1
_symmetry_cell_setting	triclinic
loop_
_symmetry_equiv_pos_as_xyz
  x,y,z
_cell_length_a	23.532407
_cell_length_b	14.586319
_cell_length_c	23.532407
_cell_angle_alpha	90.020857
_cell_angle_beta	97.151291
_cell_angle_gamma	89.998126
loop_
_atom_site_label
_atom_site_type_symbol
_atom_site_fract_x
_atom_site_fract_y
_atom_site_fract_z
O1	O	-0.755262	0.076120	0.069141
O2	O	-0.505262	0.326120	0.319141
O3	O	-0.255262	0.576120	0.569141
O4	O	-0.005262	0.826120	0.819141
O5	O	-0.589399	0.076154	0.079144
O6	O	-0.339399	0.326154	0.329144
O7	O	-0.089399	0.576154	0.579144
O8	O	0.160601	0.826154	0.829144
O9	O	-0.677332	0.076110	-0.008789
O10	O	-0.427332	0.326110	0.241211
O11	O	-0.177332	0.576110	0.491211
O12	O	0.072668	0.826110	0.741211
O13	O	-0.667329	0.076164	0.157074
O14	O	-0.417329	0.326164	0.407074
O15	O	-0.167329	0.576164	0.657074
O16	O	0.082671	0.826164	0.907074
O17	O	-0.677320	-0.076371	-0.008804
O18	O	-0.427320	0.173629	0.241196
O19	O	-0.177320	0.423629	0.491196
O20	O	0.072680	0.673629	0.741196
O21	O	-0.589386	-0.076327	0.079129
O22	O	-0.339386	0.173673	0.329129
O23	O	-0.089386	0.423673	0.579129
O24	O	0.160614	0.673673	0.829129
O25	O	-0.755250	-0.076361	0.069126
O26	O	-0.505250	0.173639	0.319126
O27	O	-0.255250	0.423639	0.569126
O28	O	-0.005250	0.673639	0.819126
Cu29	Cu	-0.672317	-0.090267	0.074126
Cu30	Cu	-0.422317	0.159733	0.324126
Cu31	Cu	-0.172317	0.409733	0.574126
Cu32	Cu	0.077683	0.659733	0.824126
Cu33	Cu	-0.672331	0.090060	0.074144
Cu34	Cu	-0.422331	0.340060	0.324144
Cu35	Cu	-0.172331	0.590060	0.574144
Cu36	Cu	0.077669	0.840060	0.824144
O37	O	-0.667316	-0.076317	0.157059
O38	O	-0.417316	0.173683	0.407059
O39	O	-0.167316	0.423683	0.657059
O40	O	0.082684	0.673683	0.907059
C41	C	-0.568176	-0.000082	0.078882
C42	C	-0.318176	0.249918	0.328882
C43	C	-0.068176	0.499918	0.578882
C44	C	0.181824	0.749918	0.828882
C45	C	-0.504959	-0.000070	0.078116
C46	C	-0.254959	0.249930	0.328116
C47	C	-0.004959	0.499930	0.578116
C48	C	0.245041	0.749930	0.828116
N49	N	-0.672311	-0.217098	0.074114
N50	N	-0.422311	0.032902	0.324114
N51	N	-0.172311	0.282902	0.574114
N52	N	0.077689	0.532902	0.824114
C53	C	-0.637984	-0.548132	0.039772
C54	C	-0.387984	-0.298132	0.289772
C55	C	-0.137984	-0.048132	0.539772
C56	C	0.112016	0.201868	0.789772
C57	C	-0.637980	-0.452150	0.039764
C58	C	-0.387980	-0.202150	0.289764
C59	C	-0.137980	0.047850	0.539764
C60	C	0.112020	0.297850	0.789764
C61	C	-0.706672	-0.452082	0.108495
C62	C	-0.456672	-0.202082	0.358495
C63	C	-0.206672	0.047918	0.608495
C64	C	0.043328	0.297918	0.858495
C65	C	-0.706680	-0.548062	0.108499
C66	C	-0.456680	-0.298062	0.358499
C67	C	-0.206680	-0.048062	0.608499
C68	C	0.043320	0.201938	0.858499
C69	C	-0.672332	-0.596084	0.074139
C70	C	-0.422332	-0.346084	0.324139
C71	C	-0.172332	-0.096084	0.574139
C72	C	0.077668	0.153916	0.824139
C73	C	-0.672321	-0.404123	0.074127
C74	C	-0.422321	-0.154123	0.324127
C75	C	-0.172321	0.095877	0.574127
C76	C	0.077679	0.345877	0.824127
C77	C	-0.672316	-0.300056	0.074118
C78	C	-0.422316	-0.050056	0.324118
C79	C	-0.172316	0.199944	0.574118
C80	C	0.077684	0.449944	0.824118
C81	C	-0.672337	-0.700158	0.074146
C82	C	-0.422337	-0.450158	0.324146
C83	C	-0.172337	-0.200158	0.574146
C84	C	0.077663	0.049842	0.824146
C85	C	-0.105856	-0.000085	0.125350
C86	C	0.144144	0.249915	0.375350
C87	C	0.394144	0.499915	0.625350
C88	C	0.644144	0.749915	0.875350
C89	C	-0.046456	-0.000089	0.124638
C90	C	0.203544	0.249911	0.374638
C91	C	0.453544	0.499911	0.624638
C92	C	0.703544	0.749911	0.874638
O93	O	-0.009711	-0.000107	0.168424
O94	O	0.240289	0.249893	0.418424
O95	O	0.490289	0.499893	0.668424
O96	O	0.740289	0.749893	0.918424
N97	N	-0.023830	-0.000103	0.072362
N98	N	0.226170	0.249897	0.322362
N99	N	0.476170	0.499897	0.572362
N100	N	0.726170	0.749897	0.822362
C101	C	-0.060607	-0.000123	0.020794
C102	C	0.189393	0.249877	0.270794
C103	C	0.439393	0.499877	0.520794
C104	C	0.689393	0.749877	0.770794
O105	O	-0.035908	-0.000137	-0.023737
O106	O	0.214092	0.249863	0.226263
O107	O	0.464092	0.499863	0.476263
O108	O	0.714092	0.749863	0.726263
C109	C	-0.120006	-0.000126	0.021506
C110	C	0.129994	0.249874	0.271506
C111	C	0.379994	0.499874	0.521506
C112	C	0.629994	0.749874	0.771506
C113	C	-0.142629	-0.000102	0.073785
C114	C	0.107371	0.249898	0.323785
C115	C	0.357371	0.499898	0.573785
C116	C	0.607371	0.749898	0.823785
C117	C	-0.128480	-0.000062	0.177625
C118	C	0.121520	0.249938	0.427625
C119	C	0.371520	0.499938	0.677625
C120	C	0.621520	0.749938	0.927625
C121	C	-0.187876	-0.000056	0.178336
C122	C	0.062124	0.249944	0.428336
C123	C	0.312124	0.499944	0.678336
C124	C	0.562124	0.749944	0.928336
C125	C	-0.224649	-0.000073	0.126772
C126	C	0.025351	0.249927	0.376772
C127	C	0.275351	0.499927	0.626772
C128	C	0.525351	0.749927	0.876772
C129	C	-0.202025	-0.000096	0.074496
C130	C	0.047975	0.249904	0.324496
C131	C	0.297975	0.499904	0.574496
C132	C	0.547975	0.749904	0.824496
C133	C	-0.156783	-0.000152	-0.030062
C134	C	0.093217	0.249848	0.219938
C135	C	0.343217	0.499848	0.469938
C136	C	0.593217	0.749848	0.719938
C137	C	-0.216185	-0.000155	-0.029345
C138	C	0.033815	0.249845	0.220655
C139	C	0.283815	0.499845	0.470655
C140	C	0.533815	0.749845	0.720655
C141	C	-0.238808	-0.000131	0.022934
C142	C	0.011192	0.249869	0.272934
C143	C	0.261192	0.499869	0.522934
C144	C	0.511192	0.749869	0.772934
C145	C	-0.298194	-0.000107	0.023643
C146	C	-0.048194	0.249893	0.273643
C147	C	0.201806	0.499893	0.523643
C148	C	0.451806	0.749893	0.773643
N149	N	-0.320821	-0.000093	0.075920
N150	N	-0.070821	0.249907	0.325920
N151	N	0.179179	0.499907	0.575920
N152	N	0.429179	0.749907	0.825920
C153	C	-0.284048	-0.000076	0.127484
C154	C	-0.034048	0.249924	0.377484
C155	C	0.215952	0.499924	0.627484
C156	C	0.465952	0.749924	0.877484
C157	C	0.064135	-0.000120	0.019302
C158	C	0.314135	0.249880	0.269302
C159	C	0.564135	0.499880	0.519302
C160	C	0.814135	0.749880	0.769302
C161	C	0.123533	-0.000110	0.018589
C162	C	0.373533	0.249890	0.268589
C163	C	0.623533	0.499890	0.518589
C164	C	0.873533	0.749890	0.768589
C165	C	0.137680	-0.000078	0.122434
C166	C	0.387680	0.249922	0.372434
C167	C	0.637680	0.499922	0.622434
C168	C	0.887680	0.749922	0.872434
C169	C	0.078281	-0.000080	0.123146
C170	C	0.328281	0.249920	0.373146
C171	C	0.578281	0.499920	0.623146
C172	C	0.828281	0.749920	0.873146
C173	C	0.041509	-0.000105	0.071578
C174	C	0.291509	0.249895	0.321578
C175	C	0.541509	0.499895	0.571578
C176	C	0.791509	0.749895	0.821578
C177	C	-0.408784	-0.000063	0.128974
C178	C	-0.158784	0.249937	0.378974
C179	C	0.091216	0.499937	0.628974
C180	C	0.341216	0.749937	0.878974
C181	C	-0.468186	-0.000053	0.129680
C182	C	-0.218186	0.249947	0.379680
C183	C	0.031814	0.499947	0.629680
C184	C	0.281814	0.749947	0.879680
C185	C	-0.482329	-0.000091	0.025836
C186	C	-0.232329	0.249909	0.275836
C187	C	0.017671	0.499909	0.525836
C188	C	0.267671	0.749909	0.775836
C189	C	-0.422932	-0.000096	0.025129
C190	C	-0.172932	0.249904	0.275129
C191	C	0.077068	0.499904	0.525129
C192	C	0.327068	0.749904	0.775129
C193	C	-0.386160	-0.000085	0.076702
C194	C	-0.136160	0.249915	0.326702
C195	C	0.113840	0.499915	0.576702
C196	C	0.363840	0.749915	0.826702
O197	O	-0.334974	-0.000093	-0.020119
O198	O	-0.084974	0.249907	0.229881
O199	O	0.165026	0.499907	0.479881
O200	O	0.415026	0.749907	0.729881
O201	O	-0.308756	-0.000074	0.172007
O202	O	-0.058756	0.249926	0.422007
O203	O	0.191244	0.499926	0.672007
O204	O	0.441244	0.749926	0.922007
C205	C	0.223528	-0.000115	0.069388
C206	C	0.473528	0.249885	0.319388
C207	C	0.723528	0.499885	0.569388
C208	C	0.973528	0.749885	0.819388
C209	C	0.160311	-0.000098	0.070154
C210	C	0.410311	0.249902	0.320154
C211	C	0.660311	0.499902	0.570154
C212	C	0.910311	0.749902	0.820154
C213	C	-0.677071	-0.000135	-0.030013
C214	C	-0.427071	0.249865	0.219987
C215	C	-0.177071	0.499865	0.469987
C216	C	0.072929	0.749865	0.719987
C217	C	-0.676305	-0.000149	-0.093230
C218	C	-0.426305	0.249851	0.156770
C219	C	-0.176305	0.499851	0.406770
C220	C	0.073695	0.749851	0.656770
N221	N	-0.672342	0.216891	0.074152
N222	N	-0.422342	0.466891	0.324152
N223	N	-0.172342	0.716891	0.574152
N224	N	0.077658	0.966891	0.824152
C225	C	-0.621110	-0.000080	-0.359397
C226	C	-0.371110	0.249920	-0.109397
C227	C	-0.121110	0.499920	0.140603
C228	C	0.128890	0.749920	0.390603
C229	C	-0.621821	-0.000087	-0.299997
C230	C	-0.371821	0.249913	-0.049997
C231	C	-0.121821	0.499913	0.200003
C232	C	0.128179	0.749913	0.450003
O233	O	-0.578035	-0.000049	-0.263252
O234	O	-0.328035	0.249951	-0.013252
O235	O	-0.078035	0.499951	0.236748
O236	O	0.171965	0.749951	0.486748
N237	N	-0.674097	-0.000109	-0.277371
N238	N	-0.424097	0.249891	-0.027371
N239	N	-0.174097	0.499891	0.222629
N240	N	0.075903	0.749891	0.472629
C241	C	-0.725666	-0.000113	-0.314148
C242	C	-0.475666	0.249887	-0.064148
C243	C	-0.225666	0.499887	0.185852
C244	C	0.024334	0.749887	0.435852
O245	O	-0.770196	-0.000131	-0.289449
O246	O	-0.520196	0.249869	-0.039449
O247	O	-0.270196	0.499869	0.210551
O248	O	-0.020196	0.749869	0.460551
C249	C	-0.724954	-0.000100	-0.373547
C250	C	-0.474954	0.249900	-0.123547
C251	C	-0.224954	0.499900	0.126453
C252	C	0.025046	0.749900	0.376453
C253	C	-0.672674	-0.000088	-0.396170
C254	C	-0.422674	0.249912	-0.146170
C255	C	-0.172674	0.499912	0.103830
C256	C	0.077326	0.749912	0.353830
C257	C	-0.568834	-0.000067	-0.382020
C258	C	-0.318834	0.249933	-0.132020
C259	C	-0.068834	0.499933	0.117980
C260	C	0.181166	0.749933	0.367980
C261	C	-0.568123	-0.000061	-0.441417
C262	C	-0.318123	0.249939	-0.191417
C263	C	-0.068123	0.499939	0.058583
C264	C	0.181877	0.749939	0.308583
C265	C	-0.619687	-0.000069	-0.478190
C266	C	-0.369687	0.249931	-0.228190
C267	C	-0.119687	0.499931	0.021810
C268	C	0.130313	0.749931	0.271810
C269	C	-0.671963	-0.000082	-0.455566
C270	C	-0.421963	0.249918	-0.205566
C271	C	-0.171963	0.499918	0.044434
C272	C	0.078037	0.749918	0.294434
C273	C	-0.776521	-0.000098	-0.410324
C274	C	-0.526521	0.249902	-0.160324
C275	C	-0.276521	0.499902	0.089676
C276	C	-0.026521	0.749902	0.339676
C277	C	-0.775805	-0.000083	-0.469726
C278	C	-0.525805	0.249917	-0.219726
C279	C	-0.275805	0.499917	0.030274
C280	C	-0.025805	0.749917	0.280274
C281	C	-0.723525	-0.000071	-0.492349
C282	C	-0.473525	0.249929	-0.242349
C283	C	-0.223525	0.499929	0.007651
C284	C	0.026475	0.749929	0.257651
C285	C	-0.722816	-0.000084	-0.551735
C286	C	-0.472816	0.249916	-0.301735
C287	C	-0.222816	0.499916	-0.051735
C288	C	0.027184	0.749916	0.198265
N289	N	-0.670539	-0.000063	-0.574361
N290	N	-0.420539	0.249937	-0.324361
N291	N	-0.170539	0.499937	-0.074361
N292	N	0.079461	0.749937	0.175639
C293	C	-0.618975	-0.000055	-0.537589
C294	C	-0.368975	0.249945	-0.287589
C295	C	-0.118975	0.499945	-0.037589
C296	C	0.131025	0.749945	0.212411
C297	C	-0.727157	-0.000141	-0.189406
C298	C	-0.477157	0.249859	0.060594
C299	C	-0.227157	0.499859	0.310594
C300	C	0.022843	0.749859	0.560594
C301	C	-0.727870	-0.000161	-0.130008
C302	C	-0.477870	0.249839	0.119992
C303	C	-0.227870	0.499839	0.369992
C304	C	0.022130	0.749839	0.619992
C305	C	-0.624025	-0.000133	-0.115861
C306	C	-0.374025	0.249867	0.134139
C307	C	-0.124025	0.499867	0.384139
C308	C	0.125975	0.749867	0.634139
C309	C	-0.623313	-0.000119	-0.175260
C310	C	-0.373313	0.249881	0.074740
C311	C	-0.123313	0.499881	0.324740
C312	C	0.126687	0.749881	0.574740
C313	C	-0.674881	-0.000119	-0.212032
C314	C	-0.424881	0.249881	0.037968
C315	C	-0.174881	0.499881	0.287968
C316	C	0.075119	0.749881	0.537968
C317	C	-0.617486	-0.000045	-0.662325
C318	C	-0.367486	0.249955	-0.412325
C319	C	-0.117486	0.499955	-0.162325
C320	C	0.132514	0.749955	0.087675
C321	C	-0.616779	-0.000043	-0.721727
C322	C	-0.366779	0.249957	-0.471727
C323	C	-0.116779	0.499957	-0.221727
C324	C	0.133221	0.749957	0.028273
C325	C	-0.720623	-0.000066	-0.735869
C326	C	-0.470623	0.249934	-0.485869
C327	C	-0.220623	0.499934	-0.235869
C328	C	0.029377	0.749934	0.014131
C329	C	-0.721330	-0.000072	-0.676473
C330	C	-0.471330	0.249928	-0.426473
C331	C	-0.221330	0.499928	-0.176473
C332	C	0.028670	0.749928	0.073527
C333	C	-0.669757	-0.000059	-0.639701
C334	C	-0.419757	0.249941	-0.389701
C335	C	-0.169757	0.499941	-0.139701
C336	C	0.080243	0.749941	0.110299
O337	O	-0.766579	-0.000119	-0.588514
O338	O	-0.516579	0.249881	-0.338514
O339	O	-0.266579	0.499881	-0.088514
O340	O	-0.016579	0.749881	0.161486
O341	O	-0.574452	-0.000025	-0.562297
O342	O	-0.324452	0.249975	-0.312297
O343	O	-0.074452	0.499975	-0.062297
O344	O	0.175548	0.749975	0.187703
C345	C	-0.667577	-0.000070	0.178283
C346	C	-0.417577	0.249930	0.428283
C347	C	-0.167577	0.499930	0.678283
C348	C	0.082423	0.749930	0.928283
C349	C	-0.668343	-0.000050	0.241500
C350	C	-0.418343	0.249950	0.491500
C351	C	-0.168343	0.499950	0.741500
C352	C	0.081657	0.749950	0.991500
H353	H	-0.610017	-0.587228	0.011793
H354	H	-0.360017	-0.337228	0.261793
H355	H	-0.110017	-0.087228	0.511793
H356	H	0.139983	0.162772	0.761793
H357	H	-0.734653	-0.587106	0.136485
H358	H	-0.484653	-0.337106	0.386485
H359	H	-0.234653	-0.087106	0.636485
H360	H	0.015347	0.162894	0.886485
H361	H	-0.378852	-0.000057	0.170970
H362	H	-0.128852	0.249943	0.420970
H363	H	0.121148	0.499943	0.670970
H364	H	0.371148	0.749943	0.920970
H365	H	-0.098544	-0.000051	0.219617
H366	H	0.151456	0.249949	0.469617
H367	H	0.401456	0.499949	0.719617
H368	H	0.651456	0.749949	0.969617
F369	F	-0.492259	-0.000025	0.185326
F370	F	-0.242259	0.249975	0.435326
F371	F	0.007741	0.499975	0.685326
F372	F	0.257741	0.749975	0.935326
F373	F	-0.601420	-0.401120	0.003189
F374	F	-0.351420	-0.151120	0.253189
F375	F	-0.101420	0.098880	0.503189
F376	F	0.148580	0.348880	0.753189
F377	F	-0.512479	-0.000040	-0.465485
F378	F	-0.262479	0.249960	-0.215485
F379	F	-0.012479	0.499960	0.034515
F380	F	0.237521	0.749960	0.284515
H381	H	-0.734636	-0.412971	0.136470
H382	H	-0.484636	-0.162971	0.386470
H383	H	-0.234636	0.087029	0.636470
H384	H	0.015364	0.337029	0.886470
H385	H	0.167632	-0.000068	0.164421
H386	H	0.417632	0.249932	0.414421
H387	H	0.667632	0.499932	0.664421
H388	H	0.917632	0.749932	0.914421
H389	H	-0.404512	-0.000102	-0.017441
H390	H	-0.154512	0.249898	0.232559
H391	H	0.095488	0.499898	0.482559
H392	H	0.345488	0.749898	0.732559
F393	F	-0.211945	-0.000035	0.233980
F394	F	0.038055	0.249965	0.483980
F395	F	0.288055	0.499965	0.733980
F396	F	0.538055	0.749965	0.983980
F397	F	0.054210	-0.000057	0.178789
F398	F	0.304210	0.249943	0.428789
F399	F	0.554210	0.499943	0.678789
F400	F	0.804210	0.749943	0.928789
F401	F	0.147603	-0.000115	-0.037054
F402	F	0.397603	0.249885	0.212946
F403	F	0.647603	0.499885	0.462946
F404	F	0.897603	0.749885	0.712946
F405	F	-0.561133	-0.000032	-0.745800
F406	F	-0.311133	0.249968	-0.495800
F407	F	-0.061133	0.499968	-0.245800
F408	F	0.188867	0.749968	0.004200
F409	F	0.025003	-0.000137	-0.035587
F410	F	0.275003	0.249863	0.214413
F411	F	0.525003	0.499863	0.464413
F412	F	0.775003	0.749863	0.714413
H413	H	-0.762606	-0.000076	-0.765820
H414	H	-0.512606	0.249924	-0.515820
H415	H	-0.262606	0.499924	-0.265820
H416	H	-0.012606	0.749924	-0.015820
H417	H	-0.138374	-0.000172	-0.072634
H418	H	0.111626	0.249828	0.177366
H419	H	0.361626	0.499828	0.427366
H420	H	0.611626	0.749828	0.677366
F421	F	-0.255318	-0.000184	-0.084233
F422	F	-0.005318	0.249816	0.165767
F423	F	0.244682	0.499816	0.415767
F424	F	0.494682	0.749816	0.665767
F425	F	-0.513947	-0.000056	-0.342892
F426	F	-0.263947	0.249944	-0.092892
F427	F	-0.013947	0.499944	0.157108
F428	F	0.236053	0.749944	0.407108
H429	H	-0.512280	-0.000101	-0.016146
H430	H	-0.262280	0.249899	0.233854
H431	H	-0.012280	0.499899	0.483854
H432	H	0.237720	0.749899	0.733854
F433	F	-0.562595	-0.000031	-0.623199
F434	F	-0.312595	0.249969	-0.373199
F435	F	-0.062595	0.499969	-0.123199
F436	F	0.187405	0.749969	0.126801
F437	F	-0.567670	-0.000105	-0.199331
F438	F	-0.317670	0.249895	0.050669
F439	F	-0.067670	0.499895	0.300669
F440	F	0.182330	0.749895	0.550669
F441	F	-0.569145	-0.000124	-0.076714
F442	F	-0.319145	0.249876	0.173286
F443	F	-0.069145	0.499876	0.423286
F444	F	0.180855	0.749876	0.673286
H445	H	-0.770441	-0.000185	-0.111594
H446	H	-0.520441	0.249815	0.138406
H447	H	-0.270441	0.499815	0.388406
H448	H	-0.020441	0.749815	0.638406
H449	H	-0.817799	-0.000079	-0.499664
H450	H	-0.567799	0.249921	-0.249664
H451	H	-0.317799	0.499921	0.000336
H452	H	-0.067799	0.749921	0.250336
H453	H	-0.769152	-0.000147	-0.219343
H454	H	-0.519152	0.249853	0.030657
H455	H	-0.269152	0.499853	0.280657
H456	H	-0.019152	0.749853	0.530657
H457	H	-0.819093	-0.000107	-0.391915
H458	H	-0.569093	0.249893	-0.141915
H459	H	-0.319093	0.499893	0.108085
H460	H	-0.069093	0.749893	0.358085
H461	H	-0.763901	-0.000095	-0.658053
H462	H	-0.513901	0.249905	-0.408053
H463	H	-0.263901	0.499905	-0.158053
H464	H	-0.013901	0.749905	0.091947
