data_functionalizedCrystal
_audit_creation_method	'MofGen! by Chris Wilmer'
_symmetry_space_group_name_H-M	'P1'
_symmetry_Int_Tables_number	1
_symmetry_cell_setting	triclinic
loop_
_symmetry_equiv_pos_as_xyz
  x,y,z
_cell_length_a	9.065218
_cell_length_b	14.586319
_cell_length_c	9.065218
_cell_angle_alpha	90.001951
_cell_angle_beta	85.015885
_cell_angle_gamma	90.003583
loop_
_atom_site_label
_atom_site_type_symbol
_atom_site_fract_x
_atom_site_fract_y
_atom_site_fract_z
O1	O	1.960400	0.076239	0.216355
O2	O	2.460400	0.576239	0.716355
O3	O	1.531115	0.076240	0.234101
O4	O	2.031115	0.576240	0.734101
O5	O	1.754630	0.076237	0.010586
O6	O	2.254630	0.576237	0.510586
O7	O	1.736884	0.076241	0.439871
O8	O	2.236884	0.576241	0.939871
O9	O	1.754615	-0.076244	0.010582
O10	O	2.254615	0.423756	0.510582
O11	O	1.531099	-0.076241	0.234098
O12	O	2.031099	0.423759	0.734098
O13	O	1.960384	-0.076242	0.216351
O14	O	2.460384	0.423758	0.716351
Cu15	Cu	1.745740	-0.090164	0.225224
Cu16	Cu	2.245740	0.409836	0.725224
Cu17	Cu	1.745759	0.090162	0.225229
Cu18	Cu	2.245759	0.590162	0.725229
O19	O	1.736868	-0.076240	0.439867
O20	O	2.236868	0.423760	0.939867
C21	C	1.476120	-0.000001	0.232394
C22	C	1.976120	0.499999	0.732394
C23	C	1.312277	-0.000000	0.227294
C24	C	1.812277	0.500000	0.727294
N25	N	1.745738	-0.216996	0.225221
N26	N	2.245738	0.283004	0.725221
C27	C	1.844744	-0.452004	0.126282
C28	C	2.344744	0.047996	0.626282
C29	C	1.844748	-0.547985	0.126278
C30	C	2.344748	-0.047985	0.626278
C31	C	1.646756	-0.547992	0.324164
C32	C	2.146756	-0.047992	0.824164
C33	C	1.646745	-0.452013	0.324159
C34	C	2.146745	0.047987	0.824159
C35	C	1.745748	-0.404021	0.225220
C36	C	2.245748	0.095979	0.725220
C37	C	1.745762	-0.595982	0.225221
C38	C	2.245762	-0.095982	0.725221
C39	C	1.745766	-0.700049	0.225218
C40	C	2.245766	-0.200049	0.725218
C41	C	1.745743	-0.299947	0.225221
C42	C	2.245743	0.200053	0.725221
C43	C	2.015378	0.000000	0.218059
C44	C	2.515378	0.500000	0.718059
C45	C	2.179221	0.000006	0.223158
C46	C	2.679221	0.500006	0.723158
C47	C	1.752917	-0.000002	-0.044403
C48	C	2.252917	0.499998	0.455597
C49	C	1.747817	0.000003	-0.208245
C50	C	2.247817	0.500003	0.291755
N51	N	1.745773	0.216994	0.225221
N52	N	2.245773	0.716994	0.725221
C53	C	1.738582	0.000001	0.494855
C54	C	2.238582	0.500001	0.994855
C55	C	1.743681	0.000003	0.658698
C56	C	2.243681	0.500003	1.158698
H57	H	1.925356	-0.412931	0.045718
H58	H	2.425356	0.087069	0.545718
Cl59	Cl	1.969202	-0.608303	0.001891
Cl60	Cl	2.469202	-0.108303	0.501891
Cl61	Cl	1.522307	-0.608329	0.448545
Cl62	Cl	2.022307	-0.108329	0.948545
H63	H	1.566124	-0.412943	0.404727
H64	H	2.066124	0.087057	0.904727
