data_functionalizedCrystal
_audit_creation_method	'MofGen! by Chris Wilmer'
_symmetry_space_group_name_H-M	'P1'
_symmetry_Int_Tables_number	1
_symmetry_cell_setting	triclinic
loop_
_symmetry_equiv_pos_as_xyz
  x,y,z
_cell_length_a	18.215407
_cell_length_b	12.759400
_cell_length_c	18.215399
_cell_angle_alpha	89.975454
_cell_angle_beta	89.980167
_cell_angle_gamma	90.015132
loop_
_atom_site_label
_atom_site_type_symbol
_atom_site_fract_x
_atom_site_fract_y
_atom_site_fract_z
Zn1	Zn	1.125124	-0.418265	-0.416133
Zn2	Zn	1.625124	0.081735	0.083867
Zn3	Zn	1.125054	-0.593962	-0.293074
Zn4	Zn	1.625054	-0.093962	0.206926
Zn5	Zn	1.002057	-0.418299	-0.293081
Zn6	Zn	1.502057	0.081701	0.206919
Zn7	Zn	1.002044	-0.593903	-0.416099
Zn8	Zn	1.502044	-0.093903	0.083901
O9	O	1.063570	-0.506107	-0.354597
O10	O	1.563570	-0.006107	0.145403
O11	O	1.228099	-0.441581	-0.399821
O12	O	1.728099	0.058419	0.100179
O13	O	1.108714	-0.570699	-0.190091
O14	O	1.608714	-0.070699	0.309909
O15	O	1.018416	-0.271273	-0.309421
O16	O	1.518416	0.228727	0.190579
O17	O	1.228048	-0.570665	-0.309410
O18	O	1.728048	-0.070665	0.190590
O19	O	1.108833	-0.271248	-0.399827
O20	O	1.608833	0.228752	0.100173
O21	O	1.018349	-0.441640	-0.190096
O22	O	1.518349	0.058360	0.309904
O23	O	0.899071	-0.441583	-0.309388
O24	O	1.399071	0.058417	0.190612
O25	O	1.018395	-0.570566	-0.519088
O26	O	1.518395	-0.070566	-0.019088
O27	O	0.899062	-0.570599	-0.399769
O28	O	1.399062	-0.070599	0.100231
O29	O	1.108821	-0.441525	-0.519113
O30	O	1.608821	0.058475	-0.019113
O31	O	1.108703	-0.740975	-0.309377
O32	O	1.608703	-0.240975	0.190623
O33	O	1.018328	-0.740932	-0.399763
O34	O	1.518328	-0.240932	0.100237
C35	C	0.872364	-0.506089	-0.354576
C36	C	1.372364	-0.006089	0.145424
C37	C	0.790565	-0.506107	-0.354584
C38	C	1.290565	-0.006107	0.145416
C39	C	0.602385	-0.573391	-0.401587
C40	C	1.102385	-0.073391	0.098413
C41	C	0.525527	-0.573394	-0.401596
C42	C	1.025527	-0.073394	0.098404
C43	C	0.525506	-0.438842	-0.307623
C44	C	1.025506	0.061158	0.192377
C45	C	0.602364	-0.438835	-0.307618
C46	C	1.102364	0.061165	0.192382
C47	C	0.640801	-0.506115	-0.354599
C48	C	1.140801	-0.006115	0.145401
C49	C	0.487085	-0.506126	-0.354613
C50	C	0.987085	-0.006126	0.145387
C51	C	0.403752	-0.506129	-0.354623
C52	C	0.903752	-0.006129	0.145377
C53	C	0.724140	-0.506111	-0.354590
C54	C	1.224140	-0.006111	0.145410
C55	C	1.063526	-0.779075	-0.354582
C56	C	1.563526	-0.279075	0.145418
C57	C	1.063575	-0.895851	-0.354600
C58	C	1.563575	-0.395851	0.145400
C59	C	1.110685	-0.950701	-0.307588
C60	C	1.610685	-0.450701	0.192412
C61	C	1.110731	-1.060425	-0.307610
C62	C	1.610731	-0.560425	0.192390
C63	C	1.016549	-1.060440	-0.401659
C64	C	1.516549	-0.560440	0.098341
C65	C	1.016508	-0.950718	-0.401639
C66	C	1.516508	-0.450718	0.098361
C67	C	1.157753	-0.895834	-0.260548
C68	C	1.657753	-0.395834	0.239452
C69	C	1.204866	-0.950683	-0.213532
C70	C	1.704866	-0.450683	0.286468
C71	C	1.204911	-1.060407	-0.213554
C72	C	1.704911	-0.560407	0.286446
C73	C	1.157843	-1.115282	-0.260593
C74	C	1.657843	-0.615282	0.239407
C75	C	1.255523	-0.506126	-0.354618
C76	C	1.755523	-0.006126	0.145382
C77	C	1.337322	-0.506134	-0.354628
C78	C	1.837322	-0.006134	0.145372
C79	C	1.063615	-0.506035	-0.546550
C80	C	1.563615	-0.006035	-0.046550
C81	C	1.063634	-0.506004	-0.628349
C82	C	1.563634	-0.006004	-0.128349
C83	C	1.063634	-0.232074	-0.354628
C84	C	1.563634	0.267926	0.145372
C85	C	1.063661	-0.115297	-0.354642
C86	C	1.563661	0.384703	0.145358
C87	C	1.110736	-0.438749	-0.816557
C88	C	1.610736	0.061251	-0.316557
C89	C	1.110744	-0.438719	-0.893416
C90	C	1.610744	0.061281	-0.393416
C91	C	1.016584	-0.573096	-0.893379
C92	C	1.516584	-0.073096	-0.393379
C93	C	1.016572	-0.573120	-0.816521
C94	C	1.516572	-0.073120	-0.316521
C95	C	1.063652	-0.505949	-0.778112
C96	C	1.563652	-0.005949	-0.278112
C97	C	1.063673	-0.505894	-0.931829
C98	C	1.563673	-0.005894	-0.431829
C99	C	1.063682	-0.505861	-1.015162
C100	C	1.563682	-0.005861	-0.515162
C101	C	1.063642	-0.505980	-0.694773
C102	C	1.563642	-0.005980	-0.194773
C103	C	1.063568	-0.506103	-0.163391
C104	C	1.563568	-0.006103	0.336609
C105	C	1.063691	-0.505838	-0.081592
C106	C	1.563691	-0.005838	0.418408
H107	H	1.157719	-0.806491	-0.260522
H108	H	1.657719	-0.306491	0.239478
N109	N	0.643805	-0.366256	-0.256946
N110	N	1.143805	0.133744	0.243054
H111	H	0.607794	-0.323637	-0.227183
H112	H	1.107794	0.176363	0.272817
H113	H	0.675679	-0.408948	-0.222835
H114	H	1.175679	0.091052	0.277165
N115	N	0.965699	-0.891541	-0.452340
N116	N	1.465699	-0.391541	0.047660
H117	H	0.977105	-0.910569	-0.504937
H118	H	1.477105	-0.410569	-0.004937
H119	H	0.913149	-0.910722	-0.440806
H120	H	1.413149	-0.410722	0.059194
N121	N	0.965791	-0.645612	-0.775052
N122	N	1.465791	-0.145612	-0.275052
H123	H	0.972927	-0.635431	-0.720535
H124	H	1.472927	-0.135431	-0.220535
H125	H	0.913236	-0.629255	-0.788477
H126	H	1.413236	-0.129255	-0.288477
H127	H	0.633679	-0.628172	-0.439843
H128	H	1.133679	-0.128172	0.060157
H129	H	0.494252	-0.628176	-0.439859
H130	H	0.994252	-0.128176	0.060141
N131	N	1.255724	-1.119576	-0.162852
N132	N	1.755724	-0.619576	0.337148
H133	H	1.308293	-1.100407	-0.174322
H134	H	1.808293	-0.600407	0.325678
H135	H	1.244250	-1.100526	-0.110276
H136	H	1.744250	-0.600526	0.389724
H137	H	0.494201	-0.384067	-0.269372
H138	H	0.994201	0.115933	0.230628
N139	N	1.161511	-0.366303	-0.775129
N140	N	1.661511	0.133697	-0.275129
H141	H	1.191338	-0.323727	-0.811149
H142	H	1.691338	0.176273	-0.311149
H143	H	1.131560	-0.317692	-0.743240
H144	H	1.631560	0.182308	-0.243240
H145	H	1.243192	-0.905999	-0.175238
H146	H	1.743192	-0.405999	0.324762
N147	N	1.161519	-0.366228	-0.934882
N148	N	1.661519	0.133772	-0.434882
H149	H	1.191337	-0.323678	-0.898885
H150	H	1.691337	0.176322	-0.398885
H151	H	1.195573	-0.408975	-0.966777
H152	H	1.695573	0.091025	-0.466777
H153	H	1.157889	-1.204627	-0.260614
H154	H	1.657889	-0.704627	0.239386
N155	N	0.965783	-1.119620	-0.452389
N156	N	1.465783	-0.619620	0.047611
H157	H	0.972956	-1.197452	-0.445266
H158	H	1.472956	-0.697452	0.054734
H159	H	0.913223	-1.100511	-0.440882
H160	H	1.413223	-0.600511	0.059118
N161	N	0.965796	-0.645527	-0.934805
N162	N	1.465796	-0.145527	-0.434805
H163	H	0.972945	-0.635312	-0.989328
H164	H	1.472945	-0.135312	-0.489328
H165	H	0.977220	-0.720572	-0.921368
H166	H	1.477220	-0.220572	-0.421368
