data_functionalizedCrystal
_audit_creation_method	'MofGen! by Chris Wilmer'
_symmetry_space_group_name_H-M	'P1'
_symmetry_Int_Tables_number	1
_symmetry_cell_setting	triclinic
loop_
_symmetry_equiv_pos_as_xyz
  x,y,z
_cell_length_a	25.639242
_cell_length_b	25.639240
_cell_length_c	18.101390
_cell_angle_alpha	90.042126
_cell_angle_beta	90.020307
_cell_angle_gamma	90.025061
loop_
_atom_site_label
_atom_site_type_symbol
_atom_site_fract_x
_atom_site_fract_y
_atom_site_fract_z
Zn1	Zn	0.799277	-0.208238	0.418705
Zn2	Zn	0.799201	-0.295682	0.294843
Zn3	Zn	0.711845	-0.208250	0.294875
Zn4	Zn	0.711808	-0.295633	0.418641
O5	O	0.755533	-0.251951	0.356766
O6	O	0.872432	-0.219853	0.402287
O7	O	0.787596	-0.284109	0.191215
O8	O	0.723490	-0.135084	0.311342
O9	O	0.872376	-0.284098	0.311287
O10	O	0.787727	-0.135075	0.402319
O11	O	0.723416	-0.219874	0.191238
O12	O	0.638674	-0.219826	0.311280
O13	O	0.723427	-0.284014	0.522283
O14	O	0.638647	-0.284026	0.402210
O15	O	0.787691	-0.219806	0.522329
O16	O	0.787560	-0.368840	0.311226
O17	O	0.723353	-0.368804	0.402179
C18	C	0.619690	-0.251922	0.356742
C19	C	0.561576	-0.251923	0.356750
C20	C	0.310420	-0.218558	0.404237
C21	C	0.365024	-0.218553	0.404232
O22	O	0.393293	-0.190162	0.444602
N23	N	0.392302	-0.251945	0.356775
C24	C	0.364973	-0.285348	0.309324
O25	O	0.393189	-0.313750	0.268957
C26	C	0.310370	-0.285355	0.309332
C27	C	0.283094	-0.251957	0.356788
C28	C	0.283145	-0.185164	0.451689
C29	C	0.228544	-0.185168	0.451692
C30	C	0.201219	-0.218567	0.404243
C31	C	0.228494	-0.251962	0.356791
C32	C	0.283041	-0.318760	0.261885
C33	C	0.228434	-0.318765	0.261898
C34	C	0.201159	-0.285367	0.309354
C35	C	0.146568	-0.285366	0.309344
N36	N	0.119290	-0.251974	0.356802
C37	C	0.146615	-0.218575	0.404251
C38	C	0.479643	-0.285330	0.309310
C39	C	0.534246	-0.285320	0.309297
C40	C	0.534293	-0.218526	0.404208
C41	C	0.479690	-0.218534	0.404216
C42	C	0.452366	-0.251938	0.356768
C43	C	0.031950	-0.218587	0.404254
C44	C	-0.022655	-0.218593	0.404250
C45	C	-0.022698	-0.285388	0.309343
C46	C	0.031903	-0.285381	0.309344
C47	C	0.059226	-0.251978	0.356805
O48	O	0.118265	-0.313743	0.268997
O49	O	0.118393	-0.190182	0.444618
C50	C	0.755459	-0.387793	0.356708
C51	C	0.755475	-0.445907	0.356708
C52	C	0.788997	-0.806227	0.404223
C53	C	0.789013	-0.860832	0.404238
O54	O	0.817426	-0.889032	0.444578
N55	N	0.755605	-0.888190	0.356838
C56	C	0.722176	-0.860941	0.309424
O57	O	0.693762	-0.889225	0.269108
C58	C	0.722159	-0.806338	0.309414
C59	C	0.755572	-0.778982	0.356812
C60	C	0.822407	-0.778872	0.451619
C61	C	0.822392	-0.724271	0.451602
C62	C	0.788967	-0.697026	0.404191
C63	C	0.755557	-0.724382	0.356796
C64	C	0.688728	-0.779090	0.262004
C65	C	0.688713	-0.724483	0.261998
C66	C	0.722126	-0.697127	0.309397
C67	C	0.722117	-0.642536	0.309368
N68	N	0.755525	-0.615178	0.356769
C69	C	0.788950	-0.642423	0.404180
C70	C	0.722215	-0.975611	0.309452
C71	C	0.722235	-1.030214	0.309458
C72	C	0.789071	-1.030101	0.404273
C73	C	0.789053	-0.975497	0.404263
C74	C	0.755623	-0.948253	0.356852
C75	C	0.788916	-0.527758	0.404142
C76	C	0.788900	-0.473152	0.404120
C77	C	0.722063	-0.473270	0.309307
C78	C	0.722081	-0.527871	0.309327
C79	C	0.755509	-0.555113	0.356750
O80	O	0.693716	-0.614301	0.269052
O81	O	0.817355	-0.614132	0.444496
C82	C	0.891906	-0.251979	0.356791
C83	C	0.950020	-0.251992	0.356801
C84	C	0.755564	-0.251903	0.549928
C85	C	0.755577	-0.251883	0.632242
C86	C	0.755621	-0.115578	0.356841
C87	C	0.755659	-0.057464	0.356872
C88	C	0.755532	-0.251961	0.164356
C89	C	0.755620	-0.251834	0.082042
C90	C	0.755605	-0.251850	0.931334
C91	C	0.796171	-0.211594	0.900038
C92	C	0.796045	-0.211445	0.814419
C93	C	0.755592	-0.251866	0.782951
C94	C	0.700512	-0.236889	0.814027
C95	C	0.700755	-0.236587	0.899672
C96	C	0.769634	-0.307186	0.899733
C97	C	0.770843	-0.306904	0.814083
C98	C	0.755581	-0.251876	0.699091
C99	C	0.755612	-0.251839	1.015193
H100	H	0.206190	-0.345969	0.223261
F101	F	0.684685	-0.184603	0.786024
H102	H	0.849599	-0.702002	0.490200
H103	H	0.305239	-0.345956	0.223242
H104	H	0.816261	-0.953228	0.442859
H105	H	0.740090	-0.337182	0.919976
F106	F	0.060932	-0.320927	0.258839
F107	F	0.784190	-0.158310	0.928200
F108	F	0.824466	-0.444042	0.454568
H109	H	0.457486	-0.191338	0.442858
F110	F	-0.051789	-0.320931	0.258845
H111	H	0.694850	-0.451079	0.270703
H112	H	0.786759	-0.170450	0.793956
H113	H	0.836887	-0.220825	0.793410
H114	H	0.816287	-1.052294	0.442880
H115	H	0.695032	-1.052482	0.270853
F116	F	0.824495	-0.556744	0.454614
F117	F	0.821231	-0.324991	0.927970
H118	H	0.694994	-0.953432	0.270838
F119	F	0.735029	-0.348217	0.786086
F120	F	0.857984	-0.807860	0.502088
H121	H	0.811376	-0.318198	0.793772
F122	F	0.685191	-0.183722	0.925816
F123	F	0.659901	-0.273237	0.926732
F124	F	0.653163	-0.808192	0.211558
F125	F	0.563385	-0.182980	0.454708
H126	H	0.837147	-0.220858	0.920638
H127	H	0.694877	-0.550145	0.270725
H128	H	0.661488	-0.702303	0.223392
F129	F	0.659933	-0.274035	0.787389
H130	H	0.054190	-0.191387	0.442901
F131	F	-0.051680	-0.183044	0.454760
H132	H	0.206342	-0.157975	0.490338
H133	H	0.305387	-0.157966	0.490331
F134	F	0.563268	-0.320858	0.258777
H135	H	0.457399	-0.312531	0.270666
