data_functionalizedCrystal
_audit_creation_method	'MofGen! by Chris Wilmer'
_symmetry_space_group_name_H-M	'P1'
_symmetry_Int_Tables_number	1
_symmetry_cell_setting	triclinic
loop_
_symmetry_equiv_pos_as_xyz
  x,y,z
_cell_length_a	6.817900
_cell_length_b	16.015009
_cell_length_c	10.943624
_cell_angle_alpha	76.687987
_cell_angle_beta	108.838799
_cell_angle_gamma	104.487874
loop_
_atom_site_label
_atom_site_type_symbol
_atom_site_fract_x
_atom_site_fract_y
_atom_site_fract_z
V1	V	-4.064071	-0.119532	-0.346379
O2	O	-4.075685	0.005767	-0.397598
O3	O	-3.991471	-0.237034	-0.288407
O4	O	-4.042829	-0.117683	-0.522814
O5	O	-4.023972	-0.114410	-0.161569
V6	V	-4.547316	-0.104546	-0.331028
O7	O	-4.325940	-0.152405	-0.380051
O8	O	-4.735644	-0.071673	-0.297357
O9	O	-4.396710	0.012956	-0.389000
O10	O	-4.653099	-0.229845	-0.279809
O11	O	-4.704813	-0.109668	-0.515838
O12	O	-4.345352	-0.106395	-0.154593
C13	C	-3.829706	-0.265678	-0.268595
C14	C	-3.851815	-0.361738	-0.222373
C15	C	-3.827185	-0.484799	-0.044793
C16	C	-3.806416	-0.394538	-0.088239
C17	C	-3.918014	-0.419194	-0.313113
C18	C	-3.938803	-0.509459	-0.269686
C19	C	-3.893382	-0.542254	-0.135524
C20	C	-4.005000	-0.566914	-0.360417
C21	C	-4.025776	-0.657171	-0.316993
C22	C	-3.980355	-0.689973	-0.182837
C23	C	-3.914158	-0.632510	-0.092100
C24	C	-4.050405	-0.534117	-0.494578
C25	C	-4.116602	-0.591572	-0.585310
C26	C	-4.137394	-0.681831	-0.541886
C27	C	-4.091973	-0.714633	-0.407730
C28	C	-4.203591	-0.739294	-0.632623
C29	C	-4.224367	-0.829550	-0.589199
C30	C	-4.112749	-0.804890	-0.364305
C31	C	-3.895217	-0.113433	-0.567604
C32	C	-3.958973	-0.112699	-0.711475
C33	C	-3.805930	-0.107755	-0.790946
C34	C	-3.963718	-0.181138	-0.862451
C35	C	-3.914809	-0.038016	-0.896322
C36	C	-4.115943	-0.186151	-0.781071
C37	C	-4.066981	-0.042964	-0.814949
C38	C	-4.224897	-0.116368	-0.886414
C39	C	-4.221815	0.041596	-0.408806
C40	C	-4.178946	0.137655	-0.455037
C41	C	-4.156304	-0.110647	-0.109795
C42	C	-4.071788	-0.111376	0.034075
H43	H	-3.790213	-0.511502	0.064455
H44	H	-3.752494	-0.347758	-0.014343
H45	H	-3.954983	-0.392479	-0.422348
H46	H	-3.877186	-0.659214	0.017148
H47	H	-3.997262	-0.763466	-0.147482
H48	H	-3.628254	-0.104212	-0.749163
H49	H	-3.830388	0.024575	-0.946498
H50	H	-4.075777	-0.831593	-0.255058
H51	H	-4.033426	-0.460622	-0.529929
H52	H	-4.153571	-0.564858	-0.694545
H53	H	-4.240546	-0.712577	-0.741857
H54	H	-3.920726	-0.239553	-0.883948
H55	H	-4.278263	-0.876332	-0.663082
H56	H	-4.200362	-0.248826	-0.731073
H57	H	-4.109891	0.015454	-0.793418
H58	H	-4.402637	-0.120027	-0.927939
