data_functionalizedCrystal
_audit_creation_method	'MofGen! by Chris Wilmer'
_symmetry_space_group_name_H-M	'P1'
_symmetry_Int_Tables_number	1
_symmetry_cell_setting	triclinic
loop_
_symmetry_equiv_pos_as_xyz
  x,y,z
_cell_length_a	23.532407
_cell_length_b	15.944551
_cell_length_c	22.010155
_cell_angle_alpha	89.996699
_cell_angle_beta	90.003069
_cell_angle_gamma	83.173708
loop_
_atom_site_label
_atom_site_type_symbol
_atom_site_fract_x
_atom_site_fract_y
_atom_site_fract_z
O1	O	-0.755659	-0.101953	-0.050451
O2	O	-0.589852	-0.116706	-0.050469
O3	O	-0.677283	0.012984	-0.050454
O4	O	-0.668228	-0.231642	-0.050466
O5	O	-0.677267	0.012964	0.050597
O6	O	-0.589837	-0.116726	0.050582
O7	O	-0.755643	-0.101972	0.050600
Cu8	Cu	-0.672738	-0.109351	0.059817
Cu9	Cu	-0.672757	-0.109328	-0.059686
O10	O	-0.668212	-0.231662	0.050585
C11	C	-0.568627	-0.116340	0.000054
C12	C	-0.505406	-0.115211	0.000048
C13	C	-0.676899	0.044265	0.000072
C14	C	-0.675772	0.137501	0.000072
C15	C	-0.776868	-0.102338	0.000075
C16	C	-0.840090	-0.103468	0.000078
C17	C	-0.106572	-0.184874	0.000072
C18	C	-0.047168	-0.183824	0.000075
O19	O	-0.010674	-0.248403	0.000094
N20	N	-0.024243	-0.106724	0.000078
C21	C	-0.060726	-0.030668	0.000083
O22	O	-0.035772	0.035009	0.000087
C23	C	-0.120129	-0.031718	0.000084
C24	C	-0.143051	-0.108823	0.000075
C25	C	-0.129494	-0.261973	0.000063
C26	C	-0.188894	-0.263022	0.000059
C27	C	-0.225373	-0.186971	0.000062
C28	C	-0.202451	-0.109872	0.000070
C29	C	-0.156611	0.044337	0.000093
C30	C	-0.216018	0.043281	0.000094
C31	C	-0.238939	-0.033825	0.000086
C32	C	-0.298329	-0.034871	0.000069
N33	N	-0.321254	-0.111971	0.000066
C34	C	-0.284776	-0.188022	0.000062
C35	C	0.064025	-0.028468	0.000083
C36	C	0.123427	-0.027417	0.000078
C37	C	0.136981	-0.180574	0.000072
C38	C	0.077578	-0.181624	0.000072
C39	C	0.041100	-0.105569	0.000080
C40	C	-0.409521	-0.190219	0.000052
C41	C	-0.468927	-0.191261	0.000044
C42	C	-0.482476	-0.038104	0.000054
C43	C	-0.423075	-0.037062	0.000058
C44	C	-0.386599	-0.113126	0.000059
O45	O	-0.334859	0.029673	0.000052
O46	O	-0.309738	-0.253687	0.000067
C47	C	-0.668596	-0.262943	0.000058
C48	C	-0.669723	-0.356179	0.000054
N49	N	-0.672729	-0.109366	0.143870
C50	C	-0.618885	0.351879	0.000057
C51	C	-0.645294	0.413109	0.049884
C52	C	-0.673733	0.308210	0.000067
C53	C	-0.645322	0.413111	-0.049744
C54	C	-0.671760	0.473106	0.000060
C55	C	-0.700157	0.368212	0.049935
C56	C	-0.700178	0.368208	-0.049738
C57	C	-0.726627	0.429421	0.000101
C58	C	-0.674869	0.213217	0.000072
C59	C	-0.670629	0.568097	0.000059
N60	N	-0.672771	-0.109305	-0.143739
C61	C	-0.711474	-0.051909	0.563656
C62	C	-0.711476	-0.051903	0.627263
O63	O	-0.744395	-0.003062	0.660161
N64	N	-0.672757	-0.109310	0.659077
C65	C	-0.634028	-0.166721	0.627280
O66	O	-0.601094	-0.215548	0.660180
C67	C	-0.634023	-0.166722	0.563673
C68	C	-0.672749	-0.109317	0.531863
C69	C	-0.750196	0.005492	0.531846
C70	C	-0.750194	0.005485	0.468242
C71	C	-0.711470	-0.051923	0.436449
C72	C	-0.672747	-0.109324	0.468260
C73	C	-0.595292	-0.224128	0.531877
C74	C	-0.595290	-0.224123	0.468266
C75	C	-0.634016	-0.166719	0.436456
C76	C	-0.634020	-0.166739	0.372864
N77	N	-0.672740	-0.109332	0.341050
C78	C	-0.711465	-0.051924	0.372843
C79	C	-0.634041	-0.166713	0.760857
C80	C	-0.634048	-0.166717	0.824463
C81	C	-0.711496	-0.051898	0.824442
C82	C	-0.711491	-0.051899	0.760836
C83	C	-0.672760	-0.109306	0.729044
C84	C	-0.711458	-0.051944	0.239272
C85	C	-0.711454	-0.051959	0.175663
C86	C	-0.634004	-0.166774	0.175689
C87	C	-0.634010	-0.166763	0.239292
C88	C	-0.672739	-0.109341	0.271082
O89	O	-0.601117	-0.215553	0.339926
O90	O	-0.744388	-0.003097	0.339935
H91	H	-0.487586	-0.254052	0.000037
O92	O	-0.592229	-0.228668	0.141383
H93	H	-0.616191	-0.269312	0.112392
O94	O	-0.753252	0.010036	0.726536
H95	H	-0.729271	0.050679	0.697563
O96	O	-0.553534	-0.286076	0.566163
H97	H	-0.509137	-0.275718	0.553960
H98	H	-0.404412	0.025724	0.000057
O99	O	-0.753265	0.010018	0.858743
H100	H	-0.780198	0.049934	0.825942
O101	O	-0.614561	0.439473	0.105680
H102	H	-0.577174	0.471240	0.091646
O103	O	-0.614593	0.439483	-0.105539
H104	H	-0.636960	0.420621	-0.146853
O105	O	-0.730850	0.341992	0.105799
H106	H	-0.731423	0.272487	0.105376
O107	O	-0.592243	-0.228683	0.273602
H108	H	-0.616213	-0.269331	0.302581
O109	O	-0.255358	0.125318	0.000102
H110	H	-0.282741	0.128498	0.041291
H111	H	-0.781726	0.052231	0.442346
O112	O	-0.791970	0.067417	0.566127
H113	H	-0.785474	0.057790	0.615703
H114	H	-0.742991	-0.005213	0.149765
H115	H	-0.602519	-0.213469	0.850358
H116	H	-0.723364	0.348281	-0.091859
H117	H	-0.742994	-0.005185	0.265148
H118	H	-0.563749	-0.270870	0.442384
H119	H	-0.379828	-0.252157	0.000054
O120	O	0.148143	0.055750	0.000081
H121	H	0.195578	0.043713	0.000078
H122	H	-0.602503	-0.213468	0.734976
O123	O	-0.558584	0.307234	0.000121
H124	H	-0.551740	0.267554	-0.041269
O125	O	-0.786983	0.473863	0.000108
H126	H	-0.793610	0.514410	0.041088
O127	O	-0.213614	-0.346185	0.000067
H128	H	-0.178261	-0.398884	0.000076
O129	O	-0.090153	-0.344005	0.000061
H130	H	-0.098310	-0.380908	-0.041132
O131	O	0.052856	-0.264786	0.000074
H132	H	0.088207	-0.317487	0.000077
O133	O	0.176331	-0.262605	0.000078
H134	H	0.221487	-0.248914	0.000088
H135	H	-0.137960	0.107125	0.000101
O136	O	0.024681	0.053568	0.000087
H137	H	0.032829	0.090491	-0.041101
O138	O	-0.521825	0.043920	0.000066
H139	H	-0.566981	0.030229	0.000072
