data_functionalizedCrystal
_audit_creation_method	'MofGen! by Chris Wilmer'
_symmetry_space_group_name_H-M	'P1'
_symmetry_Int_Tables_number	1
_symmetry_cell_setting	triclinic
loop_
_symmetry_equiv_pos_as_xyz
  x,y,z
_cell_length_a	14.853566
_cell_length_b	23.532407
_cell_length_c	13.330367
_cell_angle_alpha	89.986859
_cell_angle_beta	89.995295
_cell_angle_gamma	83.241581
loop_
_atom_site_label
_atom_site_type_symbol
_atom_site_fract_x
_atom_site_fract_y
_atom_site_fract_z
O1	O	1.195556	0.074349	-0.083377
O2	O	1.695556	0.574349	0.416623
O3	O	0.933000	0.083207	-0.083396
O4	O	1.433000	0.583207	0.416604
O5	O	1.072195	-0.004119	-0.083357
O6	O	1.572195	0.495881	0.416643
O7	O	1.056361	0.161675	-0.083415
O8	O	1.556361	0.661675	0.416585
O9	O	1.072175	-0.004121	0.083490
O10	O	1.572175	0.495879	0.583490
O11	O	0.932980	0.083205	0.083452
O12	O	1.432980	0.583205	0.583452
O13	O	1.195536	0.074347	0.083471
O14	O	1.695536	0.574347	0.583471
Cu15	Cu	1.064256	0.078776	0.098696
Cu16	Cu	1.564256	0.578776	0.598696
Cu17	Cu	1.064280	0.078778	-0.098621
Cu18	Cu	1.564280	0.578778	0.401379
O19	O	1.056341	0.161673	0.083432
O20	O	1.556341	0.661673	0.583432
C21	C	0.899405	0.082805	0.000026
C22	C	1.399405	0.582805	0.500026
C23	C	0.799335	0.081603	0.000020
C24	C	1.299335	0.581603	0.500020
C25	C	0.376217	0.076518	-0.090909
C26	C	0.876217	0.576518	0.409091
C27	C	0.376216	0.076516	0.090994
C28	C	0.876216	0.576516	0.590994
C29	C	0.470238	0.077646	0.090991
C30	C	0.970238	0.577646	0.590991
C31	C	0.517253	0.078212	0.000036
C32	C	1.017253	0.578212	0.500036
C33	C	0.470247	0.077649	-0.090915
C34	C	0.970247	0.577649	0.409085
C35	C	0.517250	0.078214	0.181941
C36	C	1.017250	0.578214	0.681941
C37	C	0.611277	0.079344	0.181941
C38	C	1.111277	0.579344	0.681941
C39	C	0.658295	0.079906	0.090985
C40	C	1.158295	0.579906	0.590985
C41	C	0.611283	0.079343	0.000030
C42	C	1.111283	0.579343	0.500030
C43	C	0.658298	0.079909	-0.090925
C44	C	1.158298	0.579909	0.409075
C45	C	0.611289	0.079342	-0.181881
C46	C	1.111289	0.579342	0.318119
C47	C	0.517264	0.078211	-0.181871
C48	C	1.017264	0.578211	0.318129
C49	C	0.752320	0.081036	0.090975
C50	C	1.252320	0.581036	0.590975
C51	C	0.752328	0.081040	-0.090931
C52	C	1.252328	0.581040	0.409069
C53	C	1.071782	-0.025338	0.000071
C54	C	1.571782	0.474662	0.500071
C55	C	1.070570	-0.088560	0.000086
C56	C	1.570570	0.411440	0.500086
C57	C	0.983197	-0.355109	0.000018
C58	C	1.483197	0.144891	0.500018
C59	C	0.984323	-0.295703	0.000025
C60	C	1.484323	0.204297	0.500025
O61	O	0.915012	-0.259261	-0.000011
O62	O	1.415012	0.240739	0.499989
N63	N	1.067075	-0.272716	0.000043
N64	N	1.567075	0.227284	0.500043
C65	C	1.148706	-0.309138	0.000042
C66	C	1.648706	0.190862	0.500042
O67	O	1.219196	-0.284131	0.000057
O68	O	1.719196	0.215869	0.500057
C69	C	1.147579	-0.368542	0.000027
C70	C	1.647579	0.131458	0.500027
C71	C	1.064822	-0.391525	0.000020
C72	C	1.564822	0.108475	0.500020
C73	C	0.900447	-0.378093	0.000009
C74	C	1.400447	0.121907	0.500009
C75	C	0.899321	-0.437494	0.000003
C76	C	1.399321	0.062506	0.500003
C77	C	0.980946	-0.473911	0.000006
C78	C	1.480946	0.026089	0.500006
C79	C	1.063696	-0.450926	0.000014
C80	C	1.563696	0.049074	0.500014
C81	C	1.229209	-0.404962	0.000020
C82	C	1.729209	0.095038	0.500020
C83	C	1.228075	-0.464369	0.000004
C84	C	1.728075	0.035631	0.500004
C85	C	1.145317	-0.487353	-0.000003
C86	C	1.645317	0.012647	0.499997
C87	C	1.144195	-0.546744	0.000011
C88	C	1.644195	-0.046744	0.500011
N89	N	1.061443	-0.569731	-0.000007
N90	N	1.561443	-0.069731	0.499993
C91	C	0.979818	-0.533315	-0.000009
C92	C	1.479818	-0.033315	0.499991
C93	C	1.151067	-0.184385	0.000072
C94	C	1.651067	0.315615	0.500072
C95	C	1.152195	-0.124982	0.000094
C96	C	1.652195	0.375018	0.500094
C97	C	0.987812	-0.111552	0.000075
C98	C	1.487812	0.388448	0.500075
C99	C	0.986685	-0.170956	0.000060
C100	C	1.486685	0.329044	0.500060
C101	C	1.068315	-0.207372	0.000054
C102	C	1.568315	0.292628	0.500054
C103	C	0.977460	-0.658062	-0.000021
C104	C	1.477460	-0.158062	0.499979
C105	C	0.976342	-0.717469	-0.000023
C106	C	1.476342	-0.217469	0.499977
C107	C	1.140724	-0.730894	-0.000009
C108	C	1.640724	-0.230894	0.499991
C109	C	1.141843	-0.671492	-0.000002
C110	C	1.641843	-0.171492	0.499998
C111	C	1.060204	-0.635077	-0.000011
C112	C	1.560204	-0.135077	0.499989
O113	O	1.213470	-0.583221	0.000043
O114	O	1.713470	-0.083221	0.500043
O115	O	0.909340	-0.558330	-0.000037
O116	O	1.409340	-0.058330	0.499963
C117	C	1.229131	0.074750	0.000047
C118	C	1.729131	0.574750	0.500047
C119	C	1.329201	0.075952	0.000046
C120	C	1.829201	0.575952	0.500046
C121	C	1.056754	0.182892	0.000002
C122	C	1.556754	0.682892	0.500002
C123	C	1.057966	0.246115	-0.000020
C124	C	1.557966	0.746115	0.499980
N125	N	1.064246	0.078774	0.237477
N126	N	1.564246	0.578774	0.737477
N127	N	1.064297	0.078776	-0.237402
N128	N	1.564297	0.578776	0.262598
C129	C	1.002642	0.117431	0.710083
C130	C	1.502642	0.617431	1.210083
C131	C	1.125943	0.040121	0.710085
C132	C	1.625943	0.540121	1.210085
C133	C	1.125932	0.040119	0.605066
C134	C	1.625932	0.540119	1.105066
C135	C	1.064277	0.078775	0.552552
C136	C	1.564277	0.578775	1.052552
C137	C	1.002631	0.117432	0.605055
C138	C	1.502631	0.617432	1.105055
C139	C	1.187583	0.001467	0.552555
C140	C	1.687583	0.501467	1.052555
C141	C	1.187576	0.001464	0.447530
C142	C	1.687576	0.501464	0.947530
C143	C	1.125915	0.040117	0.395014
C144	C	1.625915	0.540117	0.895014
C145	C	1.064267	0.078775	0.447523
C146	C	1.564267	0.578775	0.947523
C147	C	1.002611	0.117431	0.395009
C148	C	1.502611	0.617431	0.895009
C149	C	0.940957	0.156087	0.447517
C150	C	1.440957	0.656087	0.947517
C151	C	0.940971	0.156085	0.552538
C152	C	1.440971	0.656085	1.052538
C153	C	1.125902	0.040119	0.289992
C154	C	1.625902	0.540119	0.789992
C155	C	1.002601	0.117431	0.289980
C156	C	1.502601	0.617431	0.789980
H157	H	0.908948	-0.736178	-0.000024
H158	H	1.408948	-0.236178	0.499976
Cl159	Cl	1.253699	-0.230160	0.000077
Cl160	Cl	1.753699	0.269840	0.500077
H161	H	0.649545	0.079805	0.256003
H162	H	1.149545	0.579805	0.756003
Cl163	Cl	1.333253	-0.376083	0.000005
Cl164	Cl	1.833253	0.123917	0.500005
Cl165	Cl	0.811427	0.081747	-0.205281
Cl166	Cl	1.311427	0.581747	0.294719
Cl167	Cl	1.330703	-0.510147	-0.000007
Cl168	Cl	1.830703	-0.010147	0.499993
Cl169	Cl	0.797818	-0.332321	0.000004
Cl170	Cl	1.297818	0.167679	0.500004
Cl171	Cl	0.863456	0.204684	0.381487
Cl172	Cl	1.363456	0.704684	0.881487
H173	H	0.919297	-0.189665	0.000058
H174	H	1.419297	0.310335	0.500058
Cl175	Cl	0.317126	0.075788	-0.205247
Cl176	Cl	0.817126	0.575788	0.294753
H177	H	0.890775	0.187558	0.595297
H178	H	1.390775	0.687558	1.095297
Cl179	Cl	0.925134	0.166023	0.776087
Cl180	Cl	1.425134	0.666023	1.276087
H181	H	1.237776	-0.030012	0.404785
H182	H	1.737776	0.469988	0.904785
H183	H	1.207181	-0.760555	-0.000002
H184	H	1.707181	-0.260555	0.499998
H185	H	0.921349	-0.081890	0.000074
H186	H	1.421349	0.418110	0.500074
Cl187	Cl	0.317109	0.075811	0.205331
Cl188	Cl	0.817109	0.575811	0.705331
H189	H	1.219584	-0.106274	0.000116
H190	H	1.719584	0.393726	0.500116
H191	H	0.910982	-0.628419	-0.000029
H192	H	1.410982	-0.128419	0.499971
H193	H	1.209231	-0.652778	0.000018
H194	H	1.709231	-0.152778	0.500018
H195	H	1.176145	0.008652	0.752846
H196	H	1.676145	0.508652	1.252846
H197	H	1.237785	-0.030002	0.595316
H198	H	1.737785	0.469998	1.095316
H199	H	1.176103	0.008648	0.247245
H200	H	1.676103	0.508648	0.747245
H201	H	0.649580	0.079807	-0.255936
H202	H	1.149580	0.579807	0.244064
Cl203	Cl	0.458140	0.077509	0.296275
Cl204	Cl	0.958140	0.577509	0.796275
Cl205	Cl	0.458167	0.077476	-0.296204
Cl206	Cl	0.958167	0.577476	0.203796
Cl207	Cl	0.811412	0.081754	0.205310
Cl208	Cl	1.311412	0.581754	0.705310
H209	H	0.831932	-0.456201	-0.000011
H210	H	1.331932	0.043799	0.499989
H211	H	0.952390	0.148907	0.247229
H212	H	1.452390	0.648907	0.747229
