data_functionalizedCrystal
_audit_creation_method	'MofGen! by Chris Wilmer'
_symmetry_space_group_name_H-M	'P1'
_symmetry_Int_Tables_number	1
_symmetry_cell_setting	triclinic
loop_
_symmetry_equiv_pos_as_xyz
  x,y,z
_cell_length_a	15.298068
_cell_length_b	12.645330
_cell_length_c	15.298259
_cell_angle_alpha	80.290637
_cell_angle_beta	91.587309
_cell_angle_gamma	99.672781
loop_
_atom_site_label
_atom_site_type_symbol
_atom_site_fract_x
_atom_site_fract_y
_atom_site_fract_z
Zn1	Zn	1.253486	-0.019456	-0.727437
Zn2	Zn	1.278755	-0.221410	-0.580962
Zn3	Zn	1.132350	-0.079058	-0.555589
Zn4	Zn	1.107003	-0.231605	-0.701998
O5	O	1.192898	-0.137882	-0.641496
O6	O	1.379413	-0.017035	-0.729272
O7	O	1.280516	-0.223204	-0.455023
O8	O	1.148451	0.077208	-0.578413
O9	O	1.397978	-0.165410	-0.621657
O10	O	1.237450	0.120997	-0.704669
O11	O	1.172953	-0.118619	-0.436382
O12	O	1.006412	-0.128504	-0.553746
O13	O	1.105252	-0.182786	-0.827945
O14	O	0.987790	-0.240579	-0.661311
O15	O	1.212872	-0.026921	-0.846635
O16	O	1.255939	-0.371122	-0.596990
O17	O	1.129753	-0.378612	-0.685914
C18	C	0.965319	-0.192116	-0.602015
C19	C	0.867956	-0.215340	-0.585146
C20	C	0.554784	0.027835	-0.762067
C21	C	0.646261	0.049653	-0.777921
C22	C	0.701689	-0.016593	-0.729729
C23	C	0.665632	-0.104661	-0.665679
C24	C	0.574145	-0.126486	-0.649828
C25	C	0.721050	-0.170914	-0.617490
C26	C	0.684993	-0.258982	-0.553440
C27	C	0.593515	-0.280803	-0.537591
C28	C	0.538087	-0.214557	-0.585784
C29	C	0.812536	-0.149090	-0.633341
C30	C	0.831898	-0.303411	-0.521102
C31	C	0.740421	-0.325228	-0.505247
C32	C	1.192858	-0.413326	-0.641468
C33	C	1.192916	-0.531138	-0.641499
C34	C	1.272214	-0.693995	-0.585401
C35	C	1.272406	-0.571354	-0.585605
C36	C	1.201970	-0.554016	-0.738165
C37	C	1.202569	-0.676547	-0.737898
C38	C	1.104379	-0.724516	-0.601837
C39	C	1.105181	-0.602154	-0.599844
C40	C	1.421366	-0.083437	-0.681132
C41	C	1.518726	-0.060236	-0.698023
C42	C	1.153416	-0.099342	-0.869961
C43	C	1.136591	-0.082918	-0.967318
C44	C	1.192959	0.138646	-0.641548
C45	C	1.192985	0.256486	-0.641570
C46	C	1.313178	-0.254440	-1.280569
C47	C	1.328981	-0.269879	-1.189096
C48	C	1.280885	-0.223140	-1.133647
C49	C	1.216983	-0.160960	-1.169680
C50	C	1.201173	-0.145527	-1.261162
C51	C	1.168880	-0.114227	-1.114240
C52	C	1.104978	-0.052047	-1.150273
C53	C	1.089171	-0.036616	-1.241746
C54	C	1.137267	-0.083355	-1.297195
C55	C	1.184690	-0.129660	-1.022758
C56	C	1.072685	-0.020746	-1.003351
C57	C	1.056882	-0.005308	-1.094825
C58	C	1.232277	-0.176184	-0.413930
C59	C	1.249272	-0.192268	-0.316602
H60	H	0.877027	-0.357358	-0.481863
H61	H	0.509646	0.081758	-0.801303
F62	F	0.440725	-0.237770	-0.568910
H63	H	1.045544	-0.757191	-0.642552
F64	F	1.267373	-0.552081	-0.492578
F65	F	1.297709	-0.239569	-1.036293
F66	F	1.396989	-0.336051	-1.150753
F67	F	1.252698	-0.195834	-0.984419
F68	F	1.089587	-0.786691	-0.510214
F69	F	1.286602	-0.688298	-0.779448
F70	F	0.555143	-0.374532	-0.469422
F71	F	1.284928	-0.488421	-0.779982
F72	F	1.129279	-0.718478	-0.795584
F73	F	0.702035	-0.418954	-0.437083
F74	F	0.799047	0.006630	-0.746604
F75	F	1.021485	0.028987	-0.944341
H76	H	0.675611	0.121355	-0.830073
H77	H	1.124406	-0.070785	-1.371681
F78	F	1.364349	-0.304187	-1.339584
F79	F	1.267536	-0.752547	-0.492153
H80	H	1.337828	-0.705842	-0.612716
H81	H	1.098065	-0.589091	-0.528627
H82	H	1.004852	0.045319	-1.124176
F83	F	1.025552	-0.568576	-0.647708
F84	F	1.358608	-0.508075	-0.621624
F85	F	1.127932	-0.519361	-0.795233
F86	F	1.021132	0.029520	-1.280088
H87	H	0.841885	-0.077383	-0.685490
