data_functionalizedCrystal
_audit_creation_method	'MofGen! by Chris Wilmer'
_symmetry_space_group_name_H-M	'P1'
_symmetry_Int_Tables_number	1
_symmetry_cell_setting	triclinic
loop_
_symmetry_equiv_pos_as_xyz
  x,y,z
_cell_length_a	17.699097
_cell_length_b	10.489711
_cell_length_c	16.176319
_cell_angle_alpha	89.996931
_cell_angle_beta	89.988988
_cell_angle_gamma	83.907720
loop_
_atom_site_label
_atom_site_type_symbol
_atom_site_fract_x
_atom_site_fract_y
_atom_site_fract_z
O1	O	1.005118	0.161379	-0.068809
O2	O	0.784877	0.182346	-0.068794
O3	O	0.900021	-0.013831	-0.068804
O4	O	0.889974	0.357556	-0.068799
O5	O	0.900004	-0.013843	0.068689
O6	O	0.784861	0.182334	0.068699
O7	O	1.005102	0.161366	0.068685
Cu8	Cu	0.894980	0.171849	0.081246
Cu9	Cu	0.894999	0.171864	-0.081356
O10	O	0.889958	0.357543	0.068694
C11	C	0.756667	0.181586	-0.000046
C12	C	0.672635	0.179323	-0.000041
C13	C	0.156835	0.165462	-0.075022
C14	C	0.235793	0.167579	-0.075018
C15	C	0.275257	0.168633	-0.000067
C16	C	0.235760	0.167556	0.074885
C17	C	0.156805	0.165430	0.074880
C18	C	0.554180	0.176130	0.074907
C19	C	0.633141	0.178260	0.074906
C20	C	0.633169	0.178279	-0.074991
C21	C	0.554213	0.176152	-0.074996
C22	C	0.514723	0.175069	-0.000045
C23	C	0.429109	0.172771	-0.000050
C24	C	0.360870	0.170940	-0.000061
C25	C	0.899258	-0.061355	-0.000060
C26	C	0.897003	-0.202945	-0.000067
C27	C	0.966247	-0.386612	-0.000063
C28	C	0.931650	-0.293835	0.067730
C29	C	0.931648	-0.293846	-0.067827
C30	C	0.858349	-0.362430	0.067798
C31	C	0.858357	-0.362451	-0.067820
C32	C	0.823707	-0.269699	-0.000010
C33	C	1.033312	0.162127	-0.000066
C34	C	1.117344	0.164389	-0.000076
C35	C	0.890720	0.405068	-0.000052
C36	C	0.892976	0.546657	-0.000050
N37	N	0.894972	0.171838	0.195611
N38	N	0.895013	0.171865	-0.195721
C39	C	0.945973	0.085006	0.238871
C40	C	0.945977	0.085005	0.325418
C41	C	0.894983	0.171842	0.368704
C42	C	0.843976	0.258678	0.325438
C43	C	0.843969	0.258672	0.238892
C44	C	0.844002	0.258702	0.674466
C45	C	0.844014	0.258704	0.761018
C46	C	0.946010	0.085034	0.760992
C47	C	0.946003	0.085029	0.674446
C48	C	0.894994	0.171859	0.631188
C49	C	0.894990	0.171858	0.537344
C50	C	0.894990	0.171850	0.462546
H51	H	0.267944	0.168444	-0.136046
H52	H	0.827386	-0.392892	-0.125133
H53	H	0.124651	0.164570	0.135908
H54	H	0.962670	-0.263455	-0.125140
C55	C	0.562174	0.176368	-0.223168
C56	C	0.510835	0.174987	-0.157384
H57	H	0.535394	0.175637	-0.274031
H58	H	0.587595	0.251544	-0.220051
H59	H	0.598343	0.102844	-0.220041
H60	H	0.474669	0.248517	-0.160507
H61	H	0.485402	0.099803	-0.160502
C62	C	1.046818	-0.086629	0.316700
C63	C	1.002051	-0.010424	0.372969
H64	H	1.081442	-0.145535	0.346057
H65	H	1.015074	-0.132463	0.282963
H66	H	1.074309	-0.033565	0.282927
H67	H	0.974556	-0.063487	0.406739
H68	H	1.033800	0.035414	0.406721
H69	H	0.987502	0.014298	0.203634
H70	H	0.124709	0.164613	-0.136056
C71	C	1.058668	-0.531153	-0.071022
C72	C	1.047547	-0.455187	0.000008
H73	H	1.108862	-0.573475	-0.070979
H74	H	1.023208	-0.593059	-0.071538
H75	H	1.051488	-0.478436	-0.118722
H76	H	1.054722	-0.507905	0.047708
H77	H	1.083018	-0.393274	0.000531
C78	C	0.743189	0.430380	0.683197
C79	C	0.787939	0.354155	0.626924
H80	H	0.708581	0.489316	0.653842
H81	H	0.715687	0.377342	0.716964
H82	H	0.774951	0.476192	0.716940
H83	H	0.756177	0.308336	0.593184
H84	H	0.815443	0.407199	0.593143
C85	C	0.356779	0.170822	0.141453
C86	C	0.279137	0.168719	0.157273
H87	H	0.383554	0.171552	0.192319
H88	H	0.375094	0.096828	0.110665
H89	H	0.364344	0.245529	0.110658
H90	H	0.271572	0.094008	0.188064
H91	H	0.260817	0.242721	0.188075
H92	H	0.665331	0.179155	-0.136020
C93	C	0.625190	0.177993	0.223085
C94	C	0.676523	0.179402	0.157298
H95	H	0.651975	0.178690	0.273947
H96	H	0.589026	0.251509	0.219978
H97	H	0.599765	0.102808	0.219954
H98	H	0.701944	0.254592	0.160426
H99	H	0.712701	0.105878	0.160408
C100	C	1.048129	-0.312372	0.144967
C101	C	0.973492	-0.252766	0.145093
H102	H	1.073964	-0.287013	0.192722
H103	H	1.047374	-0.402775	0.145276
H104	H	1.073670	-0.287733	0.096819
H105	H	0.947949	-0.277413	0.193237
H106	H	0.974243	-0.162344	0.144791
H107	H	0.522039	0.175229	0.135937
H108	H	0.827365	-0.392671	0.125176
H109	H	0.987530	0.014322	0.639206
H110	H	0.763430	-0.219119	0.000031
H111	H	0.802451	0.329379	0.360686
H112	H	0.987542	0.014328	0.796222
C113	C	0.800710	0.479574	0.212237
C114	C	0.787911	0.354124	0.191336
H115	H	0.766102	0.538499	0.182874
H116	H	0.793413	0.491999	0.269968
H117	H	0.851294	0.493306	0.198032
H118	H	0.737328	0.340389	0.205546
H119	H	0.795201	0.341694	0.133592
H120	H	0.802486	0.329420	0.796259
