data_functionalizedCrystal
_audit_creation_method	'MofGen! by Chris Wilmer'
_symmetry_space_group_name_H-M	'P1'
_symmetry_Int_Tables_number	1
_symmetry_cell_setting	triclinic
loop_
_symmetry_equiv_pos_as_xyz
  x,y,z
_cell_length_a	11.026607
_cell_length_b	8.965430
_cell_length_c	11.026607
_cell_angle_alpha	89.997511
_cell_angle_beta	108.586017
_cell_angle_gamma	90.004192
loop_
_atom_site_label
_atom_site_type_symbol
_atom_site_fract_x
_atom_site_fract_y
_atom_site_fract_z
O1	O	1.726731	0.124036	0.533614
O2	O	1.360151	0.124038	0.472850
O3	O	1.513059	0.124032	0.319942
O4	O	1.573823	0.124042	0.686522
O5	O	1.513046	-0.124047	0.319952
O6	O	1.360137	-0.124041	0.472860
O7	O	1.726717	-0.124043	0.533623
Cu8	Cu	1.543426	-0.146694	0.503242
Cu9	Cu	1.543442	0.146688	0.503231
O10	O	1.573809	-0.124037	0.686532
C11	C	1.312485	-0.000001	0.461645
C12	C	1.170471	-0.000000	0.428228
N13	N	1.543424	-0.353043	0.503252
C14	C	1.116821	0.000003	0.520498
C15	C	0.970043	0.000004	0.485962
C16	C	1.472675	-0.450346	0.573931
C17	C	1.593231	-0.549759	0.623813
C18	C	1.422919	-0.549756	0.453390
C19	C	1.664050	-0.450268	0.553204
C20	C	1.493652	-0.450256	0.382715
C21	C	1.614280	-0.549625	0.432566
C22	C	1.774384	-0.000001	0.544828
C23	C	1.916398	0.000008	0.578245
C24	C	1.501843	-0.000006	0.272287
C25	C	1.468426	-0.000000	0.130273
N26	N	1.543452	0.353038	0.503214
C27	C	1.560695	0.000001	0.076624
C28	C	1.526160	0.000007	-0.070155
C29	C	1.585026	0.000004	0.734187
C30	C	1.618443	0.000008	0.876200
H31	H	1.179555	-0.000002	0.625061
H32	H	0.907314	0.000040	0.381393
Cl33	Cl	1.013235	-0.000008	0.739696
Cl34	Cl	1.779893	0.000014	-0.026962
Cl35	Cl	1.265562	-0.617231	0.388305
Cl36	Cl	1.658257	-0.617241	0.781171
H37	H	1.107738	0.000035	0.323666
H38	H	1.412930	-0.406754	0.633787
H39	H	1.363863	0.000010	0.067540
Cl40	Cl	1.821483	-0.383090	0.618471
H41	H	1.665258	-0.000009	0.139357
Cl42	Cl	1.706795	-0.616518	0.340282
Cl43	Cl	1.428582	-0.382716	0.225389
Cl44	Cl	1.364710	0.000023	-0.166995
