data_functionalizedCrystal
_audit_creation_method	'MofGen! by Chris Wilmer'
_symmetry_space_group_name_H-M	'P1'
_symmetry_Int_Tables_number	1
_symmetry_cell_setting	triclinic
loop_
_symmetry_equiv_pos_as_xyz
  x,y,z
_cell_length_a	14.908571
_cell_length_b	25.639239
_cell_length_c	14.908308
_cell_angle_alpha	86.737723
_cell_angle_beta	89.824947
_cell_angle_gamma	86.734636
loop_
_atom_site_label
_atom_site_type_symbol
_atom_site_fract_x
_atom_site_fract_y
_atom_site_fract_z
Zn1	Zn	1.345148	-0.272845	0.587542
Zn2	Zn	1.353683	-0.355542	0.437170
Zn3	Zn	1.203468	-0.262803	0.428541
Zn4	Zn	1.194711	-0.354921	0.578822
O5	O	1.274253	-0.311528	0.508019
O6	O	1.472104	-0.288277	0.574855
O7	O	1.340994	-0.339297	0.310201
O8	O	1.222355	-0.190974	0.449671
O9	O	1.478375	-0.349035	0.464378
O10	O	1.326446	-0.198352	0.566488
O11	O	1.230632	-0.271162	0.303862
O12	O	1.076483	-0.270560	0.441216
O13	O	1.207430	-0.347976	0.705803
O14	O	1.070049	-0.338239	0.551626
O15	O	1.317955	-0.287675	0.712209
O16	O	1.332503	-0.428620	0.455922
O17	O	1.215707	-0.428164	0.559993
C18	C	1.040642	-0.303242	0.494539
C19	C	0.940701	-0.299711	0.488793
C20	C	0.746258	-0.363649	0.592813
C21	C	0.652355	-0.360332	0.587418
C22	C	0.658987	-0.289761	0.472613
C23	C	0.752891	-0.293077	0.478008
C24	C	0.796523	-0.330022	0.538109
C25	C	0.890429	-0.333341	0.543499
C26	C	0.897060	-0.262767	0.428700
C27	C	0.803156	-0.259451	0.423304
C28	C	1.274104	-0.447364	0.507969
C29	C	1.274121	-0.505479	0.507982
C30	C	1.335213	-0.866081	0.453936
C31	C	1.335247	-0.920687	0.453950
O32	O	1.387035	-0.949120	0.407943
N33	N	1.274407	-0.947774	0.508087
C34	C	1.213536	-0.920253	0.562222
O35	O	1.161791	-0.948307	0.608272
C36	C	1.213506	-0.865649	0.562212
C37	C	1.274344	-0.838564	0.508064
C38	C	1.396046	-0.838996	0.399793
C39	C	1.396010	-0.784393	0.399778
C40	C	1.335142	-0.756876	0.453906
C41	C	1.274309	-0.783961	0.508048
C42	C	1.152640	-0.838129	0.616350
C43	C	1.152616	-0.783521	0.616336
C44	C	1.213454	-0.756436	0.562188
C45	C	1.213404	-0.701842	0.562161
N46	N	1.274244	-0.674754	0.508024
C47	C	1.335113	-0.702272	0.453896
C48	C	1.213603	-1.034927	0.562239
C49	C	1.213627	-1.089530	0.562245
C50	C	1.335339	-1.089960	0.453974
C51	C	1.335310	-1.035355	0.453964
C52	C	1.274442	-1.007839	0.508102
C53	C	1.335033	-0.587603	0.453867
C54	C	1.334989	-0.532996	0.453854
C55	C	1.213280	-0.532571	0.562128
C56	C	1.213320	-0.587173	0.562138
C57	C	1.274204	-0.614688	0.508005
O58	O	1.161645	-0.673375	0.608147
O59	O	1.386857	-0.674211	0.407862
C60	C	1.508776	-0.319846	0.521552
C61	C	1.608716	-0.323390	0.527319
C62	C	1.260764	-0.318877	0.742543
C63	C	1.255015	-0.322008	0.842483
C64	C	1.274426	-0.175163	0.508090
C65	C	1.274499	-0.117052	0.508120
C66	C	1.287741	-0.304171	0.274410
C67	C	1.293664	-0.300899	0.174480
C68	C	1.359301	-0.265089	1.036954
C69	C	1.353903	-0.268030	1.130857
C70	C	1.238817	-0.330827	1.124193
C71	C	1.244215	-0.327887	1.030291
C72	C	1.304460	-0.295017	0.986674
C73	C	1.309862	-0.292079	0.892770
C74	C	1.194772	-0.354874	0.886108
C75	C	1.189374	-0.357814	0.980011
H76	H	0.781785	-0.393734	0.641745
O77	O	1.180167	-0.362691	1.166517
C78	C	1.091890	-0.347376	1.138381
H79	H	1.088891	-0.304641	1.112321
H80	H	1.043907	-0.352236	1.197567
H81	H	1.071490	-0.372867	1.082507
H82	H	0.937996	-0.235387	0.384154
O83	O	1.368474	-0.260226	0.850362
C84	C	1.429626	-0.290342	0.799360
H85	H	1.433515	-0.332602	0.827959
H86	H	1.498902	-0.273846	0.802293
H87	H	1.405913	-0.288930	0.726590
O88	O	1.394178	-0.506769	0.401230
C89	C	1.447894	-0.542769	0.353446
H90	H	1.448881	-0.582945	0.390469
H91	H	1.519284	-0.529164	0.347995
H92	H	1.418956	-0.545309	0.283236
O93	O	1.394056	-0.614382	0.401243
C94	C	1.346288	-0.642375	0.340165
H95	H	1.276304	-0.649169	0.367881
H96	H	1.383645	-0.681673	0.330279
H97	H	1.340290	-0.618918	0.272949
H98	H	1.398557	-0.243658	1.171792
O99	O	0.932769	-0.369174	0.602007
C100	C	0.904680	-0.359829	0.690336
H101	H	0.878636	-0.317299	0.693515
H102	H	0.963886	-0.367942	0.738294
H103	H	0.848806	-0.386688	0.710624
O104	O	1.417922	-0.233242	0.994547
C105	C	1.479064	-0.263366	0.943548
H106	H	1.482935	-0.305626	0.972149
H107	H	1.548347	-0.246880	0.946482
H108	H	1.455352	-0.261952	0.870777
H109	H	0.611432	-0.387713	0.631965
O110	O	0.616452	-0.253903	0.414288
C111	C	0.522790	-0.258169	0.421297
H112	H	0.508247	-0.299017	0.449845
H113	H	0.490937	-0.251163	0.351922
H114	H	0.493450	-0.227778	0.467789
O115	O	1.154611	-1.115820	0.614972
C116	C	1.169012	-1.105932	0.705725
H117	H	1.240568	-1.093568	0.714461
H118	H	1.158693	-1.142950	0.749707
H119	H	1.119423	-1.073283	0.726392
O120	O	1.455204	-0.758170	0.347164
C121	C	1.508916	-0.794175	0.299386
H122	H	1.509886	-0.834351	0.336408
H123	H	1.580312	-0.780578	0.293945
H124	H	1.479986	-0.796711	0.229172
O125	O	1.154425	-1.008137	0.614695
C126	C	1.099304	-0.972945	0.560102
H127	H	1.134986	-0.963744	0.493822
H128	H	1.085086	-0.935268	0.596018
H129	H	1.033268	-0.991363	0.546321
O130	O	1.455316	-0.865737	0.347372
C131	C	1.510411	-0.900928	0.401994
H132	H	1.511745	-0.886874	0.473137
H133	H	1.581524	-0.902911	0.373580
H134	H	1.482517	-0.941454	0.403436
O135	O	1.093511	-0.864352	0.669037
C136	C	1.039778	-0.828344	0.716789
H137	H	1.076410	-0.790802	0.722032
H138	H	1.026069	-0.845982	0.787077
H139	H	0.973407	-0.819131	0.679873
O140	O	0.760731	-0.223634	0.364830
C141	C	0.709695	-0.249607	0.303560
H142	H	0.738282	-0.291601	0.299504
H143	H	0.712601	-0.228432	0.234360
H144	H	0.636936	-0.249790	0.327272
O145	O	1.394496	-1.009130	0.401345
C146	C	1.448203	-1.045132	0.353556
H147	H	1.449184	-1.085309	0.390576
H148	H	1.519597	-1.031531	0.348103
H149	H	1.419261	-1.047668	0.283346
O150	O	1.130983	-0.389804	1.022432
C151	C	1.179012	-0.427076	1.079706
H152	H	1.251452	-0.431927	1.055491
H153	H	1.146386	-0.466192	1.078879
H154	H	1.178035	-0.413247	1.151058
O155	O	1.394497	-1.116782	0.401544
C156	C	1.381488	-1.170785	0.413191
H157	H	1.347913	-1.179352	0.480819
H158	H	1.449220	-1.193685	0.411153
H159	H	1.336815	-1.182988	0.357019
H160	H	1.103051	-0.761120	0.660424
O161	O	1.154188	-0.613408	0.614816
C162	C	1.100439	-0.577407	0.662567
H163	H	1.137056	-0.539860	0.667814
H164	H	1.086732	-0.595047	0.732854
H165	H	1.034068	-0.568202	0.625647
O166	O	1.141623	-0.383975	0.837177
C167	C	1.195896	-0.417867	0.785817
H168	H	1.264866	-0.401402	0.775684
H169	H	1.163058	-0.421511	0.717671
H170	H	1.203650	-0.458093	0.822565
H171	H	1.163719	-0.510158	0.606196
