data_functionalizedCrystal
_audit_creation_method	'MofGen! by Chris Wilmer'
_symmetry_space_group_name_H-M	'P1'
_symmetry_Int_Tables_number	1
_symmetry_cell_setting	triclinic
loop_
_symmetry_equiv_pos_as_xyz
  x,y,z
_cell_length_a	19.188930
_cell_length_b	14.519709
_cell_length_c	18.266242
_cell_angle_alpha	89.992715
_cell_angle_beta	90.022918
_cell_angle_gamma	96.587538
loop_
_atom_site_label
_atom_site_type_symbol
_atom_site_fract_x
_atom_site_fract_y
_atom_site_fract_z
O1	O	0.926559	-0.115137	0.061118
O2	O	1.426559	0.384863	0.561118
O3	O	0.723303	-0.130636	0.061068
O4	O	1.223303	0.369364	0.561068
O5	O	0.830320	0.011385	0.061088
O6	O	1.330320	0.511385	0.561088
O7	O	0.819542	-0.257158	0.061098
O8	O	1.319542	0.242842	0.561098
O9	O	0.830302	0.011393	-0.060674
O10	O	1.330302	0.511393	0.439326
O11	O	0.723285	-0.130629	-0.060694
O12	O	1.223285	0.369371	0.439306
O13	O	0.926541	-0.115130	-0.060644
O14	O	1.426541	0.384870	0.439356
Zn15	Zn	0.824910	-0.122878	-0.080001
Zn16	Zn	1.324910	0.377122	0.419999
Zn17	Zn	0.824934	-0.122888	0.080425
Zn18	Zn	1.324934	0.377112	0.580425
O19	O	0.819524	-0.257151	-0.060664
O20	O	1.319524	0.242849	0.439336
C21	C	0.697281	-0.130131	0.000181
C22	C	1.197281	0.369869	0.500181
C23	C	0.619771	-0.128624	0.000161
C24	C	1.119771	0.371376	0.500161
C25	C	0.829809	0.045746	0.000206
C26	C	1.329809	0.545746	0.500206
C27	C	0.828304	0.148118	0.000206
C28	C	1.328304	0.648118	0.500206
N29	N	0.824899	-0.122871	-0.189488
N30	N	1.324899	0.377129	0.310512
C31	C	0.575144	-0.211957	0.000176
C32	C	1.075144	0.288043	0.500176
C33	C	0.502315	-0.210542	0.000184
C34	C	1.002315	0.289458	0.500184
C35	C	0.474117	-0.125788	0.000192
C36	C	0.974117	0.374212	0.500192
C37	C	0.518754	-0.042444	0.000173
C38	C	1.018754	0.457556	0.500173
C39	C	0.591581	-0.043861	0.000158
C40	C	1.091581	0.456139	0.500158
N41	N	0.365912	-0.061007	0.041660
N42	N	0.865912	0.438993	0.541660
N43	N	0.296729	-0.059666	0.041676
N44	N	0.796729	0.440334	0.541676
C45	C	0.254693	-0.121511	0.000237
C46	C	0.754693	0.378489	0.500237
N47	N	0.284453	-0.184762	-0.041210
N48	N	0.784453	0.315238	0.458790
N49	N	0.353642	-0.186106	-0.041223
N50	N	0.853642	0.313894	0.458777
C51	C	0.395149	-0.124241	0.000208
C52	C	0.895149	0.375759	0.500208
C53	C	0.131096	-0.203315	0.000259
C54	C	0.631096	0.296685	0.500259
C55	C	0.058266	-0.201896	0.000262
C56	C	0.558266	0.298104	0.500262
C57	C	0.074706	-0.033796	0.000259
C58	C	0.574706	0.466204	0.500259
C59	C	0.147535	-0.035217	0.000248
C60	C	0.647535	0.464783	0.500248
C61	C	0.175725	-0.119980	0.000252
C62	C	0.675725	0.380020	0.500252
C63	C	0.952563	-0.115635	0.000245
C64	C	1.452563	0.384365	0.500245
C65	C	1.030073	-0.117142	0.000269
C66	C	1.530073	0.382858	0.500269
C67	C	0.820035	-0.291511	0.000219
C68	C	1.320035	0.208489	0.500219
C69	C	0.821541	-0.393883	0.000225
C70	C	1.321541	0.106117	0.500225
C71	C	0.822762	0.522979	0.000223
C72	C	1.322762	1.022979	0.500223
C73	C	0.824301	0.418681	0.000218
C74	C	1.324301	0.918681	0.500218
C75	C	0.825533	0.335552	0.000214
C76	C	1.325533	0.835552	0.500214
C77	C	0.827072	0.231247	0.000210
C78	C	1.327072	0.731247	0.500210
C79	C	0.872302	-0.060015	-0.227788
C80	C	1.372302	0.439985	0.272212
C81	C	0.872306	-0.060010	-0.304433
C82	C	1.372306	0.439990	0.195567
C83	C	0.824914	-0.122878	-0.342775
C84	C	1.324914	0.377122	0.157225
C85	C	0.777503	-0.185739	-0.304466
C86	C	1.277503	0.314261	0.195534
C87	C	0.777495	-0.185736	-0.227822
C88	C	1.277495	0.314264	0.272178
N89	N	0.816129	-0.204517	-0.463106
N90	N	1.316129	0.295483	0.036894
N91	N	0.816141	-0.204517	-0.535914
N92	N	1.316141	0.295483	-0.035914
C93	C	0.824934	-0.122892	-0.573698
C94	C	1.324934	0.377108	-0.073698
N95	N	0.833729	-0.041263	-0.535923
N96	N	1.333729	0.458737	-0.035923
N97	N	0.833721	-0.041263	-0.463108
N98	N	1.333721	0.458737	0.036892
C99	C	0.824917	-0.122889	-0.425882
C100	C	1.324917	0.377111	0.074118
C101	C	0.872344	-0.060025	-0.695105
C102	C	1.372344	0.439975	-0.195105
C103	C	0.872344	-0.060020	-0.771751
C104	C	1.372344	0.439980	-0.271751
C105	C	0.777544	-0.185757	-0.771782
C106	C	1.277544	0.314243	-0.271782
C107	C	0.777541	-0.185755	-0.695137
C108	C	1.277541	0.314245	-0.195137
C109	C	0.824945	-0.122890	-0.656803
C110	C	1.324945	0.377110	-0.156803
N111	N	0.824951	-0.122887	0.189912
N112	N	1.324951	0.377113	0.689912
H113	H	0.598091	-0.280978	0.000180
H114	H	1.098091	0.219022	0.500180
H115	H	0.465973	-0.278404	0.000194
H116	H	0.965973	0.221596	0.500194
C117	C	0.923737	0.008385	-0.345939
C118	C	1.423737	0.508385	0.154061
C119	C	0.912320	0.098977	-0.327305
C120	C	1.412320	0.598977	0.172695
C121	C	0.959688	0.162006	-0.365517
C122	C	1.459688	0.662006	0.134483
H123	H	0.916998	-0.000496	-0.397085
H124	H	1.416998	0.499504	0.102915
H125	H	0.970358	-0.001423	-0.333341
H126	H	1.470358	0.498577	0.166659
H127	H	0.865710	0.108780	-0.339908
H128	H	1.365710	0.608780	0.160092
H129	H	0.919064	0.107887	-0.276165
H130	H	1.419064	0.607887	0.223835
H131	H	1.006309	0.152198	-0.352919
H132	H	1.506309	0.652198	0.147081
H133	H	0.952945	0.153116	-0.416661
H134	H	1.452945	0.653116	0.083339
H135	H	0.951952	0.223479	-0.352874
H136	H	1.451952	0.723479	0.147126
C137	C	0.726142	-0.254036	-0.186142
C138	C	1.226142	0.245964	0.313858
C139	C	0.763400	-0.310354	-0.142104
C140	C	1.263400	0.189646	0.357896
C141	C	0.716119	-0.373277	-0.103690
C142	C	1.216119	0.126723	0.396310
H143	H	0.697896	-0.291567	-0.219868
H144	H	1.197896	0.208433	0.280132
H145	H	0.697048	-0.220981	-0.156218
H146	H	1.197048	0.279019	0.343782
H147	H	0.792482	-0.343406	-0.172026
H148	H	1.292482	0.156594	0.327974
H149	H	0.791643	-0.272848	-0.108365
H150	H	1.291643	0.227152	0.391635
H151	H	0.687024	-0.340223	-0.073766
H152	H	1.187024	0.159777	0.426234
H153	H	0.687876	-0.410802	-0.137421
H154	H	1.187876	0.089198	0.362579
H155	H	0.741391	-0.411490	-0.073801
H156	H	1.241391	0.088510	0.426199
C157	C	0.009775	-0.292349	0.000130
C158	C	0.509775	0.207651	0.500130
C159	C	-0.032538	-0.296463	-0.062516
C160	C	0.467462	0.203537	0.437484
C161	C	-0.077212	-0.379779	-0.062666
C162	C	0.422788	0.120221	0.437334
H163	H	-0.019020	-0.295373	0.042546
H164	H	0.480980	0.204627	0.542546
H165	H	0.036971	-0.343058	0.000092
H166	H	0.536971	0.156942	0.500092
H167	H	-0.059732	-0.245768	-0.062472
H168	H	0.440268	0.254232	0.437528
H169	H	-0.003762	-0.293455	-0.104942
H170	H	0.496238	0.206545	0.395058
H171	H	-0.050015	-0.430488	-0.062703
H172	H	0.449985	0.069512	0.437297
H173	H	-0.106001	-0.382795	-0.020247
H174	H	0.393999	0.117205	0.479753
H175	H	-0.105921	-0.382585	-0.105173
H176	H	0.394079	0.117415	0.394827
H177	H	0.910941	-0.008834	-0.663892
H178	H	1.410941	0.491166	-0.163892
C179	C	0.161615	-0.295404	0.000366
C180	C	0.661615	0.204596	0.500366
C181	C	0.138961	-0.345786	0.063002
C182	C	0.638961	0.154214	0.563002
C183	C	0.167052	-0.430626	0.063120
C184	C	0.667052	0.069374	0.563120
H185	H	0.211378	-0.284443	0.000397
H186	H	0.711378	0.215557	0.500397
H187	H	0.146262	-0.329750	-0.042072
H188	H	0.646262	0.170250	0.457928
H189	H	0.154318	-0.311447	0.105429
H190	H	0.654318	0.188553	0.605429
H191	H	0.089202	-0.356772	0.062985
H192	H	0.589202	0.143228	0.562985
H193	H	0.151699	-0.464972	0.020681
H194	H	0.651699	0.035028	0.520681
H195	H	0.216814	-0.419656	0.063148
H196	H	0.716814	0.080344	0.563148
H197	H	0.151680	-0.464824	0.105614
H198	H	0.651680	0.035176	0.605614
C199	C	0.726127	-0.253957	-0.346223
C200	C	1.226127	0.246043	0.153777
C201	C	0.736293	-0.240525	-0.421542
C202	C	1.236293	0.259475	0.078458
C203	C	0.688980	-0.303357	-0.460030
C204	C	1.188980	0.196643	0.039970
H205	H	0.679488	-0.244152	-0.333779
H206	H	1.179488	0.255848	0.166221
H207	H	0.733787	-0.315501	-0.333690
H208	H	1.233787	0.184499	0.166310
H209	H	0.728627	-0.178995	-0.434070
H210	H	1.228627	0.321005	0.065930
H211	H	0.782922	-0.250338	-0.434008
H212	H	1.282922	0.249662	0.065992
H213	H	0.696641	-0.364902	-0.447497
H214	H	1.196641	0.135098	0.052503
H215	H	0.642344	-0.293547	-0.447580
H216	H	1.142344	0.206453	0.052420
H217	H	0.695876	-0.294259	-0.511138
H218	H	1.195876	0.205741	-0.011138
C219	C	0.044063	0.058199	0.000419
C220	C	0.544063	0.558199	0.500419
C221	C	0.002782	0.063931	0.063080
C222	C	0.502782	0.563931	0.563080
C223	C	-0.025453	0.148670	0.063255
C224	C	0.474547	0.648670	0.563255
H225	H	0.015923	0.062343	-0.041987
H226	H	0.515923	0.562343	0.458013
H227	H	0.081057	0.107654	0.000451
H228	H	0.581057	0.607654	0.500451
H229	H	-0.034207	0.014489	0.063041
H230	H	0.465793	0.514489	0.563041
H231	H	0.030906	0.059803	0.105496
H232	H	0.530906	0.559803	0.605496
H233	H	0.011542	0.198126	0.063288
H234	H	0.511542	0.698126	0.563288
H235	H	-0.053589	0.152807	0.020847
H236	H	0.446411	0.652807	0.520847
H237	H	-0.053459	0.152574	0.105773
H238	H	0.446541	0.652574	0.605773
C239	C	0.923893	0.008269	-0.813205
C240	C	1.423893	0.508269	-0.313205
C241	C	0.965416	0.063301	-0.763225
C242	C	1.465416	0.563301	-0.263225
C243	C	1.012918	0.126209	-0.801386
C244	C	1.512918	0.626209	-0.301386
H245	H	0.898821	0.046671	-0.843124
H246	H	1.398821	0.546671	-0.343124
H247	H	0.953032	-0.024796	-0.843069
H248	H	1.453032	0.475204	-0.343069
H249	H	0.936281	0.096364	-0.733374
H250	H	1.436281	0.596364	-0.233374
H251	H	0.990503	0.024925	-0.733304
H252	H	1.490503	0.524925	-0.233304
H253	H	1.042058	0.093144	-0.831250
H254	H	1.542058	0.593144	-0.331250
H255	H	0.987841	0.164604	-0.831304
H256	H	1.487841	0.664604	-0.331304
H257	H	1.041102	0.163550	-0.767481
H258	H	1.541102	0.663550	-0.267481
H259	H	0.183871	0.032642	0.000240
H260	H	0.683871	0.532642	0.500240
H261	H	0.627917	0.024001	0.000146
H262	H	1.127917	0.524001	0.500146
H263	H	0.495790	0.026564	0.000190
H264	H	0.995790	0.526564	0.500190
C265	C	0.923536	0.008581	-0.186208
C266	C	1.423536	0.508581	0.313792
C267	C	0.886100	0.064876	-0.142381
C268	C	1.386100	0.564876	0.357619
C269	C	0.933220	0.128201	-0.104118
C270	C	1.433220	0.628201	0.395882
H271	H	0.951669	0.046089	-0.220023
H272	H	1.451669	0.546089	0.279977
H273	H	0.952754	-0.024163	-0.156153
H274	H	1.452754	0.475837	0.343847
H275	H	0.856895	0.097617	-0.172433
H276	H	1.356895	0.597617	0.327567
H277	H	0.857969	0.027393	-0.108553
H278	H	1.357969	0.527393	0.391447
H279	H	0.962438	0.095458	-0.074063
H280	H	1.462438	0.595458	0.425937
H281	H	0.961352	0.165703	-0.137938
H282	H	1.461352	0.665703	0.362062
H283	H	0.907828	0.166399	-0.074372
H284	H	1.407828	0.666399	0.425628
C285	C	0.726052	-0.253867	-0.813494
C286	C	1.226052	0.246133	-0.313494
C287	C	0.683271	-0.204880	-0.857536
C288	C	1.183271	0.295120	-0.357536
C289	C	0.635831	-0.267591	-0.895981
C290	C	1.135831	0.232409	-0.395981
H291	H	0.697753	-0.291332	-0.779787
H292	H	1.197753	0.208668	-0.279787
H293	H	0.751196	-0.292165	-0.843418
H294	H	1.251196	0.207835	-0.343418
H295	H	0.658129	-0.166598	-0.827615
H296	H	1.158129	0.333402	-0.327615
H297	H	0.711551	-0.167419	-0.891257
H298	H	1.211551	0.332581	-0.391257
H299	H	0.660975	-0.305888	-0.925905
H300	H	1.160975	0.194112	-0.425905
H301	H	0.607537	-0.305052	-0.862269
H302	H	1.107537	0.194948	-0.362269
H303	H	0.606803	-0.234362	-0.925873
H304	H	1.106803	0.265638	-0.425873
H305	H	0.738944	-0.236942	-0.663951
H306	H	1.238944	0.263058	-0.163951
