data_functionalizedCrystal
_audit_creation_method	'MofGen! by Chris Wilmer'
_symmetry_space_group_name_H-M	'P1'
_symmetry_Int_Tables_number	1
_symmetry_cell_setting	triclinic
loop_
_symmetry_equiv_pos_as_xyz
  x,y,z
_cell_length_a	14.908571
_cell_length_b	13.897448
_cell_length_c	14.908858
_cell_angle_alpha	86.672042
_cell_angle_beta	89.795097
_cell_angle_gamma	86.713891
loop_
_atom_site_label
_atom_site_type_symbol
_atom_site_fract_x
_atom_site_fract_y
_atom_site_fract_z
Zn1	Zn	1.345340	-0.430866	-0.587596
Zn2	Zn	1.353921	-0.601993	-0.437233
Zn3	Zn	1.203648	-0.431962	-0.428590
Zn4	Zn	1.194954	-0.583366	-0.578888
O5	O	1.274466	-0.512047	-0.508077
O6	O	1.472305	-0.460904	-0.574912
O7	O	1.341217	-0.587692	-0.310259
O8	O	1.222491	-0.296836	-0.449710
O9	O	1.478610	-0.586630	-0.464441
O10	O	1.326591	-0.296031	-0.566531
O11	O	1.230812	-0.462771	-0.303909
O12	O	1.076668	-0.444709	-0.441266
O13	O	1.207673	-0.554882	-0.705871
O14	O	1.070281	-0.555944	-0.551689
O15	O	1.318161	-0.442841	-0.712269
O16	O	1.332787	-0.734503	-0.455997
O17	O	1.215995	-0.720817	-0.560070
C18	C	1.040849	-0.498425	-0.494596
C19	C	0.940906	-0.492619	-0.488849
C20	C	0.746507	-0.597741	-0.592881
C21	C	0.652601	-0.592289	-0.587485
C22	C	0.659186	-0.476258	-0.472667
C23	C	0.753092	-0.481710	-0.478063
C24	C	0.796749	-0.542455	-0.538171
C25	C	0.890657	-0.547911	-0.543562
C26	C	0.897239	-0.431876	-0.428749
C27	C	0.803333	-0.426424	-0.423353
C28	C	1.274402	-0.762659	-0.508047
C29	C	1.274455	-0.869875	-0.508069
C30	C	1.274546	-1.066172	-0.508131
C31	C	1.274493	-0.956938	-0.508099
C32	C	1.508995	-0.525722	-0.521612
C33	C	1.608937	-0.531550	-0.527379
C34	C	1.260990	-0.496661	-0.742608
C35	C	1.255247	-0.490105	-0.842551
C36	C	1.274554	-0.260456	-0.508128
C37	C	1.274591	-0.153243	-0.508150
C38	C	1.189678	-0.415827	-0.980110
C39	C	1.195070	-0.421986	-0.886204
C40	C	1.310038	-0.552069	-0.892810
C41	C	1.304646	-0.545911	-0.986716
C42	C	1.244463	-0.477789	-1.030362
C43	C	1.239067	-0.471636	-1.124270
C44	C	1.354039	-0.601714	-1.130874
C45	C	1.359431	-0.607873	-1.036969
C46	C	1.287941	-0.527305	-0.274461
C47	C	1.293858	-0.533600	-0.174529
H48	H	0.611697	-0.637306	-0.632038
C49	C	0.755310	-0.359609	-0.357238
H50	H	0.798684	-0.327460	-0.325431
H51	H	0.720913	-0.396890	-0.315899
H52	H	0.716714	-0.313243	-0.389602
H53	H	1.140671	-0.360363	-1.015647
C54	C	1.425622	-0.682808	-0.988957
H55	H	1.457480	-0.718826	-1.032337
H56	H	1.393312	-0.725227	-0.950330
H57	H	1.466924	-0.650596	-0.954593
C58	C	0.611152	-0.409457	-0.406547
H59	H	0.548030	-0.414138	-0.411166
H60	H	0.625787	-0.344689	-0.420678
H61	H	0.629998	-0.428353	-0.346992
H62	H	1.150461	-0.371528	-0.845292
C63	C	1.414307	-0.669872	-1.186154
H64	H	1.402482	-0.656446	-1.248332
H65	H	1.402012	-0.734923	-1.169989
H66	H	1.475614	-0.660279	-1.174253
C67	C	1.172867	-0.396711	-1.172284
H68	H	1.177493	-0.401923	-1.235408
H69	H	1.186928	-0.333677	-1.157670
H70	H	1.113330	-0.408324	-1.153403
C71	C	1.376229	-0.627001	-0.844793
H72	H	1.408090	-0.663022	-0.888169
H73	H	1.343918	-0.669418	-0.806165
H74	H	1.417529	-0.594785	-0.810430
C75	C	0.952507	-0.371056	-0.368568
H76	H	1.014687	-0.382997	-0.380392
H77	H	0.940571	-0.388143	-0.307246
H78	H	0.936368	-0.304500	-0.380953
H79	H	0.926202	-0.597374	-0.592503
H80	H	0.782054	-0.647207	-0.641819
