data_functionalizedCrystal
_audit_creation_method	'MofGen! by Chris Wilmer'
_symmetry_space_group_name_H-M	'P1'
_symmetry_Int_Tables_number	1
_symmetry_cell_setting	triclinic
loop_
_symmetry_equiv_pos_as_xyz
  x,y,z
_cell_length_a	12.759401
_cell_length_b	18.215405
_cell_length_c	12.759393
_cell_angle_alpha	89.966515
_cell_angle_beta	89.980404
_cell_angle_gamma	90.023009
loop_
_atom_site_label
_atom_site_type_symbol
_atom_site_fract_x
_atom_site_fract_y
_atom_site_fract_z
Zn1	Zn	1.606208	-0.292943	-0.593961
Zn2	Zn	1.939541	0.040390	-0.260627
Zn3	Zn	2.272874	0.373723	0.072706
Zn4	Zn	1.606074	-0.416027	-0.418272
Zn5	Zn	1.939408	-0.082694	-0.084938
Zn6	Zn	2.272741	0.250639	0.248395
Zn7	Zn	1.430506	-0.292980	-0.418300
Zn8	Zn	1.763840	0.040354	-0.084967
Zn9	Zn	2.097173	0.373687	0.248367
Zn10	Zn	1.430474	-0.415973	-0.593913
Zn11	Zn	1.763807	-0.082640	-0.260580
Zn12	Zn	2.097140	0.250694	0.072754
O13	O	1.518316	-0.354481	-0.506111
O14	O	1.851649	-0.021148	-0.172778
O15	O	2.184982	0.312186	0.160555
O16	O	1.753211	-0.309278	-0.570663
O17	O	2.086544	0.024055	-0.237330
O18	O	2.419878	0.357389	0.096003
O19	O	1.582743	-0.399743	-0.271254
O20	O	1.916076	-0.066409	0.062079
O21	O	2.249409	0.266924	0.395412
O22	O	1.453883	-0.189991	-0.441634
O23	O	1.787217	0.143343	-0.108300
O24	O	2.120550	0.476676	0.225033
O25	O	1.753113	-0.399707	-0.441585
O26	O	2.086446	-0.066374	-0.108252
O27	O	2.419780	0.266959	0.225081
O28	O	1.582970	-0.189964	-0.570691
O29	O	1.916303	0.143370	-0.237357
O30	O	2.249637	0.476703	0.095976
O31	O	1.453754	-0.309340	-0.271275
O32	O	1.787087	0.023993	0.062058
O33	O	2.120420	0.357327	0.395392
O34	O	1.283481	-0.309288	-0.441587
O35	O	1.616814	0.024046	-0.108254
O36	O	1.950148	0.357379	0.225079
O37	O	1.453827	-0.399615	-0.740940
O38	O	1.787161	-0.066282	-0.407607
O39	O	2.120494	0.267052	-0.074274
O40	O	1.283457	-0.399650	-0.570609
O41	O	1.616790	-0.066317	-0.237276
O42	O	1.950124	0.267016	0.096057
O43	O	1.582938	-0.309226	-0.740975
O44	O	1.916272	0.024108	-0.407642
O45	O	2.249605	0.357441	-0.074309
O46	O	1.582711	-0.519004	-0.441539
O47	O	1.916044	-0.185671	-0.108206
O48	O	2.249377	0.147662	0.225128
O49	O	1.453698	-0.518965	-0.570582
O50	O	1.787031	-0.185631	-0.237249
O51	O	2.120365	0.147702	0.096085
C52	C	1.245348	-0.354468	-0.506097
C53	C	1.578681	-0.021134	-0.172763
C54	C	1.912015	0.312199	0.160570
C55	C	1.128572	-0.354480	-0.506116
C56	C	1.461905	-0.021146	-0.172782
C57	C	1.795238	0.312187	0.160551
C58	C	0.963993	-0.401614	-0.573199
C59	C	1.297327	-0.068281	-0.239865
C60	C	1.630660	0.265052	0.093468
C61	C	1.073717	-0.401606	-0.573188
C62	C	1.407051	-0.068273	-0.239855
C63	C	1.740384	0.265060	0.093479
C64	C	1.073696	-0.307364	-0.439042
C65	C	1.407029	0.025970	-0.105709
C66	C	1.740362	0.359303	0.227624
C67	C	0.963974	-0.307376	-0.439049
C68	C	1.297307	0.025957	-0.105715
C69	C	1.630640	0.359290	0.227618
C70	C	1.518215	-0.545687	-0.506075
C71	C	1.851548	-0.212354	-0.172742
C72	C	2.184881	0.120980	0.160592
C73	C	1.518268	-0.627486	-0.506095
C74	C	1.851601	-0.294153	-0.172761
C75	C	2.184935	0.039181	0.160572
C76	C	1.585515	-0.815605	-0.573386
C77	C	1.918849	-0.482272	-0.240052
C78	C	2.252182	-0.148938	0.093281
C79	C	1.585554	-0.892464	-0.573405
C80	C	1.918887	-0.559130	-0.240072
C81	C	2.252220	-0.225797	0.093261
C82	C	1.451245	-0.892605	-0.438902
C83	C	1.784579	-0.559271	-0.105569
C84	C	2.117912	-0.225938	0.227765
C85	C	1.451203	-0.815747	-0.438888
C86	C	1.784536	-0.482414	-0.105555
C87	C	2.117870	-0.149081	0.227778
C88	C	1.518344	-0.777249	-0.506129
C89	C	1.851677	-0.443916	-0.172795
C90	C	2.185010	-0.110583	0.160538
C91	C	1.518425	-0.930966	-0.506162
C92	C	1.851758	-0.597632	-0.172829
C93	C	2.185091	-0.264299	0.160505
C94	C	1.518465	-1.014299	-0.506183
C95	C	1.851799	-0.680966	-0.172850
C96	C	2.185132	-0.347632	0.160484
C97	C	1.518302	-0.693911	-0.506109
C98	C	1.851635	-0.360577	-0.172776
C99	C	2.184969	-0.027244	0.160557
C100	C	1.792349	-0.354495	-0.506126
C101	C	2.125682	-0.021161	-0.172793
C102	C	2.459015	0.312172	0.160540
C103	C	1.909125	-0.354500	-0.506133
C104	C	2.242459	-0.021167	-0.172800
C105	C	2.575792	0.312166	0.160534
C106	C	1.518394	-0.354410	-0.780145
C107	C	1.851727	-0.021077	-0.446811
C108	C	2.185061	0.312256	-0.113478
C109	C	1.518428	-0.354380	-0.896921
C110	C	1.851761	-0.021047	-0.563588
C111	C	2.185094	0.312287	-0.230255
C112	C	1.518445	-0.162528	-0.506171
C113	C	1.851779	0.170805	-0.172837
C114	C	2.185112	0.504139	0.160496
C115	C	1.518500	-0.080729	-0.506196
C116	C	1.851834	0.252604	-0.172863
C117	C	2.185167	0.585938	0.160471
C118	C	1.585661	-0.307307	-0.951803
C119	C	1.918994	0.026027	-0.618470
C120	C	2.252327	0.359360	-0.285137
C121	C	1.585679	-0.307275	-1.061528
C122	C	1.919012	0.026058	-0.728194
C123	C	2.252345	0.359392	-0.394861
C124	C	1.451227	-0.401396	-1.061478
C125	C	1.784561	-0.068063	-0.728145
C126	C	2.117894	0.265270	-0.394812
C127	C	1.451205	-0.401424	-0.951756
C128	C	1.784538	-0.068090	-0.618423
C129	C	2.117872	0.265243	-0.285089
C130	C	1.518298	-0.354498	-0.233144
C131	C	1.851631	-0.021165	0.100189
C132	C	2.184964	0.312169	0.433523
C133	C	1.518468	-0.354321	-0.116368
C134	C	1.851801	-0.020988	0.216966
C135	C	2.185134	0.312346	0.550299
H136	H	1.118367	-0.268996	-0.384426
H137	H	1.451700	0.064337	-0.051093
H138	H	1.785033	0.397671	0.282241
H139	H	1.118386	-0.439972	-0.627799
H140	H	1.451719	-0.106639	-0.294465
H141	H	1.785053	0.226695	0.038868
H142	H	1.640425	-0.268942	-1.106208
H143	H	1.973758	0.064391	-0.772874
H144	H	2.307091	0.397725	-0.439541
H145	H	1.396499	-0.439699	-1.106138
H146	H	1.729832	-0.106366	-0.772805
H147	H	2.063166	0.226967	-0.439471
N148	N	1.657917	-0.774076	-0.645910
N149	N	1.991251	-0.440742	-0.312577
N150	N	2.324584	-0.107409	0.020757
H151	H	1.733001	-0.787418	-0.629669
H152	H	2.066335	-0.454084	-0.296335
H153	H	2.399668	-0.120751	0.036998
H154	H	1.641471	-0.787438	-0.720935
H155	H	1.974805	-0.454105	-0.387602
H156	H	2.308138	-0.120771	-0.054268
H157	H	1.396584	-0.923959	-0.384155
H158	H	1.729917	-0.590626	-0.050822
H159	H	2.063250	-0.257292	0.282511
N160	N	0.904842	-0.452449	-0.645542
N161	N	1.238175	-0.119116	-0.312208
N162	N	1.571508	0.214218	0.021125
H163	H	0.859290	-0.486521	-0.602758
H164	H	1.192623	-0.153188	-0.269425
H165	H	1.525956	0.180146	0.063908
H166	H	0.859408	-0.422540	-0.694299
H167	H	1.192741	-0.089206	-0.360966
H168	H	1.526075	0.244127	-0.027633
H169	H	0.919299	-0.269009	-0.384430
H170	H	1.252632	0.064324	-0.051097
H171	H	1.585966	0.397657	0.282236
N172	N	1.657975	-0.933834	-0.645974
N173	N	1.991309	-0.600500	-0.312640
N174	N	2.324642	-0.267167	0.020693
H175	H	1.700491	-0.897781	-0.688573
H176	H	2.033824	-0.564447	-0.355240
H177	H	2.367157	-0.231114	-0.021907
H178	H	1.706645	-0.965729	-0.603284
H179	H	2.039978	-0.632395	-0.269950
H180	H	2.373311	-0.299062	0.063383
H181	H	1.396499	-0.784516	-0.384119
H182	H	1.729832	-0.451183	-0.050786
H183	H	2.063165	-0.117850	0.282547
N184	N	1.378664	-0.452192	-0.892569
N185	N	1.711997	-0.118859	-0.559235
N186	N	2.045330	0.214475	-0.225902
H187	H	1.394935	-0.504773	-0.911643
H188	H	1.728268	-0.171440	-0.578309
H189	H	2.061602	0.161893	-0.244976
H190	H	1.388868	-0.445008	-0.814757
H191	H	1.722202	-0.111675	-0.481424
H192	H	2.055535	0.221659	-0.148090
N193	N	1.658160	-0.256569	-0.892658
N194	N	1.991493	0.076765	-0.559325
N195	N	2.324827	0.410098	-0.225991
H196	H	1.700753	-0.226743	-0.944079
H197	H	2.034086	0.106591	-0.610746
H198	H	2.367419	0.439924	-0.277413
H199	H	1.615410	-0.222520	-0.847137
H200	H	1.948743	0.110813	-0.513804
H201	H	2.282076	0.444146	-0.180470
