data_functionalizedCrystal
_audit_creation_method	'MofGen! by Chris Wilmer'
_symmetry_space_group_name_H-M	'P1'
_symmetry_Int_Tables_number	1
_symmetry_cell_setting	triclinic
loop_
_symmetry_equiv_pos_as_xyz
  x,y,z
_cell_length_a	29.839131
_cell_length_b	19.805407
_cell_length_c	19.805398
_cell_angle_alpha	90.018017
_cell_angle_beta	89.972098
_cell_angle_gamma	89.957352
loop_
_atom_site_label
_atom_site_type_symbol
_atom_site_fract_x
_atom_site_fract_y
_atom_site_fract_z
Zn1	Zn	-0.178856	-1.034640	-0.382749
Zn2	Zn	-0.253982	-1.034533	-0.269557
Zn3	Zn	-0.178868	-0.921462	-0.269569
Zn4	Zn	-0.253962	-0.921389	-0.382699
O5	O	-0.216417	-0.978006	-0.326144
O6	O	-0.188825	-1.129343	-0.367750
O7	O	-0.244031	-1.019520	-0.174842
O8	O	-0.116000	-0.936551	-0.284609
O9	O	-0.244020	-1.129264	-0.284588
O10	O	-0.115991	-1.019703	-0.367762
O11	O	-0.188846	-0.936447	-0.174851
O12	O	-0.188826	-0.826736	-0.284561
O13	O	-0.243985	-0.936426	-0.477423
O14	O	-0.243997	-0.826682	-0.367677
O15	O	-0.188806	-1.019632	-0.477459
O16	O	-0.316846	-1.019448	-0.284540
O17	O	-0.316832	-0.936322	-0.367665
C18	C	-0.216411	-0.802150	-0.326115
C19	C	-0.216419	-0.726918	-0.326119
C20	C	-0.187725	-0.265172	-0.369522
C21	C	-0.187727	-0.335860	-0.369519
C22	C	-0.216419	-0.371156	-0.326152
C23	C	-0.245115	-0.335761	-0.282790
C24	C	-0.245115	-0.265073	-0.282797
C25	C	-0.245114	-0.620834	-0.282760
C26	C	-0.245110	-0.691526	-0.282755
C27	C	-0.187725	-0.691620	-0.369483
C28	C	-0.187726	-0.620933	-0.369490
C29	C	-0.216423	-0.585544	-0.326131
C30	C	-0.216422	-0.508895	-0.326135
C31	C	-0.216418	-0.447803	-0.326143
C32	C	-0.333140	-0.977884	-0.326110
C33	C	-0.383074	-0.977893	-0.326118
C34	C	-0.692712	-1.021369	-0.282924
C35	C	-0.880385	-1.021452	-0.282950
O36	O	-0.904646	-1.058319	-0.246198
N37	N	-0.903859	-0.978146	-0.326195
C38	C	-0.880412	-0.934820	-0.369439
O39	O	-0.904683	-0.897992	-0.406227
C40	C	-0.692739	-0.934740	-0.369416
C41	C	-0.669268	-0.978044	-0.326163
C42	C	-0.669241	-1.064669	-0.239675
C43	C	-0.622326	-1.064646	-0.239666
C44	C	-0.598882	-1.021321	-0.282906
C45	C	-0.622353	-0.978020	-0.326155
C46	C	-0.669293	-0.891417	-0.412663
C47	C	-0.622372	-0.891403	-0.412655
C48	C	-0.598900	-0.934706	-0.369402
C49	C	-0.551993	-0.934671	-0.369386
N50	N	-0.528519	-0.977977	-0.326141
C51	C	-0.551964	-1.021302	-0.282901
C52	C	-0.978942	-0.934864	-0.369448
C53	C	-1.025860	-0.934883	-0.369453
C54	C	-1.025831	-1.021516	-0.282964
C55	C	-0.978912	-1.021493	-0.282956
C56	C	-0.955469	-0.978170	-0.326203
C57	C	-0.453438	-1.021248	-0.282886
C58	C	-0.406518	-1.021218	-0.282879
C59	C	-0.406552	-0.934588	-0.369370
C60	C	-0.453467	-0.934614	-0.369374
C61	C	-0.476909	-0.977950	-0.326130
O62	O	-0.527704	-0.897829	-0.406123
O63	O	-0.527684	-1.058134	-0.246129
C64	C	-0.739628	-1.021393	-0.282932
C65	C	-0.763099	-0.978092	-0.326181
C66	C	-0.739655	-0.934767	-0.369421
C67	C	-0.810017	-0.978111	-0.326186
C68	C	-0.833461	-1.021435	-0.282946
C69	C	-0.809988	-1.064741	-0.239701
C70	C	-0.763072	-1.064717	-0.239693
C71	C	-0.763128	-0.891461	-0.412666
C72	C	-0.810044	-0.891488	-0.412670
C73	C	-0.833488	-0.934813	-0.369430
C74	C	-0.099239	-0.978147	-0.326192
C75	C	-0.049304	-0.978207	-0.326213
C76	C	-0.216392	-0.978033	-0.502687
C77	C	-0.216382	-0.978044	-0.577919
C78	C	-0.216421	-0.154549	-0.326167
C79	C	-0.216418	-0.229781	-0.326162
C80	C	-0.187570	-1.021451	-1.039730
C81	C	-0.187584	-1.021440	-0.969041
C82	C	-0.216319	-0.978113	-0.933681
C83	C	-0.245046	-0.934799	-0.969012
C84	C	-0.245034	-0.934814	-1.039699
C85	C	-0.245094	-0.934741	-0.683938
C86	C	-0.245103	-0.934728	-0.613246
C87	C	-0.187644	-1.021367	-0.613281
C88	C	-0.187633	-1.021381	-0.683968
C89	C	-0.216361	-0.978070	-0.719293
C90	C	-0.216346	-0.978083	-0.795941
C91	C	-0.216332	-0.978097	-0.857033
C92	C	-0.216409	-0.978019	-0.150288
C93	C	-0.216293	-0.978138	-0.075056
H94	H	-0.268478	-0.364504	-0.247482
H95	H	-0.268444	-0.899525	-0.940215
H96	H	-0.268481	-0.236259	-0.247490
N97	N	-0.156773	-0.374042	-0.416268
H98	H	-0.175052	-0.403366	-0.447585
H99	H	-0.138595	-0.340921	-0.443694
H100	H	-0.164195	-1.056711	-0.940282
H101	H	-1.044927	-1.056793	-0.247757
N102	N	-0.156773	-0.582864	-0.416255
H103	H	-0.138595	-0.616011	-0.443723
H104	H	-0.175085	-0.553524	-0.447532
H105	H	-0.164359	-0.720443	-0.404790
N106	N	-0.156774	-0.227104	-0.416291
H107	H	-0.138598	-0.260254	-0.443758
H108	H	-0.175087	-0.197766	-0.447568
N109	N	-0.737849	-0.844723	-0.459302
H110	H	-0.718418	-0.813364	-0.431759
H111	H	-0.718375	-0.872238	-0.490689
N112	N	-0.276104	-0.888002	-0.575107
H113	H	-0.271750	-0.894566	-0.524967
H114	H	-0.269113	-0.839671	-0.587458
N115	N	-0.276057	-0.729598	-0.235977
H116	H	-0.294238	-0.696453	-0.208511
H117	H	-0.296868	-0.758918	-0.263471
H118	H	-0.268480	-0.592028	-0.247453
H119	H	-0.387410	-1.056481	-0.247655
H120	H	-0.472519	-1.056538	-0.247674
H121	H	-0.603218	-1.099909	-0.204449
H122	H	-0.688325	-1.099953	-0.204464
H123	H	-0.959804	-1.056755	-0.247737
N124	N	-0.381257	-0.887860	-0.416000
H125	H	-0.361759	-0.915344	-0.447385
H126	H	-0.403268	-0.860436	-0.443359
N127	N	-1.051173	-0.888165	-0.416092
H128	H	-1.029197	-0.860719	-0.443481
H129	H	-1.070609	-0.915700	-0.447447
H130	H	-0.959858	-0.899583	-0.404665
H131	H	-0.688395	-0.856152	-0.447881
H132	H	-0.268424	-0.899545	-1.068461
H133	H	-0.268486	-0.899473	-0.712691
H134	H	-0.603286	-0.856124	-0.447874
H135	H	-0.472578	-0.899355	-0.404596
H136	H	-0.743965	-1.099979	-0.204473
H137	H	-0.829084	-1.100016	-0.204492
H138	H	-0.164167	-1.056728	-1.068516
N139	N	-0.835357	-0.844772	-0.459318
H140	H	-0.813381	-0.817326	-0.486707
H141	H	-0.854790	-0.872312	-0.490674
H142	H	-0.164232	-1.056660	-0.712755
N143	N	-0.156667	-1.068097	-0.575181
H144	H	-0.161037	-1.061522	-0.525035
H145	H	-0.163665	-1.116426	-0.587549
