data_functionalizedCrystal
_audit_creation_method	'MofGen! by Chris Wilmer'
_symmetry_space_group_name_H-M	'P1'
_symmetry_Int_Tables_number	1
_symmetry_cell_setting	triclinic
loop_
_symmetry_equiv_pos_as_xyz
  x,y,z
_cell_length_a	18.050591
_cell_length_b	18.050590
_cell_length_c	18.050591
_cell_angle_alpha	90.007244
_cell_angle_beta	90.007198
_cell_angle_gamma	90.015000
loop_
_atom_site_label
_atom_site_type_symbol
_atom_site_fract_x
_atom_site_fract_y
_atom_site_fract_z
Zn1	Zn	1.135250	-0.295895	0.420004
Zn2	Zn	1.468584	0.037438	0.753338
Zn3	Zn	1.801917	0.370772	1.086671
Zn4	Zn	1.135209	-0.420043	0.295813
Zn5	Zn	1.468543	-0.086710	0.629146
Zn6	Zn	1.801876	0.246623	0.962479
Zn7	Zn	1.011097	-0.295864	0.295818
Zn8	Zn	1.344430	0.037469	0.629151
Zn9	Zn	1.677763	0.370803	0.962485
Zn10	Zn	1.011038	-0.420040	0.419951
Zn11	Zn	1.344372	-0.086707	0.753284
Zn12	Zn	1.677705	0.246627	1.086617
O13	O	1.073149	-0.357961	0.357896
O14	O	1.406482	-0.024627	0.691230
O15	O	1.739815	0.308706	1.024563
O16	O	1.239169	-0.312378	0.403550
O17	O	1.572503	0.020955	0.736883
O18	O	1.905836	0.354289	1.070217
O19	O	1.118753	-0.403559	0.191889
O20	O	1.452086	-0.070226	0.525222
O21	O	1.785419	0.263107	0.858555
O22	O	1.027608	-0.191944	0.312316
O23	O	1.360941	0.141390	0.645649
O24	O	1.694274	0.474723	0.978983
O25	O	1.239139	-0.403589	0.312307
O26	O	1.572473	-0.070256	0.645640
O27	O	1.905806	0.263077	0.978974
O28	O	1.118823	-0.191966	0.403555
O29	O	1.452156	0.141367	0.736889
O30	O	1.785489	0.474700	1.070222
O31	O	1.027568	-0.312325	0.191893
O32	O	1.360901	0.021008	0.525226
O33	O	1.694234	0.354342	0.858559
O34	O	0.907164	-0.312322	0.312264
O35	O	1.240498	0.021012	0.645597
O36	O	1.573831	0.354345	0.978931
O37	O	1.027508	-0.403583	0.523882
O38	O	1.360842	-0.070250	0.857216
O39	O	1.694175	0.263083	1.190549
O40	O	0.907122	-0.403553	0.403464
O41	O	1.240455	-0.070220	0.736797
O42	O	1.573788	0.263113	1.070131
O43	O	1.118766	-0.312375	0.523922
O44	O	1.452099	0.020959	0.857255
O45	O	1.785433	0.354292	1.190588
O46	O	1.118696	-0.523967	0.312255
O47	O	1.452029	-0.190634	0.645588
O48	O	1.785363	0.142699	0.978922
O49	O	1.027468	-0.523965	0.403459
O50	O	1.360802	-0.190632	0.736792
O51	O	1.694135	0.142702	1.070125
C52	C	0.880197	-0.357934	0.357859
C53	C	1.213530	-0.024601	0.691192
C54	C	1.546863	0.308732	1.024526
C55	C	0.797651	-0.357941	0.357861
C56	C	1.130984	-0.024608	0.691194
C57	C	1.464317	0.308726	1.024528
C58	C	1.073092	-0.550913	0.357867
C59	C	1.406425	-0.217579	0.691200
C60	C	1.739758	0.115754	1.024533
C61	C	1.073135	-0.633458	0.357879
C62	C	1.406468	-0.300125	0.691212
C63	C	1.739802	0.033208	1.024546
C64	C	0.548827	-0.308278	0.308384
C65	C	0.882160	0.025055	0.641717
C66	C	1.215494	0.358389	0.975050
C67	C	0.598241	-0.290216	0.376160
C68	C	0.931574	0.043117	0.709493
C69	C	1.264908	0.376451	1.042827
C70	C	0.500530	-0.357979	0.357922
C71	C	0.833864	-0.024646	0.691255
C72	C	1.167197	0.308688	1.024588
C73	C	0.598198	-0.375987	0.290119
C74	C	0.931531	-0.042654	0.623453
C75	C	1.264865	0.290679	0.956786
C76	C	0.646515	-0.357959	0.357888
C77	C	0.979849	-0.024625	0.691222
C78	C	1.313182	0.308708	1.024555
C79	C	0.548857	-0.339882	0.425734
C80	C	0.882191	-0.006549	0.759067
C81	C	1.215524	0.326785	1.092401
C82	C	0.548810	-0.425685	0.339647
C83	C	0.882143	-0.092351	0.672981
C84	C	1.215477	0.240982	1.006314
C85	C	0.598202	-0.407649	0.407471
C86	C	0.931535	-0.074315	0.740804
C87	C	1.264868	0.259018	1.074137
C88	C	0.416432	-0.357989	0.357940
C89	C	0.749765	-0.024656	0.691273
C90	C	1.083099	0.308678	1.024607
C91	C	0.730612	-0.357949	0.357878
C92	C	1.063945	-0.024615	0.691211
C93	C	1.397279	0.308718	1.024544
C94	C	1.122848	-0.832884	0.308352
C95	C	1.456181	-0.499550	0.641685
C96	C	1.789515	-0.166217	0.975018
C97	C	1.140969	-0.882242	0.376133
C98	C	1.474302	-0.548909	0.709467
C99	C	1.807635	-0.215576	1.042800
C100	C	1.073177	-0.784589	0.357908
C101	C	1.406511	-0.451255	0.691242
C102	C	1.739844	-0.117922	1.024575
C103	C	1.055132	-0.882312	0.290157
C104	C	1.388466	-0.548978	0.623491
C105	C	1.721799	-0.215645	0.956824
C106	C	1.073219	-0.930574	0.357931
C107	C	1.406553	-0.597241	0.691264
C108	C	1.739886	-0.263907	1.024598
C109	C	1.091333	-0.832860	0.425726
C110	C	1.424666	-0.499527	0.759059
C111	C	1.757999	-0.166194	1.092392
C112	C	1.005465	-0.832925	0.339704
C113	C	1.338798	-0.499592	0.673037
C114	C	1.672132	-0.166259	1.006371
C115	C	1.023560	-0.882262	0.407533
C116	C	1.356893	-0.548929	0.740866
C117	C	1.690226	-0.215595	1.074199
C118	C	1.073155	-0.700491	0.357894
C119	C	1.406488	-0.367157	0.691228
C120	C	1.739822	-0.033824	1.024561
C121	C	1.073242	-1.014670	0.357953
C122	C	1.406575	-0.681337	0.691286
C123	C	1.739908	-0.348004	1.024619
C124	C	1.266854	-0.357987	0.357934
C125	C	1.600188	-0.024654	0.691267
C126	C	1.933521	0.308679	1.024601
C127	C	1.349400	-0.357999	0.357950
C128	C	1.682733	-0.024665	0.691283
C129	C	2.016067	0.308668	1.024617
C130	C	1.073135	-0.357982	0.551602
C131	C	1.406469	-0.024649	0.884935
C132	C	1.739802	0.308685	1.218269
C133	C	1.073130	-0.357991	0.634148
C134	C	1.406463	-0.024658	0.967481
C135	C	1.739796	0.308675	1.300814
C136	C	1.073226	-0.164255	0.357942
C137	C	1.406560	0.169078	0.691276
C138	C	1.739893	0.502412	1.024609
C139	C	1.073259	-0.081709	0.357962
C140	C	1.406593	0.251624	0.691295
C141	C	1.739926	0.584957	1.024629
C142	C	1.023491	-0.407583	0.882952
C143	C	1.356825	-0.074249	1.216285
C144	C	1.690158	0.259084	1.549618
C145	C	1.005351	-0.339830	0.833563
C146	C	1.338685	-0.006496	1.166897
C147	C	1.672018	0.326837	1.500230
C148	C	1.073123	-0.357969	0.931268
C149	C	1.406456	-0.024636	1.264601
C150	C	1.739789	0.308697	1.597935
C151	C	1.091231	-0.425729	0.833575
C152	C	1.424564	-0.092396	1.166908
C153	C	1.757898	0.240938	1.500241
C154	C	1.073124	-0.357984	0.785283
C155	C	1.406458	-0.024650	1.118616
C156	C	1.739791	0.308683	1.451950
C157	C	1.054947	-0.290180	0.882967
C158	C	1.388281	0.043153	1.216300
C159	C	1.721614	0.376486	1.549634
C160	C	1.140859	-0.376125	0.882983
C161	C	1.474192	-0.042792	1.216316
C162	C	1.807525	0.290541	1.549649
C163	C	1.122744	-0.308326	0.833616
C164	C	1.456078	0.025008	1.166950
C165	C	1.789411	0.358341	1.500283
C166	C	1.073120	-0.357962	1.015366
C167	C	1.406453	-0.024629	1.348700
C168	C	1.739786	0.308705	1.682033
C169	C	1.073127	-0.357983	0.701186
C170	C	1.406460	-0.024650	1.034520
C171	C	1.739794	0.308683	1.367853
C172	C	1.073146	-0.357959	1.164944
C173	C	1.406479	-0.024626	1.498278
C174	C	1.739812	0.308707	1.831611
C175	C	1.073119	-0.357961	1.082398
C176	C	1.406453	-0.024627	1.415732
C177	C	1.739786	0.308706	1.749065
H178	H	0.527149	-0.266225	0.266557
H179	H	0.860482	0.067109	0.599890
H180	H	1.193816	0.400442	0.933224
C181	C	0.966836	-0.911367	0.464226
C182	C	1.300169	-0.578034	0.797559
C183	C	1.633502	-0.244701	1.130892
N184	N	0.924113	-0.933290	0.506929
N185	N	1.257446	-0.599956	0.840262
N186	N	1.590780	-0.266623	1.173596
H187	H	1.106548	-0.483027	0.811880
H188	H	1.439881	-0.149694	1.145213
H189	H	1.773214	0.183640	1.478547
C190	C	0.627577	-0.212853	0.397028
C191	C	0.960910	0.120480	0.730361
C192	C	1.294243	0.453814	1.063694
N193	N	0.649670	-0.154582	0.412740
N194	N	0.983004	0.178752	0.746073
N195	N	1.316337	0.512085	1.079407
C196	C	0.519448	-0.503024	0.318749
C197	C	0.852781	-0.169691	0.652082
C198	C	1.186114	0.163642	0.985416
N199	N	0.497329	-0.561276	0.303000
N200	N	0.830663	-0.227943	0.636333
N201	N	1.163996	0.105390	0.969666
C202	C	1.179613	-0.803583	0.251798
C203	C	1.512946	-0.470250	0.585131
C204	C	1.846280	-0.136916	0.918465
N205	N	1.222370	-0.781510	0.209207
N206	N	1.555703	-0.448177	0.542541
N207	N	1.889037	-0.114844	0.875874
C208	C	1.179444	-0.251588	0.804529
C209	C	1.512777	0.081745	1.137862
C210	C	1.846111	0.415079	1.471195
N211	N	1.222146	-0.208851	0.782617
N212	N	1.555479	0.124482	1.115950
N213	N	1.888813	0.457816	1.449284
H214	H	1.198250	-0.903907	0.391545
H215	H	1.531583	-0.570573	0.724878
H216	H	1.864916	-0.237240	1.058212
C217	C	1.034161	-0.212752	0.912152
C218	C	1.367495	0.120581	1.245485
C219	C	1.700828	0.453914	1.578818
N220	N	1.018502	-0.154436	0.934135
N221	N	1.351836	0.178897	1.267469
N222	N	1.685169	0.512231	1.600802
C223	C	0.519702	-0.319198	0.503200
C224	C	0.853035	0.014135	0.836533
C225	C	1.186368	0.347468	1.169867
N226	N	0.497740	-0.303616	0.561545
N227	N	0.831073	0.029717	0.894879
N228	N	1.164407	0.363051	1.228212
C229	C	0.928106	-0.803626	0.318852
C230	C	1.261440	-0.470293	0.652185
C231	C	1.594773	-0.136959	0.985518
N232	N	0.869841	-0.781554	0.303137
N233	N	1.203174	-0.448221	0.636470
N234	N	1.536507	-0.114887	0.969803
H235	H	0.619873	-0.391227	0.232794
H236	H	0.953206	-0.057894	0.566127
H237	H	1.286540	0.275440	0.899460
C238	C	1.112071	-0.803642	0.503165
C239	C	1.445404	-0.470308	0.836498
C240	C	1.778737	-0.136975	1.169832
N241	N	1.127694	-0.781632	0.561490
N242	N	1.461027	-0.448299	0.894823
N243	N	1.794360	-0.114966	1.228157
C244	C	1.218221	-0.396899	0.912336
C245	C	1.551554	-0.063566	1.245669
C246	C	1.884888	0.269768	1.579003
N247	N	1.276491	-0.412554	0.934447
N248	N	1.609824	-0.079221	1.267780
N249	N	1.943157	0.254112	1.601113
C250	C	1.034486	-0.911653	0.212740
C251	C	1.367819	-0.578319	0.546073
C252	C	1.701153	-0.244986	0.879406
N253	N	1.018940	-0.933749	0.154427
N254	N	1.352274	-0.600416	0.487760
N255	N	1.685607	-0.267082	0.821093
C256	C	0.966747	-0.464182	0.912224
C257	C	1.300080	-0.130849	1.245557
C258	C	1.633414	0.202485	1.578890
N259	N	0.924005	-0.506809	0.934273
N260	N	1.257339	-0.173475	1.267607
N261	N	1.590672	0.159858	1.600940
C262	C	0.927966	-0.319082	0.804240
C263	C	1.261299	0.014251	1.137573
C264	C	1.594632	0.347584	1.470906
N265	N	0.869677	-0.303459	0.782157
N266	N	1.203010	0.029874	1.115490
N267	N	1.536343	0.363207	1.448824
H268	H	0.619744	-0.449671	0.449397
H269	H	0.953077	-0.116337	0.782731
H270	H	1.286410	0.216996	1.116064
