data_functionalizedCrystal
_audit_creation_method	'MofGen! by Chris Wilmer'
_symmetry_space_group_name_H-M	'P1'
_symmetry_Int_Tables_number	1
_symmetry_cell_setting	triclinic
loop_
_symmetry_equiv_pos_as_xyz
  x,y,z
_cell_length_a	14.519731
_cell_length_b	13.596369
_cell_length_c	15.538191
_cell_angle_alpha	89.998190
_cell_angle_beta	65.480473
_cell_angle_gamma	90.006024
loop_
_atom_site_label
_atom_site_type_symbol
_atom_site_fract_x
_atom_site_fract_y
_atom_site_fract_z
O1	O	1.182318	0.081784	0.123500
O2	O	1.682318	0.581784	0.623500
O3	O	0.908962	0.081784	0.138012
O4	O	1.408962	0.581784	0.638012
O5	O	1.098851	0.081788	-0.006279
O6	O	1.598851	0.581788	0.493721
O7	O	0.992429	0.081779	0.267792
O8	O	1.492429	0.581779	0.767792
O9	O	1.098831	-0.081795	-0.006271
O10	O	1.598831	0.418205	0.493729
O11	O	0.908942	-0.081799	0.138020
O12	O	1.408942	0.418201	0.638020
O13	O	1.182298	-0.081799	0.123508
O14	O	1.682298	0.418201	0.623508
Zn15	Zn	1.045617	-0.107772	0.130765
Zn16	Zn	1.545617	0.392228	0.630765
Zn17	Zn	1.045643	0.107756	0.130755
Zn18	Zn	1.545643	0.607756	0.630755
O19	O	0.992409	-0.081804	0.267800
O20	O	1.492409	0.418196	0.767800
C21	C	0.874822	-0.000007	0.137336
C22	C	1.374822	0.499993	0.637336
C23	C	0.773127	-0.000007	0.135299
C24	C	1.273127	0.499993	0.635299
C25	C	0.690540	-0.000003	0.133643
C26	C	1.190540	0.499997	0.633643
C27	C	0.586927	-0.000002	0.131574
C28	C	1.086927	0.499998	0.631574
C29	C	0.504340	-0.000002	0.129932
C30	C	1.004340	0.499998	0.629932
C31	C	0.400720	-0.000000	0.127864
C32	C	0.900720	0.500000	0.627864
N33	N	1.045606	-0.254863	0.130772
N34	N	1.545606	0.245137	0.630772
C35	C	1.045610	-0.343861	0.130774
C36	C	1.545610	0.156139	0.630774
C37	C	1.045621	-0.455513	0.130768
C38	C	1.545621	0.044487	0.630768
C39	C	1.045637	-0.544503	0.130757
C40	C	1.545637	-0.044503	0.630757
C41	C	1.045649	-0.656162	0.130752
C42	C	1.545649	-0.156162	0.630752
C43	C	1.216439	-0.000006	0.124184
C44	C	1.716439	0.499994	0.624184
C45	C	1.318134	-0.000000	0.126222
C46	C	1.818134	0.500000	0.626222
C47	C	1.109976	0.000000	-0.041351
C48	C	1.609976	0.500000	0.458649
C49	C	1.143142	0.000010	-0.145867
C50	C	1.643142	0.500010	0.354133
N51	N	1.045664	0.254848	0.130741
N52	N	1.545664	0.754848	0.630741
C53	C	0.813645	-0.000011	-0.434238
C54	C	1.313645	0.499989	0.065762
C55	C	0.844833	-0.000013	-0.532449
C56	C	1.344833	0.499987	-0.032449
C57	C	1.020257	-0.000013	-0.554582
C58	C	1.520257	0.499987	-0.054582
C59	C	0.989084	-0.000006	-0.456372
C60	C	1.489084	0.499994	0.043628
C61	C	0.885777	-0.000006	-0.396207
C62	C	1.385777	0.499994	0.103793
C63	C	1.061216	-0.000001	-0.418340
C64	C	1.561216	0.499999	0.081660
C65	C	1.030045	0.000001	-0.320138
C66	C	1.530045	0.500001	0.179862
C67	C	0.926742	-0.000002	-0.259967
C68	C	1.426742	0.499998	0.240033
C69	C	0.854606	-0.000004	-0.298004
C70	C	1.354606	0.499996	0.201996
C71	C	1.164523	-0.000008	-0.478507
C72	C	1.664523	0.499992	0.021493
C73	C	1.236654	-0.000003	-0.440475
C74	C	1.736654	0.499997	0.059525
C75	C	1.205484	0.000006	-0.342271
C76	C	1.705484	0.500006	0.157729
C77	C	1.102181	0.000003	-0.282100
C78	C	1.602181	0.500003	0.217900
C79	C	1.277620	0.000008	-0.304234
C80	C	1.777620	0.500008	0.195766
C81	C	1.246449	0.000010	-0.206032
C82	C	1.746449	0.500010	0.293968
C83	C	1.071010	0.000005	-0.183898
C84	C	1.571010	0.500005	0.316102
C85	C	0.981285	-0.000013	0.302872
C86	C	1.481285	0.499987	0.802872
C87	C	0.948119	-0.000017	0.407387
C88	C	1.448119	0.499983	0.907387
H89	H	0.901365	-0.000006	-0.180004
H90	H	1.401365	0.499994	0.319996
H91	H	0.770483	0.000003	-0.249014
H92	H	1.270483	0.500003	0.250986
H93	H	0.729522	-0.000004	-0.385247
H94	H	1.229522	0.499996	0.114753
H95	H	1.320768	-0.000007	-0.489475
H96	H	1.820768	0.499993	0.010525
H97	H	1.305186	0.000013	-0.175066
H98	H	1.805186	0.500013	0.324934
H99	H	0.786087	-0.000031	-0.563408
H100	H	1.286087	0.499969	-0.063408
H101	H	0.986887	0.000012	-0.134908
H102	H	1.486887	0.500012	0.365092
H103	H	1.104370	-0.000017	-0.603582
H104	H	1.604370	0.499983	-0.103582
H105	H	1.361733	-0.000002	-0.353235
H106	H	1.861733	0.499998	0.146765
H107	H	1.189899	-0.000000	-0.558469
H108	H	1.689899	0.500000	-0.058469
