data_functionalizedCrystal
_audit_creation_method	'MofGen! by Chris Wilmer'
_symmetry_space_group_name_H-M	'P1'
_symmetry_Int_Tables_number	1
_symmetry_cell_setting	triclinic
loop_
_symmetry_equiv_pos_as_xyz
  x,y,z
_cell_length_a	17.052862
_cell_length_b	17.917603
_cell_length_c	17.052862
_cell_angle_alpha	67.576695
_cell_angle_beta	92.606806
_cell_angle_gamma	53.592363
loop_
_atom_site_label
_atom_site_type_symbol
_atom_site_fract_x
_atom_site_fract_y
_atom_site_fract_z
Zr1	Zr	0.944115	0.550387	0.011666
O2	O	0.825673	0.702140	-0.121631
O3	O	0.973683	0.398634	0.056090
O4	O	1.006253	0.503534	-0.089062
O5	O	0.775079	0.634197	0.133968
O6	O	1.156364	0.466577	-0.067421
O7	O	0.793103	0.597239	0.023521
O8	O	1.098103	0.278928	0.192229
O9	O	0.833340	0.821846	-0.125681
O10	O	1.106464	0.433471	0.086884
O11	O	0.980986	0.488633	0.153160
O12	O	1.019332	0.612141	-0.017737
O13	O	0.893854	0.667303	0.048538
Zr14	Zr	1.154779	0.550387	0.222332
Zr15	Zr	1.183525	0.491443	0.046181
Zr16	Zr	0.915368	0.609331	0.187817
Zr17	Zr	0.956343	0.741304	0.005206
Zr18	Zr	1.142550	0.359470	0.228792
O19	O	1.125210	0.702141	0.177908
O20	O	1.166084	0.618330	-0.072556
O21	O	0.784799	0.785951	0.128833
O22	O	1.273220	0.398634	0.355629
O23	O	1.314094	0.314823	0.105165
O24	O	0.932809	0.482444	0.306554
O25	O	1.323814	0.466577	0.100030
O26	O	1.092640	0.597240	0.323060
O27	O	0.942529	0.634198	0.301419
O28	O	1.305790	0.503535	0.210478
O29	O	1.023640	0.774994	-0.098247
O30	O	1.075253	0.325781	0.332245
O31	O	1.265553	0.278928	0.359680
O32	O	1.288403	0.232076	0.219663
O33	O	0.810490	0.868698	0.014335
O34	O	1.000790	0.821846	0.041770
O35	O	1.079561	0.488634	0.251736
O36	O	1.205039	0.433471	0.185460
O37	O	1.117908	0.612141	0.080838
O38	O	0.992429	0.667304	0.147114
C39	C	0.749980	0.624116	0.073827
C40	C	0.648344	0.649140	0.059174
C41	C	1.034151	0.311579	0.125080
C42	C	1.028959	0.230530	0.127822
C43	C	0.543780	0.346610	0.236319
C44	C	0.639275	0.323094	0.250083
C45	C	0.641547	0.404603	0.202357
C46	C	0.548315	0.509632	0.140865
C47	C	0.452811	0.533148	0.127095
C48	C	0.550579	0.591142	0.093133
C49	C	0.457346	0.696171	0.031641
C50	C	0.361853	0.719683	0.017874
C51	C	0.359581	0.638173	0.065599
C52	C	0.646082	0.567626	0.106903
C53	C	0.555113	0.754165	-0.002321
C54	C	0.459619	0.777680	-0.016085
C55	C	1.019475	0.082129	0.132830
C56	C	1.079415	0.018641	0.101170
C57	C	1.074138	-0.063934	0.103956
C58	C	1.024751	0.164713	0.130044
C59	C	1.348913	0.476658	0.160171
C60	C	1.450549	0.451635	0.174824
C61	C	1.085404	0.476657	-0.103339
C62	C	1.097608	0.451634	-0.178120
C63	C	1.064742	0.789195	0.108918
C64	C	1.069934	0.870244	0.106176
C65	C	0.950066	0.754165	-0.607367
C66	C	0.938593	0.777680	-0.537109
C67	C	0.978346	0.696171	-0.447359
C68	C	1.029573	0.591142	-0.427872
C69	C	1.041039	0.567626	-0.498138
C70	C	1.069320	0.509632	-0.338130
C71	C	1.120547	0.404603	-0.318643
C72	C	1.132011	0.381092	-0.388902
C73	C	1.092259	0.462601	-0.478653
C74	C	1.057854	0.533148	-0.267864
C75	C	1.148827	0.346609	-0.158635
C76	C	1.160300	0.323094	-0.228892
C77	C	1.013489	0.624117	0.337337
C78	C	1.001285	0.649140	0.412118
C79	C	1.333617	0.237850	0.168252
C80	C	1.430062	0.131778	0.185647
C81	C	0.998193	0.385309	0.345418
C82	C	0.980798	0.329283	0.422941
C83	C	1.297659	0.311580	0.388590
C84	C	1.381900	0.230531	0.480766
C85	C	0.801234	0.789194	-0.154592
C86	C	0.716993	0.870244	-0.246767
C87	C	0.765276	0.862924	0.065746
C88	C	0.668831	0.968997	0.048351
C89	C	1.100700	0.715465	-0.111420
C90	C	1.118095	0.771491	-0.188943
C91	C	1.423900	0.081962	0.142353
C92	C	1.514514	-0.017697	0.158679
C93	C	1.611289	-0.067542	0.218304
C94	C	1.617449	-0.017718	0.261599
C95	C	1.526837	0.081942	0.245268
C96	C	1.024083	0.302975	0.510810
C97	C	1.007734	0.250347	0.583657
C98	C	0.948105	0.224020	0.568634
C99	C	0.904815	0.250335	0.480756
C100	C	0.921158	0.302969	0.407910
C101	C	1.486969	0.163672	0.489459
C102	C	1.566134	0.087524	0.576061
C103	C	1.540227	0.078231	0.653970
C104	C	1.435147	0.145099	0.645274
C105	C	1.355986	0.221251	0.558672
C106	C	0.611924	0.937111	-0.255461
C107	C	0.532761	1.013283	-0.342064
C108	C	0.558669	1.022580	-0.419974
C109	C	0.663748	0.955707	-0.411277
C110	C	0.742909	0.879542	-0.324675
C111	C	0.674995	1.018817	0.091638
C112	C	0.584385	1.118491	0.075292
C113	C	0.487611	1.168338	0.015663
C114	C	0.481450	1.118512	-0.027628
C115	C	0.572060	1.018844	-0.011287
C116	C	1.177729	0.797799	-0.173891
C117	C	1.194094	0.850429	-0.246723
C118	C	1.150817	0.876755	-0.334605
C119	C	1.091181	0.850440	-0.349655
C120	C	1.074823	0.797805	-0.276824
H121	H	0.721983	0.482112	0.156977
H122	H	0.896885	0.863195	-0.552982
F123	F	1.720453	-0.070783	0.325058
H124	H	0.684830	0.963287	-0.474721
F125	F	0.854730	0.808375	-0.315436
H126	H	1.212973	0.776374	-0.102339
H127	H	1.509477	-0.058250	0.123420
H128	H	0.402644	1.159113	-0.076178
F129	F	0.930721	0.168001	0.646174
H130	H	1.202008	0.237579	-0.213038
H131	H	0.753784	0.978242	0.140197
F132	F	0.565482	0.965827	-0.057358
F133	F	1.707719	-0.173612	0.235678
F134	F	1.257561	0.878431	-0.230688
H135	H	0.917699	0.820520	-0.680444
H136	H	0.494200	1.084602	-0.490485
H137	H	0.964200	0.074468	0.162024
H138	H	0.590810	0.929550	-0.192033
F139	F	1.186516	0.269314	-0.368162
H140	H	1.134693	0.026305	0.071972
H141	H	0.556960	0.820536	-0.041185
H142	H	1.101599	0.443461	-0.535867
F143	F	1.003337	0.644924	-0.288611
F144	F	0.966137	0.721200	-0.372586
H145	H	1.531868	0.122492	0.280531
H146	H	0.856264	0.228892	0.468537
F147	F	1.191134	0.259856	-0.063118
F148	F	0.420936	1.084441	-0.351301
F149	F	1.320914	0.134995	0.078888
F150	F	1.677959	0.016366	0.585298
F151	F	1.087552	0.330981	0.526819
F152	F	1.053818	0.222347	0.677176
H153	H	1.164144	0.919614	-0.393901
H154	H	0.885911	0.324379	0.336366
H155	H	0.589422	1.159044	0.110551
H156	H	1.604696	0.016219	0.724482
F157	F	1.514565	0.173550	0.406552
H158	H	1.414068	0.137520	0.708720
F159	F	0.360385	0.889456	-0.081527
H160	H	1.270435	0.275681	0.551606
F161	F	0.391183	1.274414	-0.001719
H162	H	1.055949	0.871884	-0.421219
H163	H	0.719306	0.385451	0.213568
H164	H	1.026260	0.776393	-0.289092
H165	H	0.281824	0.657315	0.054401
F166	F	0.541352	0.259873	0.287099
F167	F	0.262630	0.831462	-0.047578
F168	F	0.738491	0.211319	0.315524
