data_functionalizedCrystal
_audit_creation_method	'MofGen! by Chris Wilmer'
_symmetry_space_group_name_H-M	'P1'
_symmetry_Int_Tables_number	1
_symmetry_cell_setting	triclinic
loop_
_symmetry_equiv_pos_as_xyz
  x,y,z
_cell_length_a	12.759401
_cell_length_b	12.594516
_cell_length_c	12.759393
_cell_angle_alpha	89.970672
_cell_angle_beta	89.982549
_cell_angle_gamma	90.015097
loop_
_atom_site_label
_atom_site_type_symbol
_atom_site_fract_x
_atom_site_fract_y
_atom_site_fract_z
Zn1	Zn	1.606234	-0.423704	-0.594001
Zn2	Zn	1.606128	-0.601724	-0.418329
Zn3	Zn	1.430539	-0.423757	-0.418340
Zn4	Zn	1.430520	-0.601638	-0.593970
O5	O	1.518355	-0.512706	-0.506160
O6	O	1.753241	-0.447333	-0.570706
O7	O	1.582799	-0.578175	-0.271309
O8	O	1.453898	-0.274804	-0.441660
O9	O	1.753163	-0.578123	-0.441640
O10	O	1.582980	-0.274766	-0.570717
O11	O	1.453795	-0.447423	-0.271318
O12	O	1.283516	-0.447340	-0.441630
O13	O	1.453866	-0.577977	-0.740995
O14	O	1.283502	-0.578028	-0.570664
O15	O	1.582962	-0.447250	-0.741018
O16	O	1.582780	-0.750659	-0.441610
O17	O	1.453763	-0.750595	-0.570653
C18	C	1.245388	-0.512681	-0.506145
C19	C	1.128611	-0.512696	-0.506164
C20	C	1.073783	-0.444722	-0.573473
C21	C	0.964059	-0.444742	-0.573479
C22	C	0.964001	-0.580720	-0.438866
C23	C	1.073723	-0.580693	-0.438855
C24	C	1.073816	-0.366219	-0.651194
C25	C	0.964091	-0.366240	-0.651201
C26	C	1.518286	-0.789247	-0.506150
C27	C	1.518353	-0.907552	-0.506180
C28	C	1.448174	-0.976810	-0.576318
C29	C	1.422576	-1.047680	-0.480451
C30	C	1.544046	-1.047481	-0.602063
C31	C	1.492705	-0.976864	-0.410263
C32	C	1.614220	-0.976659	-0.531940
C33	C	1.588659	-1.047498	-0.436008
C34	C	1.792389	-0.512732	-0.506175
C35	C	1.909165	-0.512743	-0.506182
C36	C	1.518424	-0.512598	-0.780194
C37	C	1.518453	-0.512551	-0.896970
C38	C	1.518453	-0.235085	-0.506193
C39	C	1.518495	-0.116780	-0.506208
C40	C	1.451309	-0.444457	-0.951843
C41	C	1.451341	-0.444425	-1.061567
C42	C	1.585669	-0.580586	-1.061536
C43	C	1.585631	-0.580622	-0.951814
C44	C	1.373758	-0.365842	-0.951861
C45	C	1.373790	-0.365810	-1.061585
C46	C	1.518348	-0.512737	-0.233193
C47	C	1.518522	-0.512484	-0.116417
H48	H	0.934344	-0.388421	-0.732538
N49	N	1.111191	-0.262773	-0.624035
N50	N	1.167540	-0.212234	-0.686805
H51	H	1.193939	-0.139178	-0.667625
N52	N	1.320949	-1.086802	-0.453110
N53	N	1.248130	-1.023213	-0.434347
H54	H	1.176353	-1.050838	-0.415042
N55	N	1.373584	-0.937879	-0.650613
N56	N	1.278730	-0.960691	-0.640877
H57	H	1.226048	-0.933196	-0.693344
N58	N	1.715820	-0.937506	-0.559311
N59	N	1.754908	-0.960052	-0.646337
H60	H	1.826665	-0.932400	-0.665679
N61	N	1.271672	-0.393548	-0.914479
N62	N	1.254363	-0.398265	-0.818159
H63	H	1.182266	-0.417834	-0.791755
H64	H	1.470937	-0.945973	-0.329165
H65	H	1.402924	-0.287552	-0.917842
H66	H	0.919298	-0.636081	-0.384065
N67	N	1.663175	-1.086219	-0.361533
N68	N	1.675816	-1.183937	-0.349950
H69	H	1.728438	-1.211288	-0.297350
N70	N	1.571222	-1.086399	-0.703774
N71	N	1.515407	-1.063730	-0.781102
H72	H	1.534591	-1.091213	-0.852937
N73	N	1.654207	-0.650202	-0.895779
N74	N	1.714177	-0.710973	-0.944762
H75	H	1.762611	-0.760120	-0.905189
H76	H	1.395609	-0.283363	-1.091379
N77	N	1.276825	-0.402839	-1.104266
N78	N	1.204181	-0.430592	-1.044474
H79	H	1.135703	-0.456751	-1.074617
H80	H	0.930052	-0.287900	-0.622198
N81	N	1.129744	-0.650104	-0.370090
N82	N	1.190941	-0.612548	-0.303203
H83	H	1.230508	-0.661570	-0.254633
N84	N	1.116541	-0.403376	-0.748091
N85	N	1.056782	-0.431221	-0.820664
H86	H	1.086957	-0.457466	-0.889097
N87	N	1.654276	-0.650112	-1.117576
N88	N	1.654296	-0.650078	-1.215542
H89	H	1.702751	-0.699183	-1.255120
