data_functionalizedCrystal
_audit_creation_method	'MofGen! by Chris Wilmer'
_symmetry_space_group_name_H-M	'P1'
_symmetry_Int_Tables_number	1
_symmetry_cell_setting	triclinic
loop_
_symmetry_equiv_pos_as_xyz
  x,y,z
_cell_length_a	12.811434
_cell_length_b	11.295483
_cell_length_c	12.811415
_cell_angle_alpha	88.701575
_cell_angle_beta	95.439200
_cell_angle_gamma	88.710262
loop_
_atom_site_label
_atom_site_type_symbol
_atom_site_fract_x
_atom_site_fract_y
_atom_site_fract_z
O1	O	-1.390743	0.035639	0.143928
O2	O	-1.087656	0.001505	0.156871
O3	O	-1.245672	0.035641	-0.001146
O4	O	-1.232727	0.001502	0.301946
O5	O	-1.231793	0.230696	0.012711
O6	O	-1.073777	0.196560	0.170728
O7	O	-1.376864	0.230694	0.157786
Cu8	Cu	-1.224053	0.231437	0.165522
Cu9	Cu	-1.240467	0.000762	0.149134
O10	O	-1.218848	0.196557	0.315803
C11	C	-1.041898	0.094964	0.162648
C12	C	-0.926232	0.082843	0.159206
C13	C	-0.770767	-0.040553	0.146801
C14	C	-0.879447	-0.029174	0.150034
C15	C	-0.864330	0.183487	0.165142
C16	C	-0.755650	0.172108	0.161908
C17	C	-0.708873	0.060084	0.152739
C18	C	-0.600191	0.048705	0.149514
C19	C	-0.585077	0.261366	0.164614
C20	C	-0.693756	0.272745	0.167847
N21	N	-1.212516	0.393682	0.177048
C22	C	-1.237582	0.137235	-0.033037
C23	C	-1.234141	0.149351	-0.148705
C24	C	-0.422622	0.137233	0.152008
C25	C	-0.538289	0.149350	0.155450
N26	N	-1.252012	-0.161481	0.137600
C27	C	-1.335060	0.669437	0.054573
C28	C	-1.326349	0.792219	0.063290
C29	C	-1.186379	0.762028	0.203195
C30	C	-1.195090	0.639247	0.194478
C31	C	-1.269434	0.592956	0.120165
C32	C	-1.278150	0.470173	0.111453
C33	C	-1.138175	0.439984	0.251352
C34	C	-1.129463	0.562766	0.260070
C35	C	-1.242788	-0.040558	-0.381156
C36	C	-1.239555	-0.029180	-0.489838
C37	C	-1.224435	0.183483	-0.474750
C38	C	-1.227667	0.172105	-0.366069
C39	C	-1.236846	0.060081	-0.319276
C40	C	-1.240086	0.048705	-0.210594
C41	C	-1.224958	0.261366	-0.195508
C42	C	-1.221725	0.272744	-0.304189
C43	C	-1.226939	0.094961	0.347693
C44	C	-1.230380	0.082837	0.463361
H45	H	-0.902437	0.274694	0.172595
H46	H	-0.731858	0.363952	0.175309
H47	H	-1.125842	0.799734	0.263692
Cl48	Cl	-1.217498	0.387892	-0.117710
H49	H	-1.247563	-0.042510	-0.172498
H50	H	-0.534670	0.343312	0.169454
H51	H	-1.338687	0.432485	0.050947
Cl52	Cl	-1.254342	-0.181381	-0.322329
H53	H	-1.244390	-0.111131	-0.540217
Cl54	Cl	-1.428530	0.611242	-0.038836
Cl55	Cl	-1.212866	0.324297	-0.533590
H56	H	-1.214248	0.363950	-0.342302
Cl57	Cl	-0.711956	-0.181380	0.135290
Cl58	Cl	-0.541385	-0.092123	0.137990
H59	H	-0.929838	-0.111123	0.145198
H60	H	-1.379787	0.854487	0.009877
Cl61	Cl	-1.036004	0.620968	0.353485
H62	H	-1.084740	0.377698	0.304765
