data_functionalizedCrystal
_audit_creation_method	'MofGen! by Chris Wilmer'
_symmetry_space_group_name_H-M	'P1'
_symmetry_Int_Tables_number	1
_symmetry_cell_setting	triclinic
loop_
_symmetry_equiv_pos_as_xyz
  x,y,z
_cell_length_a	14.853558
_cell_length_b	15.944493
_cell_length_c	13.330367
_cell_angle_alpha	90.001230
_cell_angle_beta	89.992972
_cell_angle_gamma	83.553089
loop_
_atom_site_label
_atom_site_type_symbol
_atom_site_fract_x
_atom_site_fract_y
_atom_site_fract_z
O1	O	1.196209	0.109630	-0.083398
O2	O	0.933728	0.122703	-0.083401
O3	O	1.072164	-0.006104	-0.083408
O4	O	1.057774	0.238437	-0.083391
O5	O	1.072144	-0.006107	0.083440
O6	O	0.933708	0.122700	0.083446
O7	O	1.196189	0.109627	0.083449
Cu8	Cu	1.064947	0.116163	0.098682
Cu9	Cu	1.064970	0.116167	-0.098634
O10	O	1.057754	0.238434	0.083456
C11	C	0.900130	0.122110	0.000022
C12	C	0.800049	0.120339	0.000020
C13	C	0.753041	0.119511	-0.090932
C14	C	0.753017	0.119497	0.090971
C15	C	0.658986	0.117829	0.090973
C16	C	0.611978	0.117000	0.000020
C17	C	0.659001	0.117840	-0.090933
C18	C	0.611957	0.116981	0.181925
C19	C	0.517921	0.115312	0.181930
C20	C	0.470910	0.114489	0.090977
C21	C	0.517939	0.115330	0.000019
C22	C	0.470931	0.114501	-0.090933
C23	C	0.517957	0.115347	-0.181892
C24	C	0.611991	0.117017	-0.181887
C25	C	0.376876	0.112819	0.090972
C26	C	0.376891	0.112830	-0.090934
C27	C	1.071565	-0.037401	0.000012
C28	C	1.069802	-0.130651	-0.000001
C29	C	1.151288	-0.366323	0.000019
C30	C	1.107356	-0.416937	-0.082245
C31	C	1.066535	-0.301376	0.000011
C32	C	1.107316	-0.416916	0.082253
C33	C	1.063385	-0.466289	0.000027
C34	C	1.022625	-0.350762	-0.082321
C35	C	1.022598	-0.350737	0.082251
C36	C	0.978603	-0.401319	-0.000033
C37	C	1.068352	-0.206374	0.000001
C38	C	1.061562	-0.561288	0.000030
C39	C	1.229787	0.110220	0.000024
C40	C	1.329868	0.111990	0.000019
C41	C	1.058352	0.269731	0.000035
C42	C	1.060115	0.362981	0.000041
N43	N	1.064937	0.116160	0.237464
N44	N	1.064988	0.116163	-0.237415
C45	C	1.003669	0.173180	0.710090
C46	C	1.126296	0.059147	0.710052
C47	C	1.126286	0.059144	0.605033
C48	C	1.064967	0.116161	0.552538
C49	C	1.003658	0.173181	0.605062
C50	C	1.187600	0.002132	0.552502
C51	C	1.187593	0.002128	0.447477
C52	C	1.126269	0.059141	0.394980
C53	C	1.064957	0.116162	0.447510
C54	C	1.003638	0.173179	0.395015
C55	C	0.942321	0.230197	0.447543
C56	C	0.942334	0.230194	0.552565
C57	C	1.126256	0.059144	0.289959
C58	C	1.003628	0.173180	0.289987
H59	H	0.791333	0.120203	-0.164988
H60	H	0.791298	0.120166	0.165020
O61	O	0.882724	0.285664	0.396700
C62	C	0.828589	0.335974	0.465574
H63	H	0.865545	0.336987	0.540434
H64	H	0.761626	0.308585	0.476748
C65	C	0.764597	0.425314	0.332642
C66	C	0.809991	0.426565	0.424585
H67	H	0.753121	0.481194	0.307357
H68	H	0.801066	0.391418	0.286239
H69	H	0.708800	0.402486	0.341967
H70	H	0.865791	0.449382	0.415257
H71	H	0.773531	0.460467	0.470985
H72	H	1.237529	-0.044286	0.595247
H73	H	0.650239	0.117649	0.255973
O74	O	1.238363	-0.347534	0.000104
C75	C	1.253888	-0.300742	0.086925
H76	H	1.202904	-0.313626	0.147363
H77	H	1.245790	-0.230549	0.068118
C78	C	1.413273	-0.311221	0.051295
C79	C	1.350659	-0.327050	0.125529
H80	H	1.472967	-0.327445	0.075107
H81	H	1.402814	-0.342742	-0.007200
H82	H	1.406514	-0.252726	0.035629
H83	H	1.357411	-0.385545	0.141185
H84	H	1.361122	-0.295539	0.184028
H85	H	0.338623	0.112160	-0.165000
O86	O	0.980056	-0.316283	0.165325
C87	C	1.024967	-0.350169	0.251894
H88	H	1.097876	-0.374695	0.232185
H89	H	0.988644	-0.404268	0.281909
C90	C	0.935058	-0.250852	0.356741
C91	C	1.024608	-0.280969	0.332536
H92	H	0.934833	-0.208168	0.406488
H93	H	0.904797	-0.228023	0.298419
H94	H	0.904798	-0.295941	0.381748
H95	H	1.054862	-0.235882	0.307519
H96	H	1.054874	-0.303788	0.390857
H97	H	0.479640	0.114622	0.255994
H98	H	0.338590	0.112138	0.165029
O99	O	1.150208	-0.451407	-0.165141
C100	C	1.241174	-0.433926	-0.164864
H101	H	1.262683	-0.420827	-0.084810
H102	H	1.248125	-0.376265	-0.213622
C103	C	1.275677	-0.526508	-0.305161
C104	C	1.302098	-0.510426	-0.206836
H105	H	1.313258	-0.573694	-0.331055
H106	H	1.214391	-0.538283	-0.305351
H107	H	1.281470	-0.478451	-0.345780
H108	H	1.296293	-0.558478	-0.166216
H109	H	1.363384	-0.498660	-0.206641
O110	O	1.185813	0.003646	0.760936
C111	C	1.171146	-0.079529	0.735299
H112	H	1.136398	-0.079483	0.659050
H113	H	1.126272	-0.105570	0.794414
C114	C	1.305363	-0.135329	0.824088
C115	C	1.262690	-0.135273	0.730434
H116	H	1.361830	-0.169716	0.821091
H117	H	1.315243	-0.079293	0.841364
H118	H	1.267958	-0.157028	0.873341
H119	H	1.300090	-0.113565	0.681186
H120	H	1.252819	-0.191308	0.713149
O121	O	0.980040	-0.316302	-0.165362
C122	C	0.982264	-0.228134	-0.164379
H123	H	1.041005	-0.212086	-0.115616
H124	H	0.915849	-0.196154	-0.132588
C125	C	0.922911	-0.216413	-0.332013
C126	C	0.995063	-0.196703	-0.272128
H127	H	0.930802	-0.197023	-0.398477
H128	H	0.921409	-0.275812	-0.332674
H129	H	0.867572	-0.189761	-0.305508
H130	H	1.050398	-0.223363	-0.298625
H131	H	0.996574	-0.137307	-0.271473
O132	O	1.247182	-0.053342	0.396612
C133	C	1.301321	-0.103650	0.465468
H134	H	1.264370	-0.104656	0.540343
H135	H	1.368286	-0.076264	0.476615
C136	C	1.365296	-0.193002	0.332517
C137	C	1.319910	-0.194244	0.424478
H138	H	1.376767	-0.248884	0.307232
H139	H	1.328825	-0.159108	0.286127
H140	H	1.421096	-0.170177	0.341819
H141	H	1.264107	-0.217059	0.415173
H142	H	1.356372	-0.228145	0.470866
H143	H	1.143118	-0.445810	0.151796
H144	H	0.905542	-0.416864	-0.000079
H145	H	0.953691	0.219607	0.247252
O146	O	0.882745	0.285464	0.603703
C147	C	0.827135	0.240384	0.664453
H148	H	0.863056	0.174712	0.680168
H149	H	0.760500	0.234569	0.624004
C150	C	0.763762	0.368367	0.744922
C151	C	0.807884	0.287710	0.764231
H152	H	0.751883	0.397561	0.806469
H153	H	0.801225	0.398739	0.703992
H154	H	0.708238	0.363510	0.711213
H155	H	0.863411	0.292568	0.797929
H156	H	0.770430	0.257339	0.805170
O157	O	0.472227	0.114690	-0.270214
C158	C	0.407585	0.186400	-0.275623
H159	H	0.428771	0.237708	-0.224006
H160	H	0.338633	0.168691	-0.251180
C161	C	0.375474	0.156329	-0.447675
C162	C	0.401500	0.219348	-0.384285
H163	H	0.371717	0.176651	-0.514703
H164	H	0.419022	0.108014	-0.444030
H165	H	0.318017	0.141577	-0.427293
H166	H	0.458961	0.234091	-0.404659
H167	H	0.357961	0.267666	-0.387935
O168	O	0.657527	0.117873	-0.270326
C169	C	0.595879	0.116767	-0.350606
H170	H	0.525105	0.142145	-0.323942
H171	H	0.595356	0.049257	-0.378586
C172	C	0.711774	0.141300	-0.469270
C173	C	0.624849	0.172477	-0.436523
H174	H	0.729645	0.175661	-0.522270
H175	H	0.753309	0.142042	-0.415184
H176	H	0.711327	0.085042	-0.492580
H177	H	0.625300	0.228730	-0.413202
H178	H	0.583315	0.171746	-0.490606
O179	O	0.944072	0.228449	0.761221
C180	C	0.888455	0.183366	0.821959
H181	H	0.924376	0.117696	0.837681
H182	H	0.821828	0.177547	0.781496
C183	C	0.825062	0.311348	0.902416
C184	C	0.869184	0.230693	0.921733
H185	H	0.813171	0.340542	0.963960
H186	H	0.862529	0.341722	0.861493
H187	H	0.769544	0.306487	0.868695
H188	H	0.924706	0.235554	0.955442
H189	H	0.831726	0.200320	0.962664
O190	O	1.185722	0.003658	0.238967
C191	C	1.171125	-0.079528	0.264637
H192	H	1.098957	-0.080078	0.293536
H193	H	1.221116	-0.104117	0.325573
C194	C	1.273774	-0.135762	0.135830
C195	C	1.185133	-0.136439	0.171317
H196	H	1.282419	-0.170869	0.078268
H197	H	1.283612	-0.079719	0.118538
H198	H	1.315423	-0.156251	0.186619
H199	H	1.143487	-0.115940	0.120533
H200	H	1.175289	-0.192481	0.188599
