data_functionalizedCrystal
_audit_creation_method	'MofGen! by Chris Wilmer'
_symmetry_space_group_name_H-M	'P1'
_symmetry_Int_Tables_number	1
_symmetry_cell_setting	triclinic
loop_
_symmetry_equiv_pos_as_xyz
  x,y,z
_cell_length_a	12.837939
_cell_length_b	18.266242
_cell_length_c	12.811415
_cell_angle_alpha	95.437182
_cell_angle_beta	90.588266
_cell_angle_gamma	89.991934
loop_
_atom_site_label
_atom_site_type_symbol
_atom_site_fract_x
_atom_site_fract_y
_atom_site_fract_z
O1	O	-1.376641	0.078995	0.272977
O2	O	-0.876641	0.578995	0.772977
O3	O	-1.074777	0.078103	0.259493
O4	O	-0.574777	0.578103	0.759493
O5	O	-1.233302	0.068452	0.114202
O6	O	-0.733302	0.568452	0.614202
O7	O	-1.218117	0.088646	0.418269
O8	O	-0.718117	0.588646	0.918269
O9	O	-1.233275	-0.053311	0.114191
O10	O	-0.733275	0.446689	0.614191
O11	O	-1.074750	-0.043660	0.259482
O12	O	-0.574750	0.456340	0.759482
O13	O	-1.376614	-0.042768	0.272966
O14	O	-0.876614	0.457232	0.772966
Zn15	Zn	-1.225678	-0.062547	0.266223
Zn16	Zn	-0.725678	0.437453	0.766223
Zn17	Zn	-1.225714	0.097881	0.266237
Zn18	Zn	-0.725714	0.597881	0.766237
O19	O	-1.218089	-0.033117	0.418258
O20	O	-0.718089	0.466883	0.918258
C21	C	-1.036123	0.016919	0.254933
C22	C	-0.536123	0.516919	0.754933
C23	C	-0.920988	0.016018	0.241347
C24	C	-0.420988	0.516018	0.741347
C25	C	-0.680735	0.026854	0.404678
C26	C	-0.180735	0.526854	0.904678
C27	C	-0.572554	0.026008	0.391918
C28	C	-0.072554	0.526008	0.891918
C29	C	-0.596442	0.013473	0.203067
C30	C	-0.096442	0.513473	0.703067
C31	C	-0.704623	0.014320	0.215827
C32	C	-0.204623	0.514320	0.715827
C33	C	-0.746766	0.021012	0.316636
C34	C	-0.246766	0.521012	0.816636
C35	C	-0.854949	0.021864	0.329395
C36	C	-0.354949	0.521864	0.829395
C37	C	-0.878835	0.009324	0.140545
C38	C	-0.378835	0.509324	0.640545
C39	C	-0.770654	0.008477	0.127785
C40	C	-0.270654	0.508477	0.627785
N41	N	-1.225661	-0.172034	0.266213
N42	N	-0.725661	0.327966	0.766213
C43	C	-1.295879	-0.214614	0.201915
C44	C	-0.795879	0.285386	0.701915
C45	C	-1.295886	-0.291259	0.201911
C46	C	-0.795886	0.208741	0.701911
C47	C	-1.225684	-0.325320	0.266223
C48	C	-0.725684	0.174680	0.766223
C49	C	-1.155453	-0.282731	0.330525
C50	C	-0.655453	0.217269	0.830525
C51	C	-1.155441	-0.206088	0.330520
C52	C	-0.655441	0.293912	0.830520
N53	N	-1.212886	-0.439570	0.357817
N54	N	-0.712886	0.060430	0.857817
N55	N	-1.212903	-0.512377	0.357820
N56	N	-0.712903	-0.012377	0.857820
C57	C	-1.225713	-0.556241	0.266242
C58	C	-0.725713	-0.056241	0.766242
N59	N	-1.238526	-0.524547	0.174660
N60	N	-0.738526	-0.024547	0.674660
N61	N	-1.238514	-0.451733	0.174659
N62	N	-0.738514	0.048267	0.674659
C63	C	-1.225689	-0.408426	0.266236
C64	C	-0.725689	0.091574	0.766236
C65	C	-1.295943	-0.681929	0.201934
C66	C	-0.795943	-0.181929	0.701934
C67	C	-1.295942	-0.758576	0.201927
C68	C	-0.795942	-0.258576	0.701927
C69	C	-1.155514	-0.750046	0.330551
C70	C	-0.655514	-0.250046	0.830551
C71	C	-1.155510	-0.673401	0.330548
C72	C	-0.655510	-0.173401	0.830548
C73	C	-1.225729	-0.639347	0.266241
C74	C	-0.725729	-0.139347	0.766241
C75	C	-0.415268	0.018416	0.277528
C76	C	0.084732	0.518416	0.777528
C77	C	-0.530404	0.019318	0.291115
C78	C	-0.030404	0.519318	0.791115
C79	C	-1.232437	0.004969	0.075007
C80	C	-0.732437	0.504969	0.575007
C81	C	-1.229887	-0.002781	-0.041767
C82	C	-0.729887	0.497219	0.458233
N83	N	-1.225738	0.207368	0.266239
N84	N	-0.725738	0.707368	0.766239
C85	C	-1.225106	0.115415	-0.261175
C86	C	-0.725106	0.615415	0.238825
C87	C	-1.222710	0.108136	-0.370894
C88	C	-0.722710	0.608136	0.129106
C89	C	-1.222692	-0.024617	-0.370926
C90	C	-0.722692	0.475383	0.129074
C91	C	-1.225088	-0.017338	-0.261207
C92	C	-0.725088	0.482662	0.238793
C93	C	-1.226296	0.052680	-0.206335
C94	C	-0.726296	0.552680	0.293665
C95	C	-1.228700	0.059958	-0.096614
C96	C	-0.728700	0.559958	0.403386
C97	C	-1.228674	-0.072795	-0.096648
C98	C	-0.728674	0.427205	0.403352
C99	C	-1.226278	-0.080074	-0.206367
C100	C	-0.726278	0.419926	0.293633
C101	C	-1.218955	0.030367	0.457453
C102	C	-0.718955	0.530367	0.957453
C103	C	-1.221505	0.038122	0.574226
C104	C	-0.721505	0.538122	1.074226
H105	H	-1.353054	-0.186890	0.149550
H106	H	-0.853054	0.313110	0.649550
O107	O	-1.229970	-0.140463	-0.037494
O108	O	-0.729970	0.359537	0.462506
H109	H	-1.228740	-0.190371	-0.094088
H110	H	-0.728740	0.309629	0.405912
H111	H	-1.098260	-0.171418	0.382880
H112	H	-0.598260	0.328582	0.882880
H113	H	-1.229687	0.116971	-0.051940
H114	H	-0.729687	0.616971	0.448060
O115	O	-0.725191	0.001261	0.019062
O116	O	-0.225191	0.501261	0.519062
H117	H	-0.751668	-0.051212	-0.023773
H118	H	-0.251668	0.448788	0.476227
O119	O	-1.079776	-0.627476	0.399911
O120	O	-0.579776	-0.127476	0.899911
H121	H	-1.029174	-0.595849	0.350632
H122	H	-0.529174	-0.095849	0.850632
O123	O	-1.079742	-0.319457	0.399908
O124	O	-0.579742	0.180543	0.899908
H125	H	-1.029158	-0.357670	0.350649
H126	H	-0.529158	0.142330	0.850649
O127	O	-1.224973	-0.155589	-0.265559
O128	O	-0.724973	0.344411	0.234441
H129	H	-1.226198	-0.197989	-0.208989
H130	H	-0.726198	0.302011	0.291011
H131	H	-0.562111	0.007965	0.120993
H132	H	-0.062111	0.507965	0.620993
O133	O	-0.950057	0.003014	0.045578
O134	O	-0.450057	0.503014	0.545578
H135	H	-0.935035	0.049477	-0.002138
H136	H	-0.435035	0.549477	0.497862
H137	H	-1.098351	-0.777778	0.382912
H138	H	-0.598351	-0.277778	0.882912
H139	H	-1.221737	0.159222	-0.415541
H140	H	-0.721737	0.659222	0.084459
H141	H	-1.221699	-0.081623	-0.415621
H142	H	-0.721699	0.418377	0.084379
O143	O	-1.226406	0.190931	-0.201984
O144	O	-0.726406	0.690931	0.298016
H145	H	-1.296547	0.221214	-0.225332
H146	H	-0.796547	0.721214	0.274668
O147	O	-0.900411	0.029071	0.438118
O148	O	-0.400411	0.529071	0.938118
H149	H	-0.836316	0.032981	0.497195
H150	H	-0.336316	0.532981	0.997195
H151	H	-0.715048	0.032304	0.486761
H152	H	-0.215048	0.532304	0.986761
H153	H	-1.353068	-0.325934	0.149550
H154	H	-0.853068	0.174066	0.649550
H155	H	-1.353119	-0.793246	0.149562
H156	H	-0.853119	-0.293246	0.649562
O157	O	-0.501331	0.032312	0.486875
O158	O	-0.001331	0.532312	0.986875
H159	H	-0.548814	0.037112	0.559113
H160	H	-0.048814	0.537112	1.059113
H161	H	-1.353117	-0.654202	0.149567
H162	H	-0.853117	-0.154202	0.649567
