data_functionalizedCrystal
_audit_creation_method	'MofGen! by Chris Wilmer'
_symmetry_space_group_name_H-M	'P1'
_symmetry_Int_Tables_number	1
_symmetry_cell_setting	triclinic
loop_
_symmetry_equiv_pos_as_xyz
  x,y,z
_cell_length_a	23.196402
_cell_length_b	23.196402
_cell_length_c	18.878441
_cell_angle_alpha	59.999218
_cell_angle_beta	89.997764
_cell_angle_gamma	60.003509
loop_
_atom_site_label
_atom_site_type_symbol
_atom_site_fract_x
_atom_site_fract_y
_atom_site_fract_z
Zr1	Zr	0.555431	0.630976	-0.092945
O2	O	0.463393	0.751239	-0.206043
O3	O	0.583637	0.510714	-0.058278
O4	O	0.583650	0.630977	-0.206052
O5	O	0.463379	0.630974	0.058301
O6	O	0.678521	0.630977	-0.206054
O7	O	0.463380	0.630976	-0.058269
O8	O	0.678498	0.415849	0.058285
O9	O	0.463403	0.846103	-0.206039
O10	O	0.666478	0.560179	-0.043491
O11	O	0.595677	0.560178	0.043507
O12	O	0.595692	0.701772	-0.130478
O13	O	0.524890	0.701771	-0.043480
Zr14	Zr	0.706738	0.630973	0.092968
Zr15	Zr	0.706739	0.630976	-0.092949
Zr16	Zr	0.555430	0.630974	0.092972
Zr17	Zr	0.555446	0.782273	-0.092938
Zr18	Zr	0.706723	0.479676	0.092961
O19	O	0.678532	0.751235	0.058301
O20	O	0.678533	0.751238	-0.206049
O21	O	0.463391	0.751236	0.058307
O22	O	0.798776	0.510711	0.206066
O23	O	0.798778	0.510714	-0.058284
O24	O	0.583636	0.510711	0.206072
O25	O	0.798790	0.630975	-0.058279
O26	O	0.678519	0.630972	0.206074
O27	O	0.583648	0.630972	0.206077
O28	O	0.798789	0.630974	0.058292
O29	O	0.583672	0.846102	-0.206042
O30	O	0.678497	0.415847	0.206065
O31	O	0.798767	0.415847	0.206061
O32	O	0.798767	0.415848	0.058282
O33	O	0.463402	0.846101	-0.058259
O34	O	0.583671	0.846101	-0.058263
O35	O	0.666477	0.560177	0.130500
O36	O	0.737279	0.560178	0.043503
O37	O	0.666492	0.701771	-0.043484
O38	O	0.595691	0.701770	0.043513
C39	C	0.631065	0.441725	0.000003
C40	C	0.631059	0.377495	-0.000000
C41	C	0.441821	0.630975	0.000017
C42	C	0.377587	0.630975	0.000018
C43	C	-0.085253	0.630983	0.064218
C44	C	-0.024895	0.630978	0.064225
C45	C	0.005287	0.630979	0.000005
C46	C	-0.024883	0.630966	-0.064215
C47	C	-0.085236	0.630963	-0.064215
C48	C	0.077157	0.678484	-0.078379
C49	C	0.137506	0.678492	-0.078379
C50	C	0.191435	0.630984	0.000005
C51	C	0.185003	0.583478	0.078395
C52	C	0.124651	0.583476	0.078394
C53	C	0.070729	0.630982	-0.000002
C54	C	0.287047	0.630986	0.064231
C55	C	0.347409	0.630975	0.064239
C56	C	0.347415	0.630971	-0.064208
C57	C	0.287059	0.630974	-0.064209
C58	C	0.256877	0.630985	0.000011
C59	C	0.683324	0.295066	0.064212
C60	C	0.683329	0.234705	0.064220
C61	C	0.631074	0.256779	0.000002
C62	C	0.578799	0.339223	-0.064216
C63	C	0.578792	0.399581	-0.064217
C64	C	0.614801	0.201193	-0.078380
C65	C	0.614813	0.140834	-0.078379
C66	C	0.631093	0.070618	0.000006
C67	C	0.647375	0.060758	0.078395
C68	C	0.647368	0.121116	0.078394
C69	C	0.631076	0.191337	-0.000003
C70	C	0.683366	-0.077265	0.064232
C71	C	0.683366	-0.137625	0.064241
C72	C	0.578839	-0.033104	-0.064202
C73	C	0.578837	0.027253	-0.064204
C74	C	0.631104	0.005167	0.000013
C75	C	0.820348	0.630974	0.000006
C76	C	0.884582	0.630974	0.000004
C77	C	0.631086	0.630977	-0.232542
C78	C	0.631086	0.630978	-0.311469
C79	C	0.631104	0.820225	0.000020
C80	C	0.631110	0.884454	0.000023
C81	C	0.683351	0.630979	-0.348550
C82	C	0.683354	0.630973	-0.422706
C83	C	0.631088	0.630972	-0.459782
C84	C	0.578820	0.630968	-0.422694
C85	C	0.578821	0.630968	-0.348536
C86	C	0.578820	0.630969	-0.577263
C87	C	0.578818	0.630970	-0.651427
C88	C	0.683353	0.630974	-0.651433
C89	C	0.683354	0.630974	-0.577275
C90	C	0.631085	0.630972	-0.540193
C91	C	0.631083	0.630972	0.232565
C92	C	0.631083	0.630971	0.311492
C93	C	0.820329	0.441724	-0.000003
C94	C	0.884556	0.377495	-0.000007
C95	C	0.631064	0.441722	0.232556
C96	C	0.631057	0.377492	0.311480
C97	C	0.820327	0.441722	0.232551
C98	C	0.884554	0.377491	0.311473
C99	C	0.441842	0.820228	-0.232528
C100	C	0.377615	0.884458	-0.311450
C101	C	0.441840	0.820225	0.000025
C102	C	0.377613	0.884455	0.000030
C103	C	0.631105	0.820227	-0.232534
C104	C	0.631112	0.884458	-0.311457
C105	C	0.877761	0.347332	-0.045427
C106	C	0.938104	0.286990	-0.045449
C107	C	1.005242	0.256807	-0.000045
C108	C	1.012035	0.286975	0.045376
C109	C	0.951693	0.347321	0.045392
C110	C	0.668011	0.347328	0.393961
C111	C	0.668001	0.286985	0.468125
C112	C	0.631042	0.256803	0.459806
C113	C	0.594084	0.286972	0.377317
C114	C	0.594089	0.347319	0.303155
C115	C	0.951680	0.347328	0.303124
C116	C	1.012034	0.286985	0.377272
C117	C	1.005261	0.256802	0.459769
C118	C	0.938128	0.286970	0.468116
C119	C	0.877775	0.347317	0.393969
C120	C	0.310489	0.914629	-0.303101
C121	C	0.250135	0.974991	-0.377249
C122	C	0.256908	1.005177	-0.459746
C123	C	0.324041	0.975004	-0.468093
C124	C	0.384394	0.914648	-0.393946
C125	C	0.384408	0.914624	0.045442
C126	C	0.324065	0.974983	0.045443
C127	C	0.256928	1.005168	0.000037
C128	C	0.250134	0.974997	-0.045380
C129	C	0.310476	0.914643	-0.045386
C130	C	0.668079	0.914621	-0.303111
C131	C	0.668099	0.974964	-0.377261
C132	C	0.631148	1.005148	-0.459756
C133	C	0.594181	0.974979	-0.468101
C134	C	0.594165	0.914632	-0.393952
H135	H	-0.109824	0.630989	0.116511
H136	H	0.195462	0.999583	-0.082349
C137	C	0.553566	1.008161	-0.558855
N138	N	0.522984	1.033147	-0.627212
C139	C	0.008286	0.631001	0.134860
N140	N	0.033274	0.631024	0.188059
H141	H	0.207799	1.054312	0.000049
C142	C	0.803938	0.380488	0.403168
N143	N	0.748325	0.405470	0.410103
C144	C	0.740851	0.630971	-0.692221
N145	N	0.784156	0.630972	-0.722948
H146	H	0.698100	0.262427	0.535284
C147	C	0.331554	1.008153	0.095416
N148	N	0.337197	1.033134	0.133058
C149	C	0.303021	0.881440	-0.212361
N150	N	0.297390	0.856451	-0.144018
C151	C	0.521326	0.630961	-0.692206
N152	N	0.478023	0.630953	-0.722919
H153	H	-0.109797	0.630955	-0.116507
C154	C	0.553435	0.253759	0.368181
N155	N	0.522822	0.228736	0.361303
C156	C	0.708735	0.881426	-0.212372
N157	N	0.739363	0.856423	-0.144030
C158	C	0.930615	0.253809	-0.095409
N159	N	0.924972	0.228816	-0.133036
C160	C	0.117581	0.531212	0.164620
N161	N	0.112260	0.491841	0.229566
C162	C	0.176296	1.008168	-0.368047
N163	N	0.120681	1.033156	-0.361114
H164	H	0.601537	0.258369	-0.142216
C165	C	0.708764	1.008143	-0.368062
N166	N	0.739392	1.033131	-0.361131
H167	H	0.536292	-0.015130	-0.116489
C168	C	0.596887	0.151694	-0.164610
N169	N	0.583378	0.159880	-0.229563
H170	H	0.329548	0.999590	-0.535271
H171	H	0.439049	0.890083	-0.400754
H172	H	0.536252	0.357192	-0.116502
C173	C	0.244323	0.531214	0.164624
N174	N	0.289005	0.491850	0.229570
H175	H	1.054370	0.207669	-0.000065
H176	H	0.536228	0.466702	-0.116506
C177	C	1.085893	0.253759	0.095323
N178	N	1.141525	0.228734	0.132949
H179	H	0.957236	0.371871	0.082383
C180	C	0.959148	0.380523	0.212384
N181	N	0.964779	0.405525	0.144040
C182	C	0.190511	1.071565	-0.541303
N183	N	0.140498	1.121565	-0.602728
C184	C	0.631171	1.071532	-0.541315
N185	N	0.631190	1.121535	-0.602742
H186	H	0.725910	0.630986	-0.318370
C187	C	0.458254	0.881435	0.095391
N188	N	0.513873	0.856445	0.133011
C189	C	0.803915	0.380527	-0.095384
N190	N	0.748296	0.405529	-0.133019
H191	H	0.304934	0.890081	-0.082364
C192	C	0.553485	0.881471	-0.403148
N193	N	0.522841	0.856498	-0.410080
H194	H	0.725910	0.630981	-0.547091
C195	C	1.085873	0.253803	0.368070
N196	N	1.141488	0.228809	0.361137
C197	C	1.071658	0.190413	0.541325
N198	N	1.121671	0.140405	0.602751
C199	C	0.631051	0.190412	0.541396
N200	N	0.631063	0.140403	0.602853
C201	C	0.740864	0.630945	-0.463474
N202	N	0.784189	0.630913	-0.494173
H203	H	0.262474	0.630991	0.116525
C204	C	0.380611	0.630975	-0.134853
N205	N	0.405617	0.630978	-0.188065
C206	C	0.380603	0.630960	0.134898
N207	N	0.405608	0.630941	0.188125
H208	H	0.262495	0.630971	-0.116501
H209	H	0.536259	0.630963	-0.547071
C210	C	0.553443	0.380483	0.212427
N211	N	0.522828	0.405459	0.144092
C212	C	0.740854	-0.101558	0.134878
N213	N	0.784154	-0.119857	0.188091
C214	C	0.017835	0.730756	-0.164613
N215	N	-0.026847	0.770128	-0.229562
C216	C	0.008322	0.630959	-0.134852
N217	N	0.033335	0.630949	-0.188055
C218	C	0.144576	0.730746	-0.164609
N219	N	0.149901	0.770104	-0.229561
C220	C	0.930689	0.253753	0.558871
N221	N	0.925088	0.228728	0.627230
H222	H	0.725883	0.277076	0.116503
H223	H	0.660624	0.113085	0.142221
C224	C	0.740828	0.144020	0.134860
N225	N	0.784138	0.075717	0.188065
H226	H	0.660627	0.003588	0.142223
H227	H	0.725926	-0.204746	0.116535
H228	H	0.536280	0.094373	-0.116497
C229	C	0.521332	0.630955	-0.463474
N230	N	0.478031	0.630945	-0.494188
H231	H	0.536262	0.630966	-0.318345
H232	H	0.698108	0.371895	0.400750
