data_functionalizedCrystal
_audit_creation_method	'MofGen! by Chris Wilmer'
_symmetry_space_group_name_H-M	'P1'
_symmetry_Int_Tables_number	1
_symmetry_cell_setting	triclinic
loop_
_symmetry_equiv_pos_as_xyz
  x,y,z
_cell_length_a	12.759401
_cell_length_b	11.169416
_cell_length_c	11.169409
_cell_angle_alpha	89.969126
_cell_angle_beta	90.019981
_cell_angle_gamma	89.989499
loop_
_atom_site_label
_atom_site_type_symbol
_atom_site_fract_x
_atom_site_fract_y
_atom_site_fract_z
Zn1	Zn	1.606303	0.477705	0.678560
Zn2	Zn	2.106303	0.977705	1.178560
Zn3	Zn	1.606206	0.678445	0.477882
Zn4	Zn	2.106206	1.178445	0.977882
Zn5	Zn	1.430600	0.477775	0.477894
Zn6	Zn	1.930600	0.977775	0.977894
Zn7	Zn	1.430607	0.678345	0.678526
Zn8	Zn	1.930607	1.178345	1.178526
O9	O	1.518429	0.578068	0.578216
O10	O	2.018429	1.078068	1.078216
O11	O	1.753311	0.504346	0.651949
O12	O	2.253311	1.004346	1.151949
O13	O	1.582868	0.651898	0.309934
O14	O	2.082868	1.151898	0.809934
O15	O	1.453945	0.309816	0.504532
O16	O	1.953945	0.809816	1.004532
O17	O	1.753240	0.651829	0.504512
O18	O	2.253240	1.151829	1.004512
O19	O	1.583033	0.309764	0.651960
O20	O	2.083033	0.809764	1.151960
O21	O	1.453851	0.504466	0.309942
O22	O	1.953851	1.004466	0.809942
O23	O	1.283580	0.504369	0.504499
O24	O	1.783580	1.004369	1.004499
O25	O	1.453956	0.651658	0.846481
O26	O	1.953956	1.151658	1.346481
O27	O	1.283585	0.651727	0.651903
O28	O	1.783585	1.151727	1.151903
O29	O	1.583039	0.504249	0.846505
O30	O	2.083039	1.004249	1.346505
O31	O	1.582874	0.846382	0.504479
O32	O	2.082874	1.346382	1.004479
O33	O	1.453862	0.846308	0.651891
O34	O	1.953862	1.346308	1.151891
C35	C	1.245461	0.578046	0.578199
C36	C	1.745461	1.078046	1.078199
C37	C	1.128685	0.578065	0.578221
C38	C	1.628685	1.078065	1.078221
C39	C	1.518387	0.889892	0.578206
C40	C	2.018387	1.389892	1.078206
C41	C	1.518465	1.023292	0.578243
C42	C	2.018465	1.523292	1.078243
C43	C	1.518509	0.577934	0.891258
C44	C	2.018509	1.077934	1.391258
C45	C	1.518544	0.577878	1.024658
C46	C	2.018544	1.077878	1.524658
C47	C	1.073853	0.654917	0.654847
C48	C	1.573853	1.154917	1.154847
C49	C	0.964129	0.654932	0.654860
C50	C	1.464129	1.154932	1.154860
C51	C	0.964078	0.501240	0.501610
C52	C	1.464078	1.001240	1.001610
C53	C	1.073800	0.501220	0.501604
C54	C	1.573800	1.001220	1.001604
C55	C	1.128737	0.731762	0.731464
C56	C	1.628737	1.231762	1.231464
C57	C	1.073905	0.808622	0.808095
C58	C	1.573905	1.308622	1.308095
C59	C	0.964181	0.808637	0.808108
C60	C	1.464181	1.308637	1.308108
C61	C	0.909289	0.731793	0.731490
C62	C	1.409289	1.231793	1.231490
C63	C	1.792462	0.578091	0.578233
C64	C	2.292462	1.078091	1.078233
C65	C	1.909239	0.578101	0.578240
C66	C	2.409239	1.078101	1.078240
C67	C	1.518499	0.265025	0.578251
C68	C	2.018499	0.765025	1.078251
C69	C	1.518529	0.131625	0.578266
C70	C	2.018529	0.631625	1.078266
C71	C	1.518409	0.578114	0.266391
C72	C	2.018409	1.078114	0.766391
C73	C	1.518578	0.577833	0.132991
C74	C	2.018578	1.077833	0.632991
H75	H	1.218080	0.731761	0.731459
H76	H	1.718080	1.231761	1.231459
H77	H	0.919540	0.871210	0.870514
H78	H	1.419540	1.371210	1.370514
C79	C	1.134281	0.893146	0.892364
C80	C	1.634281	1.393146	1.392364
H81	H	1.207481	0.882142	0.881374
H82	H	1.707481	1.382142	1.381374
H83	H	1.116335	0.875686	0.973037
H84	H	1.616335	1.375686	1.473037
H85	H	1.116284	0.973769	0.874649
H86	H	1.616284	1.473769	1.374649
C87	C	1.134120	0.416679	0.417323
C88	C	1.634120	0.916679	0.917323
H89	H	1.085720	0.370926	0.371684
H90	H	1.585720	0.870926	0.871684
H91	H	1.176936	0.364437	0.463329
H92	H	1.676936	0.864437	0.963329
H93	H	1.176906	0.462523	0.364944
H94	H	1.676906	0.962523	0.864944
H95	H	0.819944	0.731801	0.731517
H96	H	1.319944	1.231801	1.231517
C97	C	0.903700	0.416728	0.417331
C98	C	1.403700	0.916728	0.917331
H99	H	0.830500	0.427755	0.428302
H100	H	1.330500	0.927755	0.928302
H101	H	0.921687	0.336104	0.435027
H102	H	1.421687	0.836104	0.935027
H103	H	0.921653	0.434206	0.336657
H104	H	1.421653	0.934206	0.836657
