data_functionalizedCrystal
_audit_creation_method	'MofGen! by Chris Wilmer'
_symmetry_space_group_name_H-M	'P1'
_symmetry_Int_Tables_number	1
_symmetry_cell_setting	triclinic
loop_
_symmetry_equiv_pos_as_xyz
  x,y,z
_cell_length_a	10.686220
_cell_length_b	12.759399
_cell_length_c	10.685986
_cell_angle_alpha	94.406033
_cell_angle_beta	99.031303
_cell_angle_gamma	85.603075
loop_
_atom_site_label
_atom_site_type_symbol
_atom_site_fract_x
_atom_site_fract_y
_atom_site_fract_z
Zn1	Zn	1.885518	0.261255	-0.569045
Zn2	Zn	1.901647	0.449505	-0.356822
Zn3	Zn	1.689518	0.286368	-0.373077
Zn4	Zn	1.673244	0.449431	-0.585266
O5	O	1.787482	0.361640	-0.471052
O6	O	2.065272	0.275748	-0.527302
O7	O	1.887068	0.438406	-0.181360
O8	O	1.715578	0.136011	-0.399087
O9	O	2.077122	0.414055	-0.371382
O10	O	1.859578	0.117560	-0.543064
O11	O	1.731217	0.318550	-0.193302
O12	O	1.509745	0.318478	-0.414815
O13	O	1.687842	0.413927	-0.760732
O14	O	1.497789	0.438279	-0.570710
O15	O	1.843799	0.275675	-0.748815
O16	O	1.871289	0.596521	-0.387111
O17	O	1.703482	0.596466	-0.554948
C18	C	1.457713	0.381096	-0.496287
C19	C	1.316634	0.389443	-0.507113
C20	C	1.787402	0.634612	-0.471050
C21	C	1.787481	0.751382	-0.471083
C22	C	1.874940	0.806227	-0.383777
C23	C	1.875012	0.915944	-0.383818
C24	C	1.700156	0.915961	-0.558475
C25	C	1.700090	0.806246	-0.558439
C26	C	1.962331	0.751363	-0.296421
C27	C	2.049795	0.806208	-0.209107
C28	C	2.049868	0.915925	-0.209148
C29	C	1.962475	0.970796	-0.296503
C30	C	2.118538	0.342108	-0.445720
C31	C	2.259615	0.333785	-0.434924
C32	C	1.762206	0.341992	-0.802116
C33	C	1.751436	0.333619	-0.943195
C34	C	1.787588	1.087597	-0.471097
C35	C	1.787619	0.970814	-0.471160
C36	C	1.812732	0.381131	-0.141271
C37	C	1.823749	0.389194	-0.000174
H38	H	1.318727	0.279749	-0.364837
C39	C	1.656665	0.260691	-1.023100
N40	N	1.585281	0.205762	-1.083293
C41	C	1.236772	0.462455	-0.601799
N42	N	1.176619	0.517445	-0.673117
C43	C	1.962276	0.630670	-0.296385
N44	N	1.962238	0.539764	-0.296364
C45	C	2.145925	0.745847	-0.113025
N46	N	2.218330	0.700384	-0.040653
H47	H	1.893908	0.443173	-0.941019
H48	H	2.121094	0.960576	-0.138061
H49	H	1.962551	1.060134	-0.296538
H50	H	1.629004	0.960647	-0.629594
C51	C	1.603864	0.745915	-0.654463
N52	N	1.531380	0.700474	-0.726787
