data_functionalizedCrystal
_audit_creation_method	'MofGen! by Chris Wilmer'
_symmetry_space_group_name_H-M	'P1'
_symmetry_Int_Tables_number	1
_symmetry_cell_setting	triclinic
loop_
_symmetry_equiv_pos_as_xyz
  x,y,z
_cell_length_a	16.959455
_cell_length_b	19.121063
_cell_length_c	16.959447
_cell_angle_alpha	87.593376
_cell_angle_beta	90.014322
_cell_angle_gamma	92.465894
loop_
_atom_site_label
_atom_site_type_symbol
_atom_site_fract_x
_atom_site_fract_y
_atom_site_fract_z
Zn1	Zn	1.194915	-0.279656	0.460312
Zn2	Zn	1.694915	0.220344	0.960312
Zn3	Zn	1.189180	-0.397117	0.333763
Zn4	Zn	1.689180	0.102883	0.833763
Zn5	Zn	1.062742	-0.279678	0.328150
Zn6	Zn	1.562742	0.220322	0.828150
Zn7	Zn	1.057053	-0.397064	0.465899
Zn8	Zn	1.557053	0.102936	0.965899
O9	O	1.125973	-0.338379	0.397031
O10	O	1.625973	0.161621	0.897031
O11	O	1.304764	-0.295250	0.443535
O12	O	1.804764	0.204750	0.943535
O13	O	1.172389	-0.381570	0.222409
O14	O	1.672389	0.118430	0.722409
O15	O	1.085056	-0.181391	0.340995
O16	O	1.585056	0.318609	0.840995
O17	O	1.300551	-0.381548	0.350560
O18	O	1.800551	0.118452	0.850560
O19	O	1.182163	-0.181375	0.438093
O20	O	1.682163	0.318625	0.938093
O21	O	1.079495	-0.295288	0.218285
O22	O	1.579495	0.204712	0.718285
O23	O	0.951377	-0.295237	0.346412
O24	O	1.451377	0.204763	0.846412
O25	O	1.075360	-0.381459	0.575767
O26	O	1.575360	0.118541	1.075767
O27	O	0.947198	-0.381480	0.447615
O28	O	1.447198	0.118520	0.947615
O29	O	1.176646	-0.295199	0.571662
O30	O	1.676646	0.204801	1.071662
O31	O	1.166873	-0.495394	0.355978
O32	O	1.666873	0.004606	0.855978
O33	O	1.069800	-0.495356	0.453058
O34	O	1.569800	0.004644	0.953058
C35	C	0.920608	-0.338356	0.397012
C36	C	1.420608	0.161644	0.897012
C37	C	0.832751	-0.338363	0.397023
C38	C	1.332751	0.161637	0.897023
C39	C	0.463428	-0.293435	0.344438
C40	C	0.963428	0.206565	0.844438
C41	C	0.459118	-0.383380	0.449672
C42	C	0.959118	0.116620	0.949672
C43	C	0.541664	-0.383370	0.449666
C44	C	1.041664	0.116630	0.949666
C45	C	0.585096	-0.338393	0.397045
C46	C	1.085096	0.161607	0.897045
C47	C	0.545982	-0.293425	0.344430
C48	C	1.045982	0.206575	0.844430
C49	C	0.580784	-0.428342	0.502276
C50	C	1.080784	0.071658	1.002276
C51	C	0.663336	-0.428334	0.502272
C52	C	1.163336	0.071666	1.002272
C53	C	0.706770	-0.383353	0.449654
C54	C	1.206770	0.116647	0.949654
C55	C	0.667650	-0.338383	0.397037
C56	C	1.167650	0.161617	0.897037
C57	C	0.711082	-0.293405	0.344416
C58	C	1.211082	0.206595	0.844416
C59	C	0.671965	-0.248431	0.291802
C60	C	1.171965	0.251569	0.791802
C61	C	0.589416	-0.248444	0.291812
C62	C	1.089416	0.251556	0.791812
C63	C	0.789319	-0.383340	0.449644
C64	C	1.289319	0.116660	0.949644
C65	C	0.793636	-0.293395	0.344407
C66	C	1.293636	0.206605	0.844407
C67	C	1.117118	-0.520859	0.405750
C68	C	1.617118	-0.020859	0.905750
C69	C	1.113402	-0.598924	0.409507
C70	C	1.613402	-0.098924	0.909507
C71	C	1.162236	-0.635597	0.360769
C72	C	1.662236	-0.135597	0.860769
C73	C	1.158746	-0.708948	0.364307
C74	C	1.658746	-0.208948	0.864307
C75	C	1.106417	-0.745625	0.416579
C76	C	1.606417	-0.245625	0.916579
C77	C	1.057581	-0.708948	0.465322
C78	C	1.557581	-0.208948	0.965322
C79	C	1.061076	-0.635598	0.461787
C80	C	1.561076	-0.135598	0.961787
C81	C	1.093339	-0.967094	0.429780
C82	C	1.593339	-0.467094	0.929780
C83	C	1.089847	-1.040449	0.433309
C84	C	1.589847	-0.540449	0.933309
C85	C	1.191013	-1.040443	0.332295
C86	C	1.691013	-0.540443	0.832295
C87	C	1.194500	-0.967092	0.328762
C88	C	1.694500	-0.467092	0.828762
C89	C	1.145667	-0.930421	0.377508
C90	C	1.645667	-0.430421	0.877508
C91	C	1.102847	-0.820602	0.420195
C92	C	1.602847	-0.320602	0.920195
C93	C	1.149242	-0.855446	0.373896
C94	C	1.649242	-0.355446	0.873896
C95	C	1.332140	-0.338403	0.397051
C96	C	1.832140	0.161597	0.897051
C97	C	1.419996	-0.338413	0.397059
C98	C	1.919996	0.161587	0.897059
C99	C	1.126008	-0.338321	0.603196
C100	C	1.626008	0.161679	1.103196
C101	C	1.126024	-0.338296	0.691052
C102	C	1.626024	0.161704	1.191052
C103	C	1.134884	-0.155186	0.388295
C104	C	1.634884	0.344814	0.888295
C105	C	1.138681	-0.077121	0.384572
C106	C	1.638681	0.422879	0.884572
C107	C	1.125985	-0.338386	0.191665
C108	C	1.625985	0.161614	0.691665
C109	C	1.126133	-0.338213	0.103800
C110	C	1.626133	0.161787	0.603800
C111	C	1.073386	-0.383133	1.064664
C112	C	1.573386	0.116867	1.564664
C113	C	1.178857	-0.293311	1.060384
C114	C	1.678857	0.206689	1.560384
C115	C	1.178835	-0.293326	0.977839
C116	C	1.678835	0.206674	1.477839
C117	C	1.126089	-0.338246	0.938703
C118	C	1.626089	0.161754	1.438703
C119	C	1.073365	-0.383151	0.982111
C120	C	1.573365	0.116849	1.482111
C121	C	1.231564	-0.248426	0.934425
C122	C	1.731564	0.251574	1.434425
C123	C	1.231545	-0.248440	0.851875
C124	C	1.731545	0.251560	1.351875
C125	C	1.178794	-0.293357	0.812736
C126	C	1.678794	0.206643	1.312736
C127	C	1.126067	-0.338263	0.856150
C128	C	1.626067	0.161737	1.356150
C129	C	1.073321	-0.383183	0.817013
C130	C	1.573321	0.116817	1.317013
C131	C	1.020590	-0.428087	0.860425
C132	C	1.520590	0.071913	1.360425
C133	C	1.020614	-0.428068	0.942973
C134	C	1.520614	0.071932	1.442973
C135	C	1.178770	-0.293376	0.730189
C136	C	1.678770	0.206624	1.230189
C137	C	1.073299	-0.383201	0.734460
C138	C	1.573299	0.116799	1.234460
H139	H	0.557559	-0.211829	0.248975
H140	H	1.057559	0.288171	0.748975
C141	C	1.252067	-0.926752	0.271268
C142	C	1.752067	-0.426752	0.771268
H143	H	1.280657	-0.959099	0.242753
H144	H	1.780657	-0.459099	0.742753
H145	H	1.223216	-0.898180	0.235425
H146	H	1.723216	-0.398180	0.735425
H147	H	1.287854	-0.898097	0.300163
H148	H	1.787854	-0.398097	0.800163
C149	C	0.719745	-0.198959	0.233923
C150	C	1.219745	0.301041	0.733923
H151	H	0.774510	-0.205396	0.241459
H152	H	1.274510	0.294604	0.741459
H153	H	0.705705	-0.209175	0.181284
H154	H	1.205705	0.290825	0.681284
H155	H	0.708509	-0.151780	0.243333
H156	H	1.208509	0.348220	0.743333
C157	C	0.533018	-0.477735	0.560239
C158	C	1.033018	0.022265	1.060239
H159	H	0.568136	-0.504498	0.591592
H160	H	1.068136	-0.004498	1.091592
H161	H	0.502176	-0.450834	0.593416
H162	H	1.002176	0.049166	1.093416
H163	H	0.499277	-0.508334	0.531489
H164	H	0.999277	-0.008334	1.031489
H165	H	0.695178	-0.464954	0.545114
H166	H	1.195178	0.035046	1.045114
C167	C	0.420404	-0.243970	0.286565
C168	C	0.920404	0.256030	0.786565
H169	H	0.365019	-0.250417	0.294101
H170	H	0.865019	0.249583	0.794101
H171	H	0.436220	-0.196792	0.295962
H172	H	0.936220	0.303208	0.795962
H173	H	0.433419	-0.254196	0.233922
H174	H	0.933419	0.245804	0.733922
H175	H	1.221804	-0.256743	1.092255
H176	H	1.721804	0.243257	1.592255
H177	H	0.977647	-0.464664	0.828549
H178	H	1.477647	0.035336	1.328549
H179	H	0.423750	-0.420003	0.492509
H180	H	0.923750	0.079997	0.992509
H181	H	0.821164	-0.419959	0.492479
H182	H	1.321164	0.080041	0.992479
H183	H	1.053576	-0.937242	0.469470
H184	H	1.553576	-0.437242	0.969470
C185	C	1.032282	-1.080796	0.490808
C186	C	1.532282	-0.580796	0.990808
H187	H	1.037189	-1.129732	0.485921
H188	H	1.537189	-0.629732	0.985921
H189	H	1.044388	-1.068738	0.543348
H190	H	1.544388	-0.568738	1.043348
H191	H	0.979749	-1.068817	0.478610
H192	H	1.479749	-0.568817	0.978610
H193	H	1.198512	-0.738803	0.324619
H194	H	1.698512	-0.238803	0.824619
H195	H	1.230772	-1.070309	0.292611
H196	H	1.730772	-0.570309	0.792611
H197	H	0.977686	-0.464628	0.978326
H198	H	1.477686	0.035372	1.478326
C199	C	1.219800	-0.595258	0.303271
C200	C	1.719800	-0.095258	0.803271
H201	H	1.248389	-0.627607	0.274758
H202	H	1.748389	-0.127607	0.774758
H203	H	1.190951	-0.566686	0.267426
H204	H	1.690951	-0.066686	0.767426
H205	H	1.255588	-0.566602	0.332164
H206	H	1.755588	-0.066602	0.832164
C207	C	1.000019	-0.749291	0.522818
C208	C	1.500019	-0.249291	1.022818
H209	H	1.004924	-0.798228	0.517937
H210	H	1.504924	-0.298228	1.017937
H211	H	1.012124	-0.737229	0.575356
H212	H	1.512124	-0.237229	1.075356
H213	H	0.947487	-0.737311	0.510617
H214	H	1.447487	-0.237311	1.010617
H215	H	1.021311	-0.605740	0.501476
H216	H	1.521311	-0.105740	1.001476
H217	H	1.191851	-0.825581	0.331339
H218	H	1.691851	-0.325581	0.831339
C219	C	0.841409	-0.243919	0.286526
C220	C	1.341409	0.256081	0.786526
H221	H	0.896176	-0.250350	0.294057
H222	H	1.396176	0.249650	0.794057
H223	H	0.827366	-0.254136	0.233888
H224	H	1.327366	0.245864	0.733888
H225	H	0.830167	-0.196741	0.295938
H226	H	1.330167	0.303259	0.795938
H227	H	1.060239	-0.850473	0.462753
H228	H	1.560239	-0.350473	0.962753
C229	C	1.015288	-0.432624	0.691417
C230	C	1.515288	0.067376	1.191417
H231	H	0.983897	-0.459368	0.729095
H232	H	1.483897	0.040632	1.229095
H233	H	0.982145	-0.405771	0.657926
H234	H	1.482145	0.094229	1.157926
H235	H	1.044043	-0.463239	0.660682
H236	H	1.544043	0.036761	1.160682
C237	C	1.015389	-0.432525	1.112411
C238	C	1.515389	0.067475	1.612411
H239	H	1.022956	-0.426086	1.167180
H240	H	1.522956	0.073914	1.667180
H241	H	0.962777	-0.422245	1.098390
H242	H	1.462777	0.077755	1.598390
H243	H	1.024665	-0.479722	1.101130
H244	H	1.524665	0.020278	1.601130
C245	C	1.289569	-0.199010	0.977474
C246	C	1.789569	0.300990	1.477474
H247	H	1.282019	-0.205423	1.032854
H248	H	1.782019	0.294577	1.532854
H249	H	1.342179	-0.209289	0.964446
H250	H	1.842179	0.290711	1.464446
H251	H	1.280279	-0.151822	0.961693
H252	H	1.780279	0.348178	1.461693
C253	C	1.289539	-0.199043	0.804128
C254	C	1.789539	0.300957	1.304128
H255	H	1.320951	-0.172285	0.839260
H256	H	1.820951	0.327715	1.339260
H257	H	1.322664	-0.225916	0.773200
H258	H	1.822664	0.274084	1.273200
H259	H	1.260774	-0.168441	0.770475
H260	H	1.760774	0.331559	1.270475
C261	C	1.236762	-0.243985	0.682439
C262	C	1.736762	0.256015	1.182439
H263	H	1.268176	-0.217228	0.717570
H264	H	1.768176	0.282772	1.217570
H265	H	1.269885	-0.270860	0.651510
H266	H	1.769885	0.229140	1.151510
H267	H	1.207998	-0.213382	0.648786
H268	H	1.707998	0.286618	1.148786
