data_functionalizedCrystal
_audit_creation_method	'MofGen! by Chris Wilmer'
_symmetry_space_group_name_H-M	'P1'
_symmetry_Int_Tables_number	1
_symmetry_cell_setting	triclinic
loop_
_symmetry_equiv_pos_as_xyz
  x,y,z
_cell_length_a	17.699077
_cell_length_b	16.176319
_cell_length_c	10.654551
_cell_angle_alpha	90.005006
_cell_angle_beta	83.883002
_cell_angle_gamma	90.006860
loop_
_atom_site_label
_atom_site_type_symbol
_atom_site_fract_x
_atom_site_fract_y
_atom_site_fract_z
O1	O	1.005091	0.068732	0.158773
O2	O	0.784844	0.068736	0.179442
O3	O	0.900031	0.068732	-0.013720
O4	O	0.889904	0.068736	0.351936
O5	O	0.900015	-0.068761	-0.013733
O6	O	0.784828	-0.068757	0.179430
O7	O	1.005075	-0.068761	0.158761
Cu8	Cu	0.894950	-0.081313	0.169094
Cu9	Cu	0.894969	0.081288	0.169109
O10	O	0.889888	-0.068757	0.351923
C11	C	0.756634	-0.000010	0.178697
C12	C	0.672602	-0.000009	0.176479
C13	C	0.633119	-0.074957	0.175427
C14	C	0.554163	-0.074958	0.173323
C15	C	0.514691	-0.000010	0.172279
C16	C	0.554179	0.074945	0.173328
C17	C	0.633134	0.074945	0.175423
C18	C	0.235762	0.074946	0.164877
C19	C	0.156801	0.074940	0.162785
C20	C	0.156791	-0.074956	0.162777
C21	C	0.235746	-0.074956	0.164872
C22	C	0.275228	-0.000003	0.165913
C23	C	0.360841	-0.000003	0.168192
C24	C	0.429078	-0.000009	0.170009
N25	N	0.894942	-0.195678	0.169083
C26	C	0.945963	-0.238944	0.083586
C27	C	0.945967	-0.325491	0.083584
C28	C	0.894953	-0.368771	0.169088
C29	C	0.843927	-0.325499	0.254589
C30	C	0.843920	-0.238954	0.254584
C31	C	0.843953	-0.674527	0.254613
C32	C	0.843965	-0.761079	0.254614
C33	C	0.946000	-0.761065	0.083614
C34	C	0.945993	-0.674520	0.083608
C35	C	0.894964	-0.631255	0.169105
C36	C	0.894960	-0.537411	0.169103
C37	C	0.894961	-0.462614	0.169096
C38	C	1.033285	-0.000013	0.159506
C39	C	1.117318	-0.000009	0.161724
C40	C	0.899279	-0.000013	-0.060511
C41	C	0.897054	-0.000009	-0.199915
N42	N	0.894983	0.195654	0.169110
C43	C	0.896018	0.074939	-0.265394
C44	C	0.893921	0.074940	-0.396378
C45	C	0.893899	-0.074963	-0.396393
C46	C	0.895990	-0.074962	-0.265411
C47	C	0.890640	-0.000010	0.398714
C48	C	0.892865	-0.000008	0.538119
H49	H	0.522035	0.135969	0.172469
O50	O	0.896905	0.147771	-0.201805
C51	C	0.830973	0.193367	-0.219422
H52	H	0.784663	0.149506	-0.245344
H53	H	0.844555	0.240094	-0.298719
C54	C	0.860039	0.293176	-0.064695
C55	C	0.803159	0.239304	-0.096523
H56	H	0.842883	0.321516	0.011112
H57	H	0.904460	0.262459	-0.052829
H58	H	0.871352	0.332107	-0.130786
H59	H	0.791853	0.200368	-0.030441
H60	H	0.758734	0.270016	-0.108375
O61	O	0.995547	-0.197034	0.000406
C62	C	1.040591	-0.253785	-0.075036
H63	H	1.009558	-0.315484	-0.076383
H64	H	1.097026	-0.262973	-0.034379
C65	C	1.093595	-0.144239	-0.208894
C66	C	1.055477	-0.220017	-0.210556
H67	H	1.102781	-0.123408	-0.292487
H68	H	1.063250	-0.106004	-0.158065
H69	H	1.140619	-0.151906	-0.175006
H70	H	1.008450	-0.212347	-0.244428
H71	H	1.085814	-0.258250	-0.261394
O72	O	0.995429	-0.367552	0.000411
C73	C	0.954508	-0.417644	-0.076972
H74	H	0.894808	-0.391581	-0.078976
H75	H	0.950754	-0.483235	-0.037667
C76	C	1.068846	-0.450976	-0.209429
C77	C	0.995524	-0.418961	-0.211899
H78	H	1.094148	-0.451792	-0.292657
H79	H	1.096416	-0.417231	-0.157293
H80	H	1.065707	-0.505632	-0.176669
H81	H	0.998664	-0.364302	-0.244643
H82	H	0.967955	-0.452697	-0.264044
H83	H	0.893034	-0.135987	-0.449735
H84	H	0.665280	0.135976	0.176282
H85	H	0.267880	-0.135987	0.165728
H86	H	0.802405	-0.639308	0.324229
O87	O	0.892783	0.147723	-0.460011
C88	C	0.826148	0.152207	-0.521372
H89	H	0.781038	0.109678	-0.471819
H90	H	0.839350	0.132070	-0.623905
C91	C	0.851868	0.293987	-0.577692
C92	C	0.796461	0.241759	-0.516823
H93	H	0.833557	0.349227	-0.574893
H94	H	0.896763	0.290967	-0.536357
H95	H	0.862865	0.277197	-0.663131
H96	H	0.785472	0.258543	-0.431383
H97	H	0.751564	0.244784	-0.558144
H98	H	0.896829	-0.135998	-0.212095
H99	H	0.267899	0.135978	0.165721
O100	O	0.995529	-0.803004	0.000375
C101	C	0.982563	-0.781881	-0.123914
H102	H	0.953389	-0.719048	-0.123695
H103	H	0.944690	-0.830598	-0.162670
C104	C	1.094802	-0.855044	-0.207893
C105	C	1.058975	-0.777869	-0.207626
H106	H	1.141936	-0.852573	-0.259533
H107	H	1.103536	-0.869279	-0.124158
H108	H	1.063233	-0.895634	-0.240187
H109	H	1.090540	-0.737283	-0.175318
H110	H	1.050248	-0.763628	-0.291358
H111	H	0.522021	-0.135988	0.172445
O112	O	0.671346	-0.147837	0.176380
C113	C	0.619561	-0.213988	0.175028
H114	H	0.566207	-0.192013	0.133797
H115	H	0.603745	-0.237035	0.275511
C116	C	0.721957	-0.311789	0.144153
C117	C	0.656430	-0.284801	0.093503
H118	H	0.744700	-0.355471	0.093870
H119	H	0.756847	-0.267222	0.145069
H120	H	0.708769	-0.330988	0.227888
H121	H	0.669621	-0.265592	0.009776
H122	H	0.621544	-0.329366	0.092571
H123	H	0.802387	-0.360742	0.324203
O124	O	0.794298	-0.803086	0.337545
C125	C	0.719273	-0.781947	0.317292
H126	H	0.718383	-0.758162	0.216747
H127	H	0.697394	-0.731714	0.386943
C128	C	0.669171	-0.888057	0.460393
C129	C	0.668076	-0.858850	0.336898
H130	H	0.637589	-0.935492	0.472492
H131	H	0.719716	-0.902296	0.474042
H132	H	0.650940	-0.846188	0.518422
H133	H	0.686316	-0.900714	0.278872
H134	H	0.617533	-0.844619	0.323239
H135	H	0.124635	-0.135987	0.161923
H136	H	0.124665	0.135976	0.161935
O137	O	0.794333	-0.197050	0.337761
C138	C	0.749296	-0.253806	0.413210
H139	H	0.780337	-0.315491	0.414571
H140	H	0.692863	-0.263029	0.372551
C141	C	0.696273	-0.144256	0.547045
C142	C	0.734401	-0.220017	0.548724
H143	H	0.687082	-0.123413	0.630635
H144	H	0.726613	-0.106018	0.496211
H145	H	0.649250	-0.151952	0.513156
H146	H	0.781427	-0.212319	0.582597
H147	H	0.704069	-0.258253	0.599567
H148	H	0.987535	-0.639284	0.013988
