data_functionalizedCrystal
_audit_creation_method	'MofGen! by Chris Wilmer'
_symmetry_space_group_name_H-M	'P1'
_symmetry_Int_Tables_number	1
_symmetry_cell_setting	triclinic
loop_
_symmetry_equiv_pos_as_xyz
  x,y,z
_cell_length_a	10.686220
_cell_length_b	16.120484
_cell_length_c	10.686551
_cell_angle_alpha	91.292191
_cell_angle_beta	89.691918
_cell_angle_gamma	97.070967
loop_
_atom_site_label
_atom_site_type_symbol
_atom_site_fract_x
_atom_site_fract_y
_atom_site_fract_z
Zn1	Zn	1.957921	-0.203137	0.579045
Zn2	Zn	1.931025	-0.353948	0.381655
Zn3	Zn	1.730532	-0.224452	0.387111
Zn4	Zn	1.737575	-0.352260	0.607294
O5	O	1.839263	-0.283449	0.488776
O6	O	2.130476	-0.214929	0.538756
O7	O	1.890226	-0.346397	0.207623
O8	O	1.769004	-0.105021	0.403033
O9	O	2.110716	-0.325729	0.393734
O10	O	1.936065	-0.089361	0.544046
O11	O	1.742924	-0.251257	0.211631
O12	O	1.555343	-0.249619	0.430424
O13	O	1.781008	-0.322851	0.778303
O14	O	1.560518	-0.343519	0.592192
O15	O	1.942895	-0.213292	0.757549
O16	O	1.897056	-0.470327	0.421125
O17	O	1.754928	-0.469087	0.586902
C18	C	1.512264	-0.298700	0.514966
C19	C	1.372373	-0.305242	0.526202
C20	C	1.823874	-0.499938	0.506511
C21	C	1.817409	-0.592545	0.514131
C22	C	1.805615	-0.762098	0.528067
C23	C	1.873138	-0.803948	0.449488
C24	C	1.866576	-0.898293	0.457242
C25	C	1.812176	-0.667744	0.520315
C26	C	2.167539	-0.268140	0.462485
C27	C	2.307431	-0.261616	0.451281
C28	C	1.865737	-0.265505	0.814505
C29	C	1.877019	-0.257859	0.953311
C30	C	1.854749	-0.066112	0.470997
C31	C	1.861348	0.026504	0.463420
C32	C	1.812969	-0.301259	0.164304
C33	C	1.801948	-0.308660	0.025460
H34	H	1.320945	-0.347606	0.598938
O35	O	1.947869	-0.762046	0.362311
C36	C	2.022709	-0.628431	0.275077
C37	C	1.938014	-0.675787	0.373845
H38	H	2.014790	-0.558681	0.284386
H39	H	1.991325	-0.652044	0.177476
H40	H	2.124793	-0.639512	0.290307
H41	H	1.835908	-0.664727	0.358732
H42	H	1.969504	-0.652166	0.471411
O43	O	1.714815	-0.367492	0.972628
C44	C	1.494619	-0.420094	0.952875
C45	C	1.593164	-0.353425	1.012820
H46	H	1.396241	-0.408734	0.985326
H47	H	1.513895	-0.484873	0.982218
H48	H	1.500772	-0.415996	0.846616
H49	H	1.587067	-0.357446	1.119086
H50	H	1.573857	-0.288674	0.983377
H51	H	1.742882	-0.797121	0.601158
O52	O	1.963829	-0.198903	1.006361
C53	C	2.000623	-0.077615	1.143288
C54	C	1.902180	-0.144320	1.083272
H55	H	1.950820	-0.033478	1.205504
H56	H	2.055310	-0.040535	1.066696
H57	H	2.068637	-0.109493	1.202163
H58	H	1.834085	-0.112510	1.024407
H59	H	1.847586	-0.181395	1.159924
O60	O	1.368968	-0.211093	0.364609
C61	C	1.569180	-0.158350	0.273926
C62	C	1.499641	-0.215584	0.372157
H63	H	1.674839	-0.161976	0.279978
H64	H	1.550065	-0.091137	0.292557
H65	H	1.534096	-0.179614	0.176449
H66	H	1.534684	-0.194396	0.469673
H67	H	1.518756	-0.282786	0.353417
