data_functionalizedCrystal
_audit_creation_method	'MofGen! by Chris Wilmer'
_symmetry_space_group_name_H-M	'P1'
_symmetry_Int_Tables_number	1
_symmetry_cell_setting	triclinic
loop_
_symmetry_equiv_pos_as_xyz
  x,y,z
_cell_length_a	15.944551
_cell_length_b	14.853567
_cell_length_c	13.330367
_cell_angle_alpha	89.996055
_cell_angle_beta	89.995989
_cell_angle_gamma	96.433166
loop_
_atom_site_label
_atom_site_type_symbol
_atom_site_fract_x
_atom_site_fract_y
_atom_site_fract_z
O1	O	0.109653	-1.196229	0.083357
O2	O	0.609653	-0.696229	0.583357
O3	O	0.122716	-0.933752	0.083374
O4	O	0.622716	-0.433752	0.583374
O5	O	-0.006082	-1.072158	0.083356
O6	O	0.493918	-0.572158	0.583356
O7	O	0.238451	-1.057823	0.083375
O8	O	0.738451	-0.557823	0.583375
O9	O	-0.006062	-1.072137	-0.083491
O10	O	0.493938	-0.572137	0.416509
O11	O	0.122737	-0.933731	-0.083473
O12	O	0.622737	-0.433731	0.416527
O13	O	0.109673	-1.196207	-0.083491
O14	O	0.609673	-0.696207	0.416509
Cu15	Cu	0.116207	-1.064967	-0.098716
Cu16	Cu	0.616207	-0.564967	0.401284
Cu17	Cu	0.116183	-1.064992	0.098600
Cu18	Cu	0.616183	-0.564992	0.598600
O19	O	0.238472	-1.057802	-0.083472
O20	O	0.738472	-0.557802	0.416528
C21	C	0.122135	-0.900154	-0.000047
C22	C	0.622135	-0.400154	0.499953
C23	C	0.120361	-0.800072	-0.000041
C24	C	0.620361	-0.300072	0.499959
C25	C	-0.037367	-1.071552	-0.000068
C26	C	0.462633	-0.571552	0.499932
C27	C	-0.130615	-1.069768	-0.000068
C28	C	0.369385	-0.569768	0.499932
C29	C	0.110255	-1.229806	-0.000067
C30	C	0.610255	-0.729806	0.499933
C31	C	0.112029	-1.329887	-0.000067
C32	C	0.612029	-0.829887	0.499933
C33	C	-0.345572	-0.979713	-0.000049
C34	C	0.154428	-0.479713	0.499951
C35	C	-0.406532	-1.021521	-0.082317
C36	C	0.093468	-0.521521	0.417683
C37	C	-0.301344	-1.066541	-0.000060
C38	C	0.198656	-0.566541	0.499940
C39	C	-0.406536	-1.021563	0.082181
C40	C	0.093464	-0.521563	0.582181
C41	C	-0.466260	-1.063416	-0.000048
C42	C	0.033740	-0.563416	0.499952
C43	C	-0.361076	-1.108372	-0.082397
C44	C	0.138924	-0.608372	0.417603
C45	C	-0.361074	-1.108402	0.082175
C46	C	0.138926	-0.608402	0.582175
C47	C	-0.422017	-1.150273	-0.000113
C48	C	0.077983	-0.650273	0.499887
C49	C	-0.206340	-1.068338	-0.000068
C50	C	0.293660	-0.568338	0.499932
C51	C	-0.561263	-1.061626	-0.000048
C52	C	-0.061263	-0.561626	0.499952
C53	C	0.269756	-1.058407	-0.000046
C54	C	0.769756	-0.558407	0.499954
C55	C	0.363004	-1.060191	-0.000039
C56	C	0.863004	-0.560191	0.499961
N57	N	0.116224	-1.064956	-0.237498
N58	N	0.616224	-0.564956	0.262502
C59	C	0.036354	-0.387646	-0.000070
C60	C	0.536354	0.112354	0.499930
C61	C	0.189369	-0.366169	-0.000057
C62	C	0.689369	0.133831	0.499943
C63	C	0.191037	-0.460201	-0.000054
C64	C	0.691037	0.039799	0.499946
C65	C	0.115362	-0.517960	-0.000057
C66	C	0.615362	-0.017960	0.499943
C67	C	0.038019	-0.481687	-0.000064
C68	C	0.538019	0.018313	0.499936
C69	C	0.268379	-0.496480	-0.000037
C70	C	0.768379	0.003520	0.499963
C71	C	0.270050	-0.590517	-0.000033
C72	C	0.770050	-0.090517	0.499967
C73	C	0.194374	-0.648278	-0.000043
C74	C	0.694374	-0.148278	0.499957
C75	C	0.117028	-0.612000	-0.000051
C76	C	0.617028	-0.112000	0.499949
C77	C	0.041353	-0.669759	-0.000054
C78	C	0.541353	-0.169759	0.499946
C79	C	-0.035994	-0.633483	-0.000069
C80	C	0.464006	-0.133483	0.499931
C81	C	-0.037657	-0.539448	-0.000074
C82	C	0.462343	-0.039448	0.499926
C83	C	0.196036	-0.742313	-0.000038
C84	C	0.696036	-0.242313	0.499962
C85	C	0.043018	-0.763800	-0.000048
C86	C	0.543018	-0.263800	0.499952
C87	C	0.167206	-1.119682	-0.710110
C88	C	0.667206	-0.619682	-0.210110
C89	C	0.065126	-1.010330	-0.710100
C90	C	0.565126	-0.510330	-0.210100
C91	C	0.065139	-1.010316	-0.605081
C92	C	0.565139	-0.510316	-0.105081
C93	C	0.116185	-1.064988	-0.552572
C94	C	0.616185	-0.564988	-0.052572
C95	C	0.167218	-1.119673	-0.605082
C96	C	0.667218	-0.619673	-0.105082
C97	C	0.014100	-0.955640	-0.552564
C98	C	0.514100	-0.455640	-0.052564
C99	C	0.014111	-0.955625	-0.447539
C100	C	0.514111	-0.455625	0.052461
C101	C	0.065162	-1.010293	-0.395028
C102	C	0.565162	-0.510293	0.104972
C103	C	0.116198	-1.064979	-0.447544
C104	C	0.616198	-0.564979	0.052456
C105	C	0.167244	-1.119650	-0.395035
C106	C	0.667244	-0.619650	0.104965
C107	C	0.218285	-1.174332	-0.447549
C108	C	0.718285	-0.674332	0.052451
C109	C	0.218270	-1.174340	-0.552571
C110	C	0.718270	-0.674340	-0.052571
C111	C	0.065178	-1.010285	-0.290007
C112	C	0.565178	-0.510285	0.209993
C113	C	0.167257	-1.119641	-0.290007
C114	C	0.667257	-0.619641	0.209993
N115	N	0.116159	-1.065011	0.237381
N116	N	0.616159	-0.565011	0.737381
H117	H	-0.312344	-0.907643	-0.000126
H118	H	0.187656	-0.407643	0.499874
H119	H	-0.100629	-0.509903	-0.000110
H120	H	0.399371	-0.009903	0.499890
Br121	Br	-0.004105	-0.936101	-0.218742
Br122	Br	0.495895	-0.436101	0.281258
Br123	Br	0.371074	-0.418091	-0.000011
Br124	Br	0.871074	0.081909	0.499989
H125	H	0.259843	-1.218850	-0.404783
H126	H	0.759843	-0.718850	0.095217
H127	H	-0.340911	-1.145103	0.151725
H128	H	0.159089	-0.645103	0.651725
Br129	Br	-0.327683	-1.169522	-0.198447
Br130	Br	0.172317	-0.669522	0.301553
Br131	Br	0.375018	-0.639741	-0.000013
Br132	Br	0.875018	-0.139741	0.499987
Br133	Br	-0.004151	-0.936140	-0.781362
Br134	Br	0.495849	-0.436140	-0.281362
H135	H	0.259011	-0.771845	-0.000027
H136	H	0.759011	-0.271845	0.499973
Br137	Br	0.236546	-1.193834	-0.218753
Br138	Br	0.736546	-0.693834	0.281247
Br139	Br	0.287537	-1.248541	-0.623845
Br140	Br	0.787537	-0.748541	-0.123845
H141	H	-0.027450	-0.911099	-0.404791
H142	H	0.472550	-0.411099	0.095209
H143	H	-0.455095	-1.222407	-0.000165
H144	H	0.044905	-0.722407	0.499835
H145	H	-0.027466	-0.911137	-0.595324
H146	H	0.472534	-0.411137	-0.095324
Br147	Br	-0.440107	-0.960342	0.198094
Br148	Br	0.059893	-0.460342	0.698094
H149	H	-0.426673	-0.984788	-0.151864
H150	H	0.073327	-0.484788	0.348136
H151	H	-0.018607	-0.810822	-0.000054
H152	H	0.481393	-0.310822	0.499946
H153	H	0.208765	-1.164200	-0.752871
H154	H	0.708765	-0.664200	-0.252871
H155	H	-0.097609	-0.680523	-0.000065
H156	H	0.402391	-0.180523	0.499935
Br157	Br	-0.068612	-0.338419	-0.000099
Br158	Br	0.431388	0.161581	0.499901
Br159	Br	0.292066	-0.287782	-0.000034
Br160	Br	0.792066	0.212218	0.499966
