data_functionalizedCrystal
_audit_creation_method	'MofGen! by Chris Wilmer'
_symmetry_space_group_name_H-M	'P1'
_symmetry_Int_Tables_number	1
_symmetry_cell_setting	triclinic
loop_
_symmetry_equiv_pos_as_xyz
  x,y,z
_cell_length_a	14.908782
_cell_length_b	21.295417
_cell_length_c	21.295411
_cell_angle_alpha	89.978356
_cell_angle_beta	93.278219
_cell_angle_gamma	86.737741
loop_
_atom_site_label
_atom_site_type_symbol
_atom_site_fract_x
_atom_site_fract_y
_atom_site_fract_z
Zn1	Zn	1.379107	-0.306158	-0.300266
Zn2	Zn	1.629107	-0.056158	-0.050266
Zn3	Zn	1.879107	0.193842	0.199734
Zn4	Zn	2.129107	0.443842	0.449734
Zn5	Zn	1.378967	-0.411404	-0.194997
Zn6	Zn	1.628967	-0.161404	0.055003
Zn7	Zn	1.878967	0.088596	0.305003
Zn8	Zn	2.128967	0.338596	0.555003
Zn9	Zn	1.228239	-0.300089	-0.201098
Zn10	Zn	1.478239	-0.050089	0.048902
Zn11	Zn	1.728239	0.199911	0.298902
Zn12	Zn	1.978239	0.449911	0.548902
Zn13	Zn	1.228195	-0.405322	-0.306312
Zn14	Zn	1.478195	-0.155322	-0.056312
Zn15	Zn	1.728195	0.094678	0.193688
Zn16	Zn	1.978195	0.344678	0.443688
O17	O	1.303627	-0.355743	-0.250668
O18	O	1.553627	-0.105743	-0.000668
O19	O	1.803627	0.144257	0.249332
O20	O	2.053627	0.394257	0.499332
O21	O	1.505325	-0.325204	-0.281218
O22	O	1.755325	-0.075204	-0.031218
O23	O	2.005325	0.174796	0.218782
O24	O	2.255325	0.424796	0.468782
O25	O	1.358932	-0.396643	-0.107719
O26	O	1.608932	-0.146643	0.142281
O27	O	1.858932	0.103357	0.392281
O28	O	2.108932	0.353357	0.642281
O29	O	1.248329	-0.212808	-0.214276
O30	O	1.498329	0.037192	0.035724
O31	O	1.748329	0.287192	0.285724
O32	O	1.998329	0.537192	0.535724
O33	O	1.505222	-0.402528	-0.203877
O34	O	1.755222	-0.152528	0.046123
O35	O	2.005222	0.097472	0.296123
O36	O	2.255222	0.347472	0.546123
O37	O	1.359171	-0.217266	-0.287134
O38	O	1.609171	0.032734	-0.037134
O39	O	1.859171	0.282734	0.212866
O40	O	2.109171	0.532734	0.462866
O41	O	1.248194	-0.314861	-0.112201
O42	O	1.498194	-0.064861	0.137799
O43	O	1.748194	0.185139	0.387799
O44	O	1.998194	0.435139	0.637799
O45	O	1.101997	-0.308964	-0.220139
O46	O	1.351997	-0.058964	0.029861
O47	O	1.601997	0.191036	0.279861
O48	O	1.851997	0.441036	0.529861
O49	O	1.248254	-0.392162	-0.393598
O50	O	1.498254	-0.142162	-0.143598
O51	O	1.748254	0.107838	0.106402
O52	O	1.998254	0.357838	0.356402
O53	O	1.101965	-0.386278	-0.297439
O54	O	1.351965	-0.136278	-0.047439
O55	O	1.601965	0.113722	0.202561
O56	O	1.851965	0.363722	0.452561
O57	O	1.359128	-0.319307	-0.389156
O58	O	1.609128	-0.069307	-0.139156
O59	O	1.859128	0.180693	0.110844
O60	O	2.109128	0.430693	0.360844
O61	O	1.358890	-0.498683	-0.209740
O62	O	1.608890	-0.248683	0.040260
O63	O	1.858890	0.001317	0.290260
O64	O	2.108890	0.251317	0.540260
O65	O	1.248119	-0.494215	-0.291523
O66	O	1.498119	-0.244215	-0.041523
O67	O	1.748119	0.005785	0.208477
O68	O	1.998119	0.255785	0.458477
C69	C	1.069249	-0.346303	-0.260108
C70	C	1.319249	-0.096303	-0.010108
C71	C	1.569249	0.153697	0.239892
C72	C	1.819249	0.403697	0.489892
C73	C	0.968981	-0.342280	-0.264161
C74	C	1.218981	-0.092280	-0.014161
C75	C	1.468981	0.157720	0.235839
C76	C	1.718981	0.407720	0.485839
C77	C	1.303509	-0.519290	-0.250638
C78	C	1.553509	-0.269290	-0.000638
C79	C	1.803509	-0.019290	0.249362
C80	C	2.053509	0.230710	0.499362
C81	C	1.303541	-0.589260	-0.250643
C82	C	1.553541	-0.339260	-0.000643
C83	C	1.803541	-0.089260	0.249357
C84	C	2.053541	0.160740	0.499357
C85	C	0.780458	-0.415126	-0.191119
C86	C	1.030458	-0.165126	0.058881
C87	C	1.280458	0.084874	0.308881
C88	C	1.530458	0.334874	0.558881
C89	C	0.686247	-0.411348	-0.194925
C90	C	0.936247	-0.161348	0.055075
C91	C	1.186247	0.088652	0.305075
C92	C	1.436247	0.338652	0.555075
C93	C	0.686347	-0.330948	-0.275582
C94	C	0.936347	-0.080948	-0.025582
C95	C	1.186347	0.169052	0.224418
C96	C	1.436347	0.419052	0.474418
C97	C	0.780558	-0.334727	-0.271776
C98	C	1.030558	-0.084727	-0.021776
C99	C	1.280558	0.165273	0.228224
C100	C	1.530558	0.415273	0.478224
C101	C	0.827610	-0.376816	-0.229542
C102	C	1.077610	-0.126816	0.020458
C103	C	1.327610	0.123184	0.270458
C104	C	1.577610	0.373184	0.520458
C105	C	0.921822	-0.380591	-0.225733
C106	C	1.171822	-0.130591	0.024267
C107	C	1.421822	0.119409	0.274267
C108	C	1.671822	0.369409	0.524267
C109	C	0.921920	-0.300195	-0.306393
C110	C	1.171920	-0.050195	-0.056393
C111	C	1.421920	0.199805	0.193607
C112	C	1.671920	0.449805	0.443607
C113	C	0.827709	-0.296417	-0.310199
C114	C	1.077709	-0.046417	-0.060199
C115	C	1.327709	0.203583	0.189801
C116	C	1.577709	0.453583	0.439801
C117	C	1.361270	-0.624434	-0.208098
C118	C	1.611270	-0.374434	0.041902
C119	C	1.861270	-0.124434	0.291902
C120	C	2.111270	0.125566	0.541902
C121	C	1.361313	-0.690178	-0.208111
C122	C	1.611313	-0.440178	0.041889
C123	C	1.861313	-0.190178	0.291889
C124	C	2.111313	0.059822	0.541889
C125	C	1.303609	-0.720745	-0.250662
C126	C	1.553609	-0.470745	-0.000662
C127	C	1.803609	-0.220745	0.249338
C128	C	2.053609	0.029255	0.499338
C129	C	1.245875	-0.685562	-0.293215
C130	C	1.495875	-0.435562	-0.043215
C131	C	1.745875	-0.185562	0.206785
C132	C	1.995875	0.064438	0.456785
C133	C	1.245841	-0.619820	-0.293206
C134	C	1.495841	-0.369820	-0.043206
C135	C	1.745841	-0.119820	0.206794
C136	C	1.995841	0.130180	0.456794
N137	N	1.224695	-0.820837	-0.258639
N138	N	1.474695	-0.570837	-0.008639
N139	N	1.724695	-0.320837	0.241361
N140	N	1.974695	-0.070837	0.491361
N141	N	1.224730	-0.883290	-0.258644
N142	N	1.474730	-0.633290	-0.008644
N143	N	1.724730	-0.383290	0.241356
N144	N	1.974730	-0.133290	0.491356
C145	C	1.303710	-0.918824	-0.250694
C146	C	1.553710	-0.668824	-0.000694
C147	C	1.803710	-0.418824	0.249306
C148	C	2.053710	-0.168824	0.499306
N149	N	1.382656	-0.889545	-0.242726
N150	N	1.632656	-0.639545	0.007274
N151	N	1.882656	-0.389545	0.257274
N152	N	2.132656	-0.139545	0.507274
N153	N	1.382619	-0.827087	-0.242718
N154	N	1.632619	-0.577087	0.007282
N155	N	1.882619	-0.327087	0.257282
N156	N	2.132619	-0.077087	0.507282
C157	C	1.303640	-0.792031	-0.250677
C158	C	1.553640	-0.542031	-0.000677
C159	C	1.803640	-0.292031	0.249323
C160	C	2.053640	-0.042031	0.499323
C161	C	1.361491	-1.025285	-0.208160
C162	C	1.611491	-0.775285	0.041840
C163	C	1.861491	-0.525285	0.291840
C164	C	2.111491	-0.275285	0.541840
C165	C	1.361534	-1.091031	-0.208177
C166	C	1.611534	-0.841031	0.041823
C167	C	1.861534	-0.591031	0.291823
C168	C	2.111534	-0.341031	0.541823
C169	C	1.246089	-1.086414	-0.293279
C170	C	1.496089	-0.836414	-0.043279
C171	C	1.746089	-0.586414	0.206721
C172	C	1.996089	-0.336414	0.456721
C173	C	1.246053	-1.020670	-0.293265
C174	C	1.496053	-0.770670	-0.043265
C175	C	1.746053	-0.520670	0.206735
C176	C	1.996053	-0.270670	0.456735
C177	C	1.303753	-0.990110	-0.250702
C178	C	1.553753	-0.740110	-0.000702
C179	C	1.803753	-0.490110	0.249298
C180	C	2.053753	-0.240110	0.499298
C181	C	1.538920	-0.365221	-0.241193
C182	C	1.788920	-0.115221	0.008807
C183	C	2.038920	0.134779	0.258807
C184	C	2.288920	0.384779	0.508807
C185	C	1.639188	-0.369260	-0.237155
C186	C	1.889188	-0.119260	0.012845
C187	C	2.139188	0.130740	0.262845
C188	C	2.389188	0.380740	0.512845
C189	C	1.303702	-0.355733	-0.414856
C190	C	1.553702	-0.105733	-0.164856
C191	C	1.803702	0.144267	0.085144
C192	C	2.053702	0.394267	0.335144
C193	C	1.303734	-0.355729	-0.484823
C194	C	1.553734	-0.105729	-0.234823
C195	C	1.803734	0.144271	0.015177
C196	C	2.053734	0.394271	0.265177
C197	C	1.303770	-0.191559	-0.250711
C198	C	1.553770	0.058441	-0.000711
C199	C	1.803770	0.308441	0.249289
C200	C	2.053770	0.558441	0.499289
C201	C	1.303831	-0.121593	-0.250730
C202	C	1.553831	0.128407	-0.000730
C203	C	1.803831	0.378407	0.249270
C204	C	2.053831	0.628407	0.499270
C205	C	1.361463	-0.317791	-0.515377
C206	C	1.611463	-0.067791	-0.265377
C207	C	1.861463	0.182209	-0.015377
C208	C	2.111463	0.432209	0.234623
C209	C	1.361462	-0.317763	-0.581120
C210	C	1.611462	-0.067763	-0.331120
C211	C	1.861462	0.182237	-0.081120
C212	C	2.111462	0.432237	0.168880
C213	C	1.303741	-0.355686	-0.616305
C214	C	1.553741	-0.105686	-0.366305
C215	C	1.803741	0.144314	-0.116305
C216	C	2.053741	0.394314	0.133695
C217	C	1.246000	-0.393626	-0.585743
C218	C	1.496000	-0.143626	-0.335743
C219	C	1.746000	0.106374	-0.085743
C220	C	1.996000	0.356374	0.164257
C221	C	1.245997	-0.393647	-0.520002
C222	C	1.495997	-0.143647	-0.270002
C223	C	1.745997	0.106353	-0.020002
C224	C	1.995997	0.356353	0.229998
N225	N	1.296781	-0.410473	-0.719801
N226	N	1.546781	-0.160473	-0.469801
N227	N	1.796781	0.089527	-0.219801
N228	N	2.046781	0.339527	0.030199
N229	N	1.296790	-0.410451	-0.782252
N230	N	1.546790	-0.160451	-0.532252
N231	N	1.796790	0.089549	-0.282252
N232	N	2.046790	0.339549	-0.032252
C233	C	1.303747	-0.355622	-0.814379
C234	C	1.553747	-0.105622	-0.564379
C235	C	1.803747	0.144378	-0.314379
C236	C	2.053747	0.394378	-0.064379
N237	N	1.310712	-0.300815	-0.781696
N238	N	1.560712	-0.050815	-0.531696
N239	N	1.810712	0.199185	-0.281696
N240	N	2.060712	0.449185	-0.031696
N241	N	1.310708	-0.300838	-0.719239
N242	N	1.560708	-0.050838	-0.469239
N243	N	1.810708	0.199162	-0.219239
N244	N	2.060708	0.449162	0.030761
C245	C	1.303738	-0.355666	-0.687590
C246	C	1.553738	-0.105666	-0.437590
C247	C	1.803738	0.144334	-0.187590
C248	C	2.053738	0.394334	0.062410
C249	C	1.361478	-0.317651	-0.916220
C250	C	1.611478	-0.067651	-0.666220
C251	C	1.861478	0.182349	-0.416220
C252	C	2.111478	0.432349	-0.166220
C253	C	1.361470	-0.317622	-0.981964
C254	C	1.611470	-0.067622	-0.731964
C255	C	1.861470	0.182378	-0.481964
C256	C	2.111470	0.432378	-0.231964
C257	C	1.246013	-0.393491	-0.986585
C258	C	1.496013	-0.143491	-0.736585
C259	C	1.746013	0.106509	-0.486585
C260	C	1.996013	0.356509	-0.236585
C261	C	1.246016	-0.393514	-0.920842
C262	C	1.496016	-0.143514	-0.670842
C263	C	1.746016	0.106486	-0.420842
C264	C	1.996016	0.356486	-0.170842
C265	C	1.303753	-0.355595	-0.885664
C266	C	1.553753	-0.105595	-0.635664
C267	C	1.803753	0.144405	-0.385664
C268	C	2.053753	0.394405	-0.135664
C269	C	1.303604	-0.355710	-0.087118
C270	C	1.553604	-0.105710	0.162882
C271	C	1.803604	0.144290	0.412882
C272	C	2.053604	0.394290	0.662882
C273	C	1.303747	-0.355544	-0.017144
C274	C	1.553747	-0.105544	0.232856
C275	C	1.803747	0.144456	0.482856
C276	C	2.053747	0.394456	0.732856
H277	H	0.960131	-0.414861	-0.191343
H278	H	1.210131	-0.164861	0.058657
H279	H	1.460131	0.085139	0.308657
H280	H	1.710131	0.335139	0.558657
H281	H	1.199006	-0.424361	-1.015232
H282	H	1.449006	-0.174361	-0.765232
H283	H	1.699006	0.075639	-0.515232
H284	H	1.949006	0.325639	-0.265232
H285	H	1.199110	-1.111300	-0.327928
H286	H	1.449110	-0.861300	-0.077928
H287	H	1.699110	-0.611300	0.172072
H288	H	1.949110	-0.361300	0.422072
H289	H	0.789387	-0.262150	-0.344586
H290	H	1.039387	-0.012150	-0.094586
H291	H	1.289387	0.237850	0.155414
H292	H	1.539387	0.487850	0.405414
H293	H	0.647860	-0.442545	-0.163638
H294	H	0.897860	-0.192545	0.086362
H295	H	1.147860	0.057455	0.336362
H296	H	1.397860	0.307455	0.586362
H297	H	1.198830	-0.591180	-0.327852
H298	H	1.448830	-0.341180	-0.077852
H299	H	1.698830	-0.091180	0.172148
H300	H	1.948830	0.158820	0.422148
H301	H	1.408476	-0.286913	-0.486739
H302	H	1.658476	-0.036913	-0.236739
H303	H	1.908476	0.213087	0.013261
H304	H	2.158476	0.463087	0.263261
H305	H	1.199041	-0.992029	-0.327907
H306	H	1.449041	-0.742029	-0.077907
H307	H	1.699041	-0.492029	0.172093
H308	H	1.949041	-0.242029	0.422093
H309	H	1.408551	-1.119669	-0.173533
H310	H	1.658551	-0.869669	0.076467
H311	H	1.908551	-0.619669	0.326467
H312	H	2.158551	-0.369669	0.576467
H313	H	1.408476	-1.000403	-0.173505
H314	H	1.658476	-0.750403	0.076495
H315	H	1.908476	-0.500403	0.326495
H316	H	2.158476	-0.250403	0.576495
H317	H	1.408470	-0.286866	-0.606003
H318	H	1.658470	-0.036866	-0.356003
H319	H	1.908470	0.213134	-0.106003
H320	H	2.158470	0.463134	0.143997
H321	H	1.199012	-0.424411	-0.895965
H322	H	1.449012	-0.174411	-0.645965
H323	H	1.699012	0.075589	-0.395965
H324	H	1.949012	0.325589	-0.145965
H325	H	1.199000	-0.424500	-0.614395
H326	H	1.449000	-0.174500	-0.364395
H327	H	1.699000	0.075500	-0.114395
H328	H	1.949000	0.325500	0.135605
H329	H	1.198982	-0.424540	-0.495125
H330	H	1.448982	-0.174540	-0.245125
H331	H	1.698982	0.075460	0.004875
H332	H	1.948982	0.325460	0.254875
H333	H	0.960321	-0.268997	-0.337677
H334	H	1.210321	-0.018997	-0.087677
H335	H	1.460321	0.231003	0.162323
H336	H	1.710321	0.481003	0.412323
H337	H	1.408486	-0.286772	-0.887576
H338	H	1.658486	-0.036772	-0.637576
H339	H	1.908486	0.213228	-0.387576
H340	H	2.158486	0.463228	-0.137576
H341	H	1.408255	-0.599554	-0.173443
H342	H	1.658255	-0.349554	0.076557
H343	H	1.908255	-0.099554	0.326557
H344	H	2.158255	0.150446	0.576557
H345	H	1.408479	-0.286725	-1.006840
H346	H	1.658479	-0.036725	-0.756840
H347	H	1.908479	0.213275	-0.506840
H348	H	2.158479	0.463275	-0.256840
H349	H	1.408326	-0.718823	-0.173465
H350	H	1.658326	-0.468823	0.076535
H351	H	1.908326	-0.218823	0.326535
H352	H	2.158326	0.031177	0.576535
H353	H	0.818769	-0.449393	-0.156727
H354	H	1.068769	-0.199393	0.093273
H355	H	1.318769	0.050607	0.343273
H356	H	1.568769	0.300607	0.593273
H357	H	0.648021	-0.296686	-0.309972
H358	H	0.898021	-0.046686	-0.059972
H359	H	1.148021	0.203314	0.190028
H360	H	1.398021	0.453314	0.440028
H361	H	1.198894	-0.710454	-0.327862
H362	H	1.448894	-0.460454	-0.077862
H363	H	1.698894	-0.210454	0.172138
H364	H	1.948894	0.039546	0.422138
