data_functionalizedCrystal
_audit_creation_method	'MofGen! by Chris Wilmer'
_symmetry_space_group_name_H-M	'P1'
_symmetry_Int_Tables_number	1
_symmetry_cell_setting	triclinic
loop_
_symmetry_equiv_pos_as_xyz
  x,y,z
_cell_length_a	17.640112
_cell_length_b	12.759400
_cell_length_c	12.759393
_cell_angle_alpha	90.025008
_cell_angle_beta	78.824614
_cell_angle_gamma	101.226899
loop_
_atom_site_label
_atom_site_type_symbol
_atom_site_fract_x
_atom_site_fract_y
_atom_site_fract_z
Zn1	Zn	1.208363	-0.093188	0.269873
Zn2	Zn	1.208309	-0.268921	0.094228
Zn3	Zn	1.076194	-0.128792	0.129668
Zn4	Zn	1.076212	-0.304370	0.305306
O5	O	1.142269	-0.198818	0.199769
O6	O	1.318952	-0.086763	0.216913
O7	O	1.190754	-0.250398	-0.048084
O8	O	1.093742	0.022956	0.148270
O9	O	1.318912	-0.215874	0.087867
O10	O	1.190845	0.049114	0.251278
O11	O	1.093690	-0.147445	-0.022046
O12	O	0.965600	-0.181819	0.182627
O13	O	1.093771	-0.276291	0.447619
O14	O	0.965613	-0.310815	0.311668
O15	O	1.190862	-0.121137	0.421587
O16	O	1.190771	-0.420649	0.122225
O17	O	1.093720	-0.446693	0.277303
C18	C	0.936930	-0.254028	0.254839
C19	C	0.849086	-0.277673	0.278423
C20	C	1.142263	-0.471787	0.199780
C21	C	1.142332	-0.588545	0.199801
C22	C	1.142325	-0.198697	0.473787
C23	C	1.142348	-0.198645	0.590558
C24	C	0.560032	-0.019174	0.020611
C25	C	0.477488	-0.041413	0.042786
C26	C	0.477556	-0.175922	0.176924
C27	C	0.560101	-0.153691	0.154764
C28	C	0.601333	-0.075317	0.076605
C29	C	0.601402	-0.209834	0.210758
C30	C	0.683940	-0.187608	0.188596
C31	C	0.725177	-0.109239	0.110439
C32	C	0.683871	-0.053091	0.054443
C33	C	0.560169	-0.288213	0.288911
C34	C	0.601470	-0.344355	0.344906
C35	C	0.684009	-0.322124	0.322749
C36	C	0.725247	-0.243756	0.244591
C37	C	0.725316	-0.378273	0.378744
C38	C	0.807854	-0.356047	0.356582
C39	C	0.807785	-0.221530	0.222429
C40	C	1.348410	-0.143393	0.144484
C41	C	1.436255	-0.119774	0.120925
C42	C	1.142298	0.075223	0.199775
C43	C	1.142310	0.192003	0.199777
C44	C	1.091761	0.233250	0.146150
C45	C	1.091770	0.342976	0.146164
C46	C	1.192883	0.370202	0.253435
C47	C	1.192869	0.260476	0.253426
C48	C	1.142260	-0.198850	-0.073196
C49	C	1.142389	-0.198565	-0.190007
C50	C	1.091825	-0.145021	0.658972
C51	C	1.091843	-0.144983	0.768692
C52	C	1.192915	-0.252196	0.741570
C53	C	1.192892	-0.252239	0.631854
H54	H	0.841358	-0.157694	0.158800
F55	F	0.433666	-0.259342	0.260093
H56	H	1.050608	0.376555	0.102498
F57	F	0.603918	0.064248	-0.062568
F58	F	1.246666	-0.309321	0.559038
F59	F	1.246667	0.216575	0.310515
F60	F	1.246705	-0.309229	0.785530
H61	H	1.234048	0.425963	0.297113
H62	H	1.050702	-0.101318	0.824391
F63	F	0.813023	-0.085589	0.086846
H64	H	1.050669	-0.101381	0.625353
F65	F	0.557580	-0.427775	0.428074
F66	F	0.727757	0.030331	-0.028736
H67	H	0.492961	-0.306306	0.306953
F68	F	0.433536	0.018342	-0.016823
H69	H	0.691733	-0.442092	0.442373
H70	H	1.050591	0.177501	0.102468
F71	F	0.851812	-0.415802	0.416175
