data_functionalizedCrystal
_audit_creation_method	'MofGen! by Chris Wilmer'
_symmetry_space_group_name_H-M	'P1'
_symmetry_Int_Tables_number	1
_symmetry_cell_setting	triclinic
loop_
_symmetry_equiv_pos_as_xyz
  x,y,z
_cell_length_a	14.971491
_cell_length_b	17.019294
_cell_length_c	14.048226
_cell_angle_alpha	86.114596
_cell_angle_beta	89.991693
_cell_angle_gamma	83.504855
loop_
_atom_site_label
_atom_site_type_symbol
_atom_site_fract_x
_atom_site_fract_y
_atom_site_fract_z
O1	O	1.186689	0.102820	-0.087628
O2	O	1.686689	0.602820	0.412372
O3	O	0.926258	0.115126	-0.088630
O4	O	1.426258	0.615126	0.411370
O5	O	1.063738	-0.005853	-0.078712
O6	O	1.563738	0.494147	0.421288
O7	O	1.049209	0.223799	-0.097546
O8	O	1.549209	0.723799	0.402454
O9	O	1.063722	-0.005860	0.079610
O10	O	1.563722	0.494140	0.579610
O11	O	0.926242	0.115119	0.069692
O12	O	1.426242	0.615119	0.569692
O13	O	1.186672	0.102813	0.070694
O14	O	1.686672	0.602813	0.570694
Zn15	Zn	1.056454	0.108965	0.095330
Zn16	Zn	1.556454	0.608965	0.595330
Zn17	Zn	1.056476	0.108974	-0.113266
Zn18	Zn	1.556476	0.608974	0.386734
O19	O	1.049192	0.223792	0.060776
O20	O	1.549192	0.723792	0.560776
C21	C	0.892927	0.114572	-0.009423
C22	C	1.392927	0.614572	0.490577
C23	C	0.793634	0.112920	-0.009284
C24	C	1.293634	0.612920	0.490716
C25	C	0.365955	0.105798	-0.095023
C26	C	0.865955	0.605798	0.404977
C27	C	0.459252	0.107347	-0.095147
C28	C	0.959252	0.607347	0.404853
C29	C	0.505887	0.108123	-0.008906
C30	C	1.005887	0.608123	0.491094
C31	C	0.459221	0.107342	0.077464
C32	C	0.959221	0.607342	0.577464
C33	C	0.365928	0.105787	0.077587
C34	C	0.865928	0.605787	0.577587
C35	C	0.653675	0.110585	0.077202
C36	C	1.153675	0.610585	0.577202
C37	C	0.746975	0.112141	0.077079
C38	C	1.246975	0.612141	0.577079
C39	C	0.746999	0.112145	-0.095532
C40	C	1.246999	0.612145	0.404468
C41	C	0.653705	0.110590	-0.095409
C42	C	1.153705	0.610590	0.404591
C43	C	0.607046	0.109810	-0.009039
C44	C	1.107046	0.609810	0.490961
C45	C	1.063179	-0.035246	0.002857
C46	C	1.563179	0.464754	0.502857
C47	C	1.061526	-0.122818	0.010033
C48	C	1.561526	0.377182	0.510033
C49	C	1.060760	-0.163952	-0.072896
C50	C	1.560760	0.336048	0.427104
C51	C	1.059201	-0.246234	-0.066151
C52	C	1.559201	0.253766	0.433849
C53	C	1.058414	-0.287383	0.023525
C54	C	1.558414	0.212617	0.523525
C55	C	1.059177	-0.246244	0.106460
C56	C	1.559177	0.253756	0.606460
C57	C	1.060730	-0.163962	0.099714
C58	C	1.560730	0.336038	0.599714
C59	C	1.053720	-0.535821	0.048212
C60	C	1.553720	-0.035821	0.548212
C61	C	1.052170	-0.618109	0.054952
C62	C	1.552170	-0.118109	0.554952
C63	C	1.052193	-0.618094	-0.117660
C64	C	1.552193	-0.118094	0.382340
C65	C	1.053751	-0.535811	-0.124398
C66	C	1.553751	-0.035811	0.375602
C67	C	1.054509	-0.494678	-0.041463
C68	C	1.554509	0.005322	0.458537
C69	C	1.056824	-0.371489	0.030422
C70	C	1.556824	0.128511	0.530422
C71	C	1.056093	-0.410572	-0.048361
C72	C	1.556093	0.089428	0.451639
C73	C	1.220004	0.103368	-0.008515
C74	C	1.720004	0.603368	0.491485
C75	C	1.319296	0.105019	-0.008660
C76	C	1.819296	0.605019	0.491340
C77	C	1.049752	0.253186	-0.020795
C78	C	1.549752	0.753186	0.479205
C79	C	1.051405	0.340758	-0.027977
C80	C	1.551405	0.840758	0.472023
N81	N	1.056446	0.108958	0.237691
N82	N	1.556446	0.608958	0.737691
N83	N	1.056492	0.108975	-0.255627
N84	N	1.556492	0.608975	0.244373
C85	C	1.117341	0.055411	0.291899
C86	C	1.617341	0.555411	0.791899
C87	C	1.117347	0.055410	0.391557
C88	C	1.617347	0.555410	0.891557
C89	C	1.056462	0.108962	0.437004
C90	C	1.556462	0.608962	0.937004
C91	C	0.995560	0.162512	0.382790
C92	C	1.495560	0.662512	0.882790
C93	C	0.995551	0.162508	0.283134
C94	C	1.495551	0.662508	0.783134
C95	C	0.995586	0.162517	0.590503
C96	C	1.495586	0.662517	1.090503
C97	C	0.995596	0.162523	0.690166
C98	C	1.495596	0.662523	1.190166
C99	C	1.117383	0.055420	0.698926
C100	C	1.617383	0.555420	1.198926
C101	C	1.117373	0.055416	0.599270
C102	C	1.617373	0.555416	1.099270
C103	C	1.056472	0.108967	0.545062
C104	C	1.556472	0.608967	1.045062
H105	H	0.784942	0.112777	0.147304
H106	H	1.284942	0.612777	0.647304
Br107	Br	0.590354	0.109514	0.194421
Br108	Br	1.090354	0.609514	0.694421
H109	H	0.945991	0.206122	0.546370
H110	H	1.445991	0.706122	1.046370
Br111	Br	1.058161	-0.302055	-0.178704
Br112	Br	1.558161	0.197945	0.321296
H113	H	0.784993	0.112781	-0.165858
H114	H	1.284993	0.612781	0.334142
Br115	Br	1.054825	-0.479972	-0.246106
Br116	Br	1.554825	0.020028	0.253894
H117	H	1.056728	-0.377065	-0.121375
H118	H	1.556728	0.122935	0.378625
H119	H	1.051525	-0.651610	0.127981
H120	H	1.551525	-0.151610	0.627981
H121	H	0.497200	0.107969	0.147683
H122	H	0.997200	0.607969	0.647683
H123	H	1.056186	-0.405002	0.103436
H124	H	1.556186	0.094998	0.603436
H125	H	0.945982	0.206112	0.419799
H126	H	1.445982	0.706112	0.919799
Br127	Br	0.522573	0.108397	-0.212359
Br128	Br	1.022573	0.608397	0.287641
Br129	Br	1.199983	-0.017265	0.230230
Br130	Br	1.699983	0.482735	0.730230
Br131	Br	0.302605	0.104719	0.194800
Br132	Br	0.802605	0.604719	0.694800
H133	H	1.058531	-0.279753	0.179476
H134	H	1.558531	0.220247	0.679476
H135	H	1.054355	-0.502343	0.115744
H136	H	1.554355	-0.002343	0.615744
H137	H	0.327991	0.105172	-0.165251
H138	H	0.827991	0.605172	0.334749
Br139	Br	0.912962	0.235203	0.751837
Br140	Br	1.412962	0.735203	1.251837
H141	H	0.615737	0.109964	-0.165634
H142	H	1.115737	0.609964	0.334366
H143	H	1.061406	-0.130455	-0.145920
H144	H	1.561406	0.369545	0.354080
H145	H	1.051574	-0.651593	-0.185181
H146	H	1.551574	-0.151593	0.314819
Br147	Br	1.061764	-0.108136	0.212266
Br148	Br	1.561764	0.391864	0.712266
Br149	Br	1.199989	-0.017265	0.465128
Br150	Br	1.699989	0.482735	0.965128
Br151	Br	1.200036	-0.017252	0.772496
Br152	Br	1.700036	0.482748	1.272496
Br153	Br	1.200011	-0.017254	0.537587
Br154	Br	1.700011	0.482746	1.037587
Br155	Br	0.912898	0.235177	0.209566
Br156	Br	1.412898	0.735177	0.709566
