data_functionalizedCrystal
_audit_creation_method	'MofGen! by Chris Wilmer'
_symmetry_space_group_name_H-M	'P1'
_symmetry_Int_Tables_number	1
_symmetry_cell_setting	triclinic
loop_
_symmetry_equiv_pos_as_xyz
  x,y,z
_cell_length_a	10.723024
_cell_length_b	14.185569
_cell_length_c	10.723024
_cell_angle_alpha	103.281270
_cell_angle_beta	84.467869
_cell_angle_gamma	76.717811
loop_
_atom_site_label
_atom_site_type_symbol
_atom_site_fract_x
_atom_site_fract_y
_atom_site_fract_z
O1	O	1.629126	0.083409	0.203075
O2	O	1.265973	0.083412	0.219830
O3	O	1.455927	0.083407	0.029875
O4	O	1.439172	0.083414	0.393030
O5	O	1.512042	-0.083430	-0.026233
O6	O	1.322087	-0.083424	0.163721
O7	O	1.685240	-0.083427	0.146967
Cu8	Cu	1.508787	-0.098659	0.150221
Cu9	Cu	1.442426	0.098644	0.216575
O10	O	1.495286	-0.083422	0.336922
C11	C	1.247530	-0.000006	0.190556
C12	C	1.108975	-0.000005	0.186909
C13	C	1.033992	-0.000002	0.293198
C14	C	0.890788	-0.000000	0.289431
N15	N	1.555472	-0.237432	0.103550
C16	C	1.258592	-0.605073	0.400301
C17	C	1.293964	-0.710096	0.364957
C18	C	1.462203	-0.710061	0.196815
C19	C	1.426842	-0.605037	0.232141
C20	C	1.325036	-0.552551	0.333886
C21	C	1.493286	-0.552515	0.165726
C22	C	1.457931	-0.447499	0.201054
C23	C	1.356133	-0.395006	0.302797
C24	C	1.289682	-0.447535	0.369214
C25	C	1.595097	-0.605002	0.063988
C26	C	1.661541	-0.552480	-0.002427
C27	C	1.626181	-0.447463	0.032895
C28	C	1.524382	-0.394969	0.134638
C29	C	1.692632	-0.394933	-0.033522
C30	C	1.657277	-0.289918	0.001806
C31	C	1.489028	-0.289954	0.169965
C32	C	1.703682	-0.000008	0.176241
C33	C	1.842235	-0.000002	0.179890
C34	C	1.482765	-0.000010	-0.044678
C35	C	1.479116	-0.000007	-0.183231
N36	N	1.395751	0.237416	0.263236
C37	C	1.585404	-0.000006	-0.258214
C38	C	1.581635	-0.000003	-0.401416
C39	C	1.468448	-0.000003	0.411476
C40	C	1.472094	0.000000	0.550031
H41	H	1.327352	-0.309495	0.331564
H42	H	0.906659	0.000002	0.088896
H43	H	1.067145	0.000019	0.093131
O44	O	1.697173	0.000126	-0.208139
C45	C	1.676797	0.086544	-0.104605
H46	H	1.568998	0.115352	-0.063471
H47	H	1.733683	0.067110	-0.025400
H48	H	1.711235	0.147048	-0.141220
H49	H	1.744436	-0.595226	-0.085266
O50	O	1.083680	-0.000043	0.405183
C51	C	0.986147	-0.000012	0.503288
H52	H	0.907987	-0.031597	0.457054
H53	H	1.030437	-0.048446	0.567366
H54	H	0.941150	0.080030	0.564775
O55	O	1.690285	-0.000178	-0.478281
C56	C	1.789319	-0.086571	-0.484057
H57	H	1.744182	-0.146966	-0.460373
H58	H	1.848219	-0.115572	-0.585784
H59	H	1.855638	-0.067036	-0.410689
H60	H	0.826353	0.000006	0.380423
H61	H	1.406118	-0.247218	0.252807
H62	H	1.206773	-0.404799	0.452055
O63	O	1.363505	0.000178	-0.373007
C64	C	1.329748	0.086569	-0.267792
H65	H	1.372793	0.146962	-0.294672
H66	H	1.219602	0.115575	-0.244137
H67	H	1.369550	0.067029	-0.179490
H68	H	1.175683	-0.562337	0.483143
H69	H	1.623883	-0.690513	0.035232
O70	O	1.229220	-0.761076	0.429356
C71	C	1.096884	-0.735417	0.416589
H72	H	1.085707	-0.706540	0.326386
H73	H	1.057636	-0.804493	0.407122
H74	H	1.040300	-0.674473	0.505930
O75	O	1.791365	-0.445973	-0.132489
C76	C	1.744343	-0.506755	-0.230505
H77	H	1.635267	-0.475127	-0.222876
H78	H	1.794810	-0.507946	-0.329631
H79	H	1.764928	-0.586343	-0.218269
O80	O	1.560992	-0.760944	0.097842
C81	C	1.530981	-0.735303	-0.017247
H82	H	1.457221	-0.659061	0.008123
H83	H	1.623032	-0.731698	-0.076652
H84	H	1.488423	-0.794415	-0.076277
O85	O	1.367191	-0.000136	-0.233009
C86	C	1.327979	-0.086555	-0.221922
H87	H	1.372325	-0.115368	-0.140989
H88	H	1.217667	-0.067120	-0.198346
H89	H	1.362237	-0.147056	-0.317464
O90	O	1.721693	-0.238899	-0.062844
C91	C	1.709055	-0.264522	-0.195216
H92	H	1.618895	-0.293436	-0.206522
H93	H	1.699596	-0.195419	-0.234407
H94	H	1.798453	-0.325427	-0.251758
