data_functionalizedCrystal
_audit_creation_method	'MofGen! by Chris Wilmer'
_symmetry_space_group_name_H-M	'P1'
_symmetry_Int_Tables_number	1
_symmetry_cell_setting	triclinic
loop_
_symmetry_equiv_pos_as_xyz
  x,y,z
_cell_length_a	14.853566
_cell_length_b	19.188924
_cell_length_c	13.330367
_cell_angle_alpha	89.993282
_cell_angle_beta	89.995295
_cell_angle_gamma	83.388189
loop_
_atom_site_label
_atom_site_type_symbol
_atom_site_fract_x
_atom_site_fract_y
_atom_site_fract_z
O1	O	1.195860	0.091151	-0.083362
O2	O	0.933339	0.102011	-0.083379
O3	O	1.072179	-0.005050	-0.083358
O4	O	1.057021	0.198212	-0.083383
O5	O	1.072159	-0.005052	0.083489
O6	O	0.933319	0.102009	0.083468
O7	O	1.195840	0.091149	0.083485
Cu8	Cu	1.064578	0.096578	0.098711
Cu9	Cu	1.064601	0.096581	-0.098605
O10	O	1.057001	0.198209	0.083464
C11	C	0.899743	0.101518	0.000042
C12	C	0.799668	0.100044	0.000036
C13	C	0.376529	0.093810	-0.090894
C14	C	0.376528	0.093808	0.091010
C15	C	0.470555	0.095192	0.091006
C16	C	0.517572	0.095887	0.000052
C17	C	0.470564	0.095197	-0.090900
C18	C	0.517569	0.095889	0.181956
C19	C	0.611601	0.097275	0.181956
C20	C	0.658621	0.097964	0.091001
C21	C	0.611607	0.097273	0.000046
C22	C	0.658624	0.097967	-0.090909
C23	C	0.611613	0.097272	-0.181865
C24	C	0.517584	0.095886	-0.181855
C25	C	0.752650	0.099349	0.090991
C26	C	0.752659	0.099354	-0.090915
C27	C	1.071679	-0.031064	0.000066
C28	C	1.070208	-0.108573	0.000069
C29	C	1.069533	-0.144973	-0.090880
C30	C	1.068139	-0.217800	-0.090888
C31	C	1.067438	-0.254227	0.000059
C32	C	1.068108	-0.217818	0.091019
C33	C	1.069493	-0.144991	0.091024
N34	N	1.116558	-0.373728	0.067751
N35	N	1.115244	-0.442910	0.067740
C36	C	1.063262	-0.473650	0.000049
N37	N	1.012655	-0.432595	-0.067646
N38	N	1.013973	-0.363406	-0.067638
C39	C	1.065935	-0.333195	0.000063
C40	C	1.061073	-0.589018	-0.090915
C41	C	1.059673	-0.661846	-0.090919
C42	C	1.059652	-0.661863	0.090991
C43	C	1.061043	-0.589035	0.090992
C44	C	1.061758	-0.552617	0.000037
C45	C	1.229436	0.091642	0.000061
C46	C	1.329511	0.093116	0.000061
C47	C	1.057500	0.224223	0.000038
C48	C	1.058971	0.301733	0.000028
N49	N	1.064568	0.096576	0.237493
N50	N	1.064619	0.096578	-0.237386
C51	C	1.003121	0.143969	0.710106
C52	C	1.126106	0.049188	0.710093
C53	C	1.126096	0.049186	0.605074
C54	C	1.064598	0.096577	0.552567
C55	C	1.003111	0.143970	0.605078
C56	C	1.187589	0.001798	0.552555
C57	C	1.187582	0.001795	0.447531
C58	C	1.126079	0.049183	0.395021
C59	C	1.064588	0.096577	0.447539
C60	C	1.003090	0.143968	0.395032
C61	C	0.941594	0.191360	0.447547
C62	C	0.941608	0.191358	0.552569
C63	C	1.126065	0.049185	0.290000
C64	C	1.003080	0.143969	0.290004
H65	H	0.479280	0.095329	0.256006
C66	C	1.140168	-0.514914	-0.196435
C67	C	1.061874	-0.548994	-0.190898
H68	H	1.140670	-0.490214	-0.258167
H69	H	1.140762	-0.482804	-0.142284
H70	H	1.192171	-0.548615	-0.192626
H71	H	1.009871	-0.515292	-0.194700
H72	H	1.061272	-0.581106	-0.245065
H73	H	0.649906	0.097842	-0.255920
C74	C	0.886983	0.233441	0.286555
C75	C	0.873997	0.243451	0.389824
H76	H	0.845249	0.265597	0.250918
H77	H	0.947110	0.241113	0.269345
H78	H	0.877383	0.186826	0.269364
H79	H	0.883604	0.290065	0.407016
H80	H	0.813856	0.235785	0.407041
H81	H	1.176180	0.010607	0.752847
C82	C	1.207524	-0.093190	0.670673
C83	C	1.255177	-0.050291	0.610280
H84	H	1.249251	-0.125352	0.706310
H85	H	1.170908	-0.064963	0.716964
H86	H	1.170107	-0.118357	0.629697
H87	H	1.292589	-0.025120	0.651257
H88	H	1.291809	-0.078522	0.563983
C89	C	0.820026	0.285040	0.542033
C90	C	0.874015	0.243447	0.610294
H91	H	0.778294	0.317193	0.577675
H92	H	0.857440	0.310212	0.501061
H93	H	0.787717	0.255922	0.501080
H94	H	0.906329	0.272564	0.651243
H95	H	0.836595	0.218273	0.651284
H96	H	1.070039	-0.115354	0.165088
C97	C	0.992437	-0.114856	-0.245903
C98	C	1.070266	-0.104981	-0.190893
H99	H	0.992875	-0.090173	-0.307655
H100	H	0.991536	-0.163443	-0.258853
H101	H	0.940117	-0.097635	-0.208514
H102	H	1.122586	-0.122207	-0.228279
H103	H	1.071175	-0.056384	-0.177946
C104	C	1.309146	-0.091899	0.458078
C105	C	1.255168	-0.050302	0.389811
H106	H	1.350864	-0.124065	0.422441
H107	H	1.341462	-0.062789	0.499020
H108	H	1.271716	-0.117062	0.499060
H109	H	1.292597	-0.025136	0.348833
H110	H	1.222849	-0.079416	0.348851
H111	H	0.479298	0.095319	-0.255907
C112	C	0.743200	0.099211	0.270794
C113	C	0.804326	0.100111	0.190959
H114	H	0.775105	0.099675	0.332512
H115	H	0.699494	0.139353	0.267007
H116	H	0.713556	0.057986	0.267011
H117	H	0.833965	0.141338	0.194737
H118	H	0.848048	0.059965	0.194748
C119	C	0.848030	0.160888	-0.196461
C120	C	0.804341	0.100118	-0.190895
H121	H	0.879940	0.161356	-0.258182
H122	H	0.804308	0.201020	-0.192690
H123	H	0.889483	0.161493	-0.142292
H124	H	0.762883	0.099515	-0.245061
H125	H	0.848068	0.059975	-0.194676
H126	H	0.953049	0.182553	0.752867
C127	C	0.989110	-0.291929	-0.196400
C128	C	1.067390	-0.257834	-0.190855
H129	H	0.988645	-0.316642	-0.258116
H130	H	0.988498	-0.324029	-0.142228
H131	H	0.937097	-0.258235	-0.192634
H132	H	1.119403	-0.291529	-0.194614
H133	H	1.068010	-0.225731	-0.245042
C134	C	0.281153	0.032280	0.196547
C135	C	0.324848	0.093047	0.190983
H136	H	0.249250	0.031810	0.258272
H137	H	0.239702	0.031677	0.142387
H138	H	0.324879	-0.007858	0.192770
H139	H	0.281122	0.133186	0.194752
H140	H	0.366303	0.093657	0.245157
H141	H	1.067535	-0.247481	0.165068
H142	H	0.338248	0.093241	-0.164948
H143	H	1.176138	0.010603	0.247246
H144	H	1.059119	-0.691481	-0.164983
C145	C	1.057484	-0.773501	0.171754
C146	C	1.058855	-0.701892	0.190962
H147	H	1.056987	-0.798213	0.233476
H148	H	1.004712	-0.780146	0.134368
H149	H	1.109833	-0.790710	0.134405
H150	H	1.006502	-0.684682	0.228305
H151	H	1.111633	-0.695242	0.228365
H152	H	1.061600	-0.559399	0.165053
H153	H	0.649870	0.097840	0.256018
H154	H	0.952997	0.182558	0.247259
