data_functionalizedCrystal
_audit_creation_method	'MofGen! by Chris Wilmer'
_symmetry_space_group_name_H-M	'P1'
_symmetry_Int_Tables_number	1
_symmetry_cell_setting	triclinic
loop_
_symmetry_equiv_pos_as_xyz
  x,y,z
_cell_length_a	19.077399
_cell_length_b	19.120786
_cell_length_c	19.076919
_cell_angle_alpha	89.730680
_cell_angle_beta	94.479523
_cell_angle_gamma	94.858661
loop_
_atom_site_label
_atom_site_type_symbol
_atom_site_fract_x
_atom_site_fract_y
_atom_site_fract_z
Zn1	Zn	1.051344	-0.251333	-0.345051
Zn2	Zn	1.551344	0.248667	0.154949
Zn3	Zn	1.051372	-0.363879	-0.222539
Zn4	Zn	1.551372	0.136121	0.277461
Zn5	Zn	0.938198	-0.251352	-0.231905
Zn6	Zn	1.438198	0.248648	0.268095
Zn7	Zn	0.928398	-0.373669	-0.344705
Zn8	Zn	1.428398	0.126331	0.155295
O9	O	0.992328	-0.310058	-0.286050
O10	O	1.492328	0.189942	0.213950
O11	O	1.150165	-0.262157	-0.325025
O12	O	1.650165	0.237843	0.174975
O13	O	1.040472	-0.344863	-0.125303
O14	O	1.540472	0.155137	0.374697
O15	O	0.957297	-0.153058	-0.250978
O16	O	1.457297	0.346942	0.249022
O17	O	1.150185	-0.344844	-0.235016
O18	O	1.650185	0.155156	0.264984
O19	O	1.040424	-0.153044	-0.334106
O20	O	1.540424	0.346956	0.165894
O21	O	0.957324	-0.262190	-0.132183
O22	O	1.457324	0.237810	0.367817
O23	O	0.838081	-0.271683	-0.250642
O24	O	1.338081	0.228317	0.249358
O25	O	0.940594	-0.361531	-0.443230
O26	O	1.440594	0.138469	0.056770
O27	O	0.830881	-0.361549	-0.333516
O28	O	1.330881	0.138451	0.166484
O29	O	1.030922	-0.271650	-0.443484
O30	O	1.530922	0.228350	0.056516
O31	O	1.030970	-0.463469	-0.234681
O32	O	1.530970	0.036531	0.265319
O33	O	0.940621	-0.470662	-0.324435
O34	O	1.440621	0.029338	0.175565
C35	C	0.808859	-0.317681	-0.293058
C36	C	1.308859	0.182319	0.206942
C37	C	0.730369	-0.320960	-0.296073
C38	C	1.230369	0.179040	0.203927
C39	C	0.697221	-0.275647	-0.254417
C40	C	1.197221	0.224353	0.245583
C41	C	0.623471	-0.278733	-0.257249
C42	C	1.123471	0.221267	0.242751
C43	C	0.582869	-0.327130	-0.301740
C44	C	1.082869	0.172870	0.198260
C45	C	0.616021	-0.372447	-0.343397
C46	C	1.116021	0.127553	0.156603
C47	C	0.689770	-0.369364	-0.340561
C48	C	1.189770	0.130636	0.159439
C49	C	0.361904	-0.341380	-0.314837
C50	C	0.861904	0.158620	0.185163
C51	C	0.288150	-0.344459	-0.317672
C52	C	0.788150	0.155541	0.182328
C53	C	0.295604	-0.250745	-0.231522
C54	C	0.795604	0.249255	0.268478
C55	C	0.369354	-0.247663	-0.228694
C56	C	0.869354	0.252337	0.271306
C57	C	0.402500	-0.292983	-0.270348
C58	C	0.902500	0.207017	0.229652
N59	N	0.507485	-0.330285	-0.304638
N60	N	1.007485	0.169715	0.195362
N61	N	0.477884	-0.289831	-0.267446
N62	N	0.977884	0.210169	0.232554
C63	C	0.984754	-0.492551	-0.278519
C64	C	1.484754	0.007449	0.221481
C65	C	0.981577	-0.570621	-0.275318
C66	C	1.481577	-0.070621	0.224682
C67	C	1.023329	-0.607233	-0.317132
C68	C	1.523329	-0.107233	0.182868
C69	C	1.020342	-0.680588	-0.314126
C70	C	1.520342	-0.180588	0.185874
C71	C	0.975604	-0.717329	-0.269301
C72	C	1.475604	-0.217329	0.230699
C73	C	0.933847	-0.680711	-0.227485
C74	C	1.433847	-0.180711	0.272515
C75	C	0.936832	-0.607358	-0.230495
C76	C	1.436832	-0.107358	0.269505
C77	C	0.964426	-0.938811	-0.258048
C78	C	1.464426	-0.438811	0.241952
C79	C	0.961446	-1.012169	-0.255039
C80	C	1.461446	-0.512169	0.244961
C81	C	1.047940	-1.012041	-0.341681
C82	C	1.547940	-0.512041	0.158319
C83	C	1.050924	-0.938686	-0.344685
C84	C	1.550924	-0.438686	0.155315
C85	C	1.009164	-0.902075	-0.302871
C86	C	1.509164	-0.402075	0.197129
C87	C	0.972551	-0.792309	-0.266226
C88	C	1.472551	-0.292309	0.233774
C89	C	1.012214	-0.827097	-0.305951
C90	C	1.512214	-0.327097	0.194049
C91	C	1.176514	-0.302407	-0.279015
C92	C	1.676514	0.197593	0.220985
C93	C	1.255002	-0.299146	-0.276016
C94	C	1.755002	0.200854	0.223984
C95	C	0.984662	-0.317680	-0.469605
C96	C	1.484662	0.182320	0.030395
C97	C	0.981395	-0.320928	-0.547826
C98	C	1.481395	0.179072	-0.047826
C99	C	0.999951	-0.126853	-0.293625
C100	C	1.499951	0.373147	0.206375
C101	C	1.003199	-0.048782	-0.296854
C102	C	1.503199	0.451218	0.203146
C103	C	1.026886	-0.275661	-0.584707
C104	C	1.526886	0.224339	-0.084707
C105	C	1.023808	-0.278710	-0.658204
C106	C	1.523808	0.221290	-0.158204
C107	C	0.975241	-0.327031	-0.694818
C108	C	1.475241	0.172969	-0.194818
C109	C	0.929745	-0.372301	-0.657931
C110	C	1.429745	0.127699	-0.157931
C111	C	0.932820	-0.369248	-0.584436
C112	C	1.432820	0.130752	-0.084436
C113	C	0.960998	-0.341178	-0.914610
C114	C	1.460998	0.158822	-0.414610
C115	C	0.957928	-0.344230	-0.988111
C116	C	1.457928	0.155770	-0.488111
C117	C	1.051990	-0.250638	-0.988379
C118	C	1.551990	0.249362	-0.488379
C119	C	1.055064	-0.247591	-0.914882
C120	C	1.555064	0.252409	-0.414882
C121	C	1.009565	-0.292859	-0.878002
C122	C	1.509565	0.207141	-0.378002
N123	N	0.972095	-0.330151	-0.769943
N124	N	1.472095	0.169849	-0.269943
N125	N	1.012708	-0.289735	-0.802878
N126	N	1.512708	0.210265	-0.302878
C127	C	1.000007	-0.302414	-0.103209
C128	C	1.500007	0.197586	0.396791
C129	C	1.003419	-0.298962	-0.024992
C130	C	1.503419	0.201038	0.475008
H131	H	0.255093	-0.383869	-0.353906
H132	H	0.755093	0.116131	0.146094
H133	H	0.930425	-0.909008	-0.224000
H134	H	1.430425	-0.409008	0.276000
H135	H	0.402408	-0.208258	-0.192459
H136	H	0.902408	0.291742	0.307541
H137	H	0.897418	-0.710631	-0.190991
H138	H	1.397418	-0.210631	0.309009
O139	O	0.910705	-0.391074	-1.023758
O140	O	1.410705	0.108926	-0.523758
C141	C	0.864978	-0.354735	-1.069650
C142	C	1.364978	0.145265	-0.569650
H143	H	0.891647	-0.300933	-1.081913
H144	H	1.391647	0.199067	-0.581913
H145	H	0.814156	-0.348005	-1.043640
H146	H	1.314156	0.151995	-0.543640
C147	C	0.814900	-0.462892	-1.123291
C148	C	1.314900	0.037108	-0.623291
C149	C	0.847658	-0.396813	-1.138357
C150	C	1.347658	0.103187	-0.638357
H151	H	0.804213	-0.488848	-1.165672
H152	H	1.304213	0.011152	-0.665672
H153	H	0.845705	-0.487375	-1.092371
H154	H	1.345705	0.012625	-0.592371
H155	H	0.772552	-0.457274	-1.101615
H156	H	1.272552	0.042726	-0.601615
H157	H	0.890009	-0.402431	-1.160025
H158	H	1.390009	0.097569	-0.660025
H159	H	0.816859	-0.372332	-1.169283
H160	H	1.316859	0.127668	-0.669283
O161	O	0.591385	-0.234642	-0.216764
O162	O	1.091385	0.265358	0.283236
C163	C	0.643035	-0.191274	-0.176878
C164	C	1.143035	0.308726	0.323122
H165	H	0.694507	-0.187887	-0.203786
H166	H	1.194507	0.312113	0.296214
H167	H	0.652041	-0.214359	-0.122028
H168	H	1.152041	0.285641	0.377972
C169	C	0.554541	-0.121449	-0.138007
C170	C	1.054541	0.378551	0.361993
C171	C	0.617758	-0.117285	-0.171059
C172	C	1.117758	0.382715	0.328941
H173	H	0.538949	-0.075810	-0.134414
H174	H	1.038949	0.424190	0.365586
H175	H	0.519743	-0.150669	-0.164877
H176	H	1.019743	0.349331	0.335123
H177	H	0.562054	-0.140690	-0.092302
H178	H	1.062054	0.359310	0.407698
H179	H	0.610242	-0.098053	-0.216766
H180	H	1.110242	0.401947	0.283234
H181	H	0.652555	-0.088061	-0.144197
H182	H	1.152555	0.411939	0.355803
H183	H	0.902831	-0.577549	-0.196447
H184	H	1.402831	-0.077549	0.303553
H185	H	1.048636	-0.797181	-0.342450
H186	H	1.548636	-0.297181	0.157550
O187	O	0.929059	-0.828084	-0.222774
O188	O	1.429059	-0.328084	0.277226
C189	C	0.880007	-0.874089	-0.262805
C190	C	1.380007	-0.374089	0.237195
H191	H	0.902190	-0.886211	-0.314763
H192	H	1.402190	-0.386211	0.185237
H193	H	0.828493	-0.848363	-0.273643
H194	H	1.328493	-0.348363	0.226357
C195	C	0.838801	-0.927832	-0.157892
C196	C	1.338801	-0.427832	0.342108
C197	C	0.866049	-0.942724	-0.221705
C198	C	1.366049	-0.442724	0.278295
H199	H	0.830188	-0.970168	-0.132539
H200	H	1.330188	-0.470168	0.367461
H201	H	0.871846	-0.896835	-0.130922
H202	H	1.371846	-0.396835	0.369078
H203	H	0.795876	-0.906392	-0.166933
H204	H	1.295876	-0.406392	0.333067
H205	H	0.908978	-0.964155	-0.212663
H206	H	1.408978	-0.464155	0.287337
H207	H	0.833011	-0.973726	-0.248673
H208	H	1.333011	-0.473726	0.251327
H209	H	0.730274	-0.236232	-0.218194
H210	H	1.230274	0.263768	0.281806
O211	O	0.263293	-0.206801	-0.191080
O212	O	0.763293	0.293199	0.308920
C213	C	0.189494	-0.219887	-0.203133
C214	C	0.689494	0.280113	0.296867
H215	H	0.176225	-0.275501	-0.224244
H216	H	0.676225	0.224499	0.275756
H217	H	0.168727	-0.180713	-0.243194
H218	H	0.668727	0.319287	0.256806
C219	C	0.171157	-0.143667	-0.107734
C220	C	0.671157	0.356333	0.392266
C221	C	0.154859	-0.211975	-0.133658
C222	C	0.654859	0.288025	0.366342
H223	H	0.149792	-0.138783	-0.064880
H224	H	0.649792	0.361217	0.435120
H225	H	0.220877	-0.134848	-0.099615
H226	H	0.720877	0.365152	0.400385
H227	H	0.153850	-0.111029	-0.141125
H228	H	0.653850	0.388971	0.358875
H229	H	0.172174	-0.244610	-0.100271
H230	H	0.672174	0.255390	0.399729
H231	H	0.105141	-0.220799	-0.141769
H232	H	0.605141	0.279201	0.358231
H233	H	0.388882	-0.378283	-0.348755
H234	H	0.888882	0.121717	0.151245
H235	H	0.716758	-0.406262	-0.374481
H236	H	1.216758	0.093738	0.125519
H237	H	1.054347	-0.710394	-0.348170
H238	H	1.554347	-0.210394	0.151830
O239	O	0.888735	-0.413249	-0.548520
O240	O	1.388735	0.086751	-0.048520
C241	C	0.928834	-0.455187	-0.502610
C242	C	1.428834	0.044813	-0.002610
H243	H	0.983840	-0.427732	-0.490591
H244	H	1.483840	0.072268	0.009409
H245	H	0.933240	-0.508096	-0.528482
H246	H	1.433240	-0.008096	-0.028482
C247	C	0.824820	-0.500334	-0.448511
C248	C	1.324820	-0.000334	0.051489
C249	C	0.892377	-0.466610	-0.433743
C250	C	1.392377	0.033390	0.066257
H251	H	0.802331	-0.507383	-0.406031
H252	H	1.302331	-0.007383	0.093969
H253	H	0.797803	-0.472082	-0.479442
H254	H	1.297803	0.027918	0.020558
H255	H	0.828501	-0.544421	-0.470072
H256	H	1.328501	-0.044421	0.029928
H257	H	0.888694	-0.422521	-0.412191
H258	H	1.388694	0.077479	0.087809
H259	H	0.919392	-0.494856	-0.402806
H260	H	1.419392	0.005144	0.097194
O261	O	0.916764	-0.385213	-0.878899
O262	O	1.416764	0.114787	-0.378899
C263	C	0.873225	-0.428499	-0.926979
C264	C	1.373225	0.071501	-0.426979
H265	H	0.899865	-0.431920	-0.978158
H266	H	1.399865	0.068080	-0.478158
H267	H	0.820347	-0.405313	-0.937919
H268	H	1.320347	0.094687	-0.437919
C269	C	0.828386	-0.498278	-0.832728
C270	C	1.328386	0.001722	-0.332728
C271	C	0.861109	-0.502485	-0.895585
C272	C	1.361109	-0.002485	-0.395585
H273	H	0.820909	-0.543916	-0.813362
H274	H	1.320909	-0.043916	-0.313362
H275	H	0.857717	-0.469114	-0.800335
H276	H	1.357717	0.030886	-0.300335
H277	H	0.784325	-0.478954	-0.841853
H278	H	1.284325	0.021046	-0.341853
H279	H	0.905173	-0.521800	-0.886458
H280	H	1.405173	-0.021800	-0.386458
H281	H	0.831785	-0.531654	-0.927976
H282	H	1.331785	-0.031654	-0.427976
H283	H	1.059762	-0.577323	-0.353630
H284	H	1.559762	-0.077323	0.146370
O285	O	0.576478	-0.419398	-0.386600
O286	O	1.076478	0.080602	0.113400
C287	C	0.504276	-0.412415	-0.380161
C288	C	1.004276	0.087585	0.119839
H289	H	0.497400	-0.357642	-0.359829
H290	H	0.997400	0.142358	0.140171
H291	H	0.483184	-0.453336	-0.341705
H292	H	0.983184	0.046664	0.158295
C293	C	0.471636	-0.490774	-0.477513
C294	C	0.971636	0.009226	0.022487
C295	C	0.463189	-0.423498	-0.452546
C296	C	0.963189	0.076502	0.047454
H297	H	0.446290	-0.497614	-0.522162
H298	H	0.946290	0.002386	-0.022162
H299	H	0.520279	-0.495481	-0.481850
H300	H	1.020279	0.004519	0.018150
H301	H	0.454059	-0.524867	-0.445460
H302	H	0.954059	-0.024867	0.054540
H303	H	0.480773	-0.389407	-0.484594
H304	H	0.980773	0.110593	0.015406
H305	H	0.414548	-0.418786	-0.448216
H306	H	0.914548	0.081214	0.051784
H307	H	1.089032	-0.213783	-1.018414
H308	H	1.589032	0.286217	-0.518414
O309	O	1.102261	-0.200587	-0.879429
O310	O	1.602261	0.299413	-0.379429
C311	C	1.141767	-0.161297	-0.927741
C312	C	1.641767	0.338703	-0.427741
H313	H	1.110753	-0.162241	-0.981335
H314	H	1.610753	0.337759	-0.481335
H315	H	1.194000	-0.185117	-0.932449
H316	H	1.694000	0.314883	-0.432449
C317	C	1.194348	-0.083769	-0.835935
C318	C	1.694348	0.416231	-0.335935
C319	C	1.156253	-0.084923	-0.901759
C320	C	1.656253	0.415077	-0.401759
H321	H	1.203287	-0.036658	-0.819907
H322	H	1.703287	0.463342	-0.319907
H323	H	1.167734	-0.110240	-0.803385
H324	H	1.667734	0.389760	-0.303385
H325	H	1.237871	-0.103622	-0.839867
H326	H	1.737871	0.396378	-0.339867
H327	H	1.112728	-0.065079	-0.897824
H328	H	1.612728	0.434921	-0.397824
H329	H	1.182860	-0.058446	-0.934308
H330	H	1.682860	0.441554	-0.434308
H331	H	1.087352	-0.908773	-0.381185
H332	H	1.587352	-0.408773	0.118815
H333	H	1.081938	-1.041857	-0.375724
H334	H	1.581938	-0.541857	0.124276
H335	H	0.925013	-1.042082	-0.218537
H336	H	1.425013	-0.542082	0.281463
O337	O	1.074086	-0.228659	-0.549255
O338	O	1.574086	0.271341	-0.049255
C339	C	1.113588	-0.189370	-0.597571
C340	C	1.613588	0.310630	-0.097571
H341	H	1.082573	-0.190317	-0.651163
H342	H	1.582573	0.309683	-0.151163
H343	H	1.165822	-0.213188	-0.602279
H344	H	1.665822	0.286812	-0.102279
C345	C	1.166170	-0.111835	-0.505770
C346	C	1.666170	0.388165	-0.005770
C347	C	1.128073	-0.112994	-0.571592
C348	C	1.628073	0.387006	-0.071592
H349	H	1.175108	-0.064724	-0.489744
H350	H	1.675108	0.435276	0.010256
H351	H	1.139559	-0.138306	-0.473217
H352	H	1.639559	0.361694	0.026783
H353	H	1.209694	-0.131687	-0.509702
H354	H	1.709694	0.368313	-0.009702
H355	H	1.084547	-0.093151	-0.567657
H356	H	1.584547	0.406849	-0.067657
H357	H	1.154678	-0.086518	-0.604143
H358	H	1.654678	0.413482	-0.104143
H359	H	1.060854	-0.241850	-0.688230
H360	H	1.560854	0.258150	-0.188230
H361	H	0.890198	-0.411643	-0.687748
H362	H	1.390198	0.088357	-0.187748
