data_functionalizedCrystal
_audit_creation_method	'MofGen! by Chris Wilmer'
_symmetry_space_group_name_H-M	'P1'
_symmetry_Int_Tables_number	1
_symmetry_cell_setting	triclinic
loop_
_symmetry_equiv_pos_as_xyz
  x,y,z
_cell_length_a	17.019282
_cell_length_b	15.944551
_cell_length_c	15.500361
_cell_angle_alpha	87.161625
_cell_angle_beta	83.300157
_cell_angle_gamma	96.556200
loop_
_atom_site_label
_atom_site_type_symbol
_atom_site_fract_x
_atom_site_fract_y
_atom_site_fract_z
O1	O	1.046996	-0.106623	-0.006085
O2	O	1.546996	0.393377	0.493915
O3	O	0.816457	-0.121214	0.011099
O4	O	1.316457	0.378786	0.511099
O5	O	0.938022	0.008391	0.002030
O6	O	1.438022	0.508391	0.502030
O7	O	0.925431	-0.236227	0.002984
O8	O	1.425431	0.263773	0.502984
O9	O	0.945361	0.016229	-0.142403
O10	O	1.445361	0.516229	0.357597
O11	O	0.823796	-0.113375	-0.133335
O12	O	1.323796	0.386625	0.366665
O13	O	1.054335	-0.098784	-0.150518
O14	O	1.554335	0.401216	0.349482
Cu15	Cu	0.939736	-0.105364	-0.155114
Cu16	Cu	1.439736	0.394636	0.344886
Cu17	Cu	0.931056	-0.114634	0.015695
Cu18	Cu	1.431056	0.385366	0.515695
O19	O	0.932770	-0.228389	-0.141449
O20	O	1.432770	0.271611	0.358551
C21	C	0.790625	-0.116898	-0.058919
C22	C	1.290625	0.383102	0.441081
C23	C	0.702722	-0.115707	-0.052367
C24	C	1.202722	0.384293	0.447633
C25	C	0.665430	-0.110872	-0.128022
C26	C	1.165430	0.389128	0.371978
C27	C	0.582836	-0.109739	-0.121868
C28	C	1.082836	0.390261	0.378132
C29	C	0.537536	-0.113446	-0.040059
C30	C	1.037536	0.386554	0.459941
C31	C	0.574834	-0.118279	0.035601
C32	C	1.074834	0.381721	0.535601
C33	C	0.657426	-0.119406	0.029446
C34	C	1.157426	0.380594	0.529446
C35	C	0.287960	-0.110252	-0.017538
C36	C	0.787960	0.389748	0.482462
C37	C	0.205362	-0.109127	-0.011390
C38	C	0.705362	0.390873	0.488610
C39	C	0.213371	-0.100585	-0.168860
C40	C	0.713371	0.399415	0.331140
C41	C	0.295964	-0.101717	-0.175007
C42	C	0.795964	0.398283	0.324993
C43	C	0.333255	-0.106545	-0.099347
C44	C	0.833255	0.393455	0.400653
C45	C	0.453112	-0.112291	-0.033768
C46	C	0.953112	0.387709	0.466232
C47	C	0.417678	-0.107695	-0.105639
C48	C	0.917678	0.392305	0.394361
C49	C	0.941169	0.043601	-0.070148
C50	C	1.441169	0.543601	0.429852
C51	C	0.939602	0.136839	-0.070032
C52	C	1.439602	0.636839	0.429968
C53	C	1.080167	-0.103100	-0.080498
C54	C	1.580167	0.396900	0.419502
C55	C	1.168070	-0.104292	-0.087044
C56	C	1.668070	0.395708	0.412956
C57	C	0.929623	-0.263599	-0.069269
C58	C	1.429623	0.236401	0.430731
C59	C	0.931189	-0.356837	-0.069380
C60	C	1.431189	0.143163	0.430620
N61	N	0.945846	-0.098843	-0.275252
N62	N	1.445846	0.401157	0.224748
C63	C	0.860504	0.351271	-0.064124
C64	C	1.360504	0.851271	0.435876
C65	C	0.900853	0.416350	-0.138076
C66	C	1.400853	0.916350	0.361924
C67	C	0.936767	0.307549	-0.069814
C68	C	1.436767	0.807549	0.430186
C69	C	0.893635	0.408605	0.004322
C70	C	1.393635	0.908605	0.504322
C71	C	0.934022	0.472447	-0.069599
C72	C	1.434022	0.972447	0.430401
C73	C	0.977140	0.371403	-0.143826
C74	C	1.477140	0.871403	0.356174
C75	C	0.969908	0.363648	-0.001363
C76	C	1.469908	0.863648	0.498637
C77	C	1.010313	0.428711	-0.075336
C78	C	1.510313	0.928711	0.424664
C79	C	0.938346	0.212556	-0.069938
C80	C	1.438346	0.712556	0.430062
C81	C	0.932450	0.567439	-0.069481
C82	C	1.432450	1.067439	0.430519
C83	C	0.894325	-0.153740	-0.316707
C84	C	1.394325	0.346260	0.183293
C85	C	0.898969	-0.148805	-0.407624
C86	C	1.398969	0.351195	0.092376
C87	C	0.955130	-0.088969	-0.457085
C88	C	1.455130	0.411031	0.042915
C89	C	1.006656	-0.034069	-0.415625
C90	C	1.506656	0.465931	0.084375
C91	C	1.002016	-0.039009	-0.324709
C92	C	1.502016	0.460991	0.175291
C93	C	0.971838	-0.071188	-0.731792
C94	C	1.471838	0.428812	-0.231792
C95	C	0.976473	-0.066251	-0.822713
C96	C	1.476473	0.433749	-0.322713
C97	C	0.868786	-0.180989	-0.814706
C98	C	1.368786	0.319011	-0.314706
C99	C	0.864147	-0.185920	-0.723789
C100	C	1.364147	0.314080	-0.223789
C101	C	0.915677	-0.131023	-0.682337
C102	C	1.415677	0.368977	-0.182337
C103	C	0.959876	-0.083921	-0.550017
C104	C	1.459876	0.416079	-0.050017
C105	C	0.910933	-0.136075	-0.589407
C106	C	1.410933	0.363925	-0.089407
N107	N	0.924952	-0.121148	0.135833
N108	N	1.424952	0.378852	0.635833
H109	H	0.416219	-0.115309	0.032842
H110	H	0.916219	0.384691	0.532842
H111	H	1.073672	0.462211	-0.080099
H112	H	1.573672	0.962211	0.419901
Cl113	Cl	0.793543	-0.261142	-0.661609
Cl114	Cl	1.293543	0.238858	-0.161609
H115	H	0.857017	-0.193507	-0.441376
H116	H	1.357017	0.306493	0.058624
H117	H	0.797207	0.317628	-0.059477
H118	H	1.297207	0.817628	0.440523
Cl119	Cl	1.030477	-0.008697	-0.612201
Cl120	Cl	1.530477	0.491303	-0.112201
Cl121	Cl	0.855778	0.452175	-0.227318
Cl122	Cl	1.355778	0.952175	0.272682
Cl123	Cl	1.031629	0.345862	-0.240590
Cl124	Cl	1.531629	0.845862	0.259410
H125	H	1.013794	-0.026488	-0.698048
H126	H	1.513794	0.473512	-0.198048
H127	H	0.182999	-0.096652	-0.230458
H128	H	0.682999	0.403348	0.269542
Cl129	Cl	1.014943	0.327786	0.087887
Cl130	Cl	1.514943	0.827786	0.587887
Cl131	Cl	0.722370	-0.106215	-0.230873
Cl132	Cl	1.222370	0.393785	0.269127
H133	H	0.848589	-0.202462	-0.276441
H134	H	1.348589	0.297538	0.223559
Cl135	Cl	0.535957	-0.103675	-0.216982
Cl136	Cl	1.035957	0.396325	0.283018
Cl137	Cl	0.352906	-0.097062	-0.277856
Cl138	Cl	0.852906	0.402938	0.222144
Cl139	Cl	0.334830	-0.116323	0.077578
Cl140	Cl	0.834830	0.383677	0.577578
Cl141	Cl	0.148413	-0.113791	0.091464
Cl142	Cl	0.648413	0.386209	0.591464
Cl143	Cl	0.517888	-0.122909	0.138447
Cl144	Cl	1.017888	0.377091	0.638447
H145	H	0.826834	-0.225684	-0.848465
H146	H	1.326834	0.274316	-0.348465
H147	H	0.687788	-0.123345	0.091052
H148	H	1.187788	0.376655	0.591052
H149	H	1.052388	0.014648	-0.455902
H150	H	1.552388	0.514648	0.044098
Cl151	Cl	0.839091	0.434313	0.100982
Cl152	Cl	1.339091	0.934313	0.600982
H153	H	0.454566	-0.104672	-0.172248
H154	H	0.954566	0.395328	0.327752
H155	H	1.022209	-0.017522	-0.862981
H156	H	1.522209	0.482478	-0.362981
Cl157	Cl	1.066791	0.030005	-0.272596
Cl158	Cl	1.566791	0.530005	0.227404
H159	H	0.865210	-0.184797	-0.549133
H160	H	1.365210	0.315203	-0.049133
