data_functionalizedCrystal
_audit_creation_method	'MofGen! by Chris Wilmer'
_symmetry_space_group_name_H-M	'P1'
_symmetry_Int_Tables_number	1
_symmetry_cell_setting	triclinic
loop_
_symmetry_equiv_pos_as_xyz
  x,y,z
_cell_length_a	15.538191
_cell_length_b	16.992695
_cell_length_c	16.053919
_cell_angle_alpha	87.291003
_cell_angle_beta	86.457349
_cell_angle_gamma	68.970158
loop_
_atom_site_label
_atom_site_type_symbol
_atom_site_fract_x
_atom_site_fract_y
_atom_site_fract_z
O1	O	-1.234828	0.247438	0.069435
O2	O	-0.967242	0.158800	0.069436
O3	O	-1.099962	0.316957	0.069429
O4	O	-1.102108	0.089282	0.069442
O5	O	-1.092579	0.320727	-0.069428
O6	O	-0.959859	0.162571	-0.069422
O7	O	-1.227445	0.251208	-0.069422
Zn8	Zn	-1.092480	0.207488	-0.091468
Zn9	Zn	-1.102207	0.202520	0.091482
O10	O	-1.094725	0.093052	-0.069415
C11	C	-0.929153	0.151412	0.000007
C12	C	-0.826659	0.123788	0.000007
C13	C	-1.093511	0.347269	0.000000
C14	C	-1.085276	0.431969	0.000000
C15	C	-1.265534	0.258597	0.000008
C16	C	-1.368029	0.286220	0.000014
C17	C	-0.518209	0.398222	0.000004
C18	C	-0.421899	0.372246	0.000006
C19	C	-0.410455	0.226137	0.000015
C20	C	-0.506766	0.252101	0.000008
C21	C	-0.560636	0.338144	0.000004
C22	C	-0.549193	0.192023	0.000008
C23	C	-0.645496	0.217985	0.000006
C24	C	-0.699372	0.304025	0.000005
C25	C	-0.656938	0.364106	0.000002
C26	C	-0.495322	0.105980	0.000018
C27	C	-0.537749	0.045902	0.000018
C28	C	-0.634053	0.071864	0.000011
C29	C	-0.687929	0.157904	0.000009
C30	C	-0.676487	0.011782	0.000013
C31	C	-0.772790	0.037744	0.000011
C32	C	-0.784232	0.183866	0.000007
C33	C	-1.101177	0.062740	0.000015
C34	C	-1.109412	-0.021961	0.000020
N35	N	-1.085848	0.210881	-0.216327
C36	C	-1.164729	0.504823	-0.000001
C37	C	-1.156987	0.584406	0.000007
C38	C	-1.069790	0.591133	0.000010
C39	C	-0.990331	0.518272	0.000014
C40	C	-0.998075	0.438691	0.000012
C41	C	-1.037696	0.825596	0.000022
C42	C	-1.029958	0.905186	0.000021
C43	C	-1.196615	0.971314	0.000016
C44	C	-1.204351	0.891729	0.000009
C45	C	-1.124892	0.818874	0.000017
N46	N	-1.061874	0.672479	0.000016
N47	N	-1.132809	0.737530	0.000018
C48	C	-1.051729	0.228602	-0.739951
C49	C	-1.056365	0.226197	-0.652546
C50	C	-1.118112	0.194320	-0.608850
C51	C	-1.175235	0.164854	-0.652564
C52	C	-1.170604	0.167264	-0.739968
C53	C	-1.138340	0.183826	-0.347445
C54	C	-1.142965	0.181415	-0.260035
C55	C	-1.024095	0.242760	-0.260023
C56	C	-1.019466	0.245163	-0.347429
C57	C	-1.076592	0.215701	-0.391135
N58	N	-1.122849	0.191858	-0.519507
N59	N	-1.071858	0.218169	-0.480476
N60	N	-1.108846	0.199136	0.216340
H61	H	-0.828096	0.253931	-0.000001
H62	H	-0.632613	-0.058274	0.000025
Br63	Br	-0.730055	0.480882	-0.000018
Br64	Br	-1.259043	0.121599	-0.593264
H65	H	-1.217115	0.143270	-0.775554
H66	H	-0.777788	0.325161	0.000014
Br67	Br	-1.264822	0.683278	0.000006
H68	H	-0.919334	0.523755	0.000022
H69	H	-0.977587	0.266747	-0.224428
H70	H	-0.958948	0.910656	0.000010
Br71	Br	-0.978817	0.266156	-0.593230
Br72	Br	-1.304446	1.070190	0.000006
Br73	Br	-1.283073	0.495703	-0.000017
Br74	Br	-0.591326	0.514997	-0.000016
H75	H	-1.001443	0.254554	-0.775522
H76	H	-1.193246	0.155451	-0.224460
H77	H	-1.275356	0.886260	0.000007
H78	H	-0.387359	0.421175	0.000008
Br79	Br	-0.830375	-0.043789	0.000017
Br80	Br	-0.464634	-0.070868	0.000032
Br81	Br	-0.935655	0.288418	-0.406724
Br82	Br	-0.890241	0.339815	0.000020
Br83	Br	-0.929858	0.726732	0.000038
Br84	Br	-1.215864	0.143835	-0.406751
H85	H	-0.366582	0.156080	0.000021
H86	H	-0.416907	0.084844	0.000023
