data_functionalizedCrystal
_audit_creation_method	'MofGen! by Chris Wilmer'
_symmetry_space_group_name_H-M	'P1'
_symmetry_Int_Tables_number	1
_symmetry_cell_setting	triclinic
loop_
_symmetry_equiv_pos_as_xyz
  x,y,z
_cell_length_a	16.120530
_cell_length_b	17.077403
_cell_length_c	17.077396
_cell_angle_alpha	89.982408
_cell_angle_beta	92.916610
_cell_angle_gamma	92.903188
loop_
_atom_site_label
_atom_site_type_symbol
_atom_site_fract_x
_atom_site_fract_y
_atom_site_fract_z
Zn1	Zn	-1.274703	-0.373449	-0.504701
Zn2	Zn	-0.774703	0.126551	-0.004701
Zn3	Zn	-1.274658	-0.504721	-0.373458
Zn4	Zn	-0.774658	-0.004721	0.126542
Zn5	Zn	-1.135284	-0.366810	-0.366799
Zn6	Zn	-0.635284	0.133190	0.133201
Zn7	Zn	-1.135304	-0.498012	-0.498034
Zn8	Zn	-0.635304	0.001988	0.001966
O9	O	-1.204987	-0.435748	-0.435748
O10	O	-0.704987	0.064252	0.064252
O11	O	-1.391365	-0.396448	-0.492868
O12	O	-0.891365	0.103552	0.007132
O13	O	-1.256143	-0.486457	-0.262726
O14	O	-0.756143	0.013543	0.237274
O15	O	-1.153788	-0.257845	-0.385095
O16	O	-0.653788	0.242155	0.114905
O17	O	-1.391333	-0.492894	-0.396444
O18	O	-0.891333	0.007106	0.103556
O19	O	-1.256219	-0.262722	-0.486411
O20	O	-0.756219	0.237278	0.013589
O21	O	-1.153745	-0.385134	-0.257834
O22	O	-0.653745	0.114866	0.242166
O23	O	-1.018618	-0.378629	-0.378631
O24	O	-0.518618	0.121371	0.121369
O25	O	-1.153822	-0.481459	-0.608767
O26	O	-0.653822	0.018541	-0.108767
O27	O	-1.018633	-0.475022	-0.475049
O28	O	-0.518633	0.024978	0.024951
O29	O	-1.256239	-0.389943	-0.613665
O30	O	-0.756239	0.110057	-0.113665
O31	O	-1.256162	-0.613678	-0.389980
O32	O	-0.756162	-0.113678	0.110020
O33	O	-1.153779	-0.608748	-0.481506
O34	O	-0.653779	-0.108748	0.018494
C35	C	-0.988375	-0.425377	-0.425395
C36	C	-0.488375	0.074623	0.074605
C37	C	-0.895707	-0.420960	-0.420984
C38	C	-0.395707	0.079040	0.079016
C39	C	-1.204991	-0.639696	-0.435760
C40	C	-0.704991	-0.139696	0.064240
C41	C	-1.205068	-0.726950	-0.435795
C42	C	-0.705068	-0.226950	0.064205
C43	C	-1.422446	-0.446160	-0.446142
C44	C	-0.922446	0.053840	0.053858
C45	C	-1.515113	-0.450597	-0.450572
C46	C	-1.015113	0.049403	0.049428
C47	C	-0.726042	-0.412876	-0.412938
C48	C	-0.226042	0.087124	0.087062
C49	C	-0.684773	-0.458678	-0.458615
C50	C	-0.184773	0.041322	0.041385
C51	C	-0.590366	-0.454180	-0.454138
C52	C	-0.090366	0.045820	0.045862
C53	C	-0.820458	-0.417373	-0.417414
C54	C	-0.320458	0.082627	0.082586
C55	C	-1.205038	-0.435693	-0.640495
C56	C	-0.705038	0.064307	-0.140495
C57	C	-1.205059	-0.435669	-0.727746
C58	C	-0.705059	0.064331	-0.227746
C59	C	-1.205007	-0.231005	-0.435754
C60	C	-0.705007	0.268995	0.064246
C61	C	-1.205015	-0.143755	-0.435756
C62	C	-0.705015	0.356245	0.064244
C63	C	-1.151692	-0.100225	-0.383010
C64	C	-0.651692	0.399775	0.116990
C65	C	-1.151698	-0.018245	-0.383020
C66	C	-0.651698	0.481755	0.116980
C67	C	-1.205032	0.020203	-0.435774
C68	C	-0.705032	0.520203	0.064226
C69	C	-1.258358	-0.023333	-0.488526
C70	C	-0.758358	0.476667	0.011474
C71	C	-1.258347	-0.105311	-0.488519
C72	C	-0.758347	0.394689	0.011481
C73	C	-1.258379	0.147536	-0.488536
C74	C	-0.758379	0.647536	0.011464
C75	C	-1.258391	0.229520	-0.488542
C76	C	-0.758391	0.729520	0.011458
C77	C	-1.151730	0.234603	-0.383037
C78	C	-0.651730	0.734603	0.116963
C79	C	-1.151719	0.152624	-0.383030
C80	C	-0.651719	0.652624	0.116970
C81	C	-1.205046	0.109094	-0.435781
C82	C	-0.705046	0.609094	0.064219
C83	C	-1.258389	-0.388012	-0.771287
C84	C	-0.758389	0.111988	-0.271287
C85	C	-1.258399	-0.387987	-0.853268
C86	C	-0.758399	0.112013	-0.353268
C87	C	-1.205083	-0.435622	-0.891706
C88	C	-0.705083	0.064378	-0.391706
C89	C	-1.151747	-0.483281	-0.848158
C90	C	-0.651747	0.016719	-0.348158
C91	C	-1.151733	-0.483302	-0.766179
C92	C	-0.651733	0.016698	-0.266179
C93	C	-1.151780	-0.483235	-1.019030
C94	C	-0.651780	0.016765	-0.519030
C95	C	-1.151795	-0.483216	-1.101016
C96	C	-0.651795	0.016784	-0.601016
C97	C	-1.258446	-0.387920	-1.106120
C98	C	-0.758446	0.112080	-0.606120
C99	C	-1.258433	-0.387941	-1.024140
C100	C	-0.758433	0.112059	-0.524140
C101	C	-1.205098	-0.435601	-0.980598
C102	C	-0.705098	0.064399	-0.480598
C103	C	-1.204985	-0.435749	-0.231800
C104	C	-0.704985	0.064251	0.268200
C105	C	-1.205125	-0.435559	-0.144557
C106	C	-0.705125	0.064441	0.355443
H107	H	-0.720344	-0.501268	-0.501083
H108	H	-0.220344	-0.001268	-0.001083
N109	N	-1.315888	0.018134	-0.545420
N110	N	-0.815888	0.518134	-0.045420
H111	H	-1.349666	-0.021884	-0.578835
H112	H	-0.849666	0.478116	-0.078835
H113	H	-1.281968	0.053784	-0.580128
H114	H	-0.781968	0.553784	-0.080128
H115	H	-0.690473	-0.370288	-0.370474
H116	H	-0.190473	0.129712	0.129526
N117	N	-1.094195	0.111148	-0.326138
N118	N	-0.594195	0.611148	0.173862
H119	H	-1.128065	0.075503	-0.291380
H120	H	-0.628065	0.575503	0.208620
H121	H	-1.060421	0.151208	-0.292774
H122	H	-0.560421	0.651208	0.207226
H123	H	-1.108263	-0.131523	-0.340049
H124	H	-0.608263	0.368477	0.159951
N125	N	-1.315865	-0.152256	-0.545413
N126	N	-0.815865	0.347744	-0.045413
H127	H	-1.354491	-0.188129	-0.515361
H128	H	-0.854491	0.311871	-0.015361
H129	H	-1.281929	-0.184587	-0.580157
H130	H	-0.781929	0.315413	-0.080157
H131	H	-1.108278	0.017197	-0.340070
H132	H	-0.608278	0.517197	0.159930
N133	N	-1.094213	0.281547	-0.326137
N134	N	-0.594213	0.781547	0.173863
H135	H	-1.102309	0.339315	-0.334147
H136	H	-0.602309	0.839315	0.165853
H137	H	-1.034671	0.270071	-0.335503
H138	H	-0.534671	0.770071	0.164497
N139	N	-1.315901	-0.336639	-0.729832
N140	N	-0.815901	0.163361	-0.229832
H141	H	-1.349685	-0.306444	-0.769859
H142	H	-0.849685	0.193556	-0.269859
H143	H	-1.281963	-0.298696	-0.694195
H144	H	-0.781963	0.201304	-0.194195
N145	N	-1.315916	0.270992	-0.545437
N146	N	-0.815916	0.770992	-0.045437
H147	H	-1.349693	0.230978	-0.578858
H148	H	-0.849693	0.730978	-0.078858
H149	H	-1.281990	0.306643	-0.580139
H150	H	-0.781990	0.806643	-0.080139
N151	N	-1.315903	-0.336570	-0.900231
N152	N	-0.815903	0.163430	-0.400231
H153	H	-1.349675	-0.306395	-0.863441
H154	H	-0.849675	0.193605	-0.363441
H155	H	-1.354491	-0.370348	-0.936101
H156	H	-0.854491	0.129652	-0.436101
H157	H	-1.301852	-0.349157	-0.992847
H158	H	-0.801852	0.150843	-0.492847
N159	N	-1.315890	0.100583	-0.545435
N160	N	-0.815890	0.600583	-0.045435
H161	H	-1.349681	0.137377	-0.578854
H162	H	-0.849681	0.637377	-0.078854
H163	H	-1.354459	0.064713	-0.515322
H164	H	-0.854459	0.564713	-0.015322
N165	N	-1.315976	-0.336517	-1.153077
N166	N	-0.815976	0.163483	-0.653077
H167	H	-1.307894	-0.343727	-1.210843
H168	H	-0.807894	0.156273	-0.710843
H169	H	-1.303008	-0.279837	-1.138127
H170	H	-0.803008	0.220163	-0.638127
N171	N	-1.094291	-0.534593	-1.142477
N172	N	-0.594291	-0.034593	-0.642477
H173	H	-1.060497	-0.564784	-1.102455
H174	H	-0.560497	-0.064784	-0.602455
H175	H	-1.055724	-0.500780	-1.174648
H176	H	-0.555724	-0.000780	-0.674648
H177	H	-1.108336	-0.522032	-0.983580
H178	H	-0.608336	-0.022032	-0.483580
H179	H	-1.108333	-0.522064	-0.879461
H180	H	-0.608333	-0.022064	-0.379461
H181	H	-1.108298	-0.522100	-0.730727
H182	H	-0.608298	-0.022100	-0.230727
