data_functionalizedCrystal
_audit_creation_method	'MofGen! by Chris Wilmer'
_symmetry_space_group_name_H-M	'P1'
_symmetry_Int_Tables_number	1
_symmetry_cell_setting	triclinic
loop_
_symmetry_equiv_pos_as_xyz
  x,y,z
_cell_length_a	21.295419
_cell_length_b	21.295417
_cell_length_c	16.625539
_cell_angle_alpha	89.966627
_cell_angle_beta	89.979418
_cell_angle_gamma	90.045308
loop_
_atom_site_label
_atom_site_type_symbol
_atom_site_fract_x
_atom_site_fract_y
_atom_site_fract_z
Zn1	Zn	0.962331	-0.250359	-0.455881
Zn2	Zn	1.462331	0.249641	0.044119
Zn3	Zn	0.962241	-0.355633	-0.321037
Zn4	Zn	1.462241	0.144367	0.178963
Zn5	Zn	0.857061	-0.250409	-0.321062
Zn6	Zn	1.357061	0.249591	0.178938
Zn7	Zn	0.857024	-0.355622	-0.455827
Zn8	Zn	1.357024	0.144378	0.044173
O9	O	0.909664	-0.303006	-0.388452
O10	O	1.409664	0.196994	0.111548
O11	O	1.050408	-0.264308	-0.438006
O12	O	1.550408	0.235692	0.061994
O13	O	0.948266	-0.341700	-0.208208
O14	O	1.448266	0.158300	0.291792
O15	O	0.871079	-0.162313	-0.338979
O16	O	1.371079	0.337687	0.161021
O17	O	1.050342	-0.341652	-0.338937
O18	O	1.550342	0.158348	0.161063
O19	O	0.948420	-0.162277	-0.438031
O20	O	1.448420	0.337723	0.061969
O21	O	0.870992	-0.264392	-0.208226
O22	O	1.370992	0.235608	0.291774
O23	O	0.768967	-0.264381	-0.338926
O24	O	1.268967	0.235619	0.161074
O25	O	0.871015	-0.341634	-0.568666
O26	O	1.371015	0.158366	-0.068666
O27	O	0.768939	-0.341681	-0.437937
O28	O	1.268939	0.158319	0.062063
O29	O	0.948384	-0.264298	-0.568707
O30	O	1.448384	0.235702	-0.068707
O31	O	0.948230	-0.443721	-0.338883
O32	O	1.448230	0.056279	0.161117
O33	O	0.870927	-0.443713	-0.437913
O34	O	1.370927	0.056287	0.062087
C35	C	0.746113	-0.303036	-0.388429
C36	C	1.246113	0.196964	0.111571
C37	C	0.676144	-0.303064	-0.388438
C38	C	1.176144	0.196936	0.111562
C39	C	0.643335	-0.262857	-0.440104
C40	C	1.143335	0.237143	0.059896
C41	C	0.577592	-0.262840	-0.440107
C42	C	1.077592	0.237160	0.059893
C43	C	0.544662	-0.303041	-0.388453
C44	C	1.044662	0.196959	0.111547
C45	C	0.577479	-0.343251	-0.336778
C46	C	1.077479	0.156749	0.163222
C47	C	0.643221	-0.343263	-0.336770
C48	C	1.143221	0.156737	0.163230
N49	N	0.441387	-0.358120	-0.382152
N50	N	0.941387	0.141880	0.117848
N51	N	0.378935	-0.358107	-0.382163
N52	N	0.878935	0.141893	0.117837
C53	C	0.346587	-0.303009	-0.388471
C54	C	0.846587	0.196991	0.111529
N55	N	0.379050	-0.247922	-0.394782
N56	N	0.879050	0.252078	0.105218
N57	N	0.441507	-0.247936	-0.394775
N58	N	0.941507	0.252064	0.105225
C59	C	0.473377	-0.303033	-0.388455
C60	C	0.973377	0.196967	0.111545
C61	C	0.242492	-0.262780	-0.440142
C62	C	0.742492	0.237220	0.059858
C63	C	0.176748	-0.262762	-0.440140
C64	C	0.676748	0.237238	0.059860
C65	C	0.176637	-0.343179	-0.336815
C66	C	0.676637	0.156821	0.163185
C67	C	0.242379	-0.343191	-0.336813
C68	C	0.742379	0.156809	0.163187
C69	C	0.275303	-0.302993	-0.388481
C70	C	0.775303	0.197007	0.111519
C71	C	0.909582	-0.466557	-0.388407
C72	C	1.409582	0.033443	0.111593
C73	C	0.909604	-0.536526	-0.388415
C74	C	1.409604	-0.036526	0.111585
C75	C	0.949891	-0.569375	-0.336903
C76	C	1.449891	-0.069375	0.163097
C77	C	0.949921	-0.635118	-0.336921
C78	C	1.449921	-0.135118	0.163079
C79	C	0.909652	-0.668008	-0.388443
C80	C	1.409652	-0.168008	0.111557
C81	C	0.869362	-0.635150	-0.439964
C82	C	1.369362	-0.135150	0.060036
C83	C	0.869338	-0.569409	-0.439951
C84	C	1.369338	-0.069409	0.060049
N85	N	0.854584	-0.771288	-0.394582
N86	N	1.354584	-0.271288	0.105418
N87	N	0.854609	-0.833739	-0.394590
N88	N	1.354609	-0.333739	0.105410
C89	C	0.909722	-0.866083	-0.388489
C90	C	1.409722	-0.366083	0.111511
N91	N	0.964811	-0.833615	-0.382363
N92	N	1.464811	-0.333615	0.117637
N93	N	0.964786	-0.771158	-0.382350
N94	N	1.464786	-0.271158	0.117650
C95	C	0.909673	-0.739293	-0.388464
C96	C	1.409673	-0.239293	0.111536
C97	C	0.950045	-0.970218	-0.336994
C98	C	1.450045	-0.470218	0.163006
C99	C	0.950075	-1.035962	-0.337018
C100	C	1.450075	-0.535962	0.162982
C101	C	0.869511	-1.035993	-0.440057
C102	C	1.369511	-0.535993	0.059943
C103	C	0.869486	-0.970250	-0.440037
C104	C	1.369486	-0.470250	0.059963
C105	C	0.909752	-0.937367	-0.388502
C106	C	1.409752	-0.437367	0.111498
C107	C	1.073854	-0.302976	-0.388475
C108	C	1.573854	0.197024	0.111525
C109	C	1.143823	-0.302963	-0.388485
C110	C	1.643823	0.197037	0.111515
C111	C	0.909705	-0.302959	-0.598761
C112	C	1.409705	0.197041	-0.098761
C113	C	0.909723	-0.302939	-0.688382
C114	C	1.409723	0.197061	-0.188382
C115	C	0.909764	-0.138815	-0.388514
C116	C	1.409764	0.361185	0.111486
C117	C	0.909807	-0.068847	-0.388541
C118	C	1.409807	0.431153	0.111459
C119	C	0.909752	-0.302868	-1.016558
C120	C	1.409752	0.197132	-0.516558
C121	C	0.909742	-0.302890	-0.925249
C122	C	1.409742	0.197110	-0.425249
C123	C	0.909737	-0.302904	-0.852473
C124	C	1.409737	0.197096	-0.352473
C125	C	0.909727	-0.302925	-0.761158
C126	C	1.409727	0.197075	-0.261158
C127	C	0.909660	-0.303007	-0.178961
C128	C	1.409660	0.196993	0.321039
C129	C	0.909764	-0.302850	-0.089340
C130	C	1.409764	0.197150	0.410660
H131	H	0.150036	-0.230017	-0.482211
H132	H	0.650036	0.269983	0.017789
O133	O	0.141129	-0.386535	-0.281093
O134	O	0.641129	0.113465	0.218907
H135	H	0.153706	-0.435957	-0.294795
H136	H	0.653706	0.064043	0.205205
H137	H	0.550663	-0.375983	-0.294720
H138	H	1.050663	0.124017	0.205280
O139	O	0.278008	-0.219415	-0.495854
O140	O	0.778008	0.280585	0.004146
H141	H	0.265397	-0.230263	-0.559113
H142	H	0.765397	0.269737	-0.059113
O143	O	0.993328	-0.533913	-0.281326
O144	O	1.493328	-0.033913	0.218674
H145	H	0.965163	-0.504021	-0.240257
H146	H	1.465163	-0.004021	0.259743
O147	O	0.993536	-1.071398	-0.281464
O148	O	1.493536	-0.571398	0.218536
H149	H	0.965391	-1.101415	-0.240424
H150	H	1.465391	-0.601415	0.259576
H151	H	0.836576	-0.661933	-0.481915
H152	H	1.336576	-0.161933	0.018085
H153	H	0.836726	-1.062771	-0.482010
H154	H	1.336726	-0.562771	0.017990
O155	O	0.277770	-0.386564	-0.281093
O156	O	0.777770	0.113436	0.218907
H157	H	0.307730	-0.358352	-0.240131
H158	H	0.807730	0.141648	0.259869
H159	H	0.836531	-0.542662	-0.481899
H160	H	1.336531	-0.042662	0.018101
O161	O	0.678847	-0.219490	-0.495814
O162	O	1.178847	0.280510	0.004186
H163	H	0.644983	-0.191522	-0.531733
H164	H	1.144983	0.308478	-0.031733
O165	O	0.542192	-0.219477	-0.495839
O166	O	1.042192	0.280523	0.004161
H167	H	0.576131	-0.191530	-0.531769
H168	H	1.076131	0.308470	-0.031769
O169	O	0.993369	-0.670562	-0.281354
O170	O	1.493369	-0.170562	0.218646
H171	H	1.021361	-0.636651	-0.245512
H172	H	1.521361	-0.136651	0.254488
H173	H	0.982834	-0.943443	-0.295033
H174	H	1.482834	-0.443443	0.204967
O175	O	0.826015	-0.934820	-0.495581
O176	O	1.326015	-0.434820	0.004419
H177	H	0.836777	-0.947391	-0.558881
H178	H	1.336777	-0.447391	-0.058881
O179	O	0.678615	-0.386632	-0.281045
O180	O	1.178615	0.113368	0.218955
H181	H	0.644674	-0.414586	-0.245127
H182	H	1.144674	0.085414	0.254873
