data_functionalizedCrystal
_audit_creation_method	'MofGen! by Chris Wilmer'
_symmetry_space_group_name_H-M	'P1'
_symmetry_Int_Tables_number	1
_symmetry_cell_setting	triclinic
loop_
_symmetry_equiv_pos_as_xyz
  x,y,z
_cell_length_a	17.038272
_cell_length_b	17.019294
_cell_length_c	15.500227
_cell_angle_alpha	88.951630
_cell_angle_beta	86.956295
_cell_angle_gamma	87.244363
loop_
_atom_site_label
_atom_site_type_symbol
_atom_site_fract_x
_atom_site_fract_y
_atom_site_fract_z
O1	O	1.041486	0.167282	-0.084296
O2	O	1.541486	0.667282	0.415704
O3	O	0.813849	0.164571	-0.084119
O4	O	1.313849	0.664571	0.415881
O5	O	0.933587	0.051923	-0.075710
O6	O	1.433587	0.551923	0.424290
O7	O	0.921748	0.279929	-0.092705
O8	O	1.421748	0.779929	0.407295
O9	O	0.926321	0.058730	0.067671
O10	O	1.426321	0.558730	0.567671
O11	O	0.806583	0.171378	0.059261
O12	O	1.306583	0.671378	0.559261
O13	O	1.034220	0.174089	0.059085
O14	O	1.534220	0.674089	0.559085
Cu15	Cu	0.919738	0.173355	0.072265
Cu16	Cu	1.419738	0.673355	0.572265
Cu17	Cu	0.928331	0.165305	-0.097299
Cu18	Cu	1.428331	0.665305	0.402701
O19	O	0.914481	0.286736	0.050675
O20	O	1.414481	0.786736	0.550675
C21	C	0.781081	0.165509	-0.012249
C22	C	1.281081	0.665509	0.487751
C23	C	0.694267	0.158154	-0.011710
C24	C	1.194267	0.658154	0.488290
C25	C	0.644349	0.225676	-0.016743
C26	C	1.144349	0.725676	0.483257
C27	C	0.562778	0.218761	-0.016215
C28	C	1.062778	0.718761	0.483785
C29	C	0.531126	0.144325	-0.010662
C30	C	1.031126	0.644325	0.489338
C31	C	0.581050	0.076799	-0.005626
C32	C	1.081050	0.576799	0.494374
C33	C	0.662619	0.083714	-0.006148
C34	C	1.162619	0.583714	0.493852
C35	C	0.285296	0.119894	-0.008818
C36	C	0.785296	0.619894	0.491182
C37	C	0.203720	0.112984	-0.008299
C38	C	0.703720	0.612984	0.491701
C39	C	0.185454	0.254947	-0.018887
C40	C	0.685454	0.754947	0.481113
C41	C	0.267026	0.261856	-0.019413
C42	C	0.767026	0.761856	0.480587
C43	C	0.316942	0.194330	-0.014373
C44	C	0.816942	0.694330	0.485627
C45	C	0.447747	0.137255	-0.010125
C46	C	0.947747	0.637255	0.489875
C47	C	0.400319	0.201400	-0.014903
C48	C	0.900319	0.701400	0.485097
C49	C	0.929362	0.026009	-0.001836
C50	C	1.429362	0.526009	0.498164
C51	C	0.927588	-0.061349	0.004669
C52	C	1.427588	0.438651	0.504669
C53	C	0.930718	-0.106096	-0.070430
C54	C	1.430718	0.393904	0.429570
C55	C	0.929046	-0.188178	-0.064315
C56	C	1.429046	0.311822	0.435685
C57	C	0.924250	-0.225512	0.016901
C58	C	1.424250	0.274488	0.516901
C59	C	0.921118	-0.180759	0.092006
C60	C	1.421118	0.319241	0.592006
C61	C	0.922785	-0.098678	0.085890
C62	C	1.422785	0.401322	0.585890
C63	C	0.919016	-0.473157	0.039278
C64	C	1.419016	0.026843	0.539278
C65	C	0.917352	-0.555244	0.045388
C66	C	1.417352	-0.055244	0.545388
C67	C	0.925278	-0.562658	-0.110934
C68	C	1.425278	-0.062658	0.389066
C69	C	0.926948	-0.480576	-0.117043
C70	C	1.426948	0.019424	0.382957
C71	C	0.923812	-0.435829	-0.041937
C72	C	1.423812	0.064171	0.458063
C73	C	0.922544	-0.309413	0.023154
C74	C	1.422544	0.190587	0.523154
C75	C	0.925513	-0.351929	-0.048191
C76	C	1.425513	0.148071	0.451809
C77	C	1.066988	0.173151	-0.012788
C78	C	1.566988	0.673151	0.487212
C79	C	1.153803	0.180505	-0.013332
C80	C	1.653803	0.680505	0.486668
C81	C	0.918707	0.312651	-0.023200
C82	C	1.418707	0.812651	0.476800
C83	C	0.920481	0.400009	-0.029711
C84	C	1.420481	0.900009	0.470289
N85	N	0.913700	0.179017	0.191527
N86	N	1.413700	0.679017	0.691527
N87	N	0.934375	0.159637	-0.216561
N88	N	1.434375	0.659637	0.283439
C89	C	0.964455	0.131304	0.240366
C90	C	1.464455	0.631304	0.740366
C91	C	0.959896	0.135594	0.330618
C92	C	1.459896	0.635594	0.830618
C93	C	0.904584	0.187601	0.372030
C94	C	1.404584	0.687601	0.872030
C95	C	0.853824	0.235315	0.323185
C96	C	1.353824	0.735315	0.823185
C97	C	0.858380	0.231021	0.232935
C98	C	1.358380	0.731021	0.732935
C99	C	0.888171	0.203057	0.644343
C100	C	1.388171	0.703057	1.144343
C101	C	0.883620	0.207350	0.734600
C102	C	1.383620	0.707350	1.234600
C103	C	0.989692	0.107627	0.742027
C104	C	1.489692	0.607627	1.242027
C105	C	0.994246	0.103341	0.651774
C106	C	1.494246	0.603341	1.151774
C107	C	0.943483	0.151052	0.602937
C108	C	1.443483	0.651052	1.102937
C109	C	0.899924	0.191989	0.464283
C110	C	1.399924	0.691989	0.964283
C111	C	0.948140	0.146660	0.510687
C112	C	1.448140	0.646660	1.010687
H113	H	0.292791	0.322469	-0.023945
H114	H	0.792791	0.822469	0.476055
O115	O	0.935884	-0.065836	-0.158032
O116	O	1.435884	0.434164	0.341968
H117	H	0.990082	-0.032066	-0.164305
H118	H	1.490082	0.467934	0.335695
O119	O	0.932414	-0.236453	-0.145308
O120	O	1.432414	0.263547	0.354692
H121	H	0.878588	-0.270571	-0.146511
H122	H	1.378588	0.229429	0.353489
O123	O	1.007784	0.090563	0.466015
O124	O	1.507784	0.590563	0.966015
H125	H	1.067899	0.105504	0.482264
H126	H	1.567899	0.605504	0.982264
H127	H	0.854890	0.234335	0.498008
H128	H	1.354890	0.734335	0.998008
H129	H	0.927829	-0.599099	-0.172080
H130	H	1.427829	-0.099099	0.327920
H131	H	0.920226	-0.062245	0.147045
H132	H	1.420226	0.437755	0.647045
O133	O	0.912171	-0.595516	0.132989
O134	O	1.412171	-0.095516	0.632989
H135	H	0.910261	-0.550612	0.184188
H136	H	1.410261	-0.050612	0.684188
H137	H	0.325928	0.064910	-0.004713
H138	H	0.825928	0.564910	0.495287
O139	O	0.434460	0.281681	-0.020892
O140	O	0.934460	0.781681	0.479108
H141	H	0.411479	0.317168	0.035112
H142	H	0.911479	0.817168	0.535112
O143	O	0.915654	-0.424900	0.120280
O144	O	1.415654	0.075100	0.620280
H145	H	0.912053	-0.464654	0.177779
H146	H	1.412053	0.035346	0.677779
H147	H	0.930854	-0.450184	-0.183177
H148	H	1.430854	0.049816	0.316823
H149	H	0.808784	0.277658	0.356908
H150	H	1.308784	0.777658	0.856908
O151	O	0.678487	0.305961	-0.022724
O152	O	1.178487	0.805961	0.477276
H153	H	0.630068	0.351751	-0.026124
H154	H	1.130068	0.851751	0.473876
O155	O	0.131610	0.327772	-0.024308
O156	O	0.631610	0.827772	0.475692
H157	H	0.145830	0.360361	-0.085387
H158	H	0.645830	0.860361	0.414613
O159	O	0.508940	0.291590	-0.021641
O160	O	1.008940	0.791590	0.478359
H161	H	0.474285	0.289058	-0.080090
H162	H	0.974285	0.789058	0.419910
O163	O	0.915961	-0.221021	0.179607
O164	O	1.415961	0.278979	0.679607
H165	H	0.915342	-0.285616	0.171245
H166	H	1.415342	0.214384	0.671245
H167	H	0.817049	0.269873	0.193171
H168	H	1.317049	0.769873	0.693171
O169	O	0.169576	0.032696	-0.002301
O170	O	0.669576	0.532696	0.497699
H171	H	0.217988	-0.013098	0.001125
H172	H	0.717988	0.486902	0.501125
H173	H	0.555272	0.016191	-0.001092
H174	H	1.055272	0.516191	0.498908
H175	H	0.703262	0.028731	-0.002050
H176	H	1.203262	0.528731	0.497950
O177	O	0.930681	-0.311669	-0.135788
O178	O	1.430681	0.188331	0.364212
H179	H	0.984878	-0.277897	-0.142048
H180	H	1.484878	0.222103	0.357952
H181	H	0.421966	0.076650	-0.005579
H182	H	0.921966	0.576650	0.494421
H183	H	0.918642	-0.339820	0.089280
H184	H	1.418642	0.160180	0.589280
H185	H	1.009498	0.088958	0.206654
H186	H	1.509498	0.588958	0.706654
O187	O	1.014652	0.084148	0.383296
O188	O	1.514652	0.584148	0.883296
H189	H	1.053890	0.047276	0.339337
H190	H	1.553890	0.547276	0.839337
O191	O	1.053896	0.047241	0.607108
O192	O	1.553896	0.547241	1.107108
H193	H	1.088419	0.014777	0.656233
H194	H	1.588419	0.514777	1.156233
H195	H	1.031020	0.068782	0.781798
H196	H	1.531020	0.568782	1.281798
H197	H	0.838577	0.249703	0.768313
H198	H	1.338577	0.749703	1.268313
O199	O	0.833429	0.254523	0.591673
O200	O	1.333429	0.754523	1.091673
H201	H	0.794211	0.291413	0.635634
H202	H	1.294211	0.791413	1.135634
