data_functionalizedCrystal
_audit_creation_method	'MofGen! by Chris Wilmer'
_symmetry_space_group_name_H-M	'P1'
_symmetry_Int_Tables_number	1
_symmetry_cell_setting	triclinic
loop_
_symmetry_equiv_pos_as_xyz
  x,y,z
_cell_length_a	12.645331
_cell_length_b	25.639240
_cell_length_c	12.645323
_cell_angle_alpha	90.039057
_cell_angle_beta	90.022676
_cell_angle_gamma	90.031736
loop_
_atom_site_label
_atom_site_type_symbol
_atom_site_fract_x
_atom_site_fract_y
_atom_site_fract_z
Zn1	Zn	1.620620	-0.208161	0.599342
Zn2	Zn	1.620455	-0.295600	0.422038
Zn3	Zn	1.443335	-0.208179	0.422086
Zn4	Zn	1.443270	-0.295566	0.599253
O5	O	1.531920	-0.251876	0.510680
O6	O	1.768946	-0.219767	0.575839
O7	O	1.596918	-0.284025	0.273697
O8	O	1.466948	-0.135011	0.445657
O9	O	1.768824	-0.284008	0.445574
O10	O	1.597199	-0.134998	0.575886
O11	O	1.466788	-0.219797	0.273732
O12	O	1.294979	-0.219764	0.445571
O13	O	1.466838	-0.283949	0.747612
O14	O	1.294931	-0.283967	0.575735
O15	O	1.597136	-0.219734	0.747677
O16	O	1.596855	-0.368760	0.445489
O17	O	1.466678	-0.368735	0.575688
C18	C	1.256490	-0.251864	0.510649
C19	C	1.138660	-0.251871	0.510661
C20	C	0.971091	-0.211295	0.429227
C21	C	1.093651	-0.211400	0.428868
C22	C	1.094111	-0.306949	0.480119
C23	C	0.971512	-0.306727	0.479563
C24	C	0.971518	-0.237893	0.622952
C25	C	1.094125	-0.236663	0.622329
C26	C	1.531770	-0.387719	0.510597
C27	C	1.531803	-0.445833	0.510597
C28	C	1.599775	-0.806151	0.578612
C29	C	1.599807	-0.860755	0.578634
O30	O	1.657421	-0.888953	0.636378
N31	N	1.532067	-0.888115	0.510782
C32	C	1.464284	-0.860868	0.442912
O33	O	1.406669	-0.889154	0.385202
C34	C	1.464249	-0.806265	0.442897
C35	C	1.532000	-0.778908	0.510745
C36	C	1.667521	-0.778793	0.646456
C37	C	1.667490	-0.724193	0.646433
C38	C	1.599715	-0.696950	0.578566
C39	C	1.531970	-0.724307	0.510722
C40	C	1.396461	-0.779019	0.375033
C41	C	1.396431	-0.724412	0.375024
C42	C	1.464182	-0.697055	0.442872
C43	C	1.464165	-0.642464	0.442832
N44	N	1.531904	-0.615103	0.510683
C45	C	1.599679	-0.642346	0.578550
C46	C	1.464364	-0.975539	0.442951
C47	C	1.464404	-1.030141	0.442960
C48	C	1.599925	-1.030024	0.578684
C49	C	1.599889	-0.975421	0.578668
C50	C	1.532103	-0.948179	0.510803
C51	C	1.599612	-0.527681	0.578496
C52	C	1.599578	-0.473076	0.578464
C53	C	1.464054	-0.473198	0.442745
C54	C	1.464090	-0.527798	0.442773
C55	C	1.531873	-0.555039	0.510657
O56	O	1.406577	-0.614231	0.385120
O57	O	1.657275	-0.614054	0.636261
C58	C	1.808425	-0.251889	0.510711
C59	C	1.926255	-0.251895	0.510724
C60	C	1.531998	-0.251836	0.787185
C61	C	1.532031	-0.251819	0.905015
C62	C	1.532099	-0.115503	0.510786
C63	C	1.532176	-0.057389	0.510832
C64	C	1.531903	-0.251879	0.235250
C65	C	1.532075	-0.251749	0.117421
C66	C	1.449808	-0.292026	1.072539
C67	C	1.450023	-0.292225	0.949979
C68	C	1.643723	-0.266773	0.949528
C69	C	1.643272	-0.267025	1.072126
C70	C	1.503620	-0.196432	1.072241
C71	C	1.501127	-0.196764	0.949634
H72	H	0.941649	-0.170330	0.448169
N73	N	1.390956	-0.443803	0.369558
H74	H	1.315209	-0.453328	0.385961
H75	H	1.407545	-0.453337	0.293856
H76	H	1.341228	-0.702234	0.319761
N77	N	0.930242	-0.223296	0.319653
H78	H	0.888835	-0.192461	0.292238
H79	H	0.882793	-0.254963	0.322485
H80	H	1.423594	-0.182801	1.103152
H81	H	1.124768	-0.264076	0.686301
N82	N	1.474460	-0.346013	1.113294
H83	H	1.538683	-0.344493	1.160709
H84	H	1.489087	-0.370009	1.051647
H85	H	1.655110	-1.052215	0.633947
N86	N	1.391031	-0.557308	0.369581
H87	H	1.341891	-0.579964	0.412622
H88	H	1.434232	-0.579937	0.320523
N89	N	1.727086	-0.229139	0.910961
H90	H	1.729891	-0.230004	0.831159
H91	H	1.798193	-0.239515	0.940614
N92	N	1.672653	-0.443574	0.651656
H93	H	1.629532	-0.420915	0.700734
H94	H	1.721782	-0.420947	0.608543
N95	N	0.933078	-0.277048	0.703398
H96	H	0.962399	-0.267853	0.775344
H97	H	0.957814	-0.313068	0.682593
N98	N	1.340328	-0.279808	0.910100
H99	H	1.291396	-0.274157	0.972163
H100	H	1.313453	-0.309818	0.865822
N101	N	1.675217	-0.320587	1.110016
H102	H	1.748428	-0.329044	1.083124
H103	H	1.623317	-0.347285	1.082424
N104	N	0.933560	-0.322448	0.370882
H105	H	0.889736	-0.293368	0.339609
H106	H	0.889096	-0.355062	0.376512
N107	N	1.339762	-0.279745	1.111554
H108	H	1.342164	-0.247955	1.158707
H109	H	1.311481	-0.310430	1.152856
N110	N	1.740617	-0.808161	0.719689
H111	H	1.816362	-0.798627	0.703299
H112	H	1.730291	-0.846897	0.709403
N113	N	1.676237	-0.319774	0.908856
H114	H	1.618787	-0.334175	0.861608
H115	H	1.687658	-0.344132	0.970542
N116	N	1.132439	-0.223654	0.318709
H117	H	1.069896	-0.229013	0.270195
H118	H	1.176629	-0.256443	0.320440
H119	H	1.654799	-0.549854	0.633781
N120	N	1.740557	-0.694689	0.719621
H121	H	1.783487	-0.720240	0.762615
H122	H	1.697362	-0.672034	0.768634
H123	H	0.941851	-0.338001	0.536332
H124	H	1.418932	-0.185486	0.920541
N125	N	1.672961	-0.945916	0.651847
H126	H	1.715900	-0.971465	0.694838
H127	H	1.629771	-0.923261	0.700865
N128	N	1.474913	-0.346548	0.911138
H129	H	1.546734	-0.357471	0.938150
H130	H	1.475088	-0.346879	0.831272
H131	H	1.706645	-0.238962	1.101818
H132	H	1.123773	-0.170558	0.448015
N133	N	1.391346	-1.059645	0.369765
H134	H	1.348411	-1.034097	0.326771
H135	H	1.342271	-1.082303	0.412874
H136	H	1.409167	-0.953361	0.387678
H137	H	1.341291	-0.801284	0.319783
N138	N	1.574698	-0.154907	0.909102
H139	H	1.629351	-0.171113	0.861030
H140	H	1.611207	-0.137500	0.970799
H141	H	1.123264	-0.338007	0.537613
N142	N	1.134700	-0.322952	0.372608
H143	H	1.181935	-0.294608	0.343534
H144	H	1.072977	-0.328570	0.323179
N145	N	0.930621	-0.185624	0.659749
H146	H	0.882330	-0.170490	0.604036
H147	H	0.992138	-0.161211	0.671963
N148	N	1.582976	-0.156676	1.110687
H149	H	1.656042	-0.166838	1.085914
H150	H	1.581673	-0.155357	1.190501
N151	N	1.132687	-0.182972	0.652839
H152	H	1.178816	-0.168557	0.594579
H153	H	1.174955	-0.185282	0.720456
