data_functionalizedCrystal
_audit_creation_method	'MofGen! by Chris Wilmer'
_symmetry_space_group_name_H-M	'P1'
_symmetry_Int_Tables_number	1
_symmetry_cell_setting	triclinic
loop_
_symmetry_equiv_pos_as_xyz
  x,y,z
_cell_length_a	10.654550
_cell_length_b	11.792241
_cell_length_c	9.130313
_cell_angle_alpha	89.998583
_cell_angle_beta	89.996220
_cell_angle_gamma	84.339159
loop_
_atom_site_label
_atom_site_type_symbol
_atom_site_fract_x
_atom_site_fract_y
_atom_site_fract_z
O1	O	1.667383	0.159415	-0.121920
O2	O	1.301862	0.174603	-0.121897
O3	O	1.493493	0.001859	-0.121899
O4	O	1.475752	0.332159	-0.121918
O5	O	1.493490	0.001864	0.121700
O6	O	1.301859	0.174608	0.121702
O7	O	1.667381	0.159419	0.121678
Cu8	Cu	1.484620	0.167014	0.143933
Cu9	Cu	1.484623	0.167008	-0.144151
O10	O	1.475750	0.332164	0.121680
C11	C	1.255066	0.173490	-0.000095
C12	C	1.115632	0.170154	-0.000085
C13	C	1.035858	0.271863	-0.000113
C14	C	0.904847	0.268721	-0.000138
C15	C	0.933394	0.062152	-0.000114
C16	C	1.064404	0.065295	-0.000079
C17	C	1.087087	0.376722	-0.000119
C18	C	1.007312	0.478439	-0.000148
C19	C	0.876300	0.475297	-0.000173
C20	C	0.825063	0.370438	-0.000170
C21	C	1.492377	-0.040432	-0.000100
C22	C	1.489042	-0.166454	-0.000101
C23	C	1.482908	-0.397180	-0.000125
C24	C	1.486316	-0.268787	-0.000112
C25	C	1.714177	0.160532	-0.000127
C26	C	1.853611	0.163869	-0.000146
C27	C	1.476865	0.374455	-0.000122
C28	C	1.480201	0.500476	-0.000130
N29	N	1.484627	0.167017	0.346555
N30	N	1.484625	0.166996	-0.346774
C31	C	1.569503	0.090552	0.423206
C32	C	1.569500	0.090539	0.576543
C33	C	1.399740	0.243465	0.576564
C34	C	1.399739	0.243472	0.423230
C35	C	1.654392	0.014097	0.346531
C36	C	1.739275	-0.062373	0.423182
C37	C	1.739272	-0.062387	0.576519
C38	C	1.654385	0.014070	0.653205
H39	H	1.129358	-0.017526	-0.000060
H40	H	1.808379	-0.124659	0.638927
N41	N	1.654382	0.014029	0.809835
N42	N	1.730164	-0.054257	0.878261
H43	H	1.730166	-0.054287	0.988880
N44	N	0.881059	-0.044952	-0.000154
N45	N	0.905273	-0.113754	-0.102834
H46	H	0.868312	-0.189398	-0.102869
H47	H	1.330629	0.305714	0.639012
H48	H	1.330624	0.305736	0.360820
N49	N	1.654368	0.014115	0.189904
N50	N	1.578572	0.082389	0.121480
H51	H	1.578553	0.082405	0.010861
H52	H	1.193762	0.379291	-0.000106
H53	H	1.049039	0.563812	-0.000139
N54	N	0.794829	0.579203	-0.000180
N55	N	0.840591	0.672813	-0.000177
H56	H	0.783055	0.746201	-0.000186
N57	N	0.691240	0.367206	-0.000206
N58	N	0.645513	0.273580	-0.000218
H59	H	0.551002	0.271296	-0.000250
N60	N	1.825959	-0.140472	0.344835
N61	N	1.825950	-0.140454	0.207931
H62	H	1.887171	-0.195614	0.152598
