data_functionalizedCrystal
_audit_creation_method	'MofGen! by Chris Wilmer'
_symmetry_space_group_name_H-M	'P1'
_symmetry_Int_Tables_number	1
_symmetry_cell_setting	triclinic
loop_
_symmetry_equiv_pos_as_xyz
  x,y,z
_cell_length_a	16.959455
_cell_length_b	16.959454
_cell_length_c	16.959447
_cell_angle_alpha	89.973264
_cell_angle_beta	89.985678
_cell_angle_gamma	90.017022
loop_
_atom_site_label
_atom_site_type_symbol
_atom_site_fract_x
_atom_site_fract_y
_atom_site_fract_z
Zn1	Zn	1.208384	-0.314730	-0.446928
Zn2	Zn	1.208306	-0.446923	-0.314758
Zn3	Zn	1.076212	-0.314755	-0.314766
Zn4	Zn	1.076177	-0.446864	-0.446897
O5	O	1.142270	-0.380818	-0.380837
O6	O	1.318984	-0.332280	-0.429406
O7	O	1.190766	-0.429426	-0.204148
O8	O	1.093792	-0.204141	-0.332314
O9	O	1.318927	-0.429402	-0.332301
O10	O	1.190898	-0.204123	-0.429413
O11	O	1.093717	-0.332323	-0.204154
O12	O	0.965597	-0.332265	-0.332283
O13	O	1.093732	-0.429301	-0.557512
O14	O	0.965571	-0.429325	-0.429359
O15	O	1.190864	-0.332223	-0.557535
O16	O	1.190732	-0.557526	-0.332270
O17	O	1.093657	-0.557482	-0.429352
C18	C	0.936904	-0.380792	-0.380819
C19	C	0.849047	-0.380800	-0.380830
C20	C	0.477560	-0.330238	-0.330395
C21	C	0.477582	-0.431463	-0.431324
C22	C	0.560128	-0.431452	-0.431320
C23	C	0.601394	-0.380834	-0.380851
C24	C	0.560114	-0.330226	-0.330387
C25	C	0.601414	-0.482064	-0.481777
C26	C	0.683965	-0.482055	-0.481773
C27	C	0.725233	-0.431432	-0.431308
C28	C	0.683948	-0.380822	-0.380843
C29	C	0.725213	-0.330204	-0.330374
C30	C	0.683930	-0.279589	-0.279913
C31	C	0.601381	-0.279603	-0.279922
C32	C	0.807781	-0.431418	-0.431299
C33	C	0.807767	-0.330193	-0.330366
C34	C	1.142204	-0.586184	-0.380824
C35	C	1.142248	-0.674041	-0.380844
C36	C	1.091796	-1.045524	-0.431382
C37	C	1.192963	-1.045509	-0.330373
C38	C	1.192936	-0.962963	-0.330365
C39	C	1.142337	-0.921694	-0.380867
C40	C	1.091765	-0.962970	-0.431375
C41	C	1.243501	-0.921680	-0.279852
C42	C	1.243475	-0.839130	-0.279842
C43	C	1.192879	-0.797859	-0.330348
C44	C	1.142306	-0.839140	-0.380859
C45	C	1.091707	-0.797871	-0.431360
C46	C	1.041137	-0.839151	-0.481876
C47	C	1.041170	-0.921699	-0.481881
C48	C	1.192847	-0.715310	-0.330343
C49	C	1.091676	-0.715317	-0.431353
C50	C	1.348438	-0.380845	-0.380856
C51	C	1.436295	-0.380856	-0.380864
C52	C	1.142303	-0.380753	-0.587006
C53	C	1.142317	-0.380725	-0.674862
C54	C	1.142358	-0.174650	-0.380868
C55	C	1.142395	-0.086793	-0.380881
C56	C	1.091839	-0.431185	-1.046328
C57	C	1.192983	-0.330097	-1.046348
C58	C	1.192962	-0.330114	-0.963802
C59	C	1.142380	-0.380668	-0.922515
C60	C	1.091818	-0.431205	-0.963775
C61	C	1.243529	-0.279584	-0.922536
C62	C	1.243510	-0.279599	-0.839985
C63	C	1.192923	-0.330149	-0.798697
C64	C	1.142359	-0.380688	-0.839962
C65	C	1.091776	-0.431242	-0.798675
C66	C	1.041207	-0.481777	-0.839938
C67	C	1.041231	-0.481756	-0.922487
C68	C	1.192899	-0.330171	-0.716149
C69	C	1.091755	-0.431262	-0.716122
C70	C	1.142283	-0.380826	-0.175471
C71	C	1.142422	-0.380631	-0.087615
H72	H	0.717571	-0.523268	-0.522863
C73	C	1.247695	-0.670591	-0.275374
C74	C	1.230546	-0.690739	-0.197156
C75	C	1.281065	-0.649568	-0.146495
H76	H	1.240481	-0.615506	-0.282496
H77	H	1.300816	-0.684095	-0.286938
H78	H	1.177438	-0.677230	-0.185597
H79	H	1.237765	-0.745817	-0.190009
H80	H	1.334187	-0.663071	-0.158058
H81	H	1.273847	-0.594485	-0.153624
H82	H	1.269442	-0.663238	-0.093419
C83	C	1.036810	-0.486243	-0.671442
C84	C	0.992550	-0.530507	-0.725248
C85	C	0.941937	-0.581173	-0.684119
H86	H	1.002305	-0.456104	-0.639237
H87	H	1.067012	-0.520738	-0.639254
H88	H	0.962350	-0.496016	-0.757422
H89	H	1.027034	-0.560662	-0.757455
H90	H	0.972139	-0.615668	-0.651931
H91	H	0.907437	-0.551028	-0.651916
H92	H	0.911906	-0.611217	-0.720620
C93	C	1.298452	-0.966571	-0.225113
C94	C	1.349122	-1.013936	-0.269863
C95	C	1.399728	-1.055315	-0.219445
H96	H	1.268263	-0.998850	-0.190677
H97	H	1.328611	-0.930225	-0.195001
H98	H	1.318966	-1.050277	-0.299962
H99	H	1.379328	-0.981676	-0.304298
H100	H	1.429888	-1.018969	-0.189332
H101	H	1.369533	-1.087590	-0.185011
H102	H	1.434118	-1.087451	-0.249800
C103	C	0.556654	-0.224706	-0.225010
C104	C	0.576715	-0.241801	-0.146772
C105	C	0.535530	-0.191242	-0.096167
H106	H	0.501570	-0.231919	-0.232139
H107	H	0.570205	-0.171594	-0.236620
H108	H	0.563158	-0.294900	-0.135167
H109	H	0.631791	-0.234583	-0.139618
H110	H	0.549081	-0.138130	-0.107776
H111	H	0.480448	-0.198460	-0.103303
H112	H	0.549141	-0.202829	-0.043078
H113	H	1.050665	-0.472327	-1.079928
C114	C	0.986420	-0.536590	-0.967429
C115	C	0.997283	-0.525767	-1.048558
C116	C	0.946814	-0.576273	-1.089987
H117	H	0.933280	-0.525068	-0.954002
H118	H	0.997968	-0.589721	-0.953935
H119	H	0.985730	-0.472648	-1.062047
H120	H	1.050412	-0.537295	-1.062009
H121	H	0.958362	-0.629405	-1.076492
H122	H	0.893677	-0.564747	-1.076553
H123	H	0.954183	-0.568942	-1.145036
H124	H	1.000026	-0.522942	-0.806312
C125	C	0.986364	-0.966478	-0.536849
C126	C	1.003529	-0.946367	-0.615072
C127	C	0.953065	-0.987613	-0.665728
H128	H	0.933230	-0.953026	-0.525337
H129	H	0.993637	-1.021558	-0.529668
H130	H	0.996250	-0.891299	-0.622249
H131	H	1.056654	-0.959821	-0.626609
H132	H	0.960337	-1.042693	-0.658548
H133	H	0.899933	-0.974157	-0.654209
H134	H	0.964709	-0.973979	-0.718809
C135	C	0.986072	-0.794383	-0.536610
C136	C	0.907881	-0.814509	-0.519325
C137	C	0.857136	-0.773275	-0.569722
H138	H	0.997510	-0.807836	-0.589759
H139	H	0.993243	-0.739301	-0.529360
H140	H	0.900714	-0.869579	-0.526581
H141	H	0.896419	-0.801054	-0.466185
H142	H	0.864307	-0.718193	-0.562473
H143	H	0.868581	-0.786731	-0.622868
H144	H	0.804078	-0.786919	-0.557997
H145	H	1.234170	-0.288943	-1.079968
C146	C	1.298366	-0.224738	-0.967503
C147	C	1.287545	-0.235524	-1.048627
C148	C	1.338044	-0.185007	-1.090078
H149	H	1.351497	-0.236274	-0.954068
H150	H	1.286819	-0.171611	-0.954035
H151	H	1.299097	-0.288639	-1.062089
H152	H	1.234424	-0.223982	-1.062085
H153	H	1.326497	-0.131880	-1.076610
H154	H	1.391172	-0.196547	-1.076636
H155	H	1.330704	-0.192313	-1.145124
C156	C	1.298358	-0.224799	-0.795047
C157	C	1.287519	-0.235637	-0.713917
C158	C	1.338029	-0.185167	-0.672494
H159	H	1.286850	-0.171660	-0.808505
H160	H	1.351490	-0.236362	-0.808515
H161	H	1.234400	-0.224068	-0.700454
H162	H	1.299034	-0.288765	-0.700435
H163	H	1.391161	-0.196730	-0.685962
H164	H	1.326516	-0.132031	-0.685958
H165	H	1.330687	-0.192519	-0.617443
H166	H	1.234074	-0.289028	-0.682556
C167	C	0.852563	-0.486266	-0.486211
C168	C	0.832525	-0.469146	-0.564450
C169	C	0.873770	-0.519649	-0.615061
H170	H	0.839059	-0.539391	-0.474656
H171	H	0.907643	-0.479001	-0.479034
H172	H	0.777457	-0.476417	-0.571624
H173	H	0.846032	-0.416030	-0.576030
H174	H	0.928851	-0.512384	-0.607884
H175	H	0.860263	-0.572771	-0.603499
H176	H	0.860186	-0.508035	-0.668152
H177	H	0.841360	-0.288968	-0.289273
H178	H	0.717539	-0.238379	-0.238818
H179	H	0.443944	-0.289026	-0.289313
C180	C	0.556662	-0.537143	-0.536483
C181	C	0.576699	-0.615331	-0.519134
C182	C	0.535481	-0.666089	-0.569516
H183	H	0.570189	-0.525734	-0.589634
H184	H	0.501578	-0.529953	-0.529265
H185	H	0.631771	-0.622517	-0.526359
H186	H	0.563171	-0.626764	-0.465993
H187	H	0.480397	-0.658900	-0.562298
H188	H	0.549011	-0.654674	-0.622664
H189	H	0.549065	-0.719146	-0.557747
C190	C	0.432878	-0.486364	-0.486249
C191	C	0.453000	-0.469249	-0.564480
C192	C	0.411836	-0.519811	-0.615102
H193	H	0.377791	-0.479169	-0.479130
H194	H	0.446405	-0.539474	-0.474646
H195	H	0.439467	-0.416152	-0.576078
H196	H	0.508079	-0.476449	-0.571623
H197	H	0.425364	-0.572920	-0.603500
H198	H	0.356752	-0.512611	-0.607977
H199	H	0.425488	-0.508210	-0.668187
C200	C	1.036824	-0.670371	-0.486155
C201	C	1.047629	-0.589242	-0.475351
C202	C	0.997122	-0.547814	-0.525828
H203	H	0.983696	-0.683849	-0.474593
H204	H	1.048374	-0.683815	-0.539292
H205	H	1.036074	-0.575804	-0.422226
H206	H	1.100747	-0.575741	-0.486919
H207	H	1.008671	-0.561257	-0.578966
H208	H	0.943997	-0.561298	-0.514262
H209	H	1.004451	-0.492764	-0.518510
C210	C	1.036923	-1.090479	-0.486138
C211	C	1.047764	-1.171606	-0.475329
C212	C	0.997221	-1.213043	-0.525749
H213	H	1.048401	-1.077005	-0.539288
H214	H	0.983800	-1.077039	-0.474512
H215	H	1.100875	-1.185041	-0.486961
H216	H	1.036280	-1.185103	-0.422190
H217	H	0.944097	-1.199603	-0.514122
H218	H	1.008702	-1.199562	-0.578895
H219	H	1.004564	-1.268092	-0.518417
C220	C	1.247961	-1.090373	-0.275658
C221	C	1.298623	-1.137715	-0.320440
C222	C	1.349292	-1.179058	-0.270055
H223	H	1.217817	-1.122664	-0.241193
H224	H	1.278122	-1.054005	-0.245574
H225	H	1.268464	-1.174078	-0.350511
H226	H	1.328784	-1.105443	-0.354903
H227	H	1.379454	-1.142691	-0.239971
H228	H	1.319142	-1.211345	-0.235593
H229	H	1.383677	-1.211179	-0.300432
H230	H	1.284651	-0.805524	-0.238711
