data_functionalizedCrystal
_audit_creation_method	'MofGen! by Chris Wilmer'
_symmetry_space_group_name_H-M	'P1'
_symmetry_Int_Tables_number	1
_symmetry_cell_setting	triclinic
loop_
_symmetry_equiv_pos_as_xyz
  x,y,z
_cell_length_a	18.050591
_cell_length_b	11.169416
_cell_length_c	11.169409
_cell_angle_alpha	90.027704
_cell_angle_beta	89.970816
_cell_angle_gamma	89.991911
loop_
_atom_site_label
_atom_site_type_symbol
_atom_site_fract_x
_atom_site_fract_y
_atom_site_fract_z
Zn1	Zn	1.135436	0.477838	-0.678881
Zn2	Zn	1.135364	0.678578	-0.478214
Zn3	Zn	1.011238	0.477894	-0.478183
Zn4	Zn	1.011239	0.678463	-0.678826
O5	O	1.073319	0.578193	-0.578526
O6	O	1.239351	0.504491	-0.652298
O7	O	1.118868	0.652028	-0.310260
O8	O	1.027743	0.309937	-0.504815
O9	O	1.239298	0.651974	-0.504869
O10	O	1.118991	0.309895	-0.652268
O11	O	1.027673	0.504586	-0.310237
O12	O	0.907313	0.504475	-0.504762
O13	O	1.027744	0.651779	-0.846783
O14	O	0.907314	0.651833	-0.652174
O15	O	1.118992	0.504380	-0.846824
O16	O	1.118869	0.846513	-0.504816
O17	O	1.027674	0.846428	-0.652205
C18	C	0.880367	0.578149	-0.578460
C19	C	0.797821	0.578158	-0.578460
C20	C	1.073284	0.890018	-0.578534
C21	C	1.073337	1.023418	-0.578578
C22	C	1.073376	0.578060	-0.891569
C23	C	1.073401	0.578003	-1.024969
C24	C	0.598349	0.497932	-0.498482
C25	C	0.548946	0.607406	-0.468964
C26	C	0.646691	0.578195	-0.578514
C27	C	0.549013	0.468759	-0.608028
C28	C	0.500706	0.578220	-0.578564
C29	C	0.598375	0.687726	-0.548939
C30	C	0.598446	0.549005	-0.688054
C31	C	0.549065	0.658555	-0.658579
C32	C	0.730789	0.578178	-0.578482
C33	C	0.416609	0.578249	-0.578596
C34	C	1.267025	0.578239	-0.578593
C35	C	1.349571	0.578258	-0.578622
C36	C	1.073370	1.265151	-0.578560
C37	C	1.073378	1.131751	-0.578616
C38	C	1.073305	0.578239	-0.266701
C39	C	1.073425	0.577958	-0.133302
H40	H	0.619989	0.430130	-0.430728
H41	H	0.620206	0.524264	-0.780641
C42	C	0.627537	0.812803	-0.515088
C43	C	0.711550	0.835888	-0.508754
C44	C	0.740714	0.960961	-0.474898
C45	C	0.685865	1.062949	-0.447376
C46	C	0.601847	1.039867	-0.453710
C47	C	0.572683	0.914795	-0.487566
H48	H	0.752157	0.760388	-0.529128
H49	H	0.802909	0.978047	-0.470209
H50	H	0.707454	1.155535	-0.422314
H51	H	0.561240	1.115368	-0.433336
H52	H	0.510488	0.897709	-0.492254
C53	C	0.519720	0.343722	-0.641734
C54	C	0.539171	0.234716	-0.563452
C55	C	0.509881	0.109677	-0.597146
C56	C	0.461139	0.093644	-0.709123
C57	C	0.441684	0.202652	-0.787412
C58	C	0.470975	0.327691	-0.753718
H59	H	0.575256	0.246582	-0.480554
H60	H	0.524283	0.028982	-0.539191
H61	H	0.439456	0.001082	-0.734065
H62	H	0.405600	0.190786	-0.870310
H63	H	0.456573	0.408387	-0.811673
C64	C	0.519566	0.640802	-0.343858
C65	C	0.540128	0.762230	-0.287620
C66	C	0.510752	0.795623	-0.162513
C67	C	0.460814	0.707588	-0.093645
C68	C	0.440250	0.586152	-0.149883
C69	C	0.469626	0.552759	-0.274990
H70	H	0.577098	0.827406	-0.338600
H71	H	0.525976	0.885519	-0.120882
H72	H	0.439068	0.732307	-0.001034
H73	H	0.403280	0.520976	-0.098903
H74	H	0.454402	0.462863	-0.316620
C75	C	0.520008	0.750365	-0.750038
C76	C	0.436018	0.766751	-0.767751
C77	C	0.406959	0.858565	-0.859204
C78	C	0.461891	0.933993	-0.932943
C79	C	0.545886	0.917609	-0.915232
C80	C	0.574945	0.825795	-0.823780
H81	H	0.395349	0.710913	-0.713163
H82	H	0.344780	0.870693	-0.872314
H83	H	0.440380	1.001959	-1.000642
H84	H	0.586555	0.973447	-0.969820
H85	H	0.637124	0.813667	-0.810669
