data_functionalizedCrystal
_audit_creation_method	'MofGen! by Chris Wilmer'
_symmetry_space_group_name_H-M	'P1'
_symmetry_Int_Tables_number	1
_symmetry_cell_setting	triclinic
loop_
_symmetry_equiv_pos_as_xyz
  x,y,z
_cell_length_a	15.995292
_cell_length_b	15.995292
_cell_length_c	12.503572
_cell_angle_alpha	93.525692
_cell_angle_beta	86.481317
_cell_angle_gamma	83.468616
loop_
_atom_site_label
_atom_site_type_symbol
_atom_site_fract_x
_atom_site_fract_y
_atom_site_fract_z
O1	O	1.115824	0.102851	-0.089342
O2	O	0.872039	0.116231	-0.089337
O3	O	1.000621	-0.012351	-0.089342
O4	O	0.987242	0.231433	-0.089338
O5	O	0.990951	-0.002665	0.089301
O6	O	0.862369	0.125917	0.089305
O7	O	1.106154	0.112538	0.089300
Cu8	Cu	0.983378	0.120112	0.105614
Cu9	Cu	0.994815	0.108657	-0.105651
O10	O	0.977572	0.241120	0.089304
C11	C	0.836009	0.120529	-0.000016
C12	C	0.743056	0.118897	-0.000014
C13	C	0.405319	0.112895	-0.000026
C14	C	0.428634	0.205680	-0.000424
C15	C	0.525287	0.207466	-0.000016
C16	C	0.572874	0.115873	-0.000021
C17	C	0.538260	0.075005	0.101989
C18	C	0.441466	0.073892	0.102069
C19	C	0.452607	0.060982	-0.101080
C20	C	0.549172	0.064348	-0.102424
C21	C	0.667570	0.117551	-0.000014
C22	C	0.310624	0.111214	-0.000026
C23	C	0.995242	-0.038704	-0.000023
C24	C	0.993610	-0.131657	-0.000031
C25	C	0.987608	-0.469394	-0.000021
C26	C	1.080393	-0.446079	0.000376
C27	C	1.082179	-0.349426	-0.000031
C28	C	0.990586	-0.301839	-0.000026
C29	C	0.949709	-0.336461	-0.102035
C30	C	0.948596	-0.433256	-0.102116
C31	C	0.935704	-0.422097	0.101033
C32	C	0.939070	-0.325533	0.102378
C33	C	0.992264	-0.207143	-0.000032
C34	C	0.985927	-0.564089	-0.000022
C35	C	1.142185	0.108239	-0.000024
C36	C	1.235138	0.109871	-0.000033
C37	C	0.982952	0.267472	-0.000017
C38	C	0.984584	0.360425	-0.000016
N39	N	0.975341	0.128168	0.254206
N40	N	1.002859	0.100594	-0.254244
C41	C	0.963518	0.140026	0.473322
C42	C	1.014679	0.088738	0.526647
C43	C	1.008101	0.095336	0.648571
C44	C	0.970095	0.133429	0.351388
H45	H	0.428459	0.085798	-0.178398
H46	H	0.880799	-0.448042	-0.106734
O47	O	1.079244	0.024010	0.465835
H48	H	1.143399	0.035734	0.487339
H49	H	0.914780	0.188888	0.519231
H50	H	0.871883	-0.292215	0.108542
O51	O	0.555731	0.250356	-0.096865
H52	H	0.501392	0.270009	-0.144413
O53	O	0.997785	-0.315500	-0.202710
H54	H	1.022842	-0.374765	-0.250590
H55	H	0.404590	0.237485	-0.073579
H56	H	1.122697	-0.335001	-0.073284
H57	H	0.395670	0.245198	0.072322
O58	O	0.860703	-0.294502	-0.107074
H59	H	0.844621	-0.248413	-0.036760
O60	O	0.434142	-0.029555	-0.102014
H61	H	0.391499	-0.037584	-0.030895
H62	H	0.571819	0.094040	-0.177890
O63	O	0.593290	-0.024657	-0.110593
H64	H	0.632972	-0.033600	-0.041481
H65	H	0.410514	0.110161	0.178326
O66	O	0.544373	0.261079	0.097092
H67	H	0.512630	0.326179	0.093617
O68	O	0.421866	-0.015904	0.108219
H69	H	0.481500	-0.058341	0.111131
H70	H	0.569937	0.007810	0.105779
H71	H	1.114559	-0.326444	0.073092
O72	O	0.559364	0.123136	0.202559
H73	H	0.594483	0.176170	0.180148
O74	O	0.996966	-0.474117	-0.202978
H75	H	0.966712	-0.450076	-0.274378
O76	O	0.968669	-0.453969	0.203459
H77	H	1.022421	-0.503882	0.183477
O78	O	1.122522	-0.477902	0.097297
H79	H	1.124234	-0.547537	0.095670
H80	H	0.968771	-0.302883	0.177843
H81	H	1.119904	-0.479049	-0.072370
O82	O	0.845168	-0.440567	0.101970
H83	H	0.837133	-0.483216	0.030853
