data_functionalizedCrystal
_audit_creation_method	'MofGen! by Chris Wilmer'
_symmetry_space_group_name_H-M	'P1'
_symmetry_Int_Tables_number	1
_symmetry_cell_setting	triclinic
loop_
_symmetry_equiv_pos_as_xyz
  x,y,z
_cell_length_a	15.944551
_cell_length_b	16.974829
_cell_length_c	16.053770
_cell_angle_alpha	83.469087
_cell_angle_beta	87.097463
_cell_angle_gamma	83.448291
loop_
_atom_site_label
_atom_site_type_symbol
_atom_site_fract_x
_atom_site_fract_y
_atom_site_fract_z
O1	O	0.113520	1.055148	-0.140724
O2	O	0.613520	1.555148	0.359276
O3	O	0.126437	0.824278	-0.125127
O4	O	0.626437	1.324278	0.374873
O5	O	-0.002285	0.946017	-0.133344
O6	O	0.497715	1.446017	0.366656
O7	O	0.242242	0.933408	-0.132507
O8	O	0.742242	1.433408	0.367493
O9	O	-0.008654	0.940072	0.005918
O10	O	0.491346	1.440072	0.505918
O11	O	0.120067	0.818333	0.014135
O12	O	0.620067	1.318333	0.514135
O13	O	0.107151	1.049203	-0.001462
O14	O	0.607151	1.549203	0.498538
Zn15	Zn	0.112598	0.932824	0.028447
Zn16	Zn	0.612598	1.432824	0.528447
Zn17	Zn	0.120990	0.940657	-0.155036
Zn18	Zn	0.620990	1.440657	0.344964
O19	O	0.235872	0.927464	0.006755
O20	O	0.735872	1.427464	0.506755
C21	C	0.122641	0.791762	-0.053500
C22	C	0.622641	1.291762	0.446500
C23	C	0.120811	0.703732	-0.047553
C24	C	0.620811	1.203732	0.452447
C25	C	0.110165	0.207864	-0.005926
C26	C	0.610165	0.707864	0.494074
C27	C	0.111884	0.290578	-0.011516
C28	C	0.611884	0.790578	0.488484
C29	C	0.116210	0.335176	-0.090224
C30	C	0.616210	0.835176	0.409776
C31	C	0.118825	0.297055	-0.163347
C32	C	0.618825	0.797055	0.336653
C33	C	0.117111	0.214342	-0.157756
C34	C	0.617111	0.714342	0.342244
C35	C	0.121712	0.582898	-0.115085
C36	C	0.621712	1.082898	0.384915
C37	C	0.123423	0.665617	-0.120670
C38	C	0.623423	1.165617	0.379330
C39	C	0.116484	0.659133	0.031161
C40	C	0.616484	1.159133	0.531161
C41	C	0.114766	0.576420	0.036745
C42	C	0.614766	1.076420	0.536745
C43	C	0.117385	0.538306	-0.036377
C44	C	0.617385	1.038306	0.463623
N45	N	0.117965	0.419723	-0.095940
N46	N	0.617965	0.919723	0.404060
N47	N	0.115636	0.453760	-0.030661
N48	N	0.615636	0.953760	0.469339
C49	C	-0.036764	0.942521	-0.063677
C50	C	0.463236	1.442521	0.436323
C51	C	-0.130013	0.940952	-0.063571
C52	C	0.369987	1.440952	0.436429
C53	C	-0.345021	0.861741	-0.058231
C54	C	0.154979	1.361741	0.441769
C55	C	-0.409108	0.895593	0.007948
C56	C	0.090892	1.395593	0.507948
C57	C	-0.300744	0.938113	-0.063386
C58	C	0.199256	1.438113	0.436614
C59	C	-0.402812	0.901472	-0.129354
C60	C	0.097188	1.401472	0.370646
C61	C	-0.465662	0.935365	-0.063210
C62	C	0.034338	1.435365	0.436790
C63	C	-0.363606	0.971983	0.002849
C64	C	0.136394	1.471983	0.502849
C65	C	-0.357301	0.977854	-0.134514
C66	C	0.142699	1.477854	0.365486
C67	C	-0.421372	1.011761	-0.068322
C68	C	0.078628	1.511761	0.431678
C69	C	-0.205739	0.939694	-0.063486
C70	C	0.294261	1.439694	0.436514
C71	C	-0.560666	0.933791	-0.063104
C72	C	-0.060666	1.433791	0.436896
C73	C	0.270352	0.930960	-0.062913
C74	C	0.770352	1.430960	0.437087
C75	C	0.363601	0.932529	-0.063025
C76	C	0.863601	1.432529	0.436975
C77	C	0.110947	1.081719	-0.073091
C78	C	0.610947	1.581719	0.426909
C79	C	0.112777	1.169749	-0.079044
C80	C	0.612777	1.669749	0.420956
N81	N	0.126711	0.946002	-0.280259
N82	N	0.626711	1.446002	0.219741
C83	C	0.077527	0.899884	-0.320827
C84	C	0.577527	1.399884	0.179173
C85	C	0.081506	0.903636	-0.408488
C86	C	0.581506	1.403636	0.091512
C87	C	0.134674	0.953502	-0.455579
C88	C	0.634674	1.453502	0.044421
C89	C	0.183859	0.999625	-0.415004
C90	C	0.683859	1.499625	0.084996
C91	C	0.179876	0.995877	-0.327345
C92	C	0.679876	1.495877	0.172655
C93	C	0.152072	0.969860	-0.718097
C94	C	0.652072	1.469860	-0.218097
C95	C	0.156054	0.973603	-0.805762
C96	C	0.656054	1.473603	-0.305762
C97	C	0.053699	0.877614	-0.799240
C98	C	0.553699	1.377614	-0.299240
C99	C	0.049723	0.873867	-0.711579
C100	C	0.549723	1.373867	-0.211579
C101	C	0.098906	0.919994	-0.671013
C102	C	0.598906	1.419994	-0.171013
N103	N	0.138744	0.957335	-0.545182
N104	N	0.638744	1.457335	-0.045182
N105	N	0.094830	0.916164	-0.581411
N106	N	0.594830	1.416164	-0.081411
N107	N	0.106870	0.927485	0.153669
N108	N	0.606870	1.427485	0.653669
H109	H	0.106646	0.171557	0.058166
H110	H	0.606646	0.671557	0.558166
C111	C	0.109024	0.332499	0.068913
C112	C	0.609024	0.832499	0.568913
H113	H	0.106197	0.294092	0.116589
H114	H	0.606197	0.794092	0.616589
H115	H	0.158494	0.358583	0.070285
H116	H	0.658494	0.858583	0.570285
H117	H	0.060608	0.370677	0.069493
H118	H	0.560608	0.870677	0.569493
H119	H	-0.454411	1.075207	-0.072569
H120	H	0.045589	1.575207	0.427431
H121	H	-0.334454	1.012607	-0.194748
H122	H	0.165546	1.512607	0.305252
H123	H	-0.420295	0.871638	-0.185226
H124	H	0.079705	1.371638	0.314774
C125	C	-0.008784	0.819037	-0.659787
C126	C	0.491216	1.319037	-0.159787
H127	H	-0.037519	0.792118	-0.696505
H128	H	0.462481	1.292118	-0.196505
H129	H	0.023905	0.781025	-0.623124
H130	H	0.523905	1.281025	-0.123124
H131	H	-0.048853	0.850153	-0.627789
H132	H	0.451147	1.350153	-0.127789
C133	C	0.110015	0.527367	0.123324
C134	C	0.610015	1.027367	0.623324
H135	H	0.108713	0.561912	0.166071
H136	H	0.608713	1.061912	0.666071
H137	H	0.060264	0.501004	0.128260
H138	H	0.560264	1.001004	0.628260
H139	H	0.158150	0.488926	0.129059
H140	H	0.658150	0.988926	0.629059
C141	C	0.206178	1.020591	-0.673484
C142	C	0.706178	1.520591	-0.173484
H143	H	0.238419	1.050817	-0.714086
H144	H	0.738419	1.550817	-0.214086
H145	H	0.170365	1.055677	-0.641745
H146	H	0.670365	1.555677	-0.141745
H147	H	0.243145	0.986570	-0.637104
H148	H	0.743145	1.486570	-0.137104
H149	H	0.013656	0.840062	-0.832279
H150	H	0.513656	1.340062	-0.332279
C151	C	-0.300195	0.776102	-0.052367
C152	C	0.199805	1.276102	0.447633
H153	H	-0.264051	0.769979	-0.100626
H154	H	0.235949	1.269979	0.399374
H155	H	-0.267733	0.766208	-0.003519
H156	H	0.232267	1.266208	0.496481
H157	H	-0.341154	0.739284	-0.049353
H158	H	0.158846	1.239284	0.450647
H159	H	0.123842	0.551876	-0.174626
H160	H	0.623842	1.051876	0.325374
H161	H	0.114354	0.690175	0.090694
H162	H	0.614354	1.190175	0.590694
C163	C	0.128191	0.714673	-0.207252
C164	C	0.628191	1.214673	0.292748
H165	H	0.129514	0.680127	-0.250001
H166	H	0.629514	1.180127	0.249999
H167	H	0.080064	0.753115	-0.212996
H168	H	0.580064	1.253115	0.287004
H169	H	0.177949	0.741031	-0.212176
H170	H	0.677949	1.241031	0.287824
H171	H	0.034236	0.859274	-0.282492
H172	H	0.534236	1.359274	0.217508
C173	C	0.027408	0.852901	-0.453110
C174	C	0.527408	1.352901	0.046890
H175	H	-0.004819	0.822659	-0.412510
H176	H	0.495181	1.322659	0.087490
H177	H	-0.009559	0.886914	-0.489491
H178	H	0.490441	1.386914	0.010509
H179	H	0.063232	0.817817	-0.484849
H180	H	0.563232	1.317817	0.015151
C181	C	-0.340120	1.012232	0.078413
C182	C	0.159880	1.512232	0.578413
H183	H	-0.389975	1.028059	0.109996
H184	H	0.110025	1.528059	0.609996
H185	H	-0.303618	0.975664	0.112888
H186	H	0.196382	1.475664	0.612888
H187	H	-0.312286	1.057815	0.058969
H188	H	0.187714	1.557815	0.558969
H189	H	0.122352	0.333373	-0.227433
H190	H	0.622352	0.833373	0.272567
H191	H	0.119240	0.183310	-0.217296
H192	H	0.619240	0.683310	0.282704
H193	H	0.199356	1.014208	-0.844101
H194	H	0.699356	1.514208	-0.344101
C195	C	0.242345	1.054474	-0.466801
C196	C	0.742345	1.554474	0.033199
H197	H	0.237681	1.050096	-0.524818
H198	H	0.737681	1.550096	-0.024818
H199	H	0.226333	1.108130	-0.456097
H200	H	0.726333	1.608130	0.043903
H201	H	0.299112	1.039022	-0.451450
H202	H	0.799112	1.539022	0.048550
H203	H	-0.431933	0.860813	0.068181
H204	H	0.068067	1.360813	0.568181
H205	H	0.219926	1.033432	-0.294316
H206	H	0.719926	1.533432	0.205684
