data_functionalizedCrystal
_audit_creation_method	'MofGen! by Chris Wilmer'
_symmetry_space_group_name_H-M	'P1'
_symmetry_Int_Tables_number	1
_symmetry_cell_setting	triclinic
loop_
_symmetry_equiv_pos_as_xyz
  x,y,z
_cell_length_a	16.109301
_cell_length_b	12.503552
_cell_length_c	16.109304
_cell_angle_alpha	86.478516
_cell_angle_beta	83.462111
_cell_angle_gamma	93.519831
loop_
_atom_site_label
_atom_site_type_symbol
_atom_site_fract_x
_atom_site_fract_y
_atom_site_fract_z
O1	O	1.107930	0.089255	0.102064
O2	O	0.865869	0.089269	0.115363
O3	O	0.993548	0.089262	-0.012317
O4	O	0.980251	0.089262	0.229744
O5	O	0.983935	-0.089380	-0.002707
O6	O	0.856256	-0.089373	0.124973
O7	O	1.098317	-0.089387	0.111675
Cu8	Cu	0.976409	-0.105691	0.119202
Cu9	Cu	0.987778	0.105574	0.107836
O10	O	0.970638	-0.089380	0.239355
C11	C	0.830088	-0.000050	0.119629
C12	C	0.737793	-0.000044	0.118014
N13	N	0.968419	-0.254283	0.127195
C14	C	0.428794	-0.000063	0.188498
C15	C	0.515515	-0.000057	0.190023
C16	C	0.535387	-0.000042	0.038533
C17	C	0.448669	-0.000041	0.037009
C18	C	0.395374	-0.000056	0.111994
C19	C	0.568813	-0.000052	0.115043
C20	C	0.662840	-0.000045	0.116696
C21	C	0.301342	-0.000061	0.110341
C22	C	1.007524	-0.526719	0.088074
C23	C	0.956672	-0.473392	0.138954
C24	C	0.963210	-0.351469	0.132410
C25	C	1.000987	-0.648653	0.094617
C26	C	1.134099	-0.000065	0.107408
C27	C	1.226394	-0.000064	0.109023
C28	C	0.988203	-0.000056	-0.038487
C29	C	0.986587	-0.000049	-0.130783
N30	N	0.995774	0.254166	0.099836
C31	C	0.988094	0.097325	-0.348359
C32	C	0.986567	0.097324	-0.435079
C33	C	0.976091	-0.097441	-0.424598
C34	C	0.977611	-0.097439	-0.337878
C35	C	0.983617	-0.000053	-0.299762
C36	C	0.980570	-0.000056	-0.473201
C37	C	0.978916	-0.000057	-0.567227
C38	C	0.985270	-0.000050	-0.205730
C39	C	0.975984	-0.000059	0.265524
C40	C	0.977600	-0.000059	0.357820
H41	H	0.385404	-0.000075	0.249555
H42	H	0.992982	0.176624	-0.317327
C43	C	0.845522	-0.462408	0.250181
C44	C	0.891275	-0.535363	0.204400
H45	H	0.805150	-0.500671	0.290581
H46	H	0.882459	-0.418541	0.277749
H47	H	0.817916	-0.418546	0.213261
H48	H	0.918886	-0.579220	0.241320
H49	H	0.854332	-0.579248	0.176831
H50	H	0.542721	-0.000061	0.252320
H51	H	0.973960	-0.176740	-0.298308
H52	H	0.578790	-0.000032	-0.022516
H53	H	0.421459	-0.000032	-0.025294
C54	C	1.066853	-0.354212	0.028777
C55	C	1.072945	-0.464747	0.022662
H56	H	1.107252	-0.315946	-0.011595
H57	H	1.012347	-0.335846	0.018769
H58	H	1.076844	-0.335878	0.083303
H59	H	1.062948	-0.483082	-0.031862
H60	H	1.127464	-0.483120	0.032664
H61	H	0.990211	0.176619	-0.474643
C62	C	0.969125	-0.183925	-0.552881
C63	C	0.969506	-0.204484	-0.466501
H64	H	0.965068	-0.250012	-0.578748
H65	H	0.922574	-0.143927	-0.562891
H66	H	1.019484	-0.143906	-0.575588
H67	H	0.919144	-0.244497	-0.443793
H68	H	1.016061	-0.244499	-0.456485
