data_functionalizedCrystal
_audit_creation_method	'MofGen! by Chris Wilmer'
_symmetry_space_group_name_H-M	'P1'
_symmetry_Int_Tables_number	1
_symmetry_cell_setting	triclinic
loop_
_symmetry_equiv_pos_as_xyz
  x,y,z
_cell_length_a	15.944493
_cell_length_b	15.944551
_cell_length_c	7.540329
_cell_angle_alpha	89.995457
_cell_angle_beta	89.997607
_cell_angle_gamma	83.486891
loop_
_atom_site_label
_atom_site_type_symbol
_atom_site_fract_x
_atom_site_fract_y
_atom_site_fract_z
O1	O	1.114553	0.108099	-0.147463
O2	O	0.869996	0.121506	-0.147472
O3	O	0.998953	-0.007474	-0.147451
O4	O	0.985596	0.237079	-0.147484
O5	O	0.998945	-0.007475	0.147514
O6	O	0.869989	0.121504	0.147493
O7	O	1.114545	0.108097	0.147502
Cu8	Cu	0.992266	0.114801	0.174430
Cu9	Cu	0.992275	0.114803	-0.174400
O10	O	0.985589	0.237077	0.147482
C11	C	0.838698	0.120957	0.000010
C12	C	0.745449	0.119314	0.000007
C13	C	0.509689	0.195235	-0.000005
C14	C	0.459127	0.154293	0.145442
C15	C	0.574728	0.116270	0.000010
C16	C	0.459139	0.154276	-0.145371
C17	C	0.409819	0.113336	0.000006
C18	C	0.525394	0.075350	0.145577
C19	C	0.525410	0.075344	-0.145366
C20	C	0.474880	0.034345	0.000115
C21	C	0.669728	0.117963	0.000014
C22	C	0.314821	0.111637	0.000015
C23	C	0.998395	-0.038768	0.000032
C24	C	0.996732	-0.132014	0.000033
C25	C	0.912826	-0.346853	0.000005
C26	C	0.951785	-0.407879	0.145442
C27	C	0.993725	-0.302739	0.000019
C28	C	0.951812	-0.407861	-0.145370
C29	C	0.990814	-0.467651	-0.000002
C30	C	1.032707	-0.362537	0.145576
C31	C	1.032722	-0.362513	-0.145367
C32	C	1.071741	-0.423521	0.000106
C33	C	0.995399	-0.207737	0.000033
C34	C	0.989146	-0.562652	-0.000003
C35	C	1.145844	0.108646	0.000017
C36	C	1.239092	0.110289	0.000008
C37	C	0.986147	0.268372	-0.000005
C38	C	0.987809	0.361617	-0.000018
N39	N	0.992266	0.114799	0.419779
N40	N	0.992282	0.114798	-0.419748
H41	H	0.845675	-0.313532	0.000148
H42	H	0.917565	-0.427981	0.268395
H43	H	1.138950	-0.456694	0.000190
H44	H	0.459415	-0.033726	0.000208
C45	C	0.606692	0.086883	-0.410506
C46	C	0.564515	0.030368	-0.311345
H47	H	0.630840	0.059119	-0.512977
H48	H	0.567801	0.133521	-0.445421
H49	H	0.650051	0.106328	-0.340373
H50	H	0.521152	0.010928	-0.381475
H51	H	0.603409	-0.016285	-0.276433
H52	H	0.430204	0.187641	-0.268317
H53	H	1.066892	-0.342555	0.268667
H54	H	0.917587	-0.427930	-0.268334
C55	C	0.497167	0.328214	0.152661
C56	C	0.530800	0.287052	0.000170
H57	H	0.510207	0.384894	0.152777
H58	H	0.437649	0.327785	0.153708
H59	H	0.520849	0.299885	0.254918
H60	H	0.507113	0.315377	-0.102087
H61	H	0.590330	0.287486	-0.000893
C62	C	0.332575	0.196594	0.310416
C63	C	0.420044	0.199312	0.311407
H64	H	0.308449	0.224388	0.412874
H65	H	0.309019	0.224078	0.207142
H66	H	0.320939	0.139468	0.310592
H67	H	0.431680	0.256438	0.311219
H68	H	0.443608	0.171830	0.414710
C69	C	0.651864	0.032371	0.310286
C70	C	0.564298	0.030366	0.311753
H71	H	0.675880	0.004606	0.412883
H72	H	0.675125	0.004521	0.207152
H73	H	0.663974	0.089347	0.309860
H74	H	0.552188	-0.026611	0.312166
H75	H	0.541029	0.058213	0.414915
C76	C	1.036395	-0.357947	-0.463509
C77	C	1.078877	-0.335334	-0.311352
H78	H	1.064883	-0.341160	-0.565989
H79	H	1.035234	-0.417368	-0.465292
H80	H	0.980260	-0.330634	-0.462447
H81	H	1.135011	-0.362652	-0.312407
H82	H	1.080048	-0.275902	-0.309569
