data_functionalizedCrystal
_audit_creation_method	'MofGen! by Chris Wilmer'
_symmetry_space_group_name_H-M	'P1'
_symmetry_Int_Tables_number	1
_symmetry_cell_setting	triclinic
loop_
_symmetry_equiv_pos_as_xyz
  x,y,z
_cell_length_a	14.971486
_cell_length_b	17.038272
_cell_length_c	14.048226
_cell_angle_alpha	89.993466
_cell_angle_beta	89.998499
_cell_angle_gamma	87.362843
loop_
_atom_site_label
_atom_site_type_symbol
_atom_site_fract_x
_atom_site_fract_y
_atom_site_fract_z
O1	O	1.194576	0.101897	-0.079052
O2	O	1.527909	0.435231	0.254282
O3	O	1.861243	0.768564	0.587615
O4	O	0.935090	0.114100	-0.079077
O5	O	1.268423	0.447433	0.254256
O6	O	1.601756	0.780766	0.587589
O7	O	1.063291	-0.005819	-0.079057
O8	O	1.396624	0.327515	0.254276
O9	O	1.729957	0.660848	0.587610
O10	O	1.066375	0.221816	-0.079072
O11	O	1.399708	0.555149	0.254261
O12	O	1.733042	0.888482	0.587595
O13	O	1.063274	-0.005826	0.079264
O14	O	1.396607	0.327508	0.412598
O15	O	1.729940	0.660841	0.745931
O16	O	0.935073	0.114093	0.079244
O17	O	1.268406	0.447426	0.412577
O18	O	1.601739	0.780759	0.745911
O19	O	1.194559	0.101890	0.079270
O20	O	1.527892	0.435224	0.412603
O21	O	1.861226	0.768557	0.745936
Zn22	Zn	1.064813	0.107990	0.104394
Zn23	Zn	1.398146	0.441324	0.437727
Zn24	Zn	1.731480	0.774657	0.771060
Zn25	Zn	1.064836	0.108000	-0.104201
Zn26	Zn	1.398169	0.441333	0.229132
Zn27	Zn	1.731502	0.774666	0.562465
O28	O	1.066358	0.221809	0.079249
O29	O	1.399691	0.555142	0.412583
O30	O	1.733025	0.888475	0.745916
C31	C	0.901716	0.113551	0.000080
C32	C	1.235049	0.446884	0.333413
C33	C	1.568382	0.780217	0.666747
C34	C	0.802296	0.111915	0.000070
C35	C	1.135629	0.445249	0.333403
C36	C	1.468963	0.778582	0.666737
C37	C	1.060477	-0.034954	0.000103
C38	C	1.393810	0.298380	0.333437
C39	C	1.727144	0.631713	0.666770
C40	C	1.052107	-0.121756	0.000102
C41	C	1.385440	0.211577	0.333435
C42	C	1.718774	0.544910	0.666769
C43	C	0.750345	0.182364	0.000067
C44	C	1.083679	0.515697	0.333400
C45	C	1.417012	0.849031	0.666734
C46	C	0.656930	0.180823	0.000081
C47	C	0.990264	0.514156	0.333415
C48	C	1.323597	0.847489	0.666748
C49	C	0.615468	0.108832	0.000092
C50	C	0.948801	0.442165	0.333425
C51	C	1.282135	0.775499	0.666759
C52	C	0.667426	0.038378	0.000098
C53	C	1.000759	0.371711	0.333431
C54	C	1.334092	0.705044	0.666765
C55	C	0.760839	0.039920	0.000091
C56	C	1.094172	0.373253	0.333424
C57	C	1.427506	0.706586	0.666757
C58	C	0.472723	0.035169	0.000111
C59	C	0.806056	0.368502	0.333445
C60	C	1.139390	0.701835	0.666778
C61	C	0.379303	0.033626	0.000117
C62	C	0.712637	0.366959	0.333450
C63	C	1.045970	0.700293	0.666784
C64	C	0.368815	0.176072	0.000102
C65	C	0.702148	0.509405	0.333435
C66	C	1.035481	0.842738	0.666769
C67	C	0.462228	0.177614	0.000095
C68	C	0.795561	0.510947	0.333428
C69	C	1.128894	0.844280	0.666761
C70	C	0.514179	0.107159	0.000099
C71	C	0.847512	0.440492	0.333432
C72	C	1.180846	0.773826	0.666766
C73	C	1.128951	-0.171781	0.000111
C74	C	1.462284	0.161552	0.333444
C75	C	1.795618	0.494886	0.666777
C76	C	1.121081	-0.253341	0.000101
C77	C	1.454415	0.079993	0.333434
C78	C	1.787748	0.413326	0.666768
C79	C	1.036367	-0.284874	0.000089
C80	C	1.369701	0.048459	0.333423
C81	C	1.703034	0.381793	0.666756
C82	C	0.959518	-0.234843	0.000078
C83	C	1.292851	0.098490	0.333411
C84	C	1.626184	0.431824	0.666744
C85	C	0.967388	-0.153285	0.000081
C86	C	1.300721	0.180049	0.333414
C87	C	1.634055	0.513382	0.666747
C88	C	1.008563	-0.530664	0.000073
C89	C	1.341896	-0.197331	0.333407
C90	C	1.675229	0.136002	0.666740
C91	C	1.000698	-0.612229	0.000073
C92	C	1.334031	-0.278896	0.333407
C93	C	1.667364	0.054438	0.666740
C94	C	1.162262	-0.630721	0.000095
C95	C	1.495596	-0.297388	0.333428
C96	C	1.828929	0.035946	0.666761
C97	C	1.170125	-0.549161	0.000103
C98	C	1.503459	-0.215827	0.333437
C99	C	1.836792	0.117506	0.666770
C100	C	1.093276	-0.499137	0.000087
C101	C	1.426609	-0.165803	0.333420
C102	C	1.759942	0.167530	0.666754
C103	C	1.028321	-0.368241	0.000082
C104	C	1.361655	-0.034908	0.333416
C105	C	1.694988	0.298426	0.666749
C106	C	1.101323	-0.415771	0.000087
C107	C	1.434656	-0.082438	0.333420
C108	C	1.767989	0.250895	0.666754
C109	C	1.227933	0.102440	0.000110
C110	C	1.561267	0.435773	0.333444
C111	C	1.894600	0.769106	0.666777
C112	C	1.327353	0.104075	0.000114
C113	C	1.660686	0.437408	0.333447
C114	C	1.994019	0.770742	0.666780
C115	C	1.069172	0.250944	0.000087
C116	C	1.402505	0.584277	0.333420
C117	C	1.735839	0.917610	0.666754
C118	C	1.077542	0.337746	0.000082
C119	C	1.410875	0.671080	0.333415
C120	C	1.744208	1.004413	0.666749
N121	N	1.064804	0.107984	0.246754
N122	N	1.398138	0.441317	0.580088
N123	N	1.731471	0.774650	0.913421
N124	N	1.064851	0.108000	-0.246562
N125	N	1.398184	0.441334	0.086771
N126	N	1.731518	0.774667	0.420105
C127	C	1.121592	0.054906	0.296581
C128	C	1.454926	0.388239	0.629915
C129	C	1.788259	0.721572	0.963248
C130	C	1.121599	0.054905	0.396239
C131	C	1.454932	0.388239	0.729572
C132	C	1.788265	0.721572	1.062906
C133	C	1.064820	0.107987	0.446068
C134	C	1.398154	0.441320	0.779401
C135	C	1.731487	0.774654	1.112735
C136	C	1.008026	0.161067	0.396234
C137	C	1.341359	0.494401	0.729567
C138	C	1.674692	0.827734	1.062901
C139	C	1.008016	0.161064	0.296578
C140	C	1.341349	0.494397	0.629911
C141	C	1.674683	0.827730	0.963245
C142	C	1.008052	0.161073	0.603948
C143	C	1.341385	0.494406	0.937281
C144	C	1.674719	0.827740	1.270615
C145	C	1.008063	0.161078	0.703611
C146	C	1.341396	0.494412	1.036944
C147	C	1.674730	0.827745	1.370278
C148	C	1.121635	0.054915	0.703609
C149	C	1.454968	0.388248	1.036943
C150	C	1.788301	0.721582	1.370276
C151	C	1.121625	0.054911	0.603953
C152	C	1.454958	0.388244	0.937287
C153	C	1.788291	0.721578	1.270620
C154	C	1.064831	0.107993	0.554126
C155	C	1.398165	0.441326	0.887460
C156	C	1.731498	0.774659	1.220793
H157	H	0.784097	0.240987	0.000058
H158	H	1.117430	0.574321	0.333391
H159	H	1.450763	0.907654	0.666724
Cl160	Cl	0.936650	0.227804	0.541312
Cl161	Cl	1.269983	0.561138	0.874645
Cl162	Cl	1.603317	0.894471	1.207979
H163	H	0.890541	-0.260524	0.000062
H164	H	1.223875	0.072810	0.333395
H165	H	1.557208	0.406143	0.666729
Cl166	Cl	0.911950	-0.467788	0.000050
Cl167	Cl	1.245284	-0.134454	0.333384
Cl168	Cl	1.578617	0.198879	0.666717
H169	H	0.961791	0.204285	0.436810
H170	H	1.295124	0.537618	0.770144
H171	H	1.628458	0.870952	1.103477
Cl172	Cl	0.826149	-0.048648	0.000099
Cl173	Cl	1.159482	0.284685	0.333432
Cl174	Cl	1.492816	0.618018	0.666765
Cl175	Cl	0.591624	0.269391	0.000071
Cl176	Cl	0.924958	0.602725	0.333405
Cl177	Cl	1.258291	0.936058	0.666738
Cl178	Cl	0.514351	0.268118	0.000071
Cl179	Cl	0.847684	0.601451	0.333404
Cl180	Cl	1.181017	0.934784	0.666737
H181	H	1.167839	0.011685	0.436808
H182	H	1.501172	0.345018	0.770141
H183	H	1.834506	0.678351	1.103475
Cl184	Cl	0.921826	-0.407890	0.000062
Cl185	Cl	1.255160	-0.074557	0.333396
Cl186	Cl	1.588493	0.258777	0.666729
Cl187	Cl	1.192980	-0.011826	0.233950
Cl188	Cl	1.526313	0.321507	0.567284
Cl189	Cl	1.859647	0.654840	0.900617
Cl190	Cl	0.894192	-0.651869	0.000064
Cl191	Cl	1.227525	-0.318536	0.333398
Cl192	Cl	1.560859	0.014798	0.666731
H193	H	1.167877	0.011694	0.744184
H194	H	1.501211	0.345027	1.077518
H195	H	1.834544	0.678361	1.410851
Cl196	Cl	1.258867	-0.693612	0.000113
Cl197	Cl	1.592200	-0.360279	0.333446
Cl198	Cl	1.925533	-0.026945	0.666779
H199	H	0.904813	-0.112555	0.000073
H200	H	1.238147	0.220779	0.333407
H201	H	1.571480	0.554112	0.666740
Cl202	Cl	0.615301	-0.052126	0.000117
Cl203	Cl	0.948635	0.281208	0.333451
Cl204	Cl	1.281968	0.614541	0.666784
Cl205	Cl	0.327180	-0.056878	0.000162
Cl206	Cl	0.660514	0.276455	0.333496
Cl207	Cl	0.993847	0.609789	0.666829
Cl208	Cl	0.936679	0.227811	0.766245
Cl209	Cl	1.270012	0.561145	1.099579
Cl210	Cl	1.603345	0.894478	1.432912
H211	H	1.167862	0.011692	0.563383
H212	H	1.501196	0.345025	0.896716
H213	H	1.834529	0.678358	1.230050
H214	H	0.326511	0.233438	0.000103
H215	H	0.659845	0.566772	0.333436
H216	H	0.993178	0.900105	0.666769
Cl217	Cl	1.235454	-0.132148	0.000135
Cl218	Cl	1.568788	0.201186	0.333469
Cl219	Cl	1.902121	0.534519	0.666802
H220	H	1.239108	-0.523493	0.000113
H221	H	1.572442	-0.190159	0.333446
H222	H	1.905775	0.143174	0.666780
Cl223	Cl	0.538032	-0.053404	0.000118
Cl224	Cl	0.871365	0.279929	0.333452
Cl225	Cl	1.204699	0.613262	0.666785
Cl226	Cl	1.217690	-0.316226	0.000115
Cl227	Cl	1.551024	0.017107	0.333448
Cl228	Cl	1.884357	0.350441	0.666781
Cl229	Cl	1.207817	-0.376128	0.000097
Cl230	Cl	1.541150	-0.042794	0.333430
Cl231	Cl	1.874483	0.290539	0.666763
H232	H	0.961772	0.204284	0.256010
H233	H	1.295105	0.537617	0.589343
H234	H	1.628439	0.870951	0.922676
