data_functionalizedCrystal
_audit_creation_method	'MofGen! by Chris Wilmer'
_symmetry_space_group_name_H-M	'P1'
_symmetry_Int_Tables_number	1
_symmetry_cell_setting	triclinic
loop_
_symmetry_equiv_pos_as_xyz
  x,y,z
_cell_length_a	12.759401
_cell_length_b	12.594516
_cell_length_c	12.759393
_cell_angle_alpha	89.971395
_cell_angle_beta	89.979527
_cell_angle_gamma	90.017577
loop_
_atom_site_label
_atom_site_type_symbol
_atom_site_fract_x
_atom_site_fract_y
_atom_site_fract_z
Zn1	Zn	1.606252	-0.423641	-0.594038
Zn2	Zn	1.606140	-0.601659	-0.418366
Zn3	Zn	1.430552	-0.423700	-0.418373
Zn4	Zn	1.430538	-0.601583	-0.594003
O5	O	1.518370	-0.512646	-0.506195
O6	O	1.753258	-0.447263	-0.570746
O7	O	1.582807	-0.578109	-0.271345
O8	O	1.453911	-0.274746	-0.441693
O9	O	1.753176	-0.578052	-0.441680
O10	O	1.582997	-0.274703	-0.570754
O11	O	1.453803	-0.447363	-0.271351
O12	O	1.283529	-0.447289	-0.441659
O13	O	1.453888	-0.577922	-0.741029
O14	O	1.283519	-0.577979	-0.570694
O15	O	1.582984	-0.447190	-0.741054
O16	O	1.582794	-0.750595	-0.441646
O17	O	1.453780	-0.750539	-0.570686
C18	C	1.245403	-0.512633	-0.506174
C19	C	1.128626	-0.512653	-0.506190
C20	C	1.073787	-0.580807	-0.573272
C21	C	0.964063	-0.580811	-0.573293
C22	C	0.964028	-0.444504	-0.439140
C23	C	1.073750	-0.444496	-0.439125
C24	C	1.518302	-0.789187	-0.506185
C25	C	1.518368	-0.907492	-0.506215
C26	C	1.448191	-0.976754	-0.576351
C27	C	1.422590	-1.047624	-0.480484
C28	C	1.544064	-1.047421	-0.602099
C29	C	1.492717	-0.976804	-0.410297
C30	C	1.614236	-0.976595	-0.531977
C31	C	1.588672	-1.047433	-0.436044
C32	C	1.792404	-0.512660	-0.506216
C33	C	1.909180	-0.512666	-0.506226
C34	C	1.518447	-0.512541	-0.780228
C35	C	1.518479	-0.512496	-0.897005
C36	C	1.518468	-0.235025	-0.506228
C37	C	1.518510	-0.116720	-0.506242
C38	C	1.585726	-0.444373	-1.061613
C39	C	1.585706	-0.444414	-0.951889
C40	C	1.451276	-0.580550	-0.951851
C41	C	1.451302	-0.580513	-1.061573
C42	C	1.518355	-0.512674	-0.233228
C43	C	1.518526	-0.512418	-0.116451
H44	H	1.388738	-0.945718	-0.635576
H45	H	1.640429	-0.389005	-0.907245
H46	H	1.118401	-0.388990	-0.384499
H47	H	1.565741	-1.078441	-0.683176
N48	N	1.465405	-0.938071	-0.308554
N49	N	1.520717	-0.961446	-0.231072
H50	H	1.501424	-0.934087	-0.159219
N51	N	1.654383	-0.374826	-1.117689
N52	N	1.617457	-0.306979	-1.178923
H53	H	1.665948	-0.257861	-1.218527
N54	N	1.129827	-0.650433	-0.641779
N55	N	1.080844	-0.711279	-0.701669
H56	H	1.120418	-0.760455	-0.750056
N57	N	0.908027	-0.650419	-0.641811
N58	N	0.846842	-0.613059	-0.708832
H59	H	0.807264	-0.662222	-0.757225
H60	H	0.919334	-0.389015	-0.384537
H61	H	1.341583	-1.078846	-0.458716
N62	N	1.382621	-0.650099	-0.895775
N63	N	1.382607	-0.650125	-0.797810
H64	H	1.334118	-0.699245	-0.758207
H65	H	1.648079	-1.078272	-0.376676
N66	N	1.382654	-0.650038	-1.117580
N67	N	1.322635	-0.710826	-1.068572
H68	H	1.274157	-0.759929	-1.108126
H69	H	1.695225	-0.945376	-0.553791
