data_functionalizedCrystal
_audit_creation_method	'MofGen! by Chris Wilmer'
_symmetry_space_group_name_H-M	'P1'
_symmetry_Int_Tables_number	1
_symmetry_cell_setting	triclinic
loop_
_symmetry_equiv_pos_as_xyz
  x,y,z
_cell_length_a	15.537862
_cell_length_b	14.185569
_cell_length_c	12.837932
_cell_angle_alpha	104.573155
_cell_angle_beta	71.047069
_cell_angle_gamma	82.122918
loop_
_atom_site_label
_atom_site_type_symbol
_atom_site_fract_x
_atom_site_fract_y
_atom_site_fract_z
O1	O	1.202108	0.083379	-0.295285
O2	O	0.938230	0.083387	-0.179476
O3	O	1.064317	0.083384	-0.386081
O4	O	1.076021	0.083382	-0.088681
O5	O	1.101564	-0.083452	-0.447109
O6	O	0.975477	-0.083448	-0.240504
O7	O	1.239356	-0.083457	-0.356313
Cu8	Cu	1.110818	-0.098686	-0.303981
Cu9	Cu	1.066768	0.098616	-0.231809
O10	O	1.113269	-0.083453	-0.149709
C11	C	0.922844	-0.000030	-0.197873
C12	C	0.821504	-0.000026	-0.161779
C13	C	0.676008	-0.000023	-0.015480
C14	C	0.771233	-0.000026	-0.049407
C15	C	0.776564	-0.000029	-0.240272
C16	C	0.681340	-0.000031	-0.206364
C17	C	0.631069	-0.000027	-0.093966
C18	C	0.636400	-0.000035	-0.284849
C19	C	0.541183	-0.000032	-0.250941
C20	C	0.490905	-0.000025	-0.138547
C21	C	0.535851	-0.000024	-0.060058
C22	C	0.686672	-0.000033	-0.397243
C23	C	0.641732	-0.000037	-0.475729
C24	C	0.546515	-0.000041	-0.441824
C25	C	0.496236	-0.000033	-0.329430
C26	C	0.501568	-0.000042	-0.520313
C27	C	0.406351	-0.000039	-0.486405
C28	C	0.401019	-0.000030	-0.295522
N29	N	1.141806	-0.237458	-0.354747
C30	C	0.944737	-0.605103	-0.031948
C31	C	0.968217	-0.710125	-0.070398
C32	C	1.079897	-0.710089	-0.253306
C33	C	1.056422	-0.605064	-0.214873
C34	C	0.988843	-0.552580	-0.104193
C35	C	1.100528	-0.552541	-0.287118
C36	C	1.077059	-0.447526	-0.248686
C37	C	1.009484	-0.395034	-0.138009
C38	C	0.965373	-0.447565	-0.065761
C39	C	1.168113	-0.605028	-0.397794
C40	C	1.212219	-0.552505	-0.470039
C41	C	1.188745	-0.447488	-0.431611
C42	C	1.121170	-0.394996	-0.320934
C43	C	1.232855	-0.394957	-0.503859
C44	C	1.209386	-0.289942	-0.465427
C45	C	1.097700	-0.289981	-0.282502
C46	C	1.254741	-0.000038	-0.337916
C47	C	1.356080	-0.000035	-0.374007
C48	C	1.078986	-0.000031	-0.453727
C49	C	1.067194	-0.000024	-0.564364
N50	N	1.035786	0.237388	-0.181054
C51	C	0.968642	-0.000022	-0.677118
C52	C	0.979715	-0.000021	-0.573158
C53	C	1.143605	-0.000025	-0.659539
C54	C	1.132533	-0.000027	-0.763498
C55	C	1.045049	-0.000027	-0.772283
C56	C	1.033978	-0.000035	-0.876248
C57	C	1.197867	-0.000032	-0.962623
C58	C	1.208939	-0.000031	-0.858664
C59	C	1.098599	-0.000036	-0.082062
C60	C	1.110390	-0.000037	0.028578
H61	H	0.682675	-0.000037	-0.567242
H62	H	1.280167	-0.000035	-0.851496
O63	O	0.779129	0.000140	-0.430178
C64	C	0.793115	0.086532	-0.462277
H65	H	0.724714	0.146929	-0.418955
H66	H	0.849197	0.115529	-0.433239
H67	H	0.816742	0.067000	-0.560591
H68	H	0.369760	-0.000041	-0.550315
O69	O	1.145458	-0.760970	-0.360902
C70	C	1.115976	-0.735325	-0.445202
H71	H	1.063827	-0.659083	-0.403976
H72	H	1.179228	-0.731720	-0.519011
H73	H	1.081033	-0.794435	-0.480787
H74	H	0.917496	-0.000017	-0.495674
H75	H	0.990379	-0.309524	-0.106717
O76	O	0.949016	0.000102	-0.884877
C77	C	0.918410	0.086520	-0.910794
H78	H	0.981468	0.115320	-0.953334
H79	H	0.880278	0.067090	-0.972725
H80	H	0.868734	0.147029	-0.827285
O81	O	0.627038	0.000108	0.093719
C82	C	0.552524	0.086528	0.150657
H83	H	0.534150	0.115340	0.083409
H84	H	0.488774	0.067095	0.207776
H85	H	0.574393	0.147028	0.206829
H86	H	0.897413	-0.000041	-0.684276
H87	H	1.214845	-0.000089	-0.652388
H88	H	0.889699	-0.562368	0.058174
O89	O	0.550475	0.000094	-0.629408
C90	C	0.586393	0.086516	-0.623119
H91	H	0.591905	0.115325	-0.534795
H92	H	0.658818	0.067088	-0.694459
H93	H	0.537501	0.147018	-0.635020
O94	O	0.899835	-0.396615	0.041840
C95	C	0.929271	-0.422292	0.126157
H96	H	1.008720	-0.451150	0.088686
H97	H	0.907874	-0.353230	0.205688
H98	H	0.895021	-0.483255	0.152279
O99	O	1.191054	-0.707040	-0.435291
C100	C	1.260147	-0.742102	-0.548476
H101	H	1.299333	-0.681568	-0.564201
H102	H	1.311582	-0.812350	-0.558405
H103	H	1.225397	-0.760740	-0.614344
O104	O	1.271986	0.000013	-1.055163
C105	C	1.243464	-0.000016	-1.148818
H106	H	1.164475	0.031568	-1.114348
H107	H	1.280773	0.048420	-1.198194
H108	H	1.262079	-0.080056	-1.209643
H109	H	0.932296	-0.752884	-0.011557
O110	O	1.032151	-0.238875	-0.174954
C111	C	1.072931	-0.178140	-0.109179
H112	H	1.137142	-0.162398	-0.170141
H113	H	1.019820	-0.104299	-0.052017
H114	H	1.094806	-0.218609	-0.052193
H115	H	0.360088	-0.000041	-0.204001
O116	O	1.277980	-0.603443	-0.577487
C117	C	1.363908	-0.577742	-0.585705
H118	H	1.365123	-0.548886	-0.495032
H119	H	1.424037	-0.646790	-0.639707
H120	H	1.372049	-0.516769	-0.629023
H121	H	0.413372	-0.000019	-0.110940
H122	H	1.287886	-0.437704	-0.593971
H123	H	0.807821	-0.000034	0.014510
O124	O	0.486881	0.000107	0.049141
C125	C	0.412367	0.086527	0.106080
H126	H	0.393993	0.115339	0.038832
H127	H	0.348617	0.067094	0.163199
H128	H	0.434236	0.147027	0.162251
O129	O	0.825550	-0.000080	-0.349424
C130	C	0.919222	-0.000054	-0.362515
H131	H	0.936987	-0.031631	-0.296672
H132	H	0.967928	-0.048498	-0.454068
H133	H	0.928499	0.079985	-0.347392
O134	O	1.252286	-0.239070	-0.535769
C135	C	1.316980	-0.307913	-0.641688
H136	H	1.296252	-0.382781	-0.656189
H137	H	1.316911	-0.277557	-0.715882
H138	H	1.390091	-0.319066	-0.638644
