data_functionalizedCrystal
_audit_creation_method	'MofGen! by Chris Wilmer'
_symmetry_space_group_name_H-M	'P1'
_symmetry_Int_Tables_number	1
_symmetry_cell_setting	triclinic
loop_
_symmetry_equiv_pos_as_xyz
  x,y,z
_cell_length_a	12.594516
_cell_length_b	12.594517
_cell_length_c	16.625539
_cell_angle_alpha	89.986122
_cell_angle_beta	89.976673
_cell_angle_gamma	90.016010
loop_
_atom_site_label
_atom_site_type_symbol
_atom_site_fract_x
_atom_site_fract_y
_atom_site_fract_z
Zn1	Zn	-0.423741	1.627262	-0.455793
Zn2	Zn	-0.601743	1.627155	-0.320972
Zn3	Zn	-0.423779	1.449268	-0.320990
Zn4	Zn	-0.601678	1.449248	-0.455778
O5	O	-0.512735	1.538233	-0.388383
O6	O	-0.447365	1.776194	-0.437908
O7	O	-0.578178	1.603520	-0.208142
O8	O	-0.274828	1.472932	-0.338885
O9	O	-0.578142	1.776115	-0.338856
O10	O	-0.274801	1.603704	-0.437925
O11	O	-0.447428	1.472828	-0.208155
O12	O	-0.447366	1.300319	-0.338870
O13	O	-0.578032	1.472900	-0.568612
O14	O	-0.578068	1.300305	-0.437899
O15	O	-0.447303	1.603686	-0.568624
O16	O	-0.750680	1.603502	-0.338841
O17	O	-0.750633	1.472795	-0.437882
C18	C	-0.512715	1.261692	-0.388385
C19	C	-0.512732	1.143387	-0.388405
C20	C	-0.583949	1.003393	-0.442167
C21	C	-0.609852	1.074165	-0.368579
C22	C	-0.486876	1.074187	-0.461985
C23	C	-0.538719	1.003373	-0.314754
C24	C	-0.415698	1.003389	-0.408210
C25	C	-0.441564	1.074128	-0.334571
C26	C	-0.789276	1.538164	-0.388375
C27	C	-0.907582	1.538231	-0.388399
C28	C	-0.976848	1.467133	-0.442230
C29	C	-1.047708	1.441200	-0.368657
C30	C	-1.047520	1.564261	-0.461984
C31	C	-0.976884	1.512247	-0.314788
C32	C	-0.976690	1.635353	-0.408164
C33	C	-1.047518	1.609457	-0.334541
C34	C	-0.235114	1.538332	-0.388409
C35	C	-0.116809	1.538374	-0.388420
C36	C	-0.512656	1.538302	-0.598692
C37	C	-0.512622	1.538332	-0.688313
C38	C	-0.512757	1.815854	-0.388382
C39	C	-0.512766	1.934159	-0.388381
C40	C	-0.512503	1.538381	-1.016489
C41	C	-0.512540	1.538364	-0.925181
C42	C	-0.512563	1.538357	-0.852404
C43	C	-0.512598	1.538339	-0.761090
C44	C	-0.512737	1.538226	-0.178892
C45	C	-0.512471	1.538402	-0.089272
H46	H	-0.691926	1.105252	-0.351812
O47	O	-0.663758	0.962227	-0.502323
H48	H	-0.744259	0.990570	-0.485674
H49	H	-0.560702	0.972397	-0.252502
H50	H	-1.078353	1.669644	-0.288974
O51	O	-0.935575	1.744121	-0.430344
H52	H	-0.885847	1.738190	-0.485291
O53	O	-0.361810	1.115033	-0.274272
H54	H	-0.383539	1.086521	-0.213270
O55	O	-0.935732	1.387356	-0.502443
H56	H	-0.847611	1.388536	-0.502303
O57	O	-0.307012	0.962169	-0.430439
H58	H	-0.285711	0.990481	-0.491581
H59	H	-0.464993	1.105293	-0.524221
H60	H	-1.078926	1.359133	-0.351957
H61	H	-0.945984	1.490194	-0.252549
H62	H	-1.078548	1.586219	-0.524205
