data_functionalizedCrystal
_audit_creation_method	'MofGen! by Chris Wilmer'
_symmetry_space_group_name_H-M	'P1'
_symmetry_Int_Tables_number	1
_symmetry_cell_setting	triclinic
loop_
_symmetry_equiv_pos_as_xyz
  x,y,z
_cell_length_a	10.489741
_cell_length_b	15.500227
_cell_length_c	10.489741
_cell_angle_alpha	92.857420
_cell_angle_beta	95.460826
_cell_angle_gamma	92.870731
loop_
_atom_site_label
_atom_site_type_symbol
_atom_site_fract_x
_atom_site_fract_y
_atom_site_fract_z
O1	O	1.699929	0.071890	-0.174105
O2	O	1.328734	0.071903	-0.190997
O3	O	1.522777	0.071891	0.003047
O4	O	1.505885	0.071902	-0.368148
O5	O	1.511002	-0.071997	-0.008682
O6	O	1.316958	-0.071985	-0.202725
O7	O	1.688153	-0.071998	-0.185833
Cu8	Cu	1.501481	-0.085129	-0.195350
Cu9	Cu	1.515406	0.085035	-0.181480
O10	O	1.494110	-0.071986	-0.379877
C11	C	1.275315	-0.000039	-0.195585
C12	C	1.133686	-0.000034	-0.191767
N13	N	1.491695	-0.204814	-0.205105
C14	C	1.065545	-0.000046	-0.068304
C15	C	0.979224	0.070898	-0.120844
C16	C	0.967648	-0.070964	-0.132437
C17	C	1.049235	0.070969	-0.244354
C18	C	1.037664	-0.070957	-0.255935
C19	C	0.951371	0.000004	-0.308564
C20	C	1.573947	-0.250096	-0.122913
C21	C	1.566558	-0.340668	-0.130302
C22	C	1.476923	-0.385957	-0.219891
C23	C	1.394662	-0.340669	-0.302086
C24	C	1.402046	-0.250098	-0.294690
C25	C	1.450325	-0.659422	-0.246514
C26	C	1.442950	-0.749999	-0.253907
C27	C	1.614845	-0.749992	-0.082121
C28	C	1.622226	-0.659420	-0.074737
C29	C	1.539961	-0.614139	-0.156928
C30	C	1.469371	-0.478536	-0.227449
C31	C	1.547507	-0.521562	-0.149363
C32	C	1.741573	-0.000054	-0.181245
C33	C	1.883202	-0.000053	-0.185062
C34	C	1.515614	-0.000052	0.044714
C35	C	1.511797	-0.000051	0.186344
N36	N	1.525202	0.204719	-0.171715
C37	C	1.501274	-0.000041	-0.421544
C38	C	1.505091	-0.000037	-0.563173
C39	C	1.388333	-0.000040	0.254485
C40	C	1.440850	-0.070986	0.340824
C41	C	1.452489	0.070876	0.352362
C42	C	1.564360	-0.071055	0.270813
C43	C	1.575987	0.070871	0.282347
C44	C	1.628593	-0.000093	0.368657
H45	H	1.115241	0.000040	0.033199
H46	H	1.405142	0.130862	0.388215
F47	F	1.761389	-0.000147	0.433257
H48	H	0.931762	-0.130942	-0.085063
F49	F	1.650629	0.149268	0.248157
F50	F	1.702389	-0.798188	0.005350
H51	H	1.084977	0.131014	-0.291660
F52	F	0.945103	0.149294	-0.046176
H53	H	0.901951	0.000046	-0.410164
F54	F	1.373977	-0.526741	-0.322797
H55	H	1.063801	-0.130936	-0.313022
H56	H	1.646943	-0.213227	-0.049966
H57	H	1.620484	-0.484685	-0.076416
F58	F	1.362776	-0.611239	-0.333991
H59	H	1.633534	-0.377536	-0.063374
F60	F	1.366155	-0.149380	0.374969
F61	F	1.717627	-0.611221	0.020611
F62	F	1.347543	-0.798193	-0.349268
F63	F	1.299258	-0.388869	-0.397429
F64	F	1.314497	-0.201907	-0.382167
H65	H	1.286815	-0.000108	0.204828
F66	F	1.626165	-0.149540	0.224122
