data_functionalizedCrystal
_audit_creation_method	'MofGen! by Chris Wilmer'
_symmetry_space_group_name_H-M	'P1'
_symmetry_Int_Tables_number	1
_symmetry_cell_setting	triclinic
loop_
_symmetry_equiv_pos_as_xyz
  x,y,z
_cell_length_a	27.780901
_cell_length_b	27.780865
_cell_length_c	27.780936
_cell_angle_alpha	120.004110
_cell_angle_beta	90.000189
_cell_angle_gamma	60.000211
loop_
_atom_site_label
_atom_site_type_symbol
_atom_site_fract_x
_atom_site_fract_y
_atom_site_fract_z
O1	O	-0.330206	-0.424600	-0.014326
O2	O	-0.260209	-0.326029	0.014248
O3	O	-0.260206	-0.424598	-0.084326
O4	O	-0.330208	-0.326031	0.084248
O5	O	-0.340269	-0.344534	-0.084318
O6	O	-0.340271	-0.245964	0.014256
O7	O	-0.410268	-0.344536	-0.014318
Cu8	Cu	-0.382580	-0.287939	-0.000030
Cu9	Cu	-0.287897	-0.382625	-0.000040
O10	O	-0.410271	-0.245966	0.084256
C11	C	-0.207592	-0.090572	0.029861
C12	C	-0.237293	-0.031169	0.025768
C13	C	-0.236696	-0.119398	0.030271
C14	C	-0.120428	-0.177735	0.029866
C15	C	-0.056933	-0.211527	0.025779
C16	C	-0.149664	-0.206428	0.030277
C17	C	-0.207595	-0.177733	0.029869
C18	C	-0.237300	-0.211522	0.025784
C19	C	-0.149661	-0.119400	0.030269
C20	C	-0.261298	-0.238821	0.022484
C21	C	-0.261288	0.016822	0.022460
C22	C	-0.005635	-0.238828	0.022476
C23	C	-0.291405	-0.273069	0.018343
C24	C	-0.291391	0.077030	0.018311
C25	C	0.058720	-0.273078	0.018333
C26	C	-0.207593	-0.492842	-0.372408
C27	C	-0.237298	-0.459048	-0.402108
C28	C	-0.149660	-0.551183	-0.401515
C29	C	-0.207593	-0.492841	-0.285241
C30	C	-0.237298	-0.459048	-0.221743
C31	C	-0.149661	-0.551183	-0.314481
C32	C	-0.120424	-0.580012	-0.372415
C33	C	-0.056928	-0.639423	-0.402123
C34	C	-0.236697	-0.464144	-0.314474
C35	C	-0.005629	-0.687419	-0.426124
C36	C	-0.261295	-0.431746	-0.426103
C37	C	-0.261296	-0.431746	-0.170443
C38	C	0.058728	-0.747634	-0.456235
C39	C	-0.291402	-0.397495	-0.456206
C40	C	-0.291402	-0.397494	-0.106085
C41	C	-0.462869	-0.580020	-0.029970
C42	C	-0.433163	-0.639431	-0.025888
C43	C	-0.520800	-0.551191	-0.030374
C44	C	-0.462873	-0.492847	-0.029961
C45	C	-0.433171	-0.459053	-0.025870
C46	C	-0.520804	-0.464150	-0.030366
C47	C	-0.550038	-0.492848	-0.029961
C48	C	-0.613534	-0.459056	-0.025870
C49	C	-0.433767	-0.551189	-0.030374
C50	C	-0.664833	-0.431754	-0.022564
C51	C	-0.409163	-0.687428	-0.022589
C52	C	-0.409175	-0.431749	-0.022563
C53	C	-0.729189	-0.397503	-0.018417
C54	C	-0.379055	-0.747644	-0.018451
C55	C	-0.379071	-0.397497	-0.018416
O56	O	0.249050	-0.344548	-0.014327
O57	O	0.080484	-0.245979	0.014236
O58	O	0.179055	-0.344561	-0.084333
O59	O	0.150480	-0.245965	0.084242
O60	O	0.179051	-0.424615	-0.084325
O61	O	0.080481	-0.326033	0.014243
O62	O	0.249047	-0.424602	-0.014319
Cu63	Cu	0.164763	-0.382627	-0.000037
Cu64	Cu	0.164768	-0.287954	-0.000046
O65	O	0.150476	-0.326020	0.084250
O66	O	-0.410250	0.234686	-0.014359
O67	O	-0.340256	0.094698	0.014218
O68	O	-0.340247	0.094676	-0.084357
O69	O	-0.410258	0.234708	0.084216
O70	O	-0.260187	0.094675	-0.084359
O71	O	-0.260195	0.094697	0.014215
O72	O	-0.330189	0.234685	-0.014362
Cu73	Cu	-0.287882	0.164690	-0.000073
Cu74	Cu	-0.382563	0.164692	-0.000070
O75	O	-0.330198	0.234706	0.084213
O76	O	0.249059	-0.905312	-0.495050
O77	O	0.080490	-0.765303	-0.425041
O78	O	0.179053	-0.765302	-0.425038
O79	O	0.150495	-0.905313	-0.495052
O80	O	0.179056	-0.765304	-0.505099
O81	O	0.080492	-0.765305	-0.505101
O82	O	0.249061	-0.905314	-0.575110
Cu83	Cu	0.164777	-0.835310	-0.547416
Cu84	Cu	0.164774	-0.835307	-0.452735
O85	O	0.150497	-0.905315	-0.575113
O86	O	-0.330213	-0.326025	-0.575062
O87	O	-0.260207	-0.424598	-0.505073
O88	O	-0.260211	-0.326026	-0.505063
O89	O	-0.330208	-0.424597	-0.575073
O90	O	-0.340272	-0.245963	-0.424995
O91	O	-0.340268	-0.344535	-0.425006
O92	O	-0.410274	-0.245963	-0.494995
Cu93	Cu	-0.382581	-0.287938	-0.452690
Cu94	Cu	-0.287900	-0.382622	-0.547379
O95	O	-0.410270	-0.344534	-0.495006
C96	C	-0.550055	-0.090550	0.372344
C97	C	-0.613551	-0.031140	0.402052
C98	C	-0.520819	-0.119379	0.401445
C99	C	-0.462885	-0.177721	0.285171
C100	C	-0.433180	-0.211515	0.221673
C101	C	-0.433782	-0.206418	0.314404
C102	C	-0.462886	-0.177720	0.372338
C103	C	-0.433182	-0.211513	0.402039
C104	C	-0.520818	-0.119380	0.314411
C105	C	-0.409185	-0.238815	0.426034
C106	C	-0.664850	0.016857	0.426053
C107	C	-0.409182	-0.238818	0.170373
C108	C	-0.379079	-0.273066	0.456138
C109	C	-0.729207	0.077071	0.456163
C110	C	-0.379075	-0.273070	0.106015
C111	C	0.194667	-0.580054	-0.372411
C112	C	0.190576	-0.639462	-0.402111
C113	C	0.195075	-0.551232	-0.401519
C114	C	0.194672	-0.492881	-0.285246
C115	C	0.190587	-0.459082	-0.221749
C116	C	0.195080	-0.464191	-0.314486
C117	C	0.194670	-0.492894	-0.372419
C118	C	0.190583	-0.459108	-0.402127
C119	C	0.195077	-0.551220	-0.314478
C120	C	0.187280	-0.431812	-0.426128
C121	C	0.187269	-0.687456	-0.426104
C122	C	0.187286	-0.431775	-0.170450
C123	C	0.183136	-0.397569	-0.456238
C124	C	0.183122	-0.747667	-0.456206
C125	C	0.183145	-0.397518	-0.106092
C126	C	0.134860	-0.177687	0.372336
C127	C	0.138947	-0.211472	0.402044
C128	C	0.134457	-0.119348	0.401435
C129	C	0.134859	-0.177700	0.285163
C130	C	0.138944	-0.211498	0.221666
C131	C	0.134455	-0.119361	0.314395
C132	C	0.134865	-0.090527	0.372328
C133	C	0.138956	-0.031120	0.402027
C134	C	0.134451	-0.206389	0.314403
C135	C	0.142263	0.016874	0.426021
C136	C	0.142251	-0.238768	0.426045
C137	C	0.142245	-0.238805	0.170367
C138	C	0.146410	0.077086	0.456123
C139	C	0.146394	-0.273011	0.456155
C140	C	0.146386	-0.273062	0.106009
C141	C	-0.120389	-0.177823	-0.372446
C142	C	-0.056892	-0.211619	-0.402151
C143	C	-0.149623	-0.206523	-0.401550
C144	C	-0.207562	-0.090642	-0.285277
C145	C	-0.237270	-0.031223	-0.221779
C146	C	-0.236663	-0.119474	-0.314512
C147	C	-0.207556	-0.177822	-0.372445
C148	C	-0.237258	-0.211618	-0.402149
C149	C	-0.149628	-0.119475	-0.314513
C150	C	-0.261253	-0.238923	-0.426146
C151	C	-0.005593	-0.238924	-0.426150
C152	C	-0.261270	0.016780	-0.170479
C153	C	-0.291357	-0.273177	-0.456251
C154	C	0.058765	-0.273179	-0.456257
C155	C	-0.291381	0.077002	-0.106121
O156	O	0.150452	-0.246043	-0.495046
O157	O	0.179033	-0.344602	-0.425040
O158	O	0.080460	-0.246054	-0.425047
O159	O	0.249025	-0.344591	-0.495039
O160	O	0.080481	-0.326136	-0.505115
O161	O	0.179054	-0.424684	-0.505108
O162	O	0.150473	-0.326126	-0.575114
Cu163	Cu	0.164766	-0.382717	-0.547422
Cu164	Cu	0.164741	-0.288010	-0.452732
O165	O	0.249046	-0.424674	-0.575107
C166	C	-0.462892	0.507205	0.372302
C167	C	-0.433190	0.541002	0.402006
C168	C	-0.520825	0.535906	0.401406
C169	C	-0.462885	0.420024	0.285133
C170	C	-0.433176	0.360606	0.221635
C171	C	-0.520818	0.448857	0.314369
C172	C	-0.550058	0.507205	0.372302
C173	C	-0.613555	0.541001	0.402007
C174	C	-0.433784	0.448857	0.314369
C175	C	-0.664854	0.568306	0.426004
C176	C	-0.409195	0.568307	0.426003
C177	C	-0.409175	0.312603	0.170336
C178	C	-0.729212	0.602560	0.456111
C179	C	-0.379091	0.602561	0.456109
C180	C	-0.379064	0.252380	0.105978
H181	H	-0.126192	-0.095269	0.030926
H182	H	-0.386183	-0.253365	0.290927
Cl183	Cl	-0.557041	0.411576	0.278145
H184	H	0.133807	-0.253343	0.290932
H185	H	-0.544297	0.582856	0.449007
H186	H	-0.126193	-0.253367	0.030938
Cl187	Cl	-0.113424	-0.588443	-0.475009
Cl188	Cl	-0.310184	-0.082148	0.031285
Cl189	Cl	0.196132	-0.588521	-0.475023
H190	H	-0.126188	-0.575303	-0.291006
Cl191	Cl	-0.310152	-0.082222	-0.278273
H192	H	-0.544277	-0.417201	-0.031013
H193	H	-0.126143	-0.253480	-0.449147
Cl194	Cl	-0.557063	-0.082139	0.474930
Cl195	Cl	-0.360297	0.411606	0.278126
Cl196	Cl	-0.310188	-0.391670	-0.278232
H197	H	-0.386169	-0.575316	-0.031028
Cl198	Cl	-0.557034	-0.588448	-0.031399
H199	H	0.133799	-0.095215	0.449037
H200	H	0.195733	-0.417244	-0.291013
Cl201	Cl	-0.557057	-0.082135	0.278172
H202	H	-0.126155	-0.095347	-0.291043
H203	H	0.133802	-0.095243	0.290917
H204	H	0.195729	-0.575342	-0.291004
