data_functionalizedCrystal
_audit_creation_method	'MofGen! by Chris Wilmer'
_symmetry_space_group_name_H-M	'P1'
_symmetry_Int_Tables_number	1
_symmetry_cell_setting	triclinic
loop_
_symmetry_equiv_pos_as_xyz
  x,y,z
_cell_length_a	6.817900
_cell_length_b	14.858565
_cell_length_c	10.992410
_cell_angle_alpha	93.421726
_cell_angle_beta	108.764651
_cell_angle_gamma	104.523916
loop_
_atom_site_label
_atom_site_type_symbol
_atom_site_fract_x
_atom_site_fract_y
_atom_site_fract_z
V1	V	-4.092572	-0.128670	-0.400951
O2	O	-4.073418	0.006183	-0.392950
O3	O	-4.048847	-0.255131	-0.398564
O4	O	-4.070498	-0.126691	-0.575658
O5	O	-4.051617	-0.123146	-0.214630
V6	V	-4.572183	-0.112540	-0.378623
O7	O	-4.362412	-0.164052	-0.449931
O8	O	-4.752541	-0.077158	-0.329643
O9	O	-4.392702	0.013921	-0.381010
O10	O	-4.708735	-0.247393	-0.386624
O11	O	-4.730535	-0.118064	-0.564944
O12	O	-4.371051	-0.114519	-0.203916
C13	C	-3.894134	-0.285959	-0.392330
C14	C	-3.939846	-0.389343	-0.391542
C15	C	-3.921750	-0.122120	-0.618230
C16	C	-3.985016	-0.121339	-0.761056
C17	C	-4.107159	-0.767914	-0.388676
C18	C	-4.060599	-0.662584	-0.389473
C19	C	-4.023503	-0.578632	-0.390108
C20	C	-3.976941	-0.473295	-0.390907
C21	C	-3.853338	-0.114218	-0.956160
C22	C	-3.787586	-0.115417	-0.807680
C23	C	-4.167585	-0.213035	-0.838416
C24	C	-4.232035	-0.212224	-0.986980
C25	C	-4.139712	-0.034667	-0.948454
C26	C	-4.069076	-0.034232	-0.799440
C27	C	-4.210757	0.044745	-0.387241
C28	C	-4.144285	0.148127	-0.388037
C29	C	-4.183140	-0.119093	-0.161337
C30	C	-4.099112	-0.119870	-0.018510
H31	H	-3.650238	-0.049483	-0.754156
H32	H	-4.316672	-0.220679	-0.809634
H33	H	-4.211371	-0.033156	-0.766925
C34	C	-3.711579	-0.025729	-0.980826
C35	C	-3.494064	-0.022876	-0.924081
C36	C	-3.363414	0.058636	-0.946768
H37	H	-3.746336	-0.026155	-1.071801
H38	H	-3.735724	0.028060	-0.943708
H39	H	-3.469931	-0.076651	-0.961203
H40	H	-3.459240	-0.022435	-0.833105
H41	H	-3.387558	0.112425	-0.909650
H42	H	-3.398190	0.058203	-1.037744
H43	H	-3.215815	0.060587	-0.908260
H44	H	-3.818088	-0.175437	-1.004323
C45	C	-4.197022	-0.298207	-1.049177
C46	C	-4.254672	-0.298402	-1.183505
C47	C	-4.222461	-0.377601	-1.240838
H48	H	-4.049145	-0.296442	-1.013368
H49	H	-4.283984	-0.353572	-1.032775
H50	H	-4.167709	-0.243052	-1.199898
H51	H	-4.402544	-0.300182	-1.219351
H52	H	-4.309423	-0.432966	-1.224436
H53	H	-4.074583	-0.375829	-1.205019
H54	H	-4.261589	-0.377748	-1.331987
H55	H	-4.110928	-0.277707	-0.812990
C56	C	-4.473015	-0.223065	-1.043852
C57	C	-4.587668	-0.308300	-1.019872
C58	C	-4.809661	-0.318341	-1.072262
H59	H	-4.504741	-0.172435	-1.004553
H60	H	-4.514111	-0.222705	-1.134971
H61	H	-4.546588	-0.308653	-0.928771
H62	H	-4.556008	-0.358946	-1.059173
H63	H	-4.850757	-0.317981	-1.163381
H64	H	-4.841365	-0.267707	-1.032958
H65	H	-4.887482	-0.376177	-1.056009
H66	H	-3.719950	-0.177485	-0.783038
C67	C	-4.017981	0.058259	-0.975061
C68	C	-3.872982	0.112950	-0.857358
C69	C	-3.760812	0.198558	-0.881817
H70	H	-3.940457	0.046584	-1.029358
H71	H	-4.117786	0.090917	-1.017182
H72	H	-3.773191	0.080299	-0.815256
H73	H	-3.950450	0.124650	-0.803044
H74	H	-3.860616	0.231216	-0.923939
H75	H	-3.683301	0.186874	-0.936117
H76	H	-3.662432	0.235680	-0.801960
H77	H	-3.937250	0.033600	-0.746893
H78	H	-4.318135	-0.038000	-0.989304
