data_functionalizedCrystal
_audit_creation_method	'MofGen! by Chris Wilmer'
_symmetry_space_group_name_H-M	'P1'
_symmetry_Int_Tables_number	1
_symmetry_cell_setting	triclinic
loop_
_symmetry_equiv_pos_as_xyz
  x,y,z
_cell_length_a	14.044220
_cell_length_b	16.974755
_cell_length_c	15.455301
_cell_angle_alpha	96.655912
_cell_angle_beta	92.758456
_cell_angle_gamma	88.278279
loop_
_atom_site_label
_atom_site_type_symbol
_atom_site_fract_x
_atom_site_fract_y
_atom_site_fract_z
O1	O	1.261837	0.194592	0.085704
O2	O	0.985854	0.187692	0.085242
O3	O	1.131134	0.076205	0.077395
O4	O	1.116557	0.306079	0.093551
O5	O	1.123699	0.069479	-0.067339
O6	O	0.978419	0.180966	-0.059493
O7	O	1.254402	0.187866	-0.059030
Cu8	Cu	1.115732	0.183802	-0.072477
Cu9	Cu	1.124525	0.191756	0.098688
O10	O	1.109122	0.299353	-0.051184
C11	C	1.126727	0.043245	0.002950
C12	C	1.124662	-0.044944	-0.003242
C13	C	0.946815	0.181308	0.012665
C14	C	0.841570	0.172299	0.012040
C15	C	1.112516	-0.541744	-0.046529
C16	C	1.114466	-0.458882	-0.040715
C17	C	1.119501	-0.413775	0.041089
C18	C	1.122577	-0.451535	0.117084
C19	C	1.120621	-0.534396	0.111269
C20	C	1.125781	-0.165564	0.066939
C21	C	1.127740	-0.082698	0.072747
C22	C	1.119627	-0.090050	-0.085052
C23	C	1.117677	-0.172912	-0.090859
C24	C	1.120748	-0.210665	-0.014864
N25	N	1.121497	-0.329077	0.047033
N26	N	1.118745	-0.295361	-0.020810
C27	C	0.648871	0.155825	0.010866
C28	C	0.591380	0.219730	0.015353
C29	C	0.484156	0.210563	0.014699
C30	C	0.756106	0.164990	0.011519
C31	C	1.293441	0.194249	0.013548
C32	C	1.398687	0.203260	0.014178
C33	C	1.113529	0.332312	0.023263
C34	C	1.115595	0.420502	0.029461
N35	N	1.109554	0.178207	-0.192866
C36	C	1.164819	0.228297	-0.234741
C37	C	1.160160	0.224062	-0.325846
C38	C	1.100230	0.169739	-0.375075
C39	C	1.044963	0.119643	-0.333194
C40	C	1.049628	0.123875	-0.242090
C41	C	1.080107	0.151481	-0.647939
C42	C	1.075445	0.147255	-0.739049
C43	C	1.190643	0.251673	-0.731694
C44	C	1.195299	0.255903	-0.640589
C45	C	1.140035	0.205804	-0.598717
N46	N	1.095464	0.165411	-0.468199
N47	N	1.144807	0.210130	-0.505594
N48	N	1.130710	0.197345	0.219077
H49	H	1.108420	-0.578464	-0.113142
C50	C	0.607270	0.073658	0.005231
C51	C	0.641796	0.036025	0.076802
C52	C	0.603491	-0.039670	0.071640
H53	H	0.539710	0.078226	0.005594
H54	H	0.625442	0.043264	-0.047181
H55	H	0.623618	0.066411	0.129201
H56	H	0.709351	0.031436	0.076454
H57	H	0.621663	-0.070064	0.019227
H58	H	0.535933	-0.035094	0.072000
H59	H	0.626918	-0.065217	0.120194
H60	H	1.213615	0.272537	-0.194664
C61	C	1.111191	-0.418041	-0.123320
C62	C	1.106406	-0.475280	-0.196204
C63	C	1.103410	-0.437689	-0.272318
H64	H	1.056565	-0.383721	-0.124316
H65	H	1.167047	-0.388043	-0.124522
H66	H	1.050555	-0.505265	-0.195003
H67	H	1.161027	-0.509603	-0.195237
H68	H	1.159266	-0.407691	-0.273520
H69	H	1.048783	-0.403370	-0.273304
H70	H	1.100171	-0.476520	-0.321778
C71	C	1.220324	0.278415	-0.371197
C72	C	1.316937	0.264389	-0.350065
C73	C	1.372391	0.314454	-0.391814
H74	H	1.209097	0.268171	-0.432516
H75	H	1.203642	0.332142	-0.352519
H76	H	1.333614	0.210675	-0.368749
H77	H	1.328193	0.274639	-0.288754
H78	H	1.355709	0.368181	-0.373136
H79	H	1.361156	0.304206	-0.453131
H80	H	1.437948	0.304950	-0.377476
H81	H	1.131840	-0.045974	0.139365
H82	H	1.244103	0.300136	-0.600513
H83	H	1.128290	-0.196292	0.128819
C84	C	1.250812	0.306019	-0.777050
C85	C	1.347423	0.291982	-0.755923
C86	C	1.402884	0.342038	-0.797678
H87	H	1.239580	0.295773	-0.838368
H88	H	1.234139	0.359748	-0.758373
H89	H	1.364090	0.238266	-0.774605
H90	H	1.358685	0.302234	-0.694612
H91	H	1.386211	0.395767	-0.779001
H92	H	1.391644	0.331788	-0.858994
H93	H	1.468440	0.332526	-0.783343
C94	C	0.632932	0.301928	0.021100
C95	C	0.558813	0.359085	0.025095
C96	C	0.597058	0.434810	0.030382
H97	H	0.673626	0.310602	0.072009
H98	H	0.668449	0.305852	-0.028946
H99	H	0.523311	0.355163	0.075137
H100	H	0.518113	0.350437	-0.025808
H101	H	0.632575	0.438735	-0.019664
H102	H	0.637751	0.443476	0.081291
H103	H	0.546774	0.473600	0.033085
H104	H	1.126672	-0.414803	0.183690
C105	C	1.010354	0.088188	-0.792346
C106	C	0.962975	0.045206	-0.736175
C107	C	0.903017	-0.009216	-0.785240
H108	H	0.964894	0.115844	-0.825828
H109	H	1.047288	0.052760	-0.830242
H110	H	0.926043	0.080629	-0.698294
H111	H	1.008411	0.017533	-0.702692
H112	H	0.939952	-0.044644	-0.823136
H113	H	0.857564	0.018447	-0.818720
H114	H	0.870871	-0.038391	-0.747136
H115	H	1.035108	0.110686	-0.613857
C116	C	1.112355	-0.221947	-0.179642
C117	C	1.192474	-0.272910	-0.187855
C118	C	1.187592	-0.318093	-0.269629
H119	H	1.056235	-0.252332	-0.185078
H120	H	1.110833	-0.187638	-0.224111
H121	H	1.193986	-0.307215	-0.143399
H122	H	1.248606	-0.242546	-0.182436
H123	H	1.186071	-0.283784	-0.314098
H124	H	1.131469	-0.348473	-0.275058
H125	H	1.241955	-0.352671	-0.275216
H126	H	1.117126	-0.059303	-0.146923
C127	C	0.979916	0.060742	-0.386788
C128	C	0.987584	0.067807	-0.475533
C129	C	0.927664	0.013568	-0.524925
H130	H	0.998143	0.008376	-0.375722
H131	H	0.915833	0.071536	-0.371166
H132	H	1.051653	0.057007	-0.491149
H133	H	0.969350	0.120162	-0.486625
H134	H	0.863580	0.024362	-0.509304
H135	H	0.945895	-0.038795	-0.513853
H136	H	0.932851	0.018359	-0.585143
C137	C	1.123993	-0.575243	0.193874
C138	C	1.128834	-0.518009	0.266759
C139	C	1.131936	-0.555606	0.342871
H140	H	1.068173	-0.605255	0.195149
H141	H	1.178649	-0.609553	0.194793
H142	H	1.074183	-0.483713	0.265841
H143	H	1.184650	-0.487994	0.265513
H144	H	1.186593	-0.589915	0.343791
H145	H	1.076116	-0.585617	0.344138
H146	H	1.135230	-0.516779	0.392333
C147	C	0.989513	0.069452	-0.196782
C148	C	0.936010	0.020987	-0.259390
C149	C	0.880614	-0.029154	-0.217686
H150	H	1.030002	0.037292	-0.163615
H151	H	0.947723	0.100480	-0.159198
H152	H	0.977796	-0.010038	-0.296960
H153	H	0.895504	0.053126	-0.292561
H154	H	0.838824	0.001874	-0.180102
H155	H	0.921110	-0.061309	-0.184520
H156	H	0.844299	-0.062038	-0.260159
