data_functionalizedCrystal
_audit_creation_method	'MofGen! by Chris Wilmer'
_symmetry_space_group_name_H-M	'P1'
_symmetry_Int_Tables_number	1
_symmetry_cell_setting	triclinic
loop_
_symmetry_equiv_pos_as_xyz
  x,y,z
_cell_length_a	10.654549
_cell_length_b	11.792241
_cell_length_c	10.268362
_cell_angle_alpha	90.001488
_cell_angle_beta	90.003619
_cell_angle_gamma	84.339096
loop_
_atom_site_label
_atom_site_type_symbol
_atom_site_fract_x
_atom_site_fract_y
_atom_site_fract_z
O1	O	1.667391	0.159412	0.108271
O2	O	1.301870	0.174601	0.108280
O3	O	1.493501	0.001857	0.108266
O4	O	1.475760	0.332157	0.108285
O5	O	1.493482	0.001863	-0.108335
O6	O	1.301851	0.174607	-0.108321
O7	O	1.667373	0.159418	-0.108330
Cu8	Cu	1.484611	0.167013	-0.128103
Cu9	Cu	1.484632	0.167006	0.128053
O10	O	1.475742	0.332163	-0.108316
C11	C	1.255066	0.173489	-0.000019
C12	C	1.115632	0.170153	-0.000016
C13	C	0.904838	0.268718	-0.000016
C14	C	1.035850	0.271862	-0.000008
C15	C	1.064396	0.065293	-0.000019
C16	C	0.933387	0.062151	-0.000018
C17	C	1.197751	0.400236	0.075886
C18	C	1.248982	0.505093	0.075871
C19	C	1.193855	0.595265	-0.000023
C20	C	1.087498	0.580584	-0.075933
C21	C	1.036274	0.475725	-0.075929
C22	C	1.091399	0.385557	-0.000005
C23	C	0.771483	-0.066216	-0.075922
C24	C	0.720256	-0.171076	-0.075928
C25	C	0.775382	-0.261258	-0.000042
C26	C	0.881745	-0.246588	0.075848
C27	C	0.932971	-0.141728	0.075854
C28	C	0.877836	-0.051546	-0.000030
C29	C	1.492377	-0.040434	-0.000034
C30	C	1.489042	-0.166455	-0.000032
C31	C	1.482909	-0.397182	-0.000010
C32	C	1.486316	-0.268789	-0.000022
C33	C	1.714177	0.160530	-0.000028
C34	C	1.853611	0.163867	-0.000022
C35	C	1.476866	0.374453	-0.000013
C36	C	1.480201	0.500475	-0.000006
N37	N	1.484604	0.167017	-0.308268
C38	C	1.484614	0.167018	-0.426111
C39	C	1.484629	0.167008	-0.573949
N40	N	1.484648	0.166993	0.308219
H41	H	0.949687	0.463769	-0.137742
H42	H	1.335580	0.517039	0.137685
H43	H	1.242638	0.326822	0.137703
H44	H	1.235577	0.680642	-0.000034
O45	O	0.818789	0.378420	-0.000005
H46	H	0.876427	0.451857	0.000014
O47	O	1.047702	-0.125862	0.157677
H48	H	1.025979	-0.140381	0.261713
O49	O	0.712020	0.031052	-0.157779
H50	H	0.765500	0.106434	-0.145015
O51	O	1.150438	-0.044413	-0.000040
H52	H	1.250145	-0.024615	-0.000059
H53	H	1.042630	0.654010	-0.137742
H54	H	0.633666	-0.183024	-0.137751
O55	O	0.941212	-0.343847	0.157710
H56	H	0.887715	-0.419222	0.144968
H57	H	0.733663	-0.346641	-0.000057
