data_functionalizedCrystal
_audit_creation_method	'MofGen! by Chris Wilmer'
_symmetry_space_group_name_H-M	'P1'
_symmetry_Int_Tables_number	1
_symmetry_cell_setting	triclinic
loop_
_symmetry_equiv_pos_as_xyz
  x,y,z
_cell_length_a	15.297475
_cell_length_b	21.295417
_cell_length_c	15.296720
_cell_angle_alpha	99.638166
_cell_angle_beta	91.617114
_cell_angle_gamma	80.332118
loop_
_atom_site_label
_atom_site_type_symbol
_atom_site_fract_x
_atom_site_fract_y
_atom_site_fract_z
Zn1	Zn	1.253315	-0.489896	-0.726513
Zn2	Zn	1.278561	-0.580536	-0.580012
Zn3	Zn	1.132199	-0.454534	-0.554760
Zn4	Zn	1.106789	-0.574348	-0.701142
O5	O	1.192716	-0.524829	-0.640607
O6	O	1.379239	-0.519309	-0.728265
O7	O	1.280346	-0.551612	-0.454090
O8	O	1.148333	-0.371150	-0.577592
O9	O	1.397787	-0.585901	-0.620632
O10	O	1.237317	-0.397130	-0.703779
O11	O	1.172814	-0.459039	-0.435537
O12	O	1.006253	-0.453039	-0.552991
O13	O	1.105026	-0.575355	-0.827080
O14	O	0.987585	-0.541066	-0.660538
O15	O	1.212678	-0.513309	-0.845720
O16	O	1.255707	-0.667790	-0.596031
O17	O	1.129506	-0.663244	-0.685025
C18	C	0.965136	-0.492545	-0.601272
C19	C	0.867773	-0.478750	-0.584465
C20	C	0.554602	-0.623422	-0.760730
C21	C	0.646080	-0.636386	-0.776518
C22	C	0.701507	-0.596978	-0.728507
C23	C	0.665449	-0.544604	-0.664703
C24	C	0.573963	-0.531641	-0.648908
C25	C	0.720868	-0.505198	-0.616685
C26	C	0.684809	-0.452823	-0.552882
C27	C	0.593332	-0.439862	-0.537090
C28	C	0.537904	-0.479270	-0.585102
C29	C	0.812354	-0.518160	-0.632480
C30	C	0.831715	-0.426380	-0.520659
C31	C	0.740237	-0.413415	-0.504870
C32	C	1.192609	-0.688359	-0.640538
C33	C	1.192639	-0.758333	-0.640552
C34	C	1.258392	-0.793558	-0.594279
C35	C	1.258429	-0.859308	-0.594306
C36	C	1.192700	-0.889827	-0.640594
C37	C	1.126942	-0.854594	-0.686877
C38	C	1.126911	-0.788847	-0.686856
N39	N	1.114918	-0.982893	-0.634027
N40	N	1.114951	-1.045351	-0.634042
C41	C	1.192790	-1.087921	-0.640661
N42	N	1.270600	-1.065673	-0.647247
N43	N	1.270567	-1.003210	-0.647228
C44	C	1.192726	-0.961119	-0.640622
C45	C	1.258588	-1.194441	-0.594415
C46	C	1.258626	-1.260193	-0.594448
C47	C	1.127132	-1.255477	-0.687013
C48	C	1.127101	-1.189727	-0.686986
C49	C	1.192829	-1.159213	-0.640682
C50	C	1.421184	-0.557239	-0.680096
C51	C	1.518543	-0.571051	-0.696923
C52	C	1.153201	-0.547586	-0.869070
C53	C	1.136362	-0.557284	-0.966428
C54	C	1.192843	-0.360665	-0.640699
C55	C	1.192898	-0.290708	-0.640738
C56	C	1.313098	-0.455410	-1.279682
C57	C	1.328925	-0.446300	-1.188211
C58	C	1.280785	-0.474045	-1.132761
C59	C	1.216817	-0.510902	-1.168791
C60	C	1.200994	-0.520017	-1.260272
C61	C	1.168681	-0.538652	-1.113350
C62	C	1.104713	-0.575509	-1.149380
C63	C	1.088892	-0.584622	-1.240852
C64	C	1.137031	-0.556877	-1.296302
C65	C	1.184504	-0.529537	-1.021869
C66	C	1.072400	-0.594144	-1.002458
C67	C	1.056573	-0.603254	-1.093930
C68	C	1.232127	-0.502121	-0.413041
C69	C	1.249136	-0.492270	-0.315713
H70	H	0.563978	-0.397221	-0.485129
H71	H	0.509466	-0.655505	-0.799809
H72	H	1.311976	-0.887995	-0.556626
N73	N	1.023231	-0.622485	-0.945815
N74	N	1.037365	-0.614341	-0.864142
H75	H	1.002644	-0.634355	-0.824132
N76	N	0.682925	-0.689877	-0.841685
N77	N	0.764605	-0.701448	-0.855774
H78	H	0.790630	-0.739230	-0.901799
H79	H	1.311913	-0.768716	-0.556579
N80	N	1.059812	-0.885777	-0.734161
N81	N	1.059847	-0.944479	-0.734173
H82	H	1.012437	-0.966503	-0.767572
H83	H	1.073556	-1.161043	-0.724661
N84	N	0.991240	-0.640908	-1.130733
N85	N	0.998757	-0.698791	-1.121490
H86	H	0.952612	-0.725383	-1.147479
H87	H	0.841704	-0.560804	-0.684430
H88	H	1.352292	-0.432829	-1.324838
H89	H	1.124149	-0.564292	-1.370787
H90	H	0.463414	-0.468716	-0.572252
H91	H	0.710865	-0.370771	-0.452921
N92	N	1.059991	-1.286650	-0.734283
N93	N	1.009557	-1.312399	-0.693787
H94	H	0.962137	-1.334419	-0.727174
H95	H	1.236587	-0.499527	-0.992543
N96	N	1.296962	-0.464736	-1.039328
N97	N	1.354076	-0.431827	-1.007169
H98	H	1.365502	-0.425248	-0.941178
N99	N	1.023552	-0.622265	-1.277671
N100	N	1.009431	-0.630396	-1.359346
H101	H	0.963283	-0.656981	-1.385350
H102	H	0.876845	-0.394291	-0.481562
N103	N	1.394271	-0.408659	-1.151425
N104	N	1.437249	-0.383892	-1.200940
H105	H	1.483404	-0.357306	-1.174961
N106	N	1.059751	-0.752865	-0.734137
N107	N	1.051525	-0.769042	-0.815962
H108	H	1.004091	-0.743629	-0.849356
N109	N	0.794948	-0.610230	-0.744641
N110	N	0.827132	-0.656993	-0.801609
H111	H	0.893128	-0.666353	-0.813010
H112	H	1.312110	-1.169596	-0.556715
N113	N	1.325810	-1.296171	-0.547187
N114	N	1.384489	-1.268915	-0.505855
H115	H	1.431941	-1.294325	-0.472477
