data_functionalizedCrystal
_audit_creation_method	'MofGen! by Chris Wilmer'
_symmetry_space_group_name_H-M	'P1'
_symmetry_Int_Tables_number	1
_symmetry_cell_setting	triclinic
loop_
_symmetry_equiv_pos_as_xyz
  x,y,z
_cell_length_a	29.839134
_cell_length_b	29.839131
_cell_length_c	18.050582
_cell_angle_alpha	90.033130
_cell_angle_beta	90.024639
_cell_angle_gamma	90.030088
loop_
_atom_site_label
_atom_site_type_symbol
_atom_site_fract_x
_atom_site_fract_y
_atom_site_fract_z
Zn1	Zn	0.686751	-0.178943	0.420051
Zn2	Zn	1.186751	0.321057	0.920051
Zn3	Zn	0.686688	-0.254066	0.295838
Zn4	Zn	1.186688	0.245934	0.795838
Zn5	Zn	0.611630	-0.178944	0.295854
Zn6	Zn	1.111630	0.321056	0.795854
Zn7	Zn	0.611589	-0.254040	0.419965
Zn8	Zn	1.111589	0.245960	0.919965
O9	O	0.649164	-0.216498	0.357927
O10	O	1.149164	0.283502	0.857927
O11	O	0.749609	-0.188919	0.403602
O12	O	1.249609	0.311081	0.903602
O13	O	0.676722	-0.244111	0.191915
O14	O	1.176722	0.255889	0.691915
O15	O	0.621638	-0.116077	0.312371
O16	O	1.121638	0.383923	0.812371
O17	O	0.749563	-0.244111	0.312344
O18	O	1.249563	0.255889	0.812344
O19	O	0.676829	-0.116076	0.403618
O20	O	1.176829	0.383924	0.903618
O21	O	0.621577	-0.188920	0.191927
O22	O	1.121577	0.311080	0.691927
O23	O	0.548758	-0.188895	0.312288
O24	O	1.048758	0.311105	0.812288
O25	O	0.621569	-0.244068	0.523901
O26	O	1.121569	0.255932	1.023901
O27	O	0.548728	-0.244068	0.403472
O28	O	1.048728	0.255932	0.903472
O29	O	0.676790	-0.188895	0.523964
O30	O	1.176790	0.311105	1.023964
O31	O	0.676682	-0.316929	0.312261
O32	O	1.176682	0.183071	0.812261
O33	O	0.621508	-0.316911	0.403457
O34	O	1.121508	0.183089	0.903457
C35	C	0.532442	-0.216479	0.357873
C36	C	1.032442	0.283521	0.857873
C37	C	0.482507	-0.216482	0.357868
C38	C	0.982507	0.283518	0.857868
C39	C	0.172858	-0.245269	0.405348
C40	C	0.672858	0.254731	0.905348
C41	C	-0.014815	-0.245282	0.405381
C42	C	0.485185	0.254718	0.905381
O43	O	-0.039085	-0.269737	0.445719
O44	O	0.460915	0.230263	0.945719
N45	N	-0.038278	-0.216515	0.357983
N46	N	0.461722	0.283485	0.857983
C47	C	-0.014819	-0.187740	0.310576
C48	C	0.485181	0.312260	0.810576
O49	O	-0.039082	-0.163269	0.270267
O50	O	0.460918	0.336731	0.770267
C51	C	0.172853	-0.187726	0.310547
C52	C	0.672853	0.312274	0.810547
C53	C	0.196313	-0.216498	0.357943
C54	C	0.696313	0.283502	0.857943
C55	C	0.196318	-0.274039	0.452741
C56	C	0.696318	0.225961	0.952741
C57	C	0.243234	-0.274038	0.452729
C58	C	0.743234	0.225962	0.952729
C59	C	0.266689	-0.245266	0.405325
C60	C	0.766689	0.254734	0.905325
C61	C	0.243229	-0.216496	0.357932
C62	C	0.743229	0.283504	0.857932
C63	C	0.196311	-0.158949	0.263145
C64	C	0.696311	0.341051	0.763145
C65	C	0.243232	-0.158947	0.263143
C66	C	0.743232	0.341053	0.763143
C67	C	0.266692	-0.187720	0.310539
C68	C	0.766692	0.312280	0.810539
C69	C	0.313599	-0.187723	0.310516
C70	C	0.813599	0.312277	0.810516
N71	N	0.337062	-0.216490	0.357914
N72	N	0.837062	0.283510	0.857914
C73	C	0.313607	-0.245262	0.405319
C74	C	0.813607	0.254738	0.905319
C75	C	-0.113350	-0.187750	0.310593
C76	C	0.386650	0.312250	0.810593
C77	C	-0.160268	-0.187755	0.310599
C78	C	0.339732	0.312245	0.810599
C79	C	-0.160260	-0.245296	0.405406
C80	C	0.339740	0.254704	0.905406
C81	C	-0.113342	-0.245294	0.405395
C82	C	0.386658	0.254706	0.905395
C83	C	-0.089887	-0.216518	0.357992
C84	C	0.410113	0.283482	0.857992
C85	C	0.412133	-0.245256	0.405290
C86	C	0.912133	0.254744	0.905290
C87	C	0.459052	-0.245253	0.405272
C88	C	0.959052	0.254747	0.905272
C89	C	0.459041	-0.187710	0.310469
C90	C	0.959041	0.312290	0.810469
C91	C	0.412125	-0.187715	0.310484
C92	C	0.912125	0.312285	0.810484
C93	C	0.388672	-0.216489	0.357901
C94	C	0.888672	0.283511	0.857901
O95	O	0.337898	-0.163277	0.270205
O96	O	0.837898	0.336723	0.770205
O97	O	0.337877	-0.269723	0.445634
O98	O	0.837877	0.230277	0.945634
C99	C	0.125943	-0.245271	0.405360
C100	C	0.625943	0.254729	0.905360
C101	C	0.102482	-0.216501	0.357967
C102	C	0.602482	0.283499	0.857967
C103	C	0.125938	-0.187730	0.310562
C104	C	0.625938	0.312270	0.810562
C105	C	0.055564	-0.216506	0.357973
C106	C	0.555564	0.283494	0.857973
C107	C	0.032109	-0.245277	0.405377
C108	C	0.532109	0.254723	0.905377
C109	C	0.055572	-0.274044	0.452776
C110	C	0.555572	0.225956	0.952776
C111	C	0.102487	-0.274043	0.452764
C112	C	0.602487	0.225957	0.952764
C113	C	0.102475	-0.158963	0.263164
C114	C	0.602475	0.341037	0.763164
C115	C	0.055560	-0.158967	0.263178
C116	C	0.555560	0.341033	0.763178
C117	C	0.032104	-0.187739	0.310583
C118	C	0.532104	0.312261	0.810583
C119	C	0.649096	-0.333221	0.357864
C120	C	1.149096	0.166779	0.857864
C121	C	0.649108	-0.383155	0.357862
C122	C	1.149108	0.116845	0.857862
C123	C	0.677896	-0.692764	0.405507
C124	C	1.177896	-0.192764	0.905507
C125	C	0.677945	-0.880437	0.405551
C126	C	1.177945	-0.380437	0.905551
O127	O	0.702355	-0.904672	0.446014
O128	O	1.202355	-0.404672	0.946014
N129	N	0.649241	-0.903940	0.358009
N130	N	1.149241	-0.403940	0.858009
C131	C	0.620520	-0.880523	0.310456
C132	C	1.120520	-0.380523	0.810456
O133	O	0.596104	-0.904820	0.270025
O134	O	1.096104	-0.404820	0.770025
C135	C	0.620470	-0.692851	0.310415
C136	C	1.120470	-0.192851	0.810415
C137	C	0.649179	-0.669349	0.357955
C138	C	1.149179	-0.169349	0.857955
C139	C	0.706603	-0.669262	0.453043
C140	C	1.206603	-0.169262	0.953043
C141	C	0.706592	-0.622347	0.453029
C142	C	1.206592	-0.122347	0.953029
C143	C	0.677875	-0.598933	0.405478
C144	C	1.177875	-0.098933	0.905478
C145	C	0.649168	-0.622434	0.357941
C146	C	1.149168	-0.122434	0.857941
C147	C	0.591747	-0.669434	0.262866
C148	C	1.091747	-0.169434	0.762866
C149	C	0.591736	-0.622513	0.262862
C150	C	1.091736	-0.122513	0.762862
C151	C	0.620446	-0.599012	0.310402
C152	C	1.120446	-0.099012	0.810402
C153	C	0.620440	-0.552104	0.310375
C154	C	1.120440	-0.052104	0.810375
N155	N	0.649144	-0.528601	0.357917
N156	N	1.149144	-0.028601	0.857917
C157	C	0.677861	-0.552015	0.405469
C158	C	1.177861	-0.052015	0.905469
C159	C	0.620550	-0.979053	0.310479
C160	C	1.120550	-0.479053	0.810479
C161	C	0.620563	-1.025971	0.310488
C162	C	1.120563	-0.525971	0.810488
C163	C	0.677987	-1.025882	0.405585
C164	C	1.177987	-0.525882	0.905585
C165	C	0.677976	-0.978963	0.405572
C166	C	1.177976	-0.478963	0.905572
C167	C	0.649254	-0.955550	0.358022
C168	C	1.149254	-0.455550	0.858022
C169	C	0.677837	-0.453489	0.405434
C170	C	1.177837	0.046511	0.905434
C171	C	0.677825	-0.406570	0.405413
C172	C	1.177825	0.093430	0.905413
C173	C	0.620399	-0.406663	0.310320
C174	C	1.120399	0.093337	0.810320
C175	C	0.620413	-0.453578	0.310338
C176	C	1.120413	0.046422	0.810338
C177	C	0.649133	-0.476990	0.357901
C178	C	1.149133	0.023010	0.857901
O179	O	0.596040	-0.527840	0.269940
O180	O	1.096040	-0.027840	0.769940
O181	O	0.702267	-0.527709	0.445905
O182	O	1.202267	-0.027709	0.945905
C183	C	0.677907	-0.739679	0.405521
C184	C	1.177907	-0.239679	0.905521
C185	C	0.649200	-0.763180	0.357984
C186	C	1.149200	-0.263180	0.857984
C187	C	0.620483	-0.739766	0.310433
C188	C	1.120483	-0.239766	0.810433
C189	C	0.649213	-0.810098	0.357993
C190	C	1.149213	-0.310098	0.857993
C191	C	0.677931	-0.833512	0.405545
C192	C	1.177931	-0.333512	0.905545
C193	C	0.706635	-0.810009	0.453087
C194	C	1.206635	-0.310009	0.953087
C195	C	0.706624	-0.763093	0.453072
C196	C	1.206624	-0.263093	0.953072
C197	C	0.591779	-0.763270	0.262891
C198	C	1.091779	-0.263270	0.762891
C199	C	0.591792	-0.810185	0.262909
C200	C	1.091792	-0.310185	0.762909
C201	C	0.620510	-0.833599	0.310460
C202	C	1.120510	-0.333599	0.810460
C203	C	0.766343	-0.216518	0.357981
C204	C	1.266343	0.283482	0.857981
C205	C	0.816277	-0.216526	0.358004
C206	C	1.316277	0.283474	0.858004
C207	C	0.649182	-0.216478	0.551632
C208	C	1.149182	0.283522	1.051632
C209	C	0.649190	-0.216470	0.634178
C210	C	1.149190	0.283530	1.134178
C211	C	0.649245	-0.099320	0.358006
C212	C	1.149245	0.400680	0.858006
C213	C	0.649280	-0.049385	0.358040
C214	C	1.149280	0.450615	0.858040
C215	C	0.649173	-0.216486	0.164975
C216	C	1.149173	0.283514	0.664975
C217	C	0.649252	-0.216368	0.082429
C218	C	1.149252	0.283632	0.582429
C219	C	0.619183	-0.246432	0.833595
C220	C	1.119183	0.253568	1.333595
C221	C	0.660169	-0.257417	0.882994
C222	C	1.160169	0.242583	1.382994
C223	C	0.649212	-0.216436	0.785309
C224	C	1.149212	0.283564	1.285309
C225	C	0.608248	-0.205438	0.882991
C226	C	1.108248	0.294562	1.382991
C227	C	0.649229	-0.216403	0.931294
C228	C	1.149229	0.283597	1.431294
C229	C	0.690219	-0.227442	0.833621
C230	C	1.190219	0.272558	1.333621
C231	C	0.638270	-0.175444	0.833613
C232	C	1.138270	0.324556	1.333613
C233	C	0.679285	-0.186413	0.882990
C234	C	1.179285	0.313587	1.382990
C235	C	0.649201	-0.216455	0.701210
C236	C	1.149201	0.283545	1.201210
C237	C	0.649245	-0.216384	1.015390
C238	C	1.149245	0.283616	1.515390
H239	H	-0.094243	-0.268722	0.443991
H240	H	0.405757	0.231278	0.943991
N241	N	0.707302	-0.954954	0.454123
N242	N	1.207302	-0.454954	0.954123
N243	N	0.735934	-0.928763	0.428039
N244	N	1.235934	-0.428763	0.928039
H245	H	0.756648	-0.911809	0.462329
H246	H	1.256648	-0.411809	0.962329
H247	H	0.701221	-0.472546	0.444170
H248	H	1.201221	0.027454	0.944170
H249	H	0.628993	-0.140801	0.811906
H250	H	1.128993	0.359199	1.311906
H251	H	0.262326	-0.135511	0.224545
H252	H	0.762326	0.364489	0.724545
N253	N	0.172363	-0.129549	0.214733
N254	N	0.672363	0.370451	0.714733
N255	N	0.177635	-0.088100	0.219804
N256	N	0.677635	0.411900	0.719804
H257	H	0.160724	-0.067333	0.185611
H258	H	0.660724	0.432667	0.685611
N259	N	0.591202	-0.955144	0.261911
N260	N	1.091202	-0.455144	0.761911
N261	N	0.549748	-0.960425	0.266768
N262	N	1.049748	-0.460425	0.766768
H263	H	0.529020	-0.943542	0.232465
H264	H	1.029020	-0.443542	0.732465
N265	N	0.707321	-1.049810	0.454149
N266	N	1.207321	-0.549810	0.954149
N267	N	0.707325	-1.091701	0.454144
N268	N	1.207325	-0.591701	0.954144
H269	H	0.728039	-1.108603	0.488443
H270	H	1.228039	-0.608603	0.988443
H271	H	-0.179366	-0.268723	0.444005
H272	H	0.320634	0.231277	0.944005
N273	N	0.564780	-0.193790	0.910197
N274	N	1.064780	0.306210	1.410197
N275	N	0.531674	-0.217630	0.894356
N276	N	1.031674	0.282370	1.394356
H277	H	0.500973	-0.209408	0.913568
H278	H	1.000973	0.290592	1.413568
N279	N	0.671798	-0.300888	0.910200
N280	N	1.171798	0.199112	1.410200
N281	N	0.679764	-0.332023	0.865767
N282	N	1.179764	0.167977	1.365767
H283	H	0.687974	-0.362725	0.884978
H284	H	1.187974	0.137275	1.384978
H285	H	0.478151	-0.268685	0.443869
H286	H	0.978151	0.231315	0.943869
H287	H	0.393023	-0.164287	0.271889
H288	H	0.893023	0.335713	0.771889
H289	H	0.597020	-0.387592	0.271602
H290	H	1.097020	0.112408	0.771602
N291	N	0.562404	-0.598591	0.214287
N292	N	1.062404	-0.098591	0.714287
N293	N	0.562396	-0.556700	0.214276
N294	N	1.062396	-0.056700	0.714276
H295	H	0.541681	-0.539805	0.179969
H296	H	1.041681	-0.039805	0.679969
H297	H	0.724879	-0.236770	0.812025
H298	H	1.224879	0.263230	1.312025
N299	N	0.711189	-0.154574	0.910021
N300	N	1.211189	0.345426	1.410021
N301	N	0.751736	-0.158698	0.894050
N302	N	1.251736	0.341302	1.394050
H303	H	0.774270	-0.136213	0.913141
H304	H	1.274270	0.363787	1.413141
N305	N	0.172372	-0.303440	0.501165
N306	N	0.672372	0.196560	1.001165
N307	N	0.177603	-0.344888	0.496095
N308	N	0.677603	0.155112	0.996095
H309	H	0.160695	-0.365657	0.530294
H310	H	0.660695	0.134343	1.030294
H311	H	0.036466	-0.297473	0.491372
H312	H	0.536466	0.202527	0.991372
H313	H	0.393043	-0.268686	0.443903
H314	H	0.893043	0.231314	0.943903
H315	H	-0.094257	-0.164317	0.271988
H316	H	0.405743	0.335683	0.771988
N317	N	-0.184235	-0.158366	0.262191
N318	N	0.315765	0.341634	0.762191
N319	N	-0.226126	-0.158368	0.262200
N320	N	0.273874	0.341632	0.762200
H321	H	-0.243053	-0.137609	0.228014
H322	H	0.256947	0.362391	0.728014
N323	N	0.587359	-0.278299	0.806392
N324	N	1.087359	0.221701	1.306392
N325	N	0.591462	-0.318865	0.822229
N326	N	1.091462	0.181135	1.322229
H327	H	0.568987	-0.341372	0.803017
H328	H	1.068987	0.158628	1.303017
H329	H	0.478147	-0.164287	0.271871
H330	H	0.978147	0.335713	0.771871
N331	N	0.267187	-0.303430	0.501150
N332	N	0.767187	0.196570	1.001150
N333	N	0.246231	-0.329113	0.543470
N334	N	0.746231	0.170887	1.043470
H335	H	0.263145	-0.349873	0.577672
H336	H	0.763145	0.150127	1.077672
H337	H	0.568393	-0.744210	0.224170
H338	H	1.068393	-0.244210	0.724170
N339	N	0.591248	-1.049975	0.261910
N340	N	1.091248	-0.549975	0.761910
N341	N	0.594256	-1.044759	0.193387
N342	N	1.094256	-0.544759	0.693387
H343	H	0.573551	-1.061711	0.159078
H344	H	1.073551	-0.561711	0.659078
N345	N	0.126441	-0.303437	0.501182
N346	N	0.626441	0.196563	1.001182
N347	N	0.105485	-0.329122	0.543499
N348	N	0.605485	0.170878	1.043499
H349	H	0.122399	-0.349884	0.577697
H350	H	0.622399	0.150116	1.077697
H351	H	0.568369	-0.688561	0.224154
H352	H	1.068369	-0.188561	0.724154
H353	H	0.036462	-0.135538	0.224576
H354	H	0.536462	0.364462	0.724576
N355	N	0.591105	-0.477580	0.261741
N356	N	1.091105	0.022420	0.761741
N357	N	0.565478	-0.456667	0.219270
N358	N	1.065478	0.043333	0.719270
H359	H	0.544781	-0.473615	0.184943
H360	H	1.044781	0.026385	0.684943
H361	H	0.121568	-0.135533	0.224560
H362	H	0.621568	0.364467	0.724560
H363	H	0.701205	-0.387436	0.444126
H364	H	1.201205	0.112564	0.944126
N365	N	0.735954	-0.739098	0.501637
N366	N	1.235954	-0.239098	1.001637
N367	N	0.761590	-0.760017	0.544085
N368	N	1.261590	-0.260017	1.044085
H369	H	0.782306	-0.743073	0.578387
H370	H	1.282306	-0.243073	1.078387
H371	H	0.729968	-0.603215	0.491742
H372	H	1.229968	-0.103215	0.991742
H373	H	0.729987	-0.688321	0.491770
H374	H	1.229987	-0.188321	0.991770
H375	H	0.730019	-0.829081	0.491802
H376	H	1.230019	-0.329081	0.991802
N377	N	0.562465	-0.834181	0.214333
N378	N	1.062465	-0.334181	0.714333
N379	N	0.536828	-0.813264	0.171883
N380	N	1.036828	-0.313264	0.671883
H381	H	0.516114	-0.830210	0.137581
H382	H	1.016114	-0.330210	0.637581
