data_functionalizedCrystal
_audit_creation_method	'MofGen! by Chris Wilmer'
_symmetry_space_group_name_H-M	'P1'
_symmetry_Int_Tables_number	1
_symmetry_cell_setting	triclinic
loop_
_symmetry_equiv_pos_as_xyz
  x,y,z
_cell_length_a	14.044191
_cell_length_b	23.532407
_cell_length_c	13.101039
_cell_angle_alpha	93.336507
_cell_angle_beta	86.337551
_cell_angle_gamma	88.020227
loop_
_atom_site_label
_atom_site_type_symbol
_atom_site_fract_x
_atom_site_fract_y
_atom_site_fract_z
O1	O	1.261656	0.134377	-0.085184
O2	O	1.761656	0.634377	0.414816
O3	O	0.985734	0.129420	-0.085197
O4	O	1.485734	0.629420	0.414803
O5	O	1.132014	0.049419	-0.085171
O6	O	1.632014	0.549419	0.414829
O7	O	1.115375	0.214379	-0.085210
O8	O	1.615375	0.714379	0.414790
O9	O	1.121518	0.055169	0.085257
O10	O	1.621518	0.555169	0.585257
O11	O	0.975238	0.135171	0.085232
O12	O	1.475238	0.635171	0.585232
O13	O	1.251160	0.140128	0.085244
O14	O	1.751160	0.640128	0.585244
Zn15	Zn	1.111533	0.138562	0.112297
Zn16	Zn	1.611533	0.638562	0.612297
Zn17	Zn	1.125361	0.130986	-0.112250
Zn18	Zn	1.625361	0.630986	0.387750
O19	O	1.104880	0.220129	0.085218
O20	O	1.604880	0.720129	0.585218
C21	C	0.945192	0.130127	0.000016
C22	C	1.445192	0.630127	0.500016
C23	C	0.840027	0.123660	0.000012
C24	C	1.340027	0.623660	0.500012
C25	C	0.589420	0.157705	0.000015
C26	C	1.089420	0.657705	0.500015
C27	C	0.647480	0.111845	0.000024
C28	C	1.147480	0.611845	0.500024
C29	C	0.754623	0.118420	0.000017
C30	C	1.254623	0.618420	0.500017
C31	C	0.482267	0.151131	0.000021
C32	C	0.982267	0.651131	0.500021
C33	C	1.126342	0.031055	0.000045
C34	C	1.626342	0.531055	0.500045
C35	C	1.125068	-0.032231	0.000053
C36	C	1.625068	0.467769	0.500053
C37	C	1.203646	-0.427075	0.000000
C38	C	1.703646	0.072925	0.500000
C39	C	1.202463	-0.486540	-0.000007
C40	C	1.702463	0.013460	0.499993
O41	O	1.275306	-0.519337	-0.000042
O42	O	1.775306	-0.019337	0.499958
N43	N	1.115499	-0.513881	-0.000010
N44	N	1.615499	-0.013881	0.499990
C45	C	1.029713	-0.481755	-0.000016
C46	C	1.529713	0.018245	0.499984
O47	O	0.955634	-0.510471	-0.000021
O48	O	1.455634	-0.010471	0.499979
C49	C	1.030897	-0.422292	-0.000016
C50	C	1.530897	0.077708	0.499984
C51	C	1.117867	-0.394953	-0.000002
C52	C	1.617867	0.105047	0.499998
C53	C	1.290609	-0.399737	0.000013
C54	C	1.790609	0.100263	0.500013
C55	C	1.291791	-0.340276	0.000023
C56	C	1.791791	0.159724	0.500023
C57	C	1.206012	-0.308154	0.000020
C58	C	1.706012	0.191846	0.500020
C59	C	1.119049	-0.335493	0.000008
C60	C	1.619049	0.164507	0.500008
C61	C	0.945112	-0.390167	-0.000029
C62	C	1.445112	0.109833	0.499971
C63	C	0.946305	-0.330699	-0.000029
C64	C	1.446305	0.169301	0.499971
C65	C	1.033274	-0.303361	-0.000015
C66	C	1.533274	0.196639	0.499985
C67	C	1.034452	-0.243910	0.000015
C68	C	1.534452	0.256090	0.500015
N69	N	1.121416	-0.216569	0.000018
N70	N	1.621416	0.283431	0.500018
C71	C	1.207196	-0.248691	0.000020
C72	C	1.707196	0.251309	0.500020
C73	C	1.027232	-0.606632	-0.000019
C74	C	1.527232	-0.106632	0.499981
C75	C	1.026046	-0.666094	-0.000012
C76	C	1.526046	-0.166094	0.499988
C77	C	1.198797	-0.670875	-0.000005
C78	C	1.698797	-0.170875	0.499995
C79	C	1.199982	-0.611412	-0.000005
C80	C	1.699982	-0.111412	0.499995
C81	C	1.114196	-0.579291	-0.000016
C82	C	1.614196	-0.079291	0.499984
C83	C	1.209673	-0.123819	0.000042
C84	C	1.709673	0.376181	0.500042
C85	C	1.210848	-0.064353	0.000056
C86	C	1.710848	0.435647	0.500056
C87	C	1.038097	-0.059577	0.000043
C88	C	1.538097	0.440423	0.500043
C89	C	1.036922	-0.119038	0.000035
C90	C	1.536922	0.380962	0.500035
C91	C	1.122717	-0.151158	0.000031
C92	C	1.622717	0.348842	0.500031
O93	O	0.961648	-0.211077	0.000045
O94	O	1.461648	0.288923	0.500045
O95	O	1.281263	-0.219968	0.000011
O96	O	1.781263	0.280032	0.500011
C97	C	1.291702	0.139421	0.000029
C98	C	1.791702	0.639421	0.500029
C99	C	1.396867	0.145888	0.000026
C100	C	1.896867	0.645888	0.500026
C101	C	1.110552	0.238493	-0.000000
C102	C	1.610552	0.738493	0.500000
C103	C	1.111827	0.301778	-0.000015
C104	C	1.611827	0.801778	0.499985
N105	N	1.102102	0.143733	0.265544
N106	N	1.602102	0.643733	0.765544
N107	N	1.134799	0.125811	-0.265496
N108	N	1.634799	0.625811	0.234504
C109	C	1.089271	0.150773	0.474584
C110	C	1.589271	0.650773	0.974584
C111	C	1.147627	0.118773	0.525470
C112	C	1.647627	0.618773	1.025470
C113	C	1.140488	0.122690	0.641787
C114	C	1.640488	0.622690	1.141787
C115	C	1.096409	0.146857	0.358256
C116	C	1.596409	0.646857	0.858256
H117	H	1.279536	-0.149964	0.000034
H118	H	1.779536	0.350036	0.500034
H119	H	0.957370	-0.580482	-0.000019
H120	H	1.457370	-0.080482	0.499981
H121	H	0.876446	-0.304549	-0.000040
H122	H	1.376446	0.195451	0.499960
O123	O	1.213529	0.082452	0.473386
O124	O	1.713529	0.582452	0.973386
C125	C	1.196823	0.026238	0.499693
C126	C	1.696823	0.526238	0.999693
H127	H	1.119141	0.023197	0.529203
H128	H	1.619141	0.523197	1.029203
H129	H	1.212203	-0.004187	0.429176
H130	H	1.712203	0.495813	0.929176
H131	H	1.245615	0.014248	0.561969
H132	H	1.745615	0.514248	1.061969
H133	H	0.620178	0.201901	0.000001
H134	H	1.120178	0.701901	0.500001
O135	O	1.023364	0.186957	0.526977
O136	O	1.523364	0.686957	1.026977
C137	C	1.030815	0.182855	0.633131
C138	C	1.530815	0.682855	1.133131
H139	H	1.105413	0.165833	0.647648
H140	H	1.605413	0.665833	1.147648
H141	H	1.017532	0.226787	0.673989
H142	H	1.517532	0.726787	1.173989
H143	H	0.975527	0.152631	0.663595
H144	H	1.475527	0.652631	1.163595
O145	O	1.295420	-0.037889	0.000019
O146	O	1.795420	0.462111	0.500019
C147	C	1.370873	-0.078996	0.000041
C148	C	1.870873	0.421004	0.500041
H149	H	1.346690	-0.121767	-0.032231
H150	H	1.846690	0.378233	0.467769
H151	H	1.434673	-0.065155	-0.049434
H152	H	1.934673	0.434845	0.450566
H153	H	1.392271	-0.083308	0.081804
H154	H	1.892271	0.416692	0.581804
O155	O	0.610825	0.059108	0.000210
O156	O	1.110825	0.559108	0.500210
C157	C	0.636646	0.032331	0.088463
C158	C	1.136646	0.532331	0.588463
H159	H	0.653208	0.066063	0.150156
H160	H	1.153208	0.566063	0.650156
H161	H	0.575105	0.006131	0.118090
H162	H	1.075105	0.506131	0.618090
H163	H	0.702500	0.003148	0.068506
H164	H	1.202500	0.503148	0.568506
H165	H	1.362611	-0.318023	0.000029
H166	H	1.862611	0.181977	0.500029
H167	H	1.360465	-0.425885	0.000011
H168	H	1.860465	0.074115	0.500011
O169	O	1.284549	-0.584950	-0.000047
O170	O	1.784549	-0.084950	0.499953
C171	C	1.359998	-0.626059	-0.000016
C172	C	1.859998	-0.126059	0.499984
H173	H	1.335810	-0.668831	-0.032278
H174	H	1.835810	-0.168831	0.467722
H175	H	1.423799	-0.612224	-0.049497
H176	H	1.923799	-0.112224	0.450503
H177	H	1.381396	-0.630365	0.081748
H178	H	1.881396	-0.130365	0.581748
H179	H	0.968258	-0.033412	0.000045
H180	H	1.468258	0.466588	0.500045
O181	O	1.282043	-0.702172	-0.000061
O182	O	1.782043	-0.202172	0.499939
C183	C	1.262338	-0.760516	-0.000045
C184	C	1.762338	-0.260516	0.499955
H185	H	1.189926	-0.767660	-0.032306
H186	H	1.689926	-0.267660	0.467694
H187	H	1.320087	-0.786311	-0.049533
H188	H	1.820087	-0.286311	0.450467
H189	H	1.261066	-0.774756	0.081715
H190	H	1.761066	-0.274756	0.581715
H191	H	0.955226	-0.688347	-0.000005
H192	H	1.455226	-0.188347	0.499995
O193	O	0.860615	-0.416692	-0.000230
O194	O	1.360615	0.083308	0.499770
C195	C	0.813803	-0.403655	-0.088492
C196	C	1.313803	0.096345	0.411508
H197	H	0.868481	-0.390790	-0.150172
H198	H	1.368481	0.109210	0.349828
H199	H	0.775657	-0.442665	-0.118135
H200	H	1.275657	0.057335	0.381865
H201	H	0.759417	-0.366969	-0.068542
H202	H	1.259417	0.133031	0.431458
O203	O	0.952361	-0.145509	-0.000020
O204	O	1.452361	0.354491	0.499980
C205	C	0.876903	-0.104402	0.000010
C206	C	1.376903	0.395598	0.500010
H207	H	0.905059	-0.063798	-0.032235
H208	H	1.405059	0.436202	0.467765
H209	H	0.819202	-0.121569	-0.049486
H210	H	1.319202	0.378431	0.450514
H211	H	0.845429	-0.094598	0.081771
H212	H	1.345429	0.405402	0.581771
