data_functionalizedCrystal
_audit_creation_method	'MofGen! by Chris Wilmer'
_symmetry_space_group_name_H-M	'P1'
_symmetry_Int_Tables_number	1
_symmetry_cell_setting	triclinic
loop_
_symmetry_equiv_pos_as_xyz
  x,y,z
_cell_length_a	6.817900
_cell_length_b	9.582889
_cell_length_c	16.015572
_cell_angle_alpha	76.189846
_cell_angle_beta	104.485554
_cell_angle_gamma	111.207298
loop_
_atom_site_label
_atom_site_type_symbol
_atom_site_fract_x
_atom_site_fract_y
_atom_site_fract_z
V1	V	-4.003264	-0.060387	-0.269347
O2	O	-3.950084	0.153916	-0.264382
O3	O	-3.994510	-0.264976	-0.267348
O4	O	-3.926564	0.006805	-0.386890
O5	O	-4.018500	-0.119746	-0.144013
V6	V	-4.485422	-0.042583	-0.254375
O7	O	-4.267517	-0.099440	-0.302189
O8	O	-4.671367	-0.003529	-0.221533
O9	O	-4.270970	0.162006	-0.256374
O10	O	-4.655999	-0.256885	-0.259339
O11	O	-4.587583	0.016777	-0.379709
O12	O	-4.338916	-0.109774	-0.136832
C13	C	-3.850071	-0.316921	-0.263059
C14	C	-3.924011	-0.483749	-0.262208
C15	C	-3.763398	0.029764	-0.415545
C16	C	-3.782233	0.083346	-0.511636
C17	C	-4.163028	-0.392251	-0.888905
C18	C	-4.180721	-0.341854	-0.979193
C19	C	-4.053207	-0.081114	-0.954685
C20	C	-4.035492	-0.131490	-0.864393
C21	C	-4.090409	-0.287060	-0.831511
C22	C	-3.962874	-0.026298	-0.806999
C23	C	-3.945172	-0.076671	-0.716715
C24	C	-4.000089	-0.232235	-0.683826
C25	C	-4.072707	-0.337433	-0.741227
C26	C	-3.907972	0.129271	-0.839884
C27	C	-3.835354	0.234463	-0.782489
C28	C	-3.817636	0.184091	-0.692203
C29	C	-3.872553	0.028527	-0.659314
C30	C	-3.745018	0.289289	-0.634802
C31	C	-3.727316	0.238917	-0.544518
C32	C	-3.854851	-0.021845	-0.569030
C33	C	-4.078753	0.213942	-0.260661
C34	C	-3.984050	0.380772	-0.261517
C35	C	-4.165426	-0.132741	-0.108172
C36	C	-4.125829	-0.186316	-0.012081
H37	H	-3.899543	-0.148525	-0.542255
H38	H	-4.008506	0.045552	-0.981471
Cl39	Cl	-3.930245	0.192596	-0.953386
H40	H	-3.790653	0.361129	-0.809275
H41	H	-3.700330	0.415954	-0.661590
Cl42	Cl	-4.141699	-0.533010	-0.699881
Cl43	Cl	-3.636109	0.371156	-0.472363
H44	H	-4.239850	-0.427525	-1.025922
Cl45	Cl	-4.232020	-0.587829	-0.847559
H46	H	-3.985678	-0.273246	-0.610310
