data_functionalizedCrystal
_audit_creation_method	'MofGen! by Chris Wilmer'
_symmetry_space_group_name_H-M	'P1'
_symmetry_Int_Tables_number	1
_symmetry_cell_setting	triclinic
loop_
_symmetry_equiv_pos_as_xyz
  x,y,z
_cell_length_a	8.559649
_cell_length_b	19.188930
_cell_length_c	7.681481
_cell_angle_alpha	84.272277
_cell_angle_beta	94.913240
_cell_angle_gamma	76.461723
loop_
_atom_site_label
_atom_site_type_symbol
_atom_site_fract_x
_atom_site_fract_y
_atom_site_fract_z
O1	O	2.105137	-0.016273	-0.146396
O2	O	1.639679	0.019799	-0.146415
O3	O	1.885844	-0.100597	-0.146371
O4	O	1.858973	0.104122	-0.146440
O5	O	1.916143	-0.115446	0.146493
O6	O	1.669978	0.004950	0.146449
O7	O	2.135436	-0.031122	0.146467
Zn8	Zn	1.907518	-0.015443	0.192956
Zn9	Zn	1.867598	0.004120	-0.192904
O10	O	1.889272	0.089274	0.146423
C11	C	1.595280	0.015108	0.000015
C12	C	1.417842	0.023245	0.000010
C13	C	1.900124	-0.133987	0.000066
C14	C	1.897514	-0.211356	0.000081
C15	C	2.041954	-0.263833	0.000095
C16	C	2.039498	-0.336527	0.000067
C17	C	1.892597	-0.356742	0.000060
C18	C	1.748137	-0.304254	0.000036
C19	C	1.750595	-0.231561	0.000047
N20	N	1.790620	-0.463929	0.099722
N21	N	1.788294	-0.532986	0.099716
C22	C	1.885180	-0.575761	0.000024
N23	N	1.984505	-0.546875	-0.099639
N24	N	1.986836	-0.477813	-0.099625
C25	C	1.889914	-0.435564	0.000047
C26	C	2.026966	-0.707062	0.000005
C27	C	2.024502	-0.779757	-0.000034
C28	C	1.733139	-0.747483	-0.000048
C29	C	1.735605	-0.674790	-0.000026
C30	C	1.882524	-0.654585	0.000008
C31	C	2.179835	-0.026431	0.000033
C32	C	2.357272	-0.034568	0.000027
C33	C	1.874991	0.122664	-0.000018
C34	C	1.877600	0.200033	-0.000044
N35	N	1.934774	-0.028796	0.456295
N36	N	1.840354	0.017467	-0.456243
H37	H	1.333944	0.078971	-0.000019
N38	N	1.574698	-0.769280	-0.000027
H39	H	1.483566	-0.725002	-0.000020
H40	H	1.556088	-0.793225	-0.108596
N41	N	2.200409	-0.242039	0.000129
H42	H	2.291539	-0.286318	0.000133
H43	H	2.196550	-0.207070	-0.108435
H44	H	2.157121	-0.379261	0.000071
N45	N	2.062475	-0.091344	0.555921
H46	H	2.009381	-0.122814	0.632440
H47	H	2.122553	-0.120745	0.469568
N48	N	1.589690	-0.326052	0.000019
H49	H	1.610049	-0.380066	0.000020
H50	H	1.537734	-0.311810	0.108582
N51	N	1.579816	-0.618184	-0.000031
H52	H	1.486379	-0.642019	-0.000039
H53	H	1.585723	-0.592834	0.108542
H54	H	1.441159	-0.090289	0.000037
N55	N	1.594810	-0.174951	0.000044
H56	H	1.519458	-0.175029	-0.108526
H57	H	1.542058	-0.186093	0.108675
N58	N	2.185417	-0.685262	0.000035
H59	H	2.276549	-0.729539	0.000025
H60	H	2.181550	-0.650288	-0.108523
N61	N	2.180298	-0.836361	-0.000027
H62	H	2.273737	-0.812527	0.000003
H63	H	2.196842	-0.872737	0.108535
N64	N	1.712678	0.080019	0.444143
H65	H	1.715767	0.078499	0.313407
H66	H	1.602606	0.076457	0.476296
