data_functionalizedCrystal
_audit_creation_method	'MofGen! by Chris Wilmer'
_symmetry_space_group_name_H-M	'P1'
_symmetry_Int_Tables_number	1
_symmetry_cell_setting	triclinic
loop_
_symmetry_equiv_pos_as_xyz
  x,y,z
_cell_length_a	14.044220
_cell_length_b	14.519709
_cell_length_c	13.596369
_cell_angle_alpha	89.993066
_cell_angle_beta	89.999747
_cell_angle_gamma	88.434511
loop_
_atom_site_label
_atom_site_type_symbol
_atom_site_fract_x
_atom_site_fract_y
_atom_site_fract_z
O1	O	1.258085	0.222370	-0.081691
O2	O	1.508085	0.472370	0.168309
O3	O	1.758085	0.722370	0.418309
O4	O	2.008085	0.972370	0.668309
O5	O	0.982102	0.214346	-0.081716
O6	O	1.232102	0.464346	0.168284
O7	O	1.482102	0.714346	0.418284
O8	O	1.732102	0.964346	0.668284
O9	O	1.127410	0.084710	-0.081694
O10	O	1.377410	0.334710	0.168306
O11	O	1.627410	0.584710	0.418306
O12	O	1.877410	0.834710	0.668306
O13	O	1.112776	0.352006	-0.081713
O14	O	1.362776	0.602006	0.168287
O15	O	1.612776	0.852006	0.418287
O16	O	1.862776	1.102006	0.668287
O17	O	1.127396	0.084701	0.081889
O18	O	1.377396	0.334701	0.331889
O19	O	1.627396	0.584701	0.581889
O20	O	1.877396	0.834701	0.831889
O21	O	0.982087	0.214337	0.081867
O22	O	1.232087	0.464337	0.331867
O23	O	1.482087	0.714337	0.581867
O24	O	1.732087	0.964337	0.831867
O25	O	1.258070	0.222361	0.081892
O26	O	1.508070	0.472361	0.331892
O27	O	1.758070	0.722361	0.581892
O28	O	2.008070	0.972361	0.831892
Zn29	Zn	1.120076	0.218348	0.107852
Zn30	Zn	1.370076	0.468348	0.357852
Zn31	Zn	1.620076	0.718348	0.607852
Zn32	Zn	1.870076	0.968348	0.857852
Zn33	Zn	1.120095	0.218359	-0.107676
Zn34	Zn	1.370095	0.468359	0.142324
Zn35	Zn	1.620095	0.718359	0.392324
Zn36	Zn	1.870095	0.968359	0.642324
O37	O	1.112761	0.351997	0.081870
O38	O	1.362761	0.601997	0.331870
O39	O	1.612761	0.851997	0.581870
O40	O	1.862761	1.101997	0.831870
C41	C	1.126721	0.050290	0.000098
C42	C	1.376721	0.300290	0.250098
C43	C	1.626721	0.550290	0.500098
C44	C	1.876721	0.800290	0.750098
C45	C	1.124677	-0.052256	0.000098
C46	C	1.374677	0.197744	0.250098
C47	C	1.624677	0.447744	0.500098
C48	C	1.874677	0.697744	0.750098
C49	C	0.946774	0.210829	0.000073
C50	C	1.196774	0.460829	0.250073
C51	C	1.446774	0.710829	0.500073
C52	C	1.696774	0.960829	0.750073
C53	C	0.841531	0.200352	0.000064
C54	C	1.091531	0.450352	0.250064
C55	C	1.341531	0.700352	0.500064
C56	C	1.591531	0.950352	0.750064
C57	C	1.117153	-0.427758	0.000072
C58	C	1.367153	-0.177758	0.250072
C59	C	1.617153	0.072242	0.500072
C60	C	1.867153	0.322242	0.750072
C61	C	1.119243	-0.323282	0.000079
C62	C	1.369243	-0.073282	0.250079
C63	C	1.619243	0.176718	0.500079
C64	C	1.869243	0.426718	0.750079
C65	C	1.120915	-0.240010	0.000086
C66	C	1.370915	0.009990	0.250086
C67	C	1.620915	0.259990	0.500086
C68	C	1.870915	0.509990	0.750086
C69	C	1.123005	-0.135527	0.000092
C70	C	1.373005	0.114473	0.250092
C71	C	1.623005	0.364473	0.500092
C72	C	1.873005	0.614473	0.750092
C73	C	0.648837	0.181197	0.000084
C74	C	0.898837	0.431197	0.250084
C75	C	1.148837	0.681197	0.500084
C76	C	1.398837	0.931197	0.750084
C77	C	0.591329	0.255505	0.000083
C78	C	0.841329	0.505505	0.250083
C79	C	1.091329	0.755505	0.500083
C80	C	1.341329	1.005505	0.750083
C81	C	0.484108	0.244848	0.000095
C82	C	0.734108	0.494848	0.250095
C83	C	0.984108	0.744848	0.500095
C84	C	1.234108	0.994848	0.750095
C85	C	0.756068	0.191854	0.000073
C86	C	1.006068	0.441854	0.250073
C87	C	1.256068	0.691854	0.500073
C88	C	1.506068	0.941854	0.750073
C89	C	1.293398	0.225878	0.000101
C90	C	1.543398	0.475878	0.250101
C91	C	1.793398	0.725878	0.500101
C92	C	2.043398	0.975878	0.750101
C93	C	1.398641	0.236355	0.000104
C94	C	1.648641	0.486355	0.250104
C95	C	1.898641	0.736355	0.500104
C96	C	2.148641	0.986355	0.750104
C97	C	1.113451	0.386416	0.000076
C98	C	1.363451	0.636416	0.250076
C99	C	1.613451	0.886416	0.500076
C100	C	1.863451	1.136416	0.750076
C101	C	1.115494	0.488963	0.000070
C102	C	1.365494	0.738963	0.250070
C103	C	1.615494	0.988963	0.500070
C104	C	1.865494	1.238963	0.750070
N105	N	1.120070	0.218340	0.254944
N106	N	1.370070	0.468340	0.504944
N107	N	1.620070	0.718340	0.754944
N108	N	1.870070	0.968340	1.004944
N109	N	1.120109	0.218360	-0.254767
N110	N	1.370109	0.468360	-0.004767
N111	N	1.620109	0.718360	0.245233
N112	N	1.870109	0.968360	0.495233
C113	C	1.120094	0.218360	0.656235
C114	C	1.370094	0.468360	0.906235
C115	C	1.620094	0.718360	1.156235
C116	C	1.870094	0.968360	1.406235
C117	C	1.120085	0.218357	0.544583
C118	C	1.370085	0.468357	0.794583
C119	C	1.620085	0.718357	1.044583
C120	C	1.870085	0.968357	1.294583
C121	C	1.120083	0.218351	0.455593
C122	C	1.370083	0.468351	0.705593
C123	C	1.620083	0.718351	0.955593
C124	C	1.870083	0.968351	1.205593
C125	C	1.120072	0.218347	0.343934
C126	C	1.370072	0.468347	0.593934
C127	C	1.620072	0.718347	0.843934
C128	C	1.870072	0.968347	1.093934
H129	H	0.622622	0.327127	0.000073
H130	H	0.872622	0.577127	0.250073
H131	H	1.122622	0.827127	0.500073
H132	H	1.372622	1.077127	0.750073
N133	N	0.609573	0.091360	0.000098
N134	N	0.859573	0.341360	0.250098
N135	N	1.109573	0.591360	0.500098
N136	N	1.359573	0.841360	0.750098
N137	N	0.521263	0.082722	0.000106
N138	N	0.771263	0.332722	0.250106
N139	N	1.021263	0.582722	0.500106
N140	N	1.271263	0.832722	0.750106
H141	H	0.493522	0.019275	0.000113
H142	H	0.743522	0.269275	0.250113
H143	H	0.993522	0.519275	0.500113
H144	H	1.243522	0.769275	0.750113
