data_functionalizedCrystal
_audit_creation_method	'MofGen! by Chris Wilmer'
_symmetry_space_group_name_H-M	'P1'
_symmetry_Int_Tables_number	1
_symmetry_cell_setting	triclinic
loop_
_symmetry_equiv_pos_as_xyz
  x,y,z
_cell_length_a	17.077404
_cell_length_b	14.908178
_cell_length_c	17.077396
_cell_angle_alpha	93.326565
_cell_angle_beta	90.019501
_cell_angle_gamma	93.314115
loop_
_atom_site_label
_atom_site_type_symbol
_atom_site_fract_x
_atom_site_fract_y
_atom_site_fract_z
Zn1	Zn	1.182048	-0.359182	0.425797
Zn2	Zn	1.174391	-0.510065	0.286951
Zn3	Zn	1.050778	-0.359213	0.294544
Zn4	Zn	1.043186	-0.510011	0.418177
O5	O	1.112601	-0.434618	0.356367
O6	O	1.290879	-0.379206	0.407390
O7	O	1.157966	-0.490090	0.178109
O8	O	1.074573	-0.232955	0.318321
O9	O	1.285253	-0.490059	0.305380
O10	O	1.171016	-0.232931	0.414753
O11	O	1.067148	-0.379260	0.183688
O12	O	0.939924	-0.379208	0.310932
O13	O	1.061634	-0.489968	0.529037
O14	O	0.934347	-0.489999	0.401765
O15	O	1.163655	-0.379154	0.534635
O16	O	1.150604	-0.636312	0.297991
O17	O	1.054209	-0.636273	0.394403
C18	C	0.908654	-0.434601	0.356346
C19	C	0.821403	-0.434616	0.356355
C20	C	0.777525	-0.492392	0.403567
C21	C	0.695544	-0.492394	0.403579
C22	C	0.657443	-0.434624	0.356375
C23	C	0.701328	-0.376842	0.309161
C24	C	0.783307	-0.376836	0.309154
C25	C	0.530457	-0.376860	0.309179
C26	C	0.448472	-0.376866	0.309186
C27	C	0.442694	-0.492417	0.403605
C28	C	0.524673	-0.492412	0.403597
C29	C	0.568552	-0.434631	0.356382
C30	C	1.100773	-0.669029	0.344563
C31	C	1.095785	-0.769311	0.339540
C32	C	1.186762	-0.957578	0.430622
C33	C	1.182078	-1.051802	0.425905
C34	C	1.081730	-1.051985	0.325393
C35	C	1.086414	-0.957761	0.330110
C36	C	1.138933	-0.910561	0.382726
C37	C	1.143620	-0.816335	0.387438
C38	C	1.043268	-0.816520	0.286931
C39	C	1.038584	-0.910744	0.282213
C40	C	1.317344	-0.434635	0.356388
C41	C	1.404593	-0.434642	0.356398
C42	C	1.112651	-0.434551	0.561115
C43	C	1.112673	-0.434523	0.648366
C44	C	1.124496	-0.199291	0.368234
C45	C	1.129565	-0.099009	0.373291
C46	C	1.112598	-0.434619	0.152419
C47	C	1.112742	-0.434393	0.065181
C48	C	1.165798	-0.376817	0.692273
C49	C	1.165809	-0.376787	0.774255
C50	C	1.112698	-0.434468	0.812328
C51	C	1.059568	-0.492176	0.768416
C52	C	1.059554	-0.492201	0.686435
C53	C	1.059602	-0.492122	0.939288
C54	C	1.059617	-0.492099	1.021274
C55	C	1.165857	-0.376708	1.027108
C56	C	1.165843	-0.376733	0.945128
C57	C	1.112713	-0.434443	0.901221
H58	H	0.819032	-0.329784	0.270713
C59	C	1.001151	-0.555627	0.810300
C60	C	1.031605	-0.626444	0.863089
C61	C	0.973191	-0.689899	0.904974
C62	C	0.884322	-0.682538	0.894071
C63	C	0.853864	-0.611718	0.841280
C64	C	0.912278	-0.548263	0.799394
H65	H	1.097395	-0.631896	0.871163
H66	H	0.995739	-0.742324	0.944054
H67	H	0.841080	-0.729511	0.925077
H68	H	0.788074	-0.606267	0.833206
H69	H	0.889730	-0.495838	0.760315
C70	C	0.647281	-0.555953	0.455512
C71	C	0.653379	-0.658508	0.443788
C72	C	0.605118	-0.722069	0.495725
C73	C	0.550759	-0.683075	0.559387
C74	C	0.544659	-0.580515	0.571114
C75	C	0.592920	-0.516954	0.519177
H76	H	0.693621	-0.687378	0.396659
H77	H	0.609634	-0.797991	0.487043
H78	H	0.515034	-0.730127	0.597834
H79	H	0.504417	-0.551645	0.618243
H80	H	0.588404	-0.441031	0.527859
C81	C	1.224265	-0.313285	0.903247
C82	C	1.223047	-0.210714	0.919687
C83	C	1.281469	-0.147263	0.877807
C84	C	1.341110	-0.186383	0.819486
C85	C	1.342331	-0.288959	0.803043
C86	C	1.283909	-0.352410	0.844923
H87	H	1.178895	-0.181751	0.962862
H88	H	1.280564	-0.071330	0.889979
H89	H	1.384357	-0.139413	0.788484
H90	H	1.386482	-0.317922	0.759868
H91	H	1.284813	-0.428344	0.832751
H92	H	0.670300	-0.329801	0.270730
H93	H	1.186386	-0.777905	0.430279
H94	H	0.555692	-0.539458	0.442030
H95	H	0.406964	-0.539462	0.442051
C96	C	1.001123	-0.555684	0.638131
C97	C	0.941462	-0.516603	0.583731
C98	C	0.883029	-0.580086	0.535426
C99	C	0.884257	-0.682649	0.541521
C100	C	0.943921	-0.721735	0.595924
C101	C	1.002354	-0.658252	0.644229
H102	H	0.940550	-0.440675	0.579217
H103	H	0.838862	-0.551151	0.495154
H104	H	0.841002	-0.729643	0.505763
H105	H	0.944832	-0.797663	0.600438
H106	H	1.046521	-0.687187	0.684501
C107	C	0.990652	-0.764797	0.234240
C108	C	0.900762	-0.777831	0.239900
C109	C	0.848153	-0.726106	0.187208
C110	C	0.885433	-0.661347	0.128857
C111	C	0.975328	-0.648310	0.123195
C112	C	1.027938	-0.700035	0.175887
H113	H	0.873161	-0.825772	0.283097
H114	H	0.781606	-0.735757	0.191400
H115	H	0.846488	-0.623057	0.089852
H116	H	1.002929	-0.600369	0.079998
H117	H	1.094484	-0.690383	0.171695
H118	H	1.016368	-0.539066	1.052271
H119	H	1.038968	-1.090432	0.282559
C120	C	0.578729	-0.313299	0.257247
C121	C	0.572632	-0.210743	0.268966
C122	C	0.620906	-0.147186	0.217035
C123	C	0.675276	-0.186185	0.153385
C124	C	0.681375	-0.288746	0.141664
C125	C	0.633101	-0.352303	0.193595
H126	H	0.532382	-0.181869	0.316085
H127	H	0.616391	-0.071264	0.225712
H128	H	0.711011	-0.139137	0.114943
H129	H	0.721624	-0.317621	0.094545
H130	H	0.637616	-0.428226	0.184918
H131	H	0.808540	-0.539438	0.442003
C132	C	0.406560	-0.313294	0.257285
C133	C	0.454822	-0.249714	0.205372
C134	C	0.412910	-0.186131	0.153481
C135	C	0.322736	-0.186129	0.153502
C136	C	0.274469	-0.249712	0.205417
C137	C	0.316381	-0.313295	0.257309
H138	H	0.521578	-0.249713	0.205355
H139	H	0.448641	-0.139063	0.115050
H140	H	0.291711	-0.139062	0.115089
H141	H	0.207713	-0.249713	0.205435
H142	H	0.280650	-0.360363	0.295740
C143	C	0.980819	-0.962666	0.224334
C144	C	0.892217	-0.949796	0.231287
C145	C	0.834454	-1.001715	0.173402
C146	C	0.865293	-1.066504	0.108565
C147	C	0.953899	-1.079376	0.101609
C148	C	1.011662	-1.027458	0.159493
H149	H	0.869385	-0.901834	0.279286
H150	H	0.768862	-0.992186	0.178552
H151	H	0.822533	-1.104937	0.065715
H152	H	0.976731	-1.127339	0.053609
H153	H	1.077254	-1.036987	0.154344
H154	H	1.209116	-0.329718	1.062861
H155	H	1.229531	-0.919147	0.473459
H156	H	1.221022	-1.090080	0.464911
H157	H	1.209049	-0.329850	0.661280
H158	H	1.209070	-0.329800	0.810000
H159	H	1.016327	-0.539101	0.903542
