data_functionalizedCrystal
_audit_creation_method	'MofGen! by Chris Wilmer'
_symmetry_space_group_name_H-M	'P1'
_symmetry_Int_Tables_number	1
_symmetry_cell_setting	triclinic
loop_
_symmetry_equiv_pos_as_xyz
  x,y,z
_cell_length_a	10.654562
_cell_length_b	17.038274
_cell_length_c	9.130313
_cell_angle_alpha	89.992053
_cell_angle_beta	90.005872
_cell_angle_gamma	92.199056
loop_
_atom_site_label
_atom_site_type_symbol
_atom_site_fract_x
_atom_site_fract_y
_atom_site_fract_z
O1	O	1.678037	-0.109920	0.121926
O2	O	1.313532	-0.120378	0.121911
O3	O	1.493618	-0.001322	0.121878
O4	O	1.497951	-0.228977	0.121959
O5	O	1.493605	-0.001329	-0.121721
O6	O	1.313519	-0.120385	-0.121688
O7	O	1.678025	-0.109927	-0.121673
Cu8	Cu	1.495771	-0.115157	-0.143923
Cu9	Cu	1.495786	-0.115149	0.144161
O10	O	1.497939	-0.228984	-0.121640
C11	C	1.266656	-0.119612	0.000109
C12	C	1.127000	-0.117308	0.000101
C13	C	1.061363	-0.116238	-0.132674
C14	C	0.930140	-0.114079	-0.132650
C15	C	0.930203	-0.114066	0.132935
C16	C	1.061424	-0.116218	0.132910
C17	C	1.126939	-0.117327	-0.265482
C18	C	1.061301	-0.116258	-0.398268
C19	C	0.930078	-0.114099	-0.398244
C20	C	0.864493	-0.113011	-0.265435
C21	C	1.489671	0.027825	0.000071
C22	C	1.477913	0.114684	0.000049
C23	C	1.585857	0.164192	0.000040
C24	C	1.574802	0.245805	0.000033
C25	C	1.455803	0.277908	0.000024
C26	C	1.347851	0.228393	0.000037
C27	C	1.358907	0.146782	0.000055
C28	C	1.416744	0.523885	-0.000021
C29	C	1.405696	0.605502	-0.000043
C30	C	1.632649	0.622908	-0.000044
C31	C	1.643694	0.541295	-0.000035
C32	C	1.535742	0.491788	-0.000014
C33	C	1.444500	0.361329	0.000011
C34	C	1.547046	0.408368	0.000008
C35	C	1.724900	-0.110694	0.000133
C36	C	1.864556	-0.112997	0.000150
N37	N	1.495769	-0.115162	-0.346546
C38	C	1.501885	0.741869	0.000106
C39	C	1.513640	0.655010	-0.000052
C40	C	1.577045	-0.163050	-0.423190
C41	C	1.577062	-0.163035	-0.576527
C42	C	1.414517	-0.067244	-0.576561
C43	C	1.414507	-0.067255	-0.423227
C44	C	1.658307	-0.210957	-0.346509
C45	C	1.739589	-0.258849	-0.423154
C46	C	1.739606	-0.258834	-0.576491
C47	C	1.658341	-0.210928	-0.653183
N48	N	1.495796	-0.115137	0.346784
H49	H	1.114867	-0.117094	0.241026
H50	H	0.876793	-0.113181	0.241062
O51	O	1.772053	0.506682	-0.000013
H52	H	1.782525	0.469924	-0.099298
H53	H	1.662702	0.286112	0.000022
O54	O	1.827235	-0.310513	-0.340438
H55	H	1.883764	-0.343804	-0.419499
H56	H	1.682759	0.138061	0.000038
O57	O	0.859393	-0.113101	-0.541540
H58	H	0.794219	-0.165401	-0.547727
O59	O	1.326878	-0.015568	-0.659261
H60	H	1.228261	-0.031995	-0.629843
H61	H	1.720536	0.663226	-0.000059
O62	O	1.277341	0.640132	-0.000036
H63	H	1.204131	0.591997	-0.000002
O64	O	1.300317	0.470492	-0.000036
H65	H	1.215715	0.506529	-0.000071
H66	H	1.658373	-0.210913	-0.778040
O67	O	1.219503	0.263021	0.000020
H68	H	1.167218	0.243192	0.099315
H69	H	1.114710	-0.117138	-0.506396
H70	H	0.757643	-0.111252	-0.265426
H71	H	1.805797	-0.297824	-0.638891
O72	O	1.675394	0.373747	0.000031
H73	H	1.727684	0.393587	-0.099254
H74	H	1.658300	-0.210976	-0.221654
H75	H	1.347610	0.387476	0.000001
O76	O	1.242484	0.093378	0.000048
H77	H	1.157878	0.129410	0.000022
H78	H	1.348323	-0.028262	-0.360821
H79	H	1.233786	-0.119087	-0.265517
