data_functionalizedCrystal
_audit_creation_method	'MofGen! by Chris Wilmer'
_symmetry_space_group_name_H-M	'P1'
_symmetry_Int_Tables_number	1
_symmetry_cell_setting	triclinic
loop_
_symmetry_equiv_pos_as_xyz
  x,y,z
_cell_length_a	18.101398
_cell_length_b	18.101395
_cell_length_c	18.101389
_cell_angle_alpha	90.016841
_cell_angle_beta	90.024327
_cell_angle_gamma	90.026371
loop_
_atom_site_label
_atom_site_type_symbol
_atom_site_fract_x
_atom_site_fract_y
_atom_site_fract_z
Zn1	Zn	1.132121	-0.295001	0.418847
Zn2	Zn	1.632121	0.204999	0.918847
Zn3	Zn	1.132017	-0.418826	0.295009
Zn4	Zn	1.632017	0.081174	0.795009
Zn5	Zn	1.008280	-0.294993	0.295008
Zn6	Zn	1.508280	0.205007	0.795008
Zn7	Zn	1.008231	-0.418795	0.418797
Zn8	Zn	1.508231	0.081205	0.918797
O9	O	1.070162	-0.356904	0.356915
O10	O	1.570162	0.143096	0.856915
O11	O	1.235740	-0.311443	0.402440
O12	O	1.735740	0.188557	0.902440
O13	O	1.115580	-0.402410	0.191376
O14	O	1.615580	0.097590	0.691376
O15	O	1.024772	-0.191361	0.311456
O16	O	1.524772	0.308639	0.811456
O17	O	1.235664	-0.402417	0.311457
O18	O	1.735664	0.097583	0.811457
O19	O	1.115757	-0.191367	0.402440
O20	O	1.615757	0.308633	0.902440
O21	O	1.024671	-0.311430	0.191375
O22	O	1.524671	0.188570	0.691375
O23	O	0.904641	-0.311399	0.311408
O24	O	1.404641	0.188601	0.811408
O25	O	1.024688	-0.402363	0.522437
O26	O	1.524688	0.097637	1.022437
O27	O	0.904604	-0.402356	0.402355
O28	O	1.404604	0.097644	0.902355
O29	O	1.115710	-0.311412	0.522473
O30	O	1.615710	0.188588	1.022473
O31	O	1.115532	-0.522455	0.311409
O32	O	1.615532	-0.022455	0.811409
O33	O	1.024587	-0.522432	0.402356
O34	O	1.524587	-0.022432	0.902356
C35	C	0.877752	-0.356874	0.356877
C36	C	1.377752	0.143126	0.856877
C37	C	0.795437	-0.356879	0.356878
C38	C	1.295437	0.143121	0.856878
C39	C	1.070063	-0.549314	0.356893
C40	C	1.570063	-0.049314	0.856893
C41	C	1.070088	-0.631628	0.356909
C42	C	1.570088	-0.131628	0.856909
C43	C	0.496347	-0.356925	0.356940
C44	C	0.996347	0.143075	0.856940
C45	C	0.527670	-0.299412	0.299997
C46	C	1.027670	0.200588	0.799997
C47	C	0.613288	-0.299566	0.299754
C48	C	1.113288	0.200434	0.799754
C49	C	0.644729	-0.356901	0.356909
C50	C	1.144729	0.143099	0.856909
C51	C	0.613611	-0.434909	0.335587
C52	C	1.113611	0.065091	0.835587
C53	C	0.527966	-0.434590	0.335191
C54	C	1.027966	0.065410	0.835191
C55	C	0.527961	-0.337109	0.435339
C56	C	1.027961	0.162891	0.935339
C57	C	0.613612	-0.335371	0.434911
C58	C	1.113612	0.164629	0.934911
C59	C	0.728589	-0.356893	0.356893
C60	C	1.228589	0.143107	0.856893
C61	C	0.412487	-0.356939	0.356954
C62	C	0.912487	0.143061	0.856954
C63	C	1.070251	-0.930719	0.356949
C64	C	1.570251	-0.430719	0.856949
C65	C	1.013163	-0.899410	0.414312
C66	C	1.513163	-0.399410	0.914312
C67	C	1.012892	-0.813792	0.414133
C68	C	1.512892	-0.313792	0.914133
C69	C	1.070170	-0.782337	0.356930
C70	C	1.570170	-0.282337	0.856930
C71	C	1.049041	-0.813472	0.278878
C72	C	1.549041	-0.313472	0.778878
C73	C	1.048673	-0.899117	0.279221
C74	C	1.548673	-0.399117	0.779221
C75	C	1.148593	-0.899073	0.376950
C76	C	1.648593	-0.399073	0.876950
C77	C	1.148132	-0.813422	0.378661
C78	C	1.648132	-0.313422	0.878661
C79	C	1.070126	-0.698477	0.356914
C80	C	1.570126	-0.198477	0.856914
C81	C	1.070293	-1.014579	0.356959
C82	C	1.570293	-0.514579	0.856959
C83	C	1.263324	-0.356934	0.356954
C84	C	1.763324	0.143066	0.856954
C85	C	1.345638	-0.356948	0.356971
C86	C	1.845638	0.143052	0.856971
C87	C	1.070205	-0.356885	0.550077
C88	C	1.570205	0.143115	1.050077
C89	C	1.070223	-0.356877	0.632391
C90	C	1.570223	0.143123	1.132391
C91	C	1.070282	-0.163742	0.356953
C92	C	1.570282	0.336258	0.856953
C93	C	1.070333	-0.081428	0.356970
C94	C	1.570333	0.418572	0.856970
C95	C	1.070162	-0.356869	0.164505
C96	C	1.570162	0.143131	0.664505
C97	C	1.070287	-0.356668	0.082191
C98	C	1.570287	0.143332	0.582191
C99	C	1.070266	-0.356738	0.931482
C100	C	1.570266	0.143262	1.431482
C101	C	1.012801	-0.413780	0.900134
C102	C	1.512801	0.086220	1.400134
C103	C	1.012956	-0.414045	0.814516
C104	C	1.512956	0.085955	1.314516
C105	C	1.070244	-0.356807	0.783100
C106	C	1.570244	0.143193	1.283100
C107	C	1.148270	-0.377998	0.814206
C108	C	1.648270	0.122002	1.314206
C109	C	1.147949	-0.378372	0.899851
C110	C	1.647949	0.121628	1.399851
C111	C	1.050385	-0.278379	0.899905
C112	C	1.550385	0.221621	1.399905
C113	C	1.048649	-0.278832	0.814254
C114	C	1.548649	0.221168	1.314254
C115	C	1.070237	-0.356845	0.699240
C116	C	1.570237	0.143155	1.199240
C117	C	1.070279	-0.356702	1.015342
C118	C	1.570279	0.143298	1.515342
H119	H	0.634329	-0.241719	0.313119
H120	H	1.134329	0.258281	0.813119
C121	C	0.641086	-0.257814	0.456628
C122	C	1.141086	0.242186	0.956628
N123	N	0.661782	-0.199397	0.472983
N124	N	1.161782	0.300603	0.972983
H125	H	1.025796	-0.471508	0.921661
H126	H	1.525796	0.028492	1.421661
C127	C	1.207763	-0.324695	0.927871
C128	C	1.707763	0.175305	1.427871
N129	N	1.252819	-0.284271	0.948972
N130	N	1.752819	0.215729	1.448972
C131	C	1.169677	-0.785897	0.456247
C132	C	1.669677	-0.285897	0.956247
N133	N	1.185907	-0.765152	0.514680
N134	N	1.685907	-0.265152	1.014680
H135	H	1.026111	-0.792740	0.472007
H136	H	1.526111	-0.292740	0.972007
H137	H	0.506389	-0.281216	0.454725
H138	H	1.006389	0.218784	0.954725
H139	H	0.992380	-0.792080	0.261633
H140	H	1.492380	-0.292080	0.761633
C141	C	1.174615	-0.928194	0.452533
C142	C	1.674615	-0.428194	0.952533
N143	N	1.194206	-0.950128	0.509465
N144	N	1.694206	-0.450128	1.009465
C145	C	1.030675	-0.492515	0.786844
C146	C	1.530675	0.007485	1.286844
N147	N	1.044008	-0.551625	0.766002
N148	N	1.544008	-0.051625	1.266002
C149	C	1.207669	-0.323638	0.786715
C150	C	1.707669	0.176362	1.286715
N151	N	1.252408	-0.282695	0.766006
N152	N	1.752408	0.217305	1.266006
H153	H	1.165415	-0.434671	0.792765
H154	H	1.665415	0.065329	1.292765
H155	H	0.507099	-0.241388	0.313215
H156	H	1.007099	0.258612	0.813215
C157	C	1.101057	-0.218364	0.785350
C158	C	1.601057	0.281636	1.285350
N159	N	1.140533	-0.172820	0.763574
N160	N	1.640533	0.327180	1.263574
H161	H	0.635026	-0.452008	0.278892
H162	H	1.135026	0.047992	0.778892
H163	H	0.506120	-0.312363	0.242242
H164	H	1.006120	0.187637	0.742242
C165	C	0.974852	-0.252303	0.929057
C166	C	1.474852	0.247697	1.429057
N167	N	0.917957	-0.232671	0.951014
N168	N	1.417957	0.267329	1.451014
C169	C	1.102400	-0.927101	0.219505
C170	C	1.602400	-0.427101	0.719505
N171	N	1.142862	-0.948175	0.174524
N172	N	1.642862	-0.448175	0.674524
C173	C	0.934791	-0.396127	0.786100
C174	C	1.434791	0.103873	1.286100
N175	N	0.875913	-0.382634	0.764700
N176	N	1.375913	0.117366	1.264700
C177	C	0.641132	-0.494355	0.389854
C178	C	1.141132	0.005645	0.889854
N179	N	0.661865	-0.539129	0.430728
N180	N	1.161865	-0.039129	0.930728
C181	C	0.640923	-0.317266	0.221274
C182	C	1.140923	0.182734	0.721274
N183	N	0.661737	-0.330602	0.162159
N184	N	1.161737	0.169398	0.662159
H185	H	0.507244	-0.478892	0.374857
H186	H	1.007244	0.021108	0.874857
C187	C	0.642522	-0.387845	0.495299
C188	C	1.142522	0.112155	0.995299
N189	N	0.664296	-0.427375	0.540782
N190	N	1.164296	0.072625	1.040782
H191	H	1.192915	-0.792007	0.339927
H192	H	1.692915	-0.292007	0.839927
C193	C	0.500929	-0.457286	0.257760
C194	C	1.000929	0.042714	0.757760
N195	N	0.480568	-0.474378	0.199437
N196	N	0.980568	0.025622	0.699437
H197	H	1.191125	-0.919319	0.335170
H198	H	1.691125	-0.419319	0.835170
H199	H	0.991229	-0.262852	0.793921
H200	H	1.491229	0.237148	1.293921
H201	H	0.955448	-0.920990	0.401230
H202	H	1.455448	-0.420990	0.901230
H203	H	1.026252	-0.919970	0.472374
H204	H	1.526252	-0.419970	0.972374
H205	H	1.092240	-0.235880	0.920179
H206	H	1.592240	0.264120	1.420179
H207	H	0.954823	-0.793362	0.400884
H208	H	1.454823	-0.293362	0.900884
C209	C	0.971306	-0.926186	0.256339
C210	C	1.471306	-0.426186	0.756339
N211	N	0.913030	-0.946570	0.239105
N212	N	1.413030	-0.446570	0.739105
C213	C	0.934397	-0.396045	0.927937
C214	C	1.434397	0.103955	1.427937
N215	N	0.875341	-0.382686	0.948884
N216	N	1.375341	0.117314	1.448884
H217	H	0.507705	-0.378999	0.477766
H218	H	1.007705	0.121001	0.977766
C219	C	1.103441	-0.785942	0.219560
C220	C	1.603441	-0.285942	0.719560
N221	N	1.144415	-0.765203	0.174882
N222	N	1.644415	-0.265203	0.674882
H223	H	1.164804	-0.435654	0.919836
H224	H	1.664804	0.064346	1.419836
