data_functionalizedCrystal
_audit_creation_method	'MofGen! by Chris Wilmer'
_symmetry_space_group_name_H-M	'P1'
_symmetry_Int_Tables_number	1
_symmetry_cell_setting	triclinic
loop_
_symmetry_equiv_pos_as_xyz
  x,y,z
_cell_length_a	14.044209
_cell_length_b	13.101039
_cell_length_c	14.044220
_cell_angle_alpha	93.667477
_cell_angle_beta	86.811585
_cell_angle_gamma	93.659214
loop_
_atom_site_label
_atom_site_type_symbol
_atom_site_fract_x
_atom_site_fract_y
_atom_site_fract_z
O1	O	-1.281968	-0.085094	0.225339
O2	O	-0.948635	0.248239	0.558672
O3	O	-0.615301	0.581573	0.892005
O4	O	-1.005298	-0.085123	0.217034
O5	O	-0.671965	0.248210	0.550367
O6	O	-0.338632	0.581544	0.883700
O7	O	-1.139480	-0.085099	0.082851
O8	O	-0.806146	0.248234	0.416184
O9	O	-0.472813	0.581568	0.749518
O10	O	-1.147787	-0.085118	0.359521
O11	O	-0.814453	0.248215	0.692855
O12	O	-0.481120	0.581548	1.026188
O13	O	-1.129854	0.085329	0.092496
O14	O	-0.796521	0.418663	0.425829
O15	O	-0.463187	0.751996	0.759163
O16	O	-0.995672	0.085305	0.226679
O17	O	-0.662339	0.418638	0.560012
O18	O	-0.329006	0.751972	0.893345
O19	O	-1.272342	0.085334	0.234984
O20	O	-0.939009	0.418667	0.568317
O21	O	-0.605676	0.752001	0.901650
Zn22	Zn	-1.132479	0.112379	0.232362
Zn23	Zn	-0.799146	0.445712	0.565696
Zn24	Zn	-0.465812	0.779045	0.899029
Zn25	Zn	-1.145161	-0.112168	0.219655
Zn26	Zn	-0.811828	0.221166	0.552988
Zn27	Zn	-0.478495	0.554499	0.886322
O28	O	-1.138161	0.085310	0.369166
O29	O	-0.804827	0.418643	0.702500
O30	O	-0.471494	0.751977	1.035833
C31	C	-0.964864	0.000087	0.218221
C32	C	-0.631530	0.333421	0.551554
C33	C	-0.298197	0.666754	0.884887
C34	C	-0.858721	0.000077	0.207376
C35	C	-0.525388	0.333410	0.540710
C36	C	-0.192055	0.666743	0.874043
C37	C	-0.664383	0.000096	0.187553
C38	C	-0.331049	0.333429	0.520886
C39	C	0.002284	0.666763	0.854219
C40	C	-0.613253	0.000094	0.264467
C41	C	-0.279919	0.333428	0.597801
C42	C	0.053414	0.666761	0.931134
C43	C	-0.505116	0.000105	0.253437
C44	C	-0.171783	0.333438	0.586771
C45	C	0.161551	0.666772	0.920104
C46	C	-0.772529	0.000085	0.198581
C47	C	-0.439196	0.333418	0.531915
C48	C	-0.105863	0.666752	0.865248
N49	N	-1.123830	0.265626	0.241035
N50	N	-0.790497	0.598959	0.574368
N51	N	-0.457164	0.932292	0.907702
C52	C	-0.312777	0.000118	0.233798
C53	C	0.020556	0.333452	0.567132
C54	C	0.353890	0.666785	0.900465
C55	C	-0.418920	0.000114	0.244648
C56	C	-0.085586	0.333447	0.577981
C57	C	0.247747	0.666780	0.911315
C58	C	-1.131031	0.000115	0.052052
C59	C	-0.797698	0.333449	0.385385
C60	C	-0.464364	0.666782	0.718718
C61	C	-1.120187	0.000115	-0.054091
C62	C	-0.786853	0.333449	0.279242
C63	C	-0.453520	0.666782	0.612576
N64	N	-1.153817	-0.265415	0.210975
N65	N	-0.820484	0.067919	0.544309
N66	N	-0.487150	0.401252	0.877642
C67	C	-1.112064	0.474666	0.252843
C68	C	-0.778731	0.807999	0.586176
C69	C	-0.445398	1.141333	0.919510
C70	C	-1.165580	0.525551	0.199170
C71	C	-0.832247	0.858885	0.532504
C72	C	-0.498913	1.192218	0.865837
C73	C	-1.159033	0.641869	0.205740
C74	C	-0.825700	0.975202	0.539074
C75	C	-0.492367	1.308535	0.872407
C76	C	-1.118610	0.358338	0.246274
C77	C	-0.785277	0.691672	0.579607
C78	C	-0.451943	1.025005	0.912941
C79	C	-1.100361	0.000099	-0.248429
C80	C	-0.767028	0.333432	0.084904
C81	C	-0.433695	0.666765	0.418237
C82	C	-1.177275	0.000103	-0.299560
C83	C	-0.843942	0.333437	0.033774
C84	C	-0.510609	0.666770	0.367107
C85	C	-1.166244	0.000094	-0.407696
C86	C	-0.832911	0.333427	-0.074363
C87	C	-0.499578	0.666761	0.258970
C88	C	-1.111391	0.000108	-0.140283
C89	C	-0.778058	0.333441	0.193050
C90	C	-0.444724	0.666775	0.526384
C91	C	-1.146609	0.000093	0.399965
C92	C	-0.813276	0.333427	0.733299
C93	C	-0.479943	0.666760	1.066632
C94	C	-1.157454	0.000087	0.506108
C95	C	-0.824121	0.333420	0.839441
C96	C	-0.490788	0.666753	1.172774
H97	H	-0.626945	0.000106	0.113426
H98	H	-0.293612	0.333440	0.446759
H99	H	0.039722	0.666773	0.780093
H100	H	-1.026234	0.000088	-0.285866
H101	H	-0.692901	0.333422	0.047467
H102	H	-0.359568	0.666755	0.380800
O103	O	-1.225901	0.473157	0.138358
O104	O	-0.892568	0.806490	0.471692
O105	O	-0.559234	1.139824	0.805025
C106	C	-1.218940	0.367001	0.145096
C107	C	-0.885607	0.700335	0.478429
C108	C	-0.552274	1.033668	0.811763
H109	H	-1.190856	0.352402	0.217306
H110	H	-0.857523	0.685735	0.550640
H111	H	-0.524189	1.019069	0.883973
H112	H	-1.292507	0.326033	0.137913
H113	H	-0.959174	0.659366	0.471246
H114	H	-0.625840	0.992700	0.804580
H115	H	-1.167831	0.336728	0.085518
H116	H	-0.834498	0.670061	0.418852
H117	H	-0.501165	1.003394	0.752185
O118	O	-1.051629	0.527059	0.313532
O119	O	-0.718295	0.860393	0.646865
O120	O	-0.384962	1.193726	0.980199
C121	C	-1.058460	0.633214	0.306653
C122	C	-0.725126	0.966547	0.639986
C123	C	-0.391793	1.299880	0.973320
H124	H	-1.130483	0.647733	0.278101
H125	H	-0.797150	0.981066	0.611434
H126	H	-0.463816	1.314399	0.944767
H127	H	-1.051820	0.674076	0.380335
H128	H	-0.718487	1.007410	0.713668
H129	H	-0.385153	1.340743	1.047002
H130	H	-0.998601	0.663671	0.255962
H131	H	-0.665268	0.997004	0.589296
H132	H	-0.331935	1.330337	0.922629
H133	H	-1.251412	0.000042	-0.262125
H134	H	-0.918079	0.333376	0.071209
H135	H	-0.584746	0.666709	0.404542
H136	H	-0.650693	0.000085	0.338600
H137	H	-0.317359	0.333418	0.671933
H138	H	0.015974	0.666751	1.005267
