data_functionalizedCrystal
_audit_creation_method	'MofGen! by Chris Wilmer'
_symmetry_space_group_name_H-M	'P1'
_symmetry_Int_Tables_number	1
_symmetry_cell_setting	triclinic
loop_
_symmetry_equiv_pos_as_xyz
  x,y,z
_cell_length_a	12.759401
_cell_length_b	18.050589
_cell_length_c	12.759393
_cell_angle_alpha	89.969329
_cell_angle_beta	89.980163
_cell_angle_gamma	90.029746
loop_
_atom_site_label
_atom_site_type_symbol
_atom_site_fract_x
_atom_site_fract_y
_atom_site_fract_z
Zn1	Zn	1.606156	-0.295585	-0.594027
Zn2	Zn	1.939490	0.037748	-0.260694
Zn3	Zn	2.272823	0.371082	0.072640
Zn4	Zn	1.606009	-0.419795	-0.418350
Zn5	Zn	1.939343	-0.086462	-0.085017
Zn6	Zn	2.272676	0.246871	0.248317
Zn7	Zn	1.430458	-0.295627	-0.418362
Zn8	Zn	1.763792	0.037706	-0.085029
Zn9	Zn	2.097125	0.371040	0.248304
Zn10	Zn	1.430405	-0.419741	-0.593987
Zn11	Zn	1.763739	-0.086408	-0.260654
Zn12	Zn	2.097072	0.246926	0.072679
O13	O	1.518257	-0.357687	-0.506182
O14	O	1.851591	-0.024354	-0.172848
O15	O	2.184924	0.308980	0.160485
O16	O	1.753158	-0.312067	-0.570735
O17	O	2.086491	0.021266	-0.237401
O18	O	2.419824	0.354600	0.095932
O19	O	1.582683	-0.403364	-0.271331
O20	O	1.916016	-0.070031	0.062003
O21	O	2.249349	0.263302	0.395336
O22	O	1.453849	-0.191697	-0.441686
O23	O	1.787182	0.141636	-0.108353
O24	O	2.120515	0.474970	0.224980
O25	O	1.753050	-0.403324	-0.441666
O26	O	2.086383	-0.069990	-0.108332
O27	O	2.419716	0.263343	0.225001
O28	O	1.582933	-0.191666	-0.570746
O29	O	1.916267	0.141667	-0.237413
O30	O	2.249600	0.475001	0.095920
O31	O	1.453706	-0.312139	-0.271339
O32	O	1.787040	0.021195	0.061994
O33	O	2.120373	0.354528	0.395327
O34	O	1.283430	-0.312086	-0.441648
O35	O	1.616764	0.021248	-0.108314
O36	O	1.950097	0.354581	0.225019
O37	O	1.453759	-0.403231	-0.741014
O38	O	1.787092	-0.069898	-0.407680
O39	O	2.120425	0.263435	-0.074347
O40	O	1.283391	-0.403272	-0.570679
O41	O	1.616725	-0.069939	-0.237345
O42	O	1.950058	0.263395	0.095988
O43	O	1.582882	-0.312014	-0.741043
O44	O	1.916215	0.021319	-0.407710
O45	O	2.249549	0.354652	-0.074376
O46	O	1.582631	-0.523713	-0.441627
O47	O	1.915965	-0.190379	-0.108294
O48	O	2.249298	0.142954	0.225040
O49	O	1.453616	-0.523673	-0.570667
O50	O	1.786949	-0.190340	-0.237334
O51	O	2.120283	0.142994	0.096000
C52	C	1.245290	-0.357678	-0.506161
C53	C	1.578623	-0.024345	-0.172827
C54	C	1.911957	0.308989	0.160506
C55	C	1.128513	-0.357692	-0.506177
C56	C	1.461847	-0.024359	-0.172843
C57	C	1.795180	0.308975	0.160490
C58	C	1.073659	-0.405245	-0.573257
C59	C	1.406992	-0.071912	-0.239924
C60	C	1.740325	0.261422	0.093409
C61	C	0.963935	-0.405248	-0.573278
C62	C	1.297268	-0.071914	-0.239945
C63	C	1.630601	0.261419	0.093388
C64	C	0.963930	-0.310143	-0.439129
C65	C	1.297263	0.023191	-0.105795
C66	C	1.630596	0.356524	0.227538
C67	C	1.073652	-0.310137	-0.439114
C68	C	1.406985	0.023197	-0.105781
C69	C	1.740318	0.356530	0.227553
C70	C	1.518131	-0.550639	-0.506164
C71	C	1.851464	-0.217306	-0.172831
C72	C	2.184797	0.116027	0.160502
C73	C	1.518172	-0.633185	-0.506192
C74	C	1.851506	-0.299852	-0.172859
C75	C	2.184839	0.033482	0.160475
C76	C	1.448083	-0.832641	-0.576339
C77	C	1.781416	-0.499308	-0.243006
C78	C	2.114749	-0.165974	0.090327
C79	C	1.422469	-0.882090	-0.480470
C80	C	1.755802	-0.548757	-0.147137
C81	C	2.089135	-0.215423	0.186196
C82	C	1.518276	-0.784315	-0.506206
C83	C	1.851609	-0.450982	-0.172872
C84	C	2.184942	-0.117649	0.160461
C85	C	1.543941	-0.881948	-0.602085
C86	C	1.877275	-0.548615	-0.268752
C87	C	2.210608	-0.215281	0.064581
C88	C	1.518373	-0.930300	-0.506227
C89	C	1.851707	-0.596967	-0.172894
C90	C	2.185040	-0.263634	0.160439
C91	C	1.492611	-0.832677	-0.410286
C92	C	1.825944	-0.499344	-0.076953
C93	C	2.159278	-0.166011	0.256381
C94	C	1.614128	-0.832531	-0.531966
C95	C	1.947462	-0.499197	-0.198632
C96	C	2.280795	-0.165864	0.134701
C97	C	1.588551	-0.881958	-0.436031
C98	C	1.921884	-0.548624	-0.102697
C99	C	2.255217	-0.215291	0.230636
C100	C	1.518217	-0.700217	-0.506194
C101	C	1.851550	-0.366884	-0.172861
C102	C	2.184883	-0.033550	0.160472
C103	C	1.518432	-1.014397	-0.506228
C104	C	1.851766	-0.681064	-0.172894
C105	C	2.185099	-0.347730	0.160439
C106	C	1.792291	-0.357697	-0.506203
C107	C	2.125624	-0.024363	-0.172870
C108	C	2.458957	0.308970	0.160463
C109	C	1.909067	-0.357701	-0.506212
C110	C	2.242401	-0.024368	-0.172879
C111	C	2.575734	0.308966	0.160454
C112	C	1.518331	-0.357612	-0.780215
C113	C	1.851664	-0.024279	-0.446882
C114	C	2.184997	0.309055	-0.113548
C115	C	1.518362	-0.357580	-0.896992
C116	C	1.851695	-0.024247	-0.563658
C117	C	2.185029	0.309087	-0.230325
C118	C	1.518413	-0.163981	-0.506222
C119	C	1.851747	0.169352	-0.172889
C120	C	2.185080	0.502685	0.160445
C121	C	1.518480	-0.081436	-0.506239
C122	C	1.851813	0.251898	-0.172906
C123	C	2.185146	0.585231	0.160427
C124	C	1.451228	-0.310070	-0.951858
C125	C	1.784561	0.023263	-0.618525
C126	C	2.117895	0.356597	-0.285191
C127	C	1.451253	-0.310047	-1.061582
C128	C	1.784586	0.023286	-0.728249
C129	C	2.117919	0.356620	-0.394915
C130	C	1.585554	-0.405046	-1.061564
C131	C	1.918887	-0.071713	-0.728231
C132	C	2.252221	0.261620	-0.394898
C133	C	1.585523	-0.405072	-0.951842
C134	C	1.918857	-0.071739	-0.618509
C135	C	2.252190	0.261594	-0.285175
C136	C	1.518245	-0.357708	-0.233214
C137	C	1.851578	-0.024375	0.100119
C138	C	2.184911	0.308958	0.433452
C139	C	1.518417	-0.357531	-0.116438
C140	C	1.851750	-0.024198	0.216895
C141	C	2.185084	0.309136	0.550229
H142	H	0.919277	-0.443969	-0.627904
H143	H	1.252610	-0.110636	-0.294570
H144	H	1.585943	0.222698	0.038763
H145	H	1.640194	-0.443764	-0.907169
H146	H	1.973528	-0.110430	-0.573836
H147	H	2.306861	0.222903	-0.240502
H148	H	1.341455	-0.903875	-0.458702
H149	H	1.674788	-0.570542	-0.125369
H150	H	2.008122	-0.237208	0.207965
H151	H	1.640235	-0.443713	-1.106237
H152	H	1.973568	-0.110379	-0.772903
H153	H	2.306902	0.222954	-0.439570
O154	O	0.904737	-0.258869	-0.366792
O155	O	1.238070	0.074464	-0.033458
O156	O	1.571403	0.407797	0.299875
H157	H	0.925819	-0.200592	-0.384946
H158	H	1.259152	0.132741	-0.051613
H159	H	1.592485	0.466074	0.281721
O160	O	1.132842	-0.456519	-0.645602
O161	O	1.466175	-0.123185	-0.312269
O162	O	1.799508	0.210148	0.021065
H163	H	1.111740	-0.514794	-0.627464
H164	H	1.445073	-0.181461	-0.294130
H165	H	1.778407	0.151872	0.039203
O166	O	1.132829	-0.258857	-0.366744
O167	O	1.466162	0.074477	-0.033411
O168	O	1.799496	0.407810	0.299923
H169	H	1.076249	-0.225801	-0.320097
H170	H	1.409582	0.107532	0.013237
H171	H	1.742916	0.440865	0.346570
O172	O	1.378856	-0.258794	-1.120759
O173	O	1.712189	0.074540	-0.787425
O174	O	2.045523	0.407873	-0.454092
H175	H	1.325376	-0.292012	-1.170730
H176	H	1.658710	0.041322	-0.837397
H177	H	1.992043	0.374655	-0.504064
O178	O	1.369348	-0.803941	-0.654788
O179	O	1.702682	-0.470608	-0.321455
O180	O	2.036015	-0.137275	0.011879
H181	H	1.289882	-0.823791	-0.633155
H182	H	1.623215	-0.490458	-0.299822
H183	H	1.956548	-0.157125	0.033511
O184	O	1.463775	-0.804138	-0.302859
O185	O	1.797109	-0.470805	0.030474
O186	O	2.130442	-0.137472	0.363807
H187	H	1.463919	-0.742650	-0.303705
H188	H	1.797252	-0.409317	0.029628
H189	H	2.130585	-0.075983	0.362961
H190	H	1.647952	-0.903475	-0.376662
H191	H	1.981286	-0.570142	-0.043328
H192	H	2.314619	-0.236809	0.290005
H193	H	1.695124	-0.810748	-0.553780
H194	H	2.028457	-0.477414	-0.220447
H195	H	2.361790	-0.144081	0.112887
H196	H	1.565611	-0.903591	-0.683161
H197	H	1.898944	-0.570258	-0.349828
H198	H	2.232277	-0.236924	-0.016495
H199	H	1.396541	-0.271399	-0.907202
H200	H	1.729874	0.061935	-0.573869
H201	H	2.063207	0.395268	-0.240535
