data_functionalizedCrystal
_audit_creation_method	'MofGen! by Chris Wilmer'
_symmetry_space_group_name_H-M	'P1'
_symmetry_Int_Tables_number	1
_symmetry_cell_setting	triclinic
loop_
_symmetry_equiv_pos_as_xyz
  x,y,z
_cell_length_a	10.686285
_cell_length_b	18.215407
_cell_length_c	18.215399
_cell_angle_alpha	90.020595
_cell_angle_beta	85.609148
_cell_angle_gamma	94.368569
loop_
_atom_site_label
_atom_site_type_symbol
_atom_site_fract_x
_atom_site_fract_y
_atom_site_fract_z
Zn1	Zn	-0.502362	-1.147640	-0.393718
Zn2	Zn	-0.169028	-0.814307	-0.060385
Zn3	Zn	0.164305	-0.480973	0.272948
Zn4	Zn	-0.713378	-1.157028	-0.261238
Zn5	Zn	-0.380044	-0.823695	0.072095
Zn6	Zn	-0.046711	-0.490361	0.405429
Zn7	Zn	-0.502401	-1.024574	-0.270662
Zn8	Zn	-0.169068	-0.691241	0.062671
Zn9	Zn	0.164266	-0.357908	0.396004
Zn10	Zn	-0.713305	-1.034015	-0.384264
Zn11	Zn	-0.379972	-0.700681	-0.050931
Zn12	Zn	-0.046639	-0.367348	0.282402
O13	O	-0.607861	-1.090814	-0.327471
O14	O	-0.274528	-0.757481	0.005863
O15	O	0.058805	-0.424148	0.339196
O16	O	-0.530367	-1.251870	-0.376157
O17	O	-0.197034	-0.918537	-0.042824
O18	O	0.136300	-0.585203	0.290510
O19	O	-0.685438	-1.139436	-0.159502
O20	O	-0.352104	-0.806102	0.173832
O21	O	-0.018771	-0.472769	0.507165
O22	O	-0.325821	-1.033019	-0.294887
O23	O	0.007513	-0.699686	0.038447
O24	O	0.340846	-0.366353	0.371780
O25	O	-0.685400	-1.258767	-0.278824
O26	O	-0.352066	-0.925434	0.054509
O27	O	-0.018733	-0.592101	0.387843
O28	O	-0.325792	-1.123435	-0.385296
O29	O	0.007542	-0.790102	-0.051962
O30	O	0.340875	-0.456769	0.281371
O31	O	-0.530434	-1.042123	-0.166426
O32	O	-0.197101	-0.708789	0.166908
O33	O	0.136233	-0.375456	0.500241
O34	O	-0.530364	-0.922842	-0.285720
O35	O	-0.197031	-0.589508	0.047614
O36	O	0.136303	-0.256175	0.380947
O37	O	-0.685277	-1.049109	-0.488505
O38	O	-0.351943	-0.715776	-0.155171
O39	O	-0.018610	-0.382443	0.178162
O40	O	-0.685315	-0.929778	-0.369182
O41	O	-0.351981	-0.596444	-0.035849
O42	O	-0.018648	-0.263111	0.297484
O43	O	-0.530297	-1.132589	-0.495451
O44	O	-0.196964	-0.799256	-0.162117
O45	O	0.136370	-0.465923	0.171216
O46	O	-0.889943	-1.148590	-0.269657
O47	O	-0.556610	-0.815256	0.063677
O48	O	-0.223276	-0.481923	0.397010
O49	O	-0.889890	-1.058212	-0.360044
O50	O	-0.556557	-0.724879	-0.026710
O51	O	-0.223223	-0.391546	0.306623
C52	C	-0.607837	-0.899607	-0.327448
C53	C	-0.274503	-0.566273	0.005885
C54	C	0.058830	-0.232940	0.339218
C55	C	-0.607857	-0.817809	-0.327455
C56	C	-0.274523	-0.484475	0.005879
C57	C	0.058810	-0.151142	0.339212
C58	C	-0.688663	-0.633251	-0.370847
C59	C	-0.355330	-0.299918	-0.037513
C60	C	-0.021997	0.033415	0.295820
C61	C	-0.688666	-0.556393	-0.370855
C62	C	-0.355333	-0.223059	-0.037521
C63	C	-0.021999	0.110274	0.295812
C64	C	-0.527067	-0.549129	-0.284097
C65	C	-0.193733	-0.215796	0.049236
C66	C	0.139600	0.117537	0.382569
C67	C	-0.527058	-0.625986	-0.284094
C68	C	-0.193725	-0.292653	0.049240
C69	C	0.139608	0.040680	0.382573
C70	C	-0.607864	-0.668046	-0.327467
C71	C	-0.274531	-0.334712	0.005866
C72	C	0.058803	-0.001379	0.339200
C73	C	-0.607875	-0.514330	-0.327479
C74	C	-0.274542	-0.180997	0.005855
C75	C	0.058792	0.152337	0.339188
C76	C	-0.607877	-0.430997	-0.327487
C77	C	-0.274544	-0.097663	0.005846
C78	C	0.058789	0.235670	0.339180
C79	C	-0.607860	-0.751384	-0.327460
C80	C	-0.274527	-0.418051	0.005873
C81	C	0.058806	-0.084718	0.339207
C82	C	-0.935701	-1.105464	-0.312818
C83	C	-0.602367	-0.772131	0.020516
C84	C	-0.269034	-0.438798	0.353849
C85	C	-1.075952	-1.111799	-0.306574
C86	C	-0.742618	-0.778466	0.026760
C87	C	-0.409285	-0.445132	0.360093
C88	C	-0.278742	-1.076127	-0.342197
C89	C	0.054591	-0.742794	-0.008864
C90	C	0.387925	-0.409460	0.324470
C91	C	-0.138491	-1.069868	-0.348473
C92	C	0.194842	-0.736535	-0.015139
C93	C	0.528176	-0.403202	0.318194
C94	C	-0.607774	-1.090855	-0.519428
C95	C	-0.274441	-0.757522	-0.186094
C96	C	0.058892	-0.424188	0.147239
C97	C	-0.607737	-1.090873	-0.601228
C98	C	-0.274404	-0.757539	-0.267895
C99	C	0.058929	-0.424206	0.065438
C100	C	-0.607883	-0.282768	-0.327491
C101	C	-0.274550	0.050565	0.005843
C102	C	0.058784	0.383899	0.339176
C103	C	-0.607882	-0.364567	-0.327491
C104	C	-0.274549	-0.031234	0.005842
C105	C	0.058785	0.302100	0.339176
C106	C	-0.526964	-1.134354	-0.793044
C107	C	-0.193631	-0.801021	-0.459710
C108	C	0.139703	-0.467687	-0.126377
C109	C	-0.526927	-1.134361	-0.869904
C110	C	-0.193594	-0.801028	-0.536571
C111	C	0.139739	-0.467695	-0.203237
C112	C	-0.688315	-1.047434	-0.862660
C113	C	-0.354982	-0.714101	-0.529326
C114	C	-0.021649	-0.380768	-0.195993
C115	C	-0.688345	-1.047424	-0.785801
C116	C	-0.355012	-0.714090	-0.452468
C117	C	-0.021678	-0.380757	-0.119134
C118	C	-0.607671	-1.090888	-0.750995
C119	C	-0.274338	-0.757555	-0.417661
C120	C	0.058996	-0.424221	-0.084328
C121	C	-0.607605	-1.090906	-0.904714
C122	C	-0.274271	-0.757572	-0.571381
C123	C	0.059062	-0.424239	-0.238047
C124	C	-0.607566	-1.090913	-0.988049
C125	C	-0.274232	-0.757580	-0.654716
C126	C	0.059101	-0.424246	-0.321383
C127	C	-0.607708	-1.090880	-0.667654
C128	C	-0.274375	-0.757546	-0.334321
C129	C	0.058958	-0.424213	-0.000987
C130	C	-0.607857	-1.090812	-0.136265
C131	C	-0.274524	-0.757478	0.197069
C132	C	0.058810	-0.424145	0.530402
C133	C	-0.607539	-1.090921	-0.054480
C134	C	-0.274205	-0.757588	0.278853
C135	C	0.059128	-0.424254	0.612186
H136	H	-0.754459	-0.528067	-0.406180
H137	H	-0.421126	-0.194733	-0.072847
H138	H	-0.087793	0.138600	0.260487
O139	O	-0.775324	-1.000556	-0.900202
O140	O	-0.441990	-0.667223	-0.566868
O141	O	-0.108657	-0.333890	-0.233535
H142	H	-0.839520	-1.036363	-0.932347
H143	H	-0.506187	-0.703030	-0.599014
H144	H	-0.172854	-0.369697	-0.265680
O145	O	-1.147166	-1.165772	-0.252727
O146	O	-0.813833	-0.832438	0.080606
O147	O	-0.480500	-0.499105	0.413939
H148	H	-1.122035	-1.152063	-0.196061
H149	H	-0.788701	-0.818729	0.137273
H150	H	-0.455368	-0.485396	0.470606
H151	H	-0.754065	-1.012023	-0.751564
H152	H	-0.420732	-0.678690	-0.418230
H153	H	-0.087399	-0.345356	-0.084897
H154	H	-0.754457	-0.667494	-0.406166
H155	H	-0.421124	-0.334160	-0.072833
H156	H	-0.087791	-0.000827	0.260501
H157	H	-0.461271	-1.169743	-0.764707
H158	H	-0.127937	-0.836410	-0.431374
H159	H	0.205396	-0.503077	-0.098040
H160	H	-0.461280	-0.514876	-0.248783
H161	H	-0.127946	-0.181542	0.084550
H162	H	0.205387	0.151791	0.417884
H163	H	-0.461254	-0.654316	-0.248769
H164	H	-0.127921	-0.320983	0.084564
H165	H	0.205413	0.012351	0.417898
H166	H	-1.084739	-1.029124	-0.389122
H167	H	-0.751405	-0.695790	-0.055788
H168	H	-0.418072	-0.362457	0.277545
O169	O	-0.439887	-1.181247	-0.915259
O170	O	-0.106554	-0.847913	-0.581926
O171	O	0.226780	-0.514580	-0.248593
H172	H	-0.383806	-1.211470	-0.878141
H173	H	-0.050472	-0.878137	-0.544807
H174	H	0.282861	-0.544804	-0.211474
