data_functionalizedCrystal
_audit_creation_method	'MofGen! by Chris Wilmer'
_symmetry_space_group_name_H-M	'P1'
_symmetry_Int_Tables_number	1
_symmetry_cell_setting	triclinic
loop_
_symmetry_equiv_pos_as_xyz
  x,y,z
_cell_length_a	18.050589
_cell_length_b	18.050590
_cell_length_c	18.050583
_cell_angle_alpha	89.999697
_cell_angle_beta	89.966396
_cell_angle_gamma	89.992644
loop_
_atom_site_label
_atom_site_type_symbol
_atom_site_fract_x
_atom_site_fract_y
_atom_site_fract_z
Zn1	Zn	-0.295896	-1.135356	-0.419539
Zn2	Zn	-0.420100	-1.135277	-0.295347
Zn3	Zn	-0.295900	-1.011168	-0.295403
Zn4	Zn	-0.420020	-1.011140	-0.419535
O5	O	-0.357979	-1.073235	-0.357456
O6	O	-0.312403	-1.239270	-0.403043
O7	O	-0.403660	-1.118792	-0.191430
O8	O	-0.191975	-1.027687	-0.311896
O9	O	-0.403656	-1.239212	-0.311799
O10	O	-0.191972	-1.118928	-0.403098
O11	O	-0.312411	-1.027610	-0.191471
O12	O	-0.312333	-0.907240	-0.311892
O13	O	-0.403519	-1.027639	-0.523461
O14	O	-0.403523	-0.907219	-0.403091
O15	O	-0.312325	-1.118900	-0.523463
O16	O	-0.524014	-1.118764	-0.311795
O17	O	-0.523955	-1.027562	-0.403036
C18	C	-0.357920	-0.880283	-0.357498
C19	C	-0.357913	-0.797738	-0.357533
C20	C	-0.407636	-0.598297	-0.407019
C21	C	-0.339916	-0.548896	-0.425298
C22	C	-0.357948	-0.646607	-0.357504
C23	C	-0.425701	-0.548927	-0.339232
C24	C	-0.357988	-0.500622	-0.357478
C25	C	-0.290192	-0.598293	-0.375819
C26	C	-0.376023	-0.598328	-0.289721
C27	C	-0.308256	-0.548949	-0.307974
C28	C	-0.357926	-0.730705	-0.357522
C29	C	-0.358003	-0.416526	-0.357461
C30	C	-0.550931	-1.073172	-0.357425
C31	C	-0.633477	-1.073212	-0.357437
C32	C	-0.882308	-1.122937	-0.307902
C33	C	-0.832962	-1.055179	-0.289684
C34	C	-0.930597	-1.073306	-0.357494
C35	C	-0.832861	-1.141014	-0.375649
C36	C	-0.784612	-1.073263	-0.357464
C37	C	-0.882339	-1.005512	-0.339240
C38	C	-0.882242	-1.091392	-0.425238
C39	C	-0.832919	-1.023587	-0.407045
C40	C	-1.014695	-1.073331	-0.357509
C41	C	-0.700515	-1.073230	-0.357449
C42	C	-0.164273	-1.073320	-0.357503
C43	C	-0.081727	-1.073356	-0.357524
C44	C	-0.357912	-1.073276	-0.551162
C45	C	-0.357884	-1.073293	-0.633708
C46	C	-0.358028	-0.266941	-0.357427
C47	C	-0.358023	-0.349487	-0.357447
C48	C	-0.308243	-1.122967	-0.882535
C49	C	-0.376011	-1.141098	-0.833114
C50	C	-0.357837	-1.073341	-0.930828
C51	C	-0.290097	-1.055221	-0.833168
C52	C	-0.357857	-1.073319	-0.784843
C53	C	-0.425640	-1.091507	-0.882494
C54	C	-0.339681	-1.005599	-0.882553
C55	C	-0.407495	-1.023704	-0.833154
C56	C	-0.357825	-1.073355	-1.014927
C57	C	-0.357877	-1.073305	-0.700746
C58	C	-0.357991	-1.073238	-0.164504
C59	C	-0.357810	-1.073365	-0.081959
H60	H	-0.482982	-0.527238	-0.323790
O61	O	-0.394354	-0.624346	-0.221426
C62	C	-0.480130	-0.696644	-0.149023
C63	C	-0.459436	-0.667241	-0.226410
H64	H	-0.532759	-0.731318	-0.153024
H65	H	-0.433040	-0.732353	-0.126763
H66	H	-0.489938	-0.647977	-0.109976
H67	H	-0.449641	-0.715863	-0.265512
H68	H	-0.506538	-0.631510	-0.248609
H69	H	-0.482947	-1.106906	-0.904071
H70	H	-0.903993	-1.164875	-0.265945
O71	O	-0.807222	-1.036796	-0.221319
C72	C	-0.804222	-0.945130	-0.124319
C73	C	-0.833432	-0.965856	-0.201741
H74	H	-0.825388	-0.887768	-0.108473
H75	H	-0.824532	-0.987467	-0.082071
H76	H	-0.741071	-0.944796	-0.125118
H77	H	-0.896581	-0.966182	-0.201015
H78	H	-0.813065	-0.923514	-0.243956
O79	O	-0.908275	-0.937211	-0.320807
C80	C	-1.015657	-0.860595	-0.300193
C81	C	-0.986383	-0.937981	-0.321062
H82	H	-1.078810	-0.861188	-0.300407
H83	H	-0.994975	-0.845040	-0.242593
H84	H	-0.994848	-0.818247	-0.342184
H85	H	-1.007180	-0.980381	-0.279121
H86	H	-1.007059	-0.953474	-0.378680
O87	O	-0.321668	-0.522860	-0.493614
C88	C	-0.300679	-0.415373	-0.569958
C89	C	-0.321331	-0.444755	-0.492551
H90	H	-0.300415	-0.352222	-0.569128
H91	H	-0.243325	-0.436471	-0.585950
H92	H	-0.343064	-0.435681	-0.612119
H93	H	-0.278996	-0.424459	-0.450338
H94	H	-0.378703	-0.423663	-0.476621
O95	O	-0.394453	-1.209436	-0.807296
C96	C	-0.486207	-1.306339	-0.804131
C97	C	-0.465414	-1.228947	-0.833427
H98	H	-0.543587	-1.322131	-0.825234
H99	H	-0.443912	-1.348637	-0.824439
H100	H	-0.486531	-1.305521	-0.740980
H101	H	-0.465098	-1.229692	-0.896576
H102	H	-0.507714	-1.186682	-0.813062
O103	O	-0.221889	-0.624172	-0.394347
C104	C	-0.145226	-0.731491	-0.415101
C105	C	-0.222616	-0.702282	-0.394123
H106	H	-0.145784	-0.794645	-0.414912
H107	H	-0.129721	-0.710742	-0.472712
H108	H	-0.102862	-0.710700	-0.373154
H109	H	-0.265031	-0.723060	-0.436019
H110	H	-0.238058	-0.723024	-0.336494
H111	H	-0.266206	-0.527418	-0.266090
H112	H	-0.811127	-1.198292	-0.391017
H113	H	-0.811371	-0.981549	-0.448970
H114	H	-0.266347	-1.164976	-0.904217
H115	H	-0.903906	-1.106733	-0.482524
O116	O	-0.221767	-1.036812	-0.807356
C117	C	-0.124744	-0.945182	-0.804382
C118	C	-0.202140	-0.965921	-0.833647
H119	H	-0.108845	-0.887873	-0.825640
H120	H	-0.125518	-0.944760	-0.741230
H121	H	-0.082545	-0.987591	-0.824655
H122	H	-0.244382	-0.923533	-0.813429
H123	H	-0.201305	-0.966367	-0.896798
O124	O	-0.457694	-0.973710	-0.807477
C125	C	-0.585794	-0.936313	-0.803651
C126	C	-0.529024	-0.992988	-0.832767
H127	H	-0.643475	-0.951870	-0.824099
H128	H	-0.585158	-0.936328	-0.740496
H129	H	-0.570763	-0.878748	-0.824846
H130	H	-0.544015	-1.050581	-0.811627
H131	H	-0.529670	-0.992908	-0.895921
O132	O	-0.321363	-0.937325	-0.908613
C133	C	-0.301410	-0.860746	-1.016135
C134	C	-0.322196	-0.938094	-0.986717
H135	H	-0.302061	-0.861346	-1.079285
H136	H	-0.343110	-0.818251	-0.995024
H137	H	-0.243612	-0.845390	-0.995865
H138	H	-0.379976	-0.953519	-1.006975
H139	H	-0.280448	-0.980545	-1.007823
H140	H	-0.449584	-0.619967	-0.448936
