data_functionalizedCrystal
_audit_creation_method	'MofGen! by Chris Wilmer'
_symmetry_space_group_name_H-M	'P1'
_symmetry_Int_Tables_number	1
_symmetry_cell_setting	triclinic
loop_
_symmetry_equiv_pos_as_xyz
  x,y,z
_cell_length_a	11.026607
_cell_length_b	14.472310
_cell_length_c	11.026607
_cell_angle_alpha	89.996986
_cell_angle_beta	108.586017
_cell_angle_gamma	90.013093
loop_
_atom_site_label
_atom_site_type_symbol
_atom_site_fract_x
_atom_site_fract_y
_atom_site_fract_z
O1	O	1.726748	0.076839	0.533619
O2	O	1.360168	0.076840	0.472855
O3	O	1.513076	0.076836	0.319947
O4	O	1.573840	0.076843	0.686527
O5	O	1.513029	-0.076846	0.319947
O6	O	1.360120	-0.076842	0.472855
O7	O	1.726700	-0.076843	0.533619
Cu8	Cu	1.543406	-0.090875	0.503237
Cu9	Cu	1.543463	0.090872	0.503237
O10	O	1.573792	-0.076839	0.686527
C11	C	1.312485	-0.000001	0.461645
C12	C	1.170471	-0.000000	0.428228
C13	C	1.116821	0.000002	0.520498
C14	C	0.970043	0.000003	0.485962
N15	N	1.543375	-0.218706	0.503239
C16	C	1.543460	-0.592797	0.503231
C17	C	1.461214	-0.553629	0.584621
C18	C	1.461539	-0.446541	0.585055
C19	C	1.543417	-0.407206	0.503235
C20	C	1.682724	-0.446043	0.561322
C21	C	1.682296	-0.553165	0.561935
C22	C	1.487517	-0.553329	0.363704
C23	C	1.484662	-0.446201	0.363929
C24	C	1.543400	-0.302318	0.503236
C25	C	1.543486	-0.697685	0.503235
C26	C	1.774384	-0.000000	0.544828
C27	C	1.916398	0.000005	0.578245
C28	C	1.501843	-0.000004	0.272287
C29	C	1.468426	-0.000000	0.130273
N30	N	1.543501	0.218703	0.503227
C31	C	1.560695	0.000001	0.076624
C32	C	1.526160	0.000004	-0.070155
C33	C	1.585026	0.000003	0.734187
C34	C	1.618443	0.000005	0.876200
H35	H	1.107738	0.000022	0.323666
H36	H	0.979125	0.000001	0.682816
H37	H	0.907314	0.000025	0.381393
N38	N	1.756961	0.000012	-0.040725
H39	H	1.762001	0.000011	0.052353
H40	H	1.800746	-0.056960	-0.059542
H41	H	1.382038	-0.420819	0.320523
H42	H	1.179555	-0.000001	0.625061
H43	H	1.547155	-0.578657	0.302793
N44	N	1.699206	-0.000011	0.159705
H45	H	1.704243	-0.000018	0.252783
H46	H	1.742972	-0.056988	0.140878
H47	H	1.421590	0.000011	-0.132884
H48	H	1.358925	-0.420285	0.546162
N49	N	1.329920	-0.000004	0.047179
H50	H	1.286022	-0.056976	0.065882
H51	H	1.286154	0.057002	0.065922
H52	H	1.499603	-0.580537	0.686948
N53	N	1.324945	-0.587786	0.533402
H54	H	1.315198	-0.628985	0.456943
H55	H	1.303378	-0.623893	0.602201
H56	H	1.727157	-0.578139	0.664579
N57	N	1.512541	-0.412572	0.721422
H58	H	1.534942	-0.467186	0.781483
H59	H	1.591554	-0.373856	0.732460
N60	N	1.767746	-0.587516	0.488377
H61	H	1.734674	-0.564193	0.397400
H62	H	1.857676	-0.564061	0.530338
N63	N	1.767338	-0.412301	0.486501
H64	H	1.716058	-0.371415	0.414059
H65	H	1.841189	-0.375964	0.544911
H66	H	1.727906	-0.419204	0.662977
N67	N	1.353778	-0.589152	0.299274
H68	H	1.328099	-0.631335	0.359887
H69	H	1.292290	-0.535439	0.275096
N70	N	1.555903	-0.410755	0.276958
H71	H	1.627596	-0.368729	0.326850
H72	H	1.592587	-0.464650	0.242013
