data_functionalizedCrystal
_audit_creation_method	'MofGen! by Chris Wilmer'
_symmetry_space_group_name_H-M	'P1'
_symmetry_Int_Tables_number	1
_symmetry_cell_setting	triclinic
loop_
_symmetry_equiv_pos_as_xyz
  x,y,z
_cell_length_a	19.288865
_cell_length_b	14.971486
_cell_length_c	14.048226
_cell_angle_alpha	90.006640
_cell_angle_beta	89.994985
_cell_angle_gamma	96.624812
loop_
_atom_site_label
_atom_site_type_symbol
_atom_site_fract_x
_atom_site_fract_y
_atom_site_fract_z
O1	O	0.921714	-0.111581	-0.079129
O2	O	0.719502	-0.126633	-0.079138
O3	O	0.826028	0.011122	-0.079126
O4	O	0.815188	-0.249337	-0.079140
O5	O	0.826015	0.011130	0.079195
O6	O	0.719489	-0.126625	0.079184
O7	O	0.921701	-0.111573	0.079193
Zn8	Zn	0.820593	-0.119098	0.104325
Zn9	Zn	0.820610	-0.119109	-0.104270
O10	O	0.815175	-0.249329	0.079181
C11	C	0.693618	-0.126145	0.000022
C12	C	0.616509	-0.124691	0.000019
C13	C	0.947585	-0.112062	0.000031
C14	C	1.024694	-0.113516	0.000028
C15	C	0.825537	0.044448	0.000034
C16	C	0.824084	0.143737	0.000033
C17	C	1.069126	-0.032687	0.000024
C18	C	1.141578	-0.034053	0.000030
C19	C	1.169594	-0.116252	0.000020
C20	C	1.125151	-0.197091	0.000029
C21	C	1.052701	-0.195723	0.000033
C22	C	1.278086	-0.180873	-0.055456
C23	C	1.350535	-0.182237	-0.055466
C24	C	1.393053	-0.120475	0.000012
C25	C	1.363115	-0.057333	0.055487
C26	C	1.290665	-0.055965	0.055491
C27	C	1.248152	-0.117745	0.000016
C28	C	1.516047	-0.041122	0.000015
C29	C	1.588499	-0.042491	0.000027
C30	C	1.572070	-0.205532	0.000017
C31	C	1.499619	-0.204160	0.000015
C32	C	1.471612	-0.121953	0.000010
C33	C	0.815667	-0.282655	0.000019
C34	C	0.817119	-0.381944	0.000013
N35	N	0.820587	-0.119090	0.246686
C36	C	0.886665	0.201301	0.000037
C37	C	0.885296	0.294593	0.000027
C38	C	0.821345	0.330320	0.000021
C39	C	0.758759	0.272749	0.000014
C40	C	0.760129	0.179458	0.000017
C41	C	0.755909	0.467196	0.000011
C42	C	0.754538	0.560492	0.000010
C43	C	0.881075	0.582330	0.000021
C44	C	0.882445	0.489040	0.000024
C45	C	0.819859	0.431475	0.000019
N46	N	0.820622	-0.119109	-0.246631
C47	C	0.867771	-0.058117	0.296509
C48	C	0.867776	-0.058117	0.396167
C49	C	0.820599	-0.119094	0.445999
C50	C	0.773409	-0.180070	0.396169
C51	C	0.773402	-0.180066	0.296513
C52	C	0.773430	-0.180077	0.603883
C53	C	0.773438	-0.180082	0.703546
C54	C	0.867803	-0.058128	0.703537
C55	C	0.867796	-0.058123	0.603881
C56	C	0.820607	-0.119100	0.554058
H57	H	1.046328	0.034253	0.000023
H58	H	1.594880	-0.272460	0.000015
H59	H	0.735001	-0.229728	0.563321
H60	H	0.906196	-0.008467	0.436732
H61	H	0.734979	-0.229715	0.255948
Cl62	Cl	1.160369	-0.300427	0.000021
H63	H	0.906191	-0.008466	0.255942
Cl64	Cl	1.197447	0.067568	0.000022
H65	H	0.932035	0.629204	0.000022
Cl66	Cl	0.996839	-0.297345	0.000035
Cl67	Cl	0.963973	0.366956	0.000034
H68	H	0.906214	-0.008475	0.563307
Cl69	Cl	0.967065	0.156398	0.000055
Cl70	Cl	0.678363	0.317662	-0.000005
H71	H	0.709169	0.132590	0.000014
H72	H	0.906226	-0.008478	0.744109
H73	H	0.735021	-0.229736	0.744115
H74	H	0.734994	-0.229716	0.436749
H75	H	1.266293	-0.004554	0.100663
H76	H	1.397733	-0.007036	0.100657
H77	H	1.493242	0.025816	0.000015
Cl78	Cl	1.644359	0.059132	0.000032
H79	H	1.463441	-0.269980	0.000012
H80	H	0.934519	0.459955	0.000036
H81	H	0.702464	0.589577	0.000020
H82	H	0.704944	0.420328	0.000005
H83	H	1.374905	-0.233645	-0.100645
H84	H	1.243472	-0.231174	-0.100631
