data_functionalizedCrystal
_audit_creation_method	'MofGen! by Chris Wilmer'
_symmetry_space_group_name_H-M	'P1'
_symmetry_Int_Tables_number	1
_symmetry_cell_setting	triclinic
loop_
_symmetry_equiv_pos_as_xyz
  x,y,z
_cell_length_a	16.625548
_cell_length_b	21.295417
_cell_length_c	16.625539
_cell_angle_alpha	89.966627
_cell_angle_beta	89.979432
_cell_angle_gamma	90.031575
loop_
_atom_site_label
_atom_site_type_symbol
_atom_site_fract_x
_atom_site_fract_y
_atom_site_fract_z
Zn1	Zn	1.232635	-0.250590	-0.455881
Zn2	Zn	1.565969	0.082743	-0.122548
Zn3	Zn	1.899302	0.416077	0.210786
Zn4	Zn	1.232520	-0.355864	-0.321036
Zn5	Zn	1.565853	-0.022530	0.012297
Zn6	Zn	1.899186	0.310803	0.345630
Zn7	Zn	1.097797	-0.250614	-0.321061
Zn8	Zn	1.431131	0.082719	0.012272
Zn9	Zn	1.764464	0.416053	0.345605
Zn10	Zn	1.097749	-0.355827	-0.455826
Zn11	Zn	1.431082	-0.022494	-0.122493
Zn12	Zn	1.764415	0.310839	0.210841
O13	O	1.165175	-0.303224	-0.388451
O14	O	1.498509	0.030110	-0.055118
O15	O	1.831842	0.363443	0.278215
O16	O	1.345452	-0.264560	-0.438006
O17	O	1.678786	0.068773	-0.104673
O18	O	2.012119	0.402107	0.228661
O19	O	1.214620	-0.341927	-0.208207
O20	O	1.547954	-0.008594	0.125126
O21	O	1.881287	0.324740	0.458460
O22	O	1.115753	-0.162522	-0.338979
O23	O	1.449086	0.170812	-0.005646
O24	O	1.782419	0.504145	0.327688
O25	O	1.345367	-0.341904	-0.338936
O26	O	1.678701	-0.008571	-0.005603
O27	O	2.012034	0.324763	0.327731
O28	O	1.214818	-0.162504	-0.438030
O29	O	1.548151	0.170829	-0.104697
O30	O	1.881484	0.504163	0.228636
O31	O	1.115640	-0.264601	-0.208226
O32	O	1.448974	0.068732	0.125108
O33	O	1.782307	0.402066	0.458441
O34	O	0.984958	-0.264566	-0.338926
O35	O	1.318292	0.068768	-0.005593
O36	O	1.651625	0.402101	0.327741
O37	O	1.115670	-0.341842	-0.568666
O38	O	1.449003	-0.008509	-0.235332
O39	O	1.782337	0.324824	0.098001
O40	O	0.984923	-0.341866	-0.437937
O41	O	1.318256	-0.008532	-0.104604
O42	O	1.651589	0.324801	0.228730
O43	O	1.214771	-0.264525	-0.568706
O44	O	1.548104	0.068808	-0.235373
O45	O	1.881437	0.402142	0.097961
O46	O	1.214573	-0.443948	-0.338883
O47	O	1.547907	-0.110615	-0.005550
O48	O	1.881240	0.222719	0.327784
O49	O	1.115558	-0.443922	-0.437912
O50	O	1.448891	-0.110588	-0.104579
O51	O	1.782224	0.222745	0.228754
C52	C	0.955684	-0.303215	-0.388429
C53	C	1.289018	0.030119	-0.055095
C54	C	1.622351	0.363452	0.278238
C55	C	0.866063	-0.303226	-0.388438
C56	C	1.199397	0.030107	-0.055105
C57	C	1.532730	0.363441	0.278229
C58	C	0.537888	-0.303230	-0.388473
C59	C	0.871221	0.030103	-0.055139
C60	C	1.204554	0.363436	0.278194
C61	C	0.629196	-0.303227	-0.388460
C62	C	0.962529	0.030106	-0.055127
C63	C	1.295863	0.363439	0.278206
C64	C	0.701973	-0.303229	-0.388455
C65	C	1.035306	0.030105	-0.055121
C66	C	1.368639	0.363438	0.278212
C67	C	0.793287	-0.303225	-0.388444
C68	C	1.126620	0.030108	-0.055111
C69	C	1.459954	0.363442	0.278223
C70	C	1.165070	-0.466775	-0.388407
C71	C	1.498403	-0.133442	-0.055073
C72	C	1.831736	0.199891	0.278260
C73	C	1.165098	-0.536744	-0.388414
C74	C	1.498431	-0.203410	-0.055081
C75	C	1.831765	0.129923	0.278252
C76	C	1.216701	-0.569603	-0.336903
C77	C	1.550035	-0.236270	-0.003569
C78	C	1.883368	0.097064	0.329764
C79	C	1.216739	-0.635346	-0.336921
C80	C	1.550073	-0.302012	-0.003587
C81	C	1.883406	0.031321	0.329746
C82	C	1.165159	-0.668226	-0.388442
C83	C	1.498493	-0.334893	-0.055109
C84	C	1.831826	-0.001559	0.278224
C85	C	1.113552	-0.635359	-0.439964
C86	C	1.446886	-0.302025	-0.106631
C87	C	1.780219	0.031308	0.226703
C88	C	1.113522	-0.569617	-0.439950
C89	C	1.446855	-0.236284	-0.106617
C90	C	1.780188	0.097049	0.226717
N91	N	1.094624	-0.771493	-0.394581
N92	N	1.427958	-0.438159	-0.061248
N93	N	1.761291	-0.104826	0.272085
N94	N	1.094656	-0.833944	-0.394590
N95	N	1.427989	-0.500611	-0.061257
N96	N	1.761322	-0.167277	0.272077
C97	C	1.165250	-0.866301	-0.388488
C98	C	1.498583	-0.532967	-0.055155
C99	C	1.831916	-0.199634	0.278178
N100	N	1.235813	-0.833847	-0.382362
N101	N	1.569146	-0.500513	-0.049029
N102	N	1.902479	-0.167180	0.284304
N103	N	1.235780	-0.771389	-0.382350
N104	N	1.569114	-0.438056	-0.049016
N105	N	1.902447	-0.104723	0.284317
C106	C	1.165187	-0.739511	-0.388463
C107	C	1.498520	-0.406178	-0.055130
C108	C	1.831854	-0.072845	0.278203
C109	C	1.216898	-0.970446	-0.336994
C110	C	1.550232	-0.637112	-0.003660
C111	C	1.883565	-0.303779	0.329673
C112	C	1.216937	-1.036189	-0.337017
C113	C	1.550271	-0.702856	-0.003684
C114	C	1.883604	-0.369523	0.329649
C115	C	1.113743	-1.036201	-0.440056
C116	C	1.447077	-0.702868	-0.106723
C117	C	1.780410	-0.369534	0.226610
C118	C	1.113711	-0.970459	-0.440037
C119	C	1.447045	-0.637125	-0.106704
C120	C	1.780378	-0.303792	0.226630
C121	C	1.165288	-0.937585	-0.388501
C122	C	1.498621	-0.604252	-0.055168
C123	C	1.831954	-0.270918	0.278166
C124	C	1.375484	-0.303233	-0.388474
C125	C	1.708817	0.030100	-0.055141
C126	C	2.042151	0.363433	0.278192
C127	C	1.465105	-0.303237	-0.388484
C128	C	1.798439	0.030096	-0.055151
C129	C	2.131772	0.363429	0.278183
C130	C	1.165228	-0.303177	-0.598760
C131	C	1.498561	0.030156	-0.265427
C132	C	1.831894	0.363490	0.067906
C133	C	1.165250	-0.303157	-0.688381
C134	C	1.498583	0.030176	-0.355048
C135	C	1.831917	0.363510	-0.021715
C136	C	1.165303	-0.139033	-0.388514
C137	C	1.498637	0.194300	-0.055180
C138	C	1.831970	0.527633	0.278153
C139	C	1.165358	-0.069065	-0.388540
C140	C	1.498691	0.264268	-0.055207
C141	C	1.832025	0.597601	0.278126
C142	C	1.165287	-0.303086	-1.016557
C143	C	1.498621	0.030247	-0.683224
C144	C	1.831954	0.363580	-0.349891
C145	C	1.165275	-0.303108	-0.925249
C146	C	1.498608	0.030225	-0.591915
C147	C	1.831941	0.363559	-0.258582
C148	C	1.165269	-0.303122	-0.852472
C149	C	1.498602	0.030211	-0.519139
C150	C	1.831936	0.363544	-0.185806
C151	C	1.165256	-0.303143	-0.761158
C152	C	1.498589	0.030191	-0.427825
C153	C	1.831922	0.363524	-0.094491
C154	C	1.165169	-0.303225	-0.178960
C155	C	1.498503	0.030108	0.154373
C156	C	1.831836	0.363442	0.487706
C157	C	1.165303	-0.303068	-0.089340
C158	C	1.498637	0.030266	0.243994
C159	C	1.831970	0.363599	0.577327
H160	H	1.258700	-0.542839	-0.294941
H161	H	1.592033	-0.209506	0.038392
H162	H	1.925366	0.123827	0.371725
C163	C	1.057010	-1.072362	-0.496733
C164	C	1.390344	-0.739028	-0.163400
C165	C	1.723677	-0.405695	0.169934
H166	H	1.064416	-1.116222	-0.489363
H167	H	1.397750	-0.782888	-0.156029
H168	H	1.731083	-0.449555	0.177304
H169	H	1.068776	-1.061545	-0.550915
H170	H	1.402109	-0.728212	-0.217582
H171	H	1.735443	-0.394878	0.115751
H172	H	1.002832	-1.061635	-0.484877
H173	H	1.336166	-0.728302	-0.151544
H174	H	1.669499	-0.394969	0.181789
H175	H	1.071688	-0.943703	-0.481979
H176	H	1.405021	-0.610369	-0.148646
H177	H	1.738354	-0.277036	0.184687
C178	C	1.056816	-0.671521	-0.496639
C179	C	1.390149	-0.338188	-0.163305
C180	C	1.723482	-0.004854	0.170028
H181	H	1.026081	-0.642533	-0.527321
H182	H	1.359415	-0.309199	-0.193988
H183	H	1.692748	0.024134	0.139345
H184	H	1.021712	-0.697210	-0.465771
H185	H	1.355045	-0.363877	-0.132438
H186	H	1.688378	-0.030544	0.200896
H187	H	1.087659	-0.697123	-0.531805
H188	H	1.420992	-0.363790	-0.198472
H189	H	1.754326	-0.030457	0.134861
H190	H	1.258764	-0.662105	-0.294974
H191	H	1.592097	-0.328772	0.038360
H192	H	1.925430	0.004562	0.371693
H193	H	1.071500	-0.542862	-0.481898
H194	H	1.404833	-0.209529	-0.148565
H195	H	1.738166	0.123804	0.184768
H196	H	1.258897	-0.943679	-0.295032
H197	H	1.592231	-0.610346	0.038301
H198	H	1.925564	-0.277012	0.371634
C199	C	1.273703	-1.072335	-0.280351
C200	C	1.607037	-0.739002	0.052983
C201	C	1.940370	-0.405669	0.386316
H202	H	1.304408	-1.043339	-0.249653
H203	H	1.637741	-0.710005	0.083680
H204	H	1.971075	-0.376672	0.417014
H205	H	1.308834	-1.097937	-0.311228
H206	H	1.642167	-0.764604	0.022105
H207	H	1.975501	-0.431270	0.355439
H208	H	1.242883	-1.098024	-0.245197
H209	H	1.576216	-0.764690	0.088136
H210	H	1.909549	-0.431357	0.421469
