data_functionalizedCrystal
_audit_creation_method	'MofGen! by Chris Wilmer'
_symmetry_space_group_name_H-M	'P1'
_symmetry_Int_Tables_number	1
_symmetry_cell_setting	triclinic
loop_
_symmetry_equiv_pos_as_xyz
  x,y,z
_cell_length_a	19.077105
_cell_length_b	12.645330
_cell_length_c	19.076919
_cell_angle_alpha	92.276250
_cell_angle_beta	90.076224
_cell_angle_gamma	87.714233
loop_
_atom_site_label
_atom_site_type_symbol
_atom_site_fract_x
_atom_site_fract_y
_atom_site_fract_z
Zn1	Zn	1.058309	-0.512860	-0.440444
Zn2	Zn	1.062962	-0.683311	-0.322946
Zn3	Zn	0.945526	-0.498659	-0.318237
Zn4	Zn	0.940784	-0.682672	-0.435699
O5	O	1.001896	-0.594376	-0.379332
O6	O	1.157259	-0.541682	-0.428815
O7	O	1.051316	-0.653141	-0.223990
O8	O	0.960524	-0.352199	-0.334463
O9	O	1.160677	-0.666911	-0.342490
O10	O	1.043386	-0.362632	-0.424248
O11	O	0.965036	-0.517478	-0.220530
O12	O	0.846565	-0.516858	-0.329862
O13	O	0.952442	-0.665822	-0.534660
O14	O	0.843081	-0.652051	-0.416161
O15	O	1.038788	-0.541062	-0.538146
O16	O	1.046718	-0.831570	-0.337888
O17	O	0.956954	-0.831101	-0.420727
C18	C	0.819326	-0.582845	-0.371986
C19	C	0.741222	-0.577939	-0.368860
C20	C	1.001845	-0.869801	-0.379320
C21	C	1.001886	-0.987635	-0.379341
C22	C	0.702735	-0.646120	-0.412251
C23	C	0.629348	-0.641496	-0.409318
C24	C	0.594448	-0.568695	-0.362988
C25	C	0.632940	-0.500507	-0.319594
C26	C	0.706326	-0.505126	-0.322532
C27	C	0.375159	-0.547316	-0.349394
C28	C	0.301768	-0.542704	-0.346458
C29	C	0.298181	-0.683692	-0.436183
C30	C	0.371569	-0.688309	-0.439113
C31	C	0.410054	-0.620117	-0.395722
N32	N	0.519434	-0.563970	-0.359986
N33	N	0.485066	-0.624839	-0.398728
C34	C	0.945633	-1.154972	-0.431631
C35	C	0.945363	-1.032385	-0.431445
C36	C	0.984820	-1.026659	-0.304483
C37	C	0.984477	-1.149256	-0.304800
C38	C	1.075561	-1.160522	-0.401321
C39	C	1.075039	-1.037980	-0.402922
C40	C	1.185178	-0.605952	-0.386707
C41	C	1.263281	-0.610885	-0.389850
C42	C	0.994567	-0.604955	-0.562612
C43	C	0.991444	-0.609463	-0.640716
C44	C	1.001965	-0.317876	-0.379360
C45	C	1.001995	-0.200049	-0.379372
C46	C	1.034930	-0.546628	-0.679225
C47	C	1.031987	-0.550859	-0.752611
C48	C	0.985561	-0.617932	-0.787487
C49	C	0.942070	-0.680769	-0.748972
C50	C	0.945010	-0.676531	-0.675587
C51	C	0.971944	-0.637565	-1.006769
C52	C	0.969009	-0.641800	-1.080159
C53	C	1.058925	-0.511889	-1.083793
C54	C	1.061864	-0.507662	-1.010407
C55	C	1.018371	-0.570495	-0.971898
N56	N	0.982553	-0.622261	-0.862499
N57	N	1.021376	-0.566159	-0.896887
C58	C	1.009236	-0.583764	-0.196766
C59	C	1.012495	-0.578966	-0.118668
H60	H	0.598015	-0.697017	-0.444651
N61	N	0.877567	-1.188511	-0.413311
N62	N	0.870386	-1.245467	-0.361934
H63	H	0.822315	-1.269158	-0.348993
N64	N	1.095816	-1.204507	-0.468841
N65	N	1.106806	-1.144767	-0.517970
H66	H	1.121103	-1.175831	-0.565658
H67	H	0.890765	-0.998945	-0.416668
N68	N	0.927515	-0.701731	-0.967433
N69	N	0.884383	-0.659233	-0.924691
H70	H	0.853000	-0.704551	-0.896908
H71	H	0.604518	-0.441227	-0.281874
H72	H	0.955696	-1.006214	-0.486858
H73	H	0.930788	-1.173588	-0.286552
H74	H	0.955843	-1.188371	-0.487220
N75	N	1.033928	-1.186376	-0.254071
N76	N	1.068581	-1.121735	-0.218543
H77	H	1.103499	-1.147944	-0.182708
H78	H	1.099671	-0.453047	-0.982016
N79	N	0.921569	-0.710280	-1.115797
N80	N	0.875177	-0.672481	-1.154948
H81	H	0.841673	-0.720835	-1.180123
H82	H	0.399979	-0.747594	-0.476839
H83	H	0.737661	-0.449601	-0.287201
H84	H	0.904267	-0.735377	-0.777373
N85	N	1.034848	-0.990043	-0.254140
N86	N	1.042044	-0.892915	-0.243453
H87	H	1.077378	-0.867051	-0.207901
H88	H	0.406485	-0.491797	-0.314057
N89	N	1.091247	-1.006579	-0.472053
N90	N	1.049117	-0.947342	-0.503876
H91	H	1.060561	-0.925160	-0.552701
N92	N	0.900581	-0.740715	-0.636259
N93	N	0.859130	-0.800595	-0.667404
H94	H	0.827747	-0.845923	-0.639629
N95	N	1.076408	-0.486691	-0.791958
N96	N	1.073777	-0.490479	-0.857479
H97	H	1.105151	-0.445157	-0.885269
H98	H	0.931710	-0.991707	-0.285967
H99	H	0.731145	-0.705405	-0.449976
H100	H	0.266839	-0.739209	-0.471510
H101	H	1.072737	-0.492014	-0.650835
N102	N	0.266128	-0.468330	-0.299126
N103	N	0.300497	-0.407450	-0.260389
H104	H	0.275327	-0.354925	-0.226962
H105	H	1.119004	-1.007870	-0.367868
H106	H	1.094334	-0.460732	-1.115154
H107	H	1.117515	-1.189748	-0.363295
