data_functionalizedCrystal
_audit_creation_method	'MofGen! by Chris Wilmer'
_symmetry_space_group_name_H-M	'P1'
_symmetry_Int_Tables_number	1
_symmetry_cell_setting	triclinic
loop_
_symmetry_equiv_pos_as_xyz
  x,y,z
_cell_length_a	11.026607
_cell_length_b	11.026660
_cell_length_c	10.065875
_cell_angle_alpha	100.697712
_cell_angle_beta	79.268236
_cell_angle_gamma	108.585426
loop_
_atom_site_label
_atom_site_type_symbol
_atom_site_fract_x
_atom_site_fract_y
_atom_site_fract_z
O1	O	0.518946	1.741272	0.113495
O2	O	0.458186	1.374696	0.113496
O3	O	0.305277	1.527602	0.113491
O4	O	0.671855	1.588366	0.113500
O5	O	0.334585	1.498477	-0.113497
O6	O	0.487494	1.345571	-0.113492
O7	O	0.548254	1.712148	-0.113493
Zn8	Zn	0.522527	1.524235	-0.149531
Zn9	Zn	0.483913	1.562608	0.149535
O10	O	0.701163	1.559242	-0.113487
C11	C	0.461631	1.312474	0.000002
C12	C	0.428215	1.170461	0.000003
C13	C	0.272271	1.501830	-0.000002
C14	C	0.130257	1.468414	0.000003
C15	C	0.485956	0.970036	0.000009
C16	C	0.520496	1.116813	0.000007
C17	C	0.076606	1.560683	0.000005
C18	C	-0.070173	1.526148	0.000010
C19	C	0.734168	1.585014	0.000008
C20	C	0.876181	1.618431	0.000012
C21	C	0.544809	1.774370	0.000004
C22	C	0.578223	1.916383	0.000012
N23	N	0.548881	1.498056	-0.353636
C24	C	0.493073	1.553490	-0.421417
C25	C	0.513367	1.533353	-0.578583
N26	N	0.457551	1.588795	0.353639
H27	H	0.625066	1.179538	0.000001
H28	H	0.430262	1.615851	-0.363095
H29	H	0.323633	1.107749	0.000091
H30	H	0.611680	1.435684	-0.411960
H31	H	0.139340	1.665244	-0.000004
H32	H	-0.061106	1.723013	0.000114
H33	H	0.576170	1.470977	-0.636902
H34	H	0.682787	0.979112	0.000006
O35	O	0.055250	1.343727	-0.000052
C36	C	-0.159449	1.195639	0.000047
C37	C	-0.074655	1.336897	0.000076
H38	H	-0.264497	1.190075	0.000179
H39	H	-0.126142	1.133916	-0.094970
H40	H	-0.150483	1.158357	0.095018
H41	H	-0.083581	1.374296	-0.094830
H42	H	-0.107985	1.398532	0.095156
O43	O	0.382422	1.662926	-0.576589
C44	C	0.293184	1.750071	-0.356327
C45	C	0.378508	1.666301	-0.435171
H46	H	0.289970	1.752805	-0.241977
H47	H	0.335116	1.852350	-0.384014
H48	H	0.191216	1.706994	-0.384635
H49	H	0.480493	1.709264	-0.406906
H50	H	0.336471	1.564031	-0.407478
H51	H	0.381396	0.907303	-0.000014
H52	H	-0.132902	1.421581	0.000020
