data_functionalizedCrystal
_audit_creation_method	'MofGen! by Chris Wilmer'
_symmetry_space_group_name_H-M	'P1'
_symmetry_Int_Tables_number	1
_symmetry_cell_setting	triclinic
loop_
_symmetry_equiv_pos_as_xyz
  x,y,z
_cell_length_a	21.606444
_cell_length_b	14.560438
_cell_length_c	14.560438
_cell_angle_alpha	59.996693
_cell_angle_beta	90.000130
_cell_angle_gamma	60.002366
loop_
_atom_site_label
_atom_site_type_symbol
_atom_site_fract_x
_atom_site_fract_y
_atom_site_fract_z
Zr1	Zr	0.596224	1.005354	-0.120623
O2	O	0.497400	1.196958	-0.267278
O3	O	0.626518	0.813747	-0.075656
O4	O	0.626516	1.005358	-0.267273
O5	O	0.497405	1.005344	0.075479
O6	O	0.728366	1.005365	-0.267278
O7	O	0.497402	1.005347	-0.075662
O8	O	0.728370	0.662607	0.075489
O9	O	0.497401	1.348102	-0.267288
O10	O	0.715449	0.892563	-0.056493
O11	O	0.639441	0.892557	0.056306
O12	O	0.639438	1.118154	-0.169298
O13	O	0.563431	1.118148	-0.056499
Zr14	Zr	0.758667	1.005360	0.120421
Zr15	Zr	0.758663	1.005364	-0.120631
Zr16	Zr	0.596228	1.005350	0.120429
Zr17	Zr	0.596225	1.246411	-0.120638
Zr18	Zr	0.758666	0.764303	0.120436
O19	O	0.728373	1.196967	0.075454
O20	O	0.728367	1.196973	-0.267291
O21	O	0.497406	1.196952	0.075467
O22	O	0.857491	0.813756	0.267076
O23	O	0.857485	0.813762	-0.075669
O24	O	0.626524	0.813741	0.267089
O25	O	0.857486	1.005370	-0.075681
O26	O	0.728375	1.005356	0.267071
O27	O	0.626525	1.005349	0.267076
O28	O	0.857489	1.005367	0.075460
O29	O	0.626518	1.348110	-0.267295
O30	O	0.728373	0.662604	0.267093
O31	O	0.857490	0.662612	0.267086
O32	O	0.857487	0.662615	0.075482
O33	O	0.497404	1.348099	-0.075684
O34	O	0.626521	1.348107	-0.075691
O35	O	0.715452	0.892560	0.169096
O36	O	0.791460	0.892566	0.056297
O37	O	0.715450	1.118157	-0.056508
O38	O	0.639442	1.118151	0.056291
C39	C	0.677444	0.703832	-0.000082
C40	C	0.677443	0.601497	-0.000075
C41	C	0.621331	0.636708	-0.083355
C42	C	0.621334	0.540568	-0.083383
C43	C	0.733566	0.374006	0.083157
C44	C	0.733565	0.470145	0.083180
C45	C	0.474260	1.005344	-0.000090
C46	C	0.405300	1.005340	-0.000086
C47	C	0.412577	0.887584	0.058793
C48	C	0.347780	0.887588	0.058794
C49	C	0.275706	1.005348	-0.000092
C50	C	0.268430	1.123113	-0.058972
C51	C	0.333227	1.123108	-0.058966
C52	C	0.007112	1.123135	-0.058998
C53	C	-0.057686	1.123131	-0.059002
C54	C	0.021665	0.887616	0.058762
C55	C	0.086462	0.887611	0.058769
C56	C	0.079181	1.005374	-0.000107
C57	C	0.149442	1.005369	-0.000106
C58	C	0.205446	1.005355	-0.000100
C59	C	0.880631	1.005370	-0.000112
C60	C	0.949591	1.005374	-0.000116
C61	C	0.677440	1.005362	-0.301621
C62	C	0.677439	1.005364	-0.403953
C63	C	0.677447	1.306883	-0.000120
C64	C	0.677447	1.409218	-0.000127
C65	C	0.637763	1.123118	-0.510913
C66	C	0.637772	1.123112	-0.607062
C67	C	0.717133	0.887587	-0.489278
C68	C	0.717128	0.887595	-0.393132
C69	C	0.677451	1.005352	0.301418
C70	C	0.677452	1.005350	0.403751
C71	C	0.880630	0.703844	-0.000093
C72	C	0.949589	0.601514	-0.000090
C73	C	0.677449	0.703826	0.301438
C74	C	0.677450	0.601490	0.403777
C75	C	0.880635	0.703839	0.301427
C76	C	0.949596	0.601507	0.403763
C77	C	0.474256	1.306875	-0.301629
C78	C	0.405295	1.409207	-0.403965
C79	C	0.474261	1.306870	-0.000109
C80	C	0.405302	1.409200	-0.000112
C81	C	0.677442	1.306888	-0.301640
C82	C	0.677441	1.409224	-0.403979
C83	C	0.942295	0.553457	-0.058974
C84	C	1.007083	0.457320	-0.058994
C85	C	1.079164	0.409235	-0.000122
C86	C	1.086456	0.457301	0.058764
C87	C	1.021669	0.553443	0.058777
C88	C	1.021662	0.553454	0.392941
C89	C	1.086464	0.457316	0.489087
C90	C	1.079198	0.409225	0.596054
C91	C	1.007124	0.457287	0.606874
C92	C	0.942324	0.553431	0.510728
C93	C	0.333229	1.457271	-0.393143
C94	C	0.268427	1.553440	-0.489289
C95	C	0.275693	1.601536	-0.596256
C96	C	0.347767	1.553467	-0.607076
C97	C	0.412567	1.457307	-0.510931
C98	C	0.412595	1.457267	0.058762
C99	C	0.347807	1.553431	0.058755
C100	C	0.275727	1.601519	-0.000120
C101	C	0.268435	1.553448	-0.059001
C102	C	0.333222	1.457293	-0.059001
C103	C	0.717127	0.553411	0.510732
C104	C	0.717120	0.457264	0.606887
C105	C	0.637757	0.457278	0.489119
C106	C	0.637761	0.553430	0.392966
H107	H	0.471260	0.791690	0.106749
H108	H	0.605447	0.592580	0.305872
N109	N	1.029504	0.605328	0.277573
H110	H	1.004394	0.588590	0.235056
H111	H	1.085007	0.560275	0.285410
H112	H	0.749442	0.592543	0.519541
H113	H	0.605445	1.219013	-0.519731
N114	N	0.029512	0.760601	0.122263
H115	H	0.004399	0.755342	0.181517
H116	H	0.085015	0.686072	0.159490
H117	H	-0.116373	1.219031	-0.106956
H118	H	0.001174	1.219025	-0.106958
N119	N	0.190696	1.250128	-0.122474
H120	H	0.150751	1.232266	-0.113546
H121	H	0.184696	1.301559	-0.204815
N122	N	0.190694	1.605258	-0.477613
H123	H	0.162036	1.701774	-0.514864
H124	H	0.195990	1.560091	-0.395240
H125	H	0.749428	0.418125	0.693971
H126	H	0.883646	0.592543	0.519556
H127	H	0.779263	0.441463	0.150998
H128	H	0.327298	1.418117	-0.306054
H129	H	0.605465	1.218999	-0.694150
N130	N	0.794090	0.232334	0.172946
H131	H	0.769611	0.188718	0.216693
H132	H	0.829622	0.224722	0.225631
N133	N	0.490335	1.405423	0.122252
H134	H	0.518992	1.308905	0.181516
H135	H	0.485052	1.450574	0.159466
N136	N	0.325382	1.250114	-0.122468
H137	H	0.269892	1.324717	-0.159775
H138	H	0.350540	1.255245	-0.181658
N139	N	1.029539	0.605272	0.122292
H140	H	1.058167	0.531901	0.204658
H141	H	0.977536	0.673492	0.113281
N142	N	0.594957	0.405435	0.477461
H143	H	0.600977	0.337223	0.554602
H144	H	0.615791	0.365620	0.434941
N145	N	0.205797	1.705250	-0.699951
H146	H	0.159043	1.728391	-0.676854
H147	H	0.205827	1.671719	-0.746187
N148	N	0.759939	0.760570	-0.477609
H149	H	0.753921	0.778431	-0.554746
H150	H	0.739107	0.709141	-0.435084
H151	H	0.353759	1.592554	0.106708
N152	N	0.205852	1.705230	-0.000116
H153	H	0.221417	1.728373	0.046121
H154	H	0.174694	1.671693	0.033375
N155	N	0.560812	0.578559	-0.173215
H156	H	0.509299	0.631679	-0.169570
H157	H	0.569393	0.497672	-0.160557
N158	N	0.190689	1.605299	-0.122478
H159	H	0.150760	1.673494	-0.113526
H160	H	0.184695	1.531853	-0.091534
H161	H	1.131969	0.330938	0.674332
H162	H	0.353674	1.592639	-0.694179
H163	H	0.327273	1.418159	-0.106940
H164	H	1.145152	0.418137	0.106695
N165	N	0.490298	1.405451	-0.522600
H166	H	0.496371	1.478808	-0.565082
H167	H	0.496302	1.365556	-0.565050
N168	N	0.560809	0.778378	-0.173155
H169	H	0.525266	0.786091	-0.225920
H170	H	0.585352	0.821900	-0.216812
N171	N	0.999201	0.405495	-0.122511
H172	H	0.970582	0.365597	-0.091608
H173	H	1.051201	0.337349	-0.113583
H174	H	0.145145	0.791718	0.106715
N175	N	0.355628	0.760581	0.122299
H176	H	0.411118	0.685981	0.159596
H177	H	0.330470	0.755461	0.068231
H178	H	0.749441	0.791699	-0.306034
H179	H	0.883610	0.592607	-0.106928
H180	H	1.131912	0.330949	-0.000140
N181	N	1.164195	0.405487	0.477403
H182	H	1.158959	0.450536	0.395049
H183	H	1.192811	0.308964	0.514739
H184	H	1.001219	0.418118	0.693979
