data_functionalizedCrystal
_audit_creation_method	'MofGen! by Chris Wilmer'
_symmetry_space_group_name_H-M	'P1'
_symmetry_Int_Tables_number	1
_symmetry_cell_setting	triclinic
loop_
_symmetry_equiv_pos_as_xyz
  x,y,z
_cell_length_a	17.699077
_cell_length_b	13.262508
_cell_length_c	16.176319
_cell_angle_alpha	105.911538
_cell_angle_beta	89.993140
_cell_angle_gamma	83.880229
loop_
_atom_site_label
_atom_site_type_symbol
_atom_site_fract_x
_atom_site_fract_y
_atom_site_fract_z
O1	O	1.004673	0.132697	-0.038897
O2	O	0.784371	0.149971	-0.035017
O3	O	0.900067	-0.011467	-0.071311
O4	O	0.888976	0.294135	-0.002603
O5	O	0.900051	-0.011477	0.066180
O6	O	0.784354	0.149961	0.102474
O7	O	1.004657	0.132686	0.098594
Cu8	Cu	0.894504	0.141323	0.113088
Cu9	Cu	0.894523	0.141335	-0.049511
O10	O	0.888960	0.294124	0.134888
C11	C	0.756163	0.149348	0.033589
C12	C	0.672136	0.147494	0.033171
C13	C	0.632656	0.146615	0.107922
C14	C	0.553706	0.144857	0.107527
C15	C	0.514236	0.143985	0.032383
C16	C	0.553722	0.144861	-0.042374
C17	C	0.632672	0.146612	-0.041981
C18	C	0.235327	0.137798	-0.043964
C19	C	0.156372	0.136050	-0.044351
C20	C	0.156361	0.136043	0.105544
C21	C	0.235311	0.137794	0.105938
C22	C	0.274790	0.138664	0.031180
C23	C	0.360398	0.140569	0.031608
C24	C	0.428630	0.142087	0.031956
C25	C	0.899439	-0.050573	-0.011358
C26	C	0.897581	-0.167082	-0.037558
C27	C	0.892307	-0.495536	0.188384
C28	C	0.894046	-0.386069	0.213001
C29	C	0.894930	-0.331317	0.150364
C30	C	0.894075	-0.386043	0.063105
C31	C	0.892329	-0.495519	0.038486
C32	C	0.894953	-0.331300	0.000465
C33	C	0.894097	-0.386025	-0.086794
C34	C	0.892352	-0.495491	-0.111409
C35	C	0.891468	-0.550243	-0.048771
C36	C	0.896698	-0.221823	0.025084
C37	C	0.896720	-0.221806	-0.124814
C38	C	0.894981	-0.331273	-0.149431
C39	C	1.032864	0.133309	0.029986
C40	C	1.116891	0.135163	0.030399
C41	C	0.889588	0.333231	0.074933
C42	C	0.891446	0.449739	0.101128
N43	N	0.894496	0.141314	0.227451
N44	N	0.894537	0.141336	-0.163876
C45	C	0.945742	0.069858	0.254651
C46	C	0.945746	0.069857	0.341198
C47	C	0.894507	0.141317	0.400545
C48	C	0.843255	0.212776	0.373340
C49	C	0.843248	0.212771	0.286793
C50	C	0.843281	0.212796	0.722372
C51	C	0.843294	0.212797	0.808924
C52	C	0.945779	0.069881	0.776777
C53	C	0.945772	0.069876	0.690231
C54	C	0.894518	0.141331	0.663032
C55	C	0.894514	0.141330	0.569188
C56	C	0.894515	0.141324	0.494389
H57	H	0.267462	0.138503	-0.104837
C58	C	1.002154	-0.008731	0.806701
N59	N	1.044614	-0.067939	0.829238
C60	C	0.889552	-0.670664	-0.075846
N61	N	0.888108	-0.761366	-0.096236
H62	H	0.521566	0.144123	0.168393
C63	C	0.510303	0.143899	-0.125035
N64	N	0.477600	0.143177	-0.187296
C65	C	1.002138	-0.008737	0.624952
N66	N	1.044590	-0.067955	0.575784
H67	H	0.664786	0.147334	0.169115
H68	H	0.801518	0.270957	0.264649
C69	C	0.786919	0.291406	0.874204
N70	N	0.744459	0.350611	0.923373
H71	H	0.124208	0.135329	0.166415
C72	C	0.786999	0.291534	0.692496
N73	N	0.744640	0.350892	0.670003
H74	H	0.801532	0.270957	0.421664
H75	H	0.987474	0.011672	0.363342
H76	H	0.894284	-0.375846	-0.220479
C77	C	0.278723	0.138750	0.188602
N78	N	0.311421	0.139465	0.250865
H79	H	0.891649	-0.540044	-0.182460
C80	C	0.676099	0.147581	-0.124212
N81	N	0.708808	0.148309	-0.186152
H82	H	0.897388	-0.177275	0.096131
C83	C	0.112958	0.135079	-0.127022
N84	N	0.080259	0.134346	-0.189288
C85	C	0.896851	-0.210902	0.177446
N86	N	0.898303	-0.120201	0.197848
C87	C	0.894988	-0.325880	0.308983
N88	N	0.895698	-0.280544	0.381281
C89	C	0.891324	-0.555769	0.257275
N90	N	0.890582	-0.601137	0.309169
H91	H	0.897435	-0.177226	-0.175819
H92	H	0.987470	0.011671	0.206336
