data_functionalizedCrystal
_audit_creation_method	'MofGen! by Chris Wilmer'
_symmetry_space_group_name_H-M	'P1'
_symmetry_Int_Tables_number	1
_symmetry_cell_setting	triclinic
loop_
_symmetry_equiv_pos_as_xyz
  x,y,z
_cell_length_a	17.038272
_cell_length_b	17.038272
_cell_length_c	15.500227
_cell_angle_alpha	86.966746
_cell_angle_beta	86.956295
_cell_angle_gamma	88.888444
loop_
_atom_site_label
_atom_site_type_symbol
_atom_site_fract_x
_atom_site_fract_y
_atom_site_fract_z
O1	O	1.052160	-0.167139	-0.071836
O2	O	1.385493	0.166194	0.261497
O3	O	1.718827	0.499528	0.594830
O4	O	0.824350	-0.164430	-0.071862
O5	O	1.157683	0.168903	0.261472
O6	O	1.491016	0.502237	0.594805
O7	O	0.936901	-0.051879	-0.071842
O8	O	1.270234	0.281454	0.261491
O9	O	1.603567	0.614788	0.594824
O10	O	0.939609	-0.279690	-0.071856
O11	O	1.272942	0.053643	0.261478
O12	O	1.606276	0.386977	0.594811
O13	O	0.930069	-0.058680	0.072045
O14	O	1.263402	0.274653	0.405379
O15	O	1.596735	0.607986	0.738712
O16	O	0.817518	-0.171231	0.072026
O17	O	1.150851	0.162102	0.405359
O18	O	1.484185	0.495436	0.738693
O19	O	1.045328	-0.173940	0.072051
O20	O	1.378662	0.159393	0.405385
O21	O	1.711995	0.492726	0.738718
Cu22	Cu	0.930799	-0.173207	0.085177
Cu23	Cu	1.264133	0.160127	0.418510
Cu24	Cu	1.597466	0.493460	0.751843
Cu25	Cu	0.938879	-0.165164	-0.084987
Cu26	Cu	1.272212	0.168170	0.248346
Cu27	Cu	1.605545	0.501503	0.581680
O28	O	0.932777	-0.286491	0.072032
O29	O	1.266111	0.046842	0.405365
O30	O	1.599444	0.380176	0.738699
C31	C	0.791641	-0.165368	0.000079
C32	C	1.124975	0.167966	0.333412
C33	C	1.458308	0.501299	0.666746
C34	C	0.704358	-0.158019	0.000069
C35	C	1.037691	0.175314	0.333403
C36	C	1.371025	0.508648	0.666736
C37	C	0.658749	-0.225482	0.000066
C38	C	0.992082	0.107851	0.333399
C39	C	1.325416	0.441184	0.666733
C40	C	0.576737	-0.218574	0.000078
C41	C	0.910070	0.114759	0.333412
C42	C	1.243403	0.448093	0.666745
C43	C	0.540335	-0.144201	0.000088
C44	C	0.873668	0.189132	0.333421
C45	C	1.207002	0.522465	0.666755
C46	C	0.585950	-0.076733	0.000094
C47	C	0.919283	0.256600	0.333427
C48	C	1.252617	0.589934	0.666760
C49	C	0.667961	-0.083642	0.000088
C50	C	1.001294	0.249691	0.333421
C51	C	1.334627	0.583024	0.666754
C52	C	0.292946	-0.119792	0.000112
C53	C	0.626279	0.213541	0.333446
C54	C	0.959613	0.546875	0.666779
C55	C	0.210929	-0.112887	0.000116
C56	C	0.544263	0.220446	0.333449
C57	C	0.877596	0.553779	0.666783
C58	C	0.201721	-0.254729	0.000102
C59	C	0.535055	0.078604	0.333436
C60	C	0.868388	0.411937	0.666769
C61	C	0.283734	-0.261632	0.000091
C62	C	0.617068	0.071701	0.333424
C63	C	0.950401	0.405035	0.666758
C64	C	0.329342	-0.194164	0.000101
C65	C	0.662675	0.139170	0.333435
C66	C	0.996009	0.472503	0.666768
C67	C	0.456505	-0.137138	0.000098
C68	C	0.789839	0.196195	0.333431
C69	C	1.123172	0.529529	0.666764
C70	C	0.413170	-0.201228	0.000098
C71	C	0.746503	0.132105	0.333431
C72	C	1.079836	0.465439	0.666764
C73	C	0.931022	-0.025987	0.000101
C74	C	1.264355	0.307346	0.333434
C75	C	1.597688	0.640680	0.666768
C76	C	0.923674	0.061297	0.000100
C77	C	1.257007	0.394630	0.333433
C78	C	1.590340	0.727963	0.666767
C79	C	1.078037	-0.173003	0.000109
C80	C	1.411370	0.160331	0.333442
C81	C	1.744703	0.493664	0.666775
C82	C	1.165320	-0.180351	0.000113
C83	C	1.498654	0.152982	0.333446
C84	C	1.831987	0.486316	0.666779
C85	C	0.938656	-0.312383	0.000087
C86	C	1.271990	0.020950	0.333420
C87	C	1.605323	0.354283	0.666753
C88	C	0.946004	-0.399667	0.000082
C89	C	1.279338	-0.066333	0.333415
C90	C	1.612671	0.267000	0.666749
N91	N	0.925122	-0.178864	0.204861
N92	N	1.258456	0.154470	0.538194
N93	N	1.591789	0.487803	0.871527
C94	C	0.991137	0.106906	0.000108
C95	C	1.324470	0.440239	0.333442
C96	C	1.657804	0.773572	0.666775
C97	C	0.984229	0.188918	0.000100
C98	C	1.317562	0.522251	0.333433
C99	C	1.650895	0.855585	0.666766
C100	C	0.909856	0.225320	0.000088
C101	C	1.243189	0.558653	0.333422
C102	C	1.576522	0.891986	0.666755
C103	C	0.842388	0.179705	0.000077
C104	C	1.175721	0.513038	0.333411
C105	C	1.509054	0.846371	0.666744
C106	C	0.849297	0.097694	0.000080
C107	C	1.182631	0.431028	0.333413
C108	C	1.515964	0.764361	0.666747
C109	C	0.885446	0.472708	0.000074
C110	C	1.218779	0.806041	0.333407
C111	C	1.552113	1.139375	0.666740
C112	C	0.878541	0.554725	0.000074
C113	C	1.211875	0.888058	0.333407
C114	C	1.545208	1.221391	0.666740
C115	C	1.020383	0.563932	0.000094
C116	C	1.353716	0.897266	0.333427
C117	C	1.687050	1.230599	0.666761
C118	C	1.027286	0.481919	0.000102
C119	C	1.360619	0.815253	0.333435
C120	C	1.693952	1.148586	0.666769
C121	C	0.959818	0.436312	0.000087
C122	C	1.293151	0.769645	0.333420
C123	C	1.626484	1.102979	0.666753
C124	C	0.902792	0.309149	0.000082
C125	C	1.236126	0.642482	0.333415
C126	C	1.569459	0.975816	0.666749
C127	C	0.966882	0.352484	0.000087
C128	C	1.300216	0.685818	0.333420
C129	C	1.633549	1.019151	0.666754
N130	N	0.944561	-0.159501	-0.204671
N131	N	1.277895	0.173833	0.128662
N132	N	1.611228	0.507166	0.461996
C133	C	0.972833	-0.131192	0.250145
C134	C	1.306166	0.202141	0.583479
C135	C	1.639500	0.535475	0.916812
C136	C	0.968547	-0.135478	0.340718
C137	C	1.301881	0.197855	0.674051
C138	C	1.635214	0.531189	1.007384
C139	C	0.916555	-0.187440	0.386003
C140	C	1.249888	0.145893	0.719336
C141	C	1.583221	0.479226	1.052670
C142	C	0.868839	-0.235114	0.340712
C143	C	1.202172	0.098219	0.674045
C144	C	1.535505	0.431553	1.007379
C145	C	0.873121	-0.230823	0.250142
C146	C	1.206454	0.102510	0.583475
C147	C	1.539787	0.435843	0.916808
C148	C	0.901128	-0.202884	0.659467
C149	C	1.234461	0.130450	0.992801
C150	C	1.567794	0.463783	1.326134
C151	C	0.896851	-0.207172	0.750044
C152	C	1.230184	0.126161	1.083378
C153	C	1.563517	0.459494	1.416711
C154	C	0.996559	-0.107535	0.750044
C155	C	1.329892	0.225798	1.083377
C156	C	1.663226	0.559132	1.416710
C157	C	1.000840	-0.103252	0.659471
C158	C	1.334173	0.230081	0.992805
C159	C	1.667507	0.563414	1.326138
C160	C	0.953121	-0.150923	0.614188
C161	C	1.286454	0.182410	0.947521
C162	C	1.619788	0.515744	1.280855
C163	C	0.912174	-0.191824	0.478582
C164	C	1.245508	0.141509	0.811916
C165	C	1.578841	0.474842	1.145249
C166	C	0.957498	-0.146534	0.521610
C167	C	1.290831	0.186799	0.854944
C168	C	1.624164	0.520132	1.188277
H169	H	0.705095	-0.028706	0.000090
H170	H	1.038428	0.304627	0.333423
H171	H	1.371762	0.637961	0.666756
H172	H	0.830508	0.435584	0.000061
H173	H	1.163842	0.768918	0.333395
H174	H	1.497175	1.102251	0.666728
H175	H	0.426857	-0.076584	0.000130
H176	H	0.760190	0.256749	0.333463
H177	H	1.093523	0.590082	0.666797
Br178	Br	1.061316	-0.042841	0.811502
Br179	Br	1.394649	0.290493	1.144836
Br180	Br	1.727982	0.623826	1.478169
H181	H	0.842237	0.338796	0.000075
H182	H	1.175571	0.672130	0.333408
H183	H	1.508904	1.005463	0.666741
H184	H	0.817974	0.584359	0.000078
H185	H	1.151308	0.917692	0.333412
H186	H	1.484641	1.251026	0.666745
Br187	Br	0.161527	-0.011947	0.000147
Br188	Br	0.494860	0.321386	0.333481
Br189	Br	0.828193	0.654720	0.666814
H190	H	1.015175	-0.088882	0.213280
H191	H	1.348508	0.244451	0.546613
H192	H	1.681841	0.577784	0.879947
Br193	Br	0.536549	0.024203	0.000115
Br194	Br	0.869882	0.357536	0.333448
Br195	Br	1.203215	0.690869	0.666782
H196	H	0.313367	-0.322194	0.000073
H197	H	0.646700	0.011140	0.333407
H198	H	0.980033	0.344473	0.666740
H199	H	0.442811	-0.261782	0.000095
H200	H	0.776145	0.071551	0.333428
H201	H	1.109478	0.404884	0.666761
H202	H	0.539605	-0.273510	0.000075
H203	H	0.872938	0.059823	0.333408
H204	H	1.206272	0.393156	0.666741
Br205	Br	0.826286	-0.277703	0.811498
Br206	Br	1.159619	0.055631	1.144831
Br207	Br	1.492953	0.388964	1.478164
Br208	Br	1.092076	0.057511	0.000136
Br209	Br	1.425409	0.390844	0.333470
Br210	Br	1.758742	0.724178	0.666803
H211	H	0.862274	-0.241701	0.622605
H212	H	1.195608	0.091633	0.955938
H213	H	1.528941	0.424966	1.289271
Br214	Br	1.075790	0.250813	0.000111
Br215	Br	1.409124	0.584147	0.333444
Br216	Br	1.742457	0.917480	0.666777
H217	H	0.781832	0.209350	0.000063
H218	H	1.115165	0.542683	0.333396
H219	H	1.448498	0.876016	0.666729
H220	H	0.688381	-0.286045	0.000058
H221	H	1.021714	0.047289	0.333391
H222	H	1.355047	0.380622	0.666724
H223	H	1.027437	0.322844	0.000077
H224	H	1.360770	0.656177	0.333410
H225	H	1.694104	0.989510	0.666744
H226	H	0.164579	-0.309658	0.000096
H227	H	0.497912	0.023675	0.333429
H228	H	0.831246	0.357009	0.666762
H229	H	0.330070	-0.064854	0.000122
H230	H	0.663403	0.268479	0.333455
H231	H	0.996737	0.601813	0.666788
H232	H	1.007397	-0.096659	0.377588
H233	H	1.340730	0.236674	0.710921
H234	H	1.674063	0.570007	1.044255
Br235	Br	1.071405	-0.032735	0.598011
Br236	Br	1.404738	0.300598	0.931344
Br237	Br	1.738072	0.633932	1.264677
H238	H	1.087848	0.452287	0.000111
H239	H	1.421181	0.785621	0.333445
H240	H	1.754514	1.118954	0.666778
Br241	Br	1.111941	0.625831	0.000115
Br242	Br	1.445275	0.959165	0.333449
Br243	Br	1.778608	1.292498	0.666782
Br244	Br	0.798269	-0.305630	0.402167
Br245	Br	1.131602	0.027703	0.735501
Br246	Br	1.464936	0.361037	1.068834
Br247	Br	0.757737	0.035795	0.000062
Br248	Br	1.091070	0.369129	0.333395
Br249	Br	1.424403	0.702462	0.666728
Br250	Br	0.808362	-0.295518	0.188683
Br251	Br	1.141695	0.037815	0.522017
Br252	Br	1.475029	0.371148	0.855350
H253	H	0.999827	-0.104223	0.484736
H254	H	1.333161	0.229110	0.818070
H255	H	1.666494	0.562443	1.151403
Br256	Br	0.841613	-0.262344	0.540045
Br257	Br	1.174946	0.070989	0.873378
Br258	Br	1.508280	0.404322	1.206711
