data_functionalizedCrystal
_audit_creation_method	'MofGen! by Chris Wilmer'
_symmetry_space_group_name_H-M	'P1'
_symmetry_Int_Tables_number	1
_symmetry_cell_setting	triclinic
loop_
_symmetry_equiv_pos_as_xyz
  x,y,z
_cell_length_a	18.215407
_cell_length_b	21.295417
_cell_length_c	21.295411
_cell_angle_alpha	89.972329
_cell_angle_beta	89.983429
_cell_angle_gamma	90.030150
loop_
_atom_site_label
_atom_site_type_symbol
_atom_site_fract_x
_atom_site_fract_y
_atom_site_fract_z
Zn1	Zn	1.125024	-0.250629	-0.355918
Zn2	Zn	1.124929	-0.355894	-0.250645
Zn3	Zn	1.001963	-0.250644	-0.250663
Zn4	Zn	1.001912	-0.355866	-0.355877
O5	O	1.063457	-0.303258	-0.303276
O6	O	1.227995	-0.264599	-0.341963
O7	O	1.108599	-0.341951	-0.162558
O8	O	1.018349	-0.162552	-0.264650
O9	O	1.227926	-0.341937	-0.264620
O10	O	1.108761	-0.162542	-0.341980
O11	O	1.018257	-0.264623	-0.162571
O12	O	0.898972	-0.264596	-0.264610
O13	O	1.018261	-0.341888	-0.443972
O14	O	0.898934	-0.341902	-0.341910
O15	O	1.108711	-0.264571	-0.444002
O16	O	1.108549	-0.443980	-0.264580
O17	O	1.018169	-0.443959	-0.341893
C18	C	0.872251	-0.303248	-0.303258
C19	C	0.790452	-0.303258	-0.303265
C20	C	0.602257	-0.343575	-0.343465
C21	C	0.525399	-0.343577	-0.343473
C22	C	0.525408	-0.262953	-0.263101
C23	C	0.602266	-0.262949	-0.263096
C24	C	0.640688	-0.303263	-0.303278
C25	C	0.486972	-0.303270	-0.303290
C26	C	0.403638	-0.303271	-0.303298
C27	C	0.724027	-0.303260	-0.303270
C28	C	1.063363	-0.466810	-0.303244
C29	C	1.063390	-0.536778	-0.303251
C30	C	1.110441	-0.569582	-0.343546
C31	C	1.110467	-0.635325	-0.343562
C32	C	1.063450	-0.668261	-0.303271
C33	C	1.016390	-0.635449	-0.262974
C34	C	1.016360	-0.569707	-0.262964
N35	N	1.057895	-0.771520	-0.248180
N36	N	1.057927	-0.833971	-0.248191
C37	C	1.063536	-0.866335	-0.303300
N38	N	1.069125	-0.833889	-0.358397
N39	N	1.069096	-0.771431	-0.358386
C40	C	1.063477	-0.739546	-0.303278
C41	C	1.110617	-0.970425	-0.343615
C42	C	1.110638	-1.036168	-0.343631
C43	C	1.016565	-1.036291	-0.263038
C44	C	1.016540	-0.970549	-0.263027
C45	C	1.063570	-0.937619	-0.303314
C46	C	1.255410	-0.303270	-0.303294
C47	C	1.337209	-0.303274	-0.303302
C48	C	1.063491	-0.303225	-0.467466
C49	C	1.063505	-0.303210	-0.537434
C50	C	1.063571	-0.139068	-0.303322
C51	C	1.063620	-0.069100	-0.303341
C52	C	1.110628	-0.343344	-1.036886
C53	C	1.110615	-0.343364	-0.971144
C54	C	1.063575	-0.303112	-0.938274
C55	C	1.016531	-0.262849	-0.971152
C56	C	1.016540	-0.262834	-1.036893
N57	N	1.057953	-0.248033	-0.835068
N58	N	1.057948	-0.248048	-0.772616
C59	C	1.063542	-0.303155	-0.740199
N60	N	1.069156	-0.358246	-0.772593
N61	N	1.069165	-0.358230	-0.835050
C62	C	1.063559	-0.303124	-0.866989
C63	C	1.110565	-0.343441	-0.636043
C64	C	1.110547	-0.343462	-0.570300
C65	C	1.016466	-0.262941	-0.570309
C66	C	1.016481	-0.262925	-0.636052
C67	C	1.063534	-0.303174	-0.668915
C68	C	1.063465	-0.303246	-0.139724
C69	C	1.063594	-0.303083	-0.069757
H70	H	0.494115	-0.230132	-0.230386
H71	H	0.633539	-0.376399	-0.376184
O72	O	1.156232	-0.382467	-1.068883
C73	C	1.114321	-0.423128	-1.106887
H74	H	1.058560	-0.400933	-1.116729
H75	H	1.144300	-0.431543	-1.153120
H76	H	1.106214	-0.469789	-1.081543
O77	O	0.488181	-0.382796	-0.382529
C78	C	0.538578	-0.418362	-0.418002
H79	H	0.593351	-0.420505	-0.392209
H80	H	0.516347	-0.467970	-0.424629
H81	H	0.546787	-0.395374	-0.465852
H82	H	0.633557	-0.230118	-0.230371
O83	O	0.970692	-0.223840	-0.667913
C84	C	0.897333	-0.237612	-0.651844
H85	H	0.895789	-0.261823	-0.604106
H86	H	0.864363	-0.192181	-0.649598
H87	H	0.872529	-0.269965	-0.688832
H88	H	0.978238	-0.230047	-1.063656
H89	H	0.978231	-0.943838	-0.230212
H90	H	1.148733	-0.542773	-0.376352
O91	O	1.156375	-0.382497	-0.939302
C92	C	1.197890	-0.418032	-0.982405
H93	H	1.200464	-0.392240	-1.029276
H94	H	1.255865	-0.424751	-0.963414
H95	H	1.170912	-0.465839	-0.989380
H96	H	1.148775	-0.662039	-0.376382
O97	O	0.970682	-0.667509	-0.223922
C98	C	0.923131	-0.705540	-0.259730
H99	H	0.949057	-0.715339	-0.307456
H100	H	0.913308	-0.751793	-0.234088
H101	H	0.868576	-0.680243	-0.266602
H102	H	0.978229	-0.230076	-0.944385
O103	O	1.156288	-0.382601	-0.667874
C104	C	1.197809	-0.418135	-0.624760
H105	H	1.167655	-0.420326	-0.577894
H106	H	1.205630	-0.467728	-0.643745
H107	H	1.253716	-0.395087	-0.617780
H108	H	1.148909	-0.943613	-0.376421
H109	H	1.148845	-0.376253	-0.543538
O110	O	0.970632	-0.537936	-0.223758
C111	C	0.929121	-0.581099	-0.188212
H112	H	0.959284	-0.627941	-0.186063
H113	H	0.921298	-0.562143	-0.138606
H114	H	0.873215	-0.588117	-0.211222
O115	O	1.156417	-1.067939	-0.382794
C116	C	1.197906	-1.024774	-0.418357
H117	H	1.200448	-0.977926	-0.392568
H118	H	1.255894	-1.043720	-0.425113
H119	H	1.170927	-1.017772	-0.466148
O120	O	0.970851	-1.068344	-0.223989
C121	C	0.923296	-1.106370	-0.259800
H122	H	0.949225	-1.116170	-0.307526
H123	H	0.913466	-1.152623	-0.234160
H124	H	0.868746	-1.081067	-0.266674
H125	H	0.978163	-0.230168	-0.543547
