data_functionalizedCrystal
_audit_creation_method	'MofGen! by Chris Wilmer'
_symmetry_space_group_name_H-M	'P1'
_symmetry_Int_Tables_number	1
_symmetry_cell_setting	triclinic
loop_
_symmetry_equiv_pos_as_xyz
  x,y,z
_cell_length_a	19.077105
_cell_length_b	19.077600
_cell_length_c	19.076919
_cell_angle_alpha	94.656929
_cell_angle_beta	89.923776
_cell_angle_gamma	94.467655
loop_
_atom_site_label
_atom_site_type_symbol
_atom_site_fract_x
_atom_site_fract_y
_atom_site_fract_z
Zn1	Zn	1.071340	0.341570	0.454658
Zn2	Zn	1.571340	0.841570	0.954658
Zn3	Zn	1.080323	0.455092	0.341884
Zn4	Zn	1.580323	0.955092	0.841884
Zn5	Zn	0.958196	0.332112	0.332057
Zn6	Zn	1.458196	0.832112	0.832057
Zn7	Zn	0.958129	0.454667	0.454618
Zn8	Zn	1.458129	0.954667	0.954618
O9	O	1.016997	0.395860	0.395804
O10	O	1.516997	0.895860	0.895804
O11	O	1.171022	0.360766	0.443827
O12	O	1.671022	0.860766	0.943827
O13	O	1.067911	0.434999	0.242091
O14	O	1.567911	0.934999	0.742091
O15	O	0.969473	0.234568	0.344224
O16	O	1.469473	0.734568	0.844224
O17	O	1.177622	0.444170	0.360972
O18	O	1.677622	0.944170	0.860972
O19	O	1.052599	0.241517	0.434298
O20	O	1.552599	0.741517	0.934298
O21	O	0.978184	0.344646	0.234871
O22	O	1.478184	0.844646	0.734871
O23	O	0.859697	0.344233	0.344186
O24	O	1.359697	0.844233	0.844186
O25	O	0.969359	0.443444	0.553112
O26	O	1.469359	0.943444	1.053112
O27	O	0.859648	0.434273	0.434231
O28	O	1.359648	0.934273	0.934231
O29	O	1.052534	0.360353	0.553141
O30	O	1.552534	0.860353	1.053141
O31	O	1.067846	0.553835	0.360934
O32	O	1.567846	1.053835	0.860934
O33	O	0.978070	0.553522	0.443760
O34	O	1.478070	1.053522	0.943760
C35	C	0.834135	0.388181	0.388138
C36	C	1.334135	0.888181	0.888138
C37	C	0.755906	0.384913	0.384876
C38	C	1.255906	0.884913	0.884876
C39	C	0.719152	0.430322	0.430158
C40	C	1.219152	0.930322	0.930158
C41	C	0.645646	0.427243	0.427096
C42	C	1.145646	0.927243	0.927096
C43	C	0.608897	0.378757	0.378748
C44	C	1.108897	0.878757	0.878748
C45	C	0.645656	0.333343	0.333465
C46	C	1.145656	0.833343	0.833465
C47	C	0.719160	0.336420	0.336531
C48	C	1.219160	0.836420	0.836531
C49	C	0.389065	0.364518	0.364562
C50	C	0.889065	0.864518	0.864562
C51	C	0.315556	0.361447	0.361498
C52	C	0.815556	0.861447	0.861498
C53	C	0.315552	0.455346	0.455130
C54	C	0.815552	0.955346	0.955130
C55	C	0.389057	0.458421	0.458189
C56	C	0.889057	0.958421	0.958189
C57	C	0.425809	0.413005	0.412908
C58	C	0.925809	0.913005	0.912908
N59	N	0.533763	0.375610	0.375616
N60	N	1.033763	0.875610	0.875616
N61	N	0.500942	0.416149	0.416045
N62	N	1.000942	0.916149	0.916045
C63	C	1.023944	0.579297	0.403425
C64	C	1.523944	1.079297	0.903425
C65	C	1.026979	0.657776	0.406712
C66	C	1.526979	1.157776	0.906712
C67	C	1.048763	1.099911	0.430267
C68	C	1.548763	1.599911	0.930267
C69	C	1.045903	1.026172	0.427172
C70	C	1.545903	1.526172	0.927172
C71	C	1.001231	0.985751	0.378700
C72	C	1.501231	1.485751	0.878700
C73	C	0.959421	1.019073	0.333314
C74	C	1.459421	1.519073	0.833314
C75	C	0.962285	1.092811	0.336405
C76	C	1.462285	1.592811	0.836405
C77	C	0.988033	0.764836	0.364418
C78	C	1.488033	1.264836	0.864418
C79	C	0.985171	0.691093	0.361331
C80	C	1.485171	1.191093	0.861331
C81	C	1.071655	0.698197	0.455189
C82	C	1.571655	1.198197	0.955189
C83	C	1.074511	0.771936	0.458280
C84	C	1.574511	1.271936	0.958280
C85	C	1.032704	0.805252	0.412891
C86	C	1.532704	1.305252	0.912891
N87	N	0.998305	0.910377	0.375537
N88	N	1.498305	1.410377	0.875537
N89	N	1.035634	0.880624	0.416051
N90	N	1.535634	1.380624	0.916051
C91	C	1.200573	0.403570	0.403500
C92	C	1.700573	0.903570	0.903500
C93	C	1.278802	0.406856	0.406780
C94	C	1.778802	0.906856	0.906780
C95	C	1.010011	1.211707	0.388162
C96	C	1.510011	1.711707	0.888162
C97	C	1.006954	1.133228	0.384886
C98	C	1.506954	1.633228	0.884886
C99	C	1.009937	0.402906	0.579378
C100	C	1.509937	0.902906	1.079378
C101	C	1.006929	0.405909	0.657606
C102	C	1.506929	0.905909	1.157606
C103	C	1.024068	0.388793	0.212944
C104	C	1.524068	0.888793	0.712944
C105	C	1.027205	0.385597	0.134713
C106	C	1.527205	0.885597	0.634713
C107	C	1.048818	0.364060	0.694374
C108	C	1.548818	0.864060	1.194374
C109	C	1.045983	0.366878	0.767878
C110	C	1.545983	0.866878	1.267878
C111	C	1.001261	0.411549	0.804612
C112	C	1.501261	0.911549	1.304612
C113	C	0.959367	0.453399	0.767839
C114	C	1.459367	0.953399	1.267839
C115	C	0.962199	0.450577	0.694336
C116	C	1.462199	0.950577	1.194336
C117	C	0.988143	0.424625	1.024438
C118	C	1.488143	0.924625	1.524438
C119	C	0.985316	0.427446	1.097946
C120	C	1.485316	0.927446	1.597946
C121	C	1.071931	0.340923	1.097979
C122	C	1.571931	0.840923	1.597979
C123	C	1.074762	0.338108	1.024476
C124	C	1.574762	0.838108	1.524476
C125	C	1.032866	0.379956	0.987709
C126	C	1.532866	0.879956	1.487709
N127	N	0.998363	0.414432	0.879744
N128	N	1.498363	0.914432	1.379744
N129	N	1.035760	0.377068	0.912578
N130	N	1.535760	0.877068	1.412578
H131	H	0.418980	0.327542	0.327686
H132	H	0.918980	0.827542	0.827686
Cl133	Cl	0.269345	0.512438	0.512050
Cl134	Cl	0.769345	1.012438	1.012050
Cl135	Cl	0.269358	0.300493	0.300709
Cl136	Cl	0.769358	0.800493	0.800709
H137	H	0.418973	0.497905	0.497557
H138	H	0.918973	0.997905	0.997557
H139	H	0.749068	0.469807	0.469525
H140	H	1.249068	0.969807	0.969525
Cl141	Cl	0.599456	0.272384	0.272689
Cl142	Cl	1.099456	0.772384	0.772689
Cl143	Cl	1.130661	0.822746	0.519231
Cl144	Cl	1.630661	1.322746	1.019231
H145	H	0.953990	0.791952	0.327459
H146	H	1.453990	1.291952	0.827459
Cl147	Cl	1.105046	0.307903	0.648202
Cl148	Cl	1.605046	0.807903	1.148202
H149	H	0.749084	0.299439	0.299661
H150	H	1.249084	0.799439	0.799661
H151	H	0.948790	0.658185	0.321856
H152	H	1.448790	1.158185	0.821856
Cl153	Cl	1.130987	0.281948	0.978301
Cl154	Cl	1.630987	0.781948	1.478301
H155	H	1.085133	1.132817	0.469746
H156	H	1.585133	1.632817	0.969746
Cl157	Cl	1.098679	0.314298	0.814100
Cl158	Cl	1.598679	0.814298	1.314100
H159	H	1.079948	0.999045	0.464125
H160	H	1.579948	1.499045	0.964125
Cl161	Cl	1.124210	0.656310	0.512244
Cl162	Cl	1.624210	1.156310	1.012244
H163	H	0.923050	0.986158	0.293842
H164	H	1.423050	1.486158	0.793842
Cl165	Cl	1.124595	0.288316	1.144205
Cl166	Cl	1.624595	0.788316	1.644205
H167	H	0.928240	1.119937	0.299451
H168	H	1.428240	1.619937	0.799451
H169	H	0.922951	0.489769	0.797753
H170	H	1.422951	0.989769	1.297753
Cl171	Cl	0.929086	0.483604	1.144125
Cl172	Cl	1.429086	0.983604	1.644125
Cl173	Cl	0.935473	0.477234	0.978226
Cl174	Cl	1.435473	0.977234	1.478226
Cl175	Cl	0.909533	0.503187	0.648113
Cl176	Cl	1.409533	1.003187	1.148113
H177	H	0.615725	0.464221	0.463968
H178	H	1.115725	0.964221	0.963968
