data_functionalizedCrystal
_audit_creation_method	'MofGen! by Chris Wilmer'
_symmetry_space_group_name_H-M	'P1'
_symmetry_Int_Tables_number	1
_symmetry_cell_setting	triclinic
loop_
_symmetry_equiv_pos_as_xyz
  x,y,z
_cell_length_a	27.732048
_cell_length_b	27.732048
_cell_length_c	9.130313
_cell_angle_alpha	89.990549
_cell_angle_beta	90.001977
_cell_angle_gamma	82.642655
loop_
_atom_site_label
_atom_site_type_symbol
_atom_site_fract_x
_atom_site_fract_y
_atom_site_fract_z
O1	O	0.640926	0.057517	-0.121626
O2	O	0.500133	0.066262	-0.121673
O3	O	0.574902	-0.008507	-0.121620
O4	O	0.566157	0.132286	-0.121679
O5	O	0.574897	-0.008509	0.121979
O6	O	0.500128	0.066260	0.121926
O7	O	0.640921	0.057515	0.121973
Cu8	Cu	0.570524	0.061887	0.144192
Cu9	Cu	0.570530	0.061890	-0.143892
O10	O	0.566152	0.132284	0.121920
C11	C	0.482124	0.066078	0.000121
C12	C	0.428469	0.065525	0.000105
C13	C	0.089654	0.106229	0.000151
C14	C	-0.112006	0.104178	0.000165
O15	O	-0.143262	0.141398	0.000213
N16	N	-0.131130	0.059843	0.000181
C17	C	-0.099835	0.016017	0.000203
O18	O	-0.120728	-0.021740	0.000232
C19	C	0.101824	0.018068	0.000199
C20	C	0.120944	0.062407	0.000169
C21	C	0.108775	0.150563	0.000122
C22	C	0.159187	0.151075	0.000111
C23	C	0.190477	0.107253	0.000128
C24	C	0.171356	0.062919	0.000157
C25	C	0.133117	-0.025757	0.000232
C26	C	0.183535	-0.025240	0.000235
C27	C	0.202655	0.019098	0.000204
C28	C	0.253059	0.019609	0.000163
N29	N	0.272183	0.063944	0.000148
C30	C	0.240892	0.107766	0.000130
C31	C	-0.205709	0.014943	0.000202
C32	C	-0.256124	0.014430	0.000200
C33	C	-0.268291	0.102591	0.000165
C34	C	-0.217876	0.103104	0.000156
C35	C	-0.186585	0.059278	0.000186
C36	C	0.346761	0.108839	0.000105
C37	C	0.397178	0.109347	0.000087
C38	C	0.409341	0.021186	0.000130
C39	C	0.358929	0.020678	0.000140
C40	C	0.327639	0.064508	0.000132
O41	O	0.284343	-0.017592	0.000132
O42	O	0.261794	0.145518	0.000133
C43	C	0.039242	0.105716	0.000163
C44	C	0.020120	0.061382	0.000192
C45	C	0.051411	0.017560	0.000209
C46	C	-0.030294	0.060869	0.000190
C47	C	-0.061585	0.104691	0.000172
C48	C	-0.042461	0.149026	0.000156
C49	C	0.007951	0.149539	0.000145
C50	C	0.032287	-0.026775	0.000225
C51	C	-0.018125	-0.027284	0.000235
C52	C	-0.049416	0.016538	0.000217
C53	C	0.574716	-0.026515	0.000183
C54	C	0.574164	-0.080170	0.000195
C55	C	0.614867	-0.418985	0.000133
C56	C	0.612816	-0.620645	0.000112
O57	O	0.650037	-0.651900	0.000060
N58	N	0.568481	-0.639768	0.000099
C59	C	0.524656	-0.608474	0.000081
O60	O	0.486899	-0.629367	0.000055
C61	C	0.526707	-0.406815	0.000092
C62	C	0.571045	-0.387694	0.000120
C63	C	0.659202	-0.399864	0.000160
C64	C	0.659714	-0.349452	0.000173
C65	C	0.615892	-0.318161	0.000160
C66	C	0.571557	-0.337282	0.000133
C67	C	0.482882	-0.375521	0.000064
C68	C	0.483399	-0.325104	0.000063
C69	C	0.527737	-0.305983	0.000091
C70	C	0.528247	-0.255580	0.000133
N71	N	0.572583	-0.236456	0.000147
C72	C	0.616405	-0.267747	0.000160
C73	C	0.523582	-0.714348	0.000079
C74	C	0.523069	-0.764762	0.000079
C75	C	0.611230	-0.776930	0.000107
C76	C	0.611742	-0.726514	0.000117
C77	C	0.567917	-0.695224	0.000092
C78	C	0.617477	-0.161878	0.000189
C79	C	0.617986	-0.111461	0.000208
C80	C	0.529825	-0.099298	0.000172
C81	C	0.529316	-0.149710	0.000161
C82	C	0.573147	-0.180999	0.000164
O83	O	0.491047	-0.224296	0.000169
O84	O	0.654156	-0.246844	0.000154
C85	C	0.614355	-0.469397	0.000120
C86	C	0.570021	-0.488518	0.000094
C87	C	0.526198	-0.457228	0.000080
C88	C	0.569508	-0.538933	0.000094
C89	C	0.613330	-0.570223	0.000107
C90	C	0.657665	-0.551100	0.000120
C91	C	0.658177	-0.500688	0.000133
C92	C	0.481863	-0.476351	0.000067
C93	C	0.481355	-0.526764	0.000056
C94	C	0.525177	-0.558054	0.000069
C95	C	0.658931	0.057699	0.000176
C96	C	0.712586	0.058252	0.000182
C97	C	0.566338	0.150292	0.000113
C98	C	0.566891	0.203947	0.000092
N99	N	0.570524	0.061885	0.346815
N100	N	0.570535	0.061888	-0.346515
C101	C	0.603642	0.028791	0.423490
C102	C	0.603647	0.028791	0.576826
C103	C	0.537412	0.094984	0.576800
C104	C	0.537406	0.094981	0.423465
H105	H	0.023514	0.185643	0.000122
H106	H	0.209009	-0.060929	0.000260
O107	O	0.505180	0.127085	0.651200
C108	C	0.420921	0.156004	0.698063
C109	C	0.457371	0.119615	0.613743
H110	H	0.382259	0.149984	0.667787
H111	H	0.426573	0.150322	0.820843
H112	H	0.426949	0.194675	0.667904
H113	H	0.451364	0.080930	0.643778
H114	H	0.451709	0.125339	0.490983
O115	O	0.635866	-0.003374	0.651081
C116	C	0.701543	-0.069047	0.634916
C117	C	0.665088	-0.032636	0.550642
H118	H	0.725171	-0.092721	0.553748
H119	H	0.725568	-0.048366	0.706645
H120	H	0.680851	-0.093031	0.706761
H121	H	0.685741	-0.008642	0.478717
H122	H	0.641063	-0.053347	0.479005
H123	H	0.343360	-0.015426	0.000143
O124	O	0.415670	0.152462	0.000126
C125	C	0.398272	0.239851	0.000004
C126	C	0.377267	0.191061	-0.000009
H127	H	0.367233	0.271070	-0.000137
H128	H	0.421556	0.242329	0.101967
H129	H	0.421583	0.242271	-0.101924
H130	H	0.353934	0.188607	0.101850
H131	H	0.354011	0.188603	-0.102040
O132	O	0.316322	0.151383	-0.000108
C133	C	0.252366	0.201989	-0.126388
C134	C	0.286802	0.153787	-0.126298
H135	H	0.228497	0.203953	-0.228417
H136	H	0.228427	0.203967	-0.024512
H137	H	0.274710	0.233752	-0.126343
H138	H	0.264497	0.121996	-0.126394
H139	H	0.310742	0.151851	-0.228166
H140	H	0.434827	-0.014492	0.000139
H141	H	0.174750	0.187180	0.000085
H142	H	0.083302	0.186251	0.000113
H143	H	-0.202311	0.139207	0.000139
O144	O	-0.298671	0.145174	-0.000104
C145	C	-0.324492	0.220386	-0.126257
C146	C	-0.290065	0.172177	-0.126167
H147	H	-0.317539	0.242236	-0.228153
H148	H	-0.363817	0.212428	-0.126346
H149	H	-0.317583	0.242198	-0.024266
H150	H	-0.296930	0.150341	-0.228141
H151	H	-0.250751	0.180170	-0.126002
H152	H	0.694282	-0.485125	0.000156
H153	H	0.510434	0.121931	0.361032
H154	H	-0.271687	-0.021674	0.000202
H155	H	-0.180236	-0.020747	0.000226
O156	O	-0.072930	0.191552	0.000204
C157	C	-0.155995	0.229821	0.000117
C158	C	-0.121541	0.181630	0.000088
H159	H	-0.195304	0.221816	-0.000007
H160	H	-0.149121	0.251665	0.102078
H161	H	-0.149062	0.251663	-0.101814
H162	H	-0.128455	0.159749	0.101950
H163	H	-0.128423	0.159823	-0.101940
H164	H	0.117558	-0.061861	0.000258
H165	H	-0.033688	-0.063392	0.000248
H166	H	0.057760	-0.062462	0.000243
H167	H	0.654093	-0.095896	0.000235
H168	H	0.630608	0.001842	0.361084
O169	O	0.660097	-0.192199	0.000263
C170	C	0.747594	-0.198933	0.000223
C171	C	0.699364	-0.164540	0.000162
H172	H	0.779354	-0.176584	0.000111
H173	H	0.749592	-0.222838	0.102190
H174	H	0.749540	-0.222843	-0.101702
H175	H	0.697386	-0.140599	0.102018
H176	H	0.697386	-0.140668	-0.101872
H177	H	0.446777	-0.391080	0.000032
O178	O	0.702827	-0.330962	0.000123
C179	C	0.790215	-0.348370	0.000231
C180	C	0.741422	-0.369369	0.000258
H181	H	0.821432	-0.379412	0.000371
H182	H	0.792698	-0.325085	-0.101737
H183	H	0.792636	-0.325062	0.102154
H184	H	0.738968	-0.392700	-0.101596
H185	H	0.738960	-0.392627	0.102294
O186	O	0.654781	-0.707885	-0.000064
C187	C	0.706546	-0.658055	-0.126303
C188	C	0.657780	-0.679107	-0.126257
H189	H	0.708991	-0.634792	-0.228335
H190	H	0.708998	-0.634729	-0.024429
H191	H	0.737768	-0.689091	-0.126219
H192	H	0.626530	-0.648102	-0.126393
H193	H	0.655370	-0.702446	-0.228122
H194	H	0.646911	-0.802415	0.000118
O195	O	0.701762	-0.430274	-0.000084
C196	C	0.752355	-0.494262	-0.126204
C197	C	0.704139	-0.459847	-0.126142
H198	H	0.754288	-0.518187	-0.228095
H199	H	0.784143	-0.471950	-0.126282
H200	H	0.754314	-0.518151	-0.024208
H201	H	0.702133	-0.435951	-0.228120
H202	H	0.672374	-0.482188	-0.125988
H203	H	0.487892	-0.688875	0.000058
H204	H	0.486964	-0.780325	0.000081
H205	H	0.447710	-0.299629	0.000040
H206	H	0.494146	-0.073812	0.000167
O207	O	0.486205	-0.168206	0.000074
C208	C	0.398816	-0.150811	0.000111
C209	C	0.447605	-0.129804	0.000199
H210	H	0.367595	-0.119773	0.000243
H211	H	0.396343	-0.174079	-0.101876
H212	H	0.396392	-0.174138	0.102016
H213	H	0.450062	-0.106455	-0.101637
H214	H	0.450057	-0.106563	0.102253
O215	O	0.700222	-0.581520	-0.000130
C216	C	0.750784	-0.645519	-0.126297
C217	C	0.702580	-0.611086	-0.126200
H218	H	0.752702	-0.669439	-0.228197
H219	H	0.782584	-0.623222	-0.126378
H220	H	0.752738	-0.669412	-0.024311
H221	H	0.700579	-0.587185	-0.228169
H222	H	0.670804	-0.633412	-0.126043
H223	H	0.445246	-0.542327	0.000045
H224	H	0.446177	-0.450879	0.000053
