data_functionalizedCrystal
_audit_creation_method	'MofGen! by Chris Wilmer'
_symmetry_space_group_name_H-M	'P1'
_symmetry_Int_Tables_number	1
_symmetry_cell_setting	triclinic
loop_
_symmetry_equiv_pos_as_xyz
  x,y,z
_cell_length_a	21.295418
_cell_length_b	25.639240
_cell_length_c	21.295411
_cell_angle_alpha	89.973291
_cell_angle_beta	89.956262
_cell_angle_gamma	90.048568
loop_
_atom_site_label
_atom_site_type_symbol
_atom_site_fract_x
_atom_site_fract_y
_atom_site_fract_z
Zn1	Zn	0.962346	-0.207990	-0.356211
Zn2	Zn	0.962244	-0.295410	-0.250928
Zn3	Zn	0.857069	-0.208014	-0.250921
Zn4	Zn	0.857034	-0.295420	-0.356124
O5	O	0.909673	-0.251708	-0.303546
O6	O	1.050422	-0.219572	-0.342285
O7	O	0.948264	-0.283822	-0.162837
O8	O	0.871091	-0.134846	-0.264922
O9	O	1.050347	-0.283799	-0.264933
O10	O	0.948438	-0.134828	-0.342278
O11	O	0.870993	-0.219613	-0.162833
O12	O	0.768975	-0.219623	-0.264837
O13	O	0.871032	-0.283816	-0.444225
O14	O	0.768950	-0.283840	-0.342129
O15	O	0.948404	-0.219582	-0.444289
O16	O	0.948231	-0.368576	-0.264848
O17	O	0.870934	-0.368584	-0.342136
C18	C	0.746122	-0.251736	-0.303474
C19	C	0.676154	-0.251760	-0.303458
C20	C	0.643290	-0.285242	-0.343643
C21	C	0.577548	-0.285229	-0.343672
C22	C	0.544671	-0.251740	-0.303503
C23	C	0.577543	-0.218252	-0.263314
C24	C	0.643284	-0.218262	-0.263292
N25	N	0.441395	-0.247648	-0.248446
N26	N	0.378944	-0.247641	-0.248469
C27	C	0.346596	-0.251707	-0.303570
N28	N	0.379060	-0.255789	-0.358647
N29	N	0.441517	-0.255798	-0.358623
C30	C	0.473386	-0.251725	-0.303523
C31	C	0.242448	-0.285176	-0.343789
C32	C	0.176704	-0.285160	-0.343819
C33	C	0.176700	-0.218185	-0.263456
C34	C	0.242442	-0.218199	-0.263432
C35	C	0.275312	-0.251697	-0.303598
C36	C	0.909584	-0.387551	-0.303497
C37	C	0.909604	-0.445665	-0.303497
C38	C	0.949968	-0.805980	-0.343898
C39	C	0.949986	-0.860584	-0.343911
O40	O	0.984199	-0.888781	-0.378211
N41	N	0.909761	-0.887947	-0.303607
C42	C	0.869510	-0.860703	-0.263292
O43	O	0.835296	-0.888991	-0.229012
C44	C	0.869488	-0.806100	-0.263283
C45	C	0.909721	-0.778740	-0.303585
C46	C	0.990197	-0.778620	-0.384197
C47	C	0.990179	-0.724019	-0.384184
C48	C	0.949932	-0.696779	-0.343871
C49	C	0.909703	-0.724139	-0.303571
C50	C	0.829234	-0.778857	-0.222972
C51	C	0.829216	-0.724250	-0.222966
C52	C	0.869449	-0.696890	-0.263268
C53	C	0.869438	-0.642298	-0.263244
N54	N	0.909664	-0.614935	-0.303548
C55	C	0.949911	-0.642176	-0.343861
C56	C	0.869557	-0.975374	-0.263315
C57	C	0.869581	-1.029976	-0.263321
C58	C	0.950057	-1.029854	-0.343941
C59	C	0.950035	-0.975250	-0.343931
C60	C	0.909782	-0.948011	-0.303619
C61	C	0.949870	-0.527511	-0.343829
C62	C	0.949851	-0.472905	-0.343810
C63	C	0.869373	-0.473033	-0.263193
C64	C	0.869394	-0.527633	-0.263209
C65	C	0.909645	-0.554871	-0.303532
O66	O	0.835241	-0.614068	-0.228964
O67	O	0.984113	-0.613881	-0.378142
C68	C	1.073864	-0.251681	-0.303619
C69	C	1.143832	-0.251670	-0.303650
C70	C	0.909726	-0.251697	-0.467736
C71	C	0.909748	-0.251693	-0.537705
C72	C	0.909780	-0.115335	-0.303609
C73	C	0.909825	-0.057221	-0.303636
C74	C	0.950034	-0.218244	-0.570606
C75	C	0.950033	-0.218221	-0.636348
C76	C	0.909753	-0.251657	-0.669187
C77	C	0.869459	-0.285108	-0.636278
C78	C	0.869457	-0.285126	-0.570537
N79	N	0.904894	-0.297396	-0.772396
N80	N	0.904900	-0.297377	-0.834848
C81	C	0.909757	-0.251604	-0.867262
N82	N	0.914620	-0.205848	-0.834866
N83	N	0.914617	-0.205867	-0.772408
C84	C	0.909751	-0.251641	-0.740473
C85	C	0.950044	-0.218128	-0.971449
C86	C	0.950039	-0.218104	-1.037192
C87	C	0.869468	-0.284995	-1.037121
C88	C	0.869470	-0.285014	-0.971379
C89	C	0.909761	-0.251581	-0.938546
C90	C	0.909658	-0.251682	-0.139995
C91	C	0.909757	-0.251539	-0.070027
H92	H	0.269200	-0.190937	-0.230705
O93	O	0.989240	-1.056297	-0.383039
C94	C	1.051984	-1.042898	-0.369374
H95	H	1.055187	-1.027908	-0.319088
H96	H	1.068413	-1.011174	-0.403142
C97	C	1.090067	-1.109776	-0.438522
C98	C	1.094002	-1.091369	-0.376758
H99	H	1.115987	-1.139674	-0.443080
H100	H	1.047795	-1.118802	-0.447731
H101	H	1.103756	-1.083334	-0.466655
H102	H	1.080305	-1.117808	-0.348627
H103	H	1.136273	-1.082348	-0.367545
O104	O	0.675248	-0.317831	-0.382575
C105	C	0.713210	-0.351553	-0.346649
H106	H	0.693342	-0.354723	-0.297069
H107	H	0.763051	-0.335390	-0.344502
C108	C	0.738592	-0.402049	-0.438175
C109	C	0.714187	-0.405945	-0.377282
H110	H	0.739198	-0.435600	-0.457071
H111	H	0.713019	-0.379328	-0.462380
H112	H	0.780124	-0.388577	-0.436378
H113	H	0.672654	-0.419411	-0.379080
H114	H	0.739754	-0.428670	-0.353078
H115	H	0.149947	-0.312424	-0.376547
O116	O	0.830243	-0.317532	-0.668147
C117	C	0.767512	-0.306129	-0.652030
H118	H	0.764364	-0.264365	-0.633964
H119	H	0.751032	-0.334173	-0.613854
C120	C	0.729366	-0.363500	-0.732590
C121	C	0.725499	-0.312204	-0.710405
H122	H	0.703449	-0.367249	-0.768597
H123	H	0.771629	-0.371185	-0.743447
H124	H	0.715634	-0.386864	-0.700770
H125	H	0.739239	-0.288841	-0.742222
H126	H	0.683238	-0.304515	-0.699555
O127	O	0.989000	-0.446305	-0.382874
C128	C	1.029657	-0.414692	-0.347083
H129	H	1.033577	-0.431169	-0.297512
H130	H	1.010184	-0.373328	-0.344882
C131	C	1.090266	-0.393542	-0.438805
C132	C	1.095085	-0.413782	-0.377923
H133	H	1.130624	-0.392978	-0.457830
H134	H	1.062873	-0.414839	-0.462919
H135	H	1.074036	-0.359074	-0.436963
H136	H	1.111307	-0.448252	-0.379767
H137	H	1.122482	-0.392491	-0.353810
H138	H	0.149933	-0.190915	-0.230753
H139	H	1.022970	-0.800793	-0.417029
O140	O	0.989026	-0.553884	-0.383021
C141	C	1.024512	-0.518017	-0.418596
H142	H	1.026689	-0.479109	-0.392798
H143	H	1.001430	-0.512200	-0.466371
C144	C	1.088839	-0.587041	-0.459452
C145	C	1.091517	-0.539255	-0.427764
H146	H	1.130171	-0.600141	-0.465111
H147	H	1.064931	-0.611205	-0.435487
H148	H	1.069602	-0.582187	-0.499262
H149	H	1.110747	-0.544110	-0.387953
H150	H	1.115431	-0.515091	-0.451723
O151	O	0.830371	-0.948973	-0.224177
C152	C	0.767629	-0.962363	-0.237867
H153	H	0.766331	-1.001995	-0.262076
H154	H	0.746394	-0.931634	-0.270193
C155	C	0.731129	-0.916286	-0.146715
C156	C	0.729533	-0.964965	-0.176445
H157	H	0.707628	-0.917889	-0.108828
H158	H	0.773399	-0.907263	-0.137493
H159	H	0.713434	-0.890683	-0.173659
H160	H	0.747235	-0.990565	-0.149503
H161	H	0.687266	-0.973992	-0.185661
H162	H	0.836648	-0.312363	-0.543749
O163	O	0.830188	-0.446622	-0.224070
C164	C	0.767447	-0.460005	-0.237770
H165	H	0.766145	-0.499643	-0.261967
H166	H	0.746228	-0.429280	-0.270112
C167	C	0.730935	-0.413900	-0.146644
C168	C	0.729335	-0.462586	-0.176357
H169	H	0.707424	-0.415490	-0.108762
H170	H	0.773204	-0.404882	-0.137414
H171	H	0.713253	-0.388301	-0.173602
H172	H	0.747024	-0.488183	-0.149403
H173	H	0.687068	-0.471609	-0.185581
H174	H	0.269212	-0.312450	-0.376498
O175	O	0.790092	-0.697871	-0.183747
C176	C	0.754578	-0.733733	-0.148195
H177	H	0.780379	-0.772632	-0.146055
H178	H	0.706763	-0.739575	-0.171194
C179	C	0.713832	-0.664695	-0.083810
C180	C	0.745524	-0.712469	-0.081177
H181	H	0.708244	-0.651578	-0.042471
H182	H	0.737756	-0.640533	-0.107763
H183	H	0.673989	-0.669569	-0.102978
H184	H	0.785368	-0.707593	-0.062017
H185	H	0.721606	-0.736630	-0.057219
H186	H	1.022938	-0.701746	-0.417003
H187	H	0.796473	-0.801124	-0.190153
O188	O	0.830362	-0.317462	-0.939318
C189	C	0.839009	-0.310319	-0.874252
H190	H	0.859656	-0.269968	-0.865294
H191	H	0.872508	-0.341330	-0.855616
C192	C	0.749955	-0.364692	-0.851452
C193	C	0.775308	-0.315130	-0.840450
H194	H	0.710662	-0.367662	-0.830601
H195	H	0.744130	-0.369506	-0.895288
H196	H	0.777877	-0.390529	-0.835923
H197	H	0.747390	-0.289294	-0.855987
H198	H	0.781127	-0.310312	-0.796616
H199	H	0.982841	-0.191020	-0.543878
O200	O	0.989203	-0.185803	-0.668386
C201	C	1.029844	-0.215562	-0.706423
H202	H	1.007604	-0.255183	-0.716246
H203	H	1.076487	-0.221310	-0.681118
C204	C	1.068588	-0.138117	-0.756821
C205	C	1.041271	-0.186780	-0.768890
H206	H	1.075640	-0.120363	-0.795353
H207	H	1.041210	-0.118068	-0.731193
H208	H	1.107454	-0.142915	-0.735733
H209	H	1.002402	-0.181981	-0.789971
H210	H	1.068643	-0.206828	-0.794523
O211	O	0.989195	-0.185599	-0.939648
C212	C	1.024760	-0.156076	-0.982789
H213	H	0.998978	-0.154256	-1.029632
H214	H	1.072555	-0.175211	-0.989815
C215	C	1.065540	-0.102671	-0.899611
C216	C	1.033871	-0.100432	-0.957144
H217	H	1.071163	-0.068347	-0.883792
H218	H	1.041582	-0.122562	-0.870546
H219	H	1.105366	-0.118619	-0.905474
H220	H	0.994044	-0.084490	-0.951279
H221	H	1.057824	-0.080536	-0.986208
H222	H	0.982843	-0.190863	-1.063979
H223	H	0.550785	-0.312494	-0.376398
H224	H	0.982796	-0.952977	-0.376749
O225	O	0.675280	-0.185811	-0.224219
C226	C	0.713209	-0.215538	-0.183467
H227	H	0.723030	-0.255190	-0.205573
H228	H	0.687813	-0.221220	-0.136814
C229	C	0.763620	-0.138069	-0.144963
C230	C	0.775687	-0.186769	-0.172116
H231	H	0.802158	-0.120323	-0.137958
H232	H	0.738065	-0.118041	-0.172416
H233	H	0.742455	-0.142811	-0.106088
H234	H	0.796845	-0.182026	-0.210993
H235	H	0.801247	-0.206795	-0.144669
H236	H	0.550770	-0.190983	-0.230610
H237	H	0.836826	-1.052248	-0.230496
H238	H	0.836639	-0.549911	-0.230387
H239	H	0.836665	-0.312213	-1.063858
