data_functionalizedCrystal
_audit_creation_method	'MofGen! by Chris Wilmer'
_symmetry_space_group_name_H-M	'P1'
_symmetry_Int_Tables_number	1
_symmetry_cell_setting	triclinic
loop_
_symmetry_equiv_pos_as_xyz
  x,y,z
_cell_length_a	14.519709
_cell_length_b	13.596369
_cell_length_c	6.394984
_cell_angle_alpha	90.004414
_cell_angle_beta	94.912251
_cell_angle_gamma	90.000816
loop_
_atom_site_label
_atom_site_type_symbol
_atom_site_fract_x
_atom_site_fract_y
_atom_site_fract_z
O1	O	-1.226849	0.081648	0.273823
O2	O	-0.726849	0.581648	0.773823
O3	O	-0.958723	0.081680	0.306069
O4	O	-0.458723	0.581680	0.806069
O5	O	-1.096595	0.081661	-0.014105
O6	O	-0.596595	0.581661	0.485895
O7	O	-1.088978	0.081667	0.593996
O8	O	-0.588978	0.581667	1.093996
O9	O	-1.096580	-0.081922	-0.014122
O10	O	-0.596580	0.418078	0.485878
O11	O	-0.958709	-0.081903	0.306052
O12	O	-0.458709	0.418097	0.806052
O13	O	-1.226835	-0.081935	0.273806
O14	O	-0.726835	0.418065	0.773806
Zn15	Zn	-1.092770	-0.107891	0.289926
Zn16	Zn	-0.592770	0.392109	0.789926
Zn17	Zn	-1.092788	0.107636	0.289948
Zn18	Zn	-0.592788	0.607636	0.789948
O19	O	-1.088963	-0.081916	0.593980
O20	O	-0.588963	0.418084	1.093980
C21	C	-0.924340	-0.000107	0.304557
C22	C	-0.424340	0.499893	0.804557
C23	C	-0.821910	-0.000095	0.300054
C24	C	-0.321910	0.499905	0.800054
N25	N	-1.092763	-0.254983	0.289909
N26	N	-0.592763	0.245017	0.789909
C27	C	-0.446833	-0.000136	0.283475
C28	C	0.053167	0.499864	0.783475
C29	C	-0.551191	-0.000124	0.288079
C30	C	-0.051191	0.499876	0.788079
C31	C	-0.634368	-0.000115	0.291764
C32	C	-0.134368	0.499885	0.791764
C33	C	-0.738733	-0.000105	0.296369
C34	C	-0.238733	0.499895	0.796369
C35	C	-1.092787	-0.656274	0.289951
C36	C	-0.592787	-0.156274	0.789951
C37	C	-1.092778	-0.544623	0.289946
C38	C	-0.592778	-0.044623	0.789946
C39	C	-1.092776	-0.455632	0.289932
C40	C	-0.592776	0.044368	0.789932
C41	C	-1.092766	-0.343974	0.289924
C42	C	-0.592766	0.156026	0.789924
C43	C	-0.261218	-0.000143	0.275317
C44	C	0.238782	0.499857	0.775317
C45	C	-0.363648	-0.000142	0.279820
C46	C	0.136352	0.499858	0.779820
C47	C	-1.095073	-0.000134	0.908062
C48	C	-0.595073	0.499866	1.408062
C49	C	-1.090483	-0.000131	0.671807
C50	C	-0.590483	0.499869	1.171807
N51	N	-1.092802	0.254728	0.289948
N52	N	-0.592802	0.754728	0.789948
