data_functionalizedCrystal
_audit_creation_method	'MofGen! by Chris Wilmer'
_symmetry_space_group_name_H-M	'P1'
_symmetry_Int_Tables_number	1
_symmetry_cell_setting	triclinic
loop_
_symmetry_equiv_pos_as_xyz
  x,y,z
_cell_length_a	12.759401
_cell_length_b	10.685194
_cell_length_c	12.759393
_cell_angle_alpha	94.403421
_cell_angle_beta	90.018496
_cell_angle_gamma	94.377401
loop_
_atom_site_label
_atom_site_type_symbol
_atom_site_fract_x
_atom_site_fract_y
_atom_site_fract_z
Zn1	Zn	1.574245	-0.502334	0.561903
Zn2	Zn	1.560690	-0.713404	0.372744
Zn3	Zn	1.398543	-0.502400	0.386238
Zn4	Zn	1.385092	-0.713307	0.548392
O5	O	1.479643	-0.607861	0.467319
O6	O	1.719467	-0.530346	0.536818
O7	O	1.539137	-0.685482	0.227509
O8	O	1.433153	-0.325792	0.420842
O9	O	1.709508	-0.685418	0.397844
O10	O	1.562240	-0.325744	0.549902
O11	O	1.420008	-0.530458	0.237422
O12	O	1.249739	-0.530364	0.407741
O13	O	1.410228	-0.685253	0.697209
O14	O	1.239856	-0.685317	0.526875
O15	O	1.549198	-0.530252	0.707136
O16	O	1.526094	-0.889990	0.384743
O17	O	1.397083	-0.889919	0.513790
C18	C	1.206677	-0.607838	0.467306
C19	C	1.089899	-0.607859	0.467324
C20	C	1.029910	-0.688671	0.529237
C21	C	0.920185	-0.688687	0.529248
C22	C	0.930447	-0.527074	0.405422
C23	C	1.040170	-0.527053	0.405418
C24	C	1.023985	-0.781982	0.600724
C25	C	0.914259	-0.781998	0.600734
C26	C	1.458687	-0.935745	0.446359
C27	C	1.449818	-1.076015	0.437427
C28	C	1.753674	-0.607886	0.467332
C29	C	1.870450	-0.607896	0.467338
C30	C	1.479724	-0.607734	0.741361
C31	C	1.479759	-0.607680	0.858141
C32	C	1.500709	-0.278698	0.488384
C33	C	1.509686	-0.138428	0.497361
C34	C	1.479627	-0.607897	0.194349
C35	C	1.479819	-0.607596	0.077593
C36	C	1.552130	-0.526963	0.918174
C37	C	1.552158	-0.526917	1.027901
C38	C	1.407440	-0.688316	1.017552
C39	C	1.407408	-0.688354	0.907827
C40	C	1.635686	-0.433784	0.924150
C41	C	1.635714	-0.433739	1.033877
H42	H	1.089010	-0.461239	0.355010
C43	C	0.766804	-0.455355	0.350438
C44	C	0.875780	-0.438271	0.337364
H45	H	0.733058	-0.400538	0.308412
H46	H	0.750026	-0.436979	0.422220
H47	H	0.743419	-0.540135	0.329531
H48	H	0.899167	-0.353493	0.358278
H49	H	0.892566	-0.456639	0.265567
H50	H	1.055454	-0.755917	0.683795
H51	H	1.052086	-0.874775	0.565513
H52	H	0.882485	-0.747110	0.680314
C53	C	1.690127	-1.097401	0.551286
C54	C	1.588050	-1.065710	0.575864
H55	H	1.738503	-1.052508	0.599757
H56	H	1.706880	-1.075899	0.482073
H57	H	1.694229	-1.185289	0.555378
H58	H	1.583946	-0.977823	0.571764
H59	H	1.571292	-1.087203	0.645095
C60	C	1.747565	-0.604452	0.901173
C61	C	1.736989	-0.481067	0.875176
H62	H	1.810109	-0.633638	0.870944
H63	H	1.688746	-0.657369	0.874783
H64	H	1.751029	-0.606019	0.975428
H65	H	1.733516	-0.479501	0.800922
H66	H	1.795823	-0.428136	0.901562
H67	H	1.391762	-1.129897	0.379282
C68	C	0.945867	-0.993883	0.539607
C69	C	0.865621	-0.913901	0.562696
H70	H	0.915838	-1.075308	0.516119
H71	H	0.986902	-0.999282	0.600990
H72	H	0.989275	-0.961311	0.486039
H73	H	0.822218	-0.946469	0.616269
H74	H	0.824568	-0.908507	0.501305
H75	H	1.348473	-0.754077	0.858952
H76	H	1.348532	-0.753996	1.058020
H77	H	1.620145	-0.336051	0.900635
C78	C	1.583839	-0.226088	1.011396
C79	C	1.604420	-0.308376	1.087857
H80	H	1.564526	-0.148696	1.044725
H81	H	1.527992	-0.262616	0.967158
H82	H	1.645052	-0.211130	0.970460
H83	H	1.543205	-0.323341	1.128788
H84	H	1.660272	-0.271840	1.132112
C85	C	1.729777	-0.578356	1.125823
C86	C	1.743301	-0.469068	1.071842
H87	H	1.796195	-0.600155	1.149269
H88	H	1.698468	-0.645259	1.080177
H89	H	1.685509	-0.563762	1.184645
H90	H	1.787564	-0.483666	1.013016
H91	H	1.774626	-0.402151	1.117491
