data_functionalizedCrystal
_audit_creation_method	'MofGen! by Chris Wilmer'
_symmetry_space_group_name_H-M	'P1'
_symmetry_Int_Tables_number	1
_symmetry_cell_setting	triclinic
loop_
_symmetry_equiv_pos_as_xyz
  x,y,z
_cell_length_a	14.044220
_cell_length_b	16.992695
_cell_length_c	16.053802
_cell_angle_alpha	87.245349
_cell_angle_beta	92.799619
_cell_angle_gamma	91.928550
loop_
_atom_site_label
_atom_site_type_symbol
_atom_site_fract_x
_atom_site_fract_y
_atom_site_fract_z
O1	O	0.198302	1.057568	-0.069399
O2	O	0.698302	1.557568	0.430601
O3	O	0.196084	0.829128	-0.069408
O4	O	0.696084	1.329128	0.430592
O5	O	0.058949	0.939918	-0.069396
O6	O	0.558949	1.439918	0.430604
O7	O	0.335437	0.946777	-0.069412
O8	O	0.835437	1.446777	0.430588
O9	O	0.066464	0.933818	0.069462
O10	O	0.566464	1.433818	0.569462
O11	O	0.203599	0.823027	0.069450
O12	O	0.703599	1.323027	0.569450
O13	O	0.205817	1.051467	0.069459
O14	O	0.705817	1.551467	0.569459
Zn15	Zn	0.205901	0.936278	0.091501
Zn16	Zn	0.705901	1.436278	0.591501
Zn17	Zn	0.196000	0.944316	-0.091451
Zn18	Zn	0.696000	1.444316	0.408549
O19	O	0.342952	0.940676	0.069446
O20	O	0.842952	1.440676	0.569446
C21	C	0.027165	0.933866	0.000034
C22	C	0.527165	1.433866	0.500034
C23	C	-0.078739	0.924912	0.000034
C24	C	0.421261	1.424912	0.500034
C25	C	0.204911	1.083929	0.000029
C26	C	0.704911	1.583929	0.500029
C27	C	0.213419	1.171569	0.000026
C28	C	0.713419	1.671569	0.500026
C29	C	0.196990	0.796665	0.000020
C30	C	0.696990	1.296665	0.500020
C31	C	0.188481	0.709026	0.000017
C32	C	0.688481	1.209026	0.500017
C33	C	-0.272641	0.908543	0.000022
C34	C	0.227359	1.408543	0.500022
C35	C	-0.325464	0.972049	0.000021
C36	C	0.174536	1.472049	0.500021
C37	C	-0.433358	0.962941	0.000014
C38	C	0.066642	1.462941	0.500014
C39	C	-0.164738	0.917650	0.000029
C40	C	0.335262	1.417650	0.500029
C41	C	0.374736	0.946729	0.000015
C42	C	0.874736	1.446729	0.500015
C43	C	0.480640	0.955683	0.000009
C44	C	0.980640	1.455683	0.500009
N45	N	0.212659	0.930799	0.216361
N46	N	0.712659	1.430799	0.716361
C47	C	0.131323	1.216067	0.000029
C48	C	0.631323	1.716067	0.500029
C49	C	0.139323	1.298413	0.000031
C50	C	0.639323	1.798413	0.500031
C51	C	0.229421	1.336260	0.000026
C52	C	0.729421	1.836260	0.500026
C53	C	0.311524	1.291755	0.000026
C54	C	0.811524	1.791755	0.500026
C55	C	0.303523	1.209410	0.000030
C56	C	0.803523	1.709410	0.500030
C57	C	0.262583	1.582177	0.000020
C58	C	0.762583	2.082177	0.500020
C59	C	0.270578	1.664528	0.000014
C60	C	0.770578	2.164528	0.500014
C61	C	0.098376	1.671180	0.000021
C62	C	0.598376	2.171180	0.500021
C63	C	0.090383	1.588834	0.000019
C64	C	0.590383	2.088834	0.500019
C65	C	0.172486	1.544336	0.000024
C66	C	0.672486	2.044336	0.500024
N67	N	0.237601	1.420431	0.000026
N68	N	0.737601	1.920431	0.500026
N69	N	0.164306	1.460167	0.000030
N70	N	0.664306	1.960167	0.500030
N71	N	0.189235	0.949802	-0.216310
N72	N	0.689235	1.449802	0.283690
C73	C	0.154331	0.977961	0.260060
C74	C	0.654331	1.477961	0.760060
C75	C	0.159067	0.974135	0.347466
C76	C	0.659067	1.474135	0.847466
C77	C	0.222137	0.923152	0.391172
C78	C	0.722137	1.423152	0.891172
C79	C	0.280467	0.875985	0.347466
C80	C	0.780467	1.375985	0.847466
C81	C	0.275725	0.879806	0.260062
C82	C	0.775725	1.379806	0.760062
C83	C	0.242823	0.906456	0.652580
C84	C	0.742823	1.406456	1.152580
C85	C	0.247563	0.902640	0.739990
C86	C	0.747563	1.402640	1.239990
C87	C	0.126161	1.000790	0.739984
C88	C	0.626161	1.500790	1.239984
C89	C	0.121429	1.004611	0.652578
C90	C	0.621429	1.504611	1.152578
C91	C	0.179756	0.957440	0.608880
C92	C	0.679756	1.457440	1.108880
N93	N	0.226982	0.919242	0.480515
N94	N	0.726982	1.419242	0.980515
N95	N	0.174905	0.961346	0.519538
N96	N	0.674905	1.461346	1.019538
H97	H	-0.308447	0.847338	0.000017
H98	H	0.191553	1.347338	0.500017
O99	O	0.367762	1.705348	0.000012
O100	O	0.867762	2.205348	0.500012
H101	H	0.378576	1.740231	0.056602
H102	H	0.878576	2.240231	0.556602
H103	H	0.057955	1.185259	0.000028
H104	H	0.557955	1.685259	0.500028
O105	O	-0.278044	1.053132	0.000026
O106	O	0.221956	1.553132	0.500026
H107	H	-0.296873	1.083114	0.056620
H108	H	0.203127	1.583114	0.556620
H109	H	0.017016	1.558025	0.000024
H110	H	0.517016	2.058025	0.500024
H111	H	0.331816	0.834468	0.383056
H112	H	0.831816	1.334468	0.883056
H113	H	0.072471	1.334640	0.000036
H114	H	0.572471	1.834640	0.500036
O115	O	0.086302	1.032947	0.212921
O116	O	0.586302	1.532947	0.712921
H117	H	0.046531	1.065092	0.257996
H118	H	0.546531	1.565092	0.757996
H119	H	0.031533	1.707419	0.000018
H120	H	0.531533	2.207419	0.500018
H121	H	0.329437	1.545957	0.000020
H122	H	0.829437	2.045957	0.500020
H123	H	0.384884	1.322576	0.000027
H124	H	0.884884	1.822576	0.500027
H125	H	0.370375	1.173181	0.000031
H126	H	0.870375	1.673181	0.500031
O127	O	0.096176	1.025018	0.394603
O128	O	0.596176	1.525018	0.894603
H129	H	0.051538	1.061124	0.349527
H130	H	0.551538	1.561124	0.849527
O131	O	0.053396	1.059593	0.605437
O132	O	0.553396	1.559593	1.105437
H133	H	0.013624	1.091740	0.650510
H134	H	0.513624	1.591740	1.150510
O135	O	0.063245	1.051658	0.787113
O136	O	0.563245	1.551658	1.287113
H137	H	0.077129	1.040433	0.855233
H138	H	0.577129	1.540433	1.355233
O139	O	0.315579	0.847638	0.787135
O140	O	0.815579	1.347638	1.287135
H141	H	0.355332	0.815471	0.742066
H142	H	0.855332	1.315471	1.242066
O143	O	0.305738	0.855590	0.605452
O144	O	0.805738	1.355590	1.105452
H145	H	0.350398	0.819506	0.650530
H146	H	0.850398	1.319506	1.150530
O147	O	0.338639	0.828944	0.212922
O148	O	0.838639	1.328944	0.712922
H149	H	0.383300	0.792855	0.257995
H150	H	0.883300	1.292855	0.757995
