data_functionalizedCrystal
_audit_creation_method	'MofGen! by Chris Wilmer'
_symmetry_space_group_name_H-M	'P1'
_symmetry_Int_Tables_number	1
_symmetry_cell_setting	triclinic
loop_
_symmetry_equiv_pos_as_xyz
  x,y,z
_cell_length_a	19.188930
_cell_length_b	23.532357
_cell_length_c	18.266242
_cell_angle_alpha	89.988103
_cell_angle_beta	89.977082
_cell_angle_gamma	82.986534
loop_
_atom_site_label
_atom_site_type_symbol
_atom_site_fract_x
_atom_site_fract_y
_atom_site_fract_z
O1	O	0.925907	0.071104	-0.061125
O2	O	0.722563	0.080675	-0.061076
O3	O	0.830385	-0.007031	-0.061087
O4	O	0.818085	0.158810	-0.061114
O5	O	0.830367	-0.007036	0.060675
O6	O	0.722545	0.080671	0.060686
O7	O	0.925889	0.071099	0.060637
Zn8	Zn	0.824214	0.075884	0.079994
Zn9	Zn	0.824238	0.075890	-0.080433
O10	O	0.818067	0.158806	0.060648
C11	C	0.696544	0.080363	-0.000189
C12	C	0.619042	0.079433	-0.000169
C13	C	0.830068	-0.028251	-0.000204
C14	C	0.829143	-0.091471	-0.000197
C15	C	0.573943	0.130896	-0.000189
C16	C	0.501122	0.130022	-0.000197
C17	C	0.473404	0.077681	-0.000200
C18	C	0.518513	0.026211	-0.000176
C19	C	0.591333	0.027087	-0.000160
N20	N	0.365567	0.037675	-0.041664
N21	N	0.296391	0.036847	-0.041680
C22	C	0.254004	0.075040	-0.000244
N23	N	0.283406	0.114101	0.041199
N24	N	0.352588	0.114931	0.041212
C25	C	0.394445	0.076726	-0.000216
C26	C	0.129944	0.125559	-0.000271
C27	C	0.057122	0.124683	-0.000275
C28	C	0.074515	0.020871	-0.000261
C29	C	0.147335	0.021749	-0.000250
C30	C	0.175045	0.074094	-0.000259
C31	C	0.823346	-0.483492	-0.066607
C32	C	0.822467	-0.542894	-0.066611
O33	O	0.821997	-0.573609	-0.123058
N34	N	0.822021	-0.572608	-0.000239
C35	C	0.822447	-0.542918	0.066141
O36	O	0.821986	-0.573647	0.122594
C37	C	0.823321	-0.483517	0.066144
C38	C	0.823774	-0.453806	-0.000232
C39	C	0.823798	-0.453782	-0.132978
C40	C	0.824679	-0.394384	-0.132973
C41	C	0.825107	-0.364698	-0.066599
C42	C	0.824655	-0.394409	-0.000228
C43	C	0.823742	-0.453827	0.132523
C44	C	0.824616	-0.394422	0.132520
C45	C	0.825069	-0.364711	0.066144
C46	C	0.825964	-0.305326	0.066151
N47	N	0.826410	-0.275611	-0.000221
C48	C	0.825981	-0.305297	-0.066595
C49	C	0.820610	-0.667663	0.066129
C50	C	0.819740	-0.727063	0.066126
C51	C	0.819759	-0.727035	-0.066626
C52	C	0.820633	-0.667634	-0.066622
C53	C	0.821056	-0.637949	-0.000243
C54	C	0.827831	-0.180559	-0.066581
C55	C	0.828715	-0.121157	-0.066571
C56	C	0.828693	-0.121190	0.066180
C57	C	0.827813	-0.180588	0.066170
C58	C	0.827380	-0.210270	-0.000216
O59	O	0.826431	-0.274572	0.122569
O60	O	0.826433	-0.274560	-0.123040
C61	C	0.951908	0.071411	-0.000252
C62	C	1.029409	0.072342	-0.000276
C63	C	0.818383	0.180025	-0.000237
C64	C	0.819308	0.243246	-0.000249
N65	N	0.824203	0.075880	0.189481
N66	N	0.824254	0.075890	-0.189920
C67	C	0.871962	0.037062	0.227785
C68	C	0.871966	0.037060	0.304430
C69	C	0.824218	0.075884	0.342768
C70	C	0.776450	0.114705	0.304454
C71	C	0.776442	0.114703	0.227811
N72	N	0.814970	0.126301	0.463093
N73	N	0.814982	0.126301	0.535901
C74	C	0.824238	0.075893	0.573690
N75	N	0.833495	0.025482	0.535920
N76	N	0.833487	0.025482	0.463105
C77	C	0.824221	0.075891	0.425875
C78	C	0.872004	0.037069	0.695101
C79	C	0.872004	0.037066	0.771748
C80	C	0.776491	0.114716	0.771771
C81	C	0.776488	0.114714	0.695126
C82	C	0.824248	0.075891	0.656796
H83	H	0.464395	0.171931	-0.000211
N84	N	0.829121	-0.090849	0.133970
N85	N	0.780382	-0.052327	0.148776
H86	H	0.780680	-0.030895	0.196653
H87	H	0.737601	0.146325	0.663937
N88	N	0.490192	-0.027248	-0.000171
N89	N	0.425175	-0.028024	-0.000185
H90	H	0.405172	-0.065781	-0.000178
N91	N	0.827388	-0.210883	-0.134385
N92	N	0.777680	-0.238650	-0.149197
H93	H	0.777371	-0.260068	-0.197082
N94	N	0.011054	0.177256	-0.000276
N95	N	0.013344	0.212105	0.051046
H96	H	-0.019191	0.249237	0.051047
N97	N	0.829183	-0.090819	-0.134383
N98	N	0.828800	-0.117336	-0.193639
H99	H	0.829130	-0.095912	-0.241531
H100	H	0.184056	-0.020159	-0.000238
N101	N	0.819292	-0.757419	0.133921
N102	N	0.868021	-0.795945	0.148721
H103	H	0.867701	-0.817383	0.196602
N104	N	0.602235	0.184369	-0.000200
N105	N	0.561953	0.230315	-0.000219
H106	H	0.581935	0.268082	-0.000227
H107	H	0.825045	-0.370199	-0.187024
N108	N	0.637395	-0.025489	-0.000136
N109	N	0.612642	-0.072220	-0.000132
H110	H	0.645174	-0.109353	-0.000115
H111	H	0.823447	-0.477945	-0.187031
N112	N	0.158243	0.179031	-0.000276
N113	N	0.117963	0.224978	-0.000285
H114	H	0.137946	0.262744	-0.000287
H115	H	0.051948	-0.021746	-0.000308
N116	N	0.821099	-0.637297	-0.134430
N117	N	0.820721	-0.663818	-0.193685
H118	H	0.821050	-0.642396	-0.241577
N119	N	0.825043	-0.364089	0.200321
N120	N	0.776308	-0.325569	0.215141
H121	H	0.776610	-0.304146	0.263024
N122	N	0.819331	-0.757375	-0.134422
N123	N	0.818554	-0.810411	-0.134407
H124	H	0.818256	-0.831842	-0.182285
H125	H	0.737550	0.146313	0.196623
H126	H	0.910891	0.005456	0.663891
N127	N	0.821044	-0.637351	0.133945
N128	N	0.820645	-0.663894	0.193196
H129	H	0.820950	-0.642490	0.241092
N130	N	0.823259	-0.484161	0.200327
N131	N	0.773537	-0.511925	0.215149
H132	H	0.773192	-0.533347	0.263040
H133	H	0.910893	0.005453	0.802935
H134	H	0.910858	0.005449	0.335623
N135	N	0.827356	-0.210932	0.133976
N136	N	0.827739	-0.184416	0.193234
H137	H	0.827409	-0.205842	0.241125
H138	H	0.737572	0.146316	0.335673
N139	N	0.920809	-0.002549	0.188644
N140	N	0.963487	-0.037173	0.222860
H141	H	0.998008	-0.065132	0.195216
H142	H	0.737611	0.146325	0.802985
