data_functionalizedCrystal
_audit_creation_method	'MofGen! by Chris Wilmer'
_symmetry_space_group_name_H-M	'P1'
_symmetry_Int_Tables_number	1
_symmetry_cell_setting	triclinic
loop_
_symmetry_equiv_pos_as_xyz
  x,y,z
_cell_length_a	12.759395
_cell_length_b	13.032721
_cell_length_c	13.032268
_cell_angle_alpha	103.289627
_cell_angle_beta	97.164484
_cell_angle_gamma	97.205770
loop_
_atom_site_label
_atom_site_type_symbol
_atom_site_fract_x
_atom_site_fract_y
_atom_site_fract_z
Zn1	Zn	1.458908	-0.499038	-0.654153
Zn2	Zn	1.458794	-0.654122	-0.499101
Zn3	Zn	1.308773	-0.476537	-0.476578
Zn4	Zn	1.257633	-0.676602	-0.676649
O5	O	1.371027	-0.576575	-0.576620
O6	O	1.605912	-0.519619	-0.633596
O7	O	1.460247	-0.611741	-0.347492
O8	O	1.350138	-0.330891	-0.481292
O9	O	1.605827	-0.633558	-0.519680
O10	O	1.460442	-0.347422	-0.611756
O11	O	1.350027	-0.481270	-0.330945
O12	O	1.154970	-0.503067	-0.503106
O13	O	1.262979	-0.671872	-0.822286
O14	O	1.117398	-0.650054	-0.650098
O15	O	1.410855	-0.541416	-0.805758
O16	O	1.410659	-0.805735	-0.541494
O17	O	1.262868	-0.822251	-0.671938
C18	C	1.331227	-0.852534	-0.611624
C19	C	1.314291	-0.970596	-0.626635
C20	C	1.098064	-0.576559	-0.576600
C21	C	0.981282	-0.576582	-0.576620
C22	C	1.379915	-1.015031	-0.568834
C23	C	1.362413	-1.137053	-0.584346
C24	C	0.942197	-0.729831	-0.729491
C25	C	0.867792	-0.806464	-0.805930
C26	C	0.758067	-0.806479	-0.805945
C27	C	0.722746	-0.729850	-0.729514
C28	C	0.797151	-0.653216	-0.653074
C29	C	0.906876	-0.653212	-0.653066
C30	C	0.836235	-0.499965	-0.500210
C31	C	0.945961	-0.499953	-0.500189
C32	C	0.800914	-0.423336	-0.423779
C33	C	0.875320	-0.346705	-0.347333
C34	C	0.985051	-0.346694	-0.347321
C35	C	1.020366	-0.423319	-0.423749
C36	C	1.645056	-0.576591	-0.576641
C37	C	1.761830	-0.576598	-0.576650
C38	C	1.331225	-0.611662	-0.853635
C39	C	1.314264	-0.626614	-0.971682
C40	C	1.411008	-0.299540	-0.541502
C41	C	1.428045	-0.181485	-0.526537
C42	C	1.379868	-0.568733	-1.016133
C43	C	1.362340	-0.584185	-1.138141
C44	C	1.410745	-0.541548	-0.300673
C45	C	1.427953	-0.526296	-0.182589
H46	H	1.449059	-0.962740	-0.507867
C47	C	1.220882	-1.041238	-0.709003
N48	N	1.150523	-1.094444	-0.771043
H49	H	0.896563	-0.868852	-0.868160
H50	H	1.449008	-0.507736	-0.963863
H51	H	1.245115	-0.687600	-1.023951
H52	H	0.846551	-0.284316	-0.285113
H53	H	1.293271	-1.189344	-0.645325
C54	C	0.680213	-0.423345	-0.423806
N55	N	0.589299	-0.423350	-0.423826
C56	C	1.062896	-0.729823	-0.729481
N57	N	1.153808	-0.729816	-0.729478
H58	H	1.497194	-1.129196	-0.465567
H59	H	1.045627	-0.284284	-0.285081
H60	H	0.697485	-0.868875	-0.868193
C61	C	0.602044	-0.729856	-0.729549
N62	N	0.511130	-0.729857	-0.729578
H63	H	1.293186	-0.645176	-1.190406
H64	H	1.109708	-0.423321	-0.423744
H65	H	1.497096	-0.465292	-1.130323
