data_functionalizedCrystal
_audit_creation_method	'MofGen! by Chris Wilmer'
_symmetry_space_group_name_H-M	'P1'
_symmetry_Int_Tables_number	1
_symmetry_cell_setting	triclinic
loop_
_symmetry_equiv_pos_as_xyz
  x,y,z
_cell_length_a	27.732048
_cell_length_b	15.944545
_cell_length_c	26.210047
_cell_angle_alpha	90.009984
_cell_angle_beta	90.000479
_cell_angle_gamma	83.069413
loop_
_atom_site_label
_atom_site_type_symbol
_atom_site_fract_x
_atom_site_fract_y
_atom_site_fract_z
O1	O	0.062319	1.113719	0.042446
O2	O	0.070008	0.869068	0.042445
O3	O	-0.004200	0.998992	0.042436
O4	O	0.136527	0.983796	0.042455
O5	O	-0.004189	0.998967	-0.042422
O6	O	0.070020	0.869043	-0.042413
O7	O	0.062331	1.113694	-0.042412
Cu8	Cu	0.066176	0.991367	-0.050161
Cu9	Cu	0.066162	0.991396	0.050194
O10	O	0.136539	0.983770	-0.042403
C11	C	0.069695	0.837766	0.000016
C12	C	0.068740	0.744532	0.000015
C13	C	-0.022203	0.998661	0.000005
C14	C	-0.075862	0.997700	0.000001
C15	C	0.062643	1.144997	0.000018
C16	C	0.063599	1.238231	0.000022
C17	C	-0.414372	1.068429	0.000027
C18	C	-0.616047	1.064865	0.000035
O19	O	-0.647023	1.129542	0.000057
N20	N	-0.635503	0.987826	0.000034
C21	C	-0.604537	0.911672	0.000035
O22	O	-0.625714	0.846064	0.000040
C23	C	-0.402863	0.915237	0.000031
C24	C	-0.383410	0.992281	0.000027
C25	C	-0.394918	1.145468	0.000024
C26	C	-0.344502	1.146358	0.000019
C27	C	-0.313540	1.070210	0.000018
C28	C	-0.332994	0.993172	0.000022
C29	C	-0.371898	0.839084	0.000036
C30	C	-0.321477	0.839982	0.000036
C31	C	-0.302024	0.917026	0.000032
C32	C	-0.251616	0.917914	0.000017
N33	N	-0.232160	0.994953	0.000018
C34	C	-0.263122	1.071101	0.000018
C35	C	-0.710419	0.909806	0.000036
C36	C	-0.760838	0.908915	0.000036
C37	C	-0.772344	1.062108	0.000036
C38	C	-0.721924	1.062999	0.000033
C39	C	-0.690963	0.986845	0.000036
C40	C	-0.157245	1.072965	0.000008
C41	C	-0.106824	1.073848	0.000002
C42	C	-0.095322	0.920655	0.000004
C43	C	-0.145739	0.919771	0.000008
C44	C	-0.176699	0.995933	0.000012
O45	O	-0.220611	0.853271	0.000000
O46	O	-0.241936	1.136700	0.000025
C47	C	-0.464787	1.067539	0.000032
C48	C	-0.484241	0.990501	0.000036
C49	C	-0.453279	0.914353	0.000035
C50	C	-0.534660	0.989610	0.000036
C51	C	-0.565621	1.065758	0.000037
C52	C	-0.546165	1.142797	0.000037
C53	C	-0.495749	1.143687	0.000033
C54	C	-0.472736	0.837314	0.000035
C55	C	-0.523152	0.836430	0.000039
C56	C	-0.554114	0.912578	0.000039
C57	C	0.154542	0.984102	0.000029
C58	C	0.208201	0.985063	0.000036
N59	N	0.066185	0.991352	-0.120745
C60	C	0.112451	1.508224	0.000026
C61	C	0.088904	1.457942	-0.041819
C62	C	0.067006	1.573830	0.000017
C63	C	0.088881	1.457979	0.041845
C64	C	0.065334	1.408938	0.000020
C65	C	0.043471	1.524776	-0.041862
C66	C	0.043454	1.524816	0.041839
C67	C	0.019874	1.474567	-0.000016
C68	C	0.067970	1.668819	0.000014
C69	C	0.064367	1.313951	0.000019
C70	C	0.033310	1.048921	-0.473263
C71	C	0.033304	1.048939	-0.686922
O72	O	0.005354	1.097854	-0.714547
N73	N	0.066152	0.991401	-0.713639
C74	C	0.099002	0.933850	-0.686938
O75	O	0.126938	0.884905	-0.714565
C76	C	0.099006	0.933828	-0.473280
C77	C	0.066159	0.991376	-0.446566
C78	C	0.000466	1.106463	-0.446549
C79	C	0.000469	1.106461	-0.393137
C80	C	0.033318	1.048916	-0.366440
C81	C	0.066163	0.991374	-0.393154
C82	C	0.131853	0.876274	-0.446581
C83	C	0.131851	0.876272	-0.393163
C84	C	0.099004	0.933820	-0.366448
C85	C	0.099015	0.933827	-0.313046
N86	N	0.066167	0.991365	-0.286329
C87	C	0.033318	1.048910	-0.313026
C88	C	0.098998	0.933867	-0.799111
C89	C	0.098998	0.933873	-0.852525
C90	C	0.033299	1.048961	-0.852505
C91	C	0.033302	1.048958	-0.799090
C92	C	0.066150	0.991405	-0.772394
C93	C	0.033329	1.048901	-0.200858
C94	C	0.033337	1.048896	-0.147442
C95	C	0.099034	0.933806	-0.147467
C96	C	0.099028	0.933813	-0.200878
C97	C	0.066171	0.991364	-0.227572
O98	O	0.126946	0.884932	-0.285388
O99	O	0.005379	1.097835	-0.285390
C100	C	0.033307	1.048923	-0.526674
C101	C	0.066151	0.991380	-0.553389
C102	C	0.099000	0.933836	-0.526692
C103	C	0.066151	0.991387	-0.606803
C104	C	0.033303	1.048931	-0.633500
C105	C	0.000454	1.106469	-0.606783
C106	C	0.000458	1.106467	-0.553371
C107	C	0.131848	0.876297	-0.553409
C108	C	0.131842	0.876305	-0.606820
C109	C	0.098993	0.933849	-0.633517
N110	N	0.066149	0.991418	0.120778
H111	H	-0.090988	1.136590	-0.000003
C112	C	0.165323	1.528688	-0.000022
N113	N	0.205145	1.544104	-0.000061
H114	H	-0.571383	1.204799	0.000036
H115	H	0.024271	1.554015	0.077210
C116	C	-0.782230	0.824160	0.000034
N117	N	-0.798341	0.760319	0.000036
H118	H	-0.685214	0.847789	0.000038
C119	C	0.114812	1.418587	0.089634
N120	N	0.134346	1.388921	0.125628
H121	H	-0.019295	1.459588	-0.000046
C122	C	-0.393285	0.754328	0.000044
N123	N	-0.409393	0.690484	0.000052
H124	H	0.108102	1.428752	-0.077189
H125	H	-0.538986	0.773686	0.000038
C126	C	0.017571	1.564021	-0.089707
N127	N	-0.001934	1.593582	-0.125744
C128	C	-0.035680	1.169770	-0.523993
N129	N	-0.062902	1.217450	-0.501868
H130	H	0.006589	1.095762	-0.125693
H131	H	0.006574	1.095764	-0.222587
H132	H	-0.026279	1.153319	-0.371389
C133	C	-0.002835	1.112259	-0.769709
N134	N	-0.030057	1.159938	-0.747582
H135	H	-0.296270	0.777967	0.000040
C136	C	-0.002837	1.112256	-0.881882
N137	N	-0.030057	1.159923	-0.904011
C138	C	0.135135	0.870572	-0.881905
N139	N	0.162353	0.822887	-0.904032
H140	H	0.125780	0.886961	-0.222629
H141	H	0.125780	0.886956	-0.125722
H142	H	-0.420122	1.207480	0.000026
C143	C	0.135173	0.870613	-0.769752
N144	N	0.162434	0.822993	-0.747641
C145	C	0.168020	0.813049	-0.524050
N146	N	0.195281	0.765430	-0.501938
C147	C	-0.167138	0.835019	0.000009
N148	N	-0.183252	0.771182	0.000016
C149	C	-0.700531	1.147753	0.000032
N150	N	-0.684420	1.211593	0.000034
C151	C	0.167992	0.812966	-0.363800
N152	N	0.195217	0.765288	-0.341686
C153	C	-0.061255	0.836896	0.000007
N154	N	-0.035594	0.773809	0.000014
C155	C	-0.035680	1.169767	-0.636160
N156	N	-0.062897	1.217436	-0.658289
H157	H	0.158600	0.829413	-0.468324
H158	H	-0.026286	1.153323	-0.468281
C159	C	0.167978	0.812992	-0.636200
N160	N	0.195192	0.765301	-0.658327
H161	H	-0.182447	1.134983	0.000014
C162	C	-0.474358	1.228443	0.000031
N163	N	-0.458249	1.292285	0.000031
C164	C	-0.806411	1.145872	0.000041
N165	N	-0.832073	1.208959	0.000049
C166	C	-0.323110	1.231113	0.000020
N167	N	-0.307002	1.294956	0.000022
H168	H	-0.447531	0.775303	0.000035
