data_functionalizedCrystal
_audit_creation_method	'MofGen! by Chris Wilmer'
_symmetry_space_group_name_H-M	'P1'
_symmetry_Int_Tables_number	1
_symmetry_cell_setting	triclinic
loop_
_symmetry_equiv_pos_as_xyz
  x,y,z
_cell_length_a	12.784890
_cell_length_b	17.019294
_cell_length_c	11.295483
_cell_angle_alpha	90.223525
_cell_angle_beta	86.328828
_cell_angle_gamma	78.262590
loop_
_atom_site_label
_atom_site_type_symbol
_atom_site_fract_x
_atom_site_fract_y
_atom_site_fract_z
O1	O	1.417470	-0.000861	-0.098900
O2	O	1.108213	0.032724	-0.102354
O3	O	1.270624	-0.098804	-0.088856
O4	O	1.255060	0.130667	-0.112398
O5	O	1.256359	-0.087268	0.108011
O6	O	1.093948	0.044260	0.094513
O7	O	1.403205	0.010675	0.097967
Cu8	Cu	1.247274	0.028521	0.114216
Cu9	Cu	1.264144	0.014878	-0.118602
O10	O	1.240795	0.142203	0.084469
C11	C	1.061494	0.040676	-0.004145
C12	C	0.943539	0.047176	-0.004815
C13	C	0.765043	0.128632	-0.013174
C14	C	0.875872	0.122530	-0.012548
C15	C	0.900370	-0.022082	0.002288
C16	C	0.789541	-0.015981	0.001662
C17	C	0.721881	0.059379	-0.006067
C18	C	0.611049	0.065481	-0.006685
C19	C	0.635549	-0.079132	0.008142
C20	C	0.746378	-0.085233	0.008768
C21	C	1.262620	-0.122205	0.012568
C22	C	1.260011	-0.209118	0.021477
C23	C	1.266563	-0.256234	-0.081649
C24	C	1.264104	-0.337898	-0.073275
C25	C	1.255101	-0.372444	0.038227
C26	C	1.248545	-0.325321	0.141360
C27	C	1.250996	-0.243659	0.132985
C28	C	1.247304	-0.618698	0.068884
C29	C	1.244856	-0.700367	0.077253
C30	C	1.260414	-0.712938	-0.137384
C31	C	1.262871	-0.631274	-0.145750
C32	C	1.256309	-0.584157	-0.042616
C33	C	1.252591	-0.455918	0.046789
C34	C	1.258812	-0.500684	-0.051180
C35	C	1.449924	0.002722	-0.000244
C36	C	1.567880	-0.003777	0.000419
C37	C	1.248799	0.165603	-0.016957
C38	C	1.251409	0.252517	-0.025873
N39	N	1.235417	0.038115	0.277967
N40	N	1.276010	0.005277	-0.282353
C41	C	1.361368	-0.063834	0.537719
C42	C	1.352415	-0.056578	0.661638
C43	C	1.208552	0.059879	0.649727
C44	C	1.217505	0.052623	0.525808
C45	C	1.293917	-0.009235	0.469809
C46	C	1.302875	-0.016487	0.345887
C47	C	1.159008	0.099967	0.333979
C48	C	1.150054	0.107222	0.457898
H49	H	0.801482	-0.146589	0.015057
H50	H	0.600403	-0.135528	0.013835
H51	H	1.146332	0.110237	0.695339
O52	O	1.242885	-0.493185	0.167048
H53	H	1.238737	-0.446706	0.237360
O54	O	0.538068	0.146758	-0.015012
H55	H	0.492790	0.148294	-0.095884
O56	O	1.276265	-0.218972	-0.201913
H57	H	1.280395	-0.265456	-0.272215
H58	H	1.269444	-0.376257	-0.157251
H59	H	1.365096	-0.066852	0.300293
H60	H	1.423593	-0.114196	0.492123
O61	O	1.425176	-0.115458	0.734890
H62	H	1.479818	-0.159683	0.675126
O63	O	1.067648	0.173943	0.518297
H64	H	1.072758	0.169821	0.615875
O65	O	1.086242	0.158859	0.260736
H66	H	1.105297	0.143420	0.165158
H67	H	1.270204	-0.603152	-0.236546
H68	H	1.241982	-0.580348	0.152864
H69	H	1.265754	-0.751308	-0.221349
H70	H	0.709952	0.189994	-0.019453
H71	H	0.955478	-0.083437	0.008572
O72	O	0.922423	0.197227	-0.020194
H73	H	0.901083	0.228376	-0.104103
O74	O	1.235133	-0.737632	0.197520
H75	H	1.230970	-0.691148	0.267829
O76	O	1.238852	-0.362588	0.261621
H77	H	1.165046	-0.387580	0.269350
H78	H	1.245645	-0.205295	0.216961
H79	H	1.266135	-0.472551	-0.141964
