data_functionalizedCrystal
_audit_creation_method	'MofGen! by Chris Wilmer'
_symmetry_space_group_name_H-M	'P1'
_symmetry_Int_Tables_number	1
_symmetry_cell_setting	triclinic
loop_
_symmetry_equiv_pos_as_xyz
  x,y,z
_cell_length_a	13.897449
_cell_length_b	15.297510
_cell_length_c	13.897431
_cell_angle_alpha	80.393127
_cell_angle_beta	89.950255
_cell_angle_gamma	80.290206
loop_
_atom_site_label
_atom_site_type_symbol
_atom_site_fract_x
_atom_site_fract_y
_atom_site_fract_z
Zn1	Zn	1.408580	0.358652	-0.611717
Zn2	Zn	1.380441	0.509632	-0.478343
Zn3	Zn	1.247158	0.358814	-0.450465
Zn4	Zn	1.219332	0.509454	-0.639563
O5	O	1.313878	0.434138	-0.545022
O6	O	1.539828	0.378686	-0.594038
O7	O	1.362629	0.489768	-0.339689
O8	O	1.291992	0.232563	-0.448535
O9	O	1.519154	0.489611	-0.496048
O10	O	1.410589	0.232444	-0.567006
O11	O	1.264706	0.378963	-0.319207
O12	O	1.108486	0.378790	-0.475536
O13	O	1.244568	0.489307	-0.770824
O14	O	1.088043	0.489464	-0.614465
O15	O	1.383608	0.378513	-0.750366
O16	O	1.335648	0.635838	-0.523049
O17	O	1.217282	0.635707	-0.641497
C18	C	1.270419	0.668502	-0.588341
C19	C	1.251915	0.768764	-0.606905
C20	C	1.063266	0.434126	-0.544998
C21	C	0.956049	0.434142	-0.545014
C22	C	1.446477	1.051533	-0.412724
C23	C	1.463861	0.957332	-0.395277
C24	C	1.410876	0.910185	-0.448183
C25	C	1.340503	0.957249	-0.518538
C26	C	1.323112	1.051459	-0.535982
C27	C	1.287511	0.910111	-0.571440
C28	C	1.217138	0.957175	-0.641795
C29	C	1.199750	1.051376	-0.659236
C30	C	1.252735	1.098523	-0.606331
C31	C	1.304903	0.815901	-0.553997
C32	C	1.181538	0.815827	-0.677254
C33	C	1.164154	0.910028	-0.694701
C34	C	0.759753	0.434146	-0.545040
C35	C	0.868986	0.434141	-0.545022
C36	C	1.565468	0.434151	-0.545047
C37	C	1.672681	0.434156	-0.545057
C38	C	1.314123	0.433872	-0.796566
C39	C	1.314227	0.433759	-0.903759
C40	C	1.357524	1.198859	-0.501565
C41	C	1.376100	1.098597	-0.483073
C42	C	1.313701	0.434338	-0.294444
C43	C	1.313831	0.434197	-0.187204
C44	C	1.313954	0.434068	-0.100111
C45	C	1.314108	0.433899	0.009152
H46	H	1.362201	0.777590	-0.496713
H47	H	1.138392	0.777441	-0.720333
H48	H	1.238586	1.175229	-0.620534
H49	H	1.106855	0.948361	-0.751985
N50	N	1.428642	0.813962	-0.430349
N51	N	1.491477	0.771952	-0.367532
H52	H	1.504030	0.703990	-0.354935
N53	N	1.535739	0.909275	-0.323410
N54	N	1.583040	0.951376	-0.276178
H55	H	1.633809	0.917436	-0.225418
H56	H	1.142436	1.089693	-0.716513
H57	H	1.489603	1.089928	-0.369650
