data_functionalizedCrystal
_audit_creation_method	'MofGen! by Chris Wilmer'
_symmetry_space_group_name_H-M	'P1'
_symmetry_Int_Tables_number	1
_symmetry_cell_setting	triclinic
loop_
_symmetry_equiv_pos_as_xyz
  x,y,z
_cell_length_a	8.597187
_cell_length_b	8.559649
_cell_length_c	16.053802
_cell_angle_alpha	92.204030
_cell_angle_beta	79.682816
_cell_angle_gamma	77.625088
loop_
_atom_site_label
_atom_site_type_symbol
_atom_site_fract_x
_atom_site_fract_y
_atom_site_fract_z
O1	O	2.077165	0.217220	-0.218843
O2	O	1.614466	0.238646	-0.185560
O3	O	1.886580	-0.004316	-0.205133
O4	O	1.805052	0.460182	-0.199270
O5	O	1.871609	0.009002	-0.065197
O6	O	1.599495	0.251964	-0.045625
O7	O	2.062194	0.230538	-0.078907
Zn8	Zn	1.828468	0.243365	-0.040048
Zn9	Zn	1.848193	0.225819	-0.224419
O10	O	1.790081	0.473500	-0.059335
C11	C	1.548294	0.243746	-0.111371
C12	C	1.373426	0.239079	-0.098793
C13	C	1.885273	-0.057133	-0.135611
C14	C	1.903664	-0.234355	-0.136939
C15	C	2.128367	0.225438	-0.153098
C16	C	2.303235	0.230104	-0.165682
C17	C	1.791388	0.526317	-0.128858
C18	C	1.772997	0.703538	-0.127536
N19	N	1.815018	0.255340	0.085780
N20	N	1.861657	0.213832	-0.350248
C21	C	1.930835	0.151996	0.121143
C22	C	1.921440	0.160388	0.209226
C23	C	1.796231	0.272131	0.261943
C24	C	1.680402	0.375479	0.226574
C25	C	1.689792	0.367079	0.138494
C26	C	1.755218	0.308779	0.526302
C27	C	1.745839	0.317175	0.614388
C28	C	1.986876	0.102081	0.597034
C29	C	1.996261	0.093697	0.508952
C30	C	1.880427	0.197039	0.473591
N31	N	1.786627	0.280715	0.351977
N32	N	1.890026	0.188447	0.383559
H33	H	1.376928	0.225992	-0.232570
N34	N	1.564881	0.478553	0.100350
H35	H	1.589825	0.456274	0.036553
H36	H	1.453503	0.460544	0.123656
H37	H	1.299738	0.243209	-0.031909
N38	N	2.111796	-0.009389	0.635172
H39	H	2.223227	0.008571	0.611930
H40	H	2.086711	0.012938	0.698965
N41	N	1.606166	-0.187319	-0.115524
H42	H	1.616233	-0.071943	-0.116249
H43	H	1.550867	-0.213509	-0.163018
N44	N	2.070501	-0.343503	-0.148926
H45	H	2.060438	-0.458880	-0.148195
H46	H	2.136891	-0.327193	-0.205179
H47	H	2.032799	0.061010	0.078225
N48	N	2.131319	-0.026822	0.452099
H49	H	2.197694	0.031354	0.411056
H50	H	2.203145	-0.090973	0.487935
H51	H	2.015747	0.076237	0.238018
N52	N	1.610801	0.437719	0.671250
H53	H	1.538846	0.501915	0.635485
H54	H	1.544546	0.379459	0.712301
H55	H	1.660904	0.392928	0.497519
N56	N	1.545344	0.495994	0.283429
H57	H	1.556969	0.485639	0.344595
H58	H	1.551466	0.607930	0.267700
