data_functionalizedCrystal
_audit_creation_method	'MofGen! by Chris Wilmer'
_symmetry_space_group_name_H-M	'P1'
_symmetry_Int_Tables_number	1
_symmetry_cell_setting	triclinic
loop_
_symmetry_equiv_pos_as_xyz
  x,y,z
_cell_length_a	19.805407
_cell_length_b	13.897448
_cell_length_c	19.805399
_cell_angle_alpha	89.974981
_cell_angle_beta	89.980427
_cell_angle_gamma	90.017692
loop_
_atom_site_label
_atom_site_type_symbol
_atom_site_fract_x
_atom_site_fract_y
_atom_site_fract_z
Zn1	Zn	1.034777	-0.384037	-0.382732
Zn2	Zn	1.534777	0.115963	0.117268
Zn3	Zn	1.034709	-0.545343	-0.269549
Zn4	Zn	1.534709	-0.045343	0.230451
Zn5	Zn	0.921591	-0.384064	-0.269556
Zn6	Zn	1.421591	0.115936	0.230444
Zn7	Zn	0.921572	-0.545292	-0.382695
Zn8	Zn	1.421572	-0.045292	0.117305
O9	O	0.978162	-0.464684	-0.326133
O10	O	1.478162	0.035316	0.173867
O11	O	1.129484	-0.405445	-0.367730
O12	O	1.629484	0.094555	0.132270
O13	O	1.019683	-0.523982	-0.174833
O14	O	1.519683	-0.023982	0.325167
O15	O	0.936642	-0.249079	-0.284588
O16	O	1.436642	0.250921	0.215412
O17	O	1.129434	-0.523956	-0.284575
O18	O	1.629434	-0.023956	0.215425
O19	O	1.019799	-0.249059	-0.367737
O20	O	1.519799	0.250941	0.132263
O21	O	0.936576	-0.405490	-0.174839
O22	O	1.436576	0.094510	0.325161
O23	O	0.826872	-0.405441	-0.284552
O24	O	1.326872	0.094559	0.215448
O25	O	0.936609	-0.523869	-0.477417
O26	O	1.436609	-0.023869	0.022583
O27	O	0.826858	-0.523894	-0.367675
O28	O	1.326858	-0.023894	0.132325
O29	O	1.019780	-0.405395	-0.477443
O30	O	1.519780	0.094605	0.022557
O31	O	1.019664	-0.680318	-0.284539
O32	O	1.519664	-0.180318	0.215461
O33	O	0.936543	-0.680280	-0.367668
O34	O	1.436543	-0.180280	0.132332
C35	C	0.802306	-0.464666	-0.326111
C36	C	1.302306	0.035334	0.173889
C37	C	0.727074	-0.464681	-0.326118
C38	C	1.227074	0.035319	0.173882
C39	C	0.691740	-0.526453	-0.369330
C40	C	1.191740	-0.026453	0.130670
C41	C	0.621052	-0.526454	-0.369339
C42	C	1.121052	-0.026454	0.130661
C43	C	0.585699	-0.464688	-0.326133
C44	C	1.085699	0.035312	0.173867
C45	C	0.621037	-0.402910	-0.282919
C46	C	1.121037	0.097090	0.217081
C47	C	0.691725	-0.402904	-0.282913
C48	C	1.191725	0.097096	0.217087
C49	C	0.335964	-0.402931	-0.282941
C50	C	0.835964	0.097069	0.217059
C51	C	0.265272	-0.402944	-0.282949
C52	C	0.765272	0.097056	0.217051
C53	C	0.265292	-0.526481	-0.369367
C54	C	0.765292	-0.026481	0.130633
C55	C	0.335979	-0.526476	-0.369362
C56	C	0.835979	-0.026476	0.130638
C57	C	0.371311	-0.464694	-0.326151
C58	C	0.871311	0.035306	0.173849
C59	C	0.447960	-0.464692	-0.326142
C60	C	0.947960	0.035308	0.173858
C61	C	0.509051	-0.464695	-0.326138
C62	C	1.009051	0.035305	0.173862
C63	C	0.978113	-0.715298	-0.326113
C64	C	1.478113	-0.215298	0.173887
C65	C	0.978154	-0.822512	-0.326128
C66	C	1.478154	-0.322512	0.173872
C67	C	0.978225	-1.018807	-0.326170
C68	C	1.478225	-0.518807	0.173830
C69	C	0.978183	-0.909575	-0.326149
C70	C	1.478183	-0.409575	0.173851
C71	C	1.154705	-0.464703	-0.326155
C72	C	1.654705	0.035297	0.173845
C73	C	1.229937	-0.464711	-0.326165
C74	C	1.729937	0.035289	0.173835
C75	C	0.978200	-0.464623	-0.502676
C76	C	1.478200	0.035377	-0.002676
C77	C	0.978216	-0.464597	-0.577908
C78	C	1.478216	0.035403	-0.077908
C79	C	0.978230	-0.213091	-0.326167
C80	C	1.478230	0.286909	0.173833
C81	C	0.978259	-0.105877	-0.326182
C82	C	1.478259	0.394123	0.173818
C83	C	1.021524	-0.402905	-0.613267
C84	C	1.521524	0.097095	-0.113267
C85	C	1.021531	-0.402877	-0.683955
C86	C	1.521531	0.097123	-0.183955
C87	C	0.978233	-0.464547	-0.719283
C88	C	1.478233	0.035453	-0.219283
C89	C	0.934920	-0.526242	-0.683919
C90	C	1.434920	-0.026242	-0.183919
C91	C	0.934910	-0.526264	-0.613232
C92	C	1.434910	-0.026264	-0.113232
C93	C	0.934958	-0.526152	-0.968993
C94	C	1.434958	-0.026152	-0.468993
C95	C	0.934973	-0.526127	-1.039685
C96	C	1.434973	-0.026127	-0.539685
C97	C	1.021579	-0.402765	-1.039716
C98	C	1.521579	0.097235	-0.539716
C99	C	1.021570	-0.402787	-0.969029
C100	C	1.521570	0.097213	-0.469029
C101	C	0.978255	-0.464478	-0.933671
C102	C	1.478255	0.035522	-0.433671
C103	C	0.978247	-0.464507	-0.857022
C104	C	1.478247	0.035493	-0.357022
C105	C	0.978244	-0.464524	-0.795931
C106	C	1.478244	0.035476	-0.295931
C107	C	0.978163	-0.464675	-0.150277
C108	C	1.478163	0.035325	0.349723
C109	C	0.978278	-0.464429	-0.075045
C110	C	1.478278	0.035571	0.424955
H111	H	0.236489	-0.352641	-0.247765
H112	H	0.736489	0.147359	0.252235
H113	H	0.592286	-0.576756	-0.404526
H114	H	1.092286	-0.076756	0.095474
N115	N	0.374065	-0.336312	-0.236326
N116	N	0.874065	0.163688	0.263674
H117	H	0.424210	-0.345674	-0.242876
H118	H	0.924210	0.154326	0.257124
H119	H	0.361724	-0.267443	-0.246943
H120	H	0.861724	0.232557	0.253057
N121	N	0.729864	-0.593077	-0.415932
N122	N	1.229864	-0.093077	0.084068
H123	H	0.759214	-0.553936	-0.447344
H124	H	1.259214	-0.053936	0.052656
H125	H	0.759132	-0.637712	-0.388320
H126	H	1.259132	-0.137712	0.111680
H127	H	1.056830	-0.352573	-0.940268
H128	H	1.556830	0.147427	-0.440268
H129	H	0.592247	-0.352615	-0.247743
H130	H	1.092247	0.147385	0.252257
N131	N	0.374105	-0.593101	-0.415961
N132	N	0.874105	-0.093101	0.084039
H133	H	0.361827	-0.578210	-0.464341
H134	H	0.861827	-0.078210	0.035659
H135	H	0.424234	-0.583697	-0.409344
H136	H	0.924234	-0.083697	0.090656
N137	N	0.729838	-0.336273	-0.236311
N138	N	1.229838	0.163727	0.263689
H139	H	0.696717	-0.297145	-0.208941
H140	H	1.196717	0.202855	0.291059
H141	H	0.759150	-0.375470	-0.204937
H142	H	1.259150	0.124530	0.295063
H143	H	0.236515	-0.576783	-0.404554
H144	H	0.736515	-0.076783	0.095446
N145	N	1.068230	-0.336396	-0.575166
N146	N	1.568230	0.163604	-0.075166
H147	H	1.095665	-0.297309	-0.608295
H148	H	1.595665	0.202691	-0.108295
H149	H	1.040687	-0.291763	-0.545837
H150	H	1.540687	0.208237	-0.045837
N151	N	1.068298	-0.336222	-1.077852
N152	N	1.568298	0.163778	-0.577852
H153	H	1.061735	-0.345559	-1.127993
H154	H	1.561735	0.154441	-0.627993
H155	H	1.057783	-0.267335	-1.065502
H156	H	1.557783	0.232665	-0.565502
N157	N	1.068229	-0.336320	-0.722094
N158	N	1.568229	0.163680	-0.222094
H159	H	1.095655	-0.297254	-0.688987
H160	H	1.595655	0.202746	-0.188987
H161	H	1.099547	-0.375561	-0.751432
H162	H	1.599547	0.124439	-0.251432
H163	H	0.899699	-0.576398	-0.940213
H164	H	1.399699	-0.076398	-0.440213
N165	N	0.888271	-0.592645	-1.077791
N166	N	1.388271	-0.092645	-0.577791
H167	H	0.860828	-0.631728	-1.044667
H168	H	1.360828	-0.131728	-0.544667
H169	H	0.856968	-0.553363	-1.107122
H170	H	1.356968	-0.053363	-0.607122
N171	N	0.888204	-0.592737	-0.722019
N172	N	1.388204	-0.092737	-0.222019
H173	H	0.894778	-0.583359	-0.772165
H174	H	1.394778	-0.083359	-0.272165
H175	H	0.898705	-0.661638	-0.709660
H176	H	1.398705	-0.161638	-0.209660
N177	N	0.888194	-0.592794	-0.575091
N178	N	1.388194	-0.092794	-0.075091
H179	H	0.860765	-0.631858	-0.608196
H180	H	1.360765	-0.131858	-0.108196
H181	H	0.915723	-0.637448	-0.545757
H182	H	1.415723	-0.137448	-0.045757
