data_functionalizedCrystal
_audit_creation_method	'MofGen! by Chris Wilmer'
_symmetry_space_group_name_H-M	'P1'
_symmetry_Int_Tables_number	1
_symmetry_cell_setting	triclinic
loop_
_symmetry_equiv_pos_as_xyz
  x,y,z
_cell_length_a	16.959455
_cell_length_b	12.759394
_cell_length_c	12.759387
_cell_angle_alpha	89.968340
_cell_angle_beta	89.978228
_cell_angle_gamma	90.011784
loop_
_atom_site_label
_atom_site_type_symbol
_atom_site_fract_x
_atom_site_fract_y
_atom_site_fract_z
Zn1	Zn	1.208471	-0.418297	-0.594034
Zn2	Zn	1.208388	-0.594014	-0.418352
Zn3	Zn	1.076282	-0.418340	-0.418367
Zn4	Zn	1.076276	-0.593925	-0.593987
O5	O	1.142354	-0.506144	-0.506185
O6	O	1.319071	-0.441625	-0.570743
O7	O	1.190832	-0.570765	-0.271333
O8	O	1.093854	-0.271313	-0.441696
O9	O	1.319010	-0.570723	-0.441670
O10	O	1.190973	-0.271281	-0.570758
O11	O	1.093774	-0.441699	-0.271344
O12	O	0.965670	-0.441613	-0.441650
O13	O	1.093844	-0.570572	-0.741015
O14	O	0.965666	-0.570614	-0.570677
O15	O	1.190967	-0.441539	-0.741049
O16	O	1.190826	-0.741023	-0.441624
O17	O	1.093764	-0.740958	-0.570663
C18	C	1.142307	-0.779111	-0.506160
C19	C	1.142359	-0.895888	-0.506184
C20	C	0.936988	-0.506109	-0.506161
C21	C	0.849131	-0.506120	-0.506176
C22	C	1.243505	-0.895903	-0.371917
C23	C	1.294099	-0.950771	-0.304796
C24	C	1.294146	-1.060492	-0.304824
C25	C	1.243594	-1.115348	-0.371983
C26	C	1.193000	-1.060480	-0.439105
C27	C	1.192958	-0.950756	-0.439067
C28	C	1.091859	-1.060466	-0.573375
C29	C	1.091807	-0.950744	-0.573343
C30	C	1.041307	-1.115322	-0.640535
C31	C	0.990708	-1.060453	-0.707652
C32	C	0.990663	-0.950725	-0.707620
C33	C	1.041213	-0.895876	-0.640464
C34	C	0.477634	-0.438918	-0.439141
C35	C	0.477678	-0.573456	-0.573289
C36	C	0.560224	-0.573441	-0.573283
C37	C	0.601478	-0.506164	-0.506203
C38	C	0.560187	-0.438903	-0.439130
C39	C	0.601521	-0.640709	-0.640347
C40	C	0.684072	-0.640698	-0.640343
C41	C	0.725328	-0.573415	-0.573268
C42	C	0.684032	-0.506150	-0.506193
C43	C	0.725287	-0.438873	-0.439113
C44	C	0.683992	-0.371601	-0.372043
C45	C	0.601443	-0.371620	-0.372055
C46	C	0.807877	-0.573396	-0.573255
C47	C	0.807840	-0.438858	-0.439102
C48	C	1.348522	-0.506179	-0.506210
C49	C	1.436379	-0.506194	-0.506220
C50	C	1.142414	-0.506041	-0.780219
C51	C	1.142439	-0.505997	-0.896995
C52	C	1.142423	-0.232110	-0.506234
C53	C	1.142453	-0.115334	-0.506254
C54	C	1.243580	-0.371643	-0.897051
C55	C	1.294162	-0.304451	-0.951940
C56	C	1.294181	-0.304413	-1.061662
C57	C	1.243612	-0.371572	-1.116497
C58	C	1.193030	-0.438764	-1.061608
C59	C	1.193018	-0.438798	-0.951884
C60	C	1.091886	-0.573111	-1.061553
C61	C	1.091870	-0.573156	-0.951831
C62	C	1.041317	-0.640270	-1.116388
C63	C	0.990738	-0.707470	-1.061500
C64	C	0.990722	-0.707506	-0.951771
C65	C	1.041288	-0.640349	-0.896942
C66	C	1.142340	-0.506171	-0.233218
C67	C	1.142468	-0.505918	-0.116441
H68	H	1.243463	-0.806561	-0.371873
Cl69	Cl	0.927168	-0.791883	-1.130440
Cl70	Cl	1.357712	-0.220001	-0.882999
H71	H	1.041352	-1.204663	-0.640558
Cl72	Cl	1.041391	-0.757940	-0.640724
H73	H	0.949467	-0.906057	-0.762282
Cl74	Cl	1.357650	-0.881804	-0.220376
Cl75	Cl	0.927170	-1.129419	-0.792078
H76	H	0.949523	-0.762211	-0.907087
H77	H	1.243643	-1.204689	-0.372010
H78	H	0.841424	-0.384066	-0.384484
H79	H	1.335348	-1.105166	-0.250174
H80	H	0.444008	-0.384144	-0.384537
Cl81	Cl	0.735864	-0.287035	-0.287711
Cl82	Cl	1.243571	-0.371701	-0.759114
Cl83	Cl	1.243630	-0.371512	-1.254434
Cl84	Cl	0.549525	-0.287060	-0.287745
Cl85	Cl	0.425814	-0.658050	-0.657591
H86	H	0.567925	-0.695490	-0.694952
H87	H	0.717687	-0.695474	-0.694957
Cl88	Cl	1.357757	-0.219925	-1.130668
H89	H	0.841495	-0.628171	-0.627860
H90	H	1.041333	-0.640230	-1.205729
H91	H	1.041283	-0.640376	-0.807601
