data_functionalizedCrystal
_audit_creation_method	'MofGen! by Chris Wilmer'
_symmetry_space_group_name_H-M	'P1'
_symmetry_Int_Tables_number	1
_symmetry_cell_setting	triclinic
loop_
_symmetry_equiv_pos_as_xyz
  x,y,z
_cell_length_a	6.817900
_cell_length_b	17.982783
_cell_length_c	14.858572
_cell_angle_alpha	95.362850
_cell_angle_beta	104.524003
_cell_angle_gamma	102.448572
loop_
_atom_site_label
_atom_site_type_symbol
_atom_site_fract_x
_atom_site_fract_y
_atom_site_fract_z
V1	V	-4.033194	-0.105892	-0.290348
O2	O	-4.025835	0.004595	-0.284424
O3	O	-3.979617	-0.209492	-0.288744
O4	O	-3.989902	-0.104480	-0.416804
O5	O	-4.015479	-0.101144	-0.155477
V6	V	-4.516830	-0.092651	-0.274170
O7	O	-4.294202	-0.134938	-0.325836
O8	O	-4.706019	-0.063605	-0.238682
O9	O	-4.347200	0.010949	-0.275774
O10	O	-4.641586	-0.203138	-0.280094
O11	O	-4.651942	-0.097399	-0.409041
O12	O	-4.336916	-0.094063	-0.147713
C13	C	-3.823193	-0.234740	-0.284262
C14	C	-3.860709	-0.319436	-0.283794
C15	C	-3.835225	-0.348204	-0.198369
C16	C	-3.870495	-0.427785	-0.197933
C17	C	-3.931234	-0.478596	-0.282921
C18	C	-3.956725	-0.449823	-0.368353
C19	C	-3.921470	-0.370243	-0.368789
C20	C	-4.098909	-0.770758	-0.366596
C21	C	-4.134158	-0.850342	-0.366153
C22	C	-4.047935	-0.828300	-0.195739
C23	C	-4.012680	-0.748720	-0.196175
C24	C	-4.038184	-0.719954	-0.281607
C25	C	-3.999943	-0.633663	-0.282079
C26	C	-3.969460	-0.564885	-0.282449
C27	C	-3.836312	-0.100786	-0.447615
C28	C	-3.882165	-0.100317	-0.550996
C29	C	-4.049990	-0.098602	-0.929558
C30	C	-4.003288	-0.099079	-0.824230
C31	C	-3.966079	-0.099460	-0.740280
C32	C	-3.919374	-0.099936	-0.634946
C33	C	-4.166966	0.036193	-0.280253
C34	C	-4.108689	0.120888	-0.280727
C35	C	-4.153848	-0.097759	-0.116898
C36	C	-4.087233	-0.098225	-0.013516
H37	H	-4.027179	-0.851730	-0.126177
O38	O	-3.846155	-0.455766	-0.114978
C39	C	-4.037006	-0.504831	-0.114065
H40	H	-4.171749	-0.489684	-0.165663
H41	H	-4.036203	-0.567274	-0.135603
C42	C	-3.899055	-0.513141	0.049098
C43	C	-4.064550	-0.494533	-0.014269
H44	H	-3.916044	-0.506792	0.110657
H45	H	-3.770472	-0.480087	0.048483
H46	H	-3.898404	-0.565176	0.031138
H47	H	-4.065183	-0.442497	0.003685
H48	H	-4.193134	-0.527578	-0.013648
O49	O	-4.193260	-0.899597	-0.448803
C50	C	-4.208168	-0.857143	-0.524300
H51	H	-4.233646	-0.798534	-0.501251
H52	H	-4.057410	-0.848649	-0.546460
C53	C	-4.362396	-0.973396	-0.636282
C54	C	-4.393706	-0.901415	-0.607974
H55	H	-4.476836	-1.000706	-0.687898
H56	H	-4.352345	-1.001999	-0.585419
H57	H	-4.236757	-0.966308	-0.654742
H58	H	-4.519327	-0.908504	-0.589504
H59	H	-4.403782	-0.872814	-0.658837
O60	O	-3.946547	-0.342265	-0.451756
C61	C	-4.101724	-0.300570	-0.461516
H62	H	-4.208815	-0.320881	-0.416121
H63	H	-4.024308	-0.236463	-0.437955
C64	C	-4.099616	-0.289239	-0.621082
C65	C	-4.231158	-0.314191	-0.565333
H66	H	-4.179451	-0.297637	-0.685122
H67	H	-3.995064	-0.317327	-0.614506
H68	H	-4.035111	-0.235818	-0.601437
H69	H	-4.295639	-0.367612	-0.584971
H70	H	-4.335724	-0.286112	-0.571915
H71	H	-3.785751	-0.306838	-0.129161
O72	O	-4.124017	-0.742796	-0.449568
C73	C	-4.279209	-0.701107	-0.459335
H74	H	-4.386283	-0.721412	-0.413931
H75	H	-4.201806	-0.636998	-0.435790
C76	C	-4.277141	-0.689802	-0.618912
C77	C	-4.408662	-0.714746	-0.563151
H78	H	-4.356989	-0.698211	-0.682950
H79	H	-4.172579	-0.717886	-0.612331
H80	H	-4.212647	-0.636379	-0.599279
H81	H	-4.473133	-0.768169	-0.582776
H82	H	-4.513238	-0.686671	-0.569737
H83	H	-3.963213	-0.707353	-0.126969
H84	H	-4.006196	-0.491200	-0.437552
