data_functionalizedCrystal
_audit_creation_method	'MofGen! by Chris Wilmer'
_symmetry_space_group_name_H-M	'P1'
_symmetry_Int_Tables_number	1
_symmetry_cell_setting	triclinic
loop_
_symmetry_equiv_pos_as_xyz
  x,y,z
_cell_length_a	23.532407
_cell_length_b	14.853567
_cell_length_c	13.930277
_cell_angle_alpha	89.993450
_cell_angle_beta	89.990330
_cell_angle_gamma	83.241804
loop_
_atom_site_label
_atom_site_type_symbol
_atom_site_fract_x
_atom_site_fract_y
_atom_site_fract_z
O1	O	0.755739	0.109437	-0.079889
O2	O	0.589945	0.125272	-0.079880
O3	O	0.677271	-0.013923	-0.079873
O4	O	0.668414	0.248633	-0.079895
O5	O	0.677259	-0.013926	0.079788
O6	O	0.589933	0.125269	0.079782
O7	O	0.755727	0.109435	0.079773
Zn8	Zn	0.672828	0.117352	0.105127
Zn9	Zn	0.672844	0.117355	-0.105234
O10	O	0.668402	0.248630	0.079767
C11	C	0.568721	0.124868	-0.000047
C12	C	0.505499	0.123655	-0.000043
C13	C	0.776951	0.109839	-0.000062
C14	C	0.840174	0.111052	-0.000072
C15	C	0.668809	0.282216	-0.000067
C16	C	0.670012	0.382286	-0.000076
C17	C	1.238950	0.036283	-0.000032
C18	C	1.298355	0.037409	-0.000028
O19	O	1.334797	-0.031903	0.000012
N20	N	1.321343	0.120161	-0.000038
C21	C	1.284921	0.201791	-0.000042
O22	O	1.309929	0.272282	-0.000049
C23	C	1.225517	0.200664	-0.000039
C24	C	1.202534	0.117907	-0.000039
C25	C	1.215966	-0.046468	-0.000031
C26	C	1.156565	-0.047594	-0.000037
C27	C	1.120148	0.034031	-0.000044
C28	C	1.143133	0.116781	-0.000045
C29	C	1.189097	0.282294	-0.000036
C30	C	1.129690	0.281160	-0.000033
C31	C	1.106706	0.198403	-0.000033
C32	C	1.047315	0.197280	-0.000058
N33	N	1.024328	0.114528	-0.000049
C34	C	1.060744	0.032904	-0.000042
C35	C	1.409674	0.204152	-0.000046
C36	C	1.469077	0.205280	-0.000055
C37	C	1.482507	0.040897	-0.000040
C38	C	1.423103	0.039770	-0.000037
C39	C	1.386687	0.121400	-0.000036
C40	C	0.935997	0.030546	-0.000055
C41	C	0.876590	0.029427	-0.000065
C42	C	0.863166	0.193810	-0.000075
C43	C	0.922567	0.194929	-0.000070
C44	C	0.958982	0.113289	-0.000057
O45	O	1.010838	0.266555	-0.000094
O46	O	1.035729	-0.037575	-0.000022
C47	C	0.676864	-0.047509	-0.000042
C48	C	0.675661	-0.147580	-0.000039
N49	N	0.672822	0.117348	0.248693
C50	C	0.726969	0.794197	-0.000045
C51	C	0.623224	0.816613	-0.000040
C52	C	0.622093	0.722592	-0.000049
C53	C	0.673401	0.664369	-0.000054
C54	C	0.725840	0.700167	-0.000051
C55	C	0.569655	0.686786	-0.000043
C56	C	0.568522	0.592759	-0.000051
C57	C	0.619831	0.534535	-0.000063
C58	C	0.672272	0.570338	-0.000061
C59	C	0.723580	0.512115	-0.000066
C60	C	0.776021	0.547917	-0.000071
C61	C	0.777148	0.641942	-0.000063
C62	C	0.618704	0.440510	-0.000071
C63	C	0.722450	0.418085	-0.000073
N64	N	0.672856	0.117351	-0.248800
C65	C	0.634175	0.178967	0.700960
C66	C	0.711529	0.055736	0.700935
C67	C	0.711523	0.055734	0.600439
C68	C	0.672842	0.117349	0.550199
C69	C	0.634168	0.178968	0.600455
C70	C	0.750200	-0.005878	0.550176
C71	C	0.750195	-0.005882	0.449674
C72	C	0.711511	0.055730	0.399432
C73	C	0.672835	0.117350	0.449694
C74	C	0.634155	0.178966	0.399454
C75	C	0.595475	0.240583	0.449714
C76	C	0.595484	0.240580	0.550213
C77	C	0.711502	0.055733	0.298933
C78	C	0.634148	0.178967	0.298949
H79	H	0.965640	-0.035933	-0.000044
C80	C	0.518013	0.260766	0.663282
C81	C	0.552976	0.308308	0.605466
H82	H	0.491775	0.302581	0.697400
H83	H	0.497495	0.223416	0.624093
H84	H	0.541060	0.224071	0.707576
H85	H	0.529930	0.344999	0.561168
H86	H	0.573497	0.345674	0.644658
C87	C	1.175825	-0.209960	-0.000003
C88	C	1.131306	-0.138564	-0.000019
H89	H	1.160233	-0.266123	0.000018
H90	H	1.198716	-0.206102	-0.055681
H91	H	1.198711	-0.206082	0.055675
H92	H	1.108423	-0.142438	-0.055701
H93	H	1.108405	-0.142424	0.055665
H94	H	0.743025	0.005575	0.741843
C95	C	1.402376	0.366752	-0.000080
C96	C	1.369648	0.293889	-0.000065
H97	H	1.377666	0.422150	-0.000097
H98	H	1.425816	0.363772	0.055596
H99	H	1.425834	0.363756	-0.055760
H100	H	1.346193	0.296881	0.055619
H101	H	1.346197	0.296871	-0.055747
C102	C	0.783442	-0.162261	0.419006
C103	C	0.792703	-0.073716	0.394551
H104	H	0.809681	-0.204168	0.385005
H105	H	0.788939	-0.170966	0.486065
H106	H	0.745425	-0.171702	0.402517
H107	H	0.830719	-0.064272	0.411047
H108	H	0.787210	-0.065007	0.327478
C109	C	0.815748	0.804043	-0.082135
C110	C	0.784610	0.833549	-0.000054
H111	H	0.851331	0.828344	-0.082143
H112	H	0.822417	0.739721	-0.082128
H113	H	0.794616	0.824070	-0.137803
H114	H	0.805740	0.813517	0.055614
H115	H	0.777943	0.897885	-0.000053
H116	H	0.563984	0.290755	0.408797
H117	H	0.525822	0.563618	-0.000050
H118	H	1.100042	0.347635	-0.000028
H119	H	1.512169	-0.025566	-0.000034
H120	H	0.581451	0.864023	-0.000029
H121	H	0.819843	0.671101	-0.000042
H122	H	0.941281	0.262316	-0.000072
H123	H	1.404394	-0.027618	-0.000037
C124	C	0.848742	-0.059631	0.581084
C125	C	0.792711	-0.073616	0.605390
H126	H	0.874985	-0.101455	0.615176
H127	H	0.854271	-0.068442	0.514044
H128	H	0.854973	0.000485	0.597562
H129	H	0.786480	-0.133730	0.588905
H130	H	0.787181	-0.064813	0.672444
C131	C	0.744835	-0.100598	0.267963
C132	C	0.754013	-0.011978	0.243672
H133	H	0.771079	-0.142398	0.233838
H134	H	0.750384	-0.109421	0.334996
H135	H	0.706819	-0.110081	0.251514
H136	H	0.792028	-0.002493	0.260128
H137	H	0.748468	-0.003152	0.176624
C138	C	0.781375	0.299355	-0.082162
C139	C	0.778851	0.354090	-0.000083
H140	H	0.816197	0.259853	-0.082170
H141	H	0.749990	0.264577	-0.082151
H142	H	0.779661	0.336518	-0.137831
H143	H	0.780562	0.316927	0.055587
H144	H	0.810246	0.388871	-0.000085
H145	H	0.576007	0.411364	-0.000053
C146	C	0.895841	-0.132949	-0.000044
C147	C	0.851328	-0.061546	-0.000058
H148	H	0.880245	-0.189109	-0.000033
H149	H	0.918737	-0.129090	-0.055717
H150	H	0.918725	-0.129081	0.055639
H151	H	0.828447	-0.065410	-0.055745
H152	H	0.828422	-0.065407	0.055620
H153	H	1.207800	0.349684	-0.000041
C154	C	1.290561	-0.140571	-0.082110
C155	C	1.255990	-0.136199	-0.000031
H156	H	1.315270	-0.195970	-0.082110
H157	H	1.267110	-0.137583	-0.137773
H158	H	1.312757	-0.091131	-0.082101
H159	H	1.233791	-0.185636	-0.000043
H160	H	1.279445	-0.139196	0.055647
H161	H	1.487785	0.272669	-0.000069
C162	C	0.466994	0.699506	-0.000035
C163	C	0.513260	0.750783	-0.000040
H164	H	0.432177	0.739020	-0.000031
H165	H	0.468715	0.662372	-0.055708
H166	H	0.468708	0.662361	0.055648
H167	H	0.511548	0.787924	-0.055727
H168	H	0.511538	0.787933	0.055638
H169	H	0.602647	0.229139	0.258050
H170	H	0.833505	0.260266	-0.000086
C171	C	0.834938	0.429176	-0.082155
C172	C	0.832418	0.483913	-0.000078
H173	H	0.869756	0.389665	-0.082161
H174	H	0.803548	0.394406	-0.082144
H175	H	0.833227	0.466337	-0.137826
H176	H	0.834125	0.446752	0.055593
H177	H	0.863817	0.518686	-0.000081
C178	C	0.556694	0.199149	0.814009
C179	C	0.591662	0.246693	0.756204
H180	H	0.530451	0.240962	0.848119
H181	H	0.536181	0.161797	0.774814
H182	H	0.579737	0.162456	0.858310
H183	H	0.568619	0.283382	0.711899
H184	H	0.612176	0.284062	0.795403
