data_functionalizedCrystal
_audit_creation_method	'MofGen! by Chris Wilmer'
_symmetry_space_group_name_H-M	'P1'
_symmetry_Int_Tables_number	1
_symmetry_cell_setting	triclinic
loop_
_symmetry_equiv_pos_as_xyz
  x,y,z
_cell_length_a	19.188930
_cell_length_b	17.699077
_cell_length_c	16.776229
_cell_angle_alpha	89.996981
_cell_angle_beta	90.000983
_cell_angle_gamma	83.212679
loop_
_atom_site_label
_atom_site_type_symbol
_atom_site_fract_x
_atom_site_fract_y
_atom_site_fract_z
O1	O	0.088262	1.003963	-0.066287
O2	O	0.099753	0.783569	-0.066292
O3	O	-0.007641	0.900126	-0.066273
O4	O	0.195656	0.887406	-0.066305
O5	O	-0.007622	0.900115	0.066303
O6	O	0.099772	0.783558	0.066285
O7	O	0.088281	1.003952	0.066290
Zn8	Zn	0.094029	0.893753	0.087337
Zn9	Zn	0.094005	0.893767	-0.087339
O10	O	0.195675	0.887395	0.066272
C11	C	0.099352	0.755367	-0.000004
C12	C	0.098119	0.671350	-0.000005
C13	C	0.097548	0.631877	0.072263
C14	C	0.096378	0.552937	0.072264
C15	C	0.095784	0.513469	-0.000004
C16	C	0.096353	0.552947	-0.072278
C17	C	0.097518	0.631887	-0.072278
C18	C	0.091654	0.234590	-0.072279
C19	C	0.090491	0.155644	-0.072273
C20	C	0.090514	0.155639	0.072264
C21	C	0.091679	0.234579	0.072263
C22	C	0.092244	0.274051	-0.000010
C23	C	0.093512	0.359648	-0.000010
C24	C	0.094522	0.427872	-0.000005
C25	C	-0.033643	0.899708	0.000017
C26	C	-0.111149	0.898472	0.000024
C27	C	-0.155998	0.966864	0.000029
C28	C	-0.228823	0.965702	0.000016
C29	C	-0.256796	0.896145	0.000014
C30	C	-0.211937	0.827744	0.000004
C31	C	-0.139114	0.828907	0.000009
N32	N	-0.364853	0.842973	0.045131
N33	N	-0.434033	0.841872	0.045129
C34	C	-0.476208	0.892634	-0.000002
N35	N	-0.446592	0.944551	-0.045119
N36	N	-0.377406	0.945654	-0.045113
C37	C	-0.335760	0.894875	0.000009
C38	C	-0.600023	0.959771	-0.000012
C39	C	-0.672849	0.958607	-0.000029
C40	C	-0.655962	0.820646	-0.000033
C41	C	-0.583137	0.821813	-0.000024
C42	C	-0.555173	0.891378	-0.000009
C43	C	0.221677	0.887812	-0.000021
C44	C	0.299183	0.889049	-0.000033
C45	C	0.088682	1.032154	0.000000
C46	C	0.089915	1.116171	-0.000004
N47	N	0.094046	0.893749	0.206548
N48	N	0.093983	0.893778	-0.206550
C49	C	0.051696	0.848015	0.751726
C50	C	0.051702	0.848014	0.668273
C51	C	0.093999	0.893771	0.626547
C52	C	0.136287	0.939538	0.668278
C53	C	0.136277	0.939543	0.751728
C54	C	0.136328	0.939518	0.331731
C55	C	0.136337	0.939508	0.248274
C56	C	0.051753	0.847989	0.248276
C57	C	0.051743	0.847994	0.331726
C58	C	0.094028	0.893764	0.373449
C59	C	0.094020	0.893767	0.463938
C60	C	0.094011	0.893765	0.536061
H61	H	0.092166	0.266710	0.131112
C62	C	0.088727	0.034628	0.136456
C63	C	0.089881	0.112251	0.151711
H64	H	0.088333	0.007846	0.185502
H65	H	0.129228	0.015784	0.106762
H66	H	0.047829	0.027613	0.106768
H67	H	0.130782	0.119267	0.181394
H68	H	0.049376	0.131101	0.181418
C69	C	-0.709649	1.075852	-0.068167
C70	C	-0.722148	1.033792	-0.000024
H71	H	-0.740082	1.122271	-0.068159
H72	H	-0.718117	1.047329	-0.114396
H73	H	-0.662272	1.086491	-0.068150
H74	H	-0.769523	1.023148	-0.000044
H75	H	-0.713685	1.062320	0.046217
H76	H	0.090007	0.123511	-0.131126
H77	H	0.097984	0.664025	-0.131126
C78	C	-0.527909	1.041112	-0.068152
C79	C	-0.569273	1.036232	-0.000007
H80	H	-0.508923	1.088313	-0.068146
H81	H	-0.555965	1.037798	-0.114380
H82	H	-0.490778	1.000539	-0.068139
H83	H	-0.606407	1.076802	-0.000023
H84	H	-0.541215	1.039553	0.046232
C85	C	0.096449	0.560887	-0.215151
C86	C	0.095703	0.509566	-0.151718
H87	H	0.096047	0.534105	-0.264194
H88	H	0.137599	0.585768	-0.212149
H89	H	0.056199	0.597585	-0.212135
H90	H	0.135956	0.472871	-0.154731
H91	H	0.054549	0.484672	-0.154722
C92	C	-0.760093	0.757606	-0.000043
C93	C	-0.686701	0.744186	-0.000038
H94	H	-0.779070	0.710400	-0.000044
H95	H	-0.775488	0.785757	-0.046272
H96	H	-0.775492	0.785752	0.046193
H97	H	-0.671302	0.716045	-0.046277
H98	H	-0.671299	0.716023	0.046196
H99	H	0.017266	0.810752	0.634305
C100	C	0.091515	0.226654	-0.215149
C101	C	0.092279	0.277970	-0.151721
H102	H	0.091905	0.253439	-0.264195
H103	H	0.050367	0.201773	-0.212132
H104	H	0.131766	0.189955	-0.212143
H105	H	0.052025	0.314666	-0.154724
H106	H	0.133432	0.302864	-0.154739
C107	C	-0.573763	0.685333	-0.000016
C108	C	-0.533835	0.746633	-0.000015
H109	H	-0.543324	0.638919	-0.000008
H110	H	-0.602513	0.687749	-0.046249
H111	H	-0.602523	0.687752	0.046216
H112	H	-0.505078	0.744217	-0.046251
H113	H	-0.505072	0.744216	0.046222
H114	H	0.017257	0.810751	0.785693
H115	H	0.170782	0.976771	0.214303
H116	H	0.170711	0.976808	0.785700
H117	H	0.017303	0.810731	0.365695
H118	H	-0.133234	1.023509	0.000039
H119	H	0.017320	0.810722	0.214294
C120	C	0.219949	1.029970	0.323335
C121	C	0.182817	0.989818	0.377586
H122	H	0.248655	1.061019	0.351648
H123	H	0.187785	1.061089	0.290781
H124	H	0.248598	0.995030	0.290793
H125	H	0.154163	1.024758	0.410124
H126	H	0.214985	0.958697	0.410154
H127	H	-0.265345	1.021397	0.000018
H128	H	0.098037	0.664006	0.131113
H129	H	0.170723	0.976798	0.634298
C130	C	-0.284044	0.746414	-0.068149
C131	C	-0.242684	0.751285	0.000003
H132	H	-0.303028	0.699212	-0.068148
H133	H	-0.255985	0.749736	-0.114371
H134	H	-0.321176	0.786986	-0.068138
H135	H	-0.205549	0.710717	-0.000010
H136	H	-0.270745	0.747956	0.046238
C137	C	0.096533	0.560859	0.215136
C138	C	0.095757	0.509547	0.151704
H139	H	0.096155	0.534070	0.264180
H140	H	0.056290	0.597556	0.212141
H141	H	0.137690	0.585739	0.212110
H142	H	0.054598	0.484671	0.154726
H143	H	0.136004	0.472836	0.154701
C144	C	-0.129738	0.692424	0.000005
C145	C	-0.089811	0.753725	0.000011
H146	H	-0.099299	0.646011	0.000013
H147	H	-0.158487	0.694842	-0.046228
H148	H	-0.158500	0.694841	0.046237
H149	H	-0.061054	0.751312	-0.046223
H150	H	-0.061050	0.751306	0.046250
