data_functionalizedCrystal
_audit_creation_method	'MofGen! by Chris Wilmer'
_symmetry_space_group_name_H-M	'P1'
_symmetry_Int_Tables_number	1
_symmetry_cell_setting	triclinic
loop_
_symmetry_equiv_pos_as_xyz
  x,y,z
_cell_length_a	10.540539
_cell_length_b	16.109301
_cell_length_c	14.586319
_cell_angle_alpha	89.994230
_cell_angle_beta	90.002078
_cell_angle_gamma	96.006514
loop_
_atom_site_label
_atom_site_type_symbol
_atom_site_fract_x
_atom_site_fract_y
_atom_site_fract_z
O1	O	1.684216	-0.117166	0.076200
O2	O	2.017550	0.216167	0.409534
O3	O	2.350883	0.549501	0.742867
O4	O	1.314646	-0.128205	0.076212
O5	O	1.647979	0.205128	0.409545
O6	O	1.981313	0.538461	0.742879
O7	O	1.509584	-0.001717	0.076197
O8	O	1.842917	0.331617	0.409530
O9	O	2.176250	0.664950	0.742863
O10	O	1.489279	-0.243654	0.076216
O11	O	1.822612	0.089679	0.409549
O12	O	2.155945	0.423012	0.742883
O13	O	1.509568	-0.001714	-0.076284
O14	O	1.842901	0.331620	0.257049
O15	O	2.176235	0.664953	0.590382
O16	O	1.314630	-0.128202	-0.076269
O17	O	1.647964	0.205131	0.257065
O18	O	1.981297	0.538465	0.590398
O19	O	1.684201	-0.117163	-0.076280
O20	O	2.017534	0.216171	0.257053
O21	O	2.350867	0.549504	0.590386
Cu22	Cu	1.499414	-0.122682	-0.090197
Cu23	Cu	1.832747	0.210651	0.243136
Cu24	Cu	2.166081	0.543985	0.576469
Cu25	Cu	1.499433	-0.122686	0.090129
Cu26	Cu	1.832766	0.210647	0.423462
Cu27	Cu	2.166099	0.543981	0.756796
O28	O	1.489263	-0.243651	-0.076265
O29	O	1.822596	0.089682	0.257068
O30	O	2.155930	0.423015	0.590402
C31	C	1.267347	-0.127376	-0.000027
C32	C	1.600680	0.205958	0.333306
C33	C	1.934014	0.539291	0.666640
C34	C	1.126434	-0.124899	-0.000023
C35	C	1.459768	0.208434	0.333310
C36	C	1.793101	0.541768	0.666644
C37	C	1.508753	0.029265	-0.000044
C38	C	1.842087	0.362598	0.333289
C39	C	2.175420	0.695931	0.666622
C40	C	1.506287	0.121575	-0.000046
C41	C	1.839621	0.454909	0.333288
C42	C	2.172954	0.788242	0.666621
N43	N	1.499410	-0.122679	-0.217029
N44	N	1.832744	0.210654	0.116304
N45	N	2.166077	0.543988	0.449638
C46	C	0.944360	-0.029989	-0.000386
C47	C	1.277694	0.303344	0.332947
C48	C	1.611027	0.636678	0.666280
C49	C	1.090943	-0.032500	-0.000033
C50	C	1.424276	0.300833	0.333300
C51	C	1.757609	0.634167	0.666634
C52	C	1.064137	-0.169367	0.087051
C53	C	1.397470	0.163966	0.420385
C54	C	1.730803	0.497300	0.753718
C55	C	0.917637	-0.166214	0.087115
C56	C	1.250970	0.167120	0.420448
C57	C	1.584304	0.500453	0.753781
C58	C	0.917104	-0.168090	-0.086285
C59	C	1.250437	0.165244	0.247049
C60	C	1.583771	0.498577	0.580382
C61	C	1.064074	-0.168941	-0.087426
C62	C	1.397407	0.164393	0.245907
C63	C	1.730741	0.497726	0.579241
C64	C	1.731500	-0.117992	-0.000039
C65	C	2.064833	0.215341	0.333294
C66	C	2.398166	0.548674	0.666627
C67	C	1.872413	-0.120469	-0.000037
C68	C	2.205746	0.212864	0.333296
C69	C	2.539079	0.546198	0.666629
C70	C	1.490093	-0.274633	-0.000022
C71	C	1.823427	0.058701	0.333311
C72	C	2.156760	0.392034	0.666645
C73	C	1.492559	-0.366943	-0.000015
C74	C	1.825893	-0.033610	0.333319
C75	C	2.159226	0.299723	0.666652
C76	C	1.616226	0.343175	-0.000034
C77	C	1.949559	0.676509	0.333299
C78	C	2.282893	1.009842	0.666632
C79	C	1.613899	0.429910	-0.000027
C80	C	1.947232	0.763243	0.333307
C81	C	2.280566	1.096577	0.666640
C82	C	1.382612	0.411450	-0.000023
C83	C	1.715945	0.744783	0.333310
C84	C	2.049279	1.078117	0.666644
C85	C	1.384940	0.324717	-0.000024
C86	C	1.718274	0.658050	0.333309
C87	C	2.051607	0.991384	0.666642
C88	C	1.501751	0.290582	-0.000034
C89	C	1.835084	0.623916	0.333299
C90	C	2.168418	0.957249	0.666632
C91	C	1.497096	0.464050	-0.000026
C92	C	1.830429	0.797383	0.333308
C93	C	2.163763	1.130716	0.666641
C94	C	1.494572	0.558091	-0.000018
C95	C	1.827905	0.891425	0.333316
C96	C	2.161239	1.224758	0.666649
C97	C	1.504275	0.196535	-0.000041
C98	C	1.837609	0.529868	0.333292
C99	C	2.170942	0.863201	0.666626
C100	C	1.585762	-0.066689	-0.548030
C101	C	1.919096	0.266645	-0.214696
C102	C	2.252429	0.599978	0.118637
C103	C	1.585759	-0.066689	-0.452048
C104	C	1.919093	0.266644	-0.118715
C105	C	2.252426	0.599978	0.214618
C106	C	1.413090	-0.178679	-0.452045
C107	C	1.746424	0.154654	-0.118712
C108	C	2.079757	0.487988	0.214621
C109	C	1.413101	-0.178682	-0.548025
C110	C	1.746434	0.154652	-0.214692
C111	C	2.079767	0.487985	0.118642
C112	C	1.499435	-0.122682	-0.596015
C113	C	1.832768	0.210651	-0.262681
C114	C	2.166102	0.543985	0.070652
C115	C	1.499422	-0.122679	-0.404054
C116	C	1.832755	0.210654	-0.070720
C117	C	2.166088	0.543987	0.262613
C118	C	1.499418	-0.122680	-0.299987
C119	C	1.832751	0.210653	0.033347
C120	C	2.166084	0.543986	0.366680
C121	C	1.499441	-0.122682	-0.700088
C122	C	1.832774	0.210651	-0.366755
C123	C	2.166108	0.543985	-0.033422
N124	N	1.499446	-0.122682	0.216961
N125	N	1.832780	0.210651	0.550294
N126	N	2.166113	0.543984	0.883627
H127	H	1.134049	0.002489	-0.062452
H128	H	1.467382	0.335823	0.270881
H129	H	1.800716	0.669156	0.604215
H130	H	1.342797	-0.224272	-0.412963
H131	H	1.676130	0.109062	-0.079629
H132	H	2.009464	0.442395	0.253704
F133	F	0.876426	-0.129001	-0.172554
F134	F	1.209759	0.204332	0.160779
F135	F	1.543092	0.537666	0.494113
H136	H	1.105493	-0.136455	-0.151843
H137	H	1.438826	0.196878	0.181490
H138	H	1.772159	0.530211	0.514824
F139	F	1.677643	-0.007095	-0.400982
F140	F	2.010976	0.326238	-0.067649
F141	F	2.344309	0.659571	0.265684
F142	F	1.094475	-0.256994	-0.094290
F143	F	1.427808	0.076339	0.239043
F144	F	1.761142	0.409672	0.572377
H145	H	0.916289	0.006515	-0.062833
H146	H	1.249622	0.339848	0.270501
H147	H	1.582956	0.673182	0.603834
H148	H	1.342802	-0.224282	-0.587097
H149	H	1.676135	0.109051	-0.253763
H150	H	2.009469	0.442384	0.079570
H151	H	0.914678	0.006358	0.061706
H152	H	1.248011	0.339691	0.395039
H153	H	1.581344	0.673025	0.728373
H154	H	1.707116	0.472728	-0.000025
H155	H	2.040450	0.806062	0.333309
H156	H	2.373783	1.139395	0.666642
H157	H	1.287509	0.439253	-0.000017
H158	H	1.620842	0.772587	0.333317
H159	H	1.954175	1.105920	0.666650
H160	H	1.656063	-0.021091	-0.587101
H161	H	1.989396	0.312242	-0.253767
H162	H	2.322730	0.645575	0.079566
F163	F	1.146140	0.013366	0.081815
F164	F	1.479473	0.346699	0.415149
F165	F	1.812807	0.680033	0.748482
F166	F	0.881381	-0.123259	0.172183
F167	F	1.214715	0.210075	0.505516
F168	F	1.548048	0.543408	0.838849
F169	F	0.853696	-0.253069	0.092288
F170	F	1.187030	0.080264	0.425621
F171	F	1.520363	0.413598	0.758954
H172	H	1.085523	-0.237222	0.090296
H173	H	1.418856	0.096111	0.423630
H174	H	1.752189	0.429444	0.756963
H175	H	1.107172	-0.138479	0.151849
H176	H	1.440505	0.194854	0.485182
H177	H	1.773839	0.528187	0.818515
F178	F	0.854134	-0.255322	-0.087047
F179	F	1.187467	0.078011	0.246286
F180	F	1.520800	0.411344	0.579619
H181	H	1.711340	0.315386	-0.000041
H182	H	2.044674	0.648719	0.333292
H183	H	2.378007	0.982053	0.666626
H184	H	1.291715	0.281893	-0.000022
H185	H	1.625049	0.615226	0.333312
H186	H	1.958382	0.948560	0.666645
