data_functionalizedCrystal
_audit_creation_method	'MofGen! by Chris Wilmer'
_symmetry_space_group_name_H-M	'P1'
_symmetry_Int_Tables_number	1
_symmetry_cell_setting	triclinic
loop_
_symmetry_equiv_pos_as_xyz
  x,y,z
_cell_length_a	21.606444
_cell_length_b	21.606444
_cell_length_c	21.606444
_cell_angle_alpha	59.998659
_cell_angle_beta	90.000833
_cell_angle_gamma	60.002891
loop_
_atom_site_label
_atom_site_type_symbol
_atom_site_fract_x
_atom_site_fract_y
_atom_site_fract_z
Zr1	Zr	0.596243	0.677473	-0.081248
O2	O	0.497420	0.806591	-0.180072
O3	O	0.626534	0.548355	-0.050953
O4	O	0.626532	0.677479	-0.180076
O5	O	0.497427	0.677463	0.050905
O6	O	0.728382	0.677483	-0.180080
O7	O	0.497421	0.677468	-0.050949
O8	O	0.728385	0.446505	0.050898
O9	O	0.497424	0.908441	-0.180072
O10	O	0.715466	0.601467	-0.038035
O11	O	0.639460	0.601460	0.037980
O12	O	0.639458	0.753486	-0.114046
O13	O	0.563453	0.753480	-0.038031
Zr14	Zr	0.758689	0.677473	0.081192
Zr15	Zr	0.758681	0.677480	-0.081254
Zr16	Zr	0.596251	0.677466	0.081198
Zr17	Zr	0.596249	0.839913	-0.081249
Zr18	Zr	0.758683	0.515034	0.081193
O19	O	0.728398	0.806591	0.050896
O20	O	0.728387	0.806601	-0.180080
O21	O	0.497432	0.806581	0.050905
O22	O	0.857512	0.548355	0.180016
O23	O	0.857500	0.548365	-0.050961
O24	O	0.626545	0.548346	0.180024
O25	O	0.857505	0.677483	-0.050962
O26	O	0.728400	0.677468	0.180020
O27	O	0.626550	0.677463	0.180023
O28	O	0.857510	0.677479	0.050892
O29	O	0.626541	0.908447	-0.180077
O30	O	0.728391	0.446500	0.180021
O31	O	0.857508	0.446505	0.180016
O32	O	0.857502	0.446511	0.050894
O33	O	0.497430	0.908436	-0.050950
O34	O	0.626547	0.908441	-0.050955
O35	O	0.715474	0.601460	0.113990
O36	O	0.791479	0.601467	0.037974
O37	O	0.715472	0.753486	-0.038036
O38	O	0.639466	0.753480	0.037979
C39	C	0.677458	0.474286	-0.000027
C40	C	0.677456	0.405326	-0.000027
C41	C	0.717151	-0.017979	-0.039707
C42	C	0.717146	0.046822	-0.039710
C43	C	0.677469	0.079215	-0.000031
C44	C	0.637789	0.046811	0.039648
C45	C	0.637791	-0.017984	0.039646
C46	C	0.637781	0.308122	0.039655
C47	C	0.637785	0.372920	0.039656
C48	C	0.717136	0.372927	-0.039701
C49	C	0.717138	0.308132	-0.039703
C50	C	0.677455	0.275737	-0.000028
C51	C	0.677460	0.205475	-0.000026
C52	C	0.677468	0.149472	-0.000028
C53	C	0.474280	0.677464	-0.000021
C54	C	0.405321	0.677461	-0.000018
C55	C	0.412596	0.598109	0.039656
C56	C	0.347799	0.598112	0.039656
C57	C	0.275727	0.677467	-0.000022
C58	C	0.268452	0.756825	-0.039697
C59	C	0.333249	0.756822	-0.039693
C60	C	0.007134	0.756841	-0.039714
C61	C	-0.057664	0.756838	-0.039717
C62	C	0.021684	0.598130	0.039635
C63	C	0.086481	0.598127	0.039640
C64	C	0.079201	0.677485	-0.000032
C65	C	0.149462	0.677481	-0.000031
C66	C	0.205466	0.677472	-0.000028
C67	C	0.880652	0.677482	-0.000036
C68	C	0.949611	0.677485	-0.000038
C69	C	0.677456	0.677482	-0.203223
C70	C	0.677452	0.677485	-0.272185
C71	C	0.677474	0.880660	-0.000029
C72	C	0.677476	0.949620	-0.000030
C73	C	0.637777	0.756837	-0.344261
C74	C	0.637783	0.756834	-0.409055
C75	C	0.677461	0.677479	-0.401773
C76	C	0.717142	0.598121	-0.329690
C77	C	0.717139	0.598124	-0.264897
C78	C	0.717154	0.598106	-0.590993
C79	C	0.717151	0.598109	-0.655794
C80	C	0.637798	0.756816	-0.735152
C81	C	0.637795	0.756819	-0.670358
C82	C	0.677479	0.677462	-0.598281
C83	C	0.677472	0.677465	-0.528024
C84	C	0.677464	0.677475	-0.472029
C85	C	0.677476	0.677464	0.203166
C86	C	0.677480	0.677461	0.272129
C87	C	0.880644	0.474295	-0.000034
C88	C	0.949601	0.405338	-0.000037
C89	C	0.677469	0.474277	0.203168
C90	C	0.677469	0.405315	0.272130
C91	C	0.880654	0.474286	0.203160
C92	C	0.949615	0.405326	0.272120
C93	C	0.474277	0.880660	-0.203216
C94	C	0.405317	0.949620	-0.272177
C95	C	0.474288	0.880651	-0.000022
C96	C	0.405331	0.949608	-0.000020
C97	C	0.677463	0.880669	-0.203224
C98	C	0.677462	0.949632	-0.272187
C99	C	0.942306	0.372955	-0.039721
C100	C	1.007092	0.308172	-0.039738
C101	C	1.079172	0.275768	-0.000066
C102	C	1.086466	0.308158	0.039619
C103	C	1.021681	0.372944	0.039632
C104	C	0.717148	0.372929	0.344199
C105	C	0.717146	0.308140	0.409003
C106	C	0.677469	0.275734	0.401737
C107	C	0.637786	0.308126	0.329660
C108	C	0.637784	0.372918	0.264858
C109	C	1.021680	0.372946	0.264826
C110	C	1.086482	0.308160	0.329615
C111	C	1.079217	0.275751	0.401698
C112	C	1.007144	0.308138	0.408992
C113	C	0.942344	0.372928	0.344203
C114	C	0.333252	0.982009	-0.264882
C115	C	0.268450	1.046815	-0.329671
C116	C	0.275715	1.079227	-0.401755
C117	C	0.347788	1.046835	-0.409048
C118	C	0.412588	0.982035	-0.344259
C119	C	0.412626	0.981998	0.039658
C120	C	0.347840	1.046799	0.039657
C121	C	0.275759	1.079205	-0.000017
C122	C	0.268466	1.046813	-0.039700
C123	C	0.333251	0.982017	-0.039703
C124	C	0.717147	0.982017	-0.264896
C125	C	0.717161	1.046807	-0.329688
C126	C	0.677485	1.079213	-0.401769
C127	C	0.637800	1.046821	-0.409058
C128	C	0.637791	0.982029	-0.344267
H129	H	0.749445	0.399313	-0.072010
H130	H	1.131919	0.223014	-0.000082
H131	H	0.223013	1.131966	-0.000008
C132	C	0.325241	0.946373	-0.185596
N133	N	0.319202	0.919542	-0.125880
H134	H	0.327301	0.955647	-0.072011
H135	H	0.027606	0.533514	0.071940
C136	C	0.760794	0.408569	0.352211
N137	N	0.793665	0.435413	0.358251
C138	C	0.863023	0.408592	-0.083371
N139	N	0.803309	0.435434	-0.116255
H140	H	0.677499	1.131972	-0.454520
H141	H	0.327320	0.821439	-0.071990
C142	C	0.760811	0.272513	0.488280
N143	N	0.793702	0.245678	0.547989
C144	C	0.594141	0.408526	0.185583
N145	N	0.561268	0.435341	0.125875
C146	C	0.760794	0.082457	-0.083356
N147	N	0.793673	0.109297	-0.116232
H148	H	0.209769	1.073208	-0.072001
C149	C	0.594149	0.272465	0.321680
N150	N	0.561286	0.245598	0.315671
H151	H	0.145163	0.533508	0.071947
H152	H	0.209771	1.073177	-0.323718
C153	C	1.029718	0.408550	0.083299
N154	N	1.035778	0.435363	0.116192
H155	H	-0.116350	0.821462	-0.072029
C156	C	0.760800	0.946378	-0.185612
N157	N	0.793687	0.919533	-0.125897
C158	C	0.594120	0.946423	-0.352300
N159	N	0.561223	0.919610	-0.358356
C160	C	-0.000883	0.844136	-0.083368
N161	N	-0.006922	0.909892	-0.116254
H162	H	0.353695	1.073233	-0.467746
C163	C	0.760815	1.082430	-0.321652
N164	N	0.793695	1.109261	-0.315598
C165	C	0.594104	0.844128	-0.488339
N166	N	0.561192	0.909881	-0.548056
H167	H	0.749464	-0.044353	-0.072015
C168	C	0.760776	0.272512	-0.083363
N169	N	0.793639	0.245690	-0.116254
H170	H	0.605471	0.399295	0.071967
H171	H	1.145163	0.281765	0.071919
C172	C	0.594191	1.082447	-0.488356
N173	N	0.561354	1.109274	-0.548084
H174	H	0.605472	0.281751	0.071964
H175	H	1.001138	0.281808	-0.072054
H176	H	1.001239	0.281742	0.467690
H177	H	0.677477	0.222976	0.454509
C178	C	0.491909	0.946368	0.083301
N179	N	0.551623	0.919539	0.116172
H180	H	0.605480	0.073195	0.071952
H181	H	1.027610	0.399323	0.206138
H182	H	0.222945	1.131991	-0.454503
C183	C	0.355880	1.082412	0.083319
N184	N	0.361938	1.109231	0.116207
H185	H	0.471265	0.955664	-0.350208
H186	H	1.145161	0.281796	0.323663
H187	H	0.471278	0.533489	0.071970
C188	C	0.355809	0.510818	0.083288
N189	N	0.361844	0.445065	0.116148
H190	H	0.605482	-0.044362	0.071954
C191	C	0.189170	0.844117	-0.083347
N192	N	0.129454	0.909867	-0.116228
C193	C	0.594149	0.844116	-0.678375
N194	N	0.561277	0.909870	-0.684416
H195	H	0.605488	0.821433	-0.793847
C196	C	0.760799	0.510810	-0.511716
N197	N	0.793673	0.445054	-0.451999
H198	H	0.605461	0.821457	-0.350199
H199	H	0.749464	0.533484	-0.649856
H200	H	0.749452	0.533508	-0.323766
H201	H	1.131987	0.222995	0.454447
H202	H	0.749447	0.533508	-0.206210
H203	H	0.883667	0.399284	0.350153
