data_functionalizedCrystal
_audit_creation_method	'MofGen! by Chris Wilmer'
_symmetry_space_group_name_H-M	'P1'
_symmetry_Int_Tables_number	1
_symmetry_cell_setting	triclinic
loop_
_symmetry_equiv_pos_as_xyz
  x,y,z
_cell_length_a	12.759400
_cell_length_b	14.908610
_cell_length_c	12.759393
_cell_angle_alpha	93.314795
_cell_angle_beta	89.969349
_cell_angle_gamma	93.293197
loop_
_atom_site_label
_atom_site_type_symbol
_atom_site_fract_x
_atom_site_fract_y
_atom_site_fract_z
Zn1	Zn	-0.511102	-1.379286	-0.686639
Zn2	Zn	-0.686816	-1.379202	-0.510957
Zn3	Zn	-0.500995	-1.228417	-0.500844
Zn4	Zn	-0.676577	-1.228409	-0.676469
O5	O	-0.593872	-1.303828	-0.593727
O6	O	-0.542925	-1.505521	-0.671823
O7	O	-0.662221	-1.359169	-0.362592
O8	O	-0.355318	-1.248469	-0.525514
O9	O	-0.672021	-1.505459	-0.542750
O10	O	-0.362743	-1.359311	-0.662017
O11	O	-0.525700	-1.248388	-0.355163
O12	O	-0.515772	-1.102170	-0.515653
O13	O	-0.654571	-1.248454	-0.824842
O14	O	-0.644771	-1.102163	-0.644684
O15	O	-0.532997	-1.359303	-0.832313
O16	O	-0.832476	-1.359160	-0.532889
O17	O	-0.824954	-1.248373	-0.654490
C18	C	-0.578065	-1.069432	-0.577968
C19	C	-0.571328	-0.969157	-0.571251
C20	C	-0.494571	-0.827800	-0.494715
C21	C	-0.500896	-0.922018	-0.501022
C22	C	-0.635437	-0.922071	-0.635181
C23	C	-0.629113	-0.827853	-0.628874
C24	C	-0.558678	-0.780721	-0.558638
C25	C	-0.552359	-0.686501	-0.552326
C26	C	-0.686895	-0.686556	-0.686490
C27	C	-0.693220	-0.780774	-0.692797
C28	C	-0.866837	-1.303781	-0.593708
C29	C	-0.983617	-1.303843	-0.593740
C30	C	-1.042264	-1.361530	-0.664870
C31	C	-1.151991	-1.361572	-0.664898
C32	C	-1.144415	-1.246238	-0.522658
C33	C	-1.034690	-1.246192	-0.522635
C34	C	-1.046639	-1.428120	-0.746989
C35	C	-1.156366	-1.428162	-0.747017
C36	C	-0.319844	-1.303900	-0.593772
C37	C	-0.203069	-1.303931	-0.593791
C38	C	-0.593769	-1.303887	-0.867765
C39	C	-0.593725	-1.303912	-0.984543
C40	C	-0.609733	-0.539140	-0.609540
C41	C	-0.616469	-0.639415	-0.616256
C42	C	-0.522628	-1.246253	-1.035544
C43	C	-0.522599	-1.246280	-1.145270
C44	C	-0.664767	-1.361633	-1.152985
C45	C	-0.664801	-1.361601	-1.043261
C46	C	-0.440545	-1.179657	-1.031091
C47	C	-0.440515	-1.179684	-1.140817
C48	C	-0.593903	-1.303822	-0.320760
C49	C	-0.593662	-1.303972	-0.203994
H50	H	-0.692777	-0.960463	-0.692369
H51	H	-1.186011	-1.199299	-0.464768
O52	O	-0.733658	-1.417771	-1.210078
C53	C	-0.755975	-1.539569	-1.342179
C54	C	-0.677842	-1.476061	-1.277577
H55	H	-0.710879	-1.586700	-1.396783
H56	H	-0.806780	-1.580841	-1.286926
H57	H	-0.808121	-1.498130	-1.390706
H58	H	-0.625628	-1.517430	-1.229044
H59	H	-0.627110	-1.434785	-1.332886
O60	O	-0.438779	-0.967850	-0.438879
C61	C	-0.431623	-1.074121	-0.304127
C62	C	-0.502095	-1.022288	-0.374460
H63	H	-0.482785	-1.118132	-0.252010
H64	H	-0.379727	-1.118317	-0.355354
H65	H	-0.380173	-1.024231	-0.252894
H66	H	-0.553609	-1.072113	-0.425704
H67	H	-0.553921	-0.978079	-0.323171
H68	H	-0.750563	-0.819162	-0.749984
H69	H	-1.015557	-1.409359	-0.827075
H70	H	-1.017042	-1.494490	-0.722358
O71	O	-0.749065	-0.640684	-0.748547
C72	C	-0.799003	-0.495561	-0.798237
C73	C	-0.728518	-0.547398	-0.727922
H74	H	-0.782432	-0.420130	-0.781571
H75	H	-0.781893	-0.514052	-0.884247
H76	H	-0.884932	-0.514133	-0.780898
H77	H	-0.642566	-0.528854	-0.745169
H78	H	-0.745718	-0.528902	-0.641934
H79	H	-0.465170	-1.113310	-1.170385
O80	O	-0.344901	-1.202104	-1.177703
C81	C	-0.170674	-1.242808	-1.134661
C82	C	-0.278910	-1.217450	-1.092749
H83	H	-0.117284	-1.255204	-1.065996
H84	H	-0.180199	-1.306477	-1.188536
H85	H	-0.134388	-1.185446	-1.180488
H86	H	-0.315257	-1.274753	-1.046875
H87	H	-0.269317	-1.153753	-1.038930
O88	O	-1.194747	-1.398300	-0.837285
C89	C	-1.154461	-1.342014	-1.006815
C90	C	-1.110853	-1.375839	-0.904657
H91	H	-1.086653	-1.323827	-1.061304
H92	H	-1.208355	-1.397137	-1.047152
H93	H	-1.200667	-1.279971	-0.987579
H94	H	-1.064599	-1.437866	-0.923802
H95	H	-1.057015	-1.320661	-0.864348
O96	O	-0.977829	-1.190025	-0.453586
C97	C	-0.934045	-1.036568	-0.392177
C98	C	-0.998514	-1.100079	-0.470421
H99	H	-0.950729	-0.963832	-0.405775
H100	H	-0.956754	-1.052379	-0.308525
H101	H	-0.846855	-1.046480	-0.404356
H102	H	-1.085720	-1.090202	-0.458338
H103	H	-0.975717	-1.084252	-0.554045
H104	H	-1.190811	-1.498058	-0.729997
O105	O	-0.426070	-0.782149	-0.426463
C106	C	-0.293348	-0.792036	-0.294003
C107	C	-0.370861	-0.843845	-0.371271
H108	H	-0.248707	-0.841894	-0.249344
H109	H	-0.235437	-0.747972	-0.339327
H110	H	-0.338580	-0.747876	-0.236081
H111	H	-0.325718	-0.888054	-0.429211
H112	H	-0.428772	-0.887851	-0.325879
H113	H	-0.722710	-1.408539	-1.001739
H114	H	-0.457627	-1.109769	-0.996620
O115	O	-0.350447	-1.209533	-0.992332
C116	C	-0.253587	-1.241516	-0.838094
C117	C	-0.355685	-1.207685	-0.881850
H118	H	-0.257778	-1.240015	-0.748763
H119	H	-0.243350	-1.313370	-0.870422
H120	H	-0.184010	-1.196143	-0.862711
H121	H	-0.425323	-1.252991	-0.857249
H122	H	-0.365829	-1.135816	-0.849526
O123	O	-0.483851	-0.640854	-0.484080
C124	C	-0.351111	-0.650749	-0.351640
C125	C	-0.428636	-0.702553	-0.428899
H126	H	-0.306464	-0.700611	-0.306990
H127	H	-0.293204	-0.606686	-0.396970
H128	H	-0.396332	-0.606589	-0.293709
H129	H	-0.383503	-0.746762	-0.486848
H130	H	-0.486542	-0.746560	-0.383501
