data_functionalizedCrystal
_audit_creation_method	'MofGen! by Chris Wilmer'
_symmetry_space_group_name_H-M	'P1'
_symmetry_Int_Tables_number	1
_symmetry_cell_setting	triclinic
loop_
_symmetry_equiv_pos_as_xyz
  x,y,z
_cell_length_a	13.897449
_cell_length_b	25.639240
_cell_length_c	13.897441
_cell_angle_alpha	90.041488
_cell_angle_beta	90.020733
_cell_angle_gamma	90.034037
loop_
_atom_site_label
_atom_site_type_symbol
_atom_site_fract_x
_atom_site_fract_y
_atom_site_fract_z
Zn1	Zn	1.474602	-0.208116	0.545308
Zn2	Zn	1.474453	-0.295559	0.383979
Zn3	Zn	1.313291	-0.208141	0.384027
Zn4	Zn	1.313230	-0.295524	0.545232
O5	O	1.393894	-0.251835	0.464636
O6	O	1.609564	-0.219720	0.523920
O7	O	1.453038	-0.283987	0.249003
O8	O	1.334776	-0.134973	0.405473
O9	O	1.609454	-0.283963	0.405392
O10	O	1.453291	-0.134954	0.523966
O11	O	1.334633	-0.219762	0.249039
O12	O	1.178301	-0.219729	0.405399
O13	O	1.334673	-0.283905	0.680223
O14	O	1.178257	-0.283929	0.523835
O15	O	1.453232	-0.219686	0.680280
O16	O	1.452979	-0.368719	0.405317
O17	O	1.334529	-0.368694	0.523789
C18	C	1.143280	-0.251828	0.464614
C19	C	1.036066	-0.251838	0.464628
C20	C	0.839771	-0.251840	0.464653
C21	C	0.949003	-0.251837	0.464636
C22	C	1.393758	-0.387678	0.464561
C23	C	1.393788	-0.445792	0.464561
C24	C	1.455635	-0.806107	0.526447
C25	C	1.455663	-0.860711	0.526466
O26	O	1.508086	-0.888907	0.579007
N27	N	1.394028	-0.888074	0.464729
C28	C	1.332353	-0.860830	0.402976
O29	O	1.279929	-0.889119	0.350466
C30	C	1.332320	-0.806227	0.402962
C31	C	1.393967	-0.778867	0.464696
C32	C	1.517276	-0.778747	0.588177
C33	C	1.517248	-0.724146	0.588156
C34	C	1.455580	-0.696906	0.526405
C35	C	1.393939	-0.724266	0.464675
C36	C	1.270641	-0.778984	0.341214
C37	C	1.270613	-0.724377	0.341206
C38	C	1.332260	-0.697017	0.402940
C39	C	1.332244	-0.642425	0.402903
N40	N	1.393879	-0.615062	0.464640
C41	C	1.455548	-0.642302	0.526391
C42	C	1.332425	-0.975501	0.403011
C43	C	1.332461	-1.030103	0.403020
C44	C	1.455771	-1.029980	0.526512
C45	C	1.455739	-0.975377	0.526498
C46	C	1.394060	-0.948138	0.464748
C47	C	1.455486	-0.527637	0.526341
C48	C	1.455456	-0.473032	0.526312
C49	C	1.332143	-0.473160	0.402823
C50	C	1.332176	-0.527760	0.402849
C51	C	1.393851	-0.554998	0.464615
O52	O	1.279845	-0.614195	0.350392
O53	O	1.507954	-0.614007	0.578900
C54	C	1.645487	-0.251843	0.464659
C55	C	1.752701	-0.251846	0.464669
C56	C	1.393962	-0.251789	0.716229
C57	C	1.393992	-0.251769	0.823443
C58	C	1.394057	-0.115462	0.464733
C59	C	1.394127	-0.057348	0.464775
C60	C	1.393881	-0.251843	0.214022
C61	C	1.394039	-0.251716	0.106809
C62	C	1.394018	-0.251734	1.019739
C63	C	1.394000	-0.251755	0.910506
H64	H	1.505659	-0.450757	0.576583
H65	H	1.220442	-0.801251	0.290943
C66	C	1.257229	-0.663044	0.211418
C67	C	1.202814	-0.694436	0.273325
H68	H	1.215372	-0.644559	0.169516
H69	H	1.299277	-0.684343	0.174569
H70	H	1.293930	-0.638933	0.248187
H71	H	1.166118	-0.718549	0.236557
H72	H	1.160749	-0.673134	0.310178
C73	C	1.577660	-1.024388	0.648584
C74	C	1.523557	-1.059929	0.594396
H75	H	1.619509	-1.042879	0.690485
H76	H	1.535605	-1.003094	0.685437
H77	H	1.614571	-1.003092	0.606579
H78	H	1.486640	-1.081223	0.636401
H79	H	1.565618	-1.081232	0.557541
C80	C	1.210284	-0.522394	0.280783
C81	C	1.264416	-0.557838	0.334989
H82	H	1.168443	-0.540961	0.238899
H83	H	1.252322	-0.501101	0.243913
H84	H	1.173363	-0.501088	0.322779
H85	H	1.301343	-0.579141	0.292993
H86	H	1.222373	-0.579140	0.371861
C87	C	1.319052	-0.914167	0.273218
C88	C	1.264633	-0.945560	0.335120
H89	H	1.277198	-0.895683	0.231312
H90	H	1.361107	-0.935465	0.236374
H91	H	1.355747	-0.890055	0.309991
H92	H	1.227944	-0.969675	0.298347
H93	H	1.222562	-0.924260	0.371968
C94	C	1.277350	-0.389506	0.347986
C95	C	1.264354	-0.443210	0.334953
H96	H	1.235491	-0.371017	0.306093
H97	H	1.342154	-0.380538	0.333916
H98	H	1.263201	-0.380542	0.412788
H99	H	1.278510	-0.452174	0.270153
H100	H	1.199535	-0.452182	0.349017
H101	H	1.505701	-0.549808	0.576644
H102	H	1.567443	-0.701872	0.638427
H103	H	1.567493	-0.800920	0.638467
H104	H	1.505936	-0.953103	0.576767
H105	H	1.282273	-1.052375	0.352739
