data_functionalizedCrystal
_audit_creation_method	'MofGen! by Chris Wilmer'
_symmetry_space_group_name_H-M	'P1'
_symmetry_Int_Tables_number	1
_symmetry_cell_setting	triclinic
loop_
_symmetry_equiv_pos_as_xyz
  x,y,z
_cell_length_a	25.639239
_cell_length_b	12.759401
_cell_length_c	25.639233
_cell_angle_alpha	89.986848
_cell_angle_beta	90.018747
_cell_angle_gamma	89.960492
loop_
_atom_site_label
_atom_site_type_symbol
_atom_site_fract_x
_atom_site_fract_y
_atom_site_fract_z
Zn1	Zn	-0.208203	-1.605994	0.295617
Zn2	Zn	-0.295622	-1.605841	0.208181
Zn3	Zn	-0.208203	-1.430322	0.208194
Zn4	Zn	-0.295610	-1.430211	0.295585
O5	O	-0.251910	-1.518092	0.251894
O6	O	-0.219804	-1.752995	0.284026
O7	O	-0.284030	-1.582539	0.135017
O8	O	-0.135038	-1.453736	0.219810
O9	O	-0.284030	-1.752882	0.219787
O10	O	-0.135038	-1.582801	0.284039
O11	O	-0.219805	-1.453586	0.135027
O12	O	-0.219794	-1.283286	0.219779
O13	O	-0.284011	-1.453548	0.368754
O14	O	-0.284011	-1.283205	0.283984
O15	O	-0.219793	-1.582694	0.368777
O16	O	-0.368785	-1.582432	0.219756
O17	O	-0.368777	-1.453398	0.283971
C18	C	-0.251902	-1.245125	0.251880
C19	C	-0.251911	-1.128348	0.251886
C20	C	-0.285399	-1.073471	0.285265
C21	C	-0.285401	-0.963747	0.285274
C22	C	-0.218423	-0.963786	0.218521
C23	C	-0.218420	-1.073508	0.218516
C24	C	-0.304179	-0.813815	0.346909
C25	C	-0.337676	-0.758935	0.380283
C26	C	-0.388703	-0.794487	0.388215
C27	C	-0.406244	-0.884918	0.362765
C28	C	-0.372750	-0.939793	0.329388
C29	C	-0.321715	-0.904242	0.321466
C30	C	-0.199647	-1.223442	0.156879
C31	C	-0.166155	-1.278319	0.123499
C32	C	-0.115127	-1.242769	0.115561
C33	C	-0.097588	-1.152335	0.141001
C34	C	-0.131080	-1.097458	0.174382
C35	C	-0.182107	-1.133015	0.182320
C36	C	-0.387752	-1.517915	0.251870
C37	C	-0.445866	-1.517936	0.251877
C38	C	-0.806221	-1.585455	0.218514
C39	C	-0.860825	-1.585496	0.218521
O40	O	-0.889055	-1.642720	0.190128
N41	N	-0.888149	-1.518277	0.251929
C42	C	-0.860865	-1.451020	0.285335
O43	O	-0.889119	-1.393849	0.313752
C44	C	-0.806262	-1.450985	0.285330
C45	C	-0.778941	-1.518201	0.251917
C46	C	-0.778900	-1.652667	0.185104
C47	C	-0.724300	-1.652624	0.185096
C48	C	-0.697020	-1.585370	0.218499
C49	C	-0.724341	-1.518159	0.251909
C50	C	-0.778979	-1.383734	0.318739
C51	C	-0.724372	-1.383706	0.318732
C52	C	-0.697051	-1.450922	0.285318
C53	C	-0.642460	-1.450863	0.285305
N54	N	-0.615137	-1.518082	0.251897
C55	C	-0.642417	-1.585336	0.218494
C56	C	-0.975535	-1.451099	0.285343
C57	C	-1.030138	-1.451127	0.285346
C58	C	-1.030094	-1.585605	0.218532
C59	C	-0.975491	-1.585571	0.218528
C60	C	-0.948212	-1.518318	0.251936
C61	C	-0.527752	-1.585241	0.218481
C62	C	-0.473146	-1.585190	0.218475
C63	C	-0.473194	-1.450716	0.285290
C64	C	-0.527795	-1.450763	0.285294
C65	C	-0.555072	-1.518034	0.251888
O66	O	-0.614196	-1.393671	0.313684
O67	O	-0.614155	-1.642507	0.190087
C68	C	-0.115537	-1.518298	0.251930
C69	C	-0.057423	-1.518386	0.251945
C70	C	-0.251900	-1.518126	0.388267
C71	C	-0.251897	-1.518140	0.446381
C72	C	-0.251917	-0.792125	0.251905
C73	C	-0.251916	-0.908902	0.251901
C74	C	-0.251881	-1.518119	0.116052
C75	C	-0.251738	-1.518308	0.057938
C76	C	-0.218359	-1.585472	0.806762
C77	C	-0.218344	-1.585485	0.861367
O78	O	-0.189891	-1.642649	0.889619
N79	N	-0.251774	-1.518256	0.888664
C80	C	-0.285216	-1.451002	0.861354
O81	O	-0.313649	-1.393819	0.889586
C82	C	-0.285228	-1.450985	0.806751
C83	C	-0.251800	-1.518226	0.779456
C84	C	-0.184933	-1.652707	0.779468
C85	C	-0.184949	-1.652695	0.724867
C86	C	-0.218390	-1.585449	0.697561
C87	C	-0.251815	-1.518214	0.724856
C88	C	-0.318667	-1.383726	0.779442
C89	C	-0.318675	-1.383714	0.724835
C90	C	-0.285247	-1.450955	0.697540
C91	C	-0.285271	-1.450955	0.642949
N92	N	-0.251842	-1.518184	0.615652
C93	C	-0.218401	-1.585431	0.642958
C94	C	-0.285189	-1.451043	0.976025
C95	C	-0.285181	-1.451065	1.030627
C96	C	-0.218308	-1.585547	1.030636
C97	C	-0.218319	-1.585529	0.976033
C98	C	-0.251760	-1.518272	0.948727
C99	C	-0.218436	-1.585402	0.528293
C100	C	-0.218456	-1.585387	0.473687
C101	C	-0.285326	-1.450901	0.473683
C102	C	-0.285309	-1.450920	0.528284
C103	C	-0.251859	-1.518173	0.555587
O104	O	-0.313709	-1.393818	0.614662
O105	O	-0.189968	-1.642595	0.614719
H106	H	-0.056040	-1.123377	0.134530
N107	N	-0.422924	-0.738451	0.422308
N108	N	-0.468486	-0.770203	0.429386
H109	H	-0.492653	-0.730627	0.453466
N110	N	-0.319752	-0.666566	0.406273
N111	N	-0.274187	-0.634837	0.399193
H112	H	-0.261530	-0.569599	0.417546
H113	H	-0.312423	-1.396272	0.953796
N114	N	-0.252053	-0.777494	0.338820
N115	N	-0.236403	-0.696752	0.361543
H116	H	-0.199588	-0.671094	0.355830
N117	N	-0.251775	-1.259755	0.164976
N118	N	-0.282444	-1.267109	0.127248
H119	H	-0.319261	-1.292752	0.132962
H120	H	-0.953250	-1.640304	0.191320
H121	H	-0.550040	-1.396034	0.312504
H122	H	-0.801106	-1.707439	0.157903
H123	H	-0.191099	-1.640281	0.953813
H124	H	-0.450904	-1.639925	0.191264
N125	N	-0.458368	-0.921238	0.370870
N126	N	-0.466131	-1.010481	0.389415
H127	H	-0.502945	-1.036137	0.395140
H128	H	-0.191157	-0.919122	0.191351
H129	H	-0.180440	-1.351955	0.102784
H130	H	-0.157699	-1.707468	0.801695
N131	N	-0.184151	-1.654234	1.058542
N132	N	-0.184148	-1.654228	1.107295
H133	H	-0.160027	-1.702735	1.127006
N134	N	-0.555601	-1.653960	0.184354
N135	N	-0.531193	-1.713957	0.154526
H136	H	-0.550861	-1.762485	0.130421
N137	N	-0.184298	-1.654056	0.445808
N138	N	-0.150986	-1.617133	0.415342
H139	H	-0.126861	-1.665626	0.395653
N140	N	-0.080924	-1.298828	0.081455
N141	N	-0.096589	-1.379561	0.058736
H142	H	-0.072433	-1.419151	0.034650
N143	N	-1.058033	-1.382444	0.319472
N144	N	-1.033663	-1.322400	0.349289
H145	H	-1.053362	-1.273892	0.373393
N146	N	-0.113154	-1.005092	0.200373
N147	N	-0.067590	-0.973363	0.193288
H148	H	-0.054928	-0.908136	0.211647
H149	H	-0.450974	-1.395955	0.312484
N150	N	-0.184263	-1.654099	0.556169
N151	N	-0.154422	-1.714119	0.531784
H152	H	-0.130288	-1.762639	0.551471
H153	H	-0.801214	-1.328994	0.345945
H154	H	-0.702059	-1.707361	0.157890
H155	H	-1.052316	-1.640371	0.191336
H156	H	-0.953328	-1.396325	0.312547
H157	H	-0.312407	-1.396322	1.052845
H158	H	-0.702164	-1.328942	0.345938
N159	N	-0.352826	-1.315051	0.807305
N160	N	-0.382681	-1.255027	0.782908
H161	H	-0.406811	-1.206526	0.802585
N162	N	-0.150800	-1.721389	0.696999
N163	N	-0.120947	-1.781420	0.721395
H164	H	-0.096826	-1.829938	0.701717
N165	N	-0.352835	-1.314996	0.696952
N166	N	-0.382675	-1.254968	0.721333
H167	H	-0.406800	-1.206436	0.701643
N168	N	-0.319440	-1.382211	0.556168
N169	N	-0.315953	-1.285274	0.550057
H170	H	-0.340050	-1.236733	0.569750
N171	N	-0.319612	-1.129473	0.319353
N172	N	-0.349510	-1.080458	0.349152
H173	H	-0.373674	-1.120005	0.373229
N174	N	-0.390670	-1.032152	0.303394
N175	N	-0.436235	-1.063883	0.310475
H176	H	-0.448893	-1.129116	0.292119
H177	H	-0.312555	-1.396154	0.451441
