data_functionalizedCrystal
_audit_creation_method	'MofGen! by Chris Wilmer'
_symmetry_space_group_name_H-M	'P1'
_symmetry_Int_Tables_number	1
_symmetry_cell_setting	triclinic
loop_
_symmetry_equiv_pos_as_xyz
  x,y,z
_cell_length_a	19.377372
_cell_length_b	19.377369
_cell_length_c	19.377372
_cell_angle_alpha	62.058157
_cell_angle_beta	93.588494
_cell_angle_gamma	62.069167
loop_
_atom_site_label
_atom_site_type_symbol
_atom_site_fract_x
_atom_site_fract_y
_atom_site_fract_z
Zr1	Zr	0.435549	0.939463	-0.001256
O2	O	0.306590	1.070589	-0.082286
O3	O	0.485587	0.808337	0.000849
O4	O	0.437727	0.987395	-0.130266
O5	O	0.380253	0.853721	0.178116
O6	O	0.529222	1.025205	-0.142252
O7	O	0.354449	0.891531	0.048829
O8	O	0.614833	0.704902	0.092289
O9	O	0.294641	1.174023	-0.056425
O10	O	0.562517	0.890487	0.020269
O11	O	0.513493	0.834053	0.125699
O12	O	0.457145	1.044871	-0.028672
O13	O	0.408120	0.988437	0.076759
Zr14	Zr	0.622626	0.939461	0.185824
Zr15	Zr	0.581473	0.999764	-0.020373
Zr16	Zr	0.476703	0.879160	0.204941
Zr17	Zr	0.416492	1.104428	0.039989
Zr18	Zr	0.641683	0.774496	0.144579
O19	O	0.572589	1.070587	0.183718
O20	O	0.514074	1.156330	-0.109468
O21	O	0.365105	0.984846	0.210900
O22	O	0.751585	0.808335	0.266854
O23	O	0.693071	0.894078	-0.026333
O24	O	0.544101	0.722594	0.294036
O25	O	0.677923	1.025203	0.006452
O26	O	0.620448	0.891529	0.314834
O27	O	0.528953	0.853719	0.326820
O28	O	0.703726	0.987393	0.135738
O29	O	0.410631	1.221955	-0.071621
O30	O	0.647545	0.656969	0.256188
O31	O	0.763534	0.704901	0.240993
O32	O	0.730823	0.752834	0.077093
O33	O	0.327352	1.126090	0.107474
O34	O	0.443342	1.174022	0.092279
O35	O	0.601031	0.834053	0.213239
O36	O	0.650055	0.890487	0.107809
O37	O	0.544683	1.044871	0.058868
O38	O	0.495658	0.988437	0.164299
C39	C	0.552925	0.733115	0.040692
C40	C	0.561015	0.663083	0.023183
C41	C	0.460015	0.285198	0.240999
C42	C	0.467724	0.219319	0.224603
C43	C	0.518902	0.278242	0.114541
C44	C	0.511202	0.344123	0.130931
C45	C	0.481757	0.347595	0.194161
C46	C	0.532943	0.406521	0.084093
C47	C	0.525238	0.472400	0.100479
C48	C	0.495793	0.475881	0.163703
C49	C	0.474052	0.413474	0.210547
C50	C	0.562382	0.403052	0.020860
C51	C	0.584123	0.465450	-0.025979
C52	C	0.576424	0.531326	-0.009589
C53	C	0.546979	0.534807	0.053635
C54	C	0.598165	0.593732	-0.056433
C55	C	0.590460	0.659611	-0.040047
C56	C	0.539274	0.600686	0.070021
C57	C	0.346560	0.864034	0.116196
C58	C	0.284612	0.838434	0.124312
C59	C	-0.194140	1.157167	0.023268
C60	C	-0.252335	1.133091	0.030902
C61	C	-0.142325	0.971926	0.081992
C62	C	-0.084118	0.995988	0.074366
C63	C	-0.110033	1.088610	0.045003
C64	C	-0.000011	0.927430	0.096101
C65	C	0.058189	0.951492	0.088472
C66	C	0.032282	1.044110	0.059108
C67	C	-0.051833	1.112671	0.037374
C68	C	0.025901	0.834810	0.125459
C69	C	0.110008	0.766253	0.147194
C70	C	0.168211	0.790312	0.139570
C71	C	0.142304	0.882930	0.110206
C72	C	0.252326	0.721751	0.161305
C73	C	0.310526	0.745812	0.153675
C74	C	0.200505	0.906992	0.102577
C75	C	0.711615	1.014890	0.068371
C76	C	0.773564	1.040490	0.060256
C77	C	0.477611	1.014892	-0.165638
C78	C	0.460141	1.040492	-0.253174
C79	C	0.505250	1.145808	0.143875
C80	C	0.497160	1.215840	0.161385
C81	C	0.677675	0.721756	-0.413338
C82	C	0.661241	0.745831	-0.495598
C83	C	0.551240	0.906996	-0.546679
C84	C	0.567667	0.882935	-0.464422
C85	C	0.630885	0.790313	-0.397757
C86	C	0.520878	0.951493	-0.448841
C87	C	0.537301	0.927433	-0.366591
C88	C	0.600514	0.834815	-0.299922
C89	C	0.647309	0.766253	-0.315507
C90	C	0.457656	1.044113	-0.515507
C91	C	0.410867	1.112671	-0.499925
C92	C	0.427294	1.088613	-0.417675
C93	C	0.490507	0.995994	-0.351006
C94	C	0.380499	1.157174	-0.402089
C95	C	0.396923	1.133114	-0.319839
C96	C	0.506930	0.971934	-0.268755
C97	C	0.580564	0.864032	0.350206
C98	C	0.598035	0.838432	0.437742
C99	C	0.735453	0.808543	0.016780
C100	C	0.805491	0.764111	-0.008845
C101	C	0.604402	0.657686	0.298614
C102	C	0.629962	0.562053	0.368641
C103	C	0.786929	0.733114	0.274702
C104	C	0.874438	0.663081	0.336613
C105	C	0.271246	1.145810	-0.090134
C106	C	0.183737	1.215843	-0.152045
C107	C	0.322722	1.070380	0.167788
C108	C	0.252684	1.114813	0.193413
C109	C	0.453774	1.221238	-0.114046
C110	C	0.428213	1.316871	-0.184073
C111	C	0.792686	0.743248	-0.066583
C112	C	0.858485	0.701511	-0.090677
C113	C	0.937089	0.680632	-0.057028
C114	C	0.949892	0.701501	0.000713
C115	C	0.884093	0.743243	0.024801
C116	C	0.687662	0.517141	0.447230
C117	C	0.711677	0.427290	0.513038
C118	C	0.677996	0.382350	0.500253
C119	C	0.620290	0.427271	0.421657
C120	C	0.596271	0.517123	0.355852
C121	C	0.941130	0.659653	0.310652
C122	C	1.023357	0.593864	0.368818
C123	C	1.038891	0.531499	0.452942
C124	C	0.972192	0.534930	0.478903
C125	C	0.889966	0.600723	0.420739
C126	C	0.117044	1.219279	-0.126082
C127	C	0.034815	1.285088	-0.184243
C128	C	0.019280	1.347457	-0.268366
C129	C	0.085980	1.344021	-0.294329
C130	C	0.168208	1.278217	-0.236168
C131	C	0.265486	1.135685	0.251144
C132	C	0.199682	1.177447	0.275220
C133	C	0.121077	1.198329	0.241568
C134	C	0.108275	1.177456	0.183831
C135	C	0.174077	1.135702	0.159751
C136	C	0.461909	1.361783	-0.171264
C137	C	0.437908	1.451634	-0.237058
C138	C	0.380206	1.496574	-0.315658
C139	C	0.346509	1.451654	-0.328466
C140	C	0.370515	1.361802	-0.262675
H141	H	0.436039	0.288023	0.292487
Cl142	Cl	0.066438	1.422431	-0.400089
Cl143	Cl	0.577958	0.370761	0.405598
H144	H	0.758666	0.390727	0.577028
Cl145	Cl	0.621158	0.804563	-0.196519
Cl146	Cl	0.338111	1.219306	-0.300249
Cl147	Cl	0.252044	1.273903	-0.268822
Cl148	Cl	0.350032	1.609535	-0.398358
H149	H	0.329022	1.232584	-0.456378
H150	H	0.067503	1.232328	0.261182
Cl151	Cl	-0.226712	1.273606	-0.013635
Cl152	Cl	0.009453	1.203709	0.141537
Cl153	Cl	0.105447	1.074362	0.049513
Cl154	Cl	0.440385	0.140877	0.283491
Cl155	Cl	0.364295	1.109448	0.293456
Cl156	Cl	1.019800	0.628153	-0.087318
H157	H	0.210122	1.194433	0.322235
H158	H	0.835668	0.603501	0.441888
Cl159	Cl	0.157971	1.109459	0.087178
H160	H	-0.072931	1.188085	0.013491
Cl161	Cl	0.708202	0.269391	0.582989
H162	H	0.848045	0.684524	-0.137692
H163	H	0.508893	1.325205	-0.107269
Cl164	Cl	1.107194	0.589562	0.336162
H165	H	0.129678	1.168497	-0.057589
Cl166	Cl	0.900207	0.769457	0.097395
Cl167	Cl	0.572061	0.320234	0.000259
Cl168	Cl	0.555914	0.273870	0.035054
H169	H	0.343069	1.325243	-0.273115
H170	H	0.549291	0.553682	0.291862
Cl171	Cl	0.730018	0.573615	0.463322
H172	H	1.105849	0.477930	0.500294
Cl173	Cl	0.635167	0.589366	-0.135926
Cl174	Cl	0.502264	0.605050	0.149516
H175	H	0.465351	1.488196	-0.226612
H176	H	0.928497	0.710426	0.242156
H177	H	0.984853	0.484144	0.547405
H178	H	0.179406	0.982406	0.078695
Cl179	Cl	0.331392	1.229103	-0.583738
H180	H	0.299526	1.488258	-0.392471
Cl181	Cl	0.726809	0.649822	-0.231696
H182	H	1.013899	0.684496	0.028104
Cl183	Cl	-0.358078	1.219291	0.003565
H184	H	0.728686	0.760253	-0.093998
Cl185	Cl	0.757175	0.605325	-0.329528
H186	H	-0.047678	1.401035	-0.315717
Cl187	Cl	0.486102	0.558705	0.184300
Cl188	Cl	0.437042	0.417839	0.290042
H189	H	0.608094	0.462616	-0.077463
H190	H	0.608163	0.710419	-0.078188
H191	H	-0.019484	1.287871	-0.163089
H192	H	-0.021494	0.815225	0.131663
Cl193	Cl	0.142576	0.649818	0.184105
Cl194	Cl	-0.109757	0.855491	0.118903
H195	H	0.379015	0.689981	0.171390
Cl196	Cl	0.284890	0.605320	0.198206
H197	H	0.558412	0.896514	-0.214472
H198	H	0.499766	0.982408	-0.600967
Cl199	Cl	0.720070	0.659633	-0.515180
H200	H	0.444286	1.063699	-0.582478
