data_functionalizedCrystal
_audit_creation_method	'MofGen! by Chris Wilmer'
_symmetry_space_group_name_H-M	'P1'
_symmetry_Int_Tables_number	1
_symmetry_cell_setting	triclinic
loop_
_symmetry_equiv_pos_as_xyz
  x,y,z
_cell_length_a	35.288095
_cell_length_b	35.282864
_cell_length_c	35.277682
_cell_angle_alpha	119.997580
_cell_angle_beta	90.001496
_cell_angle_gamma	59.985218
loop_
_atom_site_label
_atom_site_type_symbol
_atom_site_fract_x
_atom_site_fract_y
_atom_site_fract_z
O1	O	0.322911	0.271314	0.011276
O2	O	0.267828	0.193691	-0.011224
O3	O	0.267802	0.271314	0.066398
O4	O	0.322937	0.193692	-0.066347
O5	O	0.204756	0.334360	0.066398
O6	O	0.204781	0.256738	-0.011225
O7	O	0.259865	0.334361	0.011275
Zn8	Zn	0.222313	0.305559	0.000025
Zn9	Zn	0.305380	0.222493	0.000026
O10	O	0.259890	0.256738	-0.066347
C11	C	0.431729	0.534550	0.034188
C12	C	0.408825	0.511846	0.034506
C13	C	0.500372	0.465907	0.034188
C14	C	0.477364	0.443308	0.034507
C15	C	0.431751	0.465905	0.034185
C16	C	0.477342	0.511849	0.034510
C17	C	0.389778	0.687658	0.021766
C18	C	0.368166	0.731021	0.018253
C19	C	0.322966	0.752772	0.016488
C20	C	0.299533	0.799784	0.012670
C21	C	0.299378	0.731159	0.018239
C22	C	0.320989	0.687804	0.021758
C23	C	0.366191	0.666053	0.023521
C24	C	0.320615	0.411555	0.021749
C25	C	0.298872	0.386434	0.018233
C26	C	0.322333	0.339462	0.016466
C27	C	0.298765	0.312217	0.012647
C28	C	0.367539	0.317615	0.018221
C29	C	0.389278	0.342740	0.021745
C30	C	0.365811	0.389712	0.023506
C31	C	0.665869	0.411567	0.021766
C32	C	0.712742	0.386445	0.018248
C33	C	0.736265	0.339473	0.016483
C34	C	0.787087	0.312230	0.012666
C35	C	0.712916	0.317623	0.018232
C36	C	0.666045	0.342746	0.021749
C37	C	0.642524	0.389722	0.023520
C38	C	0.389621	0.619037	0.027333
C39	C	0.408298	0.581562	0.030373
C40	C	0.551193	0.438668	0.030373
C41	C	0.591702	0.416957	0.027333
C42	C	0.408179	0.438663	0.030366
C43	C	0.389389	0.416950	0.027323
C44	C	0.163412	0.071319	-0.023517
C45	C	0.186810	0.024538	-0.020297
C46	C	0.117798	0.094022	-0.023837
C47	C	0.163393	0.139959	-0.023522
C48	C	0.186771	0.166568	-0.020306
C49	C	0.117779	0.162558	-0.023841
C50	C	0.094769	0.139963	-0.023517
C51	C	0.044773	0.166575	-0.020296
C52	C	0.186318	0.094019	-0.023841
C53	C	0.004382	0.188075	-0.017693
C54	C	0.205713	-0.013257	-0.017694
C55	C	0.205658	0.188065	-0.017707
C56	C	-0.046291	0.215048	-0.014428
C57	C	0.229427	-0.060672	-0.014429
C58	C	0.229352	0.215035	-0.014447
C59	C	0.431879	0.061861	-0.438508
C60	C	0.477499	0.015920	-0.461428
C61	C	0.431879	0.061861	-0.369866
C62	C	0.477500	0.015919	-0.392889
C63	C	0.500522	-0.006783	-0.438510
C64	C	0.408960	0.084459	-0.392888
C65	C	0.320685	0.185480	-0.480421
C66	C	0.298925	0.210752	-0.502025
C67	C	0.322380	0.189060	-0.547233
C68	C	0.298793	0.216465	-0.570658
C69	C	0.367595	0.142092	-0.570836
C70	C	0.389348	0.116820	-0.549233
C71	C	0.365891	0.138516	-0.504024
C72	C	0.666051	-0.159888	-0.549701
C73	C	0.712927	-0.203252	-0.571460
C74	C	0.736445	-0.225004	-0.548007
C75	C	0.787272	-0.272016	-0.571592
C76	C	0.713080	-0.203393	-0.502793
C77	C	0.666204	-0.160037	-0.481039
C78	C	0.642692	-0.138285	-0.504498
C79	C	0.320687	0.185478	-0.204331
C80	C	0.298930	0.210753	-0.157452
C81	C	0.322385	0.189061	-0.133937
C82	C	0.298798	0.216466	-0.083106
C83	C	0.367597	0.142097	-0.157301
C84	C	0.389352	0.116826	-0.204179
C85	C	0.365891	0.138518	-0.227692
C86	C	0.389484	0.111111	-0.480601
C87	C	0.408289	0.089266	-0.461931
C88	C	0.408290	0.089265	-0.319038
C89	C	0.389486	0.111109	-0.278522
C90	C	0.551349	-0.053794	-0.462099
C91	C	0.591863	-0.091269	-0.480903
O92	O	0.936564	0.256750	-0.011208
O93	O	0.803835	0.334377	0.011297
O94	O	0.881449	0.256749	-0.066328
O95	O	0.858950	0.334378	0.066417
O96	O	0.881467	0.193707	-0.066320
O97	O	0.803853	0.271334	0.011304
O98	O	0.936582	0.193708	-0.011200
Zn99	Zn	0.870220	0.222512	0.000053
Zn100	Zn	0.870197	0.305573	0.000044
O101	O	0.858968	0.271335	0.066424
O102	O	0.204873	0.925413	-0.011208
O103	O	0.260010	0.815173	0.011298
O104	O	0.260017	0.815160	-0.066327
O105	O	0.204866	0.925426	0.066418
O106	O	0.323044	0.815162	-0.066324
O107	O	0.323036	0.815176	0.011301
O108	O	0.267900	0.925416	-0.011204
Zn109	Zn	0.305475	0.870296	0.000049
Zn110	Zn	0.222435	0.870293	0.000044
O111	O	0.267892	0.925429	0.066421
O112	O	0.936771	-0.397658	-0.602580
O113	O	0.804033	-0.287407	-0.547451
O114	O	0.881628	-0.287405	-0.547449
O115	O	0.859176	-0.397660	-0.602582
O116	O	0.881626	-0.287403	-0.610495
O117	O	0.804032	-0.287405	-0.610497
O118	O	0.936769	-0.397657	-0.665625
Zn119	Zn	0.870400	-0.342531	-0.648071
Zn120	Zn	0.870402	-0.342533	-0.565006
O121	O	0.859175	-0.397659	-0.665627
O122	O	0.267802	0.271314	-0.665312
O123	O	0.322934	0.193695	-0.610189
O124	O	0.322909	0.271316	-0.610185
O125	O	0.267826	0.193693	-0.665316
O126	O	0.259862	0.334364	-0.547137
O127	O	0.259886	0.256742	-0.547141
O128	O	0.204755	0.334362	-0.602265
Zn129	Zn	0.222310	0.305562	-0.564693
Zn130	Zn	0.305378	0.222494	-0.647761
O131	O	0.204779	0.256741	-0.602269
C132	C	0.094676	0.456744	0.293260
C133	C	0.044675	0.503527	0.316652
C134	C	0.117699	0.434042	0.316178
C135	C	0.163320	0.388100	0.224616
C136	C	0.186713	0.361489	0.174613
C137	C	0.186238	0.365502	0.247638
C138	C	0.163320	0.388100	0.293259
C139	C	0.186712	0.361490	0.316650
C140	C	0.117699	0.434042	0.247639
C141	C	0.205611	0.339990	0.335547
C142	C	0.004279	0.541323	0.335550
C143	C	0.205611	0.339989	0.134216
C144	C	0.229320	0.313018	0.359254
C145	C	-0.046400	0.588739	0.359258
C146	C	0.229321	0.313018	0.083536
C147	C	0.846649	0.388134	0.293283
C148	C	0.849877	0.361527	0.316677
C149	C	0.846318	0.434074	0.316198
C150	C	0.846644	0.388128	0.224637
C151	C	0.849866	0.361514	0.174635
C152	C	0.846312	0.434068	0.247656
C153	C	0.846630	0.456773	0.293276
C154	C	0.849837	0.503555	0.316664
C155	C	0.846332	0.365534	0.247663
C156	C	0.852429	0.541349	0.335558
C157	C	0.852485	0.340030	0.335577
C158	C	0.852470	0.340013	0.134238
C159	C	0.855680	0.588765	0.359262
C160	C	0.855757	0.313062	0.359288
C161	C	0.855735	0.313038	0.083559
C162	C	0.163358	1.140023	0.293273
C163	C	0.186733	1.166638	0.316665
C164	C	0.117742	1.162625	0.316188
C165	C	0.163386	1.071368	0.224630
C166	C	0.186789	1.024575	0.174630
C167	C	0.117770	1.094074	0.247650
C168	C	0.094736	1.140023	0.293268
C169	C	0.044738	1.166638	0.316655
C170	C	0.186288	1.094074	0.247655
C171	C	0.004346	1.188140	0.335549
C172	C	0.205616	1.188140	0.335563
C173	C	0.205697	0.986772	0.134235
C174	C	-0.046329	1.215115	0.359253
C175	C	0.229307	1.215115	0.359272
C176	C	0.229418	0.939346	0.083557
C177	C	0.904381	-0.006490	-0.438479
C178	C	0.904694	0.016209	-0.461400
C179	C	0.904368	0.062155	-0.369839
C180	C	0.904680	0.084749	-0.392865
C181	C	0.904362	0.062150	-0.438485
C182	C	0.904699	0.016214	-0.392859
C183	C	0.891997	-0.159589	-0.480382
C184	C	0.888494	-0.202951	-0.501984
C185	C	0.886733	-0.224705	-0.547191
C186	C	0.882927	-0.271716	-0.570613
C187	C	0.888479	-0.203097	-0.570796
C188	C	0.891987	-0.159742	-0.549196
C189	C	0.893746	-0.137988	-0.503987
C190	C	0.891914	0.116483	-0.549680
C191	C	0.888393	0.141599	-0.571441
C192	C	0.886616	0.188570	-0.547990
C193	C	0.882791	0.215811	-0.571576
C194	C	0.888367	0.210420	-0.502777
C195	C	0.891896	0.185300	-0.481021
C196	C	0.893667	0.138329	-0.504477
C197	C	0.891942	0.116509	-0.204304
C198	C	0.888419	0.141635	-0.157425
C199	C	0.886645	0.188606	-0.133913
C200	C	0.882824	0.215852	-0.083083
C201	C	0.888388	0.210451	-0.157279
C202	C	0.891908	0.185325	-0.204156
C203	C	0.893689	0.138350	-0.227667
C204	C	0.897546	-0.090974	-0.480567
C205	C	0.900577	-0.053500	-0.461899
C206	C	0.900549	0.089397	-0.319012
C207	C	0.897506	0.111111	-0.278497
C208	C	0.900537	0.089386	-0.462075
C209	C	0.897490	0.111096	-0.480881
O210	O	0.881505	0.256787	0.452894
O211	O	0.858977	0.334407	0.397768
O212	O	0.936603	0.256786	0.397758
O213	O	0.803879	0.334408	0.452904
O214	O	0.936615	0.193738	0.334715
O215	O	0.858989	0.271359	0.334725
O216	O	0.881516	0.193739	0.389851
Zn217	Zn	0.870254	0.222539	0.352279
Zn218	Zn	0.870239	0.305607	0.435340
O219	O	0.803890	0.271360	0.389861
C220	C	0.500418	0.465827	-0.438470
C221	C	0.477413	0.443223	-0.461389
C222	C	0.431769	0.534480	-0.369832
C223	C	0.408868	0.511772	-0.392855
C224	C	0.431798	0.465822	-0.438473
C225	C	0.477383	0.511777	-0.392852
C226	C	0.665916	0.411487	-0.480375
C227	C	0.712788	0.386367	-0.501977
C228	C	0.736315	0.339388	-0.547182
C229	C	0.787139	0.312143	-0.570604
C230	C	0.712967	0.317533	-0.570785
C231	C	0.666097	0.342657	-0.549185
C232	C	0.642572	0.389636	-0.503978
C233	C	0.389946	0.342180	-0.549659
C234	C	0.368358	0.316902	-0.571417
C235	C	0.323158	0.338592	-0.547965
C236	C	0.299750	0.311185	-0.571549
C237	C	0.299545	0.385568	-0.502755
C238	C	0.321129	0.410849	-0.481001
C239	C	0.366335	0.389147	-0.504458
C240	C	0.389800	0.687620	-0.204303
C241	C	0.368184	0.730989	-0.157425
C242	C	0.322982	0.752743	-0.133912
C243	C	0.299544	0.799764	-0.083084
C244	C	0.299400	0.731124	-0.157276
C245	C	0.321017	0.687755	-0.204152
C246	C	0.366217	0.666009	-0.227663
C247	C	0.591750	0.416873	-0.480558
C248	C	0.551240	0.438586	-0.461890
C249	C	0.408332	0.581502	-0.319005
C250	C	0.389651	0.618984	-0.278492
C251	C	0.408393	0.438411	-0.462061
C252	C	0.389737	0.416562	-0.480864
H253	H	0.495857	0.406337	0.035019
Cl254	Cl	0.636695	0.315278	0.023951
Cl255	Cl	0.894210	-0.132246	-0.423550
H256	H	0.099299	1.075071	0.229162
H257	H	0.223767	1.075074	0.229175
Cl258	Cl	0.636835	-0.132874	-0.424204
H259	H	0.845783	0.453068	0.229170
H260	H	0.387375	0.748613	0.016824
H261	H	0.301899	0.449097	-0.444192
H262	H	0.893324	0.203091	-0.444210
Cl263	Cl	0.845515	0.463414	0.374069
Cl264	Cl	0.636495	-0.132549	-0.579193
Cl265	Cl	0.905497	-0.013129	-0.519272
H266	H	0.262113	0.248993	-0.482805
H267	H	0.099213	0.453045	0.353662
H268	H	0.099252	1.199597	0.353671
H269	H	0.905187	0.121717	-0.374382
Cl270	Cl	0.905500	-0.013111	-0.364316
Cl271	Cl	0.089277	0.064690	-0.024633
H272	H	0.223797	0.075015	-0.024361
Cl273	Cl	0.894147	0.057433	-0.579170
Cl274	Cl	0.886224	0.114173	-0.128053
H275	H	0.887072	-0.220540	-0.482762
H276	H	0.371389	0.530774	-0.374371
Cl277	Cl	0.244097	0.308403	0.219089
H278	H	0.893389	0.078261	-0.223444
H279	H	0.887048	-0.220814	-0.607604
Cl280	Cl	0.505862	0.541184	0.035311
Cl281	Cl	0.894100	0.212789	-0.233528
H282	H	0.893408	-0.142152	-0.568417
H283	H	0.886965	0.123807	-0.608251
Cl284	Cl	0.886141	0.269464	-0.473296
Cl285	Cl	0.742296	-0.230413	-0.628293
Cl286	Cl	0.505961	0.386142	-0.519259
Cl287	Cl	0.506037	-0.013420	-0.364356
H288	H	0.099292	0.199525	-0.024357
H289	H	0.262577	0.748872	0.016802
H290	H	0.646721	0.449816	0.023205
H291	H	0.495978	-0.003084	-0.498915
Cl292	Cl	0.845549	0.308460	0.219129
Cl293	Cl	0.886165	0.269495	-0.127724
H294	H	0.371476	0.121426	-0.374406
H295	H	0.262117	0.248994	-0.138431
H296	H	0.731794	0.404164	-0.482756
H297	H	0.099209	0.453034	0.229153
Cl298	Cl	0.505899	0.541117	-0.364312
H299	H	0.732126	0.279284	-0.607591
Cl300	Cl	0.291195	0.212753	-0.233888
Cl301	Cl	0.742487	0.258571	0.016012
Cl302	Cl	0.291192	0.212754	-0.423589
H303	H	0.387392	0.748583	-0.138404
Cl304	Cl	0.446622	0.660282	-0.233859
Cl305	Cl	0.291336	0.660638	0.023962
Cl306	Cl	0.636341	0.470556	-0.423551
Cl307	Cl	0.242572	0.758474	-0.127720
Cl308	Cl	0.397075	0.114822	-0.627668
H309	H	0.426159	0.078578	-0.568455
H310	H	0.647090	0.324861	-0.568405
Cl311	Cl	0.446772	0.314901	-0.579148
Cl312	Cl	0.398045	0.257851	-0.628247
H313	H	0.262738	0.403233	-0.483662
H314	H	0.301811	0.670158	-0.223173
H315	H	0.732227	-0.221110	-0.483699
H316	H	0.371350	0.530841	0.035012
H317	H	0.426583	0.669953	0.023203
Cl318	Cl	0.742092	0.413913	0.016046
H319	H	0.301503	0.449802	0.023186
H320	H	0.262068	0.404222	0.016799
H321	H	0.386640	0.279372	0.016788
Cl322	Cl	0.446188	0.057785	-0.233549
H323	H	0.426083	0.324950	0.023175
Cl324	Cl	0.397086	0.114824	-0.127741
