data_functionalizedCrystal
_audit_creation_method	'MofGen! by Chris Wilmer'
_symmetry_space_group_name_H-M	'P1'
_symmetry_Int_Tables_number	1
_symmetry_cell_setting	triclinic
loop_
_symmetry_equiv_pos_as_xyz
  x,y,z
_cell_length_a	6.394989
_cell_length_b	17.699083
_cell_length_c	16.176319
_cell_angle_alpha	90.007696
_cell_angle_beta	90.006825
_cell_angle_gamma	84.890363
loop_
_atom_site_label
_atom_site_type_symbol
_atom_site_fract_x
_atom_site_fract_y
_atom_site_fract_z
O1	O	-2.770874	-0.123990	-0.068740
O2	O	-2.162714	-0.130236	-0.068744
O3	O	-2.483976	-0.017099	-0.068735
O4	O	-2.449612	-0.237127	-0.068749
O5	O	-2.483932	-0.017091	0.068758
O6	O	-2.162670	-0.130228	0.068749
O7	O	-2.770830	-0.123982	0.068753
Cu8	Cu	-2.466746	-0.127104	0.081305
Cu9	Cu	-2.466798	-0.127114	-0.081296
O10	O	-2.449568	-0.237119	0.068744
C11	C	-2.482722	0.011114	0.000012
C12	C	-2.479028	0.095170	0.000012
C13	C	-2.450821	-0.265332	-0.000005
C14	C	-2.454515	-0.349388	-0.000011
N15	N	-2.466724	-0.127097	0.195671
C16	C	-2.084876	-0.128997	0.000007
C17	C	-1.848661	-0.125223	0.000010
N18	N	-2.466836	-0.127115	-0.195662
C19	C	-2.667602	0.141867	0.000015
C20	C	-2.664119	0.220846	0.000007
C21	C	-2.472059	0.253126	0.000004
C22	C	-2.283471	0.206424	-0.000001
C23	C	-2.286956	0.127446	0.000000
C24	C	-2.269410	0.524930	-0.000008
C25	C	-2.265939	0.603914	-0.000007
C26	C	-2.646572	0.618330	-0.000001
C27	C	-2.650058	0.539352	0.000000
C28	C	-2.461471	0.492657	-0.000009
C29	C	-2.465250	0.407019	-0.000002
C30	C	-2.468278	0.338763	0.000003
C31	C	-2.609022	-0.077022	0.238939
C32	C	-2.609032	-0.077021	0.325486
C33	C	-2.466754	-0.127100	0.368763
C34	C	-2.324441	-0.177178	0.325489
C35	C	-2.324422	-0.177175	0.238943
C36	C	-2.324512	-0.177193	0.674517
C37	C	-2.324547	-0.177194	0.761069
C38	C	-2.609123	-0.077040	0.761060
C39	C	-2.609104	-0.077036	0.674514
C40	C	-2.466785	-0.127111	0.631247
C41	C	-2.466772	-0.127110	0.537403
C42	C	-2.466774	-0.127105	0.462606
H43	H	-2.824000	0.115590	0.000023
H44	H	-2.817675	0.258863	0.000011
H45	H	-2.208678	-0.217976	0.796304
H46	H	-2.208635	-0.217967	0.639296
Br47	Br	-2.131328	-0.245139	0.384219
H48	H	-2.127092	0.232713	-0.000009
H49	H	-2.109532	0.630193	-0.000008
Br50	Br	-2.910719	0.495547	0.000005
H51	H	-2.115850	0.486920	-0.000015
H52	H	-2.133400	0.089426	-0.000002
Br53	Br	-2.802141	-0.009059	0.180214
Br54	Br	-2.131282	-0.245132	0.180222
H55	H	-2.724900	-0.036245	0.360714
Br56	Br	-2.802272	-0.009078	0.819782
H57	H	-2.800129	0.656359	0.000002
Br58	Br	-2.802212	-0.009074	0.615783
