data_functionalizedCrystal
_audit_creation_method	'MofGen! by Chris Wilmer'
_symmetry_space_group_name_H-M	'P1'
_symmetry_Int_Tables_number	1
_symmetry_cell_setting	triclinic
loop_
_symmetry_equiv_pos_as_xyz
  x,y,z
_cell_length_a	6.817900
_cell_length_b	14.858329
_cell_length_c	14.125286
_cell_angle_alpha	95.641192
_cell_angle_beta	100.396688
_cell_angle_gamma	104.519616
loop_
_atom_site_label
_atom_site_type_symbol
_atom_site_fract_x
_atom_site_fract_y
_atom_site_fract_z
V1	V	-3.996470	-0.127952	-0.300263
O2	O	-3.979253	0.006888	-0.294265
O3	O	-3.953299	-0.254417	-0.298481
O4	O	-3.932530	-0.125659	-0.431095
O5	O	-4.000166	-0.122762	-0.160734
V6	V	-4.481434	-0.111862	-0.283541
O7	O	-4.254567	-0.163246	-0.336944
O8	O	-4.673535	-0.076567	-0.246861
O9	O	-4.301399	0.014604	-0.285324
O10	O	-4.616049	-0.246701	-0.289539
O11	O	-4.595136	-0.117051	-0.423071
O12	O	-4.322168	-0.114154	-0.152710
C13	C	-3.800074	-0.285257	-0.293814
C14	C	-3.845960	-0.388642	-0.293229
C15	C	-3.883219	-0.472601	-0.292745
C16	C	-3.929981	-0.577932	-0.292142
C17	C	-3.967267	-0.661886	-0.291663
C18	C	-4.014032	-0.767223	-0.291058
C19	C	-3.773581	-0.121012	-0.462975
C20	C	-3.802620	-0.119975	-0.569932
C21	C	-4.041467	-0.121860	-0.818058
C22	C	-3.855818	-0.117952	-0.765735
C23	C	-3.826220	-0.119078	-0.656780
C24	C	-4.071074	-0.120734	-0.927023
C25	C	-4.117966	0.045439	-0.289988
C26	C	-4.051318	0.148823	-0.290579
C27	C	-4.144460	-0.118804	-0.120825
C28	C	-4.094659	-0.119837	-0.013867
H29	H	-3.719107	-0.113760	-0.802767
O30	O	-4.204361	-0.126904	-0.773741
C31	C	-4.138064	-0.126909	-0.673243
H32	H	-3.992728	-0.152629	-0.660282
H33	H	-4.265969	-0.175607	-0.645539
H34	H	-4.101886	-0.052497	-0.632644
