data_functionalizedCrystal
_audit_creation_method	'MofGen! by Chris Wilmer'
_symmetry_space_group_name_H-M	'P1'
_symmetry_Int_Tables_number	1
_symmetry_cell_setting	triclinic
loop_
_symmetry_equiv_pos_as_xyz
  x,y,z
_cell_length_a	19.288864
_cell_length_b	19.288865
_cell_length_c	18.366186
_cell_angle_alpha	90.009647
_cell_angle_beta	90.019533
_cell_angle_gamma	83.136245
loop_
_atom_site_label
_atom_site_type_symbol
_atom_site_fract_x
_atom_site_fract_y
_atom_site_fract_z
O1	O	-0.921350	-0.086647	-0.060791
O2	O	-0.588016	0.246686	0.272542
O3	O	-0.254683	0.580019	0.605875
O4	O	-0.719089	-0.098336	-0.060743
O5	O	-0.385756	0.234997	0.272591
O6	O	-0.052422	0.568331	0.605924
O7	O	-0.826064	0.008639	-0.060754
O8	O	-0.492730	0.341972	0.272579
O9	O	-0.159397	0.675305	0.605913
O10	O	-0.814375	-0.193622	-0.060780
O11	O	-0.481042	0.139711	0.272553
O12	O	-0.147708	0.473045	0.605887
O13	O	-0.826052	0.008641	0.060345
O14	O	-0.492719	0.341974	0.393679
O15	O	-0.159385	0.675308	0.727012
O16	O	-0.719077	-0.098334	0.060357
O17	O	-0.385744	0.235000	0.393690
O18	O	-0.052411	0.568333	0.727023
O19	O	-0.921338	-0.086645	0.060308
O20	O	-0.588005	0.246688	0.393641
O21	O	-0.254671	0.580022	0.726975
Zn22	Zn	-0.820206	-0.092489	0.079559
Zn23	Zn	-0.486872	0.240844	0.412893
Zn24	Zn	-0.153539	0.574178	0.746226
Zn25	Zn	-0.820221	-0.092492	-0.079994
Zn26	Zn	-0.486888	0.240841	0.253339
Zn27	Zn	-0.153554	0.574175	0.586672
O28	O	-0.814363	-0.193620	0.060319
O29	O	-0.481030	0.139714	0.393653
O30	O	-0.147696	0.473047	0.726986
C31	C	-0.693207	-0.097959	-0.000187
C32	C	-0.359873	0.235375	0.333147
C33	C	-0.026540	0.568708	0.666480
C34	C	-0.616103	-0.096830	-0.000167
C35	C	-0.282770	0.236504	0.333166
C36	C	0.050564	0.569837	0.666499
C37	C	-0.825682	0.034516	-0.000202
C38	C	-0.492348	0.367850	0.333131
C39	C	-0.159015	0.701183	0.666465
C40	C	-0.824553	0.111620	-0.000195
C41	C	-0.491219	0.444953	0.333138
C42	C	-0.157886	0.778287	0.666471
N43	N	-0.820200	-0.092486	0.188451
N44	N	-0.486867	0.240847	0.521784
N45	N	-0.153534	0.574180	0.855117
C46	C	-0.947220	-0.087022	-0.000250
C47	C	-0.613887	0.246311	0.333084
C48	C	-0.280553	0.579645	0.666417
C49	C	-1.024324	-0.088151	-0.000274
C50	C	-0.690990	0.245182	0.333060
C51	C	-0.357657	0.578516	0.666393
C52	C	-0.571407	-0.159598	-0.000187
C53	C	-0.238073	0.173736	0.333146
C54	C	0.095260	0.507069	0.666480
C55	C	-0.498960	-0.158537	-0.000195
C56	C	-0.165626	0.174796	0.333138
C57	C	0.167707	0.508130	0.666472
C58	C	-0.471212	-0.094705	-0.000198
C59	C	-0.137879	0.238629	0.333135
C60	C	0.195455	0.571962	0.666469
C61	C	-0.515918	-0.031929	-0.000174
C62	C	-0.182585	0.301405	0.333159
C63	C	0.150748	0.634738	0.666492
C64	C	-0.588364	-0.032991	-0.000159
C65	C	-0.255030	0.300342	0.333174
C66	C	0.078303	0.633676	0.666508
C67	C	-0.362954	-0.044526	-0.042642
C68	C	-0.029621	0.288807	0.290691
C69	C	0.303712	0.622140	0.624024
C70	C	-0.290510	-0.043467	-0.042662
C71	C	0.042824	0.289867	0.290671
C72	C	0.376157	0.623200	0.624005
C73	C	-0.247767	-0.091425	-0.000241
C74	C	0.085567	0.241908	0.333092
C75	C	0.418900	0.575242	0.666425
C76	C	-0.277475	-0.140455	0.042189
C77	C	0.055858	0.192878	0.375523
C78	C	0.389192	0.526211	0.708856
C79	C	-0.349921	-0.141518	0.042205
C80	C	-0.016587	0.191816	0.375538
C81	C	0.316746	0.525149	0.708871
C82	C	-0.392658	-0.093546	-0.000214
C83	C	-0.059325	0.239788	0.333119
C84	C	0.274009	0.573121	0.666453
C85	C	-0.124514	-0.153047	-0.000269
C86	C	0.208819	0.180286	0.333065
C87	C	0.542152	0.513619	0.666398
C88	C	-0.052066	-0.151984	-0.000272
C89	C	0.281267	0.181349	0.333061
C90	C	0.614600	0.514683	0.666395
C91	C	-0.069026	-0.025374	-0.000259
C92	C	0.264307	0.307960	0.333075
C93	C	0.597640	0.641293	0.666408
C94	C	-0.141473	-0.026439	-0.000248
C95	C	0.191860	0.306894	0.333085
C96	C	0.525194	0.640228	0.666419
C97	C	-0.169212	-0.090278	-0.000256
C98	C	0.164121	0.243056	0.333077
C99	C	0.497454	0.576389	0.666410
C100	C	-0.814745	-0.219497	-0.000234
C101	C	-0.481412	0.113836	0.333099
C102	C	-0.148078	0.447169	0.666432
C103	C	-0.815874	-0.296601	-0.000246
C104	C	-0.482541	0.036733	0.333088
C105	C	-0.149207	0.370066	0.666421
C106	C	-0.887321	0.156316	-0.000207
C107	C	-0.553987	0.489650	0.333126
C108	C	-0.220654	0.822983	0.666460
C109	C	-0.886260	0.228763	-0.000218
C110	C	-0.552927	0.562097	0.333115
C111	C	-0.219593	0.895430	0.666448
C112	C	-0.822428	0.256511	-0.000203
C113	C	-0.489094	0.589844	0.333130
C114	C	-0.155761	0.923178	0.666463
C115	C	-0.759652	0.211805	-0.000196
C116	C	-0.426318	0.545138	0.333137
C117	C	-0.092985	0.878471	0.666471
C118	C	-0.760714	0.139359	-0.000192
C119	C	-0.427381	0.472693	0.333141
C120	C	-0.094047	0.806026	0.666475
C121	C	-0.772244	0.364799	0.042227
C122	C	-0.438911	0.698132	0.375561
C123	C	-0.105577	1.031466	0.708894
C124	C	-0.771184	0.437244	0.042228
C125	C	-0.437851	0.770577	0.375561
C126	C	-0.104518	1.103910	0.708894
C127	C	-0.819148	0.479956	-0.000219
C128	C	-0.485815	0.813290	0.333114
C129	C	-0.152481	1.146623	0.666448
C130	C	-0.868184	0.450218	-0.042657
C131	C	-0.534850	0.783551	0.290677
C132	C	-0.201517	1.116884	0.624010
C133	C	-0.869246	0.377772	-0.042653
C134	C	-0.535913	0.711105	0.290681
C135	C	-0.202579	1.044439	0.624014
C136	C	-0.821269	0.335065	-0.000208
C137	C	-0.487935	0.668398	0.333125
C138	C	-0.154602	1.001732	0.666459
C139	C	-0.880770	0.603209	-0.000244
C140	C	-0.547437	0.936542	0.333090
C141	C	-0.214104	1.269875	0.666423
C142	C	-0.879707	0.675657	-0.000259
C143	C	-0.546374	1.008990	0.333074
C144	C	-0.213040	1.342323	0.666407
C145	C	-0.753097	0.658697	-0.000230
C146	C	-0.419763	0.992030	0.333104
C147	C	-0.086430	1.325363	0.666437
C148	C	-0.754162	0.586250	-0.000221
C149	C	-0.420829	0.919583	0.333112
C150	C	-0.087495	1.252917	0.666445
C151	C	-0.818000	0.558511	-0.000225
C152	C	-0.484667	0.891844	0.333109
C153	C	-0.151334	1.225177	0.666442
C154	C	-0.867599	-0.045135	0.772996
C155	C	-0.534265	0.288199	1.106329
C156	C	-0.200932	0.621532	1.439663
C157	C	-0.867600	-0.045136	0.696768
C158	C	-0.534266	0.288197	1.030101
C159	C	-0.200933	0.621530	1.363435
C160	C	-0.820219	-0.092487	0.658662
C161	C	-0.486886	0.240847	0.991995
C162	C	-0.153553	0.574180	1.325329
C163	C	-0.772846	-0.139851	0.696790
C164	C	-0.439513	0.193482	1.030123
C165	C	-0.106179	0.526816	1.363456
C166	C	-0.772851	-0.139853	0.773016
C167	C	-0.439518	0.193480	1.106349
C168	C	-0.106184	0.526814	1.439683
C169	C	-0.756927	-0.101756	0.537922
C170	C	-0.423594	0.231577	0.871255
C171	C	-0.090260	0.564910	1.204589
C172	C	-0.756921	-0.101750	0.461697
C173	C	-0.423588	0.231584	0.795030
C174	C	-0.090254	0.564917	1.128364
C175	C	-0.820204	-0.092485	0.423554
C176	C	-0.486871	0.240848	0.756888
C177	C	-0.153537	0.574182	1.090221
C178	C	-0.883496	-0.083212	0.461646
C179	C	-0.550162	0.250121	0.794979
C180	C	-0.216829	0.583454	1.128313
C181	C	-0.883501	-0.083214	0.537872
C182	C	-0.550167	0.250119	0.871206
C183	C	-0.216834	0.583453	1.204539
C184	C	-0.820209	-0.092490	0.576007
C185	C	-0.486875	0.240843	0.909341
C186	C	-0.153542	0.574176	1.242674
C187	C	-0.867578	-0.045128	0.302781
C188	C	-0.534245	0.288205	0.636114
C189	C	-0.200912	0.621538	0.969447
C190	C	-0.867580	-0.045135	0.226552
C191	C	-0.534247	0.288199	0.559885
C192	C	-0.200914	0.621532	0.893218
C193	C	-0.772821	-0.139846	0.226575
C194	C	-0.439487	0.193487	0.559908
C195	C	-0.106154	0.526820	0.893241
C196	C	-0.772825	-0.139843	0.302802
C197	C	-0.439492	0.193490	0.636136
C198	C	-0.106158	0.526823	0.969469
C199	C	-0.820203	-0.092481	0.340901
C200	C	-0.486870	0.240853	0.674234
C201	C	-0.153536	0.574186	1.007568
N202	N	-0.820229	-0.092490	0.811115
N203	N	-0.486896	0.240843	1.144448
N204	N	-0.153563	0.574176	1.477781
H205	H	-0.593987	-0.211580	-0.000195
H206	H	-0.260654	0.121753	0.333138
H207	H	0.072680	0.455087	0.666471
Cl208	Cl	-0.644557	0.045924	-0.000135
Cl209	Cl	-0.311223	0.379257	0.333198
Cl210	Cl	0.022110	0.712591	0.666531
H211	H	-0.734269	-0.178406	0.665760
H212	H	-0.400936	0.154928	0.999093
H213	H	-0.067603	0.488261	1.332427
Cl214	Cl	-0.679405	0.246686	-0.000183
Cl215	Cl	-0.346072	0.580020	0.333150
Cl216	Cl	-0.012739	0.913353	0.666484
Cl217	Cl	-0.713268	-0.199375	0.350728
Cl218	Cl	-0.379935	0.133958	0.684061
Cl219	Cl	-0.046602	0.467292	1.017394
Cl220	Cl	-0.197666	0.052474	-0.000228
Cl221	Cl	0.135668	0.385807	0.333106
Cl222	Cl	0.469001	0.719141	0.666439
Cl223	Cl	-0.963057	-0.071560	0.413704
Cl224	Cl	-0.629724	0.261774	0.747037
Cl225	Cl	-0.296390	0.595107	1.080371
H226	H	-0.015674	-0.203099	-0.000284
H227	H	0.317659	0.130234	0.333050
H228	H	0.650992	0.463567	0.666383
Cl229	Cl	-0.416682	0.015771	-0.095976
Cl230	Cl	-0.083348	0.349104	0.237357
Cl231	Cl	0.249985	0.682437	0.570690
Cl232	Cl	-0.442760	-0.237451	-0.000218
Cl233	Cl	-0.109426	0.095882	0.333116
Cl234	Cl	0.223907	0.429216	0.666449
Cl235	Cl	-0.967575	0.121448	-0.000232
Cl236	Cl	-0.634241	0.454781	0.333101
Cl237	Cl	-0.300908	0.788114	0.666435
Cl238	Cl	-0.481037	0.048318	-0.000174
Cl239	Cl	-0.147703	0.381651	0.333160
Cl240	Cl	0.185630	0.714984	0.666493
H241	H	-0.703049	0.549857	-0.000208
H242	H	-0.369716	0.883190	0.333126
H243	H	-0.036383	1.216524	0.666459
Cl244	Cl	-0.927143	0.014409	0.350677
Cl245	Cl	-0.593809	0.347742	0.684010
Cl246	Cl	-0.260476	0.681076	1.017344
H247	H	-0.937375	0.265162	-0.000231
H248	H	-0.604041	0.598495	0.333103
H249	H	-0.270708	0.931829	0.666436
H250	H	-0.705385	-0.109292	0.430689
H251	H	-0.372052	0.224041	0.764022
H252	H	-0.038719	0.557375	1.097355
H253	H	-0.266327	-0.003546	-0.077215
H254	H	0.067007	0.329787	0.256119
H255	H	0.400340	0.663121	0.589452
H256	H	-0.909171	0.353562	-0.077208
H257	H	-0.575838	0.686895	0.256125
H258	H	-0.242504	1.020228	0.589458
H259	H	-0.906158	-0.006574	0.195515
H260	H	-0.572825	0.326759	0.528848
H261	H	-0.239491	0.660092	0.862181
H262	H	-0.734276	-0.178416	0.804053
H263	H	-0.400943	0.154917	1.137386
H264	H	-0.067610	0.488250	1.470720
Cl265	Cl	-0.223749	-0.200751	0.095522
Cl266	Cl	0.109585	0.132582	0.428855
Cl267	Cl	0.442918	0.465916	0.762188
Cl268	Cl	-0.387267	-0.203150	0.095547
Cl269	Cl	-0.053934	0.130184	0.428880
Cl270	Cl	0.279400	0.463517	0.762214
Cl271	Cl	-0.677363	-0.113407	0.585865
Cl272	Cl	-0.344030	0.219926	0.919198
Cl273	Cl	-0.010697	0.553259	1.252531
H274	H	-0.147101	-0.205028	-0.000265
H275	H	0.186233	0.128305	0.333069
H276	H	0.519566	0.461638	0.666402
H277	H	-0.907240	0.484993	-0.077221
H278	H	-0.573907	0.818327	0.256112
H279	H	-0.240573	1.151660	0.589446
H280	H	-0.932751	0.580622	-0.000250
H281	H	-0.599418	0.913956	0.333083
H282	H	-0.266085	1.247289	0.666417
Cl283	Cl	-0.034151	0.054873	-0.000254
Cl284	Cl	0.299183	0.388207	0.333080
Cl285	Cl	0.632516	0.721540	0.666413
Cl286	Cl	-0.713262	-0.199378	0.178675
Cl287	Cl	-0.379928	0.133956	0.512008
Cl288	Cl	-0.046595	0.467289	0.845342
Cl289	Cl	-0.963063	-0.071565	0.585757
Cl290	Cl	-0.629730	0.261768	0.919090
Cl291	Cl	-0.296396	0.595102	1.252423
H292	H	-0.930822	0.712049	-0.000273
H293	H	-0.597489	1.045382	0.333060
H294	H	-0.264156	1.378715	0.666394
Cl295	Cl	-0.672850	0.693572	-0.000215
Cl296	Cl	-0.339516	1.026906	0.333118
Cl297	Cl	-0.006183	1.360239	0.666451
H298	H	-0.906178	-0.006571	0.804013
H299	H	-0.572845	0.326762	1.137347
H300	H	-0.239512	0.660096	1.470680
Cl301	Cl	-0.709543	0.474623	0.095580
Cl302	Cl	-0.376210	0.807956	0.428913
Cl303	Cl	-0.042876	1.141289	0.762247
H304	H	-0.906175	-0.006572	0.665726
H305	H	-0.572842	0.326761	0.999059
H306	H	-0.239508	0.660094	1.332393
H307	H	-0.733184	0.330027	0.076796
H308	H	-0.399851	0.663361	0.410130
H309	H	-0.066518	0.996694	0.743463
H310	H	-0.709599	0.102967	-0.000182
H311	H	-0.376266	0.436300	0.333151
H312	H	-0.042932	0.769633	0.666484
