data_functionalizedCrystal
_audit_creation_method	'MofGen! by Chris Wilmer'
_symmetry_space_group_name_H-M	'P1'
_symmetry_Int_Tables_number	1
_symmetry_cell_setting	triclinic
loop_
_symmetry_equiv_pos_as_xyz
  x,y,z
_cell_length_a	12.827893
_cell_length_b	13.031981
_cell_length_c	12.827885
_cell_angle_alpha	82.783254
_cell_angle_beta	89.980728
_cell_angle_gamma	97.191799
loop_
_atom_site_label
_atom_site_type_symbol
_atom_site_fract_x
_atom_site_fract_y
_atom_site_fract_z
Zn1	Zn	1.544847	-0.416067	-0.537948
Zn2	Zn	1.522547	-0.590879	-0.340982
Zn3	Zn	1.370082	-0.416117	-0.363215
Zn4	Zn	1.347890	-0.590801	-0.515692
O5	O	1.446341	-0.503466	-0.439459
O6	O	1.688123	-0.439267	-0.511830
O7	O	1.502277	-0.567750	-0.197688
O8	O	1.411885	-0.269845	-0.405013
O9	O	1.671740	-0.567701	-0.367119
O10	O	1.540284	-0.269808	-0.533388
O11	O	1.390262	-0.439354	-0.214023
O12	O	1.220903	-0.439278	-0.383432
O13	O	1.374061	-0.567568	-0.664887
O14	O	1.204599	-0.567618	-0.495456
O15	O	1.518765	-0.439192	-0.681239
O16	O	1.480758	-0.737134	-0.345538
O17	O	1.352438	-0.737077	-0.473897
C18	C	1.174834	-0.503446	-0.439442
C19	C	1.058679	-0.503462	-0.439456
C20	C	0.998841	-0.567068	-0.494778
C21	C	0.878788	-0.567087	-0.494794
C22	C	1.411799	-0.775030	-0.404913
C23	C	1.397117	-0.891207	-0.390168
C24	C	1.454059	-0.942900	-0.447175
C25	C	1.438886	-1.062974	-0.431938
C26	C	1.718909	-0.503487	-0.439477
C27	C	1.835061	-0.503496	-0.439485
C28	C	1.446425	-0.503366	-0.712042
C29	C	1.446461	-0.503323	-0.828201
C30	C	1.481047	-0.230841	-0.474163
C31	C	1.495837	-0.114665	-0.488952
C32	C	1.518073	-0.439786	-0.888078
C33	C	1.518112	-0.439740	-1.008135
C34	C	1.446327	-0.503491	-0.167946
C35	C	1.446532	-0.503239	-0.051825
H36	H	1.036491	-0.621506	-0.542134
Br37	Br	1.297127	-0.965595	-0.290025
Br38	Br	1.595820	-1.040283	-0.589112
Br39	Br	1.620314	-0.349078	-1.093901
Br40	Br	1.620192	-0.349140	-0.825396
H41	H	1.378894	-1.107608	-0.371852
H42	H	1.385222	-0.557642	-1.000369
H43	H	0.886482	-0.449042	-0.392114
H44	H	1.021030	-0.449017	-0.392109
H45	H	1.514040	-0.898264	-0.507266
H46	H	1.385174	-0.557679	-0.865819
H47	H	0.827360	-0.621545	-0.542154
