data_functionalizedCrystal
_audit_creation_method	'MofGen! by Chris Wilmer'
_symmetry_space_group_name_H-M	'P1'
_symmetry_Int_Tables_number	1
_symmetry_cell_setting	triclinic
loop_
_symmetry_equiv_pos_as_xyz
  x,y,z
_cell_length_a	12.759401
_cell_length_b	19.805405
_cell_length_c	19.805398
_cell_angle_alpha	90.024951
_cell_angle_beta	90.011851
_cell_angle_gamma	90.027152
loop_
_atom_site_label
_atom_site_type_symbol
_atom_site_fract_x
_atom_site_fract_y
_atom_site_fract_z
Zn1	Zn	1.606097	-0.269482	0.382652
Zn2	Zn	1.605976	-0.382667	0.269465
Zn3	Zn	1.430420	-0.269499	0.269484
Zn4	Zn	1.430351	-0.382636	0.382620
O5	O	1.518211	-0.326071	0.326055
O6	O	1.753102	-0.284503	0.367643
O7	O	1.582666	-0.367675	0.174751
O8	O	1.453804	-0.174780	0.284517
O9	O	1.753013	-0.367660	0.284485
O10	O	1.582873	-0.174768	0.367661
O11	O	1.453686	-0.284531	0.174765
O12	O	1.283390	-0.284500	0.284487
O13	O	1.453686	-0.367605	0.477341
O14	O	1.283339	-0.367621	0.367607
O15	O	1.582806	-0.284472	0.477364
O16	O	1.582599	-0.477380	0.284454
O17	O	1.453568	-0.477356	0.367589
C18	C	1.245244	-0.326059	0.326046
C19	C	1.128467	-0.326071	0.326058
C20	C	1.073652	-0.282849	0.369425
C21	C	0.963928	-0.282856	0.369429
C22	C	0.963843	-0.369312	0.282698
C23	C	1.073565	-0.369301	0.282691
C24	C	1.518091	-0.501927	0.326031
C25	C	1.518136	-0.577159	0.326043
C26	C	1.585303	-0.612439	0.369370
C27	C	1.585341	-0.683127	0.369382
C28	C	1.518217	-0.718535	0.326064
C29	C	1.451043	-0.683250	0.282735
C30	C	1.451000	-0.612563	0.282727
C31	C	1.451211	-0.968323	0.282770
C32	C	1.451261	-1.039015	0.282781
C33	C	1.585552	-1.038887	0.369426
C34	C	1.585510	-0.968200	0.369417
C35	C	1.518332	-0.932922	0.326091
C36	C	1.518290	-0.856273	0.326079
C37	C	1.518263	-0.795182	0.326073
C38	C	1.792244	-0.326083	0.326065
C39	C	1.909021	-0.326088	0.326070
C40	C	1.518252	-0.326033	0.502598
C41	C	1.518270	-0.326017	0.577830
C42	C	1.518360	-0.149528	0.326095
C43	C	1.518423	-0.074296	0.326112
C44	C	1.518231	-0.326059	0.150199
C45	C	1.518417	-0.325885	0.074968
C46	C	1.585629	-0.282610	1.039635
C47	C	1.585613	-0.282631	0.968946
C48	C	1.518378	-0.325923	0.933592
C49	C	1.451162	-0.369203	0.968930
C50	C	1.451184	-0.369185	1.039617
C51	C	1.451071	-0.369276	0.683857
C52	C	1.451051	-0.369289	0.613165
C53	C	1.585499	-0.282722	0.613185
C54	C	1.585521	-0.282704	0.683873
C55	C	1.518310	-0.325986	0.719205
C56	C	1.518330	-0.325964	0.795853
C57	C	1.518351	-0.325942	0.856945
H58	H	1.639968	-0.583615	0.404641
H59	H	1.640248	-1.067620	0.404706
Br60	Br	1.360159	-1.087068	0.223987
Br61	Br	1.676711	-0.223978	0.565231
H62	H	1.640043	-0.711849	0.404658
H63	H	0.919303	-0.247660	0.404742
Br64	Br	1.676868	-0.223844	1.087608
Br65	Br	1.676837	-0.223901	0.920996
H66	H	1.396515	-0.939605	0.247491
Br67	Br	0.889328	-0.427979	0.223846
H68	H	1.396385	-0.712084	0.247468
Br69	Br	1.147964	-0.427953	0.223822
Br70	Br	1.676615	-0.920151	0.428205
H71	H	1.396305	-0.583839	0.247447
Br72	Br	1.676782	-0.223954	0.731850
H73	H	1.396293	-0.404543	0.584381
Br74	Br	1.148159	-0.224178	0.428278
H75	H	1.396342	-0.404518	0.712615
Br76	Br	1.359917	-0.427960	0.920951
Br77	Br	1.359969	-0.427920	1.087571
