data_functionalizedCrystal
_audit_creation_method	'MofGen! by Chris Wilmer'
_symmetry_space_group_name_H-M	'P1'
_symmetry_Int_Tables_number	1
_symmetry_cell_setting	triclinic
loop_
_symmetry_equiv_pos_as_xyz
  x,y,z
_cell_length_a	16.625546
_cell_length_b	14.908571
_cell_length_c	14.908308
_cell_angle_alpha	90.175053
_cell_angle_beta	86.735930
_cell_angle_gamma	93.281505
loop_
_atom_site_label
_atom_site_type_symbol
_atom_site_fract_x
_atom_site_fract_y
_atom_site_fract_z
Zn1	Zn	-0.420778	-1.345280	0.587557
Zn2	Zn	0.079222	-0.845280	1.087557
Zn3	Zn	-0.548312	-1.353856	0.437189
Zn4	Zn	-0.048312	-0.853856	0.937189
Zn5	Zn	-0.405291	-1.203596	0.428555
Zn6	Zn	0.094709	-0.703596	0.928555
Zn7	Zn	-0.547354	-1.194884	0.578841
Zn8	Zn	-0.047354	-0.694884	1.078841
O9	O	-0.480434	-1.274404	0.508036
O10	O	0.019566	-0.774404	1.008036
O11	O	-0.444578	-1.472243	0.574871
O12	O	0.055422	-0.972243	1.074871
O13	O	-0.523260	-1.341159	0.310220
O14	O	-0.023260	-0.841159	0.810220
O15	O	-0.294517	-1.222448	0.449681
O16	O	0.205483	-0.722448	0.949681
O17	O	-0.538277	-1.478544	0.464397
O18	O	-0.038277	-0.978544	0.964397
O19	O	-0.305896	-1.326543	0.566499
O20	O	0.194104	-0.826543	1.066499
O21	O	-0.418182	-1.230763	0.303876
O22	O	0.081818	-0.730763	0.803876
O23	O	-0.417254	-1.076615	0.441230
O24	O	0.082746	-0.576615	0.941230
O25	O	-0.536644	-1.207599	0.705821
O26	O	-0.036644	-0.707599	1.205821
O27	O	-0.521627	-1.070214	0.551644
O28	O	-0.021627	-0.570214	1.051644
O29	O	-0.443649	-1.318095	0.712225
O30	O	0.056351	-0.818095	1.212225
O31	O	-0.661013	-1.332711	0.455945
O32	O	-0.161013	-0.832711	0.955945
O33	O	-0.660309	-1.215914	0.560016
O34	O	-0.160309	-0.715914	1.060016
C35	C	-0.689918	-1.274321	0.507993
C36	C	-0.189918	-0.774321	1.007993
C37	C	-0.779542	-1.274366	0.508010
C38	C	-0.279542	-0.774366	1.008010
C39	C	-0.467656	-1.040789	0.494555
C40	C	0.032344	-0.540789	0.994555
C41	C	-0.462211	-0.940846	0.488810
C42	C	0.037789	-0.440846	0.988810
C43	C	-0.491767	-1.260918	0.742560
C44	C	0.008233	-0.760918	1.242560
C45	C	-0.496597	-1.255172	0.842501
C46	C	0.003403	-0.755172	1.342501
C47	C	-1.107731	-1.274517	0.508112
C48	C	-0.607731	-0.774517	1.008112
C49	C	-1.016419	-1.274472	0.508086
C50	C	-0.516419	-0.774472	1.008086
C51	C	-0.943640	-1.274441	0.508060
C52	C	-0.443640	-0.774441	1.008060
C53	C	-0.852322	-1.274397	0.508035
C54	C	-0.352322	-0.774397	1.008035
C55	C	-0.270134	-1.274511	0.508099
C56	C	0.229866	-0.774511	1.008099
C57	C	-0.180516	-1.274556	0.508127
C58	C	0.319484	-0.774556	1.008127
C59	C	-0.493262	-1.508931	0.521569
C60	C	0.006738	-1.008931	1.021569
C61	C	-0.498728	-1.608873	0.527336
C62	C	0.001272	-1.108873	1.027336
C63	C	-0.560814	-0.746435	0.592833
C64	C	-0.060814	-0.246435	1.092833
C65	C	-0.555700	-0.652530	0.587437
C66	C	-0.055700	-0.152530	1.087437
C67	C	-0.446865	-0.659128	0.472629
C68	C	0.053135	-0.159128	0.972629
C69	C	-0.451979	-0.753033	0.478024
C70	C	0.048021	-0.253033	0.978024
C71	C	-0.508956	-0.796683	0.538127
C72	C	-0.008956	-0.296683	1.038127
C73	C	-0.514074	-0.890591	0.543517
C74	C	-0.014074	-0.390591	1.043517
C75	C	-0.405236	-0.897187	0.428714
C76	C	0.094764	-0.397187	0.928714
C77	C	-0.400121	-0.803282	0.423318
C78	C	0.099879	-0.303282	0.923318
C79	C	-0.469089	-1.287889	0.274426
C80	C	0.030911	-0.787889	0.774426
C81	C	-0.464042	-1.293810	0.174497
C82	C	0.035958	-0.793810	0.674497
C83	C	-0.408817	-1.359429	1.036969
C84	C	0.091183	-0.859429	1.536969
C85	C	-0.413353	-1.354033	1.130872
C86	C	0.086647	-0.854033	1.630872
C87	C	-0.510198	-1.238977	1.124211
C88	C	-0.010198	-0.738977	1.624211
C89	C	-0.505662	-1.244374	1.030308
C90	C	-0.005662	-0.744374	1.530308
C91	C	-0.454971	-1.304603	0.986690
C92	C	0.045029	-0.804603	1.486690
C93	C	-0.450441	-1.310004	0.892786
C94	C	0.049559	-0.810004	1.392786
C95	C	-0.547281	-1.194945	0.886127
C96	C	-0.047281	-0.694945	1.386127
C97	C	-0.551817	-1.189548	0.980030
C98	C	-0.051817	-0.689548	1.480030
H99	H	-0.560469	-0.926129	0.592455
H100	H	-0.060469	-0.426129	1.092455
H101	H	-0.353730	-0.767729	0.374387
H102	H	0.146270	-0.267729	0.874387
O103	O	-0.592194	-1.141638	0.837423
O104	O	-0.092194	-0.641638	1.337423
C105	C	-0.637886	-1.087306	0.896061
C106	C	-0.137886	-0.587306	1.396061
H107	H	-0.645927	-1.120287	0.965121
H108	H	-0.145927	-0.620287	1.465121
H109	H	-0.699576	-1.079237	0.868359
H110	H	-0.199576	-0.579237	1.368359
H111	H	-0.605105	-1.018459	0.902118
H112	H	-0.105105	-0.518459	1.402118
O113	O	-0.616182	-0.788698	0.651287
O114	O	-0.116182	-0.288698	1.151287
C115	C	-0.660876	-0.724211	0.698396
C116	C	-0.160876	-0.224211	1.198396
H117	H	-0.624364	-0.657097	0.697731
H118	H	-0.124364	-0.157097	1.197731
H119	H	-0.674476	-0.747287	0.770781
H120	H	-0.174476	-0.247287	1.270781
H121	H	-0.719925	-0.716103	0.664772
H122	H	-0.219925	-0.216103	1.164772
H123	H	-0.409167	-1.359047	0.857274
H124	H	0.090833	-0.859047	1.357274
O125	O	-0.368493	-1.407385	1.179578
O126	O	0.131507	-0.907385	1.679578
C127	C	-0.322765	-1.461681	1.120938
C128	C	0.177235	-0.961681	1.620938
H129	H	-0.352728	-1.468627	1.054172
H130	H	0.147272	-0.968627	1.554172
H131	H	-0.319345	-1.530970	1.152157
H132	H	0.180655	-1.030970	1.652157
H133	H	-0.259249	-1.429354	1.109069
H134	H	0.240751	-0.929354	1.609069
O135	O	-0.559407	-1.180539	1.166733
O136	O	-0.059407	-0.680539	1.666733
C137	C	-0.553484	-1.187510	1.260394
C138	C	-0.053484	-0.687510	1.760394
H139	H	-0.531502	-1.256182	1.277228
H140	H	-0.031502	-0.756182	1.777228
H141	H	-0.615260	-1.179313	1.295727
H142	H	-0.115260	-0.679313	1.795727
H143	H	-0.508903	-1.132674	1.283962
H144	H	-0.008903	-0.632674	1.783962
O145	O	-0.605962	-0.603671	0.640669
O146	O	-0.105962	-0.103671	1.140669
C147	C	-0.559986	-0.546017	0.695696
C148	C	-0.059986	-0.046017	1.195696
H149	H	-0.498306	-0.574007	0.702999
H150	H	0.001694	-0.074007	1.202999
H151	H	-0.592524	-0.540985	0.764775
H152	H	-0.092524	-0.040985	1.264775
H153	H	-0.551952	-0.476440	0.663810
H154	H	-0.051952	0.023560	1.163810
H155	H	-0.363011	-0.938110	0.384166
H156	H	0.136989	-0.438110	0.884166
O157	O	-0.391615	-0.616667	0.414181
O158	O	0.108385	-0.116667	0.914181
C159	C	-0.431646	-0.565620	0.352911
C160	C	0.068354	-0.065620	0.852911
H161	H	-0.496404	-0.594231	0.348810
H162	H	0.003596	-0.094231	0.848810
H163	H	-0.398960	-0.568483	0.283723
H164	H	0.101040	-0.068483	0.783723
H165	H	-0.431945	-0.492871	0.376654
H166	H	0.068055	0.007129	0.876654
H167	H	-0.367547	-1.408475	1.001455
H168	H	0.132453	-0.908475	1.501455
O169	O	-0.601150	-1.131172	1.022453
O170	O	-0.101150	-0.631172	1.522453
C171	C	-0.658630	-1.179219	1.079729
C172	C	-0.158630	-0.679219	1.579729
H173	H	-0.666112	-1.251661	1.055515
H174	H	-0.166112	-0.751661	1.555515
H175	H	-0.718956	-1.146613	1.078905
H176	H	-0.218956	-0.646613	1.578905
H177	H	-0.637305	-1.178235	1.151080
H178	H	-0.137305	-0.678235	1.651080
