data_functionalizedCrystal
_audit_creation_method	'MofGen! by Chris Wilmer'
_symmetry_space_group_name_H-M	'P1'
_symmetry_Int_Tables_number	1
_symmetry_cell_setting	triclinic
loop_
_symmetry_equiv_pos_as_xyz
  x,y,z
_cell_length_a	15.944499
_cell_length_b	19.188940
_cell_length_c	14.421503
_cell_angle_alpha	90.003842
_cell_angle_beta	89.989779
_cell_angle_gamma	83.313162
loop_
_atom_site_label
_atom_site_type_symbol
_atom_site_fract_x
_atom_site_fract_y
_atom_site_fract_z
O1	O	1.114224	0.089866	-0.077168
O2	O	0.869627	0.101006	-0.077158
O3	O	0.998980	-0.006202	-0.077156
O4	O	0.984871	0.197074	-0.077170
O5	O	0.998958	-0.006186	0.077067
O6	O	0.869606	0.101022	0.077066
O7	O	1.114202	0.089882	0.077055
Cu8	Cu	0.991902	0.095453	0.091142
Cu9	Cu	0.991927	0.095434	-0.091245
O10	O	0.984850	0.197090	0.077054
C11	C	0.838323	0.100558	-0.000045
C12	C	0.745080	0.099190	-0.000041
C13	C	0.453314	0.161475	-0.000059
C14	C	0.514473	0.129090	-0.076098
C15	C	0.409462	0.094223	-0.000062
C16	C	0.514438	0.129088	0.075954
C17	C	0.574362	0.096667	-0.000050
C18	C	0.469393	0.061819	-0.076164
C19	C	0.469352	0.061826	0.075956
C20	C	0.530494	0.029392	-0.000102
C21	C	0.314467	0.092817	-0.000069
C22	C	0.669355	0.098068	-0.000049
C23	C	0.998511	-0.032206	-0.000045
C24	C	0.997135	-0.109714	-0.000045
C25	C	0.987337	-0.662988	0.084001
C26	C	0.988620	-0.590161	0.084006
C27	C	0.989278	-0.553748	-0.000060
C28	C	0.988630	-0.590167	-0.084138
C29	C	0.987338	-0.662992	-0.084141
N30	N	1.039113	-0.444610	-0.062635
N31	N	1.040342	-0.375429	-0.062626
C32	C	0.993168	-0.334329	-0.000057
N33	N	0.944729	-0.365026	0.062517
N34	N	0.943504	-0.434213	0.062512
C35	C	0.990678	-0.474781	-0.000067
C36	C	0.995201	-0.218951	0.084020
C37	C	0.996479	-0.146121	0.084022
C38	C	0.996497	-0.146130	-0.084124
C39	C	0.995211	-0.218957	-0.084123
C40	C	0.994567	-0.255364	-0.000048
C41	C	1.145506	0.090330	-0.000060
C42	C	1.238749	0.091697	-0.000070
C43	C	0.985319	0.223094	-0.000060
C44	C	0.986694	0.300601	-0.000066
N45	N	0.991890	0.095466	0.219423
N46	N	0.991946	0.095416	-0.219526
C47	C	0.932067	0.145017	0.469076
C48	C	1.007919	0.158560	0.530875
C49	C	0.991911	0.095449	0.408585
C50	C	0.916079	0.081922	0.530880
C51	C	0.991924	0.095435	0.591306
C52	C	1.067801	0.109024	0.469023
C53	C	0.975911	0.032359	0.469023
C54	C	1.051817	0.045876	0.530793
C55	C	0.991902	0.095460	0.303324
C56	C	0.991941	0.095424	0.696565
H57	H	0.563878	-0.026471	-0.000139
F58	F	0.409477	0.234425	-0.000157
F59	F	0.540609	0.166260	-0.160131
F60	F	0.865987	0.199848	0.433652
H61	H	0.851943	0.070488	0.558054
F62	F	1.151650	0.124051	0.433661
H63	H	1.102486	0.003949	0.557722
H64	H	0.997001	-0.116477	0.152482
F65	F	0.997170	-0.107379	-0.173594
F66	F	0.958175	-0.037348	0.433482
F67	F	0.994533	-0.257710	-0.173600
H68	H	0.449529	0.033393	-0.140522
F69	F	0.443181	0.024685	0.159990
H70	H	0.994670	-0.248594	0.152479
H71	H	0.534399	0.157551	0.140237
H72	H	0.986812	-0.692626	0.152461
H73	H	0.989128	-0.560508	0.152465
H74	H	0.989162	-0.560515	-0.152585
F75	F	0.986655	-0.701744	-0.173620
F76	F	1.025625	0.228288	0.566386
