data_functionalizedCrystal
_audit_creation_method	'MofGen! by Chris Wilmer'
_symmetry_space_group_name_H-M	'P1'
_symmetry_Int_Tables_number	1
_symmetry_cell_setting	triclinic
loop_
_symmetry_equiv_pos_as_xyz
  x,y,z
_cell_length_a	10.654550
_cell_length_b	17.699083
_cell_length_c	9.730223
_cell_angle_alpha	89.997786
_cell_angle_beta	89.996251
_cell_angle_gamma	83.883958
loop_
_atom_site_label
_atom_site_type_symbol
_atom_site_fract_x
_atom_site_fract_y
_atom_site_fract_z
O1	O	1.665973	0.106299	-0.114406
O2	O	1.300318	0.116427	-0.114384
O3	O	1.493476	0.001240	-0.114384
O4	O	1.472815	0.221487	-0.114407
O5	O	1.493474	0.001243	0.114196
O6	O	1.300315	0.116430	0.114196
O7	O	1.665971	0.106302	0.114174
Zn8	Zn	1.483143	0.111366	0.150477
Zn9	Zn	1.483146	0.111363	-0.150687
O10	O	1.472813	0.221490	0.114173
C11	C	1.253531	0.115685	-0.000091
C12	C	1.114127	0.113460	-0.000083
C13	C	1.492735	-0.026961	-0.000093
C14	C	1.490514	-0.110993	-0.000093
C15	C	1.033454	0.181281	-0.000110
C16	C	0.902470	0.179185	-0.000133
C17	C	0.932845	0.041443	-0.000108
C18	C	1.063826	0.043539	-0.000075
C19	C	1.015917	0.260805	-0.000130
C20	C	0.884933	0.258710	-0.000154
C21	C	1.603894	-0.158893	-0.000097
C22	C	1.601799	-0.237850	-0.000109
C23	C	1.486324	-0.268905	-0.000107
C24	C	1.372935	-0.220998	-0.000106
C25	C	1.375031	-0.142043	-0.000104
C26	C	1.364481	-0.539415	-0.000117
C27	C	1.362394	-0.618376	-0.000115
C28	C	1.591249	-0.635222	-0.000122
C29	C	1.593345	-0.556266	-0.000120
C30	C	1.479957	-0.508367	-0.000127
C31	C	1.482229	-0.422753	-0.000116
C32	C	1.484050	-0.354517	-0.000107
C33	C	1.712757	0.107044	-0.000122
C34	C	1.852161	0.109269	-0.000140
C35	C	1.473554	0.249690	-0.000120
C36	C	1.475775	0.333722	-0.000130
N37	N	1.483150	0.111369	0.356013
N38	N	1.483149	0.111355	-0.356223
C39	C	1.568702	0.060381	0.427940
C40	C	1.568699	0.060372	0.571823
C41	C	1.397587	0.162345	0.571840
C42	C	1.397585	0.162349	0.427960
C43	C	1.667496	0.001510	0.427931
C44	C	1.667493	0.001501	0.571814
H45	H	0.891873	-0.015484	-0.000123
C46	C	1.054069	0.302263	0.127539
C47	C	0.946459	0.325528	0.205600
C48	C	0.981559	0.363710	0.323224
H49	H	1.094064	0.345490	0.101154
H50	H	1.110869	0.269144	0.180778
H51	H	0.889680	0.358645	0.152372
H52	H	0.906451	0.282316	0.232020
H53	H	1.038359	0.330592	0.376463
H54	H	1.021554	0.406934	0.296826
H55	H	0.908553	0.379494	0.376209
C56	C	1.241476	-0.487324	0.000099
C57	C	1.236004	-0.441490	0.117678
C58	C	1.122715	-0.393482	0.117914
H59	H	1.172299	-0.517032	0.000176
H60	H	1.237529	-0.456129	-0.079573
H61	H	1.239939	-0.472681	0.197329
H62	H	1.305155	-0.411766	0.117626
H63	H	1.118768	-0.362287	0.038242
H64	H	1.053547	-0.423196	0.117987
H65	H	1.118992	-0.362373	0.197683
H66	H	1.327911	0.203861	0.369399
H67	H	1.051130	0.286125	-0.098820
C68	C	1.304637	0.217574	0.650135
C69	C	1.227918	0.176818	0.732762
C70	C	1.142288	0.227671	0.804917
H71	H	1.253561	0.247963	0.586848
H72	H	1.349674	0.249320	0.706345
H73	H	1.182884	0.145085	0.676557
H74	H	1.278958	0.146431	0.796074
H75	H	1.187325	0.259417	0.861127
H76	H	1.091222	0.258058	0.741620
H77	H	1.090232	0.200026	0.860997
C78	C	0.828823	0.298658	-0.127829
C79	C	0.925450	0.325187	-0.205903
C80	C	0.873811	0.361982	-0.323528
H81	H	0.770118	0.340308	-0.101445
H82	H	0.786969	0.263962	-0.181059
H83	H	0.967283	0.359879	-0.152683
H84	H	0.984161	0.283551	-0.232323
H85	H	0.831958	0.327286	-0.376757
H86	H	0.815107	0.403628	-0.297130
H87	H	0.939365	0.379980	-0.376521
H88	H	0.838840	0.282744	0.098528
C89	C	1.640175	-0.076091	0.376122
C90	C	1.623465	-0.123565	0.488274
C91	C	1.598278	-0.195050	0.440601
H92	H	1.708994	-0.097693	0.321911
H93	H	1.565583	-0.070776	0.321932
H94	H	1.698048	-0.128882	0.542441
H95	H	1.554644	-0.101986	0.542497
H96	H	1.523686	-0.189735	0.386411
H97	H	1.667100	-0.216645	0.386390
H98	H	1.586926	-0.227267	0.516688
H99	H	1.697927	-0.133615	-0.000091
C100	C	1.725035	-0.289729	-0.000034
C101	C	1.826611	-0.245633	0.000013
C102	C	1.940159	-0.293398	0.000101
H103	H	1.729165	-0.320894	-0.079724
H104	H	1.729035	-0.320871	0.079708
H105	H	1.822613	-0.214505	-0.079721
H106	H	1.822522	-0.214470	0.079697
H107	H	1.944159	-0.324540	0.079843
H108	H	1.944277	-0.324560	-0.079590
H109	H	2.009092	-0.263486	0.000146
H110	H	1.687377	-0.530986	-0.000115
H111	H	1.683575	-0.674231	-0.000124
C112	C	1.251795	-0.090161	-0.000030
C113	C	1.150216	-0.134254	0.000008
C114	C	1.036670	-0.086487	0.000086
H115	H	1.247682	-0.058994	-0.079720
H116	H	1.247782	-0.059021	0.079712
H117	H	1.154228	-0.165380	-0.079725
H118	H	1.154288	-0.165420	0.079693
H119	H	1.032657	-0.055348	0.079828
H120	H	1.032570	-0.055323	-0.079606
H121	H	0.967735	-0.116397	0.000124
H122	H	1.268354	-0.643658	-0.000110
C123	C	1.788764	0.026066	0.368666
C124	C	1.869099	0.042337	0.476069
C125	C	1.980827	0.064953	0.421527
H126	H	1.769647	0.070160	0.313739
H127	H	1.829193	-0.013734	0.313753
H128	H	1.828679	0.082134	0.530960
H129	H	1.888252	-0.001746	0.531005
H130	H	2.021255	0.025152	0.366613
H131	H	1.961697	0.109045	0.366600
H132	H	2.035352	0.075988	0.494390
H133	H	1.278912	-0.246289	-0.000113
H134	H	1.129507	-0.011687	-0.000033
H135	H	1.637942	-0.053472	0.616437
H136	H	1.763777	0.014468	0.610857
