data_functionalizedCrystal
_audit_creation_method	'MofGen! by Chris Wilmer'
_symmetry_space_group_name_H-M	'P1'
_symmetry_Int_Tables_number	1
_symmetry_cell_setting	triclinic
loop_
_symmetry_equiv_pos_as_xyz
  x,y,z
_cell_length_a	8.497365
_cell_length_b	11.169416
_cell_length_c	11.169417
_cell_angle_alpha	89.988781
_cell_angle_beta	90.031044
_cell_angle_gamma	89.951898
loop_
_atom_site_label
_atom_site_type_symbol
_atom_site_fract_x
_atom_site_fract_y
_atom_site_fract_z
Zn1	Zn	-0.891931	-0.477478	-1.835095
Zn2	Zn	-0.391931	0.022522	-1.335095
Zn3	Zn	-0.628148	-0.678279	-1.834945
Zn4	Zn	-0.128148	-0.178279	-1.334945
Zn5	Zn	-0.628164	-0.477611	-1.634342
Zn6	Zn	-0.128164	0.022389	-1.134342
Zn7	Zn	-0.891887	-0.678121	-1.634389
Zn8	Zn	-0.391887	-0.178121	-1.134389
O9	O	-0.760033	-0.577872	-1.734693
O10	O	-0.260033	-0.077872	-1.234693
O11	O	-0.856951	-0.504125	-2.003025
O12	O	-0.356951	-0.004125	-1.503025
O13	O	-0.407388	-0.651782	-1.808252
O14	O	0.092612	-0.151782	-1.308252
O15	O	-0.663179	-0.309644	-1.661015
O16	O	-0.163179	0.190356	-1.161015
O17	O	-0.663151	-0.651652	-2.002915
O18	O	-0.163151	-0.151652	-1.502915
O19	O	-0.856966	-0.309546	-1.808508
O20	O	-0.356966	0.190454	-1.308508
O21	O	-0.407400	-0.504352	-1.660870
O22	O	0.092600	-0.004352	-1.160870
O23	O	-0.663136	-0.504199	-1.466398
O24	O	-0.163136	-0.004199	-0.966398
O25	O	-1.112656	-0.651383	-1.661095
O26	O	-0.612656	-0.151383	-1.161095
O27	O	-0.856892	-0.651512	-1.466433
O28	O	-0.356892	-0.151512	-0.966433
O29	O	-1.112687	-0.503971	-1.808553
O30	O	-0.612687	-0.003971	-1.308553
O31	O	-0.663109	-0.846207	-1.808298
O32	O	-0.163109	-0.346207	-1.308298
O33	O	-0.856877	-0.846091	-1.660950
O34	O	-0.356877	-0.346091	-1.160950
C35	C	-0.760021	-0.889697	-1.734645
C36	C	-0.260021	-0.389697	-1.234645
C37	C	-0.760068	-1.023097	-1.734735
C38	C	-0.260068	-0.523097	-1.234735
C39	C	-0.760012	-0.577854	-1.422868
C40	C	-0.260012	-0.077854	-0.922868
C41	C	-0.760041	-0.577875	-1.289468
C42	C	-0.260041	-0.077875	-0.789468
C43	C	-0.350152	-0.578003	-1.734606
C44	C	0.149848	-0.078003	-1.234606
C45	C	-0.171509	-0.577757	-1.734777
C46	C	0.328491	-0.077757	-1.234777
C47	C	-0.760054	-0.577891	-2.047735
C48	C	-0.260054	-0.077891	-1.547735
C49	C	-0.760063	-0.577899	-2.181135
C50	C	-0.260063	-0.077899	-1.681135
C51	C	-0.760079	-0.264830	-1.734773
C52	C	-0.260079	0.235170	-1.234773
C53	C	-0.760099	-0.131430	-1.734807
C54	C	-0.260099	0.368570	-1.234807
