data_functionalizedCrystal
_audit_creation_method	'MofGen! by Chris Wilmer'
_symmetry_space_group_name_H-M	'P1'
_symmetry_Int_Tables_number	1
_symmetry_cell_setting	triclinic
loop_
_symmetry_equiv_pos_as_xyz
  x,y,z
_cell_length_a	16.956995
_cell_length_b	16.956984
_cell_length_c	15.455313
_cell_angle_alpha	92.464369
_cell_angle_beta	87.515363
_cell_angle_gamma	76.053945
loop_
_atom_site_label
_atom_site_type_symbol
_atom_site_fract_x
_atom_site_fract_y
_atom_site_fract_z
O1	O	1.059593	0.029455	-0.072191
O2	O	0.825582	0.057571	-0.072179
O3	O	0.956647	-0.073492	-0.072180
O4	O	0.928529	0.160518	-0.072190
O5	O	0.949154	-0.066026	0.072083
O6	O	0.818089	0.065037	0.072083
O7	O	1.052100	0.036921	0.072072
Cu8	Cu	0.934411	0.051661	0.085249
Cu9	Cu	0.943272	0.042832	-0.085357
O10	O	0.921036	0.167984	0.072072
C11	C	0.792033	0.062744	-0.000047
C12	C	0.703230	0.067024	-0.000042
C13	C	0.201821	0.099040	-0.000076
C14	C	0.285261	0.095013	-0.000075
C15	C	0.341333	0.019412	-0.000065
C16	C	0.313960	-0.052166	-0.000065
C17	C	0.230521	-0.048138	-0.000072
C18	C	0.592419	-0.000526	-0.000049
C19	C	0.675862	-0.004548	-0.000039
C20	C	0.647158	0.142631	-0.000051
C21	C	0.563718	0.146652	-0.000053
C22	C	0.536353	0.075074	-0.000057
N23	N	0.426623	0.015294	-0.000062
N24	N	0.451065	0.079193	-0.000067
C25	C	0.954340	-0.099562	-0.000049
C26	C	0.958621	-0.188365	-0.000050
C27	C	0.887048	-0.215732	-0.000050
C28	C	0.891074	-0.299172	-0.000048
C29	C	0.966675	-0.355245	-0.000052
C30	C	1.038254	-0.327873	-0.000049
C31	C	1.034226	-0.244434	-0.000045
C32	C	0.986613	-0.606332	-0.000058
C33	C	0.990635	-0.689776	-0.000065
C34	C	0.843455	-0.661070	-0.000063
C35	C	0.839434	-0.577630	-0.000064
C36	C	0.911012	-0.550265	-0.000056
N37	N	0.970794	-0.440535	-0.000052
N38	N	0.906893	-0.464976	-0.000050
C39	C	1.085650	0.031748	-0.000063
C40	C	1.174453	0.027468	-0.000073
C41	C	0.923343	0.194054	-0.000061
C42	C	0.919062	0.282857	-0.000066
N43	N	0.928184	0.057870	0.205245
N44	N	0.949505	0.036616	-0.205353
C45	C	0.983882	0.002208	0.250639
C46	C	0.979180	0.006910	0.341447
C47	C	0.918783	0.067279	0.386859
C48	C	0.863080	0.122944	0.341459
C49	C	0.867779	0.118237	0.250653
C50	C	0.898501	0.087574	0.658441
C51	C	0.893808	0.092278	0.749253
C52	C	1.009907	-0.023758	0.749235
C53	C	1.014604	-0.028456	0.658427
C54	C	0.958898	0.027206	0.613035
N55	N	0.913977	0.072089	0.479679
N56	N	0.963701	0.022392	0.520216
H57	H	0.208241	-0.106420	-0.000071
F58	F	0.373638	-0.132627	-0.000057
F59	F	0.814896	-0.328294	-0.000050
F60	F	0.806582	-0.156062	-0.000052
F61	F	0.758970	-0.517959	-0.000068
F62	F	1.038458	-0.052333	0.389759
F63	F	1.078885	-0.092706	0.610097
H64	H	0.721516	-0.066115	-0.000035
F65	F	0.767282	-0.690200	-0.000070
F66	F	1.071104	-0.749453	-0.000074
H67	H	1.055260	-0.069076	0.786202
F68	F	1.110403	-0.215309	-0.000037
H69	H	1.044897	-0.584062	-0.000055
F70	F	1.118714	-0.387551	-0.000043
H71	H	0.156172	0.160603	-0.000078
H72	H	1.033066	-0.046948	0.213670
H73	H	0.813899	0.172096	0.378439
H74	H	0.844623	0.141441	0.786224
H75	H	0.853144	0.132898	0.621489
H76	H	0.570149	-0.058810	-0.000050
F77	F	0.808495	0.177479	0.202342
H78	H	0.669448	0.200906	-0.000049
F79	F	0.314384	0.171190	-0.000083
H80	H	0.518069	0.208215	-0.000064
