data_functionalizedCrystal
_audit_creation_method	'MofGen! by Chris Wilmer'
_symmetry_space_group_name_H-M	'P1'
_symmetry_Int_Tables_number	1
_symmetry_cell_setting	triclinic
loop_
_symmetry_equiv_pos_as_xyz
  x,y,z
_cell_length_a	6.817900
_cell_length_b	11.168129
_cell_length_c	14.125286
_cell_angle_alpha	94.674868
_cell_angle_beta	100.396688
_cell_angle_gamma	108.508637
loop_
_atom_site_label
_atom_site_type_symbol
_atom_site_fract_x
_atom_site_fract_y
_atom_site_fract_z
V1	V	-4.016801	-0.173730	-0.299999
V2	V	-3.516801	0.326270	0.200001
O3	O	-3.978159	0.009352	-0.294279
O4	O	-3.478159	0.509352	0.205721
O5	O	-3.993723	-0.345442	-0.297955
O6	O	-3.493723	0.154558	0.202045
O7	O	-3.952496	-0.170617	-0.430835
O8	O	-3.452496	0.329383	0.069165
O9	O	-4.019671	-0.166683	-0.160480
O10	O	-3.519671	0.333317	0.339520
V11	V	-4.499208	-0.151883	-0.283310
V12	V	-3.999208	0.348117	0.216690
O13	O	-4.280506	-0.221652	-0.336607
O14	O	-3.780506	0.278348	0.163393
O15	O	-4.685700	-0.103961	-0.246702
O16	O	-4.185700	0.396039	0.253298
O17	O	-4.299079	0.019829	-0.285354
O18	O	-3.799079	0.519829	0.214646
O19	O	-4.655247	-0.334964	-0.289030
O20	O	-4.155247	0.165036	0.210970
O21	O	-4.613734	-0.158930	-0.422829
O22	O	-4.113734	0.341070	0.077171
O23	O	-4.340306	-0.154996	-0.152474
O24	O	-3.840306	0.345004	0.347526
C25	C	-3.845399	-0.387315	-0.293225
C26	C	-3.345399	0.112685	0.206775
C27	C	-3.907711	-0.527689	-0.292426
C28	C	-3.407711	-0.027689	0.207574
C29	C	-4.030723	-0.752212	-0.374979
C30	C	-3.530723	-0.252212	0.125021
C31	C	-3.966321	-0.607129	-0.375806
C32	C	-3.466321	-0.107129	0.124194
C33	C	-3.792808	-0.164307	-0.462725
C34	C	-3.292808	0.335693	0.037275
C35	C	-3.821683	-0.162899	-0.569684
C36	C	-3.321683	0.337101	-0.069684
C37	C	-4.060830	-0.165458	-0.817806
C38	C	-3.560830	0.334542	-0.317806
C39	C	-3.874560	-0.160153	-0.765491
C40	C	-3.374560	0.339847	-0.265491
C41	C	-3.845140	-0.161681	-0.656534
C42	C	-3.345140	0.338319	-0.156534
C43	C	-4.090257	-0.163930	-0.926773
C44	C	-3.590257	0.336070	-0.426773
C45	C	-4.110747	0.061696	-0.290082
C46	C	-3.610747	0.561696	0.209918
C47	C	-4.027672	0.202069	-0.290886
C48	C	-3.527672	0.702069	0.209114
C49	C	-4.163337	-0.161309	-0.120579
C50	C	-3.663337	0.338691	0.379421
C51	C	-4.113700	-0.162712	-0.013619
C52	C	-3.613700	0.337288	0.486381
H53	H	-3.977390	-0.729664	-0.219505
H54	H	-3.477390	-0.229664	0.280495
H55	H	-4.198194	-0.171148	-0.780767
H56	H	-3.698194	0.328852	-0.280767
O57	O	-3.904358	-0.579829	-0.197047
O58	O	-3.404358	-0.079829	0.302953
H59	H	-4.065951	-0.643881	-0.196130
H60	H	-3.565951	-0.143881	0.303870
O61	O	-3.692583	-0.152635	-0.814547
O62	O	-3.192583	0.347365	-0.314547
H63	H	-3.744612	-0.152616	-0.893671
H64	H	-3.244612	0.347384	-0.393671
H65	H	-4.081026	-0.820480	-0.446361
H66	H	-3.581026	-0.320480	0.053639
H67	H	-3.968816	-0.567746	-0.447802
H68	H	-3.468816	-0.067746	0.052198
