data_functionalizedCrystal
_audit_creation_method	'MofGen! by Chris Wilmer'
_symmetry_space_group_name_H-M	'P1'
_symmetry_Int_Tables_number	1
_symmetry_cell_setting	triclinic
loop_
_symmetry_equiv_pos_as_xyz
  x,y,z
_cell_length_a	11.792241
_cell_length_b	8.559649
_cell_length_c	7.088929
_cell_angle_alpha	95.324765
_cell_angle_beta	83.733449
_cell_angle_gamma	76.986040
loop_
_atom_site_label
_atom_site_type_symbol
_atom_site_fract_x
_atom_site_fract_y
_atom_site_fract_z
O1	O	-0.025389	2.103507	-0.158968
O2	O	0.033182	1.638810	-0.158976
O3	O	-0.162307	1.882437	-0.158958
O4	O	0.170101	1.859880	-0.158986
O5	O	-0.188485	1.914995	0.159019
O6	O	0.007004	1.671368	0.159001
O7	O	-0.051567	2.136065	0.159010
Cu8	Cu	-0.024671	1.906689	0.188039
Cu9	Cu	0.006287	1.868186	-0.188006
O10	O	0.143923	1.892438	0.158992
C11	C	0.024532	1.595597	0.000011
C12	C	0.037744	1.418331	0.000008
C13	C	-0.217557	1.897299	0.000030
C14	C	-0.343183	1.893058	0.000028
N15	N	-0.046448	1.933782	0.452529
C16	C	-0.573179	1.885258	-0.000004
C17	C	-0.445191	1.889592	0.000013
C18	C	0.199173	1.877576	-0.000000
C19	C	0.324800	1.881815	-0.000011
C20	C	-0.042916	2.179277	0.000018
C21	C	-0.056128	2.356542	0.000008
N22	N	0.028053	1.841106	-0.452496
H23	H	-0.146609	2.439264	0.000011
H24	H	0.105258	1.745057	0.465851
H25	H	0.128222	2.335616	-0.000013
H26	H	-0.123650	2.029849	0.534193
