data_functionalizedCrystal
_audit_creation_method	'MofGen! by Chris Wilmer'
_symmetry_space_group_name_H-M	'P1'
_symmetry_Int_Tables_number	1
_symmetry_cell_setting	triclinic
loop_
_symmetry_equiv_pos_as_xyz
  x,y,z
_cell_length_a	15.298068
_cell_length_b	15.297327
_cell_length_c	15.299448
_cell_angle_alpha	88.404991
_cell_angle_beta	107.391632
_cell_angle_gamma	110.796215
loop_
_atom_site_label
_atom_site_type_symbol
_atom_site_fract_x
_atom_site_fract_y
_atom_site_fract_z
Zn1	Zn	1.518475	0.036078	0.767165
Zn2	Zn	2.018475	0.536078	1.267165
Zn3	Zn	1.464489	-0.146398	0.638499
Zn4	Zn	1.964489	0.353602	1.138499
Zn5	Zn	1.326662	-0.027082	0.593980
Zn6	Zn	1.826662	0.472918	1.093980
Zn7	Zn	1.335952	-0.146316	0.767017
Zn8	Zn	1.835952	0.353684	1.267017
O9	O	1.411394	-0.070930	0.691665
O10	O	1.911394	0.429070	1.191665
O11	O	1.645381	0.038271	0.768790
O12	O	2.145381	0.538271	1.268790
O13	O	1.419724	-0.157037	0.506329
O14	O	1.919724	0.342963	1.006329
O15	O	1.370812	0.107562	0.598383
O16	O	1.870812	0.607562	1.098383
O17	O	1.605717	-0.095793	0.674260
O18	O	2.105717	0.404207	1.174260
O19	O	1.511736	0.153966	0.725622
O20	O	2.011736	0.653966	1.225622
O21	O	1.318464	-0.069377	0.473622
O22	O	1.818464	0.430623	0.973622
O23	O	1.193827	-0.069298	0.598240
O24	O	1.693827	0.430702	1.098240
O25	O	1.386645	-0.095654	0.893300
O26	O	1.886645	0.404346	1.393300
O27	O	1.200652	-0.156898	0.725370
O28	O	1.700652	0.343102	1.225370
O29	O	1.520744	0.038350	0.893409
O30	O	2.020744	0.538350	1.393409
O31	O	1.428732	-0.272653	0.674117
O32	O	1.928732	0.227347	1.174117
O33	O	1.334297	-0.272593	0.768539
O34	O	1.834297	0.227407	1.268539
C35	C	1.162478	-0.119943	0.656959
C36	C	1.662478	0.380057	1.156959
C37	C	1.055991	-0.140929	0.642136
C38	C	1.555991	0.359071	1.142136
C39	C	0.838453	0.078831	0.797641
C40	C	1.338453	0.578831	1.297641
C41	C	0.938503	0.098547	0.811573
C42	C	1.438503	0.598547	1.311573
C43	C	0.967880	0.038680	0.769215
C44	C	1.467880	0.538680	1.269215
C45	C	0.897197	-0.040906	0.712922
C46	C	1.397197	0.459094	1.212922
C47	C	0.797138	-0.060628	0.698995
C48	C	1.297138	0.439372	1.198995
C49	C	0.926565	-0.100779	0.670569
C50	C	1.426565	0.399221	1.170569
C51	C	0.855882	-0.180366	0.614276
C52	C	1.355882	0.319634	1.114276
C53	C	0.755833	-0.200083	0.600350
C54	C	1.255833	0.299917	1.100350
C55	C	0.726456	-0.140216	0.642709
C56	C	1.226456	0.359784	1.142709
C57	C	1.026624	-0.081058	0.684497
C58	C	1.526624	0.418942	1.184497
C59	C	0.985309	-0.220517	0.585850
C60	C	1.485309	0.279483	1.085850
C61	C	0.885259	-0.240233	0.571918
C62	C	1.385259	0.259767	1.071918
C63	C	1.376695	-0.305353	0.726166
C64	C	1.876695	0.194647	1.226166
C65	C	1.361944	-0.405617	0.740968
C66	C	1.861944	0.094383	1.240968
C67	C	1.517279	-0.688169	0.586236
C68	C	2.017279	-0.188169	1.086236
C69	C	1.531137	-0.593967	0.572324
C70	C	2.031137	-0.093967	1.072324
C71	C	1.488840	-0.546875	0.614484
C72	C	1.988840	-0.046875	1.114484
C73	C	1.432683	-0.593994	0.670558
C74	C	1.932683	-0.093994	1.170558
C75	C	1.418817	-0.688207	0.684465
C76	C	1.918817	-0.188207	1.184465
C77	C	1.390378	-0.546913	0.712713
C78	C	1.890378	-0.046913	1.212713
C79	C	1.334221	-0.594032	0.768787
C80	C	1.834221	-0.094032	1.268787
C81	C	1.320359	-0.688236	0.782693
C82	C	1.820359	-0.188236	1.282693
C83	C	1.362656	-0.735328	0.740533
C84	C	1.862656	-0.235328	1.240533
C85	C	1.404244	-0.452700	0.698806
C86	C	1.904244	0.047300	1.198806
C87	C	1.305782	-0.452738	0.797035
C88	C	1.805782	0.047262	1.297035
C89	C	1.291925	-0.546940	0.810947
C90	C	1.791925	-0.046940	1.310947
C91	C	1.661283	-0.021725	0.726507
C92	C	2.161283	0.478275	1.226507
C93	C	1.767771	-0.000757	0.741355
C94	C	2.267771	0.499243	1.241355
C95	C	1.460753	-0.021598	0.927009
C96	C	1.960753	0.478402	1.427009
C97	C	1.481787	-0.000576	1.027298
C98	C	1.981787	0.499424	1.527298
C99	C	1.446260	0.164419	0.657053
C100	C	1.946260	0.664419	1.157053
C101	C	1.461117	0.264710	0.642303
C102	C	1.961117	0.764710	1.142303
C103	C	1.362292	-0.119993	0.457235
C104	C	1.862292	0.380007	0.957235
C105	C	1.341482	-0.140725	0.356934
C106	C	1.841482	0.359275	0.856934
C107	C	1.561487	0.079072	1.074468
C108	C	2.061487	0.579072	1.574468
C109	C	1.581243	0.098833	1.168692
C110	C	2.081243	0.598833	1.668692
C111	C	1.521305	0.038946	1.215757
C112	C	2.021305	0.538946	1.715757
C113	C	1.441607	-0.040707	1.168589
C114	C	1.941607	0.459293	1.668589
C115	C	1.421844	-0.060467	1.074354
C116	C	1.921844	0.439533	1.574354
C117	C	1.381662	-0.100593	1.215644
C118	C	1.881662	0.399407	1.715644
C119	C	1.301964	-0.180246	1.168475
C120	C	1.801964	0.319754	1.668475
C121	C	1.282205	-0.200002	1.074250
C122	C	1.782205	0.299998	1.574250
C123	C	1.342144	-0.140114	1.027185
C124	C	1.842144	0.359886	1.527185
C125	C	1.401424	-0.080834	1.309879
C126	C	1.901424	0.419166	1.809879
C127	C	1.261781	-0.220372	1.309765
C128	C	1.761781	0.279628	1.809765
C129	C	1.242025	-0.240134	1.215541
C130	C	1.742025	0.259866	1.715541
H131	H	1.049346	0.054740	0.780559
H132	H	1.549346	0.554740	1.280559
Br133	Br	1.025169	-0.301776	0.528368
Br134	Br	1.525169	0.198224	1.028368
Br135	Br	1.689432	0.206901	1.232710
Br136	Br	2.189432	0.706901	1.732710
Br137	Br	0.590668	-0.166967	0.623797
Br138	Br	1.090668	0.333033	1.123797
H139	H	0.814523	0.127562	0.832129
H140	H	1.314523	0.627562	1.332129
Br141	Br	1.480452	-0.388765	0.622706
Br142	Br	1.980452	0.111235	1.122706
H143	H	1.177134	-0.304988	1.177123
H144	H	1.677134	0.195012	1.677123
Br145	Br	1.607356	-0.530023	0.496236
Br146	Br	2.107356	-0.030023	0.996236
Br147	Br	1.180425	-0.301649	1.373629
Br148	Br	1.680425	0.198351	1.873629
H149	H	1.610276	0.127827	1.036137
H150	H	2.110276	0.627827	1.536137
H151	H	0.698284	-0.264893	0.554521
H152	H	1.198284	0.235107	1.054521
H153	H	1.084165	-0.016257	0.730329
H154	H	1.584165	0.483743	1.230329
H155	H	1.537394	0.055041	1.292479
H156	H	2.037394	0.555041	1.792479
Br157	Br	1.034422	0.206547	0.887973
Br158	Br	1.534422	0.706547	1.387973
Br159	Br	0.789323	-0.348238	0.495522
Br160	Br	1.289323	0.151762	0.995522
Br161	Br	1.315339	-0.166935	0.899305
Br162	Br	1.815339	0.333065	1.399305
H163	H	1.500125	-0.470172	0.603153
H164	H	2.000125	0.029828	1.103153
Br165	Br	1.509580	0.027265	1.373880
Br166	Br	2.009580	0.527265	1.873880
H167	H	1.217307	-0.264859	1.035847
H168	H	1.717307	0.235141	1.535847
H169	H	1.246201	-0.585317	0.856603
H170	H	1.746201	-0.085317	1.356603
Br171	Br	1.574669	-0.752084	0.529021
Br172	Br	2.074669	-0.252084	1.029021
Br173	Br	1.244138	-0.752184	0.858785
Br174	Br	1.744138	-0.252184	1.358785
Br175	Br	1.248365	-0.388839	0.854246
Br176	Br	1.748365	0.111161	1.354246
Br177	Br	1.343337	-0.863347	0.758946
Br178	Br	1.843337	-0.363347	1.258946
