data_functionalizedCrystal
_audit_creation_method	'MofGen! by Chris Wilmer'
_symmetry_space_group_name_H-M	'P1'
_symmetry_Int_Tables_number	1
_symmetry_cell_setting	triclinic
loop_
_symmetry_equiv_pos_as_xyz
  x,y,z
_cell_length_a	19.188933
_cell_length_b	19.188930
_cell_length_c	10.065875
_cell_angle_alpha	98.754308
_cell_angle_beta	81.284263
_cell_angle_gamma	83.145175
loop_
_atom_site_label
_atom_site_type_symbol
_atom_site_fract_x
_atom_site_fract_y
_atom_site_fract_z
O1	O	0.936388	0.076883	-0.113461
O2	O	0.733078	0.088614	-0.113476
O3	O	0.840598	-0.018904	-0.113441
O4	O	0.828868	0.184402	-0.113495
O5	O	0.820095	0.001680	0.113541
O6	O	0.712575	0.109199	0.113507
O7	O	0.915885	0.097467	0.113521
Zn8	Zn	0.810975	0.106601	0.149552
Zn9	Zn	0.837988	0.079480	-0.149506
O10	O	0.808366	0.204986	0.113487
C11	C	0.696816	0.098526	0.000014
C12	C	0.619312	0.097385	0.000010
C13	C	0.829966	-0.034623	0.000054
C14	C	0.828824	-0.112126	0.000066
C15	C	0.077231	0.078020	-0.123702
C16	C	0.150056	0.079088	-0.123707
C17	C	0.175297	0.090846	0.000020
C18	C	0.127709	0.101519	0.123762
C19	C	0.054886	0.100444	0.123764
N20	N	0.275999	0.140615	0.092105
N21	N	0.345177	0.141637	0.092095
C22	C	0.394705	0.094084	0.000022
N23	N	0.372442	0.045477	-0.092062
N24	N	0.303257	0.044458	-0.092055
C25	C	0.254259	0.092012	0.000032
C26	C	0.521250	0.084564	-0.123719
C27	C	0.594076	0.085628	-0.123719
C28	C	0.571726	0.108066	0.123754
C29	C	0.498902	0.106995	0.123751
C30	C	0.473668	0.095247	0.000011
C31	C	0.891914	-0.157049	0.000077
C32	C	0.890844	-0.229875	0.000055
C33	C	0.826679	-0.257772	0.000049
C34	C	0.763581	-0.212841	0.000030
C35	C	0.764654	-0.140018	0.000039
N36	N	0.770654	-0.358773	0.077292
N37	N	0.769639	-0.427952	0.077287
C38	C	0.823443	-0.477183	0.000021
N39	N	0.878309	-0.454623	-0.077222
N40	N	0.879326	-0.385437	-0.077211
C41	C	0.825509	-0.336736	0.000039
C42	C	0.885378	-0.601073	0.000007
C43	C	0.884306	-0.673900	-0.000024
C44	C	0.757040	-0.656863	-0.000034
C45	C	0.758115	-0.584039	-0.000018
C46	C	0.822285	-0.556147	0.000009
C47	C	0.952148	0.087555	0.000029
C48	C	1.029653	0.088696	0.000024
C49	C	0.818998	0.220704	-0.000011
C50	C	0.820140	0.298207	-0.000032
N51	N	0.792544	0.125110	0.353652
N52	N	0.856425	0.060966	-0.353606
C53	C	0.831571	0.085916	0.421443
C54	C	0.817392	0.100166	0.578606
H55	H	0.056691	0.068451	-0.224461
H56	H	0.188801	0.070398	-0.224463
H57	H	0.900335	0.016855	0.588087
C58	C	0.758067	0.159755	0.657363
C59	C	0.760967	0.237470	0.637830
C60	C	0.701644	0.297058	0.716588
C61	C	0.639421	0.278930	0.814880
C62	C	0.636519	0.201211	0.834418
C63	C	0.695842	0.141624	0.755659
H64	H	0.807030	0.250893	0.565064
H65	H	0.703792	0.354590	0.702124
H66	H	0.595506	0.323040	0.873182
H67	H	0.590456	0.187789	0.907183
H68	H	0.693694	0.084091	0.770123
H69	H	0.748632	0.169213	0.411964
C70	C	0.002543	0.112193	0.259871
C71	C	-0.042483	0.053928	0.293911
C72	C	-0.094828	0.065680	0.430018
C73	C	-0.102147	0.135696	0.532084
C74	C	-0.057120	0.193965	0.498047
C75	C	-0.004774	0.182214	0.361940
H76	H	-0.037066	0.002094	0.218353
H77	H	-0.128160	0.022544	0.455214
H78	H	-0.140896	0.144394	0.632839
H79	H	-0.062537	0.245799	0.573605
H80	H	0.028558	0.225349	0.336743
H81	H	0.500704	0.074996	-0.224475
C82	C	0.155470	0.114454	0.259865
C83	C	0.235570	0.115642	0.259870
C84	C	0.263330	0.128574	0.395977
C85	C	0.210990	0.140318	0.532081
C86	C	0.130885	0.139131	0.532081
C87	C	0.103125	0.126199	0.395973
H88	H	0.274320	0.106948	0.159113
H89	H	0.322629	0.129453	0.395976
H90	H	0.231540	0.149891	0.632836
H91	H	0.092135	0.147825	0.632837
H92	H	0.043825	0.125320	0.395975
H93	H	0.875479	0.041807	0.363133
C94	C	0.646415	0.073879	-0.259830
C95	C	0.707660	0.010913	-0.293862
C96	C	0.759999	-0.000837	-0.429976
C97	C	0.751094	0.050378	-0.532058
C98	C	0.689846	0.113348	-0.498029
C99	C	0.637507	0.125098	-0.361915
H100	H	0.714254	-0.027003	-0.218292
H101	H	0.805338	-0.047452	-0.455166
H102	H	0.789838	0.041679	-0.632818
H103	H	0.683252	0.151264	-0.573599
H104	H	0.592168	0.171713	-0.336725
C105	C	0.695251	-0.090596	0.000037
C106	C	0.667842	-0.027514	0.117911
C107	C	0.598438	0.021909	0.117914
C108	C	0.556442	0.008251	0.000042
C109	C	0.583849	-0.054834	-0.117841
C110	C	0.653254	-0.104258	-0.117844
H111	H	0.698931	-0.017401	0.205175
H112	H	0.578149	0.068609	0.205179
H113	H	0.505064	0.044837	0.000044
H114	H	0.552761	-0.064947	-0.205105
H115	H	0.673542	-0.150957	-0.205109
H116	H	0.592277	0.117637	0.224495
C117	C	0.446561	0.118746	0.259856
C118	C	0.439241	0.188762	0.361922
C119	C	0.386901	0.200510	0.498035
C120	C	0.341881	0.142242	0.532080
C121	C	0.349199	0.072221	0.430011
C122	C	0.401539	0.060473	0.293899
H123	H	0.472569	0.231900	0.336722
H124	H	0.381484	0.252344	0.573593
H125	H	0.303135	0.150939	0.632839
H126	H	0.315871	0.029084	0.455212
H127	H	0.406957	0.008639	0.218341
H128	H	0.942222	-0.266458	0.000058
C129	C	0.962503	-0.126374	0.000081
C130	C	1.004208	-0.132739	0.117944
C131	C	1.074799	-0.102064	0.117940
C132	C	1.103685	-0.065026	0.000073
C133	C	1.061979	-0.058661	-0.117798
C134	C	0.991389	-0.089335	-0.117794
H135	H	0.982826	-0.160158	0.205204
H136	H	1.105672	-0.106777	0.205197
H137	H	1.155940	-0.042319	0.000071
H138	H	1.083362	-0.031241	-0.205058
H139	H	0.960516	-0.084622	-0.205051
H140	H	0.937629	-0.578363	0.000022
C141	C	0.692998	-0.243524	0.000022
C142	C	0.691814	-0.323626	0.000019
C143	C	0.621229	-0.354309	0.000002
C144	C	0.551828	-0.304891	-0.000013
C145	C	0.553010	-0.224785	-0.000009
C146	C	0.623595	-0.194101	0.000008
H147	H	0.743191	-0.360212	0.000030
H148	H	0.620355	-0.413609	-0.000000
H149	H	0.499577	-0.327605	-0.000026
H150	H	0.501633	-0.188198	-0.000020
H151	H	0.624469	-0.134801	0.000010
H152	H	0.935684	-0.710477	-0.000022
C153	C	0.688711	-0.534618	-0.000007
C154	C	0.646711	-0.548280	-0.117873
C155	C	0.577304	-0.498860	-0.117865
C156	C	0.549896	-0.435778	0.000008
C157	C	0.591896	-0.422112	0.117883
C158	C	0.661304	-0.471532	0.117875
H159	H	0.666999	-0.594981	-0.205137
H160	H	0.546212	-0.508977	-0.205124
H161	H	0.498516	-0.399194	0.000014
H162	H	0.571608	-0.375412	0.205147
H163	H	0.692395	-0.461416	0.205134
H164	H	0.704796	-0.679577	-0.000046
