data_functionalizedCrystal
_audit_creation_method	'MofGen! by Chris Wilmer'
_symmetry_space_group_name_H-M	'P1'
_symmetry_Int_Tables_number	1
_symmetry_cell_setting	triclinic
loop_
_symmetry_equiv_pos_as_xyz
  x,y,z
_cell_length_a	13.897448
_cell_length_b	12.759401
_cell_length_c	12.759393
_cell_angle_alpha	90.019676
_cell_angle_beta	90.032272
_cell_angle_gamma	90.018119
loop_
_atom_site_label
_atom_site_type_symbol
_atom_site_fract_x
_atom_site_fract_y
_atom_site_fract_z
Zn1	Zn	-0.383957	1.606244	0.593972
Zn2	Zn	-0.545284	1.606126	0.418286
Zn3	Zn	-0.384005	1.430543	0.418311
Zn4	Zn	-0.545213	1.430526	0.593928
O5	O	-0.464615	1.518360	0.506124
O6	O	-0.405367	1.753250	0.570675
O7	O	-0.523939	1.582793	0.271269
O8	O	-0.249017	1.453907	0.441641
O9	O	-0.523893	1.753163	0.441600
O10	O	-0.248982	1.582994	0.570699
O11	O	-0.405449	1.453793	0.271286
O12	O	-0.405381	1.283520	0.441598
O13	O	-0.523773	1.453878	0.740955
O14	O	-0.523819	1.283507	0.570623
O15	O	-0.405299	1.582977	0.740987
O16	O	-0.680256	1.582776	0.441557
O17	O	-0.680204	1.453763	0.570600
C18	C	-0.464598	1.245393	0.506109
C19	C	-0.464614	1.128616	0.506128
C20	C	-0.403010	1.073800	0.573441
C21	C	-0.403019	0.964076	0.573448
C22	C	-0.526247	0.963994	0.438826
C23	C	-0.526232	1.073716	0.438814
C24	C	-0.289323	0.814163	0.611220
C25	C	-0.227726	0.759343	0.678550
C26	C	-0.213025	0.795002	0.781089
C27	C	-0.259934	0.885480	0.816319
C28	C	-0.321538	0.940294	0.748995
C29	C	-0.336221	0.904636	0.646442
C30	C	-0.639930	1.223631	0.401053
C31	C	-0.701539	1.278447	0.333733
C32	C	-0.716250	1.242790	0.231193
C33	C	-0.669358	1.152309	0.195966
C34	C	-0.607749	1.097493	0.263285
C35	C	-0.593036	1.133157	0.365825
C36	C	-0.715229	1.518283	0.506094
C37	C	-0.822443	1.518347	0.506116
C38	C	-1.018738	1.518457	0.506182
C39	C	-0.909506	1.518393	0.506148
C40	C	-0.213022	1.518466	0.506178
C41	C	-0.105808	1.518511	0.506200
C42	C	-0.464522	1.518439	0.780158
C43	C	-0.464483	1.518472	0.896934
C44	C	-0.464632	1.792393	0.506140
C45	C	-0.464640	1.909170	0.506146
C46	C	-0.464638	1.518342	0.233157
C47	C	-0.464405	1.518512	0.116381
C48	C	-0.402784	1.585699	0.951815
C49	C	-0.402742	1.585717	1.061539
C50	C	-0.526107	1.451278	1.061492
C51	C	-0.526143	1.451255	0.951770
C52	C	-0.288937	1.623336	1.211520
C53	C	-0.227246	1.690579	1.266404
C54	C	-0.212456	1.793093	1.230811
C55	C	-0.259372	1.828384	1.140336
C56	C	-0.321070	1.761146	1.085457
C57	C	-0.335841	1.658618	1.121049
C58	C	-0.639950	1.413648	0.801787
C59	C	-0.701653	1.346414	0.746906
C60	C	-0.716453	1.243899	0.782497
C61	C	-0.669554	1.208612	0.872977
C62	C	-0.607851	1.275845	0.927857
C63	C	-0.593050	1.378359	0.892259
H64	H	-0.352834	1.118496	0.628249
O65	O	-0.752148	1.376023	0.371721
H66	H	-0.730822	1.443565	0.322091
O67	O	-0.244082	0.923942	0.926920
H68	H	-0.193358	0.870632	0.967813
H69	H	-0.359726	1.013962	0.777677
O70	O	-0.336273	1.658191	0.892675
H71	H	-0.379466	1.711623	0.842693
O72	O	-0.304879	1.512757	1.249900
H73	H	-0.261902	1.499525	1.322037
H74	H	-0.189533	0.685676	0.649855
O75	O	-0.592705	0.904773	0.366232
H76	H	-0.635533	0.961327	0.319414
H77	H	-0.627949	1.252678	0.484548
O78	O	-0.782705	1.301915	0.158586
H79	H	-0.785054	1.261912	0.081366
H80	H	-0.162871	0.750360	0.835909
O81	O	-0.592609	1.378781	1.120638
H82	H	-0.641680	1.425788	1.170618
O83	O	-0.305168	0.775713	0.500613
H84	H	-0.262211	0.703586	0.487438
O85	O	-0.557158	0.999907	0.225294
H86	H	-0.577728	0.984322	0.142677
O87	O	-0.685212	1.113843	0.085365
H88	H	-0.735920	1.167167	0.044468
O89	O	-0.371665	1.799188	0.987872
H90	H	-0.351015	1.881771	0.972336
H91	H	-0.247332	1.911865	1.111368
H92	H	-0.162226	1.847843	1.275506
O93	O	-0.176629	1.652517	1.363975
H94	H	-0.197257	1.569925	1.379494
H95	H	-0.569664	1.247106	1.001531
H96	H	-0.681608	1.125136	0.901959
O97	O	-0.783004	1.171376	0.723307
H98	H	-0.813132	1.213130	0.654410
H99	H	-0.739849	1.375158	0.673240
H100	H	-0.627898	1.497122	0.772794
