data_functionalizedCrystal
_audit_creation_method	'MofGen! by Chris Wilmer'
_symmetry_space_group_name_H-M	'P1'
_symmetry_Int_Tables_number	1
_symmetry_cell_setting	triclinic
loop_
_symmetry_equiv_pos_as_xyz
  x,y,z
_cell_length_a	13.635800
_cell_length_b	9.109307
_cell_length_c	11.102291
_cell_angle_alpha	82.515494
_cell_angle_beta	108.605752
_cell_angle_gamma	68.235001
loop_
_atom_site_label
_atom_site_type_symbol
_atom_site_fract_x
_atom_site_fract_y
_atom_site_fract_z
V1	V	2.072302	-0.225379	0.420843
O2	O	2.034493	0.010809	0.387537
O3	O	2.076938	-0.446869	0.442293
O4	O	2.060441	-0.221922	0.593288
O5	O	2.051104	-0.215695	0.235496
V6	V	2.308781	-0.197127	0.395719
O7	O	2.214520	-0.287352	0.475956
O8	O	2.391662	-0.135154	0.340607
O9	O	2.192542	0.024362	0.374269
O10	O	2.405289	-0.433316	0.429026
O11	O	2.388677	-0.206811	0.581066
O12	O	2.209039	-0.200585	0.223274
V13	V	2.572302	-0.225379	0.420843
O14	O	2.534493	0.010809	0.387537
O15	O	2.576938	-0.446869	0.442293
O16	O	2.560441	-0.221922	0.593288
O17	O	2.551104	-0.215695	0.235496
V18	V	2.808781	-0.197127	0.395719
O19	O	2.714520	-0.287352	0.475956
O20	O	2.891662	-0.135154	0.340607
O21	O	2.692542	0.024362	0.374269
O22	O	2.905289	-0.433316	0.429026
O23	O	2.888677	-0.206811	0.581066
O24	O	2.709039	-0.200585	0.223274
C25	C	2.006054	-0.500863	0.441932
C26	C	2.050570	-0.681934	0.460619
C27	C	1.985010	-0.213918	0.634539
C28	C	2.016144	-0.212557	0.775674
C29	C	2.095097	0.078348	0.374628
C30	C	2.040201	0.259417	0.355949
C31	C	2.116141	-0.208593	0.182017
C32	C	2.074625	-0.209946	0.040880
C33	C	2.506054	-0.500863	0.441932
C34	C	2.550570	-0.681934	0.460619
C35	C	2.485010	-0.213918	0.634539
C36	C	2.516144	-0.212557	0.775674
C37	C	2.123370	-0.220041	0.849338
C38	C	2.152610	-0.218730	0.981941
C39	C	1.967388	-0.202457	0.967205
C40	C	1.938147	-0.203756	0.834602
C41	C	2.230309	-0.229443	0.857849
C42	C	2.259549	-0.228132	0.990452
C43	C	2.595097	0.078348	0.374628
C44	C	2.540201	0.259417	0.355949
C45	C	2.616141	-0.208593	0.182017
C46	C	2.574625	-0.209946	0.040880
C47	C	2.664102	-0.775272	0.476651
C48	C	2.705949	-0.945412	0.494230
C49	C	2.634260	-1.022209	0.495767
C50	C	2.520719	-0.928859	0.479738
C51	C	2.478876	-0.758724	0.462169
C52	C	2.599163	0.352754	0.339921
C53	C	2.547589	0.522893	0.322348
C54	C	2.437055	0.599690	0.320814
C55	C	2.378089	0.506341	0.336840
C56	C	2.429660	0.336207	0.354402
C57	C	2.623370	-0.220041	0.849338
C58	C	2.652610	-0.218730	0.981941
C59	C	2.467388	-0.202457	0.967205
C60	C	2.438147	-0.203756	0.834602
C61	C	2.730309	-0.229443	0.857849
C62	C	2.759549	-0.228132	0.990452
H63	H	1.997287	-0.652268	0.252012
H64	H	2.093496	-0.770259	0.564564
H65	H	2.786918	-0.350913	0.846635
H66	H	1.850836	-0.197664	0.774629
H67	H	1.903889	-0.195289	1.015200
F68	F	2.864755	-0.382062	1.076323
H69	H	2.386427	-0.682738	0.449109
F70	F	2.366893	0.236886	0.371464
F71	F	2.232428	-0.084939	0.780521
F72	F	2.304300	-0.388208	0.843184
H73	H	2.340037	-0.345906	1.056146
H74	H	2.798401	-1.021394	0.507276
H75	H	2.350836	-0.197664	0.774629
F76	F	2.272296	-0.076977	1.012010
H77	H	2.722489	-0.712766	0.475394
F78	F	2.444433	-1.010615	0.481373
H79	H	2.668346	-1.160745	0.510074
H80	H	2.689167	0.290250	0.341168
H81	H	2.595620	0.598875	0.309303
H82	H	2.395075	0.738225	0.306511
H83	H	2.288086	0.568895	0.335586
F84	F	2.384386	-0.193093	1.029932
F85	F	2.732428	-0.084939	0.780521
H86	H	2.769296	-0.112482	1.006938
