data_functionalizedCrystal
_audit_creation_method	'MofGen! by Chris Wilmer'
_symmetry_space_group_name_H-M	'P1'
_symmetry_Int_Tables_number	1
_symmetry_cell_setting	triclinic
loop_
_symmetry_equiv_pos_as_xyz
  x,y,z
_cell_length_a	23.532407
_cell_length_b	10.654550
_cell_length_c	9.730223
_cell_angle_alpha	90.003851
_cell_angle_beta	89.994876
_cell_angle_gamma	96.333210
loop_
_atom_site_label
_atom_site_type_symbol
_atom_site_fract_x
_atom_site_fract_y
_atom_site_fract_z
O1	O	0.079982	-1.665300	-0.114418
O2	O	0.087602	-1.299580	-0.114398
O3	O	0.000932	-1.493469	-0.114384
O4	O	0.166652	-1.471412	-0.114433
O5	O	0.000936	-1.493466	0.114196
O6	O	0.087606	-1.299577	0.114182
O7	O	0.079985	-1.665297	0.114161
Zn8	Zn	0.083796	-1.482437	0.150464
Zn9	Zn	0.083791	-1.482441	-0.150700
O10	O	0.166655	-1.471409	0.114147
C11	C	0.087044	-1.252799	-0.000105
C12	C	0.085370	-1.113408	-0.000096
C13	C	-0.020286	-1.492905	-0.000090
C14	C	-0.083514	-1.491217	-0.000079
N15	N	0.083799	-1.482443	0.356000
C16	C	-0.481938	-1.595364	-0.000161
C17	C	-0.541349	-1.593795	-0.000171
O18	O	-0.577464	-1.690341	-0.000227
N19	N	-0.564726	-1.478529	-0.000164
C20	C	-0.528689	-1.364824	-0.000160
O21	O	-0.554029	-1.266636	-0.000156
C22	C	-0.469280	-1.366394	-0.000159
C23	C	-0.445906	-1.481668	-0.000153
C24	C	-0.458564	-1.710629	-0.000156
C25	C	-0.399158	-1.712197	-0.000143
C26	C	-0.363126	-1.598500	-0.000135
C27	C	-0.386500	-1.483236	-0.000140
C28	C	-0.433244	-1.252690	-0.000165
C29	C	-0.373832	-1.254270	-0.000166
C30	C	-0.350458	-1.369544	-0.000159
C31	C	-0.291061	-1.371107	-0.000119
N32	N	-0.267684	-1.486374	-0.000126
C33	C	-0.303716	-1.600070	-0.000134
C34	C	-0.653453	-1.361535	-0.000163
C35	C	-0.712861	-1.359964	-0.000154
C36	C	-0.725517	-1.588936	-0.000168
C37	C	-0.666108	-1.590506	-0.000167
C38	C	-0.630076	-1.476802	-0.000171
C39	C	-0.178958	-1.603355	-0.000106
C40	C	-0.119546	-1.604913	-0.000087
C41	C	-0.106896	-1.375942	-0.000081
C42	C	-0.166303	-1.374383	-0.000092
C43	C	-0.202333	-1.488100	-0.000109
O44	O	-0.254911	-1.274613	-0.000068
O45	O	-0.278369	-1.698241	-0.000157
C46	C	0.187873	-1.471972	-0.000149
C47	C	0.251101	-1.473661	-0.000169
C48	C	0.080543	-1.712079	-0.000135
C49	C	0.082217	-1.851469	-0.000152
C50	C	0.136400	-1.032306	-0.000131
C51	C	0.134824	-0.901335	-0.000154
C52	C	0.031183	-0.932582	-0.000113
C53	C	0.032760	-1.063550	-0.000080
C54	C	0.189010	-1.082164	-0.000147
C55	C	0.240045	-1.001060	-0.000184
C56	C	0.238468	-0.870089	-0.000207
C57	C	0.185858	-0.820222	-0.000194
C58	C	0.045435	-1.568318	0.427932
C59	C	0.045429	-1.568315	0.571815
C60	C	0.122156	-1.396557	0.571821
C61	C	0.122159	-1.396556	0.427941
C62	C	0.007075	-1.654206	0.355992
C63	C	-0.031291	-1.740089	0.427924
C64	C	-0.031297	-1.740086	0.571807
C65	C	0.007063	-1.654199	0.643758
N66	N	0.083790	-1.482441	0.643763
H67	H	-0.100519	-1.698787	-0.000079
Br68	Br	-0.040212	-0.864905	-0.000098
Br69	Br	-0.036496	-1.173627	-0.000024
H70	H	0.007051	-1.654195	0.760917
Br71	Br	0.174214	-1.280006	0.669466
Br72	Br	0.174222	-1.280000	0.330314
Br73	Br	-0.367446	-1.868648	-0.000173
Br74	Br	-0.227847	-1.757687	-0.000131
Br75	Br	0.183720	-0.642474	-0.000199
H76	H	0.007078	-1.654219	0.238835
Br77	Br	0.191153	-1.259909	-0.000129
H78	H	-0.062527	-1.810008	0.369335
Br79	Br	-0.198026	-1.217939	-0.000069
H80	H	-0.344497	-1.161675	-0.000171
Br81	Br	-0.507455	-1.864953	-0.000168
Br82	Br	-0.634393	-1.746954	-0.000156
H83	H	-0.754865	-1.681514	-0.000180
Br84	Br	-0.083371	-1.856624	0.669430
Br85	Br	0.311441	-1.068733	-0.000181
H86	H	-0.624119	-1.268937	-0.000154
Br87	Br	-0.744575	-1.203515	-0.000130
H88	H	-0.077548	-1.283373	-0.000069
Br89	Br	-0.464950	-1.096237	-0.000179
H90	H	0.280023	-0.804057	-0.000223
