data_functionalizedCrystal
_audit_creation_method	'MofGen! by Chris Wilmer'
_symmetry_space_group_name_H-M	'P1'
_symmetry_Int_Tables_number	1
_symmetry_cell_setting	triclinic
loop_
_symmetry_equiv_pos_as_xyz
  x,y,z
_cell_length_a	6.817900
_cell_length_b	10.992469
_cell_length_c	10.992410
_cell_angle_alpha	91.830594
_cell_angle_beta	108.764651
_cell_angle_gamma	108.765624
loop_
_atom_site_label
_atom_site_type_symbol
_atom_site_fract_x
_atom_site_fract_y
_atom_site_fract_z
V1	V	-4.114252	-0.177761	-0.400575
O2	O	-4.072376	0.008542	-0.392968
O3	O	-4.091835	-0.352470	-0.397817
O4	O	-4.091844	-0.175026	-0.575288
O5	O	-4.072367	-0.170130	-0.214269
V6	V	-4.591146	-0.155477	-0.378293
O7	O	-4.390054	-0.226642	-0.449451
O8	O	-4.765541	-0.106595	-0.329417
O9	O	-4.390356	0.019232	-0.381051
O10	O	-4.750419	-0.341780	-0.385900
O11	O	-4.750428	-0.163108	-0.564599
O12	O	-4.390347	-0.158211	-0.203581
C13	C	-3.942316	-0.395060	-0.391493
C14	C	-4.005448	-0.537887	-0.390403
C15	C	-3.807069	-0.584385	-0.382247
C16	C	-3.872923	-0.733022	-0.381616
C17	C	-4.270158	-0.764535	-0.515760
C18	C	-4.203032	-0.615889	-0.516930
C19	C	-4.079366	-0.577587	-0.271579
C20	C	-4.140104	-0.725808	-0.268700
C21	C	-3.942326	-0.168712	-0.617873
C22	C	-4.005461	-0.167632	-0.760701
C23	C	-3.872583	-0.157796	-0.955826
C24	C	-3.807033	-0.159451	-0.807342
C25	C	-4.203480	-0.294312	-0.837792
C26	C	-4.267793	-0.293192	-0.986359
C27	C	-4.145553	-0.047893	-0.948352
C28	C	-4.074844	-0.047293	-0.799339
C29	C	-4.203218	0.061816	-0.387371
C30	C	-4.119326	0.204641	-0.388470
C31	C	-4.203207	-0.164530	-0.160989
C32	C	-4.119310	-0.165603	-0.018159
H33	H	-3.756357	-0.752659	-0.290140
N34	N	-4.146071	-0.406401	-0.805694
N35	N	-4.146232	-0.482715	-0.892530
H36	H	-4.105675	-0.561876	-0.869864
H37	H	-3.658576	-0.068362	-0.754011
N38	N	-3.908136	-0.509159	-0.151802
N39	N	-3.723360	-0.521786	-0.121274
H40	H	-3.602408	-0.473460	-0.036686
N41	N	-4.359245	-0.778033	-0.265623
N42	N	-4.390606	-0.828799	-0.170194
H43	H	-4.545386	-0.865681	-0.168026
H44	H	-4.027648	-0.744010	-0.174605
H45	H	-3.749666	-0.557714	-0.467603
N46	N	-4.145762	-0.586955	-0.629636
N47	N	-4.250734	-0.533932	-0.712365
H48	H	-4.210284	-0.513500	-0.791965
H49	H	-3.749855	-0.245201	-0.782519
H50	H	-3.847754	-0.779329	-0.467026
H51	H	-3.931588	0.046420	-0.746991
N52	N	-3.841270	-0.263895	-1.015995
N53	N	-3.778353	-0.343235	-0.949221
H54	H	-3.756235	-0.418166	-0.991718
N55	N	-4.253230	-0.045449	-0.758651
N56	N	-4.329932	0.043877	-0.781544
H57	H	-4.455972	0.045154	-0.752843
N58	N	-4.016441	0.072779	-0.973913
N59	N	-3.903504	0.073488	-1.043899
H60	H	-3.812299	0.158708	-1.061952
N61	N	-4.370088	-0.053678	-0.999596
N62	N	-4.510357	-0.144006	-1.087138
H63	H	-4.668937	-0.148101	-1.123338
H64	H	-3.657894	-0.531792	-0.291257
H65	H	-4.353047	-0.586514	-0.528115
H66	H	-4.451611	-0.806311	-0.525421
H67	H	-4.227052	-0.548039	-0.276362
N68	N	-4.248230	-0.404993	-1.044378
N69	N	-4.065745	-0.420829	-1.010732
H70	H	-4.051917	-0.499790	-1.051700
H71	H	-4.257886	-0.813377	-0.604719
N72	N	-3.725646	-0.042749	-0.979540
N73	N	-3.743354	-0.024198	-1.093581
H74	H	-3.639612	0.057057	-1.110360
H75	H	-4.449795	-0.304208	-1.028989
H76	H	-4.353856	-0.304874	-0.808988
