data_functionalizedCrystal
_audit_creation_method	'MofGen! by Chris Wilmer'
_symmetry_space_group_name_H-M	'P1'
_symmetry_Int_Tables_number	1
_symmetry_cell_setting	triclinic
loop_
_symmetry_equiv_pos_as_xyz
  x,y,z
_cell_length_a	17.077404
_cell_length_b	19.805405
_cell_length_c	17.077396
_cell_angle_alpha	89.971037
_cell_angle_beta	89.981638
_cell_angle_gamma	90.024696
loop_
_atom_site_label
_atom_site_type_symbol
_atom_site_fract_x
_atom_site_fract_y
_atom_site_fract_z
Zn1	Zn	1.200034	-0.269500	-0.443816
Zn2	Zn	1.450034	-0.019500	-0.193816
Zn3	Zn	1.700034	0.230500	0.056184
Zn4	Zn	1.950034	0.480500	0.306184
Zn5	Zn	1.199932	-0.382693	-0.312549
Zn6	Zn	1.449932	-0.132693	-0.062549
Zn7	Zn	1.699932	0.117307	0.187451
Zn8	Zn	1.949932	0.367307	0.437451
Zn9	Zn	1.068765	-0.269519	-0.312567
Zn10	Zn	1.318765	-0.019519	-0.062567
Zn11	Zn	1.568765	0.230481	0.187433
Zn12	Zn	1.818765	0.480481	0.437433
Zn13	Zn	1.068725	-0.382648	-0.443775
Zn14	Zn	1.318725	-0.132648	-0.193775
Zn15	Zn	1.568725	0.117352	0.056225
Zn16	Zn	1.818725	0.367352	0.306225
O17	O	1.134364	-0.326090	-0.378177
O18	O	1.384364	-0.076090	-0.128177
O19	O	1.634364	0.173910	0.121823
O20	O	1.884364	0.423910	0.371823
O21	O	1.309867	-0.284526	-0.426413
O22	O	1.559867	-0.034526	-0.176413
O23	O	1.809867	0.215474	0.073587
O24	O	2.059867	0.465474	0.323587
O25	O	1.182507	-0.367707	-0.202704
O26	O	1.432507	-0.117707	0.047296
O27	O	1.682507	0.132293	0.297296
O28	O	1.932507	0.382293	0.547296
O29	O	1.086238	-0.174800	-0.330002
O30	O	1.336238	0.075200	-0.080002
O31	O	1.586238	0.325200	0.169998
O32	O	1.836238	0.575200	0.419998
O33	O	1.309792	-0.367688	-0.329972
O34	O	1.559792	-0.117688	-0.079972
O35	O	1.809792	0.132312	0.170028
O36	O	2.059792	0.382312	0.420028
O37	O	1.182680	-0.174786	-0.426430
O38	O	1.432680	0.075214	-0.176430
O39	O	1.682680	0.325214	0.073570
O40	O	1.932680	0.575214	0.323570
O41	O	1.086139	-0.284559	-0.202717
O42	O	1.336139	-0.034559	0.047283
O43	O	1.586139	0.215441	0.297283
O44	O	1.836139	0.465441	0.547283
O45	O	0.958913	-0.284515	-0.329962
O46	O	1.208913	-0.034515	-0.079962
O47	O	1.458913	0.215485	0.170038
O48	O	1.708913	0.465485	0.420038
O49	O	1.086169	-0.367612	-0.553628
O50	O	1.336169	-0.117612	-0.303628
O51	O	1.586169	0.132388	-0.053628
O52	O	1.836169	0.382388	0.196372
O53	O	0.958883	-0.367631	-0.426360
O54	O	1.208883	-0.117631	-0.176360
O55	O	1.458883	0.132369	0.073640
O56	O	1.708883	0.382369	0.323640
O57	O	1.182641	-0.284482	-0.553658
O58	O	1.432641	-0.034482	-0.303658
O59	O	1.682641	0.215518	-0.053658
O60	O	1.932641	0.465518	0.196342
O61	O	1.182467	-0.477404	-0.329932
O62	O	1.432467	-0.227404	-0.079932
O63	O	1.682467	0.022596	0.170068
O64	O	1.932467	0.272596	0.420068
O65	O	1.086070	-0.477371	-0.426343
O66	O	1.336070	-0.227371	-0.176343
O67	O	1.586070	0.022629	0.073657
O68	O	1.836070	0.272629	0.323657
C69	C	0.930416	-0.326071	-0.378159
C70	C	1.180416	-0.076071	-0.128159
C71	C	1.430416	0.173929	0.121841
C72	C	1.680416	0.423929	0.371841
C73	C	0.843166	-0.326079	-0.378170
C74	C	1.093166	-0.076079	-0.128170
C75	C	1.343166	0.173921	0.121830
C76	C	1.593166	0.423921	0.371830
C77	C	0.802216	-0.282853	-0.428464
C78	C	1.052216	-0.032853	-0.178464
C79	C	1.302216	0.217147	0.071536
C80	C	1.552216	0.467147	0.321536
C81	C	0.720235	-0.282858	-0.428468
C82	C	0.970235	-0.032858	-0.178468
C83	C	1.220235	0.217142	0.071532
C84	C	1.470235	0.467142	0.321532
C85	C	0.679207	-0.326092	-0.378181
C86	C	0.929207	-0.076092	-0.128181
C87	C	1.179207	0.173908	0.121819
C88	C	1.429207	0.423908	0.371819
C89	C	0.720163	-0.369319	-0.327882
C90	C	0.970163	-0.119319	-0.077882
C91	C	1.220163	0.130681	0.172118
C92	C	1.470163	0.380681	0.422118
C93	C	0.802142	-0.369311	-0.327875
C94	C	1.052142	-0.119311	-0.077875
C95	C	1.302142	0.130689	0.172125
C96	C	1.552142	0.380689	0.422125
C97	C	0.549293	-0.369335	-0.327901
C98	C	0.799293	-0.119335	-0.077901
C99	C	1.049293	0.130665	0.172099
C100	C	1.299293	0.380665	0.422099
C101	C	0.467308	-0.369344	-0.327909
C102	C	0.717308	-0.119344	-0.077909
C103	C	0.967308	0.130656	0.172091
C104	C	1.217308	0.380656	0.422091
C105	C	0.467386	-0.282881	-0.428494
C106	C	0.717386	-0.032881	-0.178494
C107	C	0.967386	0.217119	0.071506
C108	C	1.217386	0.467119	0.321506
C109	C	0.549365	-0.282873	-0.428487
C110	C	0.799365	-0.032873	-0.178487
C111	C	1.049365	0.217127	0.071513
C112	C	1.299365	0.467127	0.321513
C113	C	0.590316	-0.326102	-0.378189
C114	C	0.840316	-0.076102	-0.128189
C115	C	1.090316	0.173898	0.121811
C116	C	1.340316	0.423898	0.371811
C117	C	1.134274	-0.501946	-0.378148
C118	C	1.384274	-0.251946	-0.128148
C119	C	1.634274	-0.001946	0.121852
C120	C	1.884274	0.248054	0.371852
C121	C	1.134308	-0.577178	-0.378163
C122	C	1.384308	-0.327178	-0.128163
C123	C	1.634308	-0.077178	0.121837
C124	C	1.884308	0.172822	0.371837
C125	C	1.184496	-0.612457	-0.428412
C126	C	1.434496	-0.362457	-0.178412
C127	C	1.684496	-0.112457	0.071588
C128	C	1.934496	0.137543	0.321588
C129	C	1.184524	-0.683145	-0.428427
C130	C	1.434524	-0.433145	-0.178427
C131	C	1.684524	-0.183145	0.071573
C132	C	1.934524	0.066855	0.321573
C133	C	1.134368	-0.718554	-0.378187
C134	C	1.384368	-0.468554	-0.128187
C135	C	1.634368	-0.218554	0.121813
C136	C	1.884368	0.031446	0.371813
C137	C	1.084175	-0.683270	-0.327935
C138	C	1.334175	-0.433270	-0.077935
C139	C	1.584175	-0.183270	0.172065
C140	C	1.834175	0.066730	0.422065
C141	C	1.084143	-0.612583	-0.327925
C142	C	1.334143	-0.362583	-0.077925
C143	C	1.584143	-0.112583	0.172075
C144	C	1.834143	0.137417	0.422075
C145	C	1.084301	-0.968343	-0.327976
C146	C	1.334301	-0.718343	-0.077976
C147	C	1.584301	-0.468343	0.172024
C148	C	1.834301	-0.218343	0.422024
C149	C	1.084338	-1.039035	-0.327988
C150	C	1.334338	-0.789035	-0.077988
C151	C	1.584338	-0.539035	0.172012
C152	C	1.834338	-0.289035	0.422012
C153	C	1.184682	-1.038905	-0.428477
C154	C	1.434682	-0.788905	-0.178477
C155	C	1.684682	-0.538905	0.071523
C156	C	1.934682	-0.288905	0.321523
C157	C	1.184650	-0.968218	-0.428467
C158	C	1.434650	-0.718218	-0.178467
C159	C	1.684650	-0.468218	0.071533
C160	C	1.934650	-0.218218	0.321533
C161	C	1.134454	-0.932941	-0.378218
C162	C	1.384454	-0.682941	-0.128218
C163	C	1.634454	-0.432941	0.121782
C164	C	1.884454	-0.182941	0.371782
C165	C	1.134423	-0.856293	-0.378204
C166	C	1.384423	-0.606293	-0.128204
C167	C	1.634423	-0.356293	0.121796
C168	C	1.884423	-0.106293	0.371796
C169	C	1.134403	-0.795201	-0.378197
C170	C	1.384403	-0.545201	-0.128197
C171	C	1.634403	-0.295201	0.121803
C172	C	1.884403	-0.045201	0.371803
C173	C	1.339108	-0.326110	-0.378195
C174	C	1.589108	-0.076110	-0.128195
C175	C	1.839108	0.173890	0.121805
C176	C	2.089108	0.423890	0.371805
C177	C	1.426358	-0.326118	-0.378203
C178	C	1.676358	-0.076118	-0.128203
C179	C	1.926358	0.173882	0.121797
C180	C	2.176358	0.423882	0.371797
C181	C	1.134411	-0.326040	-0.582921
C182	C	1.384411	-0.076040	-0.332921
C183	C	1.634411	0.173960	-0.082921
C184	C	1.884411	0.423960	0.167079
C185	C	1.134432	-0.326019	-0.670171
C186	C	1.384432	-0.076019	-0.420171
C187	C	1.634432	0.173981	-0.170171
C188	C	1.884432	0.423981	0.079829
C189	C	1.134475	-0.149547	-0.378223
C190	C	1.384475	0.100453	-0.128223
C191	C	1.634475	0.350453	0.121777
C192	C	1.884475	0.600453	0.371777
C193	C	1.134522	-0.074315	-0.378242
C194	C	1.384522	0.175685	-0.128242
C195	C	1.634522	0.425685	0.121758
C196	C	1.884522	0.675685	0.371758
C197	C	1.184667	-0.282730	-0.711178
C198	C	1.434667	-0.032730	-0.461178
C199	C	1.684667	0.217270	-0.211178
C200	C	1.934667	0.467270	0.038822
C201	C	1.184676	-0.282707	-0.793159
C202	C	1.434676	-0.032707	-0.543159
C203	C	1.684676	0.217293	-0.293159
C204	C	1.934676	0.467293	-0.043159
C205	C	1.134454	-0.325978	-0.834131
C206	C	1.384454	-0.075978	-0.584131
C207	C	1.634454	0.174022	-0.334131
C208	C	1.884454	0.424022	-0.084131
C209	C	1.084214	-0.369269	-0.793118
C210	C	1.334214	-0.119269	-0.543118
C211	C	1.584214	0.130731	-0.293118
C212	C	1.834214	0.380731	-0.043118
C213	C	1.084201	-0.369287	-0.711139
C214	C	1.334201	-0.119287	-0.461139
C215	C	1.584201	0.130713	-0.211139
C216	C	1.834201	0.380713	0.038861
C217	C	1.084245	-0.369228	-0.963988
C218	C	1.334245	-0.119228	-0.713988
C219	C	1.584245	0.130772	-0.463988
C220	C	1.834245	0.380772	-0.213988
C221	C	1.084259	-0.369211	-1.045973
C222	C	1.334259	-0.119211	-0.795973
C223	C	1.584259	0.130789	-0.545973
C224	C	1.834259	0.380789	-0.295973
C225	C	1.184720	-0.282648	-1.046008
C226	C	1.434720	-0.032648	-0.796008
C227	C	1.684720	0.217352	-0.546008
C228	C	1.934720	0.467352	-0.296008
C229	C	1.184708	-0.282666	-0.964029
C230	C	1.434708	-0.032666	-0.714029
C231	C	1.684708	0.217334	-0.464029
C232	C	1.934708	0.467334	-0.214029
C233	C	1.134468	-0.325959	-0.923022
C234	C	1.384468	-0.075959	-0.673022
C235	C	1.634468	0.174041	-0.423022
C236	C	1.884468	0.424041	-0.173022
C237	C	1.134362	-0.326091	-0.174229
C238	C	1.384362	-0.076091	0.075771
C239	C	1.634362	0.173909	0.325771
C240	C	1.884362	0.423909	0.575771
C241	C	1.134494	-0.325921	-0.086980
C242	C	1.384494	-0.075921	0.163020
C243	C	1.634494	0.174079	0.413020
C244	C	1.884494	0.424079	0.663020
H245	H	0.835483	-0.404509	-0.286920
H246	H	1.085483	-0.154509	-0.036920
H247	H	1.335483	0.095491	0.213080
H248	H	1.585483	0.345491	0.463080
H249	H	1.043274	-0.583860	-0.287008
H250	H	1.293274	-0.333860	-0.037008
H251	H	1.543274	-0.083860	0.212992
H252	H	1.793274	0.166140	0.462992
H253	H	1.225584	-0.247458	-0.826543
H254	H	1.475584	0.002542	-0.576543
H255	H	1.725584	0.252542	-0.326543
H256	H	1.975584	0.502542	-0.076543
Br257	Br	0.605047	-0.224205	-0.496743
Br258	Br	0.855047	0.025795	-0.246743
Br259	Br	1.105047	0.275795	0.003257
Br260	Br	1.355047	0.525795	0.253257
H261	H	1.225342	-0.583632	-0.469320
H262	H	1.475342	-0.333632	-0.219320
H263	H	1.725342	-0.083632	0.030680
H264	H	1.975342	0.166368	0.280680
H265	H	1.043491	-1.067863	-0.287075
H266	H	1.293491	-0.817863	-0.037075
H267	H	1.543491	-0.567863	0.212925
H268	H	1.793491	-0.317863	0.462925
H269	H	1.043286	-0.404531	-0.677752
H270	H	1.293286	-0.154531	-0.427752
H271	H	1.543286	0.095469	-0.177752
H272	H	1.793286	0.345469	0.072248
H273	H	0.433905	-0.404549	-0.286962
H274	H	0.683905	-0.154549	-0.036962
H275	H	0.933905	0.095451	0.213038
H276	H	1.183905	0.345451	0.463038
Br277	Br	0.411812	-0.224213	-0.496756
Br278	Br	0.661812	0.025787	-0.246756
Br279	Br	0.911812	0.275787	0.003244
Br280	Br	1.161812	0.525787	0.253244
H281	H	1.225607	-0.247436	-0.930672
H282	H	1.475607	0.002564	-0.680672
H283	H	1.725607	0.252564	-0.430672
H284	H	1.975607	0.502564	-0.180672
Br285	Br	1.252625	-0.731021	-0.496639
Br286	Br	1.502625	-0.481021	-0.246639
Br287	Br	1.752625	-0.231021	0.003361
Br288	Br	2.002625	0.018979	0.253361
H289	H	1.043322	-0.404471	-0.930602
H290	H	1.293322	-0.154471	-0.680602
H291	H	1.543322	0.095529	-0.430602
H292	H	1.793322	0.345529	-0.180602
Br293	Br	0.664662	-0.224192	-0.496727
Br294	Br	0.914662	0.025808	-0.246727
Br295	Br	1.164662	0.275808	0.003273
Br296	Br	1.414662	0.525808	0.253273
H297	H	1.043362	-0.404444	-1.079330
H298	H	1.293362	-0.154444	-0.829330
H299	H	1.543362	0.095556	-0.579330
H300	H	1.793362	0.345556	-0.329330
Br301	Br	1.252725	-0.920167	-0.496648
Br302	Br	1.502725	-0.670167	-0.246648
Br303	Br	1.752725	-0.420167	0.003352
Br304	Br	2.002725	-0.170167	0.253352
H305	H	1.225626	-0.247397	-1.079400
H306	H	1.475626	0.002603	-0.829400
H307	H	1.725626	0.252603	-0.579400
H308	H	1.975626	0.502603	-0.329400
H309	H	1.043334	-0.712105	-0.287033
H310	H	1.293334	-0.462105	-0.037033
H311	H	1.543334	-0.212105	0.212967
H312	H	1.793334	0.037895	0.462967
Br313	Br	0.857889	-0.224180	-0.496720
Br314	Br	1.107889	0.025820	-0.246720
Br315	Br	1.357889	0.275820	0.003280
Br316	Br	1.607889	0.525820	0.253280
Br317	Br	0.604869	-0.428006	-0.259643
Br318	Br	0.854869	-0.178006	-0.009643
Br319	Br	1.104869	0.071994	0.240357
Br320	Br	1.354869	0.321994	0.490357
H321	H	1.225551	-1.067637	-0.469395
H322	H	1.475551	-0.817637	-0.219395
H323	H	1.725551	-0.567637	0.030605
H324	H	1.975551	-0.317637	0.280605
Br325	Br	1.016168	-0.920476	-0.259791
Br326	Br	1.266168	-0.670476	-0.009791
Br327	Br	1.516168	-0.420476	0.240209
Br328	Br	1.766168	-0.170476	0.490209
H329	H	0.686751	-0.404518	-0.286934
H330	H	0.936751	-0.154518	-0.036934
H331	H	1.186751	0.095482	0.213066
H332	H	1.436751	0.345482	0.463066
H333	H	1.225566	-0.247496	-0.677825
H334	H	1.475566	0.002504	-0.427825
H335	H	1.725566	0.252504	-0.177825
H336	H	1.975566	0.502504	0.072175
H337	H	1.043319	-0.404498	-0.826484
H338	H	1.293319	-0.154498	-0.576484
H339	H	1.543319	0.095502	-0.326484
H340	H	1.793319	0.345502	-0.076484
