data_functionalizedCrystal
_audit_creation_method	'MofGen! by Chris Wilmer'
_symmetry_space_group_name_H-M	'P1'
_symmetry_Int_Tables_number	1
_symmetry_cell_setting	triclinic
loop_
_symmetry_equiv_pos_as_xyz
  x,y,z
_cell_length_a	27.732048
_cell_length_b	14.750779
_cell_length_c	27.732066
_cell_angle_alpha	102.532756
_cell_angle_beta	97.353622
_cell_angle_gamma	102.540316
loop_
_atom_site_label
_atom_site_type_symbol
_atom_site_fract_x
_atom_site_fract_y
_atom_site_fract_z
O1	O	0.630377	-0.079696	-0.068065
O2	O	0.489581	-0.079724	-0.076814
O3	O	0.564347	-0.079712	-0.002044
O4	O	0.555611	-0.079708	-0.142836
O5	O	0.585482	0.079942	0.019090
O6	O	0.510716	0.079930	-0.055680
O7	O	0.651513	0.079958	-0.046931
Zn8	Zn	0.584470	0.105292	-0.047950
Zn9	Zn	0.556623	-0.105058	-0.075795
O10	O	0.576747	0.079946	-0.121701
C11	C	0.482141	0.000099	-0.066064
C12	C	0.428485	0.000088	-0.065513
N13	N	0.603478	0.248851	-0.028946
N14	N	0.537619	-0.248617	-0.094796
C15	C	0.089678	0.000131	-0.106210
C16	C	-0.111981	0.000140	-0.104158
O17	O	-0.143228	0.000182	-0.141373
N18	N	-0.131108	0.000137	-0.059824
C19	C	-0.099816	0.000138	-0.015999
O20	O	-0.120710	0.000145	0.021759
C21	C	0.101843	0.000136	-0.018050
C22	C	0.120965	0.000129	-0.062389
C23	C	0.108801	0.000126	-0.150545
C24	C	0.159212	0.000118	-0.151058
C25	C	0.190500	0.000116	-0.107237
C26	C	0.171376	0.000122	-0.062902
C27	C	0.133135	0.000144	0.025775
C28	C	0.183552	0.000146	0.025259
C29	C	0.202675	0.000140	-0.019080
C30	C	0.253075	0.000113	-0.019594
N31	N	0.272202	0.000116	-0.063928
C32	C	0.240915	0.000118	-0.107750
C33	C	-0.205690	0.000137	-0.014925
C34	C	-0.256105	0.000135	-0.014412
C35	C	-0.268266	0.000139	-0.102572
C36	C	-0.217851	0.000134	-0.103085
C37	C	-0.186563	0.000140	-0.059259
C38	C	0.346782	0.000101	-0.108824
C39	C	0.397197	0.000090	-0.109334
C40	C	0.409355	0.000092	-0.021174
C41	C	0.358943	0.000098	-0.020665
C42	C	0.327658	0.000106	-0.064493
O43	O	0.284352	0.000081	0.017602
O44	O	0.261821	0.000132	-0.145499
C45	C	0.039267	0.000139	-0.105697
C46	C	0.020143	0.000144	-0.061362
C47	C	0.051431	0.000142	-0.017541
C48	C	-0.030271	0.000143	-0.060850
C49	C	-0.061559	0.000145	-0.104671
C50	C	-0.042432	0.000148	-0.149006
C51	C	0.007979	0.000140	-0.149519
C52	C	0.032304	0.000139	0.026794
C53	C	-0.018108	0.000146	0.027303
C54	C	-0.049395	0.000147	-0.016518
C55	C	0.658952	0.000133	-0.057681
C56	C	0.712608	0.000137	-0.058234
C57	C	0.574729	0.000112	0.026530
C58	C	0.574172	0.000104	0.080183
C59	C	0.484532	0.600650	-0.147850
C60	C	0.497855	0.701152	-0.134536
C61	C	0.564074	0.701125	-0.068351
C62	C	0.550754	0.600622	-0.081658
C63	C	0.510983	0.550392	-0.121408
C64	C	0.577206	0.550363	-0.055216
C65	C	0.563889	0.449869	-0.068523
C66	C	0.524121	0.399633	-0.108273
C67	C	0.497667	0.449898	-0.134715
C68	C	0.616979	0.600594	-0.015468
C69	C	0.643431	0.550336	0.010974
C70	C	0.630112	0.449840	-0.002331
C71	C	0.590344	0.399604	-0.042080
C72	C	0.656566	0.399575	0.024112
C73	C	0.643249	0.299080	0.010804
C74	C	0.577027	0.299109	-0.055388
C75	C	0.526201	0.000095	0.457254
C76	C	0.528248	0.000091	0.255594
O77	O	0.491022	0.000045	0.224335
N78	N	0.572584	0.000100	0.236467
C79	C	0.616410	0.000103	0.267759
O80	O	0.654166	0.000100	0.246862
C81	C	0.614362	0.000099	0.469417
C82	C	0.570025	0.000100	0.488542
C83	C	0.481868	0.000095	0.476379
C84	C	0.481357	0.000101	0.526792
C85	C	0.525180	0.000107	0.558080
C86	C	0.569514	0.000106	0.538955
C87	C	0.658186	0.000095	0.500707
C88	C	0.657670	0.000092	0.551124
C89	C	0.613333	0.000093	0.570249
C90	C	0.612826	0.000118	0.620656
N91	N	0.568491	0.000110	0.639782
C92	C	0.524668	0.000104	0.608494
C93	C	0.617483	0.000107	0.161885
C94	C	0.617995	0.000109	0.111471
C95	C	0.529833	0.000096	0.099309
C96	C	0.529322	0.000100	0.149725
C97	C	0.573147	0.000098	0.181011
C98	C	0.523599	0.000117	0.714365
C99	C	0.523093	0.000127	0.764784
C100	C	0.611254	0.000135	0.776940
C101	C	0.611761	0.000130	0.726527
C102	C	0.567929	0.000118	0.695240
O103	O	0.650032	0.000153	0.651941
O104	O	0.486915	0.000085	0.629397
C105	C	0.526712	0.000089	0.406841
C106	C	0.571046	0.000088	0.387716
C107	C	0.614869	0.000094	0.419004
C108	C	0.571558	0.000091	0.337302
C109	C	0.527735	0.000085	0.306014
C110	C	0.483400	0.000077	0.325141
C111	C	0.482889	0.000083	0.375553
C112	C	0.659204	0.000103	0.399878
C113	C	0.659711	0.000098	0.349465
C114	C	0.615888	0.000092	0.318177
C115	C	0.566363	0.000123	0.849725
C116	C	0.566916	0.000133	0.796072
H117	H	0.412764	0.000084	-0.145442
O118	O	0.476326	0.000121	0.680627
H119	H	0.446471	-0.064943	0.678781
H120	H	0.493219	0.000105	0.165293
H121	H	0.321315	0.000111	-0.144513
H122	H	0.675814	0.591245	0.043338
O123	O	0.454770	0.395708	-0.177588
H124	H	0.438612	0.447537	-0.193743
H125	H	0.445252	0.000094	0.542357
O126	O	-0.197227	0.000146	-0.150905
H127	H	-0.218440	-0.064920	-0.180560
O128	O	0.664756	0.000123	0.195630
H129	H	0.695669	0.000143	0.173857
H130	H	0.057774	0.000140	0.062480
O131	O	0.665817	0.000107	0.090848
H132	H	0.695474	0.065174	0.112059
H133	H	0.209025	0.000152	0.060948
H134	H	0.476312	0.742067	-0.156073
O135	O	0.441624	0.546481	-0.190716
H136	H	0.412220	0.500716	-0.176581
O137	O	0.338315	0.000099	0.027157
H138	H	0.324259	0.065177	0.038111
H139	H	0.695820	0.000104	0.333900
O140	O	0.435068	0.000078	0.396178
H141	H	0.404684	0.000066	0.365944
O142	O	0.179839	0.000140	-0.198877
H143	H	0.149609	0.000158	-0.229256
H144	H	-0.293749	0.000141	-0.138253
O145	O	0.631345	0.708986	-0.001118
H146	H	0.663449	0.735471	0.030958
H147	H	-0.067916	0.000145	-0.184687
O148	O	0.475270	0.000135	0.785411
H149	H	0.464312	-0.064929	0.799482
H150	H	0.694290	0.000093	0.485145
H151	H	0.693358	0.000085	0.576595
H152	H	0.434837	0.000086	0.014504
H153	H	0.688951	0.440485	0.056474
O154	O	0.509755	0.291241	-0.122628
H155	H	0.470192	0.264758	-0.118657
O156	O	-0.276729	0.000141	0.033409
H157	H	-0.246497	0.000152	0.063794
H158	H	0.447718	0.000078	0.299658
H159	H	0.647866	0.000143	0.710957
H160	H	0.544638	0.258211	-0.087753
O161	O	0.606967	0.755301	-0.025478
H162	H	0.611782	0.833625	-0.020664
H163	H	0.664790	0.258160	0.032336
H164	H	0.023544	0.000136	-0.185624
O165	O	0.434600	0.000104	0.442638
H166	H	0.403692	0.000114	0.464416
O167	O	0.482564	0.000081	0.065558
H168	H	0.490372	0.000075	0.027289
O169	O	0.075062	0.000124	-0.197817
H170	H	0.060421	0.065198	-0.191087
O171	O	0.658520	0.000144	0.810691
H172	H	0.650710	0.000138	0.848958
O173	O	0.706477	0.000126	0.433621
H174	H	0.719103	-0.064936	0.418247
O175	O	-0.171946	0.000144	0.032348
H176	H	-0.187324	-0.064934	0.044965
O177	O	0.112519	0.000171	0.073601
H178	H	0.142754	0.000188	0.103984
O179	O	-0.038730	0.000162	0.075130
H180	H	-0.008498	0.000173	0.105514
