data_functionalizedCrystal
_audit_creation_method	'MofGen! by Chris Wilmer'
_symmetry_space_group_name_H-M	'P1'
_symmetry_Int_Tables_number	1
_symmetry_cell_setting	triclinic
loop_
_symmetry_equiv_pos_as_xyz
  x,y,z
_cell_length_a	17.000371
_cell_length_b	17.019294
_cell_length_c	12.503572
_cell_angle_alpha	89.649141
_cell_angle_beta	86.761829
_cell_angle_gamma	79.505866
loop_
_atom_site_label
_atom_site_type_symbol
_atom_site_fract_x
_atom_site_fract_y
_atom_site_fract_z
O1	O	1.060777	0.023426	-0.091491
O2	O	1.560777	0.523426	0.408509
O3	O	0.829148	0.051914	-0.094127
O4	O	1.329148	0.551914	0.405873
O5	O	0.950882	-0.077031	-0.082195
O6	O	1.450882	0.422969	0.417805
O7	O	0.939043	0.152371	-0.103423
O8	O	1.439043	0.652371	0.396577
O9	O	0.941727	-0.067318	0.095548
O10	O	1.441727	0.432682	0.595548
O11	O	0.819993	0.061627	0.083616
O12	O	1.319993	0.561627	0.583616
O13	O	1.051622	0.033139	0.086252
O14	O	1.551622	0.533139	0.586252
Cu15	Cu	0.934972	0.048269	0.101163
Cu16	Cu	1.434972	0.548269	0.601163
Cu17	Cu	0.945799	0.036783	-0.109039
Cu18	Cu	1.445799	0.536783	0.390961
O19	O	0.929888	0.162084	0.074320
O20	O	1.429888	0.662084	0.574320
C21	C	0.794922	0.058301	-0.005397
C22	C	1.294922	0.558301	0.494603
C23	C	0.706580	0.062851	-0.005818
C24	C	1.206580	0.562851	0.494182
C25	C	0.945675	-0.101382	0.009377
C26	C	1.445675	0.398618	0.509377
C27	C	0.943790	-0.188411	0.017423
C28	C	1.443790	0.311589	0.517423
C29	C	0.947897	-0.234587	-0.075683
C30	C	1.447897	0.265413	0.424317
C31	C	0.946120	-0.316358	-0.068120
C32	C	1.446120	0.183642	0.431880
C33	C	0.940243	-0.351953	0.032552
C34	C	1.440243	0.148047	0.532552
C35	C	0.936134	-0.305771	0.125666
C36	C	1.436134	0.194229	0.625666
C37	C	0.937904	-0.224000	0.118101
C38	C	1.437904	0.276000	0.618101
C39	C	0.934642	-0.598583	0.060241
C40	C	1.434642	-0.098583	0.560241
C41	C	0.932874	-0.680361	0.067799
C42	C	1.432874	-0.180361	0.567799
C43	C	0.942859	-0.690943	-0.125988
C44	C	1.442859	-0.190943	0.374012
C45	C	0.944634	-0.609171	-0.133544
C46	C	1.444634	-0.109171	0.366456
C47	C	0.940521	-0.562994	-0.040430
C48	C	1.440521	-0.062994	0.459570
C49	C	0.938430	-0.435537	0.040286
C50	C	1.438430	0.064463	0.540286
C51	C	0.942328	-0.479411	-0.048165
C52	C	1.442328	0.020589	0.451835
C53	C	0.674301	-0.007169	0.000663
C54	C	1.174301	0.492831	0.500663
C55	C	0.591294	-0.002889	0.000259
C56	C	1.091294	0.497111	0.500259
C57	C	0.540567	0.071411	-0.006618
C58	C	1.040567	0.571411	0.493382
C59	C	0.572851	0.141435	-0.013103
C60	C	1.072851	0.641435	0.486897
C61	C	0.655857	0.137155	-0.012707
C62	C	1.155857	0.637155	0.487293
C63	C	0.289481	0.087945	-0.008155
C64	C	0.789481	0.587945	0.491845
C65	C	0.206470	0.092221	-0.008548
C66	C	0.706470	0.592221	0.491452
C67	C	0.224918	-0.052104	0.004813
C68	C	0.724918	0.447896	0.504813
C69	C	0.307925	-0.056378	0.005215
C70	C	0.807925	0.443622	0.505215
C71	C	0.340202	0.013646	-0.001276
C72	C	0.840202	0.513646	0.498724
C73	C	0.455720	0.075787	-0.007028
C74	C	0.955720	0.575787	0.492972
C75	C	0.425048	0.009269	-0.000874
C76	C	0.925048	0.509269	0.499126
C77	C	1.085848	0.026752	-0.002481
C78	C	1.585848	0.526752	0.497519
C79	C	1.174191	0.022202	-0.002067
C80	C	1.674191	0.522202	0.497933
C81	C	0.935095	0.186435	-0.017255
C82	C	1.435095	0.686435	0.482745
C83	C	0.936980	0.273463	-0.025308
C84	C	1.436980	0.773463	0.474692
N85	N	0.927362	0.056347	0.249008
N86	N	1.427362	0.556347	0.749008
N87	N	0.953414	0.028699	-0.256883
N88	N	1.453414	0.528699	0.243117
C89	C	0.916169	0.068237	0.467023
C90	C	1.416169	0.568237	0.967023
C91	C	0.964605	0.016812	0.525109
C92	C	1.464605	0.516812	1.025109
C93	C	0.958377	0.023428	0.646420
C94	C	1.458377	0.523428	1.146420
C95	C	0.922396	0.061622	0.345701
C96	C	1.422396	0.561622	0.845701
H97	H	0.952687	-0.205613	-0.157661
H98	H	1.452687	0.294387	0.342339
H99	H	0.349222	-0.116881	0.010820
H100	H	0.849222	0.383119	0.510820
N101	N	0.855057	0.133140	0.521826
N102	N	1.355057	0.633140	1.021826
H103	H	0.823598	0.166544	0.466161
H104	H	1.323598	0.666544	0.966161
H105	H	0.817365	0.108065	0.570817
H106	H	1.317365	0.608065	1.070817
N107	N	1.025740	-0.048078	0.470305
N108	N	1.525740	0.451922	0.970305
H109	H	1.057201	-0.081474	0.525974
H110	H	1.557201	0.418526	1.025974
H111	H	0.997442	-0.083128	0.426887
H112	H	1.497442	0.416872	0.926887
N113	N	0.947295	-0.740746	-0.226413
N114	N	1.447295	-0.240746	0.273587
H115	H	0.945281	-0.797949	-0.206349
H116	H	1.445281	-0.297949	0.293651
H117	H	0.900508	-0.718997	-0.270948
H118	H	1.400508	-0.218997	0.229052
N119	N	0.948676	-0.441023	-0.156742
N120	N	1.448676	0.058977	0.343258
H121	H	0.951013	-0.482681	-0.214585
H122	H	1.451013	0.017319	0.285415
H123	H	0.900353	-0.397560	-0.165008
H124	H	1.400353	0.102440	0.334992
H125	H	0.934549	-0.186401	0.193919
H126	H	1.434549	0.313599	0.693919
N127	N	0.950664	-0.366186	-0.168539
N128	N	1.450664	0.133814	0.331461
H129	H	0.954700	-0.331238	-0.233460
H130	H	1.454700	0.168762	0.266540
H131	H	0.999455	-0.410067	-0.168608
H132	H	1.499455	0.089933	0.331392
N133	N	0.479751	-0.070870	0.006546
N134	N	0.979751	0.429130	0.506546
H135	H	0.517997	-0.079465	-0.058880
H136	H	1.017997	0.420535	0.441120
H137	H	0.511152	-0.072203	0.072937
H138	H	1.011152	0.427797	0.572937
N139	N	0.324297	0.163464	-0.015138
N140	N	0.824297	0.663464	0.484862
H141	H	0.361717	0.161305	-0.081162
H142	H	0.861717	0.661305	0.418838
H143	H	0.279524	0.211144	-0.019504
H144	H	0.779524	0.711144	0.480496
N145	N	0.190105	-0.127626	0.011817
N146	N	0.690105	0.372374	0.511817
H147	H	0.129824	-0.113644	0.010524
H148	H	0.629824	0.386356	0.510524
H149	H	0.212035	-0.163489	-0.051088
H150	H	0.712035	0.336511	0.448912
N151	N	0.926537	-0.718756	0.176385
N152	N	1.426537	-0.218756	0.676385
H153	H	0.924199	-0.677096	0.234225
H154	H	1.424199	-0.177096	0.734225
H155	H	0.876312	-0.742691	0.182834
H156	H	1.376312	-0.242691	0.682834
H157	H	0.949421	-0.580196	-0.215521
H158	H	1.449421	-0.080196	0.284479
N159	N	0.930215	-0.548787	0.160666
N160	N	1.430215	-0.048787	0.660666
H161	H	0.926229	-0.583748	0.225586
H162	H	1.426229	-0.083748	0.725586
H163	H	0.980009	-0.524397	0.162647
H164	H	1.480009	-0.024397	0.662647
H165	H	0.565017	-0.059907	0.005536
H166	H	1.065017	0.440093	0.505536
N167	N	0.929804	-0.344160	0.234249
N168	N	1.429804	0.155840	0.734249
H169	H	0.879578	-0.368093	0.240811
H170	H	1.379578	0.131907	0.740811
H171	H	0.978163	-0.387577	0.242532
H172	H	1.478163	0.112423	0.742532
N173	N	0.932106	-0.473935	0.148865
N174	N	1.432106	0.026065	0.648865
H175	H	0.929777	-0.432279	0.206707
H176	H	1.429777	0.067721	0.706707
H177	H	0.881878	-0.497866	0.155322
H178	H	1.381878	0.002134	0.655322
H179	H	0.165168	0.152729	-0.014144
H180	H	0.665168	0.652729	0.485856
N181	N	0.729010	-0.087307	0.008093
N182	N	1.229010	0.412693	0.508093
H183	H	0.695963	-0.131014	0.012136
H184	H	1.195963	0.368986	0.512136
H185	H	0.767247	-0.095829	-0.057342
H186	H	1.267247	0.404171	0.442658
H187	H	0.531543	0.201932	-0.018710
H188	H	1.031543	0.701932	0.481290
N189	N	0.690671	0.212678	-0.019704
N190	N	1.190671	0.712678	0.480296
H191	H	0.668802	0.248574	0.043196
H192	H	1.168802	0.748574	0.543196
H193	H	0.750948	0.198628	-0.018449
H194	H	1.250948	0.698628	0.481551
N195	N	0.401005	0.155923	-0.014446
N196	N	0.901005	0.655923	0.485554
H197	H	0.408019	0.190331	0.048591
H198	H	0.908019	0.690331	0.548591
H199	H	0.414844	0.183056	-0.083225
H200	H	0.914844	0.683056	0.416775
