data_functionalizedCrystal
_audit_creation_method	'MofGen! by Chris Wilmer'
_symmetry_space_group_name_H-M	'P1'
_symmetry_Int_Tables_number	1
_symmetry_cell_setting	triclinic
loop_
_symmetry_equiv_pos_as_xyz
  x,y,z
_cell_length_a	14.853563
_cell_length_b	14.853567
_cell_length_c	13.330367
_cell_angle_alpha	89.999156
_cell_angle_beta	90.007342
_cell_angle_gamma	96.365933
loop_
_atom_site_label
_atom_site_type_symbol
_atom_site_fract_x
_atom_site_fract_y
_atom_site_fract_z
O1	O	-1.196371	0.117685	-0.083410
O2	O	-0.933911	0.131711	-0.083412
O3	O	-1.072152	-0.006532	-0.083414
O4	O	-1.058130	0.255928	-0.083408
O5	O	-1.072132	-0.006535	0.083433
O6	O	-0.933891	0.131708	0.083435
O7	O	-1.196351	0.117682	0.083437
Cu8	Cu	-1.065119	0.124695	0.098671
Cu9	Cu	-1.065143	0.124698	-0.098645
O10	O	-1.058110	0.255925	0.083439
C11	C	-0.900312	0.131074	0.000011
C12	C	-0.800228	0.129172	0.000010
C13	C	-0.753219	0.128282	-0.090942
C14	C	-0.753196	0.128268	0.090961
C15	C	-0.659162	0.126475	0.090964
C16	C	-0.612153	0.125585	0.000012
C17	C	-0.659177	0.126487	-0.090943
C18	C	-0.612132	0.125564	0.181916
C19	C	-0.518093	0.123771	0.181922
C20	C	-0.471081	0.122887	0.090969
C21	C	-0.518111	0.123790	0.000011
C22	C	-0.471102	0.122900	-0.090941
C23	C	-0.518130	0.123809	-0.181900
C24	C	-0.612166	0.125603	-0.181896
C25	C	-0.377045	0.121093	0.090964
C26	C	-0.377060	0.121105	-0.090942
C27	C	-1.071507	-0.040122	0.000007
C28	C	-1.069603	-0.140206	-0.000002
C29	C	-0.979437	-0.552738	0.000016
C30	C	-1.143670	-0.574022	0.000018
C31	C	-1.145460	-0.479988	0.000012
C32	C	-1.064237	-0.422325	0.000010
C33	C	-0.981224	-0.458695	0.000014
C34	C	-1.228471	-0.443610	0.000018
C35	C	-1.230265	-0.349571	0.000013
C36	C	-1.149041	-0.291906	0.000004
C37	C	-1.066025	-0.328282	0.000007
C38	C	-0.984802	-0.270619	0.000005
C39	C	-0.901785	-0.306993	0.000000
C40	C	-0.900001	-0.401030	0.000004
C41	C	-1.150825	-0.197869	0.000000
C42	C	-0.986590	-0.176576	0.000002
C43	C	-0.229950	0.118314	0.000013
C44	C	-0.330036	0.120203	0.000013
C45	C	-1.058756	0.289515	0.000016
C46	C	-1.060660	0.389599	0.000018
N47	N	-1.065109	0.124692	0.237452
N48	N	-1.065160	0.124694	-0.237427
C49	C	-1.003927	0.185888	0.710076
C50	C	-1.126383	0.063502	0.710042
C51	C	-1.126373	0.063499	0.605024
C52	C	-1.065140	0.124693	0.552527
C53	C	-1.003917	0.185889	0.605048
C54	C	-1.187600	0.002310	0.552495
C55	C	-1.187593	0.002305	0.447470
C56	C	-1.126355	0.063495	0.394971
C57	C	-1.065130	0.124693	0.447499
C58	C	-1.003897	0.185887	0.395001
C59	C	-0.942666	0.247082	0.447527
C60	C	-0.942679	0.247079	0.552549
C61	C	-1.126342	0.063498	0.289949
C62	C	-1.003886	0.185888	0.289973
H63	H	-0.650415	0.126281	0.255964
H64	H	-0.479843	0.123079	-0.255953
C65	C	-0.897374	0.131041	-0.171722
C66	C	-0.804907	0.129277	-0.190921
H67	H	-0.929283	0.131650	-0.233447
H68	H	-0.905963	0.183862	-0.134356
H69	H	-0.919589	0.078799	-0.134356
H70	H	-0.782691	0.181523	-0.228281
H71	H	-0.796313	0.076451	-0.228303
H72	H	-1.237450	-0.047523	0.404710
H73	H	-0.338759	0.120361	0.165022
C74	C	-0.923247	0.369739	0.329418
C75	C	-0.875361	0.314346	0.389813
H76	H	-0.881696	0.411259	0.293781
H77	H	-0.960799	0.402238	0.370384
H78	H	-0.959711	0.333284	0.283117
H79	H	-0.838902	0.350800	0.436119
H80	H	-0.837794	0.281844	0.348843
C81	C	-0.762337	-0.259882	0.085767
C82	C	-0.812506	-0.243603	-0.000000
H83	H	-0.707225	-0.220741	0.085767
H84	H	-0.749386	-0.321083	0.085755
H85	H	-0.796373	-0.248847	0.143945
H86	H	-0.778473	-0.254645	-0.058180
H87	H	-0.825455	-0.182388	0.000002
H88	H	-0.338792	0.120385	-0.165007
C89	C	-0.888336	0.301429	0.713553
C90	C	-0.875387	0.314348	0.610287
H91	H	-0.846799	0.342964	0.749198
H92	H	-0.878470	0.241251	0.730765
H93	H	-0.948521	0.311327	0.730731
H94	H	-0.815205	0.304444	0.593108
H95	H	-0.885247	0.374541	0.593067
H96	H	-0.911846	-0.582358	0.000009
C97	C	-1.179117	-0.092474	0.742371
C98	C	-1.193679	-0.003765	0.767749
H99	H	-1.220665	-0.134004	0.777997
H100	H	-1.118944	-0.102357	0.759597
H101	H	-1.187880	-0.101225	0.672306
H102	H	-1.184910	0.004988	0.837813
H103	H	-1.253866	0.006122	0.750529
C104	C	-0.897336	0.131015	0.171725
C105	C	-0.804866	0.129249	0.190932
H106	H	-0.929234	0.131628	0.233447
H107	H	-0.919556	0.078781	0.134361
H108	H	-0.905929	0.183844	0.134354
H109	H	-0.796272	0.076416	0.228297
H110	H	-0.782639	0.181488	0.228312
H111	H	-0.650464	0.126341	-0.255949
H112	H	-0.479811	0.123030	0.255986
C113	C	-0.847163	-0.129485	-0.085772
C114	C	-0.897304	-0.113197	-0.000001
H115	H	-0.792040	-0.090360	-0.085769
H116	H	-0.881204	-0.118439	-0.143942
H117	H	-0.834227	-0.190699	-0.085763
H118	H	-0.910246	-0.051984	-0.000014
H119	H	-0.863256	-0.124235	0.058184
H120	H	-0.832412	-0.430655	0.000002
H121	H	-1.209798	-0.620976	0.000027
H122	H	-1.237459	-0.047508	0.595241
H123	H	-1.176199	0.013678	0.247188
H124	H	-1.294598	-0.490566	0.000029
C125	C	-1.392426	-0.380065	0.000007
C126	C	-1.321514	-0.309593	0.000006
H127	H	-1.448759	-0.355381	-0.000005
H128	H	-1.388309	-0.416293	0.058192
H129	H	-1.388310	-0.416307	-0.058175
H130	H	-1.325627	-0.273355	0.058193
H131	H	-1.325634	-0.273350	-0.058184
C132	C	-1.248120	-0.104464	-0.085766
C133	C	-1.242065	-0.157880	0.000005
H134	H	-1.304448	-0.079773	-0.085759
H135	H	-1.244026	-0.140712	-0.143936
H136	H	-1.199996	-0.056669	-0.085763
H137	H	-1.290185	-0.205679	-0.000002
H138	H	-1.246168	-0.121629	0.058190
H139	H	-0.954020	0.235717	0.247236
H140	H	-0.954071	0.235710	0.752845
