data_functionalizedCrystal
_audit_creation_method	'MofGen! by Chris Wilmer'
_symmetry_space_group_name_H-M	'P1'
_symmetry_Int_Tables_number	1
_symmetry_cell_setting	triclinic
loop_
_symmetry_equiv_pos_as_xyz
  x,y,z
_cell_length_a	15.944551
_cell_length_b	10.654541
_cell_length_c	15.021413
_cell_angle_alpha	89.993956
_cell_angle_beta	89.996935
_cell_angle_gamma	96.008667
loop_
_atom_site_label
_atom_site_type_symbol
_atom_site_fract_x
_atom_site_fract_y
_atom_site_fract_z
O1	O	0.117956	-1.666325	0.074007
O2	O	0.129198	-1.300700	0.074015
O3	O	0.001360	-1.493497	0.074003
O4	O	0.245794	-1.473528	0.074019
O5	O	0.001378	-1.493466	-0.074062
O6	O	0.129216	-1.300669	-0.074049
O7	O	0.117974	-1.666294	-0.074057
Zn8	Zn	0.123598	-1.483477	-0.097562
Zn9	Zn	0.123574	-1.483517	0.097519
O10	O	0.245812	-1.473497	-0.074045
C11	C	-0.029930	-1.492652	-0.000030
C12	C	-0.123190	-1.490167	-0.000030
C13	C	0.128382	-1.253897	-0.000016
C14	C	0.125914	-1.114486	-0.000014
C15	C	0.118790	-1.713097	-0.000024
C16	C	0.121258	-1.852508	-0.000021
C17	C	-0.338772	-1.364722	-0.000015
C18	C	-0.399444	-1.422960	-0.073021
C19	C	-0.293942	-1.485671	-0.000023
C20	C	-0.399445	-1.423018	0.072959
C21	C	-0.458880	-1.481319	-0.000013
C22	C	-0.353385	-1.543941	-0.073089
C23	C	-0.353380	-1.543983	0.072956
C24	C	-0.414034	-1.602309	-0.000068
C25	C	-0.198925	-1.488175	-0.000030
C26	C	-0.553896	-1.478825	-0.000012
C27	C	0.277102	-1.474342	-0.000011
C28	C	0.370362	-1.476827	-0.000005
N29	N	0.123614	-1.483458	-0.230699
C30	C	0.278779	-1.084537	0.000008
C31	C	0.354048	-1.004069	0.000022
C32	C	0.351724	-0.873081	0.000023
C33	C	0.274122	-0.822560	0.000007
C34	C	0.198852	-0.903028	-0.000008
C35	C	0.201185	-1.034017	-0.000006
C36	C	0.045989	-0.932976	-0.000035
C37	C	0.048311	-1.063965	-0.000030
C38	C	-0.031613	-0.882455	-0.000052
C39	C	-0.106885	-0.962924	-0.000059
C40	C	-0.104557	-1.093919	-0.000059
C41	C	-0.026958	-1.144433	-0.000044
C42	C	0.182698	-1.394295	-0.470377
C43	C	0.199661	-1.507774	-0.529713
C44	C	0.123593	-1.483490	-0.412306
C45	C	0.106649	-1.370043	-0.529712
C46	C	0.123575	-1.483511	-0.587730
C47	C	0.140594	-1.597026	-0.470335
C48	C	0.047548	-1.459221	-0.470330
C49	C	0.064480	-1.572781	-0.529639
C50	C	0.123606	-1.483477	-0.311249
C51	C	0.123562	-1.483538	-0.688785
N52	N	0.123551	-1.483546	0.230657
H53	H	-0.306045	-1.264329	-0.000086
O54	O	-0.001745	-1.672805	-0.563899
H55	H	-0.001651	-1.671561	-0.637784
H56	H	-0.033501	-0.775797	-0.000056
O57	O	-0.037598	-1.431966	-0.435740
H58	H	-0.051512	-1.337687	-0.459476
O59	O	0.271609	-0.681281	-0.000003
H60	H	0.336985	-0.633814	0.000009
H61	H	-0.419840	-1.371790	-0.134739
O62	O	-0.190578	-0.908439	-0.000080
H63	H	-0.179548	-0.803837	-0.000079
O64	O	0.087671	-1.242949	-0.564259
H65	H	0.087250	-1.244398	-0.638142
H66	H	-0.333092	-1.595042	-0.134878
H67	H	-0.446611	-1.702790	-0.000111
O68	O	0.432908	-0.786288	0.000029
H69	H	0.418248	-0.686719	0.000018
H70	H	-0.332962	-1.595109	0.134678
O71	O	-0.185741	-1.180711	-0.000075
H72	H	-0.240087	-1.123568	-0.000082
O73	O	-0.426457	-1.355261	0.154717
H74	H	-0.396024	-1.256679	0.154559
O75	O	0.284835	-1.534931	-0.564298
H76	H	0.327480	-1.547556	-0.507327
H77	H	-0.025055	-1.251088	-0.000033
H78	H	0.280679	-1.191193	0.000027
H79	H	0.232723	-1.318942	-0.444357
O80	O	0.437747	-1.058555	0.000042
H81	H	0.426723	-1.163157	0.000047
H82	H	0.154995	-1.692996	-0.444363
