data_functionalizedCrystal
_audit_creation_method	'MofGen! by Chris Wilmer'
_symmetry_space_group_name_H-M	'P1'
_symmetry_Int_Tables_number	1
_symmetry_cell_setting	triclinic
loop_
_symmetry_equiv_pos_as_xyz
  x,y,z
_cell_length_a	10.489711
_cell_length_b	10.967819
_cell_length_c	9.482900
_cell_angle_alpha	111.293645
_cell_angle_beta	80.567334
_cell_angle_gamma	84.621638
loop_
_atom_site_label
_atom_site_type_symbol
_atom_site_fract_x
_atom_site_fract_y
_atom_site_fract_z
O1	O	0.087481	1.746332	0.558401
O2	O	0.120121	1.368074	0.463636
O3	O	-0.082159	1.565831	0.513184
O4	O	0.289761	1.548575	0.508853
O5	O	-0.040912	1.525663	0.261328
O6	O	0.161368	1.327906	0.211780
O7	O	0.128728	1.706165	0.306545
Cu8	Cu	0.148814	1.513368	0.236166
Cu9	Cu	0.100034	1.560871	0.534015
O10	O	0.331008	1.508408	0.256997
C11	C	0.141485	1.299555	0.325573
C12	C	0.143676	1.155232	0.289416
C13	C	0.125558	0.962541	0.366425
C14	C	0.123286	1.111706	0.403786
C15	C	-0.109015	1.544453	0.386936
C16	C	-0.250487	1.540581	0.385978
C17	C	-0.437822	1.659503	0.415757
C18	C	-0.322868	1.580294	0.276697
C19	C	-0.363557	1.619864	0.525000
C20	C	-0.387559	1.454382	0.245041
C21	C	-0.428277	1.493988	0.493459
C22	C	-0.313342	1.414683	0.354346
C23	C	0.357863	1.529786	0.383248
C24	C	0.499333	1.533660	0.384216
C25	C	0.107363	1.774685	0.444611
C26	C	0.105171	1.919009	0.480778
N27	N	0.183122	1.479967	0.026677
C28	C	0.110147	1.551010	-0.027722
C29	C	0.138702	1.523229	-0.202100
N30	N	0.065716	1.594282	0.743507
H31	H	0.144701	0.889378	0.240864
H32	H	0.026526	1.632395	0.054797
Br33	Br	-0.073372	1.730256	-0.118894
H34	H	0.266733	1.398572	-0.055847
H35	H	0.104156	1.184864	0.529355
H36	H	-0.474276	1.457529	0.585119
H37	H	-0.276904	1.616798	0.185054
H38	H	0.162821	1.082073	0.163846
Br39	Br	0.073290	1.040937	0.690063
H40	H	-0.398941	1.384418	0.126612
Br41	Br	-0.527792	1.831861	0.458751
H42	H	-0.259555	1.311147	0.328342
H43	H	0.222319	1.441829	-0.284620
Br44	Br	-0.344299	1.736551	0.722213
