data_functionalizedCrystal
_audit_creation_method	'MofGen! by Chris Wilmer'
_symmetry_space_group_name_H-M	'P1'
_symmetry_Int_Tables_number	1
_symmetry_cell_setting	triclinic
loop_
_symmetry_equiv_pos_as_xyz
  x,y,z
_cell_length_a	27.732048
_cell_length_b	16.992694
_cell_length_c	15.455313
_cell_angle_alpha	92.857794
_cell_angle_beta	92.637842
_cell_angle_gamma	93.344561
loop_
_atom_site_label
_atom_site_type_symbol
_atom_site_fract_x
_atom_site_fract_y
_atom_site_fract_z
O1	O	0.100467	-1.042606	-0.072038
O2	O	0.600467	-0.542606	0.427962
O3	O	0.099342	-0.814336	-0.072063
O4	O	0.599342	-0.314336	0.427937
O5	O	0.029815	-0.935560	-0.072033
O6	O	0.529815	-0.435560	0.427967
O7	O	0.169994	-0.921382	-0.072068
O8	O	0.669994	-0.421382	0.427932
O9	O	0.033773	-0.928628	0.072227
O10	O	0.533773	-0.428628	0.572227
O11	O	0.103301	-0.807404	0.072197
O12	O	0.603301	-0.307404	0.572197
O13	O	0.104425	-1.035674	0.072223
O14	O	0.604425	-0.535674	0.572223
Cu15	Cu	0.104225	-0.920906	0.085382
Cu16	Cu	0.604225	-0.420906	0.585382
Cu17	Cu	0.099543	-0.929104	-0.085222
Cu18	Cu	0.599543	-0.429104	0.414778
O19	O	0.173953	-0.914450	0.072193
O20	O	0.673953	-0.414450	0.572193
C21	C	0.099876	-0.781675	0.000064
C22	C	0.599876	-0.281675	0.500064
C23	C	0.095561	-0.694684	0.000055
C24	C	0.595561	-0.194684	0.500055
C25	C	0.013774	-0.931796	0.000100
C26	C	0.513774	-0.431796	0.500100
C27	C	-0.039919	-0.930900	0.000107
C28	C	0.460081	-0.430900	0.500107
C29	C	0.103892	-1.068335	0.000094
C30	C	0.603892	-0.568335	0.500094
C31	C	0.108206	-1.155327	0.000097
C32	C	0.608206	-0.655327	0.500097
C33	C	-0.375882	-0.996895	0.000069
C34	C	0.124118	-0.496895	0.500069
C35	C	-0.577686	-0.993571	0.000057
C36	C	-0.077686	-0.493571	0.500057
O37	O	-0.606333	-1.053919	0.000026
O38	O	-0.106333	-0.553919	0.500026
N39	N	-0.599917	-0.921689	0.000050
N40	N	-0.099917	-0.421689	0.500050
C41	C	-0.571695	-0.850634	0.000040
C42	C	-0.071695	-0.350634	0.500040
O43	O	-0.595235	-0.789419	0.000025
O44	O	-0.095235	-0.289419	0.500025
C45	C	-0.369892	-0.853960	0.000046
C46	C	0.130108	-0.353960	0.500046
C47	C	-0.347663	-0.925846	0.000062
C48	C	0.152337	-0.425846	0.500062
C49	C	-0.353652	-1.068775	0.000084
C50	C	0.146348	-0.568775	0.500084
C51	C	-0.303204	-1.069605	0.000092
C52	C	0.196796	-0.569605	0.500092
C53	C	-0.274986	-0.998556	0.000085
C54	C	0.225014	-0.498556	0.500085
C55	C	-0.297215	-0.926676	0.000070
C56	C	0.202785	-0.426676	0.500070
C57	C	-0.341671	-0.782906	0.000030
C58	C	0.158329	-0.282906	0.500030
C59	C	-0.291218	-0.783744	0.000030
C60	C	0.208782	-0.283744	0.500030
C61	C	-0.268989	-0.855630	0.000046
C62	C	0.231011	-0.355630	0.500046
C63	C	-0.218549	-0.856457	0.000071
C64	C	0.281451	-0.356457	0.500071
N65	N	-0.196317	-0.928338	0.000078
N66	N	0.303683	-0.428338	0.500078
C67	C	-0.224535	-0.999387	0.000085
C68	C	0.275465	-0.499387	0.500085
C69	C	-0.677644	-0.848893	0.000038
C70	C	-0.177644	-0.348893	0.500038
C71	C	-0.728095	-0.848061	0.000038
C72	C	-0.228095	-0.348061	0.500038
C73	C	-0.734082	-0.990998	0.000054
C74	C	-0.234082	-0.490998	0.500054
C75	C	-0.683630	-0.991829	0.000060
C76	C	-0.183630	-0.491829	0.500060
C77	C	-0.655413	-0.920775	0.000046
C78	C	-0.155413	-0.420775	0.500046
C79	C	-0.118591	-1.001126	0.000102
C80	C	0.381409	-0.501126	0.500102
C81	C	-0.068138	-1.001949	0.000114
C82	C	0.431862	-0.501949	0.500114
C83	C	-0.062155	-0.859013	0.000094
C84	C	0.437845	-0.359013	0.500094
C85	C	-0.112603	-0.858189	0.000087
C86	C	0.387397	-0.358189	0.500087
C87	C	-0.140820	-0.929251	0.000088
C88	C	0.359180	-0.429251	0.500088
O89	O	-0.189872	-0.796141	0.000092
O90	O	0.310128	-0.296141	0.500092
O91	O	-0.200987	-1.060595	0.000081
O92	O	0.299013	-0.560595	0.500081
C93	C	-0.426330	-0.996065	0.000062
C94	C	0.073670	-0.496065	0.500062
C95	C	-0.448559	-0.924185	0.000047
C96	C	0.051441	-0.424185	0.500047
C97	C	-0.420341	-0.853136	0.000039
C98	C	0.079659	-0.353136	0.500039
C99	C	-0.499010	-0.923354	0.000047
C100	C	0.000990	-0.423354	0.500047
C101	C	-0.527228	-0.994403	0.000054
C102	C	-0.027228	-0.494403	0.500054
C103	C	-0.504997	-1.066285	0.000061
C104	C	-0.004997	-0.566285	0.500061
C105	C	-0.454549	-1.067115	0.000069
C106	C	0.045451	-0.567115	0.500069
C107	C	-0.442573	-0.781254	0.000032
C108	C	0.057427	-0.281254	0.500032
C109	C	-0.493021	-0.780430	0.000025
C110	C	0.006979	-0.280430	0.500025
C111	C	-0.521240	-0.851480	0.000033
C112	C	-0.021240	-0.351480	0.500033
C113	C	0.189993	-0.918214	0.000058
C114	C	0.689993	-0.418214	0.500058
C115	C	0.243687	-0.919111	0.000046
C116	C	0.743687	-0.419111	0.500046
N117	N	0.107517	-0.915146	0.205376
N118	N	0.607517	-0.415146	0.705376
C119	C	0.137184	-0.643939	0.000046
C120	C	0.637184	-0.143939	0.500046
C121	C	0.133129	-0.562201	0.000059
C122	C	0.633129	-0.062201	0.500059
C123	C	0.087449	-0.531209	0.000075
C124	C	0.587449	-0.031209	0.500075
C125	C	0.045823	-0.581960	0.000087
C126	C	0.545823	-0.081960	0.500087
C127	C	0.049880	-0.663696	0.000080
C128	C	0.549880	-0.163696	0.500080
C129	C	0.070637	-0.287814	0.000102
C130	C	0.570637	0.212186	0.500102
C131	C	0.066583	-0.206071	0.000106
C132	C	0.566583	0.293929	0.500106
C133	C	0.153889	-0.186318	0.000080
C134	C	0.653889	0.313682	0.500080
C135	C	0.157941	-0.268057	0.000068
C136	C	0.657941	0.231943	0.500068
C137	C	0.116315	-0.318800	0.000084
C138	C	0.616315	0.181200	0.500084
N139	N	0.083302	-0.447660	0.000086
N140	N	0.583302	0.052340	0.500086
N141	N	0.120463	-0.402347	0.000080
N142	N	0.620463	0.097653	0.500080
N143	N	0.096247	-0.934870	-0.205217
N144	N	0.596247	-0.434870	0.294783
C145	C	0.077992	-0.966664	0.250783
C146	C	0.577992	-0.466664	0.750783
C147	C	0.080486	-0.962315	0.341590
C148	C	0.580486	-0.462315	0.841590
C149	C	0.112509	-0.906451	0.386988
C150	C	0.612509	-0.406451	0.886988
C151	C	0.142036	-0.854928	0.341575
C152	C	0.642036	-0.354928	0.841575
C153	C	0.139538	-0.859274	0.250770
C154	C	0.639538	-0.359274	0.750770
C155	C	0.123276	-0.887693	0.658565
C156	C	0.623276	-0.387693	1.158565
C157	C	0.125773	-0.883353	0.749377
C158	C	0.625773	-0.383353	1.249377
C159	C	0.064222	-0.990739	0.749385
C160	C	0.564222	-0.490739	1.249385
C161	C	0.061730	-0.995083	0.658578
C162	C	0.561730	-0.495083	1.158578
C163	C	0.091254	-0.943557	0.613173
C164	C	0.591254	-0.443557	1.113173
N165	N	0.115061	-0.902006	0.479807
N166	N	0.615061	-0.402006	0.979807
N167	N	0.088700	-0.947999	0.520356
N168	N	0.588700	-0.447999	1.020356
H169	H	-0.050041	-1.060489	0.000129
H170	H	0.449959	-0.560489	0.500129
Cl171	Cl	-0.002449	-0.727490	0.000096
Cl172	Cl	0.497551	-0.227490	0.500096
Cl173	Cl	0.206215	-0.122523	0.000062
Cl174	Cl	0.706215	0.377477	0.500062
Cl175	Cl	-0.275267	-1.159982	0.000088
Cl176	Cl	0.224733	-0.659982	0.500088
H177	H	0.174382	-0.669166	0.000032
H178	H	0.674382	-0.169166	0.500032
H179	H	-0.130703	-0.799653	0.000098
H180	H	0.369297	-0.299653	0.500098
H181	H	-0.141559	-1.058992	0.000100
H182	H	0.358441	-0.558992	0.500100
H183	H	0.051917	-1.012157	0.213826
H184	H	0.551917	-0.512157	0.713826
H185	H	-0.268245	-0.725882	0.000017
H186	H	0.231755	-0.225882	0.500017
H187	H	0.167023	-0.520888	0.000050
H188	H	0.667023	-0.020888	0.500050
Cl189	Cl	0.160394	-0.822922	0.601490
Cl190	Cl	0.660394	-0.322922	1.101490
H191	H	0.195138	-0.293284	0.000044
H192	H	0.695138	0.206716	0.500044
Cl193	Cl	-0.389119	-1.158107	0.000095
Cl194	Cl	0.110881	-0.658107	0.500095
Cl195	Cl	0.043367	-1.027080	0.398675
Cl196	Cl	0.543367	-0.527080	0.898675
H197	H	0.029383	-0.180842	0.000119
H198	H	0.529383	0.319158	0.500119
H199	H	0.036742	-0.329120	0.000117
H200	H	0.536742	0.170880	0.500117
H201	H	-0.436454	-1.125651	0.000081
H202	H	0.063546	-0.625651	0.500081
Cl203	Cl	-0.011603	-0.542998	0.000113
Cl204	Cl	0.488397	-0.042998	0.500113
H205	H	-0.419602	-0.723396	0.000024
H206	H	0.080398	-0.223396	0.500024
H207	H	0.035654	-1.040572	0.621617
H208	H	0.535654	-0.540572	1.121617
H209	H	-0.039170	-0.801166	0.000091
H210	H	0.460830	-0.301166	0.500091
H211	H	-0.757066	-1.048849	0.000060
H212	H	-0.257066	-0.548849	0.500060
H213	H	0.040184	-1.032688	0.786363
H214	H	0.540184	-0.532688	1.286363
H215	H	0.151851	-0.837859	0.786336
H216	H	0.651851	-0.337859	1.286336
Cl217	Cl	0.182292	-0.784694	0.398645
Cl218	Cl	0.682292	-0.284694	0.898645
H219	H	0.163580	-0.817322	0.213800
H220	H	0.663580	-0.317322	0.713800
Cl221	Cl	-0.655691	-1.082202	0.000079
Cl222	Cl	-0.155691	-0.582202	0.500079
H223	H	-0.746189	-0.789524	0.000040
H224	H	-0.246189	-0.289524	0.500040
H225	H	-0.359761	-0.724370	0.000012
H226	H	0.140239	-0.224370	0.500012
Cl227	Cl	-0.642177	-0.759558	0.000021
Cl228	Cl	-0.142177	-0.259558	0.500021
H229	H	-0.527981	-1.124135	0.000070
H230	H	-0.027981	-0.624135	0.500070
H231	H	-0.511115	-0.721887	0.000020
H232	H	-0.011115	-0.221887	0.500020
