data_functionalizedCrystal
_audit_creation_method	'MofGen! by Chris Wilmer'
_symmetry_space_group_name_H-M	'P1'
_symmetry_Int_Tables_number	1
_symmetry_cell_setting	triclinic
loop_
_symmetry_equiv_pos_as_xyz
  x,y,z
_cell_length_a	15.297475
_cell_length_b	12.645330
_cell_length_c	15.299447
_cell_angle_alpha	80.300189
_cell_angle_beta	69.207769
_cell_angle_gamma	80.321044
loop_
_atom_site_label
_atom_site_type_symbol
_atom_site_fract_x
_atom_site_fract_y
_atom_site_fract_z
Zn1	Zn	1.512865	-0.573216	-0.771531
Zn2	Zn	2.012865	-0.073216	-0.271531
Zn3	Zn	1.485844	-0.776634	-0.616008
Zn4	Zn	1.985844	-0.276634	-0.116008
Zn5	Zn	1.330419	-0.573192	-0.589159
Zn6	Zn	1.830419	-0.073192	-0.089159
Zn7	Zn	1.357313	-0.724232	-0.744618
Zn8	Zn	1.857313	-0.224232	-0.244618
O9	O	1.421610	-0.661818	-0.680329
O10	O	1.921610	-0.161818	-0.180329
O11	O	1.639426	-0.622140	-0.773400
O12	O	2.139426	-0.122140	-0.273400
O13	O	1.442663	-0.771568	-0.482300
O14	O	1.942663	-0.271568	0.017700
O15	O	1.354674	-0.424853	-0.613377
O16	O	1.854674	0.075147	-0.113377
O17	O	1.619574	-0.771591	-0.659138
O18	O	2.119574	-0.271591	-0.159138
O19	O	1.488717	-0.424871	-0.747365
O20	O	1.988717	0.075129	-0.247365
O21	O	1.328473	-0.622100	-0.462573
O22	O	1.828473	-0.122100	0.037427
O23	O	1.203842	-0.571287	-0.587281
O24	O	1.703842	-0.071287	-0.087281
O25	O	1.400511	-0.682278	-0.878335
O26	O	1.900511	-0.182278	-0.378335
O27	O	1.223601	-0.682255	-0.701496
O28	O	1.723601	-0.182255	-0.201496
O29	O	1.514794	-0.571328	-0.898108
O30	O	2.014794	-0.071328	-0.398108
O31	O	1.468741	-0.918025	-0.633042
O32	O	1.968741	-0.418025	-0.133042
O33	O	1.374310	-0.879525	-0.727531
O34	O	1.874310	-0.379525	-0.227531
C35	C	1.179976	-0.621083	-0.638555
C36	C	1.679976	-0.121083	-0.138555
C37	C	1.076608	-0.603678	-0.620706
C38	C	1.576608	-0.103678	-0.120706
C39	C	0.826417	-0.786222	-0.807901
C40	C	1.326417	-0.286222	-0.307901
C41	C	0.923537	-0.802583	-0.824668
C42	C	1.423537	-0.302583	-0.324668
C43	C	0.961809	-0.752858	-0.773679
C44	C	1.461809	-0.252858	-0.273679
C45	C	0.902953	-0.686769	-0.705920
C46	C	1.402953	-0.186769	-0.205920
C47	C	0.805823	-0.670413	-0.689145
C48	C	1.305823	-0.170413	-0.189145
C49	C	0.941215	-0.637049	-0.654924
C50	C	1.441215	-0.137049	-0.154924
C51	C	0.882359	-0.570961	-0.587165
C52	C	1.382359	-0.070961	-0.087165
C53	C	0.785239	-0.554607	-0.570394
C54	C	1.285239	-0.054607	-0.070394
C55	C	0.746966	-0.604332	-0.621383
C56	C	1.246966	-0.104332	-0.121383
C57	C	1.038345	-0.653405	-0.671698
C58	C	1.538345	-0.153405	-0.171698
C59	C	1.017751	-0.537597	-0.552943
C60	C	1.517751	-0.037597	-0.052943
C61	C	0.920632	-0.521236	-0.536176
C62	C	1.420632	-0.021236	-0.036176
C63	C	1.421540	-0.937239	-0.680304
C64	C	1.921540	-0.437239	-0.180304
C65	C	1.421601	-1.055074	-0.680339
C66	C	1.921601	-0.555074	-0.180339
C67	C	1.362529	-1.198474	-0.740055
C68	C	1.862529	-0.698474	-0.240055
C69	C	1.362123	-1.075892	-0.739760
C70	C	1.862123	-0.575892	-0.239760
C71	C	1.378102	-1.111677	-0.577745
C72	C	1.878102	-0.611677	-0.077745
C73	C	1.377741	-1.234128	-0.578107
C74	C	1.877741	-0.734128	-0.078107
C75	C	1.524472	-1.234539	-0.722499
C76	C	2.024472	-0.734539	-0.222499
C77	C	1.524239	-1.111470	-0.724538
C78	C	2.024239	-0.611470	-0.224538
C79	C	1.664188	-0.702714	-0.722266
C80	C	2.164188	-0.202714	-0.222266
C81	C	1.767561	-0.720141	-0.740138
C82	C	2.267561	-0.220141	-0.240138
C83	C	1.463667	-0.620960	-0.922911
C84	C	1.963667	-0.120960	-0.422911
C85	C	1.481589	-0.603549	-1.026285
C86	C	1.981589	-0.103549	-0.526285
C87	C	1.421710	-0.385323	-0.680379
C88	C	1.921710	0.114677	-0.180379
C89	C	1.421752	-0.267498	-0.680400
C90	C	1.921752	0.232502	-0.180400
C91	C	1.294104	-0.785537	-1.276500
C92	C	1.794104	-0.285537	-0.776500
C93	C	1.277256	-0.801888	-1.179374
C94	C	1.777256	-0.301888	-0.679374
C95	C	1.328338	-0.752305	-1.141096
C96	C	1.828338	-0.252305	-0.641096
C97	C	1.396270	-0.686367	-1.199956
C98	C	1.896270	-0.186367	-0.699956
C99	C	1.413114	-0.670007	-1.297091
C100	C	1.913114	-0.170007	-0.797091
C101	C	1.447348	-0.636775	-1.161687
C102	C	1.947348	-0.136775	-0.661687
C103	C	1.515280	-0.570837	-1.220546
C104	C	2.015280	-0.070837	-0.720546
C105	C	1.532122	-0.554480	-1.317671
C106	C	2.032122	-0.054480	-0.817671
C107	C	1.481040	-0.604063	-1.355949
C108	C	1.981040	-0.104063	-0.855949
C109	C	1.430504	-0.653136	-1.064552
C110	C	1.930504	-0.153136	-0.564552
C111	C	1.549514	-0.537605	-1.085143
C112	C	2.049514	-0.037605	-0.585143
C113	C	1.566362	-0.521254	-1.182269
C114	C	2.066362	-0.021254	-0.682269
C115	C	1.379771	-0.702450	-0.438700
C116	C	1.879771	-0.202450	0.061300
C117	C	1.362030	-0.719593	-0.335358
C118	C	1.862030	-0.219593	0.164642
H119	H	0.872697	-0.467426	-0.481005
H120	H	1.372697	0.032574	0.018995
H121	H	1.086257	-0.707215	-0.726870
H122	H	1.586257	-0.207215	-0.226870
N123	N	1.604624	-0.484130	-1.043873
N124	N	2.104624	0.015870	-0.543873
H125	H	1.593141	-0.403106	-1.058289
H126	H	2.093141	0.096894	-0.558289
H127	H	1.583622	-0.504587	-0.973424
H128	H	2.083622	-0.004587	-0.473424
H129	H	1.252517	-0.825896	-1.307675
H130	H	1.752517	-0.325896	-0.807675
N131	N	0.785145	-0.839848	-0.862895
N132	N	1.285145	-0.339848	-0.362895
H133	H	0.799509	-0.920861	-0.851252
H134	H	1.299509	-0.420861	-0.351252
H135	H	0.714699	-0.819379	-0.841961
H136	H	1.214699	-0.319379	-0.341961
H137	H	1.040889	-0.766183	-0.787336
H138	H	1.540889	-0.266183	-0.287336
H139	H	1.048911	-0.497108	-0.511423
H140	H	1.548911	0.002892	-0.011423
H141	H	1.314618	-0.765624	-1.062011
H142	H	1.814618	-0.265624	-0.562011
N143	N	1.278875	-1.060068	-0.532781
N144	N	1.778875	-0.560068	-0.032781
H145	H	1.238978	-1.067631	-0.571188
H146	H	1.738978	-0.567631	-0.071188
H147	H	1.251566	-1.097072	-0.466786
H148	H	1.751566	-0.597072	0.033214
H149	H	1.587430	-0.500781	-1.365592
H150	H	2.087430	-0.000781	-0.865592
H151	H	0.737318	-0.500806	-0.515210
H152	H	1.237318	-0.000806	-0.015210
H153	H	1.418085	-1.281537	-0.531230
H154	H	1.918085	-0.781537	-0.031230
N155	N	1.401024	-1.224869	-0.840400
N156	N	1.901024	-0.724869	-0.340400
H157	H	1.350763	-1.252918	-0.855752
H158	H	1.850763	-0.752918	-0.355752
H159	H	1.420880	-1.157517	-0.884445
H160	H	1.920880	-0.657517	-0.384445
N161	N	1.432419	-1.096629	-0.516257
N162	N	1.932419	-0.596629	-0.016257
H163	H	1.499993	-1.129149	-0.543435
H164	H	1.999993	-0.629149	-0.043435
H165	H	1.430361	-1.016972	-0.513517
H166	H	1.930361	-0.516972	-0.013517
H167	H	1.287212	-1.219922	-0.711115
H168	H	1.787212	-0.719922	-0.211115
N169	N	0.987005	-0.873862	-0.897746
N170	N	1.487005	-0.373862	-0.397746
H171	H	0.981643	-0.843477	-0.961306
H172	H	1.481643	-0.343477	-0.461306
H173	H	1.054311	-0.876664	-0.900556
H174	H	1.554311	-0.376664	-0.400556
H175	H	1.391303	-1.036316	-0.815302
H176	H	1.891303	-0.536316	-0.315302
H177	H	0.667885	-0.591012	-0.607736
H178	H	1.167885	-0.091012	-0.107736
H179	H	1.560837	-1.257649	-0.796935
H180	H	2.060837	-0.757649	-0.296935
H181	H	1.286314	-1.037164	-0.710529
H182	H	1.786314	-0.537164	-0.210529
N183	N	1.587575	-1.094257	-0.672974
N184	N	2.087575	-0.594257	-0.172974
H185	H	1.550466	-1.049462	-0.619992
H186	H	2.050466	-0.549462	-0.119992
H187	H	1.613037	-1.166524	-0.646369
H188	H	2.113037	-0.666524	-0.146369
H189	H	1.556734	-1.073563	-0.800125
H190	H	2.056734	-0.573563	-0.300125
N191	N	1.583199	-1.296539	-0.665224
N192	N	2.083199	-0.796539	-0.165224
H193	H	1.543511	-1.345745	-0.612268
H194	H	2.043511	-0.845745	-0.112268
H195	H	1.638562	-1.341150	-0.706960
H196	H	2.138562	-0.841150	-0.206960
H197	H	1.375187	-0.706816	-1.016637
H198	H	1.875187	-0.206816	-0.516637
H199	H	1.494757	-0.590757	-1.435037
H200	H	1.994757	-0.090757	-0.935037
N201	N	1.277613	-1.260830	-0.533479
N202	N	1.777613	-0.760830	-0.033479
H203	H	1.234125	-1.193101	-0.513758
H204	H	1.734125	-0.693101	-0.013758
H205	H	1.259095	-1.291347	-0.580438
H206	H	1.759095	-0.791347	-0.080438
H207	H	1.221953	-0.855585	-1.131458
H208	H	1.721953	-0.355585	-0.631458
H209	H	1.621672	-0.467565	-1.230205
H210	H	2.121672	0.032435	-0.730205
