data_functionalizedCrystal
_audit_creation_method	'MofGen! by Chris Wilmer'
_symmetry_space_group_name_H-M	'P1'
_symmetry_Int_Tables_number	1
_symmetry_cell_setting	triclinic
loop_
_symmetry_equiv_pos_as_xyz
  x,y,z
_cell_length_a	19.188925
_cell_length_b	12.837942
_cell_length_c	11.892052
_cell_angle_alpha	93.963740
_cell_angle_beta	94.380209
_cell_angle_gamma	88.985744
loop_
_atom_site_label
_atom_site_type_symbol
_atom_site_fract_x
_atom_site_fract_y
_atom_site_fract_z
O1	O	0.939394	0.135250	0.094029
O2	O	0.737277	0.152672	0.094026
O3	O	0.833854	-0.006921	0.094020
O4	O	0.842818	0.294844	0.094034
O5	O	0.825096	-0.018721	-0.093989
O6	O	0.728520	0.140873	-0.093984
O7	O	0.930637	0.123451	-0.093981
Zn8	Zn	0.828188	0.130288	-0.123833
Zn9	Zn	0.839726	0.145835	0.123878
O10	O	0.834060	0.283045	-0.093975
C11	C	0.826447	-0.051428	0.000016
C12	C	0.817416	-0.166464	0.000018
C13	C	0.706849	0.146209	0.000020
C14	C	0.629228	0.144519	0.000019
C15	C	0.925985	-0.407916	0.000043
C16	C	0.917503	-0.516003	0.000045
C17	C	0.791971	-0.490726	0.000031
C18	C	0.800453	-0.382639	0.000029
C19	C	0.867462	-0.341239	0.000034
C20	C	0.875943	-0.233150	0.000024
C21	C	0.750412	-0.207875	0.000018
C22	C	0.741930	-0.315962	0.000020
C23	C	0.073105	0.226841	0.000026
C24	C	0.146038	0.228439	0.000032
C25	C	0.184549	0.134795	0.000025
C26	C	0.150123	0.039546	0.000042
C27	C	0.077191	0.037952	0.000047
N28	N	0.297595	0.062983	-0.063978
N29	N	0.366876	0.064504	-0.063985
C30	C	0.404287	0.139594	0.000012
N31	N	0.369798	0.213120	0.064003
N32	N	0.300510	0.211601	0.064005
C33	C	0.263631	0.136513	0.000021
C34	C	0.517787	0.236569	0.000011
C35	C	0.590722	0.238164	0.000024
C36	C	0.594805	0.049268	0.000022
C37	C	0.521872	0.047677	0.000021
C38	C	0.483367	0.141330	0.000009
C39	C	0.961065	0.129914	0.000027
C40	C	1.038687	0.131605	0.000036
C41	C	0.841467	0.327551	0.000031
C42	C	0.850498	0.442587	0.000037
N43	N	0.820318	0.119678	-0.292889
C44	C	0.765563	0.045857	-0.470439
C45	C	0.771057	0.053271	-0.352096
C46	C	0.864088	0.178673	-0.352034
C47	C	0.858594	0.171259	-0.470377
C48	C	0.809328	0.104850	-0.529576
C49	C	0.803831	0.097442	-0.647921
C50	C	0.896865	0.222838	-0.647857
C51	C	0.902360	0.230252	-0.529514
N52	N	0.847601	0.156437	0.292934
H53	H	0.930505	-0.199444	0.000023
H54	H	0.965159	-0.570289	0.000056
F55	F	0.916522	0.249335	-0.289012
H56	H	0.702758	-0.153574	0.000002
F57	F	0.635787	-0.050396	0.000030
H58	H	0.763714	0.043372	-0.696119
H59	H	0.737416	-0.524454	0.000040
F60	F	0.997299	-0.363853	0.000024
F61	F	0.182676	0.329807	0.000019
H62	H	0.687373	-0.349686	0.000021
H63	H	0.041759	0.303102	0.000022
H64	H	0.181483	-0.036699	0.000040
H65	H	0.618744	0.315720	0.000025
F66	F	0.485240	-0.053688	0.000034
H67	H	0.725443	-0.008207	-0.518640
H68	H	0.049169	-0.039603	0.000055
H69	H	0.486435	0.312828	0.000003
H70	H	0.735419	0.005232	-0.303951
F71	F	0.954790	0.300923	-0.466498
F72	F	0.943446	0.285629	-0.710803
