data_functionalizedCrystal
_audit_creation_method	'MofGen! by Chris Wilmer'
_symmetry_space_group_name_H-M	'P1'
_symmetry_Int_Tables_number	1
_symmetry_cell_setting	triclinic
loop_
_symmetry_equiv_pos_as_xyz
  x,y,z
_cell_length_a	12.970454
_cell_length_b	14.560438
_cell_length_c	14.560438
_cell_angle_alpha	119.997914
_cell_angle_beta	89.998706
_cell_angle_gamma	59.999012
loop_
_atom_site_label
_atom_site_type_symbol
_atom_site_fract_x
_atom_site_fract_y
_atom_site_fract_z
Zr1	Zr	0.993218	1.005271	0.120520
O2	O	0.828586	1.196873	0.267162
O3	O	1.043686	0.813670	0.075569
O4	O	1.043677	1.005271	0.267169
O5	O	0.828602	1.005271	-0.075577
O6	O	1.213344	1.005270	0.267171
O7	O	0.828595	1.005271	0.075562
O8	O	1.213360	0.662530	-0.075566
O9	O	0.828587	1.348011	0.267159
O10	O	1.191831	0.892477	0.056397
O11	O	1.065215	0.892477	-0.056399
O12	O	1.065205	1.118063	0.169185
O13	O	0.938590	1.118063	0.056389
Zr14	Zr	1.263829	1.005268	-0.120527
Zr15	Zr	1.263818	1.005269	0.120524
Zr16	Zr	0.993229	1.005270	-0.120531
Zr17	Zr	0.993218	1.246318	0.120516
Zr18	Zr	1.263829	0.764221	-0.120522
O19	O	1.213361	1.196869	-0.075576
O20	O	1.213345	1.196871	0.267167
O21	O	0.828603	1.196871	-0.075581
O22	O	1.428460	0.813666	-0.267169
O23	O	1.428444	0.813668	0.075574
O24	O	1.043702	0.813668	-0.267174
O25	O	1.428444	1.005268	0.075571
O26	O	1.213370	1.005268	-0.267175
O27	O	1.043703	1.005269	-0.267178
O28	O	1.428452	1.005268	-0.075569
O29	O	1.043677	1.348010	0.267162
O30	O	1.213369	0.662529	-0.267169
O31	O	1.428460	0.662528	-0.267166
O32	O	1.428451	0.662529	-0.075563
O33	O	0.828596	1.348010	0.075556
O34	O	1.043687	1.348009	0.075559
O35	O	1.191842	0.892476	-0.169191
O36	O	1.318457	0.892476	-0.056396
O37	O	1.191831	1.118062	0.056392
O38	O	1.065216	1.118062	-0.056403
C39	C	1.128523	0.703756	0.000002
C40	C	1.128522	0.601425	0.000004
C41	C	1.194612	0.553349	0.058883
C42	C	1.194617	0.457189	0.058872
C43	C	1.062433	0.457194	-0.058897
C44	C	1.062436	0.553345	-0.058892
C45	C	0.790044	1.005271	-0.000008
C46	C	0.675167	1.005272	-0.000010
C47	C	1.467003	1.005268	0.000001
C48	C	1.581879	1.005267	0.000003
C49	C	1.128509	1.005271	0.301514
C50	C	1.128504	1.005271	0.403847
C51	C	1.128524	1.306783	-0.000009
C52	C	1.128524	1.409114	-0.000011
C53	C	1.035036	1.005276	0.548085
C54	C	1.035034	1.005269	0.451929
C55	C	1.221989	1.005267	0.451918
C56	C	1.221995	1.005265	0.548066
C57	C	1.128530	1.005270	0.698480
C58	C	1.128512	1.005276	0.596151
C59	C	1.467002	0.703754	0.000007
C60	C	1.581879	0.601422	0.000010
C61	C	1.128537	0.703754	-0.301515
C62	C	1.128542	0.601423	-0.403846
C63	C	1.467017	0.703753	-0.301511
C64	C	1.581898	0.601421	-0.403840
C65	C	0.790030	1.306786	0.301504
C66	C	0.675149	1.409118	0.403833
C67	C	0.790045	1.306785	-0.000014
C68	C	0.675168	1.409116	-0.000017
C69	C	1.128509	1.306785	0.301509
C70	C	1.128505	1.409116	0.403839
C71	C	1.635831	0.470090	-0.083255
C72	C	1.743759	0.373925	-0.083256
C73	C	1.797737	0.409096	0.000006
C74	C	1.743775	0.540441	0.083280
C75	C	1.635844	0.636603	0.083284
C76	C	1.635856	0.470089	-0.451892
C77	C	1.743812	0.373922	-0.548030
C78	C	1.797802	0.409090	-0.596118
C79	C	1.743838	0.540435	-0.548057
C80	C	1.635890	0.636599	-0.451917
C81	C	0.621200	1.540450	0.451894
C82	C	0.513268	1.636617	0.548053
C83	C	0.459282	1.601448	0.596145
C84	C	0.513241	1.470103	0.548079
C85	C	0.621176	1.373940	0.451926
C86	C	0.621223	1.373905	-0.083293
C87	C	0.513295	1.470044	-0.083319
C88	C	0.459309	1.601392	-0.000064
C89	C	0.513263	1.636602	0.083217
C90	C	0.621195	1.540465	0.083237
C91	C	1.194641	0.553345	-0.510797
C92	C	1.194631	0.457202	-0.606944
C93	C	1.062422	0.457221	-0.489173
C94	C	1.062425	0.553368	-0.393029
H95	H	1.008617	0.592488	-0.106843
C96	C	1.267354	0.606218	-0.522692
C97	C	1.267365	0.711975	-0.416943
C98	C	1.340075	0.764849	-0.428843
C99	C	1.412774	0.711967	-0.546492
C100	C	1.412766	0.606204	-0.652249
C101	C	1.340055	0.553330	-0.640350
H102	H	1.213546	0.751127	-0.329845
H103	H	1.340081	0.843142	-0.350553
H104	H	1.466599	0.751108	-0.555301
H105	H	1.466584	0.567052	-0.739348
H106	H	1.340050	0.475037	-0.718639
H107	H	0.665138	1.569110	0.412747
C108	C	1.803166	0.579120	0.174859
C109	C	1.851314	0.661010	0.187452
C110	C	1.910712	0.699686	0.279026
C111	C	1.921963	0.656472	0.358005
C112	C	1.873813	0.574577	0.345414
C113	C	1.814415	0.535900	0.253840
H114	H	1.842987	0.693004	0.128985
H115	H	1.946356	0.760311	0.288346
H116	H	1.965933	0.685102	0.425793
H117	H	1.882140	0.542582	0.403881
H118	H	1.778771	0.475276	0.244520
H119	H	0.958918	1.005282	0.587231
C120	C	1.576525	0.781069	0.174871
C121	C	1.528418	0.836548	0.299656
C122	C	1.469110	0.981012	0.391247
C123	C	1.457909	1.069997	0.358052
C124	C	1.506018	1.014518	0.233260
C125	C	1.565326	0.870054	0.141670
H126	H	1.536708	0.770676	0.324235
H127	H	1.433497	1.022081	0.483626
H128	H	1.414006	1.176938	0.425853
H129	H	1.497728	1.080391	0.208682
H130	H	1.600939	0.828986	0.049290
C131	C	0.453837	1.431434	0.600983
C132	C	0.442574	1.474655	0.723178
C133	C	0.383159	1.435991	0.776080
C134	C	0.335006	1.354106	0.706788
C135	C	0.346267	1.310881	0.584586
C136	C	0.405683	1.349545	0.531684
H137	H	0.478221	1.535275	0.774478
H138	H	0.374822	1.467989	0.866542
H139	H	0.291023	1.325485	0.745949
H140	H	0.310621	1.250261	0.533286
H141	H	0.414019	1.317546	0.441222
H142	H	1.248434	0.418047	0.106814
H143	H	1.787680	0.266985	-0.151070
H144	H	1.008626	0.418038	-0.106846
C145	C	0.989709	0.606263	-0.275371
C146	C	0.916994	0.553400	-0.263469
C147	C	0.844276	0.606301	-0.145813
C148	C	0.844273	0.712066	-0.040060
C149	C	0.916992	0.764935	-0.051959
C150	C	0.989710	0.712034	-0.169614
H151	H	0.916993	0.475101	-0.341757
H152	H	0.790445	0.567164	-0.137006
H153	H	0.790443	0.751227	0.047036
H154	H	0.916993	0.843234	0.026330
H155	H	1.043541	0.751172	-0.178422
H156	H	0.958919	1.005267	0.412795
C157	C	0.680500	1.229474	0.399056
C158	C	0.728602	1.174002	0.468370
C159	C	0.787919	1.029536	0.415506
C160	C	0.799135	0.940543	0.293329
C161	C	0.751032	0.996014	0.224008
C162	C	0.691715	1.140480	0.276872
H163	H	0.720301	1.239881	0.558820
H164	H	0.823528	0.988474	0.466823
H165	H	0.843045	0.833602	0.254196
H166	H	0.759333	0.930135	0.133558
H167	H	0.656106	1.181542	0.225555
C168	C	1.576533	0.781064	-0.399076
C169	C	1.654340	0.836537	-0.356224
C170	C	1.594990	0.981002	-0.303390
C171	C	1.457833	1.069995	-0.293408
C172	C	1.380018	1.014524	-0.336262
C173	C	1.439368	0.870059	-0.389095
H174	H	1.755879	0.770658	-0.363612
H175	H	1.652594	1.022064	-0.271667
H176	H	1.413898	1.176936	-0.254298
H177	H	1.278479	1.080403	-0.328874
H178	H	1.381764	0.828996	-0.420818
H179	H	1.787728	0.266982	-0.587152
H180	H	0.665161	1.266961	-0.151090
H181	H	1.885699	0.330774	-0.674403
H182	H	1.248453	0.418063	-0.694025
H183	H	0.371395	1.679764	0.674439
C184	C	0.989704	0.404349	-0.477284
C185	C	1.060564	0.258932	-0.527181
C186	C	0.987847	0.206060	-0.515289
C187	C	0.844271	0.298605	-0.453499
C188	C	0.773403	0.444032	-0.403598
C189	C	0.846120	0.496904	-0.415490
H190	H	1.166855	0.190416	-0.572925
H191	H	1.040309	0.098405	-0.552230
H192	H	0.790442	0.259466	-0.444696
H193	H	0.667112	0.512548	-0.357854
H194	H	0.793658	0.604559	-0.378549
H195	H	0.469379	1.441349	-0.151137
H196	H	1.298099	1.005261	0.412759
H197	H	1.248426	0.592490	0.106838
H198	H	1.298120	1.005261	0.587202
H199	H	1.885619	0.330781	-0.000008
H200	H	1.591895	0.441429	-0.151059
H201	H	1.591911	0.441430	-0.412751
H202	H	1.787814	0.569051	-0.587225
H203	H	0.469348	1.743556	0.587173
H204	H	0.371424	1.679660	-0.000093
H205	H	0.469292	1.743558	0.151000
H206	H	0.665105	1.569153	0.151056
