data_functionalizedCrystal
_audit_creation_method	'MofGen! by Chris Wilmer'
_symmetry_space_group_name_H-M	'P1'
_symmetry_Int_Tables_number	1
_symmetry_cell_setting	triclinic
loop_
_symmetry_equiv_pos_as_xyz
  x,y,z
_cell_length_a	6.817900
_cell_length_b	19.551136
_cell_length_c	11.168136
_cell_angle_alpha	94.562875
_cell_angle_beta	108.508683
_cell_angle_gamma	101.650842
loop_
_atom_site_label
_atom_site_type_symbol
_atom_site_fract_x
_atom_site_fract_y
_atom_site_fract_z
V1	V	-4.075337	-0.096687	-0.394321
O2	O	-4.071123	0.004635	-0.386175
O3	O	-4.017676	-0.191704	-0.392240
O4	O	-4.052157	-0.095205	-0.566017
O5	O	-4.036403	-0.092532	-0.211194
V6	V	-4.556897	-0.084567	-0.372343
O7	O	-4.340901	-0.123273	-0.442532
O8	O	-4.741529	-0.057981	-0.324132
O9	O	-4.391351	0.010450	-0.374424
O10	O	-4.678508	-0.185890	-0.380489
O11	O	-4.713227	-0.088722	-0.555470
O12	O	-4.356870	-0.086050	-0.200647
C13	C	-3.859608	-0.214867	-0.386178
C14	C	-3.893918	-0.292544	-0.385620
C15	C	-3.853822	-0.319032	-0.269644
C16	C	-3.886126	-0.392016	-0.269082
C17	C	-3.958488	-0.438510	-0.384501
C18	C	-3.998599	-0.412016	-0.500493
C19	C	-3.966314	-0.339033	-0.501053
C20	C	-3.935292	-0.559523	-0.468189
C21	C	-3.967561	-0.632504	-0.467624
C22	C	-4.058076	-0.663614	-0.382779
C23	C	-4.116281	-0.621732	-0.298477
C24	C	-4.083996	-0.548749	-0.299037
C25	C	-3.993503	-0.517649	-0.383907
C26	C	-4.053006	-0.769239	-0.266185
C27	C	-4.085326	-0.842225	-0.265628
C28	C	-4.197779	-0.862223	-0.497042
C29	C	-4.165479	-0.789238	-0.497596
C30	C	-4.093083	-0.742750	-0.382164
C31	C	-3.903591	-0.091771	-0.607847
C32	C	-3.965861	-0.091188	-0.748214
C33	C	-4.167278	-0.094242	-0.816925
C34	C	-4.231641	-0.093639	-0.962002
C35	C	-4.212760	0.033609	-0.380483
C36	C	-4.157689	0.111286	-0.381048
C37	C	-4.168777	-0.089485	-0.158810
C38	C	-4.085746	-0.090065	-0.018442
H39	H	-4.189967	-0.647059	-0.229381
C40	C	-3.797247	-0.087024	-0.813825
N41	N	-3.670236	-0.083878	-0.863240
C42	C	-3.973402	-0.718100	-0.139210
N43	N	-3.913452	-0.679584	-0.043571
H44	H	-3.913197	-0.087455	-0.959385
C45	C	-4.335872	-0.098373	-0.751304
N46	N	-4.462864	-0.101485	-0.701880
C47	C	-4.464751	-0.097170	-1.041794
N48	N	-4.640335	-0.099827	-1.101898
H49	H	-3.853470	-0.413586	-0.174637
C50	C	-4.148016	-0.502681	-0.206305
N51	N	-4.196237	-0.467983	-0.136458
C52	C	-4.041215	-0.871360	-0.138038
N53	N	-4.007986	-0.893304	-0.041934
C54	C	-3.774196	-0.267898	-0.142665
N55	N	-3.714221	-0.229384	-0.047023
C56	C	-4.277383	-0.913363	-0.624005
N57	N	-4.337350	-0.951885	-0.719637
C58	C	-4.209548	-0.760101	-0.625180
N59	N	-4.242740	-0.738155	-0.721281
H60	H	-3.920158	-0.666599	-0.536264
C61	C	-3.835718	-0.525310	-0.561531
N62	N	-3.760722	-0.499542	-0.631834
C63	C	-4.078180	-0.463160	-0.627454
N64	N	-4.138123	-0.501683	-0.723084
H65	H	-3.998974	-0.317469	-0.595498
