data_functionalizedCrystal
_audit_creation_method	'MofGen! by Chris Wilmer'
_symmetry_space_group_name_H-M	'P1'
_symmetry_Int_Tables_number	1
_symmetry_cell_setting	triclinic
loop_
_symmetry_equiv_pos_as_xyz
  x,y,z
_cell_length_a	17.077404
_cell_length_b	12.759400
_cell_length_c	12.759386
_cell_angle_alpha	89.936484
_cell_angle_beta	89.955398
_cell_angle_gamma	90.014910
loop_
_atom_site_label
_atom_site_type_symbol
_atom_site_fract_x
_atom_site_fract_y
_atom_site_fract_z
Zn1	Zn	1.200294	-0.417867	-0.594069
Zn2	Zn	1.200162	-0.593683	-0.418389
Zn3	Zn	1.068968	-0.418020	-0.418399
Zn4	Zn	1.069012	-0.593505	-0.594021
O5	O	1.134609	-0.505769	-0.506219
O6	O	1.310123	-0.441200	-0.570780
O7	O	1.182685	-0.570520	-0.271369
O8	O	1.086425	-0.270978	-0.441726
O9	O	1.310027	-0.570372	-0.441709
O10	O	1.182910	-0.270866	-0.570790
O11	O	1.086298	-0.441461	-0.271376
O12	O	0.959127	-0.441288	-0.441679
O13	O	1.086501	-0.570067	-0.741049
O14	O	0.959160	-0.570216	-0.570708
O15	O	1.182953	-0.441027	-0.741084
O16	O	1.182728	-0.740681	-0.441663
O17	O	1.086373	-0.740550	-0.570699
C18	C	0.930661	-0.505750	-0.506190
C19	C	0.843412	-0.505767	-0.506203
C20	C	0.802459	-0.573001	-0.573280
C21	C	0.720478	-0.573003	-0.573297
C22	C	0.679452	-0.505776	-0.506230
C23	C	0.720411	-0.438534	-0.439150
C24	C	0.802390	-0.438527	-0.439139
C25	C	0.549541	-0.438555	-0.439175
C26	C	0.467556	-0.438563	-0.439184
C27	C	0.467629	-0.573031	-0.573333
C28	C	0.549608	-0.573024	-0.573323
C29	C	0.590561	-0.505783	-0.506240
C30	C	1.134563	-0.778736	-0.506197
C31	C	1.134615	-0.895513	-0.506223
C32	C	1.184842	-0.950408	-0.439108
C33	C	1.184891	-1.060132	-0.439141
C34	C	1.084476	-1.060056	-0.573406
C35	C	1.084433	-0.950334	-0.573378
C36	C	1.235024	-0.895587	-0.371954
C37	C	1.285255	-0.950483	-0.304832
C38	C	1.285304	-1.060207	-0.304865
C39	C	1.235121	-1.115035	-0.372018
C40	C	1.339353	-0.505789	-0.506249
C41	C	1.426603	-0.505797	-0.506262
C42	C	1.134746	-0.505510	-0.780253
C43	C	1.134805	-0.505400	-0.897030
C44	C	1.134677	-0.231735	-0.506264
C45	C	1.134706	-0.114959	-0.506283
C46	C	1.134518	-0.505951	-0.233252
C47	C	1.134611	-0.505765	-0.116475
C48	C	1.084811	-0.573347	-0.061299
C49	C	1.084906	-0.573162	0.048424
C50	C	1.184607	-0.437810	0.047786
C51	C	1.184508	-0.437991	-0.061935
C52	C	1.034914	-0.641121	-0.115839
C53	C	0.985111	-0.708709	-0.060663
C54	C	0.985205	-0.708524	0.049060
C55	C	1.035103	-0.640751	0.103608
H56	H	0.582882	-0.383791	-0.384559
H57	H	0.687138	-0.627753	-0.627918
H58	H	1.225056	-0.382955	-0.106861
H59	H	1.035174	-0.640603	0.192952
H60	H	1.043619	-1.104706	-0.628078
H61	H	0.944647	-0.763549	0.093982
H62	H	1.043533	-0.905637	-0.628030
H63	H	0.434282	-0.627777	-0.627957
H64	H	1.225232	-0.382633	0.092208
H65	H	1.326118	-0.905836	-0.250164
H66	H	0.687000	-0.383792	-0.384547
H67	H	0.583010	-0.627772	-0.627929
H68	H	0.835732	-0.383773	-0.384523
H69	H	1.234988	-0.806244	-0.371917
H70	H	1.326210	-1.104900	-0.250219
H71	H	0.434155	-0.383808	-0.384585
H72	H	1.235170	-1.204380	-0.372048
H73	H	0.835857	-0.627749	-0.627891
H74	H	1.034833	-0.641281	-0.205182
H75	H	0.944480	-0.763879	-0.105083
