data_functionalizedCrystal
_audit_creation_method	'MofGen! by Chris Wilmer'
_symmetry_space_group_name_H-M	'P1'
_symmetry_Int_Tables_number	1
_symmetry_cell_setting	triclinic
loop_
_symmetry_equiv_pos_as_xyz
  x,y,z
_cell_length_a	10.685661
_cell_length_b	14.908579
_cell_length_c	10.686551
_cell_angle_alpha	90.859339
_cell_angle_beta	80.927378
_cell_angle_gamma	90.808384
loop_
_atom_site_label
_atom_site_type_symbol
_atom_site_fract_x
_atom_site_fract_y
_atom_site_fract_z
Zn1	Zn	1.964321	0.417647	-0.897465
Zn2	Zn	1.935848	0.577959	-0.697217
Zn3	Zn	1.735753	0.417688	-0.668994
Zn4	Zn	1.741586	0.556565	-0.891576
O5	O	1.844377	0.492465	-0.788813
O6	O	2.137500	0.447849	-0.885178
O7	O	1.894947	0.565669	-0.516517
O8	O	1.775549	0.292471	-0.689954
O9	O	2.116580	0.565629	-0.738057
O10	O	1.943477	0.292441	-0.857811
O11	O	1.747939	0.447919	-0.495781
O12	O	1.559572	0.427174	-0.684243
O13	O	1.785490	0.529167	-1.069314
O14	O	1.563857	0.529207	-0.847774
O15	O	1.949133	0.427105	-1.073641
O16	O	1.900603	0.700332	-0.732346
O17	O	1.757880	0.684614	-0.875141
C18	C	1.515832	0.475874	-0.762308
C19	C	1.375279	0.468796	-0.751000
C20	C	1.826822	0.724939	-0.806198
C21	C	1.819430	0.824397	-0.813686
C22	C	1.954336	1.027595	-0.679210
C23	C	1.947395	1.121045	-0.686243
C24	C	1.798616	1.104747	-0.834790
C25	C	1.805556	1.011297	-0.827758
C26	C	1.883418	0.972725	-0.749963
C27	C	1.890351	0.879274	-0.742925
C28	C	1.741579	0.862978	-0.891479
C29	C	1.734638	0.956427	-0.898511
C30	C	2.174206	0.509121	-0.815423
C31	C	2.314759	0.516219	-0.826762
C32	C	1.871138	0.475745	-1.118643
C33	C	1.882542	0.468620	-1.259197
C34	C	1.862031	1.259081	-0.771407
C35	C	1.869536	1.159624	-0.764029
C36	C	1.817798	0.509059	-0.460267
C37	C	1.806658	0.515944	-0.319715
H38	H	1.370472	0.562228	-0.900283
O39	O	1.966086	0.841948	-0.667338
C40	C	2.112865	0.867981	-0.520686
C41	C	2.027165	0.910366	-0.606259
H42	H	2.162250	0.923277	-0.471260
H43	H	2.186982	0.824592	-0.580780
H44	H	2.052729	0.824686	-0.446595
H45	H	2.087198	0.953704	-0.680363
H46	H	1.953043	0.953703	-0.546082
O47	O	1.718765	0.570714	-1.253052
C48	C	1.626965	0.628062	-1.047493
C49	C	1.726535	0.565986	-1.122829
H50	H	1.633231	0.624274	-0.942197
H51	H	1.528231	0.605904	-1.063892
H52	H	1.645781	0.700020	-1.080641
H53	H	1.707837	0.494011	-1.089728
H54	H	1.825236	0.588220	-1.106428
O55	O	2.016470	1.174368	-0.617728
C56	C	2.178041	1.289229	-0.622642
C57	C	2.099888	1.228887	-0.700376
H58	H	2.245484	1.333335	-0.689428
H59	H	2.234973	1.245628	-0.565897
H60	H	2.111447	1.333440	-0.555034
H61	H	2.166390	1.184665	-0.768053
H62	H	2.042941	1.272540	-0.757035
H63	H	1.956240	0.422657	-1.314913
H64	H	1.319561	0.422776	-0.677485
O65	O	1.672488	0.809712	-0.960064
C66	C	1.464411	0.767325	-1.001796
C67	C	1.542504	0.827686	-0.924027
H68	H	1.359306	0.781848	-0.972708
H69	H	1.482631	0.693892	-0.983388
H70	H	1.493501	0.781592	-1.106944
H71	H	1.513461	0.813498	-0.818856
H72	H	1.524277	0.901100	-0.942542
O73	O	2.030060	0.990267	-0.603615
C74	C	2.176811	1.016290	-0.456932
C75	C	2.091130	1.058680	-0.542520
H76	H	2.226189	1.071583	-0.407493
H77	H	2.250933	0.972901	-0.517017
H78	H	2.116661	0.972994	-0.382852
H79	H	2.151176	1.102019	-0.616613
H80	H	2.017002	1.102017	-0.482352
H81	H	1.671250	0.987846	-0.961853
O82	O	1.723010	1.142371	-0.910249
C83	C	1.646457	1.279119	-0.986974
C84	C	1.732110	1.236628	-0.901446
H85	H	1.653805	1.355332	-0.979906
H86	H	1.544026	1.256875	-0.955077
H87	H	1.678201	1.256598	-1.089339
H88	H	1.700479	1.259129	-0.799058
H89	H	1.834523	1.258870	-0.933450
