data_functionalizedCrystal
_audit_creation_method	'MofGen! by Chris Wilmer'
_symmetry_space_group_name_H-M	'P1'
_symmetry_Int_Tables_number	1
_symmetry_cell_setting	triclinic
loop_
_symmetry_equiv_pos_as_xyz
  x,y,z
_cell_length_a	19.188905
_cell_length_b	16.109301
_cell_length_c	15.186229
_cell_angle_alpha	90.000894
_cell_angle_beta	89.989522
_cell_angle_gamma	83.298019
loop_
_atom_site_label
_atom_site_type_symbol
_atom_site_fract_x
_atom_site_fract_y
_atom_site_fract_z
O1	O	0.926397	0.103697	-0.073365
O2	O	0.723116	0.117692	-0.073334
O3	O	0.830341	-0.010356	-0.073355
O4	O	0.819172	0.231745	-0.073344
O5	O	0.830334	-0.010357	0.073103
O6	O	0.723109	0.117690	0.073124
O7	O	0.926390	0.103695	0.073092
Zn8	Zn	0.824748	0.110692	0.096361
Zn9	Zn	0.824758	0.110695	-0.096602
O10	O	0.819165	0.231743	0.073114
C11	C	0.697100	0.117241	-0.000101
C12	C	0.619592	0.115891	-0.000090
C13	C	0.583202	0.115244	-0.079926
C14	C	0.510376	0.113966	-0.079937
C15	C	0.473943	0.113319	-0.000107
C16	C	0.510341	0.113971	0.079740
C17	C	0.583165	0.115258	0.079748
N18	N	0.364805	0.063986	0.059300
N19	N	0.295625	0.062763	0.059287
C20	C	0.254527	0.109446	-0.000128
N21	N	0.285224	0.157389	-0.059543
N22	N	0.354411	0.158609	-0.059532
C23	C	0.394977	0.111925	-0.000108
C24	C	0.139171	0.107414	-0.079982
C25	C	0.066342	0.106142	-0.079990
C26	C	0.066310	0.106139	0.079689
C27	C	0.139136	0.107420	0.079694
C28	C	0.175563	0.108053	-0.000144
C29	C	0.829885	-0.041330	-0.000129
C30	C	0.828529	-0.133620	-0.000138
C31	C	0.952406	0.104146	-0.000142
C32	C	1.029915	0.105496	-0.000159
C33	C	0.819621	0.262717	-0.000114
C34	C	0.820978	0.355008	-0.000111
N35	N	0.824747	0.110690	0.228054
C36	C	0.760506	0.577487	-0.000114
C37	C	0.761786	0.664203	-0.000121
C38	C	0.889005	0.643893	-0.000137
C39	C	0.887724	0.557179	-0.000136
C40	C	0.823473	0.523978	-0.000121
C41	C	0.826033	0.697409	-0.000128
C42	C	0.827422	0.791430	-0.000136
C43	C	0.822084	0.429951	-0.000115
N44	N	0.824765	0.110690	-0.228295
C45	C	0.872242	0.054010	0.453768
C46	C	0.872245	0.054008	0.545957
C47	C	0.777264	0.167373	0.545985
C48	C	0.777259	0.167371	0.453797
C49	C	0.824752	0.110690	0.407691
C50	C	0.824759	0.110691	0.592068
C51	C	0.824762	0.110689	0.692024
C52	C	0.824750	0.110690	0.307728
H53	H	0.612793	0.115786	0.144763
H54	H	0.941316	0.670936	-0.000141
O55	O	0.918282	-0.001131	0.590755
C56	C	0.880909	-0.052298	0.644107
H57	H	0.825848	-0.053534	0.616342
H58	H	0.877246	-0.026268	0.713976
C59	C	0.987038	-0.140165	0.679610
C60	C	0.919413	-0.141689	0.645504
H61	H	1.010790	-0.195305	0.680476
H62	H	1.012218	-0.105692	0.643669
H63	H	0.983976	-0.118469	0.737831
H64	H	0.922476	-0.163375	0.587280
H65	H	0.894235	-0.176169	0.681436
H66	H	0.738598	0.213523	0.583534
H67	H	0.939002	0.513610	-0.000145
O68	O	0.475043	0.113230	0.157343
C69	C	0.500754	0.041545	0.205901
H70	H	0.556280	0.018481	0.183206
H71	H	0.465328	-0.009590	0.194827
C72	C	0.433487	0.091800	0.332437
C73	C	0.501688	0.063476	0.304567
H74	H	0.434061	0.105326	0.393299
H75	H	0.416163	0.140094	0.299722
H76	H	0.403974	0.049182	0.323201
H77	H	0.531198	0.106098	0.313793
H78	H	0.519017	0.015190	0.337286
H79	H	0.910913	0.007856	0.416230
H80	H	0.738584	0.213527	0.416279
O81	O	0.031032	0.105550	0.157316
C82	C	0.078774	0.106370	0.227786
H83	H	0.127791	0.133600	0.204388
H84	H	0.093863	0.039821	0.252332
C85	C	-0.015874	0.126935	0.331951
C86	C	0.044327	0.160387	0.303215
H87	H	-0.037123	0.160252	0.378482
H88	H	-0.048040	0.126380	0.284475
H89	H	-0.003292	0.071478	0.352400
H90	H	0.031743	0.215838	0.282757
H91	H	0.076490	0.160953	0.350690
O92	O	0.618473	0.115899	-0.157557
C93	C	0.570735	0.115032	-0.228025
H94	H	0.515917	0.140431	-0.204625
H95	H	0.570346	0.048208	-0.252572
C96	C	0.660490	0.138844	-0.332193
C97	C	0.593163	0.170047	-0.303454
H98	H	0.674326	0.172777	-0.378723
H99	H	0.692653	0.139426	-0.284718
H100	H	0.660157	0.083158	-0.352643
H101	H	0.593499	0.225728	-0.282994
H102	H	0.561000	0.169476	-0.350928
H103	H	0.480741	0.113440	-0.144951
H104	H	0.710512	0.707767	-0.000118
O105	O	0.174514	0.108192	-0.157553
C106	C	0.148784	0.179862	-0.206123
H107	H	0.123207	0.229820	-0.159406
H108	H	0.108319	0.162846	-0.255914
C109	C	0.241305	0.152292	-0.312406
C110	C	0.209896	0.213654	-0.255025
H111	H	0.279000	0.173136	-0.342575
H112	H	0.258638	0.104005	-0.279686
H113	H	0.207577	0.138118	-0.353891
H114	H	0.243621	0.227820	-0.213535
H115	H	0.192570	0.261945	-0.287740
O116	O	0.030945	0.105661	-0.157525
C117	C	-0.019123	0.176899	-0.162303
H118	H	-0.002731	0.227605	-0.116997
H119	H	-0.072527	0.159654	-0.140862
C120	C	-0.043946	0.147236	-0.313333
C121	C	-0.023811	0.209517	-0.257693
H122	H	-0.046842	0.167356	-0.372173
H123	H	-0.010217	0.099240	-0.310113
H124	H	-0.088448	0.132871	-0.295454
H125	H	0.020694	0.223874	-0.275565
H126	H	-0.057533	0.257517	-0.260917
H127	H	0.168765	0.107941	0.144706
H128	H	0.708189	0.550458	-0.000099
