data_functionalizedCrystal
_audit_creation_method	'MofGen! by Chris Wilmer'
_symmetry_space_group_name_H-M	'P1'
_symmetry_Int_Tables_number	1
_symmetry_cell_setting	triclinic
loop_
_symmetry_equiv_pos_as_xyz
  x,y,z
_cell_length_a	23.532407
_cell_length_b	10.489716
_cell_length_c	22.010155
_cell_angle_alpha	90.008171
_cell_angle_beta	90.000423
_cell_angle_gamma	83.688907
loop_
_atom_site_label
_atom_site_type_symbol
_atom_site_fract_x
_atom_site_fract_y
_atom_site_fract_z
O1	O	0.080270	1.691412	0.050527
O2	O	0.087826	1.319962	0.050530
O3	O	0.001190	1.516888	0.050517
O4	O	0.166906	1.494486	0.050540
O5	O	0.001203	1.516852	-0.050533
O6	O	0.087839	1.319926	-0.050520
O7	O	0.080283	1.691377	-0.050523
Cu8	Cu	0.084062	1.505648	-0.059748
Cu9	Cu	0.084047	1.505690	0.059755
O10	O	0.166919	1.494450	-0.050510
C11	C	0.087265	1.272430	0.000005
C12	C	0.085566	1.130856	0.000006
C13	C	0.138694	1.031416	0.000014
C14	C	0.110627	0.954985	-0.049815
C15	C	0.110601	0.955028	0.049813
C16	C	0.057521	1.056290	-0.049865
C17	C	0.057503	1.056338	0.049808
C18	C	0.029397	0.979958	-0.000034
C19	C	-0.020023	1.516300	-0.000009
C20	C	-0.083252	1.514585	-0.000014
C21	C	-0.481658	1.620364	0.000019
C22	C	-0.541069	1.618771	0.000023
O23	O	-0.577167	1.716829	0.000045
N24	N	-0.564466	1.501698	0.000024
C25	C	-0.528449	1.386211	0.000026
O26	O	-0.553806	1.286485	0.000027
C27	C	-0.469040	1.387806	0.000025
C28	C	-0.445646	1.504886	0.000019
C29	C	-0.458263	1.737435	0.000013
C30	C	-0.398857	1.739028	0.000007
C31	C	-0.362845	1.623549	0.000007
C32	C	-0.386239	1.506479	0.000013
C33	C	-0.433024	1.272320	0.000032
C34	C	-0.373611	1.273925	0.000032
C35	C	-0.350217	1.391005	0.000025
C36	C	-0.290820	1.392593	0.000007
N37	N	-0.267423	1.509666	0.000007
C38	C	-0.303435	1.625144	0.000007
C39	C	-0.653214	1.382871	0.000027
C40	C	-0.712622	1.381275	0.000023
C41	C	-0.725238	1.613835	0.000022
C42	C	-0.665828	1.615430	0.000022
C43	C	-0.629816	1.499944	0.000027
C44	C	-0.178676	1.628480	-0.000006
C45	C	-0.119264	1.630063	-0.000014
C46	C	-0.106654	1.397503	-0.000010
C47	C	-0.166061	1.395920	-0.000004
C48	C	-0.202071	1.511419	-0.000001
O49	O	-0.254687	1.294586	-0.000012
O50	O	-0.278070	1.724854	0.000013
C51	C	0.188132	1.495039	0.000018
C52	C	0.251360	1.496754	0.000026
C53	C	0.080844	1.738908	0.000003
C54	C	0.082543	1.880482	0.000007
N55	N	0.084072	1.505628	-0.143801
C56	C	0.045690	1.592894	-0.563586
C57	C	0.045686	1.592900	-0.627193
O58	O	0.013059	1.667046	-0.660090
N59	N	0.084035	1.505690	-0.659008
C60	C	0.122386	1.418459	-0.627212
O61	O	0.155004	1.344279	-0.660113
C62	C	0.122387	1.418448	-0.563605
C63	C	0.084039	1.505673	-0.531794
C64	C	0.007345	1.680111	-0.531775
C65	C	0.007350	1.680107	-0.468171
C66	C	0.045699	1.592885	-0.436379
C67	C	0.084044	1.505668	-0.468191
C68	C	0.160735	1.331212	-0.531810
C69	C	0.160732	1.331208	-0.468199
C70	C	0.122384	1.418433	-0.436388
C71	C	0.122398	1.418442	-0.372796
N72	N	0.084049	1.505652	-0.340981
C73	C	0.045700	1.592874	-0.372773
C74	C	0.122381	1.418487	-0.760789
C75	C	0.122384	1.418503	-0.824395
C76	C	0.045682	1.592943	-0.824372
C77	C	0.045683	1.592932	-0.760766
C78	C	0.084032	1.505698	-0.728975
C79	C	0.045713	1.592858	-0.239202
C80	C	0.045723	1.592849	-0.175593
C81	C	0.122422	1.418405	-0.175621
C82	C	0.122414	1.418418	-0.239224
C83	C	0.084055	1.505649	-0.271013
O84	O	0.155007	1.344330	-0.339859
O85	O	0.013082	1.667030	-0.339864
N86	N	0.084032	1.505721	0.143808
H87	H	0.133034	0.910813	0.091933
H88	H	-0.646785	1.710767	0.000017
H89	H	-0.185109	1.300584	-0.000016
H90	H	0.191960	1.260167	-0.442318
H91	H	-0.452061	1.176981	0.000041
Br92	Br	-0.087519	1.788968	-0.000024
H93	H	0.035088	1.100593	0.091930
H94	H	-0.379815	1.834366	0.000004
Br95	Br	0.174466	1.300054	-0.282395
H96	H	-0.344293	1.179879	0.000037
H97	H	0.153647	1.347394	-0.149726
H98	H	-0.077322	1.303484	-0.000012
H99	H	-0.731664	1.285936	0.000018
Br100	Br	0.174438	1.300143	-0.867560
H101	H	0.014477	1.663889	-0.265077
Br102	Br	0.215716	1.069987	-0.000051
Br103	Br	-0.604346	1.226124	0.000029
Br104	Br	-0.006321	1.711238	-0.132423
Br105	Br	-0.006363	1.711316	-0.867532
H106	H	-0.016850	0.957065	-0.000069
Br107	Br	-0.044698	1.798481	-0.425006
H108	H	-0.023886	1.751138	-0.557654
Br109	Br	-0.227538	1.785230	0.000000
H110	H	-0.487579	1.831476	0.000015
Br111	Br	-0.006362	1.711313	-0.717600
Br112	Br	0.174435	1.300094	-0.717651
H113	H	0.191960	1.260185	-0.557702
H114	H	0.133059	0.910743	-0.091935
H115	H	0.035112	1.100337	-0.092033
Br116	Br	-0.774123	1.770557	0.000024
