data_functionalizedCrystal
_audit_creation_method	'MofGen! by Chris Wilmer'
_symmetry_space_group_name_H-M	'P1'
_symmetry_Int_Tables_number	1
_symmetry_cell_setting	triclinic
loop_
_symmetry_equiv_pos_as_xyz
  x,y,z
_cell_length_a	14.044220
_cell_length_b	14.044191
_cell_length_c	7.540329
_cell_angle_alpha	89.999427
_cell_angle_beta	90.002479
_cell_angle_gamma	86.809673
loop_
_atom_site_label
_atom_site_type_symbol
_atom_site_fract_x
_atom_site_fract_y
_atom_site_fract_z
O1	O	-0.230198	1.277170	-0.147388
O2	O	0.103135	1.610504	0.185945
O3	O	0.436468	1.943837	0.519278
O4	O	-0.221886	1.000498	-0.147411
O5	O	0.111448	1.333831	0.185922
O6	O	0.444781	1.667165	0.519255
O7	O	-0.087706	1.134681	-0.147392
O8	O	0.245627	1.468015	0.185941
O9	O	0.578961	1.801348	0.519274
O10	O	-0.364378	1.142987	-0.147407
O11	O	-0.031044	1.476320	0.185926
O12	O	0.302289	1.809654	0.519259
O13	O	-0.087704	1.134672	0.147573
O14	O	0.245630	1.468006	0.480906
O15	O	0.578963	1.801339	0.814239
O16	O	-0.221883	1.000489	0.147554
O17	O	0.111450	1.333822	0.480887
O18	O	0.444784	1.667156	0.814221
O19	O	-0.230196	1.277162	0.147577
O20	O	0.103138	1.610495	0.480910
O21	O	0.436471	1.943828	0.814243
Cu22	Cu	-0.226039	1.138824	0.174498
Cu23	Cu	0.107294	1.472158	0.507831
Cu24	Cu	0.440627	1.805491	0.841165
Cu25	Cu	-0.226042	1.138835	-0.174332
Cu26	Cu	0.107291	1.472168	0.159001
Cu27	Cu	0.440624	1.805502	0.492334
O28	O	-0.364375	1.142978	0.147558
O29	O	-0.031042	1.476311	0.480891
O30	O	0.302291	1.809645	0.814224
C31	C	-0.218248	0.964872	0.000068
C32	C	0.115086	1.298205	0.333402
C33	C	0.448419	1.631538	0.666735
C34	C	-0.207401	0.858728	0.000060
C35	C	0.125933	1.192062	0.333393
C36	C	0.459266	1.525395	0.666726
C37	C	-0.264501	0.613270	0.000074
C38	C	0.068832	0.946603	0.333408
C39	C	0.402166	1.279937	0.666741
C40	C	-0.187585	0.664395	0.000075
C41	C	0.145749	0.997729	0.333409
C42	C	0.479082	1.331062	0.666742
C43	C	-0.198613	0.772532	0.000067
C44	C	0.134720	1.105866	0.333400
C45	C	0.468054	1.439199	0.666733
C46	C	-0.253474	0.505123	0.000083
C47	C	0.079859	0.838457	0.333416
C48	C	0.413192	1.171790	0.666750
C49	C	-0.399998	1.146618	0.000073
C50	C	-0.066665	1.479952	0.333407
C51	C	0.266668	1.813285	0.666740
C52	C	-0.506142	1.157463	0.000068
C53	C	-0.172808	1.490796	0.333401
C54	C	0.160525	1.824130	0.666734
C55	C	-0.700480	1.177289	0.000077
C56	C	-0.367146	1.510623	0.333411
C57	C	-0.033813	1.843956	0.666744
C58	C	-0.751608	1.100375	0.000073
C59	C	-0.418274	1.433708	0.333406
C60	C	-0.084941	1.767041	0.666739
C61	C	-0.859744	1.111406	0.000078
C62	C	-0.526411	1.444740	0.333411
C63	C	-0.193077	1.778073	0.666744
C64	C	-0.592333	1.166259	0.000072
C65	C	-0.259000	1.499592	0.333405
C66	C	0.074333	1.832926	0.666739
C67	C	-0.052083	1.131041	0.000088
C68	C	0.281250	1.464375	0.333421
C69	C	0.614584	1.797708	0.666755
C70	C	0.054060	1.120197	0.000082
C71	C	0.387393	1.453530	0.333415
C72	C	0.720727	1.786863	0.666749
C73	C	-0.233834	1.312788	0.000093
C74	C	0.099500	1.646121	0.333426
C75	C	0.432833	1.979455	0.666760
C76	C	-0.244681	1.418931	0.000090
C77	C	0.088652	1.752264	0.333423
C78	C	0.421986	2.085598	0.666757
N79	N	-0.226037	1.138824	0.419846
N80	N	0.107296	1.472157	0.753180
N81	N	0.440630	1.805491	1.086513
N82	N	-0.226037	1.138842	-0.419681
N83	N	0.107296	1.472176	-0.086348
N84	N	0.440629	1.805509	0.246986
H85	H	-0.113452	0.626952	-0.000045
H86	H	0.219881	0.960285	0.333288
H87	H	0.553214	1.293619	0.666621
N88	N	-0.750064	1.275484	0.000120
N89	N	-0.416731	1.608817	0.333453
N90	N	-0.083397	1.942150	0.666787
H91	H	-0.821404	1.269543	0.000136
H92	H	-0.488071	1.602877	0.333470
H93	H	-0.154737	1.936210	0.666803
H94	H	-0.730924	1.311276	0.109486
H95	H	-0.397590	1.644609	0.442819
H96	H	-0.064257	1.977943	0.776152
N97	N	-0.362694	0.662858	0.000058
N98	N	-0.029361	0.996191	0.333391
N99	N	0.303973	1.329524	0.666725
H100	H	-0.356751	0.734197	0.000048
H101	H	-0.023418	1.067531	0.333381
H102	H	0.309915	1.400864	0.666715
H103	H	-0.398501	0.643726	-0.109297
H104	H	-0.065168	0.977059	0.224036
H105	H	0.268166	1.310392	0.557369
N106	N	-0.702023	1.002173	0.000063
N107	N	-0.368690	1.335506	0.333397
N108	N	-0.035356	1.668840	0.666730
H109	H	-0.630682	1.008107	0.000065
H110	H	-0.297349	1.341440	0.333398
H111	H	0.035984	1.674774	0.666731
H112	H	-0.721153	0.966363	0.109414
H113	H	-0.387819	1.299697	0.442747
H114	H	-0.054486	1.633030	0.776080
