data_functionalizedCrystal
_audit_creation_method	'MofGen! by Chris Wilmer'
_symmetry_space_group_name_H-M	'P1'
_symmetry_Int_Tables_number	1
_symmetry_cell_setting	triclinic
loop_
_symmetry_equiv_pos_as_xyz
  x,y,z
_cell_length_a	19.288840
_cell_length_b	15.995292
_cell_length_c	18.366186
_cell_angle_alpha	89.996953
_cell_angle_beta	89.983729
_cell_angle_gamma	83.297316
loop_
_atom_site_label
_atom_site_type_symbol
_atom_site_fract_x
_atom_site_fract_y
_atom_site_fract_z
O1	O	0.921617	0.104354	-0.060666
O2	O	0.719388	0.118467	-0.060640
O3	O	0.826051	-0.010502	-0.060655
O4	O	0.814953	0.233323	-0.060651
O5	O	0.826033	-0.010508	0.060444
O6	O	0.719370	0.118461	0.060459
O7	O	0.921599	0.104348	0.060433
Zn8	Zn	0.820481	0.111403	0.079673
Zn9	Zn	0.820505	0.111412	-0.079880
O10	O	0.814935	0.233317	0.060448
C11	C	0.693501	0.118013	-0.000087
C12	C	0.616393	0.116661	-0.000078
C13	C	0.580198	0.116014	-0.066091
C14	C	0.507748	0.114734	-0.066100
C15	C	0.471498	0.114083	-0.000092
C16	C	0.507701	0.114735	0.065930
C17	C	0.580149	0.116023	0.065937
C18	C	0.362039	0.062995	0.050469
C19	C	0.289593	0.061701	0.050459
C20	C	0.248044	0.110112	-0.000111
C21	C	0.278952	0.159807	-0.050683
C22	C	0.351400	0.161096	-0.050676
C23	C	0.392940	0.112686	-0.000092
C24	C	0.133290	0.108079	-0.066138
C25	C	0.060839	0.106804	-0.066144
C26	C	0.060794	0.106796	0.065887
C27	C	0.133244	0.108079	0.065892
C28	C	0.169488	0.108717	-0.000123
C29	C	0.825591	-0.041699	-0.000107
C30	C	0.824236	-0.134646	-0.000112
C31	C	0.819258	-0.472366	-0.000105
C32	C	0.896245	-0.449352	0.000155
C33	C	0.897708	-0.352682	-0.000120
C34	C	0.821728	-0.304819	-0.000108
C35	C	0.783249	-0.333767	-0.069255
C36	C	0.782322	-0.430554	-0.069310
C37	C	0.780729	-0.430412	0.068403
C38	C	0.783582	-0.333931	0.069314
C39	C	0.823120	-0.210129	-0.000113
C40	C	0.817864	-0.567056	-0.000106
C41	C	0.947485	0.104802	-0.000121
C42	C	1.024593	0.106155	-0.000136
C43	C	0.815396	0.264514	-0.000102
C44	C	0.816750	0.357462	-0.000101
N45	N	0.820470	0.111397	0.188564
N46	N	0.820522	0.111411	-0.188772
C47	C	0.867716	0.054318	0.226658
C48	C	0.867720	0.054314	0.302886
C49	C	0.820485	0.111404	0.341017
C50	C	0.773230	0.168488	0.302914
C51	C	0.773223	0.168484	0.226688
C52	C	0.811372	0.187698	0.461779
C53	C	0.811384	0.187703	0.538004
C54	C	0.820505	0.111415	0.576125
C55	C	0.829628	0.035119	0.538011
C56	C	0.829620	0.035115	0.461784
C57	C	0.820488	0.111414	0.423672
C58	C	0.867759	0.054326	0.696873
C59	C	0.867758	0.054322	0.773103
C60	C	0.773271	0.168503	0.773129
C61	C	0.773269	0.168500	0.696901
C62	C	0.820516	0.111413	0.658778
H63	H	0.245124	0.199232	-0.091859
Cl64	Cl	0.178749	0.108887	0.148885
Cl65	Cl	0.941820	-0.494323	-0.075986
H66	H	0.837047	-0.027007	0.430755
Cl67	Cl	0.817903	-0.474250	0.149321
Cl68	Cl	0.625654	0.116835	0.148932
Cl69	Cl	0.944220	-0.323487	0.076416
Cl70	Cl	0.799921	0.283616	0.585911
Cl71	Cl	0.693239	-0.451675	0.069138
Cl72	Cl	0.697956	-0.282701	0.075776
H73	H	0.162801	0.108607	-0.119891
Cl74	Cl	0.826834	-0.305432	0.148295
H75	H	0.376561	0.201561	-0.091852
Cl76	Cl	0.250743	-0.000751	0.114049
Cl77	Cl	0.927108	-0.017451	0.178732
H78	H	0.803933	0.249825	0.430748
Cl79	Cl	0.414264	0.002129	0.114049
Cl80	Cl	0.713885	0.240267	0.821060
Cl81	Cl	0.713846	0.240255	0.350848
Cl82	Cl	0.823495	-0.472117	-0.149122
Cl83	Cl	0.713874	0.240265	0.649007
H84	H	0.734748	0.214966	0.195671
H85	H	0.928038	-0.334393	-0.049781
H86	H	0.478181	0.114207	0.119674
H87	H	0.609703	0.116533	-0.119845
Cl88	Cl	0.942053	-0.492758	0.076716
Cl89	Cl	0.927122	-0.017449	0.350784
H90	H	0.837055	-0.027003	0.569047
Cl91	Cl	0.015334	0.105998	-0.149141
H92	H	0.906228	0.007840	0.665832
Cl93	Cl	0.695176	-0.452685	-0.074148
Cl94	Cl	0.696928	-0.284228	-0.073218
H95	H	0.906230	0.007836	0.804119
H96	H	0.031279	0.106271	0.119632
Cl97	Cl	0.462236	0.113921	-0.149094
Cl98	Cl	0.824528	-0.302959	-0.148718
