data_functionalizedCrystal
_audit_creation_method	'MofGen! by Chris Wilmer'
_symmetry_space_group_name_H-M	'P1'
_symmetry_Int_Tables_number	1
_symmetry_cell_setting	triclinic
loop_
_symmetry_equiv_pos_as_xyz
  x,y,z
_cell_length_a	15.538191
_cell_length_b	11.792241
_cell_length_c	14.185569
_cell_angle_alpha	76.753184
_cell_angle_beta	97.875798
_cell_angle_gamma	65.732755
loop_
_atom_site_label
_atom_site_type_symbol
_atom_site_fract_x
_atom_site_fract_y
_atom_site_fract_z
O1	O	1.226838	-0.333383	-0.083428
O2	O	0.953247	-0.202607	-0.083428
O3	O	1.096684	-0.435953	-0.083421
O4	O	1.083402	-0.100037	-0.083435
O5	O	1.139056	-0.504880	0.083416
O6	O	0.995620	-0.271534	0.083409
O7	O	1.269211	-0.402310	0.083409
Cu8	Cu	1.136284	-0.343215	0.098642
Cu9	Cu	1.086174	-0.261702	-0.098662
O10	O	1.125774	-0.168964	0.083402
C11	C	0.939408	-0.223388	-0.000010
C12	C	0.835042	-0.182633	-0.000009
C13	C	0.545184	-0.587531	-0.000008
C14	C	0.447114	-0.549205	-0.000010
C15	C	0.425769	-0.333634	-0.000019
C16	C	0.523842	-0.371943	-0.000012
C17	C	0.583541	-0.498893	-0.000008
C18	C	0.562199	-0.283305	-0.000011
C19	C	0.660261	-0.321610	-0.000010
C20	C	0.719966	-0.448553	-0.000008
C21	C	0.681604	-0.537198	-0.000006
C22	C	0.502495	-0.156353	-0.000023
C23	C	0.540852	-0.067715	-0.000023
C24	C	0.638918	-0.106023	-0.000013
C25	C	0.698623	-0.232966	-0.000012
C26	C	0.677280	-0.017378	-0.000016
C27	C	0.775343	-0.055683	-0.000014
C28	C	0.796685	-0.271271	-0.000010
C29	C	1.117036	-0.512357	-0.000003
C30	C	1.114539	-0.637324	-0.000004
C31	C	1.109944	-0.866104	-0.000021
C32	C	1.112497	-0.738792	-0.000012
C33	C	1.283050	-0.381528	-0.000012
C34	C	1.387413	-0.422281	-0.000019
C35	C	1.105422	-0.092559	-0.000019
C36	C	1.107917	0.032410	-0.000024
N37	N	1.171536	-0.400551	0.237415
N38	N	1.050930	-0.204378	-0.237434
C39	C	0.947360	-0.035974	0.605054
C40	C	0.974069	-0.079400	0.710077
C41	C	1.101108	-0.285981	0.710044
C42	C	1.074406	-0.242574	0.605019
C43	C	0.997532	-0.117569	0.552532
C44	C	1.124579	-0.324170	0.552497
C45	C	1.097882	-0.280763	0.447481
C46	C	1.021013	-0.155762	0.394987
C47	C	0.970836	-0.074163	0.447516
C48	C	1.201457	-0.449171	0.604986
C49	C	1.251630	-0.530766	0.552464
C50	C	1.224929	-0.487364	0.447447
C51	C	1.148060	-0.362362	0.394952
C52	C	1.275107	-0.568963	0.394918
C53	C	1.248410	-0.525557	0.289902
C54	C	1.121363	-0.318956	0.289937
H55	H	1.058758	-0.217170	0.247200
H56	H	0.377148	-0.230269	-0.000027
H57	H	0.845299	-0.374648	-0.000000
C58	C	0.650666	0.142754	0.085731
C59	C	0.611653	0.122167	-0.000030
H60	H	0.610153	0.228908	0.085715
H61	H	0.653740	0.080719	0.143900
H62	H	0.714560	0.132618	0.085728
H63	H	0.547761	0.132294	-0.000023
H64	H	0.608568	0.184220	-0.058215
C65	C	0.478065	-0.766160	-0.000005
C66	C	0.404952	-0.646649	-0.000009
H67	H	0.452035	-0.826314	-0.000002
H68	H	0.501093	-0.752577	-0.058180
H69	H	0.530646	-0.800650	0.058180
H70	H	0.352374	-0.612153	-0.058198
H71	H	0.381910	-0.660230	0.058171
H72	H	0.933206	-0.012943	0.752835
H73	H	1.337705	-0.670739	0.437666
H74	H	0.908230	0.027624	0.404780
H75	H	0.884754	0.065813	0.562317
C76	C	1.071438	-0.107143	0.244524
C77	C	0.991664	-0.108044	0.279551
H78	H	1.053318	-0.077691	0.173259
H79	H	1.090698	-0.049863	0.268276
H80	H	1.124394	-0.193272	0.268271
H81	H	0.938710	-0.021912	0.255810
H82	H	0.972390	-0.165325	0.255789
H83	H	1.289267	-0.592000	0.247138
H84	H	1.223194	-0.484505	0.690497
C85	C	1.314028	-0.762895	0.584783
C86	C	1.336120	-0.668175	0.610166
H87	H	1.366189	-0.847727	0.620402
H88	H	1.255615	-0.756494	0.602011
H89	H	1.305314	-0.748710	0.514721
H90	H	1.344827	-0.682354	0.680227
H91	H	1.394550	-0.674580	0.592945
H92	H	1.163702	-0.387760	0.752791
C93	C	0.872055	-0.620809	-0.000006
C94	C	0.827759	-0.490667	-0.000007
H95	H	0.938600	-0.646803	-0.000012
H96	H	0.868587	-0.675977	0.058171
H97	H	0.839028	-0.627901	-0.058189
H98	H	0.860783	-0.483578	0.058179
H99	H	0.831234	-0.435484	-0.058191
C100	C	0.692863	-0.746465	-0.000004
C101	C	0.747235	-0.676744	-0.000004
H102	H	0.733380	-0.832606	-0.000012
H103	H	0.668953	-0.751087	0.058175
H104	H	0.639389	-0.702995	-0.058185
H105	H	0.800705	-0.720210	0.058182
H106	H	0.771160	-0.672129	-0.058188
C107	C	0.350399	0.015905	-0.000039
C108	C	0.394702	-0.114242	-0.000025
H109	H	0.283852	0.041901	-0.000046
H110	H	0.383415	0.023010	0.058133
H111	H	0.353872	0.071071	-0.058227
H112	H	0.391236	-0.169409	0.058167
H113	H	0.361677	-0.121357	-0.058203
C114	C	0.470682	0.163272	-0.085792
C115	C	0.475223	0.071824	-0.000028
H116	H	0.430161	0.249416	-0.085795
H117	H	0.534568	0.153143	-0.085780
H118	H	0.444221	0.149285	-0.143966
H119	H	0.501691	0.085805	0.058146
H120	H	0.411324	0.081958	-0.000031
C121	C	0.765573	0.151709	-0.085770
C122	C	0.817515	0.041742	-0.000008
H123	H	0.791607	0.211858	-0.085763
H124	H	0.771257	0.125176	-0.143938
H125	H	0.698629	0.192684	-0.085760
H126	H	0.884458	0.000761	-0.000022
H127	H	0.811840	0.068276	0.058176
H128	H	0.593797	-0.690909	0.000001
