data_functionalizedCrystal
_audit_creation_method	'MofGen! by Chris Wilmer'
_symmetry_space_group_name_H-M	'P1'
_symmetry_Int_Tables_number	1
_symmetry_cell_setting	triclinic
loop_
_symmetry_equiv_pos_as_xyz
  x,y,z
_cell_length_a	19.188930
_cell_length_b	17.038272
_cell_length_c	18.266242
_cell_angle_alpha	89.994947
_cell_angle_beta	90.022820
_cell_angle_gamma	92.871832
loop_
_atom_site_label
_atom_site_type_symbol
_atom_site_fract_x
_atom_site_fract_y
_atom_site_fract_z
O1	O	0.932212	-0.097591	0.061119
O2	O	1.432212	0.402409	0.561119
O3	O	0.729717	-0.110728	0.061069
O4	O	1.229717	0.389272	0.561069
O5	O	0.829761	0.009652	0.061088
O6	O	1.329761	0.509652	0.561088
O7	O	0.832168	-0.217971	0.061100
O8	O	1.332168	0.282029	0.561100
O9	O	0.829743	0.009655	-0.060674
O10	O	1.329743	0.509655	0.439326
O11	O	0.729699	-0.110725	-0.060693
O12	O	1.229699	0.389275	0.439307
O13	O	0.932194	-0.097588	-0.060643
O14	O	1.432194	0.402412	0.439357
Zn15	Zn	0.830943	-0.104156	-0.080001
Zn16	Zn	1.330943	0.395844	0.419999
Zn17	Zn	0.830968	-0.104160	0.080426
Zn18	Zn	1.330968	0.395840	0.580426
O19	O	0.832150	-0.217968	-0.060662
O20	O	1.332150	0.282032	0.439338
C21	C	0.703670	-0.110301	0.000181
C22	C	1.203670	0.389699	0.500181
C23	C	0.626087	-0.109024	0.000162
C24	C	1.126087	0.390976	0.500162
C25	C	0.827563	0.038775	0.000206
C26	C	1.327563	0.538775	0.500206
C27	C	0.821031	0.125548	0.000205
C28	C	1.321031	0.625548	0.500205
N29	N	0.830932	-0.104152	-0.189488
N30	N	1.330932	0.395848	0.310512
C31	C	0.585551	-0.179659	0.000177
C32	C	1.085551	0.320341	0.500177
C33	C	0.512653	-0.178460	0.000185
C34	C	1.012653	0.321540	0.500185
C35	C	0.480293	-0.106620	0.000193
C36	C	0.980293	0.393380	0.500193
C37	C	0.520838	-0.035976	0.000173
C38	C	1.020838	0.464024	0.500173
C39	C	0.593735	-0.037178	0.000158
C40	C	1.093735	0.462822	0.500158
N41	N	0.368908	-0.051710	0.041660
N42	N	0.868908	0.448290	0.541660
N43	N	0.299658	-0.050573	0.041676
N44	N	0.799658	0.449427	0.541676
C45	C	0.260659	-0.102995	0.000237
C46	C	0.760659	0.397005	0.500237
N47	N	0.293524	-0.156609	-0.041209
N48	N	0.793524	0.343391	0.458791
N49	N	0.362780	-0.157748	-0.041222
N50	N	0.862780	0.342252	0.458778
C51	C	0.401249	-0.105309	0.000209
C52	C	0.901249	0.394691	0.500209
C53	C	0.141078	-0.172334	0.000260
C54	C	0.641078	0.327666	0.500260
C55	C	0.068179	-0.171132	0.000264
C56	C	0.568179	0.328868	0.500264
C57	C	0.076366	-0.028646	0.000259
C58	C	0.576366	0.471354	0.500259
C59	C	0.149264	-0.029851	0.000248
C60	C	0.649264	0.470149	0.500248
C61	C	0.181616	-0.101697	0.000252
C62	C	0.681616	0.398303	0.500252
C63	C	0.958240	-0.098015	0.000246
C64	C	1.458240	0.401985	0.500246
C65	C	1.035824	-0.099292	0.000270
C66	C	1.535824	0.400708	0.500270
C67	C	0.834348	-0.247091	0.000221
C68	C	1.334348	0.252909	0.500221
C69	C	0.840880	-0.333863	0.000227
C70	C	1.340880	0.166137	0.500227
C71	C	0.880998	0.175849	0.000219
C72	C	1.380998	0.675849	0.500219
C73	C	0.874857	0.257381	0.000224
C74	C	1.374857	0.757381	0.500224
C75	C	0.808748	0.288609	0.000210
C76	C	1.308748	0.788609	0.500210
C77	C	0.748777	0.238301	0.000199
C78	C	1.248777	0.738301	0.500199
C79	C	0.754919	0.156771	0.000198
C80	C	1.254919	0.656771	0.500198
C81	C	0.787050	0.534299	0.000215
C82	C	1.287050	1.034299	0.500215
C83	C	0.780913	0.615835	0.000213
C84	C	1.280913	1.115835	0.500213
C85	C	0.906993	0.634909	0.000240
C86	C	1.406993	1.134909	0.500240
C87	C	0.913129	0.553377	0.000235
C88	C	1.413129	1.053377	0.500235
C89	C	0.853158	0.503076	0.000228
C90	C	1.353158	1.003076	0.500228
C91	C	0.802470	0.371947	0.000214
C92	C	1.302470	0.871947	0.500214
C93	C	0.859437	0.419740	0.000229
C94	C	1.359437	0.919740	0.500229
C95	C	0.876079	-0.151449	-0.227777
C96	C	1.376079	0.348551	0.272223
C97	C	0.876091	-0.151447	-0.304422
C98	C	1.376091	0.348553	0.195578
C99	C	0.830942	-0.104157	-0.342774
C100	C	1.330942	0.395843	0.157226
C101	C	0.785791	-0.056850	-0.304476
C102	C	1.285791	0.443150	0.195524
C103	C	0.785786	-0.056848	-0.227833
C104	C	1.285786	0.443152	0.272167
N105	N	0.769675	-0.102231	-0.463142
N106	N	1.269675	0.397769	0.036858
N107	N	0.769682	-0.102238	-0.535950
N108	N	1.269682	0.397762	-0.035950
C109	C	0.830956	-0.104160	-0.573697
C110	C	1.330956	0.395840	-0.073697
N111	N	0.892225	-0.106090	-0.535885
N112	N	1.392225	0.393910	-0.035885
N113	N	0.892217	-0.106088	-0.463070
N114	N	1.392217	0.393912	0.036930
C115	C	0.830943	-0.104154	-0.425881
C116	C	1.330943	0.395846	0.074119
C117	C	0.876120	-0.151457	-0.695093
C118	C	1.376120	0.348543	-0.195093
C119	C	0.876132	-0.151449	-0.771739
C120	C	1.376132	0.348551	-0.271739
C121	C	0.785827	-0.056857	-0.771793
C122	C	1.285827	0.443143	-0.271793
C123	C	0.785821	-0.056860	-0.695148
C124	C	1.285821	0.443140	-0.195148
C125	C	0.830966	-0.104164	-0.656803
C126	C	1.330966	0.395836	-0.156803
N127	N	0.830984	-0.104157	0.189913
N128	N	1.330984	0.395843	0.689913
H129	H	0.611887	-0.238162	0.000182
H130	H	1.111887	0.261838	0.500182
F131	F	0.737743	-0.006518	-0.345295
F132	F	1.237743	0.493482	0.154705
F133	F	0.924178	-0.201788	-0.654281
F134	F	1.424178	0.298212	-0.154281
F135	F	0.924191	-0.201788	-0.812489
F136	F	1.424191	0.298212	-0.312489
F137	F	0.737729	-0.006509	-0.187081
F138	F	1.237729	0.493491	0.312919
H139	H	0.050019	0.029847	0.000310
H140	H	0.550019	0.529847	0.500310
H141	H	0.749054	-0.018349	-0.663972
H142	H	1.249054	0.481651	-0.163972
H143	H	0.912843	-0.189965	-0.196561
H144	H	1.412843	0.310035	0.303439
H145	H	0.749067	-0.018351	-0.803019
H146	H	1.249067	0.481649	-0.303019
H147	H	0.479642	-0.235981	0.000196
H148	H	0.979642	0.264019	0.500196
F149	F	0.025038	-0.246316	0.000276
F150	F	0.525038	0.253684	0.500276
H151	H	0.912856	-0.189964	-0.335603
H152	H	1.412856	0.310036	0.164397
H153	H	0.934830	0.150430	0.000226
H154	H	1.434830	0.650430	0.500226
H155	H	0.923688	0.298333	0.000234
H156	H	1.423688	0.798333	0.500234
H157	H	0.182269	0.027668	0.000240
H158	H	0.682269	0.527668	0.500240
H159	H	0.913263	0.394310	0.000257
H160	H	1.413263	0.894310	0.500257
H161	H	0.494486	0.022516	0.000189
H162	H	0.994486	0.522516	0.500189
H163	H	0.748644	0.397382	0.000201
H164	H	1.248644	0.897382	0.500201
H165	H	0.626739	0.020344	0.000146
H166	H	1.126739	0.520344	0.500146
F167	F	0.710548	0.649068	0.000195
F168	F	1.210548	1.149068	0.500195
F169	F	0.175512	-0.248798	0.000259
F170	F	0.675512	0.251202	0.500259
H171	H	0.966961	0.527958	0.000247
H172	H	1.466961	1.027958	0.500247
H173	H	0.738217	0.493353	0.000208
H174	H	1.238217	0.993353	0.500208
F175	F	0.970814	0.688448	0.000250
F176	F	1.470814	1.188448	0.500250
H177	H	0.694950	0.263733	0.000192
H178	H	1.194950	0.763733	0.500192
F179	F	0.691094	0.103236	0.000186
F180	F	1.191094	0.603236	0.500186
