data_functionalizedCrystal
_audit_creation_method	'MofGen! by Chris Wilmer'
_symmetry_space_group_name_H-M	'P1'
_symmetry_Int_Tables_number	1
_symmetry_cell_setting	triclinic
loop_
_symmetry_equiv_pos_as_xyz
  x,y,z
_cell_length_a	12.759401
_cell_length_b	16.120484
_cell_length_c	16.120256
_cell_angle_alpha	95.616173
_cell_angle_beta	92.880020
_cell_angle_gamma	92.926992
loop_
_atom_site_label
_atom_site_type_symbol
_atom_site_fract_x
_atom_site_fract_y
_atom_site_fract_z
Zn1	Zn	1.552086	-0.356728	-0.489418
Zn2	Zn	1.551954	-0.489414	-0.356728
Zn3	Zn	1.385776	-0.349664	-0.349667
Zn4	Zn	1.366964	-0.496464	-0.496456
O5	O	1.464195	-0.423067	-0.423067
O6	O	1.699088	-0.374336	-0.471826
O7	O	1.537727	-0.464969	-0.238828
O8	O	1.415765	-0.233635	-0.362306
O9	O	1.698991	-0.471819	-0.374339
O10	O	1.537952	-0.238826	-0.464980
O11	O	1.415637	-0.362295	-0.233641
O12	O	1.236260	-0.369131	-0.369130
O13	O	1.383704	-0.483834	-0.612485
O14	O	1.222440	-0.476984	-0.476974
O15	O	1.519712	-0.381171	-0.607314
O16	O	1.519487	-0.607315	-0.381163
O17	O	1.383576	-0.612494	-0.483820
C18	C	1.191229	-0.423056	-0.423050
C19	C	1.074451	-0.423073	-0.423064
C20	C	1.012420	-0.479309	-0.479138
C21	C	0.902695	-0.479313	-0.479155
C22	C	0.917041	-0.366842	-0.367015
C23	C	1.026764	-0.366835	-0.367003
C24	C	0.744154	-0.514318	-0.579212
C25	C	0.682119	-0.570566	-0.635280
C26	C	0.711369	-0.652783	-0.652096
C27	C	0.802651	-0.678767	-0.612832
C28	C	0.864680	-0.622522	-0.556758
C29	C	0.835432	-0.540295	-0.539957
C30	C	1.185306	-0.331838	-0.266945
C31	C	1.247337	-0.275597	-0.210867
C32	C	1.218091	-0.193379	-0.194042
C33	C	1.126806	-0.167397	-0.233292
C34	C	1.064775	-0.223639	-0.289370
C35	C	1.094029	-0.305856	-0.306196
C36	C	1.449503	-0.640233	-0.434040
C37	C	1.443312	-0.733139	-0.438762
C38	C	1.432013	-0.903239	-0.447400
C39	C	1.496563	-0.942055	-0.398748
C40	C	1.490277	-1.036705	-0.403554
C41	C	1.438298	-0.808581	-0.442595
C42	C	1.738226	-0.423079	-0.423085
C43	C	1.855002	-0.423084	-0.423092
C44	C	1.449624	-0.434077	-0.641075
C45	C	1.443415	-0.438769	-0.733976
C46	C	1.478972	-0.205055	-0.412070
C47	C	1.485269	-0.112151	-0.407384
C48	C	1.496575	-0.398579	-0.942901
C49	C	1.432046	-0.447300	-0.904062
C50	C	1.438373	-0.442552	-0.809417
C51	C	1.490248	-0.403326	-1.037554
C52	C	1.478773	-0.412040	-0.205905
C53	C	1.485202	-0.407113	-0.112992
H54	H	1.051243	-0.525100	-0.524788
H55	H	1.372033	-0.941090	-0.492658
H56	H	1.372043	-0.492573	-0.941890
O57	O	0.963130	-0.650535	-0.514410
H58	H	1.032122	-0.611987	-0.530922
H59	H	1.556547	-0.904202	-0.353485
H60	H	0.878201	-0.321056	-0.321371
O61	O	1.576060	-0.338617	-0.892804
H62	H	1.568626	-0.344264	-0.825253
H63	H	0.660853	-0.698581	-0.697748
O64	O	0.834194	-0.767450	-0.630956
H65	H	0.846683	-0.780159	-0.698556
O66	O	0.583674	-0.542545	-0.677638
H67	H	0.573766	-0.475917	-0.656541
O68	O	0.712589	-0.425645	-0.561052
H69	H	0.638680	-0.417039	-0.597754
H70	H	0.990451	-0.202475	-0.321335
H71	H	1.102982	-0.100453	-0.219580
H72	H	1.321666	-0.296759	-0.178908
O73	O	1.284994	-0.132713	-0.133557
H74	H	1.353385	-0.164588	-0.109088
H75	H	1.209134	-0.398786	-0.280647
