data_functionalizedCrystal
_audit_creation_method	'MofGen! by Chris Wilmer'
_symmetry_space_group_name_H-M	'P1'
_symmetry_Int_Tables_number	1
_symmetry_cell_setting	triclinic
loop_
_symmetry_equiv_pos_as_xyz
  x,y,z
_cell_length_a	10.968094
_cell_length_b	27.732046
_cell_length_c	9.483334
_cell_angle_alpha	80.731401
_cell_angle_beta	68.716489
_cell_angle_gamma	96.299892
loop_
_atom_site_label
_atom_site_type_symbol
_atom_site_fract_x
_atom_site_fract_y
_atom_site_fract_z
O1	O	1.703893	-0.048792	-0.305898
O2	O	1.325108	-0.061173	-0.211010
O3	O	1.526271	0.015529	-0.261435
O4	O	1.502730	-0.125494	-0.255473
O5	O	1.567100	0.031169	-0.513445
O6	O	1.365937	-0.045533	-0.463020
O7	O	1.744722	-0.033153	-0.557908
Cu8	Cu	1.559057	-0.037915	-0.533474
Cu9	Cu	1.510773	-0.056410	-0.235444
O10	O	1.543558	-0.109855	-0.507483
C11	C	1.297077	-0.053634	-0.324880
C12	C	1.152727	-0.054466	-0.288721
C13	C	0.960319	-0.047591	-0.365767
C14	C	1.109514	-0.046734	-0.403154
C15	C	1.546193	0.041352	-0.387322
C16	C	1.544709	0.094993	-0.386966
C17	C	1.654214	0.434856	-0.414347
C18	C	1.648698	0.636463	-0.412959
O19	O	1.748826	0.668675	-0.437980
N20	N	1.529422	0.654442	-0.383083
C21	C	1.411514	0.622016	-0.353541
O22	O	1.309932	0.641933	-0.328082
C23	C	1.417029	0.420410	-0.354918
C24	C	1.536316	0.402434	-0.384812
C25	C	1.773491	0.416880	-0.444237
C26	C	1.774870	0.366482	-0.444592
C27	C	1.656972	0.334060	-0.415057
C28	C	1.537695	0.352036	-0.385167
C29	C	1.299121	0.387984	-0.325366
C30	C	1.300509	0.337579	-0.325709
C31	C	1.419796	0.319604	-0.355603
C32	C	1.421176	0.269216	-0.355987
N33	N	1.540453	0.251237	-0.385863
C34	C	1.658351	0.283659	-0.415398
C35	C	1.408627	0.727863	-0.352823
C36	C	1.407248	0.778264	-0.352482
C37	C	1.644433	0.792708	-0.411897
C38	C	1.645812	0.742306	-0.412249
C39	C	1.527904	0.709883	-0.382700
C40	C	1.661238	0.177818	-0.416143
C41	C	1.662608	0.127416	-0.416501
C42	C	1.425422	0.112976	-0.357078
C43	C	1.424053	0.163375	-0.356727
C44	C	1.541971	0.195795	-0.386257
O45	O	1.321100	0.236974	-0.330962
O46	O	1.759912	0.263729	-0.440820
C47	C	1.652835	0.485255	-0.413992
C48	C	1.533558	0.503231	-0.384102
C49	C	1.415660	0.470809	-0.354568
C50	C	1.532179	0.553632	-0.383761
C51	C	1.650077	0.586054	-0.413296
C52	C	1.769354	0.568075	-0.443172
C53	C	1.770733	0.517677	-0.443527
C54	C	1.296383	0.488788	-0.324691
C55	C	1.295014	0.539187	-0.324340
C56	C	1.412912	0.571609	-0.353875
C57	C	1.772752	-0.040691	-0.444035
C58	C	1.917101	-0.039860	-0.480184
N59	N	1.593028	-0.024905	-0.743096
C60	C	1.523643	0.864324	-0.381612
C61	C	1.525146	0.810686	-0.382016
C62	C	1.520777	-0.052573	-0.797214
C63	C	1.549074	-0.041744	-0.971713
N64	N	1.476813	-0.069416	-0.025825
H65	H	1.759750	0.112784	-0.440849
C66	C	1.053506	-0.064268	-0.118979
N67	N	0.978772	-0.071652	0.008869
C68	C	1.163780	0.558953	-0.291454
N69	N	1.064934	0.573838	-0.266670
C70	C	1.903203	0.452539	-0.476747
N71	N	2.000914	0.479395	-0.501252
C72	C	1.166677	0.453129	-0.292196
N73	N	1.068976	0.426273	-0.267724
H74	H	1.437975	-0.084280	-0.714365
C75	C	0.861094	-0.057390	-0.196035
N76	N	0.786358	-0.064772	-0.068189
H77	H	1.757257	0.204209	-0.440183
H78	H	1.872005	0.351851	-0.468928
H79	H	1.675838	0.006798	-0.825949
C80	C	1.208734	-0.036940	-0.572894
N81	N	1.283467	-0.029568	-0.700739
H82	H	0.990555	-0.032603	-0.605819
C83	C	1.777033	0.722537	-0.445121
N84	N	1.875874	0.707650	-0.469876
H85	H	1.740430	0.819114	-0.435946
C86	C	1.278909	0.692203	-0.320315
N87	N	1.181205	0.665347	-0.295834
C88	C	1.276026	0.798032	-0.319615
N89	N	1.177184	0.812918	-0.294849
H90	H	1.631890	-0.010039	-1.054562
C91	C	1.364937	-0.112251	-0.913907
N92	N	1.280672	-0.144513	-0.829609
C93	C	1.170798	0.301917	-0.293207
N94	N	1.073100	0.275058	-0.268732
H95	H	1.201983	0.402609	-0.301014
H96	H	1.326927	0.178014	-0.332427
H97	H	1.329434	0.086569	-0.333037
H98	H	1.867869	0.503046	-0.467869
H99	H	1.865352	0.594482	-0.467227
