data_functionalizedCrystal
_audit_creation_method	'MofGen! by Chris Wilmer'
_symmetry_space_group_name_H-M	'P1'
_symmetry_Int_Tables_number	1
_symmetry_cell_setting	triclinic
loop_
_symmetry_equiv_pos_as_xyz
  x,y,z
_cell_length_a	13.032831
_cell_length_b	12.759394
_cell_length_c	13.034356
_cell_angle_alpha	82.791310
_cell_angle_beta	74.815040
_cell_angle_gamma	82.818938
loop_
_atom_site_label
_atom_site_type_symbol
_atom_site_fract_x
_atom_site_fract_y
_atom_site_fract_z
Zn1	Zn	1.700231	-0.532622	-0.806476
Zn2	Zn	1.677560	-0.728121	-0.628859
Zn3	Zn	1.500036	-0.532631	-0.606359
Zn4	Zn	1.522587	-0.688428	-0.783909
O5	O	1.600103	-0.620451	-0.706401
O6	O	1.845863	-0.575164	-0.801776
O7	O	1.635085	-0.718804	-0.477235
O8	O	1.526642	-0.385612	-0.632933
O9	O	1.829206	-0.718796	-0.671281
O10	O	1.673725	-0.385605	-0.779958
O11	O	1.504659	-0.575179	-0.460705
O12	O	1.354388	-0.536690	-0.611051
O13	O	1.565077	-0.651144	-0.935542
O14	O	1.370956	-0.651153	-0.741496
O15	O	1.695592	-0.536675	-0.952122
O16	O	1.656952	-0.869874	-0.649399
O17	O	1.543094	-0.840712	-0.763314
C18	C	1.324132	-0.589616	-0.671384
C19	C	1.206073	-0.576447	-0.656428
C20	C	1.161652	-0.627324	-0.714206
C21	C	1.039632	-0.613714	-0.698751
C22	C	1.600042	-0.893414	-0.706376
C23	C	1.600118	-1.010195	-0.706413
C24	C	1.753186	-1.010007	-0.859600
C25	C	1.829755	-1.064777	-0.936205
C26	C	1.829821	-1.174503	-0.936236
C27	C	1.753308	-1.229461	-0.859655
C28	C	1.676739	-1.174692	-0.783050
C29	C	1.676683	-1.064964	-0.783025
C30	C	1.523668	-1.174878	-0.629870
C31	C	1.523605	-1.065153	-0.629832
C32	C	1.447155	-1.229837	-0.553289
C33	C	1.370589	-1.175068	-0.476677
C34	C	1.370527	-1.065336	-0.476648
C35	C	1.447036	-1.010384	-0.553227
C36	C	1.877153	-0.651406	-0.741555
C37	C	1.995215	-0.664598	-0.756536
C38	C	1.635379	-0.589481	-0.983450
C39	C	1.650411	-0.576283	-1.101512
C40	C	1.600197	-0.346423	-0.706453
C41	C	1.600237	-0.229648	-0.706475
C42	C	1.608071	-0.613403	-1.267967
C43	C	1.592532	-0.627043	-1.145944
C44	C	1.565026	-0.651231	-0.430438
C45	C	1.550199	-0.664155	-0.312403
H46	H	1.753149	-0.920665	-0.859573
Br47	Br	1.118908	-0.487043	-0.554916
H48	H	1.446997	-0.921040	-0.553207
H49	H	0.987332	-0.560074	-0.637843
Br50	Br	1.752185	-0.487032	-1.188657
Br51	Br	1.082377	-0.753974	-0.858084
H52	H	1.892049	-1.020020	-0.998559
H53	H	1.669126	-0.559858	-1.320262
Br54	Br	1.933730	-1.248837	-1.040205
Br55	Br	1.248818	-0.716722	-0.815725
H56	H	1.753361	-1.318804	-0.859695
Br57	Br	1.448449	-0.753422	-1.225253
Br58	Br	1.447382	-1.378787	-0.553190
H59	H	1.308294	-1.219823	-0.414335
H60	H	1.308172	-1.020747	-0.414270
Br61	Br	1.490777	-0.716313	-1.058798
