data_functionalizedCrystal
_audit_creation_method	'MofGen! by Chris Wilmer'
_symmetry_space_group_name_H-M	'P1'
_symmetry_Int_Tables_number	1
_symmetry_cell_setting	triclinic
loop_
_symmetry_equiv_pos_as_xyz
  x,y,z
_cell_length_a	15.298114
_cell_length_b	15.298852
_cell_length_c	17.077396
_cell_angle_alpha	80.301268
_cell_angle_beta	99.672475
_cell_angle_gamma	72.671317
loop_
_atom_site_label
_atom_site_type_symbol
_atom_site_fract_x
_atom_site_fract_y
_atom_site_fract_z
Zn1	Zn	1.485699	-0.615969	-0.127013
Zn2	Zn	1.985699	-0.115969	0.372987
Zn3	Zn	1.512526	-0.771471	0.031694
Zn4	Zn	2.012526	-0.271471	0.531694
Zn5	Zn	1.330205	-0.589121	-0.023261
Zn6	Zn	1.830205	-0.089121	0.476739
Zn7	Zn	1.357090	-0.744548	-0.127032
Zn8	Zn	1.857090	-0.244548	0.372968
O9	O	1.421380	-0.680277	-0.061403
O10	O	1.921380	-0.180277	0.438597
O11	O	1.619382	-0.659101	-0.082953
O12	O	2.119382	-0.159101	0.417047
O13	O	1.488317	-0.747314	0.134252
O14	O	1.988317	-0.247314	0.634252
O15	O	1.328353	-0.462558	-0.060015
O16	O	1.828353	0.037442	0.439985
O17	O	1.639093	-0.773348	0.033648
O18	O	2.139093	-0.273348	0.533648
O19	O	1.442593	-0.482283	-0.136241
O20	O	1.942593	0.017717	0.363759
O21	O	1.354367	-0.613342	0.093877
O22	O	1.854367	-0.113342	0.593877
O23	O	1.203646	-0.587235	-0.060034
O24	O	1.703646	-0.087235	0.439966
O25	O	1.374174	-0.727460	-0.236878
O26	O	1.874174	-0.227460	0.263122
O27	O	1.223398	-0.701426	-0.136274
O28	O	1.723398	-0.201426	0.363726
O29	O	1.468662	-0.632994	-0.236864
O30	O	1.968662	-0.132994	0.263136
O31	O	1.514386	-0.898025	0.033630
O32	O	2.014386	-0.398025	0.533630
O33	O	1.400187	-0.878244	-0.082986
O34	O	1.900187	-0.378244	0.417014
C35	C	1.179782	-0.638496	-0.104119
C36	C	1.679782	-0.138496	0.395881
C37	C	1.076430	-0.620644	-0.122408
C38	C	1.576430	-0.120644	0.377592
C39	C	0.826075	-0.807874	0.069119
C40	C	1.326075	-0.307874	0.569119
C41	C	0.923180	-0.824645	0.086308
C42	C	1.423180	-0.324645	0.586308
C43	C	0.961497	-0.773647	0.034130
C44	C	1.461497	-0.273647	0.534130
C45	C	0.902700	-0.705873	-0.035239
C46	C	1.402700	-0.205873	0.464761
C47	C	0.805585	-0.689095	-0.052426
C48	C	1.305585	-0.189095	0.447574
C49	C	0.941007	-0.654868	-0.087415
C50	C	1.441007	-0.154868	0.412585
C51	C	0.882210	-0.587094	-0.156785
C52	C	1.382210	-0.087094	0.343215
C53	C	0.785105	-0.570319	-0.173969
C54	C	1.285105	-0.070319	0.326031
C55	C	0.746787	-0.621318	-0.121791
C56	C	1.246787	-0.121318	0.378209
C57	C	1.038122	-0.671646	-0.070228
C58	C	1.538122	-0.171646	0.429772
C59	C	1.017632	-0.552867	-0.191773
C60	C	1.517632	-0.052867	0.308227
C61	C	0.920527	-0.536096	-0.208962
C62	C	1.420527	-0.036096	0.291038
C63	C	1.463140	-0.921879	-0.018729
C64	C	1.963140	-0.421879	0.481271
C65	C	1.481091	-1.025251	-0.000485
C66	C	1.981091	-0.525251	0.499515
C67	C	1.293695	-1.275544	-0.191769
C68	C	1.793695	-0.775544	0.308231
C69	C	1.276832	-1.178420	-0.208916
C70	C	1.776832	-0.678420	0.291084
C71	C	1.327895	-1.140123	-0.156810
C72	C	1.827895	-0.640123	0.343190
C73	C	1.395824	-1.198959	-0.087553
C74	C	1.895824	-0.698959	0.412447
C75	C	1.412694	-1.296093	-0.070408
C76	C	1.912694	-0.796093	0.429592
C77	C	1.446894	-1.160673	-0.035449
C78	C	1.946894	-0.660673	0.464551
C79	C	1.514823	-1.219509	0.033808
C80	C	2.014823	-0.719509	0.533808
C81	C	1.531689	-1.316633	0.050950
C82	C	2.031689	-0.816633	0.550950
C83	C	1.480627	-1.354930	-0.001156
C84	C	1.980627	-0.854930	0.498844
C85	C	1.430024	-1.063539	-0.052594
C86	C	1.930024	-0.563539	0.447406
C87	C	1.549023	-1.084088	0.068767
C88	C	2.049023	-0.584088	0.568767
C89	C	1.565886	-1.181212	0.085914
C90	C	2.065886	-0.681212	0.585914
C91	C	1.663921	-0.722222	-0.018520
C92	C	2.163921	-0.222222	0.481480
C93	C	1.767277	-0.740097	-0.000246
C94	C	2.267277	-0.240097	0.499754
C95	C	1.421424	-0.680219	-0.266150
C96	C	1.921424	-0.180219	0.233850
C97	C	1.421443	-0.680193	-0.353400
C98	C	1.921443	-0.180193	0.146600
C99	C	1.379482	-0.437737	-0.104256
C100	C	1.879482	0.062263	0.395744
C101	C	1.361627	-0.334381	-0.122517
C102	C	1.861627	0.165619	0.377483
C103	C	1.470645	-0.631000	-0.394385
C104	C	1.970645	-0.131000	0.105615
C105	C	1.470650	-0.630971	-0.476369
C106	C	1.970650	-0.130971	0.023631
C107	C	1.421460	-0.680142	-0.517365
C108	C	1.921460	-0.180142	-0.017365
C109	C	1.372252	-0.729336	-0.476375
C110	C	1.872252	-0.229336	0.023625
C111	C	1.372241	-0.729359	-0.394395
C112	C	1.872241	-0.229359	0.105605
C113	C	1.372280	-0.729287	-0.647249
C114	C	1.872280	-0.229287	-0.147249
C115	C	1.372292	-0.729265	-0.729235
C116	C	1.872292	-0.229265	-0.229235
C117	C	1.470689	-0.630899	-0.729223
C118	C	1.970689	-0.130899	-0.229223
C119	C	1.470678	-0.630922	-0.647242
C120	C	1.970678	-0.130922	-0.147242
C121	C	1.421472	-0.680118	-0.606258
C122	C	1.921472	-0.180118	-0.106258
C123	C	1.421378	-0.680278	0.142545
C124	C	1.921378	-0.180278	0.642545
C125	C	1.421493	-0.680072	0.229780
C126	C	1.921493	-0.180072	0.729780
H127	H	0.794866	-0.849383	0.111598
H128	H	1.294866	-0.349383	0.611598
H129	H	1.048828	-0.511338	-0.234259
H130	H	1.548828	-0.011338	0.265741
Cl131	Cl	1.532494	-0.569188	-0.342853
Cl132	Cl	2.032494	-0.069188	0.157147
H133	H	1.332234	-0.769301	-0.762613
H134	H	1.832234	-0.269301	-0.262613
H135	H	1.332194	-0.769330	-0.613887
H136	H	1.832194	-0.269330	-0.113887
H137	H	1.510718	-0.590916	-0.509734
H138	H	2.010718	-0.090916	-0.009734
Cl139	Cl	1.310382	-0.791201	-0.342872
Cl140	Cl	1.810382	-0.291201	0.157128
Cl141	Cl	1.306778	-1.018038	-0.178424
Cl142	Cl	1.806778	-0.518038	0.321576
H143	H	1.221525	-1.130520	-0.265304
H144	H	1.721525	-0.630520	0.234696
Cl145	Cl	1.229519	-1.323696	-0.257272
Cl146	Cl	1.729519	-0.823696	0.242728
Cl147	Cl	1.344629	-0.989585	-0.139655
Cl148	Cl	1.844629	-0.489585	0.360345
H149	H	1.332196	-0.769367	-0.509762
H150	H	1.832196	-0.269367	-0.009762
Cl151	Cl	1.112027	-0.756846	0.016975
Cl152	Cl	1.612027	-0.256846	0.516975
H153	H	1.510753	-0.590840	-0.762597
H154	H	2.010753	-0.090840	-0.262597
H155	H	1.587009	-1.364537	0.107339
H156	H	2.087009	-0.864537	0.607339
H157	H	1.621196	-1.229130	0.142303
H158	H	2.121196	-0.729130	0.642303
H159	H	1.590605	-1.052908	0.111196
H160	H	2.090605	-0.552908	0.611196
H161	H	1.510740	-0.590890	-0.613863
H162	H	2.010740	-0.090890	-0.113863
Cl163	Cl	0.624710	-0.600250	-0.143406
Cl164	Cl	1.124710	-0.100250	0.356594
H165	H	1.040565	-0.787306	0.048130
H166	H	1.540565	-0.287306	0.548130
H167	H	0.971046	-0.879825	0.142789
H168	H	1.471046	-0.379825	0.642789
Cl169	Cl	0.711189	-0.485109	-0.261171
Cl170	Cl	1.211189	0.014891	0.238829
H171	H	1.494347	-1.434014	0.012805
H172	H	1.994347	-0.934014	0.512805
Cl173	Cl	0.846601	-0.450898	-0.296167
Cl174	Cl	1.346601	0.049102	0.203833
