data_functionalizedCrystal
_audit_creation_method	'MofGen! by Chris Wilmer'
_symmetry_space_group_name_H-M	'P1'
_symmetry_Int_Tables_number	1
_symmetry_cell_setting	triclinic
loop_
_symmetry_equiv_pos_as_xyz
  x,y,z
_cell_length_a	12.759400
_cell_length_b	12.759401
_cell_length_c	12.759393
_cell_angle_alpha	89.981504
_cell_angle_beta	89.968436
_cell_angle_gamma	90.014845
loop_
_atom_site_label
_atom_site_type_symbol
_atom_site_fract_x
_atom_site_fract_y
_atom_site_fract_z
Zn1	Zn	0.418200	-1.606255	0.593981
Zn2	Zn	0.593919	-1.606150	0.418301
Zn3	Zn	0.418255	-1.430557	0.418321
Zn4	Zn	0.593838	-1.430546	0.593943
O5	O	0.506053	-1.518377	0.506137
O6	O	0.441520	-1.753262	0.570685
O7	O	0.570673	-1.582818	0.271283
O8	O	0.271226	-1.453913	0.441647
O9	O	0.570620	-1.753185	0.441614
O10	O	0.271186	-1.582998	0.570704
O11	O	0.441614	-1.453811	0.271297
O12	O	0.441535	-1.283535	0.441609
O13	O	0.570482	-1.453894	0.740969
O14	O	0.570536	-1.283527	0.570638
O15	O	0.441442	-1.582987	0.740997
O16	O	0.740929	-1.582807	0.441577
O17	O	0.740870	-1.453791	0.570620
C18	C	0.506033	-1.245410	0.506122
C19	C	0.506050	-1.128633	0.506141
C20	C	0.779020	-1.518315	0.506115
C21	C	0.895797	-1.518384	0.506140
C22	C	0.232019	-1.518468	0.506182
C23	C	0.115243	-1.518507	0.506201
C24	C	0.950655	-1.585637	0.439022
C25	C	1.060379	-1.585702	0.439054
C26	C	1.060377	-1.451252	0.573327
C27	C	0.950655	-1.451193	0.573299
C28	C	0.895797	-1.652828	0.371864
C29	C	0.950655	-1.720086	0.304739
C30	C	1.060379	-1.720150	0.304771
C31	C	1.115245	-1.652957	0.371929
C32	C	0.505947	-1.518451	0.780170
C33	C	0.505902	-1.518482	0.896947
C34	C	0.506073	-1.792410	0.506152
C35	C	0.506082	-1.909187	0.506158
C36	C	0.573328	-1.073794	0.573215
C37	C	0.573342	-0.964070	0.573227
C38	C	0.438796	-0.964034	0.439081
C39	C	0.438778	-1.073756	0.439075
C40	C	0.640600	-1.128672	0.640281
C41	C	0.707885	-1.073833	0.707360
C42	C	0.707898	-0.964109	0.707371
C43	C	0.640627	-0.909224	0.640304
C44	C	0.506083	-1.518364	0.233169
C45	C	0.505832	-1.518537	0.116393
C46	C	0.438704	-1.585710	0.951825
C47	C	0.438666	-1.585735	1.061549
C48	C	0.573033	-1.451301	1.061507
C49	C	0.573064	-1.451272	0.951785
C50	C	0.371541	-1.652920	0.896987
C51	C	0.304339	-1.720155	0.951866
C52	C	0.304301	-1.720180	1.061590
C53	C	0.371465	-1.652970	1.116436
H54	H	0.806454	-1.652780	0.371827
Cl55	Cl	0.792442	-1.142829	0.791674
Cl56	Cl	0.371400	-1.652990	1.254376
Cl57	Cl	1.129341	-1.804710	0.220397
H58	H	1.105058	-1.396545	0.628002
Cl59	Cl	1.253184	-1.652607	0.371532
Cl60	Cl	0.640638	-0.771283	0.640329
H61	H	0.640599	-1.218015	0.640277
Cl62	Cl	0.371588	-1.652897	0.759049
H63	H	0.383987	-1.118407	0.384466
Cl64	Cl	0.657466	-1.366820	1.130457
Cl65	Cl	0.881685	-1.366647	0.657680
H66	H	0.905977	-1.774798	0.250068
H67	H	0.384028	-0.919337	0.384477
H68	H	0.249574	-1.774917	1.106269
H69	H	0.249649	-1.774867	0.907203
H70	H	0.627767	-1.396513	0.907102
H71	H	0.762676	-0.919462	0.761998
