data_functionalizedCrystal
_audit_creation_method	'MofGen! by Chris Wilmer'
_symmetry_space_group_name_H-M	'P1'
_symmetry_Int_Tables_number	1
_symmetry_cell_setting	triclinic
loop_
_symmetry_equiv_pos_as_xyz
  x,y,z
_cell_length_a	12.594517
_cell_length_b	21.295417
_cell_length_c	21.295411
_cell_angle_alpha	89.978356
_cell_angle_beta	89.975147
_cell_angle_gamma	90.030306
loop_
_atom_site_label
_atom_site_type_symbol
_atom_site_fract_x
_atom_site_fract_y
_atom_site_fract_z
Zn1	Zn	1.627197	-0.250684	-0.355916
Zn2	Zn	1.627032	-0.355936	-0.250642
Zn3	Zn	1.449190	-0.250684	-0.250661
Zn4	Zn	1.449138	-0.355919	-0.355873
O5	O	1.538139	-0.303306	-0.303273
O6	O	1.776121	-0.264653	-0.341962
O7	O	1.603393	-0.341981	-0.162555
O8	O	1.472894	-0.162595	-0.264649
O9	O	1.776000	-0.341981	-0.264617
O10	O	1.603675	-0.162595	-0.341980
O11	O	1.472734	-0.264653	-0.162569
O12	O	1.300237	-0.264637	-0.264607
O13	O	1.472805	-0.341952	-0.443968
O14	O	1.300199	-0.341953	-0.341906
O15	O	1.603625	-0.264637	-0.444000
O16	O	1.603343	-0.444023	-0.264575
O17	O	1.472645	-0.444011	-0.341888
C18	C	1.261598	-0.303293	-0.303254
C19	C	1.143293	-0.303303	-0.303261
C20	C	1.074030	-0.261194	-0.261299
C21	C	1.003192	-0.318610	-0.245807
C22	C	1.003331	-0.245915	-0.318764
C23	C	1.074014	-0.360749	-0.287740
C24	C	1.074159	-0.288016	-0.360723
C25	C	1.003354	-0.345472	-0.345253
C26	C	1.538000	-0.466858	-0.303238
C27	C	1.538037	-0.536826	-0.303244
C28	C	1.606152	-0.569678	-0.263029
C29	C	1.606202	-0.635420	-0.263043
C30	C	1.538118	-0.668308	-0.303266
C31	C	1.469999	-0.635448	-0.343489
C32	C	1.469958	-0.569707	-0.343478
N33	N	1.445008	-0.771575	-0.308059
N34	N	1.445050	-0.834026	-0.308065
C35	C	1.538237	-0.866383	-0.303302
N36	N	1.631384	-0.833929	-0.298520
N37	N	1.631342	-0.771472	-0.298510
C38	C	1.538155	-0.739594	-0.303282
C39	C	1.606412	-0.970521	-0.263100
C40	C	1.606464	-1.036264	-0.263118
C41	C	1.470251	-1.036291	-0.343561
C42	C	1.470209	-0.970548	-0.343546
C43	C	1.538288	-0.937667	-0.303312
C44	C	1.815760	-0.303319	-0.303292
C45	C	1.934066	-0.303325	-0.303300
C46	C	1.538228	-0.303293	-0.467463
C47	C	1.538265	-0.303287	-0.537431
C48	C	1.538308	-0.139116	-0.303322
C49	C	1.538380	-0.069148	-0.303342
C50	C	1.606380	-0.263027	-0.570316
C51	C	1.606378	-0.263000	-0.636058
C52	C	1.538274	-0.303244	-0.668914
C53	C	1.470146	-0.343507	-0.636022
C54	C	1.470142	-0.343528	-0.570280
N55	N	1.530062	-0.358311	-0.772129
N56	N	1.530072	-0.358289	-0.834581
C57	C	1.538280	-0.303180	-0.866989
N58	N	1.546499	-0.248093	-0.834586
N59	N	1.546494	-0.248116	-0.772129
C60	C	1.538270	-0.303224	-0.740199
C61	C	1.606397	-0.262887	-0.971159
C62	C	1.606388	-0.262858	-1.036902
C63	C	1.470161	-0.343371	-1.036865
C64	C	1.470164	-0.343394	-0.971122
C65	C	1.538288	-0.303153	-0.938273
C66	C	1.538113	-0.303274	-0.139721
C67	C	1.538281	-0.303102	-0.069754
H68	H	1.661589	-0.542908	-0.230269
H69	H	1.414820	-1.063067	-0.376315
O70	O	1.404009	-0.667462	-0.382592
C71	C	1.464598	-0.705425	-0.423298
H72	H	1.545284	-0.715243	-0.401141
H73	H	1.476241	-0.680059	-0.469950
C74	C	1.306964	-0.755838	-0.461886
C75	C	1.406060	-0.767901	-0.434670
H76	H	1.270855	-0.794376	-0.468904
H77	H	1.266143	-0.730260	-0.434464
H78	H	1.316681	-0.734698	-0.500760
H79	H	1.396343	-0.789034	-0.395793
H80	H	1.446879	-0.793485	-0.462086
O81	O	1.672645	-0.938673	-0.224001
C82	C	1.732765	-0.981770	-0.188499
H83	H	1.736466	-1.028615	-0.214296
H84	H	1.693829	-0.988814	-0.140672
C85	C	1.841489	-0.898518	-0.147796
C86	C	1.846042	-0.956052	-0.179482
H87	H	1.911362	-0.882654	-0.142230
H88	H	1.800983	-0.869482	-0.171711
H89	H	1.809038	-0.904395	-0.107943
H90	H	1.878480	-0.950173	-0.219337
H91	H	1.886556	-0.985087	-0.155573
O92	O	1.111009	-0.218822	-0.218830
C93	C	1.074819	-0.235182	-0.158331
H94	H	1.054935	-0.287397	-0.157050
H95	H	1.000746	-0.206758	-0.146596
C96	C	1.186632	-0.156783	-0.111404
C97	C	1.162218	-0.220916	-0.109828
H98	H	1.240541	-0.147980	-0.081484
H99	H	1.211011	-0.145759	-0.152162
H100	H	1.124897	-0.133104	-0.101626
H101	H	1.223950	-0.244593	-0.119613
H102	H	1.137852	-0.231944	-0.069069
H103	H	1.414670	-0.376312	-0.543506
O104	O	0.966377	-0.387962	-0.387603
C105	C	0.854438	-0.387161	-0.387512
H106	H	0.825305	-0.340039	-0.368880
H107	H	0.823461	-0.426528	-0.356163
C108	C	0.849140	-0.454634	-0.477814
C109	C	0.813359	-0.396757	-0.454935
H110	H	0.823799	-0.460557	-0.519403
H111	H	0.924556	-0.455177	-0.477874
H112	H	0.823323	-0.487434	-0.451684
H113	H	0.839186	-0.363959	-0.481060
H114	H	0.737946	-0.396209	-0.454881
H115	H	1.661673	-0.662174	-0.230295
O116	O	0.965869	-0.333938	-0.187856
C117	C	0.902772	-0.284427	-0.164670
H118	H	0.871813	-0.255213	-0.205617
H119	H	0.952577	-0.253457	-0.132442
C120	C	0.846413	-0.347522	-0.077271
C121	C	0.808382	-0.311644	-0.127564
H122	H	0.788191	-0.364310	-0.054380
H123	H	0.888926	-0.380878	-0.092891
H124	H	0.887917	-0.321708	-0.050422
H125	H	0.766890	-0.337460	-0.154416
H126	H	0.765859	-0.278293	-0.111948
O127	O	1.111333	-0.272446	-0.418639
C128	C	1.075362	-0.211872	-0.434789
H129	H	1.055440	-0.184650	-0.390235
H130	H	1.001357	-0.215897	-0.465335
C131	C	1.187420	-0.210472	-0.526074
C132	C	1.162959	-0.177036	-0.471352
H133	H	1.241451	-0.188984	-0.548630
H134	H	1.211651	-0.251283	-0.515195
H135	H	1.125742	-0.213824	-0.551521
H136	H	1.224633	-0.173691	-0.445902
H137	H	1.138740	-0.136223	-0.482227
H138	H	1.661861	-0.230117	-0.944412
O139	O	1.672430	-0.223836	-0.538444
C140	C	1.649237	-0.161097	-0.554533
H141	H	1.564206	-0.157919	-0.572580
H142	H	1.706311	-0.144639	-0.592716
C143	C	1.766103	-0.122991	-0.473985
C144	C	1.661664	-0.119087	-0.496146
H145	H	1.773772	-0.097077	-0.437970
H146	H	1.781732	-0.165259	-0.463146
H147	H	1.813652	-0.109277	-0.505809
H148	H	1.614118	-0.132808	-0.464324
H149	H	1.646026	-0.076820	-0.506977
H150	H	1.414739	-0.943798	-0.376291
O151	O	0.966414	-0.187960	-0.334318
C152	C	1.002402	-0.143709	-0.289921
H153	H	1.076890	-0.162317	-0.265894
H154	H	0.937884	-0.135429	-0.253286
C155	C	0.936761	-0.058565	-0.352876
C156	C	1.028253	-0.081417	-0.323370
H157	H	0.952702	-0.020139	-0.373507
H158	H	0.912511	-0.088377	-0.382786
H159	H	0.883004	-0.051670	-0.322342
H160	H	1.082003	-0.088319	-0.353905
H161	H	1.052512	-0.051605	-0.293465
H162	H	1.661938	-1.063012	-0.230371
O163	O	1.403685	-0.537888	-0.382564
C164	C	1.343623	-0.581009	-0.418085
H165	H	1.339988	-0.627890	-0.392310
H166	H	1.382568	-0.587952	-0.465916
C167	C	1.234784	-0.497828	-0.458750
C168	C	1.230311	-0.555406	-0.427090
H169	H	1.164889	-0.482035	-0.464307
H170	H	1.275250	-0.468776	-0.434821
H171	H	1.267242	-0.503621	-0.498605
H172	H	1.197865	-0.549611	-0.387232
H173	H	1.189836	-0.584457	-0.451012
H174	H	1.661843	-0.230212	-0.662838
O175	O	1.403854	-0.382397	-1.068748
C176	C	1.297784	-0.368654	-1.052649
H177	H	1.292456	-0.318372	-1.034575
H178	H	1.269923	-0.402417	-1.014484
C179	C	1.233293	-0.437711	-1.133233
C180	C	1.226748	-0.375952	-1.111040
H181	H	1.189473	-0.442216	-1.169250
H182	H	1.304754	-0.446973	-1.144078
H183	H	1.210078	-0.465841	-1.101424
H184	H	1.249976	-0.347825	-1.142846
H185	H	1.155289	-0.366686	-1.100202
O186	O	1.672658	-0.223727	-1.068751
C187	C	1.732762	-0.188206	-1.025657
H188	H	1.736417	-0.214008	-0.978795
H189	H	1.693842	-0.140396	-1.018655
C190	C	1.841565	-0.147446	-1.108900
C191	C	1.846061	-0.179138	-1.051345
H192	H	1.911452	-0.141850	-1.124747
H193	H	1.801070	-0.171375	-1.137934
H194	H	1.809127	-0.107607	-1.103058
H195	H	1.878487	-0.218979	-1.057190
H196	H	1.886565	-0.155216	-1.022312
O197	O	1.111017	-0.418672	-0.272135
C198	C	1.173400	-0.442395	-0.321726
H199	H	1.204385	-0.401752	-0.351394
H200	H	1.123006	-0.474750	-0.352227
C201	C	1.229707	-0.529423	-0.258181
C202	C	1.267770	-0.479504	-0.294616
H203	H	1.287917	-0.552316	-0.241459
H204	H	1.187675	-0.513442	-0.224770
H205	H	1.187712	-0.556379	-0.283604
H206	H	1.309753	-0.452545	-0.269191
H207	H	1.309812	-0.495481	-0.328022
O208	O	1.404144	-0.382669	-0.667962
C209	C	1.464703	-0.423308	-0.706011
H210	H	1.548527	-0.427206	-0.686217
H211	H	1.468395	-0.403831	-0.755838
C212	C	1.309682	-0.483957	-0.731315
C213	C	1.412634	-0.488749	-0.707001
H214	H	1.277562	-0.524324	-0.731928
H215	H	1.268881	-0.456577	-0.705683
H216	H	1.312773	-0.467724	-0.772835
H217	H	1.409541	-0.504975	-0.665479
H218	H	1.453434	-0.516134	-0.732626
O219	O	1.404116	-0.382598	-0.939204
C220	C	1.427294	-0.445332	-0.955283
H221	H	1.512323	-0.448510	-0.973374
H222	H	1.370215	-0.461770	-0.993430
C223	C	1.310421	-0.483460	-0.874660
C224	C	1.414859	-0.487364	-0.896874
H225	H	1.302746	-0.509388	-0.838632
H226	H	1.294802	-0.441194	-0.863828
H227	H	1.262867	-0.497157	-0.906454
H228	H	1.462409	-0.473660	-0.865083
H229	H	1.430485	-0.529628	-0.907699
