data_functionalizedCrystal
_audit_creation_method	'MofGen! by Chris Wilmer'
_symmetry_space_group_name_H-M	'P1'
_symmetry_Int_Tables_number	1
_symmetry_cell_setting	triclinic
loop_
_symmetry_equiv_pos_as_xyz
  x,y,z
_cell_length_a	12.759395
_cell_length_b	21.295417
_cell_length_c	12.759387
_cell_angle_alpha	89.962511
_cell_angle_beta	89.980569
_cell_angle_gamma	90.029548
loop_
_atom_site_label
_atom_site_type_symbol
_atom_site_fract_x
_atom_site_fract_y
_atom_site_fract_z
Zn1	Zn	1.606159	-0.250579	-0.593926
Zn2	Zn	1.606004	-0.355862	-0.418226
Zn3	Zn	1.430457	-0.250610	-0.418266
Zn4	Zn	1.430404	-0.355814	-0.593868
O5	O	1.518256	-0.303216	-0.506072
O6	O	1.753160	-0.264552	-0.570626
O7	O	1.582675	-0.341933	-0.271210
O8	O	1.453852	-0.162516	-0.441609
O9	O	1.753045	-0.341902	-0.441540
O10	O	1.582939	-0.162493	-0.570665
O11	O	1.453701	-0.264605	-0.271240
O12	O	1.283429	-0.264558	-0.441553
O13	O	1.453761	-0.341821	-0.740897
O14	O	1.283390	-0.341851	-0.570567
O15	O	1.582887	-0.264505	-0.740940
O16	O	1.582623	-0.443945	-0.441484
O17	O	1.453610	-0.443909	-0.570528
C18	C	1.245288	-0.303203	-0.506059
C19	C	1.128512	-0.303213	-0.506078
C20	C	1.128611	-0.222798	-0.640713
C21	C	1.073800	-0.182598	-0.708038
C22	C	0.964079	-0.182609	-0.708051
C23	C	0.909166	-0.222823	-0.640729
C24	C	0.963977	-0.263023	-0.573404
C25	C	1.073701	-0.263009	-0.573400
C26	C	0.963877	-0.343434	-0.438765
C27	C	1.073599	-0.343427	-0.438756
C28	C	0.908964	-0.383649	-0.371443
C29	C	0.963775	-0.423853	-0.304121
C30	C	1.073503	-0.423840	-0.304112
C31	C	1.128410	-0.383627	-0.371430
C32	C	1.518122	-0.466768	-0.506018
C33	C	1.518161	-0.536736	-0.506031
C34	C	1.585338	-0.569533	-0.573279
C35	C	1.585375	-0.635276	-0.573304
C36	C	1.518246	-0.668218	-0.506064
C37	C	1.451056	-0.635413	-0.438811
C38	C	1.451013	-0.569671	-0.438795
N39	N	1.510305	-0.771487	-0.414117
N40	N	1.510352	-0.833938	-0.414136
C41	C	1.518369	-0.866293	-0.506111
N42	N	1.526358	-0.833837	-0.598069
N43	N	1.526317	-0.771380	-0.598049
C44	C	1.518284	-0.739503	-0.506075
C45	C	1.585590	-0.970376	-0.573393
C46	C	1.585620	-1.036120	-0.573421
C47	C	1.451306	-1.036255	-0.438918
C48	C	1.451270	-0.970513	-0.438900
C49	C	1.518418	-0.937577	-0.506136
C50	C	1.792289	-0.303229	-0.506085
C51	C	1.909066	-0.303234	-0.506091
C52	C	1.518335	-0.303154	-0.780105
C53	C	1.518369	-0.303128	-0.896882
C54	C	1.518419	-0.139026	-0.506148
C55	C	1.518489	-0.069057	-0.506181
C56	C	1.652838	-0.222624	-0.896946
C57	C	1.720087	-0.182363	-0.951839
C58	C	1.720113	-0.182340	-1.061560
C59	C	1.652880	-0.222581	-1.116392
C60	C	1.585631	-0.262843	-1.061499
C61	C	1.585615	-0.262863	-0.951775
C62	C	1.451158	-0.343342	-1.061435
C63	C	1.451136	-0.343369	-0.951713
C64	C	1.383925	-0.383583	-1.116267
C65	C	1.316680	-0.423849	-1.061374
C66	C	1.316658	-0.423870	-0.951645
C67	C	1.383887	-0.383630	-0.896821
C68	C	1.518237	-0.303232	-0.233104
C69	C	1.518407	-0.303081	-0.116328
H70	H	0.919056	-0.456589	-0.249309
O71	O	1.234993	-0.383618	-0.371615
C72	C	1.271684	-0.399873	-0.472245
H73	H	1.208483	-0.389175	-0.532801
H74	H	1.345110	-0.371483	-0.491007
H75	H	1.291130	-0.452103	-0.474298
H76	H	1.640323	-1.062822	-0.628187
H77	H	1.640011	-0.542719	-0.628029
H78	H	1.640070	-0.661985	-0.628078
O79	O	1.652905	-0.222750	-0.790363
C80	C	1.679775	-0.283097	-0.753678
H81	H	1.725562	-0.309113	-0.816899
H82	H	1.730138	-0.278613	-0.680278
H83	H	1.605354	-0.310362	-0.734190
H84	H	1.118523	-0.149855	-0.762849
O85	O	0.802381	-0.383607	-0.371285
C86	C	0.765685	-0.367384	-0.270642
H87	H	0.828907	-0.339896	-0.227292
H88	H	0.692295	-0.337218	-0.278270
H89	H	0.746180	-0.411918	-0.224983
H90	H	1.217952	-0.222782	-0.640704
H91	H	1.261884	-0.456649	-0.906958
O92	O	1.386146	-1.068180	-0.373457
C93	C	1.409164	-1.052170	-0.268757
H94	H	1.449522	-1.004417	-0.266595
H95	H	1.333361	-1.049987	-0.221584
H96	H	1.463220	-1.089160	-0.233429
O97	O	1.385796	-0.667479	-0.373639
C98	C	1.317917	-0.705504	-0.433407
H99	H	1.354939	-0.715295	-0.513059
H100	H	1.303890	-0.751761	-0.390611
H101	H	1.240036	-0.680206	-0.444880
H102	H	1.396573	-0.943807	-0.384136
H103	H	1.383880	-0.383647	-0.807479
H104	H	1.396308	-0.542967	-0.384033
H105	H	1.640263	-0.943558	-0.628144
O106	O	0.910992	-0.143541	-0.773550
C107	C	0.982981	-0.108031	-0.832947
H108	H	1.061186	-0.133805	-0.836496
H109	H	0.951314	-0.101386	-0.915748
H110	H	0.994653	-0.060191	-0.794628
O111	O	1.653067	-0.222611	-1.222975
C112	C	1.753755	-0.238760	-1.259645
H113	H	1.797149	-0.266222	-1.196411
H114	H	1.746211	-0.268925	-1.333036
H115	H	1.799321	-0.194192	-1.279140
O116	O	1.126581	-0.462952	-0.238678
C117	C	1.054581	-0.498432	-0.179247
H118	H	0.976384	-0.500650	-0.222280
H119	H	1.086244	-0.548018	-0.167877
H120	H	1.042893	-0.475319	-0.099530
O121	O	1.785253	-0.143247	-0.898457
C122	C	1.725477	-0.102584	-0.835018
H123	H	1.645826	-0.124777	-0.818559
H124	H	1.768268	-0.094173	-0.757872
H125	H	1.714003	-0.055923	-0.877324
H126	H	0.819824	-0.222824	-0.640737
H127	H	1.774866	-0.149552	-1.106254
O128	O	1.383953	-0.383678	-1.222849
C129	C	1.410895	-0.444002	-1.259473
H130	H	1.392886	-0.480269	-1.196218
H131	H	1.363510	-0.455172	-1.332866
H132	H	1.498072	-0.445344	-1.278949
O133	O	1.251428	-0.463022	-1.114519
C134	C	1.274332	-0.525771	-1.087709
H135	H	1.314704	-0.527101	-1.008050
H136	H	1.198476	-0.553992	-1.083933
H137	H	1.328335	-0.546962	-1.149464
