data_functionalizedCrystal
_audit_creation_method	'MofGen! by Chris Wilmer'
_symmetry_space_group_name_H-M	'P1'
_symmetry_Int_Tables_number	1
_symmetry_cell_setting	triclinic
loop_
_symmetry_equiv_pos_as_xyz
  x,y,z
_cell_length_a	16.109301
_cell_length_b	14.472311
_cell_length_c	16.109301
_cell_angle_alpha	89.988919
_cell_angle_beta	96.538519
_cell_angle_gamma	90.001412
loop_
_atom_site_label
_atom_site_type_symbol
_atom_site_fract_x
_atom_site_fract_y
_atom_site_fract_z
O1	O	1.103131	0.076785	-0.106873
O2	O	0.861069	0.076801	-0.120172
O3	O	0.988749	0.076783	0.007508
O4	O	0.975450	0.076803	-0.234554
O5	O	0.988741	-0.076899	0.007524
O6	O	0.861060	-0.076881	-0.120156
O7	O	1.103122	-0.076897	-0.106857
Cu8	Cu	0.982090	-0.090921	-0.113505
Cu9	Cu	0.982101	0.090825	-0.113524
O10	O	0.975441	-0.076879	-0.234538
C11	C	0.830090	-0.000039	-0.119626
C12	C	0.737794	-0.000033	-0.118011
N13	N	0.982089	-0.218752	-0.113491
C14	C	0.515522	-0.000038	-0.190018
C15	C	0.428801	-0.000044	-0.188494
C16	C	0.448676	-0.000053	-0.037006
C17	C	0.535394	-0.000053	-0.038530
C18	C	0.568815	-0.000041	-0.115039
C19	C	0.395376	-0.000047	-0.111990
C20	C	0.301350	-0.000053	-0.110337
C21	C	0.662847	-0.000036	-0.116693
C22	C	0.982101	-0.592844	-0.113518
C23	C	1.050642	-0.553658	-0.045427
C24	C	1.050464	-0.446570	-0.045176
C25	C	0.982096	-0.407252	-0.113505
C26	C	0.895359	-0.446140	-0.094582
C27	C	0.895765	-0.553261	-0.094100
C28	C	0.999516	-0.553343	-0.200733
C29	C	1.001485	-0.446214	-0.200149
C30	C	0.982087	-0.302364	-0.113499
C31	C	0.982104	-0.697732	-0.113522
C32	C	1.134101	-0.000055	-0.107404
C33	C	1.226397	-0.000055	-0.109019
C34	C	0.988206	-0.000058	0.038491
C35	C	0.986591	-0.000059	0.130786
N36	N	0.982108	0.218656	-0.113532
C37	C	0.975984	-0.000036	-0.265521
C38	C	0.977600	-0.000028	-0.357816
C39	C	1.058599	-0.000049	0.353059
C40	C	1.057075	-0.000042	0.439779
C41	C	0.905586	-0.000036	0.419905
C42	C	0.907111	-0.000037	0.333186
C43	C	0.983620	-0.000048	0.299766
C44	C	0.980571	-0.000040	0.473205
C45	C	0.978918	-0.000031	0.567231
C46	C	0.985273	-0.000055	0.205734
H47	H	0.542730	-0.000035	-0.252317
C48	C	0.824624	-0.000031	0.274560
N49	N	0.762497	-0.000024	0.230402
C50	C	0.594021	-0.000057	0.043957
N51	N	0.638178	-0.000062	0.106083
H52	H	0.385413	-0.000043	-0.249550
C53	C	1.035830	-0.590035	0.041519
N54	N	1.024670	-0.617434	0.107006
H55	H	0.421454	-0.000068	0.025285
C56	C	1.138041	-0.588459	-0.060394
N57	N	1.203872	-0.614680	-0.071666
H58	H	1.114940	-0.420278	-0.056441
H59	H	1.039340	-0.420958	0.019548
C60	C	0.875027	-0.587036	-0.008173
N61	N	0.859408	-0.612471	0.056550
C62	C	0.824789	-0.588283	-0.158547
N63	N	0.771327	-0.614658	-0.207083
C64	C	1.142761	-0.000052	0.316300
N65	N	1.206154	-0.000049	0.288615
H66	H	0.843127	-0.420672	-0.142857
C67	C	0.874113	-0.409926	-0.009628
N68	N	0.858116	-0.382653	0.054363
H69	H	1.061410	-0.580354	-0.218926
H70	H	1.065292	-0.420798	-0.214508
C71	C	0.938412	-0.410053	-0.271809
N72	N	0.890899	-0.382815	-0.325781
C73	C	1.139558	-0.000051	0.498398
N74	N	1.201688	-0.000060	0.542550
C75	C	0.821431	-0.000041	0.456676
N76	N	0.758043	-0.000052	0.484371
C77	C	0.931994	-0.587584	-0.269189
N78	N	0.881136	-0.613381	-0.320744
