data_functionalizedCrystal
_audit_creation_method	'MofGen! by Chris Wilmer'
_symmetry_space_group_name_H-M	'P1'
_symmetry_Int_Tables_number	1
_symmetry_cell_setting	triclinic
loop_
_symmetry_equiv_pos_as_xyz
  x,y,z
_cell_length_a	17.699077
_cell_length_b	11.792254
_cell_length_c	16.176319
_cell_angle_alpha	89.993043
_cell_angle_beta	89.993140
_cell_angle_gamma	83.739587
loop_
_atom_site_label
_atom_site_type_symbol
_atom_site_fract_x
_atom_site_fract_y
_atom_site_fract_z
O1	O	1.004851	0.143494	-0.068736
O2	O	0.784572	0.162174	-0.068740
O3	O	0.900052	-0.012400	-0.068732
O4	O	0.889371	0.318068	-0.068744
O5	O	0.900036	-0.012411	0.068761
O6	O	0.784556	0.162163	0.068753
O7	O	1.004835	0.143483	0.068757
Cu8	Cu	0.894694	0.152822	0.081309
Cu9	Cu	0.894713	0.152835	-0.081292
O10	O	0.889355	0.318057	0.068749
C11	C	0.756363	0.161500	0.000006
C12	C	0.672334	0.159496	0.000005
C13	C	0.632853	0.158545	0.074953
C14	C	0.553900	0.156643	0.074954
C15	C	0.514429	0.155700	0.000006
C16	C	0.553916	0.156648	-0.074949
C17	C	0.632868	0.158541	-0.074949
C18	C	0.235512	0.149010	-0.074950
C19	C	0.156554	0.147120	-0.074944
C20	C	0.156544	0.147112	0.074953
C21	C	0.235496	0.149006	0.074953
C22	C	0.274977	0.149947	-0.000001
C23	C	0.360586	0.152007	-0.000001
C24	C	0.428821	0.153649	0.000005
C25	C	0.899371	-0.054688	0.000014
C26	C	0.897357	-0.180677	0.000013
C27	C	0.895721	-0.282994	0.000011
C28	C	0.893675	-0.411356	0.000003
C29	C	1.033043	0.144156	0.000009
C30	C	1.117072	0.146161	0.000005
C31	C	0.890036	0.360345	0.000001
C32	C	0.892050	0.486333	-0.000004
N33	N	0.894686	0.152812	0.195675
N34	N	0.894727	0.152836	-0.195657
C35	C	0.945836	0.075542	0.238942
C36	C	0.945840	0.075541	0.325489
C37	C	0.894697	0.152816	0.368767
C38	C	0.843541	0.230089	0.325493
C39	C	0.843534	0.230084	0.238948
C40	C	0.843567	0.230110	0.674522
C41	C	0.843579	0.230112	0.761073
C42	C	0.945873	0.075567	0.761063
C43	C	0.945866	0.075562	0.674518
C44	C	0.894708	0.152831	0.631251
C45	C	0.894704	0.152830	0.537407
C46	C	0.894704	0.152823	0.462610
H47	H	0.124390	0.146341	0.135984
C48	C	0.511166	0.155680	0.156414
C49	C	0.562628	0.156950	0.222050
C50	C	0.523288	0.156079	0.297106
H51	H	0.485864	0.088800	0.159656
H52	H	0.474878	0.221126	0.159568
H53	H	0.598902	0.091510	0.218898
H54	H	0.587931	0.223825	0.218836
H55	H	0.487000	0.221525	0.300260
H56	H	0.497988	0.089197	0.300340
H57	H	0.558197	0.156951	0.341649
C58	C	1.001371	-0.008522	0.807936
C59	C	0.988651	-0.120027	0.786879
C60	C	1.039765	-0.197515	0.830032
H61	H	0.994102	0.002382	0.865690
H62	H	1.051946	0.003638	0.793725
H63	H	0.938088	-0.132182	0.801096
H64	H	0.995925	-0.130968	0.729133
H65	H	1.090340	-0.185355	0.815821
H66	H	1.032493	-0.186600	0.887784
H67	H	1.031147	-0.273179	0.815745
C68	C	1.001204	-0.008590	0.627506
C69	C	0.960495	-0.077952	0.577921
C70	C	1.011414	-0.155569	0.534632
H71	H	1.031619	-0.054711	0.665642
H72	H	1.032937	0.031938	0.593627
H73	H	0.928775	-0.118477	0.611797
H74	H	0.930082	-0.031863	0.539770
H75	H	1.043148	-0.115041	0.500753
H76	H	1.041827	-0.201681	0.572774
H77	H	0.983801	-0.202633	0.500978
H78	H	0.521774	0.155872	-0.135973
H79	H	0.267648	0.149773	-0.135982
C80	C	0.278218	0.149966	0.156412
C81	C	0.226745	0.148695	0.222052
C82	C	0.266073	0.149559	0.297105
H83	H	0.303521	0.216844	0.159644
H84	H	0.314503	0.084518	0.159573
H85	H	0.190473	0.214137	0.218893
H86	H	0.201440	0.081822	0.218847
H87	H	0.302358	0.084110	0.300265
H88	H	0.291375	0.216438	0.300329
H89	H	0.231156	0.148685	0.341650
H90	H	0.664984	0.159322	0.135985
C91	C	0.675595	0.159637	-0.156409
C92	C	0.624129	0.158440	-0.222046
C93	C	0.663459	0.159461	-0.297101
H94	H	0.711898	0.094236	-0.159641
H95	H	0.700874	0.226561	-0.159570
H96	H	0.598863	0.091522	-0.218887
H97	H	0.587825	0.223836	-0.218841
H98	H	0.688738	0.226385	-0.300263
H99	H	0.699760	0.094059	-0.300325
H100	H	0.628545	0.158659	-0.341645
H101	H	0.124420	0.146351	-0.135980
C102	C	0.787959	0.314058	0.807913
C103	C	0.743139	0.381704	0.751500
C104	C	0.691890	0.459032	0.794619
H105	H	0.815289	0.361367	0.841665
H106	H	0.756255	0.273310	0.841670
H107	H	0.774839	0.422449	0.717757
H108	H	0.715793	0.334427	0.717746
H109	H	0.660186	0.418284	0.828376
H110	H	0.719226	0.506332	0.828369
H111	H	0.661469	0.504931	0.756349
C112	C	0.788097	0.313939	0.372627
C113	C	0.799065	0.297430	0.457682
C114	C	0.748012	0.374667	0.501125
H115	H	0.737502	0.301784	0.358559
H116	H	0.796633	0.389694	0.358478
H117	H	0.790524	0.221693	0.471825
H118	H	0.849650	0.309595	0.471775
H119	H	0.756547	0.450422	0.486975
H120	H	0.697420	0.362505	0.487050
H121	H	0.755451	0.363483	0.558838
H122	H	0.801882	0.293003	0.203720
H123	H	0.987486	0.012621	0.203711
C124	C	1.001470	-0.008389	0.372316
C125	C	1.046278	-0.076033	0.315892
C126	C	1.097544	-0.153350	0.358998
H127	H	0.974154	-0.055700	0.406096
H128	H	1.033180	0.032367	0.406044
H129	H	1.014572	-0.116786	0.282178
H130	H	1.073611	-0.028753	0.282110
H131	H	1.129254	-0.112594	0.392726
H132	H	1.070221	-0.200653	0.392776
H133	H	1.127957	-0.199248	0.320721
H134	H	0.801914	0.293027	0.639301
