data_functionalizedCrystal
_audit_creation_method	'MofGen! by Chris Wilmer'
_symmetry_space_group_name_H-M	'P1'
_symmetry_Int_Tables_number	1
_symmetry_cell_setting	triclinic
loop_
_symmetry_equiv_pos_as_xyz
  x,y,z
_cell_length_a	18.760487
_cell_length_b	14.560438
_cell_length_c	14.560438
_cell_angle_alpha	60.000069
_cell_angle_beta	90.034789
_cell_angle_gamma	60.020077
loop_
_atom_site_label
_atom_site_type_symbol
_atom_site_fract_x
_atom_site_fract_y
_atom_site_fract_z
Zr1	Zr	0.686684	1.005276	-0.119963
O2	O	0.572868	1.196879	-0.266698
O3	O	0.721575	0.813674	-0.074983
O4	O	0.721575	1.005278	-0.266584
O5	O	0.572868	1.005272	0.076043
O6	O	0.838878	1.005278	-0.266491
O7	O	0.572868	1.005275	-0.075097
O8	O	0.838878	0.662533	0.076248
O9	O	0.572868	1.348017	-0.266695
O10	O	0.823997	0.892482	-0.055727
O11	O	0.736456	0.892480	0.056998
O12	O	0.736456	1.118069	-0.168587
O13	O	0.648914	1.118067	-0.055862
Zr14	Zr	0.873769	1.005271	0.121238
Zr15	Zr	0.873769	1.005275	-0.119815
Zr16	Zr	0.686685	1.005271	0.121089
Zr17	Zr	0.686685	1.246323	-0.119958
Zr18	Zr	0.873769	0.764224	0.121233
O19	O	0.838879	1.196873	0.076258
O20	O	0.838878	1.196879	-0.266487
O21	O	0.572868	1.196873	0.076047
O22	O	0.987586	0.813668	0.267973
O23	O	0.987585	0.813674	-0.074772
O24	O	0.721575	0.813668	0.267762
O25	O	0.987585	1.005274	-0.074769
O26	O	0.838879	1.005269	0.267859
O27	O	0.721576	1.005269	0.267766
O28	O	0.987586	1.005272	0.076372
O29	O	0.721576	1.348017	-0.266577
O30	O	0.838878	0.662530	0.267852
O31	O	0.987585	0.662530	0.267970
O32	O	0.987585	0.662533	0.076366
O33	O	0.572868	1.348014	-0.075091
O34	O	0.721576	1.348014	-0.074973
O35	O	0.823998	0.892478	0.169862
O36	O	0.911539	0.892480	0.057137
O37	O	0.823998	1.118067	-0.055723
O38	O	0.736456	1.118065	0.057002
C39	C	0.780226	0.703760	0.000632
C40	C	0.780226	0.601429	0.000630
C41	C	0.825920	0.553354	-0.058212
C42	C	0.825924	0.457194	-0.058201
C43	C	0.734532	0.457197	0.059494
C44	C	0.734534	0.553348	0.059489
C45	C	0.546212	1.005274	0.000452
C46	C	0.466790	1.005274	0.000389
C47	C	0.085277	1.123032	-0.058079
C48	C	0.176677	0.887515	0.059749
C49	C	0.251299	0.887513	0.059652
C50	C	0.242913	1.005273	0.000688
C51	C	0.159905	1.123034	-0.058180
C52	C	0.334312	0.769754	0.118510
C53	C	0.408940	0.769747	0.118414
C54	C	0.400555	0.887508	0.059456
C55	C	0.317541	1.005274	0.000587
C56	C	0.309155	1.123034	-0.058378
C57	C	0.226141	1.240801	-0.117241
C58	C	0.151520	1.240795	-0.117138
C59	C	0.475176	0.887515	0.059353
C60	C	0.383782	1.123035	-0.058479
C61	C	1.014241	1.005273	0.000823
C62	C	1.093663	1.005273	0.000886
C63	C	0.780226	1.005279	-0.300882
C64	C	0.780226	1.005281	-0.403215
C65	C	0.780227	1.306787	0.000643
C66	C	0.780227	1.409118	0.000645
C67	C	0.844849	1.005282	-0.451240
C68	C	0.844852	1.005270	-0.547386
C69	C	0.715601	1.005261	-0.547477
C70	C	0.715603	1.005264	-0.451328
C71	C	0.780227	1.005268	0.302157
C72	C	0.780227	1.005266	0.404490
C73	C	1.014241	0.703759	0.000817
C74	C	1.093663	0.601428	0.000878
C75	C	0.780227	0.703754	0.302151
C76	C	0.780227	0.601421	0.404482
C77	C	1.014241	0.703754	0.302337
C78	C	1.093663	0.601421	0.404731
C79	C	0.546213	1.306793	-0.301062
C80	C	0.466790	1.409126	-0.403456
C81	C	0.546213	1.306788	0.000458
C82	C	0.466791	1.409119	0.000397
C83	C	0.780227	1.306793	-0.300877
C84	C	0.780227	1.409125	-0.403208
C85	C	1.085264	0.553373	-0.058017
C86	C	1.159883	0.457236	-0.057982
C87	C	1.242899	0.409148	0.000955
C88	C	1.251296	0.457212	0.059852
C89	C	1.176678	0.553355	0.059810
C90	C	1.176665	0.553365	0.393975
C91	C	1.251297	0.457226	0.490176
C92	C	1.242927	0.409138	0.597132
C93	C	1.159917	0.457203	0.607885
C94	C	1.085286	0.553347	0.511686
C95	C	0.383789	1.457193	-0.392700
C96	C	0.309156	1.553362	-0.488901
C97	C	0.317527	1.601456	-0.595857
C98	C	0.400537	1.553385	-0.606611
C99	C	0.475168	1.457224	-0.510411
C100	C	0.475189	1.457184	0.059282
C101	C	0.400571	1.553348	0.059220
C102	C	0.317555	1.601439	0.000280
C103	C	0.309158	1.553370	-0.058613
C104	C	0.383776	1.457214	-0.058557
C105	C	0.825922	0.553342	0.511472
C106	C	0.825912	0.457199	0.607619
C107	C	0.734510	0.457218	0.489773
C108	C	0.734516	0.553367	0.393629
H109	H	0.863133	0.418052	-0.106114
C110	C	0.876198	0.606208	0.523415
N111	N	0.914064	0.646028	0.532416
C112	C	0.684265	0.404311	0.124225
N113	N	0.646400	0.364482	0.172978
C114	C	0.876191	0.606228	-0.122948
N115	N	0.914060	0.646046	-0.171705
H116	H	1.153029	0.418114	-0.105943
C117	C	0.409729	1.606290	-0.724273
N118	N	0.416651	1.646133	-0.812900
H119	H	1.303703	0.330851	0.675454
H120	H	0.863120	0.418059	0.694731
H121	H	0.542749	1.418088	-0.519182
H122	H	1.153115	0.418035	0.694982
C123	C	0.235421	1.707226	-0.701669
N124	N	0.173576	1.786887	-0.781363
C125	C	1.185931	0.606192	0.124617
N126	N	1.192907	0.645982	0.173434
C127	C	0.684278	0.606217	0.124240
N128	N	0.646433	0.646029	0.173017
C129	C	0.374560	1.404317	-0.275057
N130	N	0.367602	1.364503	-0.186451
H131	H	0.407425	1.592469	0.107182
C132	C	1.324972	0.303379	0.000999
N133	N	1.386787	0.223709	0.001032
H134	H	1.318897	0.418045	0.107837
C135	C	1.342600	0.404360	0.478321
N136	N	1.411367	0.364541	0.469389
C137	C	0.235481	1.707208	0.000236
N138	N	0.173666	1.786869	0.000211
H139	H	0.241573	1.592486	-0.480123
C140	C	0.217832	1.606267	-0.123425
N141	N	0.149043	1.646101	-0.172231
H142	H	0.341132	0.673881	0.166515
H143	H	0.376943	1.218931	-0.106483
C144	C	0.216928	1.370333	-0.182103
N145	N	0.209992	1.467893	-0.230955
H146	H	1.183496	0.592505	0.306894
H147	H	0.697296	0.418079	0.480950
H148	H	0.083926	1.336675	-0.165060
H149	H	0.017686	1.218916	-0.106000
H150	H	0.183498	0.791641	0.107751
H151	H	0.542778	1.418035	0.107286
H152	H	0.476526	0.673854	0.166343
H153	H	0.542762	0.791630	0.107289
H154	H	0.897471	1.005293	-0.412068
H155	H	0.897474	1.005268	-0.586484
H156	H	1.017705	0.592461	0.520459
H157	H	0.662985	1.005250	-0.586661
H158	H	0.697301	0.592516	0.306507
H159	H	0.662978	1.005259	-0.412221
H160	H	1.017675	0.592526	-0.106025
H161	H	0.376925	1.418083	-0.106506
