data_functionalizedCrystal
_audit_creation_method	'MofGen! by Chris Wilmer'
_symmetry_space_group_name_H-M	'P1'
_symmetry_Int_Tables_number	1
_symmetry_cell_setting	triclinic
loop_
_symmetry_equiv_pos_as_xyz
  x,y,z
_cell_length_a	6.817900
_cell_length_b	14.125469
_cell_length_c	10.943624
_cell_angle_alpha	94.577781
_cell_angle_beta	108.838799
_cell_angle_gamma	100.398878
loop_
_atom_site_label
_atom_site_type_symbol
_atom_site_fract_x
_atom_site_fract_y
_atom_site_fract_z
V1	V	-4.072455	-0.133089	-0.402053
O2	O	-4.075281	0.006421	-0.394912
O3	O	-4.008096	-0.263918	-0.398809
O4	O	-4.051083	-0.131030	-0.577627
O5	O	-4.031996	-0.127386	-0.214857
V6	V	-4.554648	-0.116403	-0.379722
O7	O	-4.336629	-0.169690	-0.451036
O8	O	-4.740671	-0.079802	-0.330739
O9	O	-4.395801	0.014426	-0.382966
O10	O	-4.669219	-0.255913	-0.386863
O11	O	-4.712504	-0.122106	-0.566918
O12	O	-4.352814	-0.118462	-0.204148
C13	C	-3.848340	-0.295811	-0.392339
C14	C	-3.877185	-0.402765	-0.390858
C15	C	-3.930069	-0.598591	-0.388165
C16	C	-4.116402	-0.650913	-0.393615
C17	C	-4.145829	-0.759877	-0.392116
C18	C	-3.900634	-0.489617	-0.389663
C19	C	-3.903173	-0.126299	-0.620437
C20	C	-3.966877	-0.125481	-0.763967
C21	C	-3.813488	-0.119977	-0.841135
C22	C	-3.976422	-0.201683	-0.946819
C23	C	-3.917476	-0.042328	-0.914029
C24	C	-4.128998	-0.207264	-0.867774
C25	C	-4.069995	-0.047837	-0.834961
C26	C	-4.233059	-0.129567	-0.940615
C27	C	-4.218898	0.046314	-0.389432
C28	C	-4.169292	0.153268	-0.390922
C29	C	-4.164064	-0.123196	-0.161331
C30	C	-4.079599	-0.124009	-0.017800
H31	H	-3.635563	-0.116032	-0.797701
C32	C	-4.302057	-0.600884	-0.401431
H33	H	-4.422841	-0.648044	-0.404660
H34	H	-4.262684	-0.553095	-0.326626
H35	H	-4.335200	-0.570660	-0.477850
C36	C	-3.744424	-0.648621	-0.380325
H37	H	-3.788868	-0.716354	-0.380317
H38	H	-3.701170	-0.638980	-0.453507
H39	H	-3.628710	-0.621411	-0.302286
H40	H	-3.937527	-0.266723	-0.995524
C41	C	-4.248975	-0.301538	-0.839678
H42	H	-4.207411	-0.301512	-0.748031
H43	H	-4.397496	-0.305150	-0.874629
H44	H	-4.215989	-0.356118	-0.879024
C45	C	-4.473510	-0.135069	-0.999030
H46	H	-4.548767	-0.193674	-0.983537
H47	H	-4.507342	-0.080967	-0.959226
H48	H	-4.512767	-0.133983	-1.090385
H49	H	-4.108807	0.017206	-0.786221
H50	H	-3.828664	0.027362	-0.935052
