data_functionalizedCrystal
_audit_creation_method	'MofGen! by Chris Wilmer'
_symmetry_space_group_name_H-M	'P1'
_symmetry_Int_Tables_number	1
_symmetry_cell_setting	triclinic
loop_
_symmetry_equiv_pos_as_xyz
  x,y,z
_cell_length_a	12.759395
_cell_length_b	14.908579
_cell_length_c	14.908308
_cell_angle_alpha	96.363296
_cell_angle_beta	86.719697
_cell_angle_gamma	86.676545
loop_
_atom_site_label
_atom_site_type_symbol
_atom_site_fract_x
_atom_site_fract_y
_atom_site_fract_z
Zn1	Zn	1.544164	0.389838	0.532534
Zn2	Zn	2.044164	0.889838	1.032534
Zn3	Zn	1.544040	0.532484	0.389911
Zn4	Zn	2.044040	1.032484	0.889911
Zn5	Zn	1.379232	0.381145	0.381197
Zn6	Zn	1.879232	0.881145	0.881197
Zn7	Zn	1.357673	0.541161	0.541227
Zn8	Zn	1.857673	1.041161	1.041227
O9	O	1.456277	0.461157	0.461217
O10	O	1.956277	0.961157	0.961217
O11	O	1.691167	0.408767	0.513624
O12	O	2.191167	0.908767	1.013624
O13	O	1.531149	0.505139	0.262094
O14	O	2.031149	1.005139	0.762094
O15	O	1.410185	0.255633	0.393988
O16	O	1.910185	0.755633	0.893988
O17	O	1.691076	0.513568	0.408839
O18	O	2.191076	1.013568	0.908839
O19	O	1.531360	0.262020	0.505174
O20	O	2.031360	0.762020	1.005174
O21	O	1.410065	0.393950	0.255692
O22	O	1.910065	0.893950	0.755692
O23	O	1.229352	0.402364	0.402416
O24	O	1.729352	0.902364	0.902416
O25	O	1.373440	0.528358	0.666735
O26	O	1.873440	1.028358	1.166735
O27	O	1.213513	0.519928	0.519989
O28	O	1.713513	1.019928	1.019989
O29	O	1.510455	0.417182	0.660349
O30	O	2.010455	0.917182	1.160349
O31	O	1.510244	0.660300	0.417268
O32	O	2.010244	1.160300	0.917268
O33	O	1.373320	0.666676	0.528439
O34	O	1.873320	1.166676	1.028439
C35	C	1.183311	0.461145	0.461201
C36	C	1.683311	0.961145	0.961201
C37	C	1.066533	0.461163	0.461217
C38	C	1.566533	0.961163	0.961217
C39	C	1.439456	0.696332	0.474762
C40	C	1.939456	1.196332	0.974762
C41	C	1.432354	0.796942	0.480587
C42	C	1.932354	1.296942	0.980587
C43	C	1.439556	0.474707	0.697302
C44	C	1.939556	0.974707	1.197302
C45	C	1.432431	0.480482	0.797907
C46	C	1.932431	0.980482	1.297907
C47	C	1.050078	0.583758	0.583469
C48	C	1.550078	1.083758	1.083469
C49	C	0.986989	0.645063	0.644598
C50	C	1.486989	1.145063	1.144598
C51	C	0.877265	0.645075	0.644610
C52	C	1.377265	1.145075	1.144610
C53	C	0.830630	0.583773	0.583488
C54	C	1.330630	1.083773	1.083488
C55	C	0.893719	0.522468	0.522359
C56	C	1.393719	1.022468	1.022359
C57	C	1.003443	0.522465	0.522352
C58	C	1.503443	1.022465	1.022352
C59	C	0.910173	0.399870	0.400112
C60	C	1.410173	0.899870	0.900112
C61	C	1.019897	0.399861	0.400095
C62	C	1.519897	0.899861	0.900095
C63	C	0.863537	0.338568	0.338990
C64	C	1.363537	0.838568	0.838990
C65	C	0.926627	0.277266	0.277855
C66	C	1.426627	0.777266	0.777855
C67	C	1.036356	0.277258	0.277845
C68	C	1.536356	0.777258	0.777845
C69	C	1.082986	0.338556	0.338965
C70	C	1.582986	0.838556	0.838965
C71	C	1.730308	0.461170	0.461234
C72	C	2.230308	0.961170	0.961234
C73	C	1.847084	0.461175	0.461241
C74	C	2.347084	0.961175	0.961241
C75	C	1.561719	0.979306	0.375864
C76	C	2.061719	1.479306	0.875864
C77	C	1.555049	1.073838	0.381334
C78	C	2.055049	1.573838	0.881334
C79	C	1.412352	1.080542	0.497001
C80	C	1.912352	1.580542	0.997001
C81	C	1.419021	0.986009	0.491531
C82	C	1.919021	1.486009	0.991531
C83	C	1.493706	0.935395	0.430959
C84	C	1.993706	1.435395	0.930959
C85	C	1.500370	0.840860	0.425485
C86	C	2.000370	1.340860	0.925485
C87	C	1.357678	0.847565	0.541157
C88	C	1.857678	1.347565	1.041157
C89	C	1.351009	0.942098	0.546627
C90	C	1.851009	1.442098	1.046627
C91	C	1.473183	1.225066	0.447651
C92	C	1.973183	1.725066	0.947651
C93	C	1.480368	1.124459	0.441899
C94	C	1.980368	1.624459	0.941899
C95	C	1.472998	0.447594	0.226048
C96	C	1.972998	0.947594	0.726048
C97	C	1.480345	0.441565	0.125428
C98	C	1.980345	0.941565	0.625428
C99	C	1.561713	0.375543	0.980305
C100	C	2.061713	0.875543	1.480305
C101	C	1.555022	0.380966	1.074832
C102	C	2.055022	0.880966	1.574832
C103	C	1.412353	0.496744	1.081490
C104	C	1.912353	0.996744	1.581490
C105	C	1.419044	0.491321	0.986963
C106	C	1.919044	0.991321	1.486963
C107	C	1.493728	0.430720	0.936374
C108	C	1.993728	0.930720	1.436374
C109	C	1.500423	0.425303	0.841845
C110	C	2.000423	0.925303	1.341845
C111	C	1.357750	0.541076	0.848504
C112	C	1.857750	1.041076	1.348504
C113	C	1.351059	0.546498	0.943031
C114	C	1.851059	1.046498	1.443031
H115	H	1.139419	0.583761	0.583460
H116	H	1.639419	1.083761	1.083460
C117	C	0.742839	0.338575	0.339013
C118	C	1.242839	0.838575	0.839013
N119	N	0.651927	0.338578	0.339029
N120	N	1.151927	0.838578	0.839029
H121	H	1.622523	0.938094	0.326537
H122	H	2.122523	1.438094	0.826537
H123	H	1.610380	0.336033	1.110597
H124	H	2.110380	0.836033	1.610597
C125	C	1.582524	0.785185	0.358856
C126	C	2.082524	1.285185	0.858856
N127	N	1.644407	0.743254	0.308670
N128	N	2.144407	1.243254	0.808670
C129	C	1.038296	0.712496	0.711826
C130	C	1.538296	1.212496	1.211826
N131	N	1.076939	0.763286	0.762462
N132	N	1.576939	1.263286	1.262462
C133	C	1.629865	1.122137	0.320721
C134	C	2.129865	1.622137	0.820721
N135	N	1.686219	1.158516	0.275063
N136	N	2.186219	1.658516	0.775063
H137	H	1.351548	0.546082	1.122696
H138	H	1.851548	1.046082	1.622696
C139	C	1.330204	1.136233	0.563623
C140	C	1.830204	1.636233	1.063623
N141	N	1.268327	1.178182	0.613801
N142	N	1.768327	1.678182	1.113801
C143	C	1.268904	0.613149	0.998690
C144	C	1.768904	1.113149	1.498690
N145	N	1.207022	0.663352	1.040611
N146	N	1.707022	1.163352	1.540611
H147	H	1.302394	0.586007	0.812726
H148	H	1.802394	1.086007	1.312726
C149	C	0.807866	0.712514	0.711854
C150	C	1.307866	1.212514	1.211854
N151	N	0.755594	0.763310	0.762501
N152	N	1.255594	1.263310	1.262501
C153	C	1.268855	0.997784	0.613247
C154	C	1.768855	1.497784	1.113247
N155	N	1.206970	1.039726	0.663423
N156	N	1.706970	1.539726	1.163423
H157	H	1.087718	0.227330	0.228072
H158	H	1.587718	0.727330	0.728072
H159	H	1.172327	0.338558	0.338961
H160	H	1.672327	0.838558	0.838961
H161	H	1.302295	0.811802	0.586017
H162	H	1.802295	1.311802	1.086017
C163	C	0.875320	0.209840	0.210630
C164	C	1.375320	0.709840	0.710630
N165	N	0.836671	0.159054	0.159994
N166	N	1.336671	0.659054	0.659994
C167	C	1.582573	0.358638	0.786198
C168	C	2.082573	0.858638	1.286198
N169	N	1.644447	0.308420	0.744287
N170	N	2.144447	0.808420	1.244287
C171	C	0.709931	0.583776	0.583518
C172	C	1.209931	1.083776	1.083518
N173	N	0.619019	0.583776	0.583542
N174	N	1.119019	1.083776	1.083542
H175	H	1.622528	0.326204	0.939115
H176	H	2.122528	0.826204	1.439115
