data_functionalizedCrystal
_audit_creation_method	'MofGen! by Chris Wilmer'
_symmetry_space_group_name_H-M	'P1'
_symmetry_Int_Tables_number	1
_symmetry_cell_setting	triclinic
loop_
_symmetry_equiv_pos_as_xyz
  x,y,z
_cell_length_a	25.639239
_cell_length_b	18.215407
_cell_length_c	18.215399
_cell_angle_alpha	90.017777
_cell_angle_beta	89.969965
_cell_angle_gamma	89.965694
loop_
_atom_site_label
_atom_site_type_symbol
_atom_site_fract_x
_atom_site_fract_y
_atom_site_fract_z
Zn1	Zn	-0.208217	-1.125001	-0.416065
Zn2	Zn	0.291783	-0.625001	0.083935
Zn3	Zn	-0.295653	-1.124880	-0.292994
Zn4	Zn	0.204347	-0.624880	0.207006
Zn5	Zn	-0.208227	-1.001934	-0.293017
Zn6	Zn	0.291773	-0.501934	0.206983
Zn7	Zn	-0.295617	-1.001870	-0.416023
Zn8	Zn	0.204383	-0.501870	0.083977
O9	O	-0.251929	-1.063421	-0.354525
O10	O	0.248071	-0.563421	0.145475
O11	O	-0.219827	-1.227969	-0.399747
O12	O	0.280173	-0.727969	0.100253
O13	O	-0.284075	-1.108547	-0.190013
O14	O	0.215925	-0.608547	0.309987
O15	O	-0.135060	-1.018336	-0.309366
O16	O	0.364940	-0.518336	0.190634
O17	O	-0.284066	-1.227880	-0.309327
O18	O	0.215934	-0.727880	0.190673
O19	O	-0.135053	-1.108754	-0.399769
O20	O	0.364947	-0.608754	0.100231
O21	O	-0.219844	-1.018219	-0.190029
O22	O	0.280156	-0.518219	0.309971
O23	O	-0.219808	-0.898941	-0.309326
O24	O	0.280192	-0.398941	0.190674
O25	O	-0.284004	-1.018228	-0.519013
O26	O	0.215996	-0.518228	-0.019013
O27	O	-0.284013	-0.898894	-0.399698
O28	O	0.215987	-0.398894	0.100302
O29	O	-0.219792	-1.108692	-0.519044
O30	O	0.280208	-0.608692	-0.019044
O31	O	-0.368814	-1.108485	-0.309287
O32	O	0.131186	-0.608485	0.190713
O33	O	-0.368787	-1.018110	-0.399676
O34	O	0.131213	-0.518110	0.100324
C35	C	-0.251908	-0.872215	-0.354510
C36	C	0.248092	-0.372215	0.145490
C37	C	-0.251912	-0.790416	-0.354522
C38	C	0.248088	-0.290416	0.145478
C39	C	-0.218527	-0.602268	-0.401676
C40	C	0.281473	-0.102268	0.098324
C41	C	-0.218530	-0.525409	-0.401678
C42	C	0.281470	-0.025409	0.098322
C43	C	-0.285322	-0.525327	-0.307379
C44	C	0.214678	-0.025327	0.192621
C45	C	-0.285316	-0.602184	-0.307374
C46	C	0.214684	-0.102184	0.192626
C47	C	-0.251920	-0.640653	-0.354527
C48	C	0.248080	-0.140653	0.145473
C49	C	-0.251928	-0.486937	-0.354534
C50	C	0.248072	0.013063	0.145466
C51	C	-0.251931	-0.403603	-0.354535
C52	C	0.248069	0.096397	0.145465
C53	C	-0.251916	-0.723992	-0.354524
C54	C	0.248084	-0.223992	0.145476
C55	C	-0.387771	-1.063298	-0.354491
C56	C	0.112229	-0.563298	0.145509
C57	C	-0.445885	-1.063312	-0.354501
C58	C	0.054115	-0.563312	0.145499
C59	C	-0.806250	-1.110602	-0.307539
C60	C	-0.306250	-0.610602	0.192461
C61	C	-0.860854	-1.110631	-0.307549
C62	C	-0.360854	-0.610631	0.192451
O63	O	-0.889092	-1.150710	-0.267583
O64	O	-0.389092	-0.650710	0.232417
N65	N	-0.888168	-1.063551	-0.354573
N66	N	-0.388168	-0.563551	0.145427
C67	C	-0.860874	-1.016444	-0.401596
C68	C	-0.360874	-0.516444	0.098404
O69	O	-0.889121	-0.976402	-0.441596
O70	O	-0.389121	-0.476402	0.058404
C71	C	-0.806271	-1.016420	-0.401590
C72	C	-0.306271	-0.516420	0.098410
C73	C	-0.778960	-1.063498	-0.354557
C74	C	-0.278960	-0.563498	0.145443
C75	C	-0.778939	-1.157677	-0.260511
C76	C	-0.278939	-0.657677	0.239489
C77	C	-0.724338	-1.157647	-0.260500
C78	C	-0.224338	-0.657647	0.239500
C79	C	-0.697049	-1.110543	-0.307518
C80	C	-0.197049	-0.610543	0.192482
C81	C	-0.724359	-1.063468	-0.354546
C82	C	-0.224359	-0.563468	0.145454
C83	C	-0.778978	-0.969318	-0.448616
C84	C	-0.278978	-0.469318	0.051384
C85	C	-0.724371	-0.969298	-0.448605
C86	C	-0.224371	-0.469298	0.051395
C87	C	-0.697061	-1.016376	-0.401573
C88	C	-0.197061	-0.516376	0.098427
C89	C	-0.642469	-1.016334	-0.401553
C90	C	-0.142469	-0.516334	0.098447
N91	N	-0.615156	-1.063414	-0.354529
N92	N	-0.115156	-0.563414	0.145471
C93	C	-0.642445	-1.110519	-0.307511
C94	C	-0.142445	-0.610519	0.192489
C95	C	-0.975545	-1.016500	-0.401608
C96	C	-0.475545	-0.516500	0.098392
C97	C	-1.030147	-1.016520	-0.401611
C98	C	-0.530147	-0.516520	0.098389
C99	C	-1.030123	-1.110707	-0.307565
C100	C	-0.530123	-0.610707	0.192435
C101	C	-0.975520	-1.110683	-0.307558
C102	C	-0.475520	-0.610683	0.192442
C103	C	-0.948231	-1.063580	-0.354583
C104	C	-0.448231	-0.563580	0.145417
C105	C	-0.527780	-1.110452	-0.307492
C106	C	-0.027780	-0.610452	0.192508
C107	C	-0.473175	-1.110416	-0.307484
C108	C	0.026825	-0.610416	0.192516
C109	C	-0.473204	-1.016232	-0.401532
C110	C	0.026796	-0.516232	0.098468
C111	C	-0.527804	-1.016265	-0.401539
C112	C	-0.027804	-0.516265	0.098461
C113	C	-0.555091	-1.063381	-0.354516
C114	C	-0.055091	-0.563381	0.145484
O115	O	-0.614197	-0.976277	-0.441501
O116	O	-0.114197	-0.476277	0.058499
O117	O	-0.614192	-1.150561	-0.267526
O118	O	-0.114192	-0.650561	0.232474
C119	C	-0.115556	-1.063566	-0.354575
C120	C	0.384444	-0.563566	0.145425
C121	C	-0.057441	-1.063627	-0.354596
C122	C	0.442559	-0.563627	0.145404
C123	C	-0.251893	-1.063466	-0.546478
C124	C	0.248107	-0.563466	-0.046478
C125	C	-0.251877	-1.063485	-0.628277
C126	C	0.248123	-0.563485	-0.128277
C127	C	-0.251944	-0.255374	-0.354538
C128	C	0.248056	0.244626	0.145462
C129	C	-0.251936	-0.337173	-0.354539
C130	C	0.248064	0.162827	0.145461
C131	C	-0.218411	-1.110607	-0.816488
C132	C	0.281589	-0.610607	-0.316488
C133	C	-0.218395	-1.110616	-0.893346
C134	C	0.281605	-0.610616	-0.393346
C135	C	-0.285263	-1.016416	-0.893303
C136	C	0.214737	-0.516416	-0.393303
C137	C	-0.285275	-1.016404	-0.816446
C138	C	0.214725	-0.516404	-0.316446
C139	C	-0.251850	-1.063504	-0.778040
C140	C	0.248150	-0.563504	-0.278040
C141	C	-0.251822	-1.063524	-0.931756
C142	C	0.248178	-0.563524	-0.431756
C143	C	-0.251806	-1.063533	-1.015090
C144	C	0.248194	-0.563533	-0.515090
C145	C	-0.251865	-1.063494	-0.694701
C146	C	0.248135	-0.563494	-0.194701
C147	C	-0.251927	-1.063419	-0.163318
C148	C	0.248073	-0.563419	0.336682
C149	C	-0.251795	-1.063543	-0.081520
C150	C	0.248205	-0.563543	0.418480
H151	H	-0.312512	-0.493997	-0.268989
H152	H	0.187488	0.006003	0.231011
N153	N	-0.319400	-0.968311	-0.932547
N154	N	0.180600	-0.468311	-0.432547
N155	N	-0.319386	-0.968328	-1.001169
N156	N	0.180614	-0.468328	-0.501169
H157	H	-0.343497	-0.934354	-1.028885
H158	H	0.156503	-0.434354	-0.528885
N159	N	-0.445330	-0.968122	-0.449571
N160	N	0.054670	-0.468122	0.050429
N161	N	-0.469717	-0.926094	-0.491565
N162	N	0.030283	-0.426094	0.008435
H163	H	-0.450031	-0.892119	-0.525498
H164	H	0.049969	-0.392119	-0.025498
N165	N	-0.445270	-1.158503	-0.259443
N166	N	0.054730	-0.658503	0.240557
N167	N	-0.396518	-1.158470	-0.259431
N168	N	0.103482	-0.658470	0.240569
H169	H	-0.376811	-1.192428	-0.225502
H170	H	0.123189	-0.692428	0.274498
N171	N	-0.696453	-1.205743	-0.212454
N172	N	-0.196453	-0.705743	0.287546
N173	N	-0.720834	-1.247794	-0.170482
N174	N	-0.220834	-0.747794	0.329518
H175	H	-0.701144	-1.281766	-0.136548
H176	H	-0.201144	-0.781766	0.363452
H177	H	-0.191332	-0.633586	-0.440069
H178	H	0.308668	-0.133586	0.059931
H179	H	-0.191192	-1.148956	-0.785220
H180	H	0.308808	-0.648956	-0.285220
H181	H	-0.191338	-0.494159	-0.440071
H182	H	0.308662	0.005841	0.059929
N183	N	-0.184247	-1.158743	-0.932619
N184	N	0.315753	-0.658743	-0.432619
N185	N	-0.202641	-1.205626	-0.975506
N186	N	0.297359	-0.705626	-0.475506
H187	H	-0.178522	-1.239619	-1.003242
H188	H	0.321478	-0.739619	-0.503242
N189	N	-0.319434	-0.968276	-0.777179
N190	N	0.180566	-0.468276	-0.277179
N191	N	-0.349277	-0.926230	-0.811477
N192	N	0.150723	-0.426230	-0.311477
H193	H	-0.373399	-0.892239	-0.783745
H194	H	0.126601	-0.392239	-0.283745
H195	H	-0.312508	-0.633438	-0.268975
H196	H	0.187492	-0.133438	0.231025
H197	H	-0.549991	-1.148821	-0.269204
H198	H	-0.049991	-0.648821	0.230796
N199	N	-0.696490	-0.921179	-0.496630
N200	N	-0.196490	-0.421179	0.003370
N201	N	-0.647737	-0.921153	-0.496618
N202	N	-0.147737	-0.421153	0.003382
H203	H	-0.628046	-0.887168	-0.530533
H204	H	-0.128046	-0.387168	-0.030533
H205	H	-0.801152	-1.196039	-0.222223
H206	H	-0.301152	-0.696039	0.277777
N207	N	-0.555703	-0.968183	-0.449588
N208	N	-0.055703	-0.468183	0.050412
N209	N	-0.586125	-0.994070	-0.496519
N210	N	-0.086125	-0.494070	0.003481
H211	H	-0.605825	-0.960116	-0.530461
H212	H	-0.105825	-0.460116	-0.030461
H213	H	-0.953286	-1.149018	-0.269260
H214	H	-0.453286	-0.649018	0.230740
H215	H	-1.052352	-1.149065	-0.269283
H216	H	-0.552352	-0.649065	0.230717
H217	H	-1.052379	-0.978177	-0.439903
H218	H	-0.552379	-0.478177	0.060097
N219	N	-0.947680	-0.968374	-0.449648
N220	N	-0.447680	-0.468374	0.050352
N221	N	-0.972079	-0.926346	-0.491628
N222	N	-0.472079	-0.426346	0.008372
H223	H	-0.952403	-0.892358	-0.525559
H224	H	-0.452403	-0.392358	-0.025559
H225	H	-0.801206	-0.930978	-0.486911
H226	H	-0.301206	-0.430978	0.013089
