data_functionalizedCrystal
_audit_creation_method	'MofGen! by Chris Wilmer'
_symmetry_space_group_name_H-M	'P1'
_symmetry_Int_Tables_number	1
_symmetry_cell_setting	triclinic
loop_
_symmetry_equiv_pos_as_xyz
  x,y,z
_cell_length_a	10.967953
_cell_length_b	10.654550
_cell_length_c	9.730223
_cell_angle_alpha	90.003749
_cell_angle_beta	102.128873
_cell_angle_gamma	95.399874
loop_
_atom_site_label
_atom_site_type_symbol
_atom_site_fract_x
_atom_site_fract_y
_atom_site_fract_z
O1	O	0.175268	-1.667805	-0.072888
O2	O	0.191967	-1.302324	-0.068911
O3	O	0.002044	-1.493497	-0.113899
O4	O	0.365191	-1.476632	-0.027900
O5	O	0.002049	-1.493495	0.114682
O6	O	0.191972	-1.302322	0.159670
O7	O	0.175273	-1.667803	0.155693
Zn8	Zn	0.183623	-1.485062	0.193974
Zn9	Zn	0.183617	-1.485065	-0.107192
O10	O	0.365196	-1.476630	0.200681
C11	C	-0.044453	-1.492270	-0.010623
C12	C	-0.183007	-1.488601	-0.043443
C13	C	0.190743	-1.255525	0.045092
C14	C	0.187075	-1.116083	0.044232
C15	C	0.176496	-1.714602	0.041687
C16	C	0.180165	-1.854045	0.042538
C17	C	-0.387980	-1.483165	0.026434
C18	C	-0.244778	-1.486962	0.060351
C19	C	0.411693	-1.477857	0.097402
C20	C	0.550246	-1.481527	0.130213
N21	N	0.183627	-1.485069	0.399511
C22	C	0.298898	-1.036579	0.070693
C23	C	0.295444	-0.905558	0.069852
C24	C	0.068333	-0.933559	0.016078
C25	C	0.071788	-1.064577	0.016930
C26	C	0.430020	-1.020412	0.101733
C27	C	0.426565	-0.889391	0.100891
N28	N	0.183603	-1.485068	-0.312731
C29	C	0.099557	-1.569743	0.451523
C30	C	0.099542	-1.569740	0.595402
C31	C	0.267676	-1.400385	0.635247
C32	C	0.267685	-1.400383	0.491369
C33	C	0.002490	-1.667522	0.428520
C34	C	0.002475	-1.667519	0.572400
H35	H	-0.191653	-1.488376	0.174317
H36	H	0.471768	-1.056061	0.012932
N37	N	0.358332	-1.309046	0.734322
H38	H	0.345569	-1.321890	0.833361
H39	H	0.446999	-1.324304	0.730182
N40	N	0.479041	-0.828871	0.244034
H41	H	0.506942	-0.895994	0.313817
H42	H	0.552981	-0.766356	0.238703
N43	N	0.491978	-0.834082	-0.010342
H44	H	0.564928	-0.772393	0.035114
H45	H	0.523579	-0.903975	-0.059345
N46	N	-0.117589	-1.627137	0.603080
H47	H	-0.113213	-1.628610	0.707784
H48	H	-0.129260	-1.538894	0.568193
H49	H	-0.236131	-1.487198	-0.157410
N50	N	-0.124557	-1.639145	0.346691
H51	H	-0.143569	-1.553653	0.376755
H52	H	-0.124514	-1.639209	0.242906
H53	H	0.032883	-1.758701	0.391086
N54	N	-0.379395	-1.483405	0.281169
H55	H	-0.287070	-1.485855	0.284000
H56	H	-0.392640	-1.405083	0.332485
H57	H	0.023856	-1.764027	0.616508
H58	H	-0.441110	-1.481765	-0.087525
N59	N	0.358336	-1.309036	0.435262
H60	H	0.411580	-1.255390	0.515288
H61	H	0.413964	-1.357567	0.388733
N62	N	-0.048828	-1.150318	-0.011583
H63	H	-0.099088	-1.133663	-0.108217
H64	H	-0.029054	-1.241100	-0.006821
H65	H	-0.025530	-0.891606	-0.006171
H66	H	0.481303	-1.049734	0.209544
