data_functionalizedCrystal
_audit_creation_method	'MofGen! by Chris Wilmer'
_symmetry_space_group_name_H-M	'P1'
_symmetry_Int_Tables_number	1
_symmetry_cell_setting	triclinic
loop_
_symmetry_equiv_pos_as_xyz
  x,y,z
_cell_length_a	20.919309
_cell_length_b	20.919540
_cell_length_c	14.628931
_cell_angle_alpha	58.210734
_cell_angle_beta	89.998995
_cell_angle_gamma	55.771029
loop_
_atom_site_label
_atom_site_type_symbol
_atom_site_fract_x
_atom_site_fract_y
_atom_site_fract_z
Zr1	Zr	0.602282	0.691833	-0.140863
O2	O	0.487304	0.842644	-0.305078
O3	O	0.643148	0.547135	-0.082467
O4	O	0.635045	0.689131	-0.284789
O5	O	0.495407	0.700648	0.047675
O6	O	0.745193	0.680046	-0.277948
O7	O	0.495407	0.700648	-0.102756
O8	O	0.759688	0.426041	0.083969
O9	O	0.480912	0.954653	-0.314241
O10	O	0.735990	0.597608	-0.062189
O11	O	0.653788	0.604388	0.044971
O12	O	0.644247	0.771570	-0.193237
O13	O	0.562044	0.778349	-0.086077
Zr14	Zr	0.777955	0.677345	0.109968
Zr15	Zr	0.777955	0.677344	-0.129953
Zr16	Zr	0.602281	0.691834	0.099058
Zr17	Zr	0.592087	0.870475	-0.155478
Zr18	Zr	0.788150	0.498703	0.124583
O19	O	0.737089	0.822043	0.051572
O20	O	0.737089	0.822042	-0.289565
O21	O	0.487304	0.842644	0.036059
O22	O	0.892933	0.526534	0.274183
O23	O	0.892933	0.526533	-0.066954
O24	O	0.643148	0.547136	0.258670
O25	O	0.884829	0.668530	-0.078571
O26	O	0.745192	0.680047	0.253894
O27	O	0.635044	0.689132	0.247053
O28	O	0.884829	0.668530	0.071861
O29	O	0.620549	0.943136	-0.305569
O30	O	0.759688	0.426042	0.274674
O31	O	0.899325	0.414525	0.283346
O32	O	0.899325	0.414525	0.092641
O33	O	0.480911	0.954653	-0.123536
O34	O	0.620548	0.943136	-0.114864
O35	O	0.735990	0.597608	0.162342
O36	O	0.818192	0.590828	0.055182
O37	O	0.726449	0.764790	-0.075866
O38	O	0.644247	0.771570	0.031294
C39	C	0.702871	0.461136	0.002833
C40	C	0.707199	0.385298	0.009037
C41	C	0.735184	-0.047164	0.048832
C42	C	0.731071	0.024127	0.042979
C43	C	0.664807	0.126462	-0.051634
C44	C	0.602658	0.157506	-0.140407
C45	C	0.606775	0.086215	-0.134558
C46	C	0.649167	0.345051	-0.073886
C47	C	0.645052	0.416341	-0.079727
C48	C	0.773467	0.282957	0.103659
C49	C	0.777576	0.211672	0.109503
C50	C	0.715429	0.242721	0.020727
C51	C	0.660600	0.199335	-0.057617
C52	C	0.719640	0.169849	0.026707
C53	C	0.470378	0.702712	-0.029095
C54	C	0.395800	0.708863	-0.033727
C55	C	0.408649	0.620949	0.032497
C56	C	0.338572	0.626734	0.028142
C57	C	0.255646	0.720435	-0.042444
C58	C	0.242797	0.808356	-0.108670
C59	C	0.312874	0.802569	-0.104308
C60	C	0.041665	0.742449	-0.059032
C61	C	-0.028413	0.748229	-0.063392
C62	C	0.067367	0.566607	0.073422
C63	C	0.137440	0.560829	0.077773
C64	C	0.124586	0.648749	0.011552
C65	C	0.184015	0.726351	-0.046900
C66	C	0.196217	0.642832	0.016015
C67	C	0.909859	0.666466	-0.001800
C68	C	0.984437	0.660315	0.002831
C69	C	0.690119	0.684588	-0.315552
C70	C	0.690119	0.684588	-0.417405
C71	C	0.677366	0.908042	-0.033728
C72	C	0.673038	0.983880	-0.039932
C73	C	0.644608	0.770885	-0.527823
C74	C	0.644607	0.770886	-0.633095
C75	C	0.690118	0.684590	0.284657
C76	C	0.690118	0.684590	0.386510
C77	C	0.922611	0.443012	0.016480
C78	C	1.001518	0.361023	0.027316
C79	C	0.702870	0.461136	0.302938
C80	C	0.707198	0.385298	0.410995
C81	C	0.922611	0.443013	0.316585
C82	C	1.001517	0.361024	0.429274
C83	C	0.457626	0.926165	-0.347480
C84	C	0.378720	1.008154	-0.460169
C85	C	0.457625	0.926166	-0.047375
C86	C	0.378719	1.008155	-0.058211
C87	C	0.677366	0.908042	-0.333833
C88	C	0.673038	0.983879	-0.441890
C89	C	0.995664	0.326059	-0.028871
C90	C	1.069797	0.249032	-0.018713
C91	C	1.149784	0.206966	0.047640
C92	C	1.155635	0.241937	0.103828
C93	C	1.081502	0.318968	0.093663
C94	C	0.752139	0.346145	0.523016
C95	C	0.756202	0.274898	0.624555
C96	C	0.715329	0.242800	0.614071
C97	C	0.670382	0.281960	0.502038
C98	C	0.666314	0.353212	0.400501
C99	C	1.081488	0.318982	0.426258
C100	C	1.155635	0.241954	0.532131
C101	C	1.149809	0.206965	0.641020
C102	C	1.069829	0.249015	0.644033
C103	C	0.995684	0.326047	0.538160
C104	C	0.298748	1.050205	-0.457153
C105	C	0.224600	1.127255	-0.563029
C106	C	0.230426	1.162247	-0.671918
C107	C	0.310406	1.120192	-0.674930
C108	C	0.384552	1.043149	-0.569057
C109	C	0.384572	1.043126	-0.002034
C110	C	0.310438	1.120173	-0.012220
C111	C	0.230451	1.162241	-0.078577
C112	C	0.224600	1.127267	-0.134761
C113	C	0.298733	1.050227	-0.124581
C114	C	0.713922	1.015954	-0.431368
C115	C	0.709872	1.087201	-0.532888
C116	C	0.664933	1.126377	-0.644930
C117	C	0.624049	1.094295	-0.655449
C118	C	0.628104	1.023044	-0.553929
H119	H	0.831535	0.128348	0.186547
H120	H	0.605649	0.844765	-0.544420
H121	H	0.315139	1.148693	-0.763601
H122	H	0.605639	0.844769	-0.727802
Cl123	Cl	0.895152	0.378885	0.541973
H124	H	1.086248	0.347458	0.337605
H125	H	0.750515	0.984068	-0.340147
Cl126	Cl	1.088877	0.362906	0.164318
H127	H	0.729084	0.610707	-0.400808
Cl128	Cl	0.895119	0.378931	-0.112300
H129	H	0.824064	0.257688	0.175934
Cl130	Cl	1.062422	0.205081	-0.089353
Cl131	Cl	0.567548	1.143565	-0.796312
H132	H	0.159484	1.161483	-0.560553
Cl133	Cl	1.242972	0.110125	0.060410
H134	H	1.210189	0.144241	0.727220
H135	H	0.629721	0.385081	0.309292
Cl136	Cl	0.803533	0.386479	0.536227
Cl137	Cl	0.812714	0.225678	0.765382
Cl138	Cl	0.720452	0.153223	0.741732
H139	H	0.349042	0.555145	0.082070
Cl140	Cl	0.750275	0.570512	-0.467274
Cl141	Cl	0.300465	0.525042	0.104759
Cl142	Cl	0.124039	1.180160	-0.218171
H143	H	0.594808	0.996937	-0.562513
H144	H	0.293956	1.021756	-0.170326
H145	H	0.637104	0.255815	0.493520
Cl146	Cl	0.571032	0.384094	-0.185483
Cl147	Cl	1.256170	0.189102	0.528316
H148	H	0.293988	1.021719	-0.368500
H149	H	0.743164	1.113315	-0.524300
H150	H	0.170045	1.224981	-0.758118
Cl151	Cl	1.062519	0.205017	0.780932
Cl152	Cl	0.485085	0.990287	-0.572868
H153	H	1.220770	0.207676	0.157852
H154	H	0.449695	1.008879	0.052007
H155	H	0.170094	1.224972	-0.086856
Cl156	Cl	0.317814	1.164120	0.058425
Cl157	Cl	0.659840	1.215954	-0.772545
H158	H	0.789140	-0.130487	0.125881
H159	H	0.781679	-0.001158	0.115258
H160	H	0.548707	0.240834	-0.217447
Cl161	Cl	0.561745	0.544997	-0.198681
H162	H	0.556170	0.111499	-0.206841
H163	H	0.773594	0.086525	0.103738
H164	H	0.476168	0.544648	0.089980
Cl165	Cl	0.577295	0.327988	-0.176551
H166	H	0.204960	0.484528	0.135229
H167	H	0.077823	0.495027	0.127336
H168	H	-0.095937	0.824535	-0.120877
H169	H	0.031187	0.814040	-0.112974
H170	H	0.302406	0.874158	-0.158220
Cl171	Cl	0.079761	0.844142	-0.135635
Cl172	Cl	0.138547	0.926152	-0.197399
