data_functionalizedCrystal
_audit_creation_method	'MofGen! by Chris Wilmer'
_symmetry_space_group_name_H-M	'P1'
_symmetry_Int_Tables_number	1
_symmetry_cell_setting	triclinic
loop_
_symmetry_equiv_pos_as_xyz
  x,y,z
_cell_length_a	11.792254
_cell_length_b	11.792241
_cell_length_c	11.804365
_cell_angle_alpha	101.912841
_cell_angle_beta	78.069043
_cell_angle_gamma	84.196007
loop_
_atom_site_label
_atom_site_type_symbol
_atom_site_fract_x
_atom_site_fract_y
_atom_site_fract_z
O1	O	1.529689	0.132861	-0.099026
O2	O	1.199350	0.148879	-0.099029
O3	O	1.372534	-0.024298	-0.099019
O4	O	1.356505	0.306038	-0.099036
O5	O	1.326941	0.021246	0.099034
O6	O	1.153757	0.194423	0.099025
O7	O	1.484096	0.178406	0.099027
Cu8	Cu	1.314764	0.190573	0.117110
Cu9	Cu	1.368683	0.136711	-0.117111
O10	O	1.310912	0.351583	0.099018
C11	C	1.134263	0.170642	-0.000002
C12	C	1.008251	0.167622	-0.000003
C13	C	0.905915	0.165167	-0.000008
C14	C	0.777529	0.162098	-0.000009
C15	C	1.348731	-0.043817	0.000007
C16	C	1.345717	-0.169831	0.000006
C17	C	1.340178	-0.400548	-0.000014
C18	C	1.343256	-0.272160	-0.000003
C19	C	1.549184	0.156642	-0.000002
C20	C	1.675198	0.159661	-0.000009
C21	C	1.334716	0.371101	-0.000011
C22	C	1.337732	0.497113	-0.000018
N23	N	1.276848	0.228456	0.281848
N24	N	1.406607	0.098820	-0.281850
C25	C	1.497656	0.007827	0.655809
C26	C	1.526337	-0.020836	0.531149
C27	C	1.463967	0.041484	0.468818
C28	C	1.372911	0.132473	0.531159
C29	C	1.344233	0.161145	0.655831
C30	C	1.310544	0.194803	0.468840
C31	C	1.219488	0.285791	0.531181
C32	C	1.190814	0.314458	0.655841
C33	C	1.253184	0.252138	0.718172
C34	C	1.339223	0.166130	0.344167
C35	C	1.185800	0.319448	0.344189
C36	C	1.157118	0.348112	0.468849
H37	H	1.413361	0.092048	0.293420
C38	C	1.588571	-0.083057	0.290233
C39	C	1.495483	0.009970	0.331789
H40	H	1.608020	-0.102521	0.205634
H41	H	1.654711	-0.060536	0.318411
H42	H	1.566102	-0.149212	0.318458
H43	H	1.517956	0.076128	0.303572
H44	H	1.429330	-0.012546	0.303599
H45	H	1.082979	0.422197	0.519623
C46	C	1.675097	-0.169503	0.543660
C47	C	1.626413	-0.120852	0.462628
H48	H	1.736878	-0.231258	0.501354
H49	H	1.705026	-0.110801	0.592269
H50	H	1.616405	-0.199464	0.592298
H51	H	1.685104	-0.090883	0.413995
H52	H	1.596486	-0.179565	0.413998
C53	C	1.105025	0.269569	0.896772
C54	C	1.221659	0.283639	0.855205
H55	H	1.085570	0.289006	0.981371
H56	H	1.054862	0.319716	0.868587
H57	H	1.095552	0.190432	0.868561
H58	H	1.231130	0.362778	0.883409
H59	H	1.271837	0.233491	0.883402
C60	C	1.042040	0.463126	0.643338
C61	C	1.090732	0.414480	0.724368
H62	H	0.980250	0.524871	0.685645
H63	H	1.100717	0.493089	0.594703
H64	H	1.012112	0.404409	0.594724
H65	H	1.120668	0.473195	0.772976
H66	H	1.032044	0.384519	0.773023
C67	C	1.129175	0.506664	0.305803
C68	C	1.117234	0.387962	0.275688
H69	H	1.086856	0.548955	0.263501
H70	H	1.099064	0.536752	0.388960
H71	H	1.209704	0.514785	0.285350
H72	H	1.036705	0.379839	0.296149
H73	H	1.147340	0.357864	0.192512
H74	H	1.548435	-0.042900	0.706568
