data_functionalizedCrystal
_audit_creation_method	'MofGen! by Chris Wilmer'
_symmetry_space_group_name_H-M	'P1'
_symmetry_Int_Tables_number	1
_symmetry_cell_setting	triclinic
loop_
_symmetry_equiv_pos_as_xyz
  x,y,z
_cell_length_a	11.169417
_cell_length_b	19.077713
_cell_length_c	11.169409
_cell_angle_alpha	92.261581
_cell_angle_beta	89.980487
_cell_angle_gamma	87.733990
loop_
_atom_site_label
_atom_site_type_symbol
_atom_site_fract_x
_atom_site_fract_y
_atom_site_fract_z
Zn1	Zn	1.853982	-0.280099	-0.697688
Zn2	Zn	1.861864	-0.397810	-0.505055
Zn3	Zn	1.653270	-0.280142	-0.497027
Zn4	Zn	1.661264	-0.397753	-0.705697
O5	O	1.757595	-0.338951	-0.601367
O6	O	2.022977	-0.295719	-0.672143
O7	O	1.834147	-0.382243	-0.336043
O8	O	1.673251	-0.181653	-0.516933
O9	O	2.028768	-0.382201	-0.530616
O10	O	1.820713	-0.181621	-0.664358
O11	O	1.680894	-0.295793	-0.330145
O12	O	1.486381	-0.295738	-0.524699
O13	O	1.686875	-0.382104	-0.872582
O14	O	1.492254	-0.382147	-0.678008
O15	O	1.828464	-0.295664	-0.866697
O16	O	1.841898	-0.496286	-0.538382
O17	O	1.694518	-0.496244	-0.685793
C18	C	1.445770	-0.338942	-0.601352
C19	C	1.312371	-0.338954	-0.601376
C20	C	1.769963	-0.521800	-0.613854
C21	C	1.775364	-0.600024	-0.619237
C22	C	1.814097	-1.040332	-0.657805
C23	C	1.809009	-0.966833	-0.652737
C24	C	1.729751	-0.930166	-0.573395
C25	C	1.655584	-0.967003	-0.499108
C26	C	1.660679	-1.040501	-0.504170
C27	C	1.706293	-0.710359	-0.550012
C28	C	1.701201	-0.636856	-0.544957
C29	C	1.854628	-0.636691	-0.698586
C30	C	1.859711	-0.710190	-0.703646
C31	C	1.785549	-0.747021	-0.629355
N32	N	1.724545	-0.855038	-0.568216
N33	N	1.790761	-0.822147	-0.634529
C34	C	2.070638	-0.338961	-0.601382
C35	C	2.204038	-0.338965	-0.601388
C36	C	1.757682	-0.338873	-0.914404
C37	C	1.757719	-0.338840	-1.047802
C38	C	1.745211	-0.155388	-0.588857
C39	C	1.739934	-0.077164	-0.583526
C40	C	1.757574	-0.338978	-0.289544
C41	C	1.757756	-0.338813	-0.156133
H42	H	1.878626	-1.070181	-0.722425
H43	H	1.915009	-0.606697	-0.759069
H44	H	1.636654	-0.607005	-0.480344
H45	H	1.645904	-0.740337	-0.489519
H46	H	1.591055	-0.937145	-0.434500
H47	H	1.869400	-0.936845	-0.713220
H48	H	1.924265	-0.740039	-0.768241
H49	H	1.600288	-1.070488	-0.443684
