data_functionalizedCrystal
_audit_creation_method	'MofGen! by Chris Wilmer'
_symmetry_space_group_name_H-M	'P1'
_symmetry_Int_Tables_number	1
_symmetry_cell_setting	triclinic
loop_
_symmetry_equiv_pos_as_xyz
  x,y,z
_cell_length_a	19.288840
_cell_length_b	16.109304
_cell_length_c	18.366186
_cell_angle_alpha	89.996570
_cell_angle_beta	89.983729
_cell_angle_gamma	83.294327
loop_
_atom_site_label
_atom_site_type_symbol
_atom_site_fract_x
_atom_site_fract_y
_atom_site_fract_z
O1	O	0.921612	0.103617	-0.060667
O2	O	0.719383	0.117629	-0.060641
O3	O	0.826052	-0.010427	-0.060655
O4	O	0.814943	0.231673	-0.060653
O5	O	0.826034	-0.010434	0.060444
O6	O	0.719364	0.117623	0.060458
O7	O	0.921594	0.103610	0.060433
Zn8	Zn	0.820476	0.110616	0.079673
Zn9	Zn	0.820500	0.110624	-0.079881
O10	O	0.814925	0.231667	0.060447
C11	C	0.693496	0.117179	-0.000088
C12	C	0.616388	0.115836	-0.000078
C13	C	0.580193	0.115194	-0.066092
C14	C	0.507743	0.113923	-0.066100
C15	C	0.471493	0.113277	-0.000093
C16	C	0.507696	0.113923	0.065929
C17	C	0.580144	0.115203	0.065936
C18	C	0.362036	0.062549	0.050468
C19	C	0.289590	0.061264	0.050458
C20	C	0.248040	0.109334	-0.000112
C21	C	0.278945	0.158677	-0.050684
C22	C	0.351393	0.159957	-0.050677
C23	C	0.392935	0.111890	-0.000093
C24	C	0.133286	0.107315	-0.066139
C25	C	0.060834	0.106049	-0.066145
C26	C	0.060789	0.106041	0.065887
C27	C	0.133239	0.107315	0.065891
C28	C	0.169483	0.107948	-0.000124
C29	C	0.825592	-0.041404	-0.000107
C30	C	0.824242	-0.133694	-0.000112
C31	C	0.821133	-0.346017	-0.066120
C32	C	0.819858	-0.432733	-0.066119
C33	C	0.819842	-0.432737	0.065910
C34	C	0.821112	-0.346022	0.065909
C35	C	0.821761	-0.302665	-0.000109
C36	C	0.819216	-0.476095	-0.000106
C37	C	0.817833	-0.570116	-0.000105
C38	C	0.823142	-0.208638	-0.000110
C39	C	0.947481	0.104061	-0.000122
C40	C	1.024589	0.105404	-0.000136
C41	C	0.815384	0.262643	-0.000103
C42	C	0.816734	0.354934	-0.000103
N43	N	0.820465	0.110610	0.188564
N44	N	0.820517	0.110623	-0.188772
C45	C	0.867714	0.053934	0.226658
C46	C	0.867718	0.053930	0.302886
C47	C	0.820481	0.110616	0.341016
C48	C	0.773223	0.167297	0.302913
C49	C	0.773215	0.167293	0.226687
C50	C	0.811364	0.186371	0.461778
C51	C	0.811376	0.186375	0.538003
C52	C	0.820500	0.110627	0.576124
C53	C	0.829626	0.034870	0.538010
C54	C	0.829619	0.034867	0.461784
C55	C	0.820483	0.110626	0.423671
C56	C	0.867756	0.053942	0.696873
C57	C	0.867756	0.053937	0.773102
C58	C	0.773264	0.167311	0.773128
C59	C	0.773261	0.167309	0.696900
C60	C	0.820511	0.110625	0.658777
H61	H	0.478267	0.113401	-0.119858
H62	H	0.803950	0.248061	0.569029
H63	H	0.376552	0.200136	-0.091853
N64	N	0.406845	0.010701	0.105018
H65	H	0.400904	-0.050287	0.098268
H66	H	0.457409	0.019069	0.097323
H67	H	0.245115	0.197823	-0.091861
N68	N	0.821793	-0.299263	0.137113
H69	H	0.865351	-0.270190	0.140045
H70	H	0.779258	-0.256423	0.140020
N71	N	0.819218	-0.479482	-0.137325
H72	H	0.776424	-0.457488	-0.166201
H73	H	0.862517	-0.471258	-0.166101
N74	N	0.468601	0.113217	0.137123
H75	H	0.502528	0.113817	0.178945
H76	H	0.432889	0.164213	0.139997
N77	N	0.619188	0.115898	0.137139
H78	H	0.585232	0.115300	0.178956
H79	H	0.654895	0.064899	0.140019
H80	H	0.906186	0.007777	0.195620
H81	H	0.837056	-0.026812	0.569047
H82	H	0.734760	0.213450	0.333963
H83	H	0.906229	0.007781	0.804119
H84	H	0.819315	-0.468049	0.119659
H85	H	0.734790	0.213463	0.665882
H86	H	0.264433	0.021082	0.091634
N87	N	0.021702	0.105337	0.137083
H88	H	-0.014010	0.156331	0.140027
H89	H	-0.002661	0.053242	0.139972
H90	H	0.906195	0.007776	0.333908
N91	N	0.722250	0.228421	0.185594
H92	H	0.692322	0.264331	0.221313
H93	H	0.748826	0.265095	0.153953
H94	H	0.821659	-0.310718	-0.119875
N95	N	0.839459	-0.046834	0.420675
H96	H	0.845241	-0.094823	0.456385
H97	H	0.797262	-0.051554	0.389066
H98	H	0.734800	0.213463	0.804174
H99	H	0.162796	0.107839	-0.119892
N100	N	0.918713	-0.007193	0.655748
H101	H	0.948643	-0.043103	0.691451
H102	H	0.892130	-0.043864	0.624132
N103	N	0.172284	0.108007	0.137091
H104	H	0.138328	0.107405	0.178907
H105	H	0.207993	0.057009	0.139971
N106	N	0.801523	0.268076	0.420665
H107	H	0.795751	0.316066	0.456374
H108	H	0.843716	0.272792	0.389023
H109	H	0.031364	0.105531	-0.119903
N110	N	0.619285	0.115873	-0.137290
H111	H	0.585357	0.115272	-0.179111
H112	H	0.643696	0.167932	-0.140168
