data_functionalizedCrystal
_audit_creation_method	'MofGen! by Chris Wilmer'
_symmetry_space_group_name_H-M	'P1'
_symmetry_Int_Tables_number	1
_symmetry_cell_setting	triclinic
loop_
_symmetry_equiv_pos_as_xyz
  x,y,z
_cell_length_a	18.101398
_cell_length_b	25.639239
_cell_length_c	18.101390
_cell_angle_alpha	89.965056
_cell_angle_beta	89.975319
_cell_angle_gamma	90.033952
loop_
_atom_site_label
_atom_site_type_symbol
_atom_site_fract_x
_atom_site_fract_y
_atom_site_fract_z
Zn1	Zn	1.132085	-0.208197	-0.418828
Zn2	Zn	1.632085	0.291803	0.081172
Zn3	Zn	1.131963	-0.295640	-0.294982
Zn4	Zn	1.631963	0.204360	0.205018
Zn5	Zn	1.008243	-0.208214	-0.294989
Zn6	Zn	1.508243	0.291786	0.205011
Zn7	Zn	1.008178	-0.295596	-0.418771
Zn8	Zn	1.508178	0.204404	0.081229
O9	O	1.070117	-0.251912	-0.356893
O10	O	1.570117	0.248088	0.143107
O11	O	1.235701	-0.219808	-0.402421
O12	O	1.735701	0.280192	0.097579
O13	O	1.115528	-0.284069	-0.191350
O14	O	1.615528	0.215931	0.308650
O15	O	1.024749	-0.135046	-0.311444
O16	O	1.524749	0.364954	0.188556
O17	O	1.235612	-0.284052	-0.311432
O18	O	1.735612	0.215948	0.188568
O19	O	1.115735	-0.135034	-0.402428
O20	O	1.615735	0.364966	0.097572
O21	O	1.024631	-0.219836	-0.191356
O22	O	1.524631	0.280164	0.308644
O23	O	0.904601	-0.219793	-0.311388
O24	O	1.404601	0.280207	0.188612
O25	O	1.024638	-0.283977	-0.522411
O26	O	1.524638	0.216023	-0.022411
O27	O	0.904554	-0.283993	-0.402330
O28	O	1.404554	0.216007	0.097670
O29	O	1.115672	-0.219765	-0.522454
O30	O	1.615672	0.280235	-0.022454
O31	O	1.115465	-0.368800	-0.311376
O32	O	1.615465	0.131200	0.188624
O33	O	1.024520	-0.368767	-0.402323
O34	O	1.524520	0.131233	0.097677
C35	C	0.877707	-0.251890	-0.356854
C36	C	1.377707	0.248110	0.143146
C37	C	0.795393	-0.251894	-0.356855
C38	C	1.295393	0.248106	0.143145
C39	C	0.496302	-0.251927	-0.356917
C40	C	0.996302	0.248073	0.143083
C41	C	0.527632	-0.211332	-0.299978
C42	C	1.027632	0.288668	0.200022
C43	C	0.613250	-0.211441	-0.299735
C44	C	1.113250	0.288559	0.200265
C45	C	0.644684	-0.251910	-0.356886
C46	C	1.144684	0.248090	0.143114
C47	C	0.613555	-0.306988	-0.335559
C48	C	1.113555	0.193012	0.164441
C49	C	0.527910	-0.306762	-0.335163
C50	C	1.027910	0.193238	0.164837
C51	C	0.527919	-0.237922	-0.435317
C52	C	1.027919	0.262078	0.064683
C53	C	0.613570	-0.236696	-0.434890
C54	C	1.113570	0.263304	0.065110
C55	C	0.728544	-0.251904	-0.356870
C56	C	1.228544	0.248096	0.143130
C57	C	0.412442	-0.251936	-0.356932
C58	C	0.912442	0.248064	0.143068
C59	C	1.069993	-0.387754	-0.356859
C60	C	1.569993	0.112246	0.143141
C61	C	1.070007	-0.445868	-0.356869
C62	C	1.570007	0.054132	0.143131
C63	C	1.117596	-0.806236	-0.309617
C64	C	1.617596	-0.306236	0.190383
C65	C	1.117624	-0.860840	-0.309627
C66	C	1.617624	-0.360840	0.190373
O67	O	1.157957	-0.889081	-0.269415
O68	O	1.657957	-0.389081	0.230585
N69	N	1.070247	-0.888151	-0.356942
N70	N	1.570247	-0.388151	0.143058
C71	C	1.022844	-0.860854	-0.404255
C72	C	1.522844	-0.360854	0.095745
O73	O	0.982549	-0.889098	-0.444501
O74	O	1.482549	-0.389098	0.055499
C75	C	1.022819	-0.806251	-0.404248
C76	C	1.522819	-0.306251	0.095752
C77	C	1.070194	-0.778943	-0.356925
C78	C	1.570194	-0.278943	0.143075
C79	C	1.164967	-0.778928	-0.262299
C80	C	1.664967	-0.278928	0.237701
C81	C	1.164937	-0.724327	-0.262288
C82	C	1.664937	-0.224327	0.237712
C83	C	1.117536	-0.697035	-0.309596
C84	C	1.617536	-0.197035	0.190404
C85	C	1.070164	-0.724343	-0.356914
C86	C	1.570164	-0.224343	0.143086
C87	C	0.975420	-0.778955	-0.451564
C88	C	1.475420	-0.278955	0.048436
C89	C	0.975400	-0.724348	-0.451554
C90	C	1.475400	-0.224348	0.048446
C91	C	1.022775	-0.697041	-0.404231
C92	C	1.522775	-0.197041	0.095769
C93	C	1.022733	-0.642449	-0.404212
C94	C	1.522733	-0.142449	0.095788
N95	N	1.070110	-0.615139	-0.356897
N96	N	1.570110	-0.115139	0.143103
C97	C	1.117511	-0.642431	-0.309589
C98	C	1.617511	-0.142431	0.190411
C99	C	1.022900	-0.975525	-0.404266
C100	C	1.522900	-0.475525	0.095734
C101	C	1.022920	-1.030127	-0.404270
C102	C	1.522920	-0.530127	0.095730
C103	C	1.117701	-1.030109	-0.309643
C104	C	1.617701	-0.530109	0.190357
C105	C	1.117677	-0.975506	-0.309636
C106	C	1.617677	-0.475506	0.190364
C107	C	1.070277	-0.948214	-0.356952
C108	C	1.570277	-0.448214	0.143048
C109	C	1.117445	-0.527766	-0.309570
C110	C	1.617445	-0.027766	0.190430
C111	C	1.117408	-0.473161	-0.309561
C112	C	1.617408	0.026839	0.190439
C113	C	1.022630	-0.473184	-0.404190
C114	C	1.522630	0.026816	0.095810
C115	C	1.022663	-0.527784	-0.404197
C116	C	1.522663	-0.027784	0.095803
C117	C	1.070076	-0.555074	-0.356884
C118	C	1.570076	-0.055074	0.143116
O119	O	0.982424	-0.614174	-0.444406
O120	O	1.482424	-0.114174	0.055594
O121	O	1.157806	-0.614181	-0.269357
O122	O	1.657806	-0.114181	0.230643
C123	C	1.263279	-0.251933	-0.356932
C124	C	1.763279	0.248067	0.143068
C125	C	1.345593	-0.251943	-0.356949
C126	C	1.845593	0.248057	0.143051
C127	C	1.070161	-0.251864	-0.550055
C128	C	1.570161	0.248136	-0.050055
C129	C	1.070180	-0.251844	-0.632369
C130	C	1.570180	0.248156	-0.132369
C131	C	1.070262	-0.115539	-0.356943
C132	C	1.570262	0.384461	0.143057
C133	C	1.070324	-0.057425	-0.356964
C134	C	1.570324	0.442575	0.143036
C135	C	1.070220	-0.251811	-0.931460
C136	C	1.570220	0.248189	-0.431460
C137	C	1.127684	-0.211553	-0.900161
C138	C	1.627684	0.288447	-0.400161
C139	C	1.127505	-0.211403	-0.814543
C140	C	1.627505	0.288597	-0.314543
C141	C	1.070201	-0.251827	-0.783077
C142	C	1.570201	0.248173	-0.283077
C143	C	0.992187	-0.236853	-0.814145
C144	C	1.492187	0.263147	-0.314145
C145	C	0.992531	-0.236551	-0.899790
C146	C	1.492531	0.263449	-0.399790
C147	C	1.090082	-0.307147	-0.899871
C148	C	1.590082	0.192853	-0.399871
C149	C	1.091794	-0.306865	-0.814221
C150	C	1.591794	0.193135	-0.314221
C151	C	1.070185	-0.251837	-0.699218
C152	C	1.570185	0.248163	-0.199218
C153	C	1.070230	-0.251800	-1.015320
C154	C	1.570230	0.248200	-0.515320
C155	C	1.070116	-0.251921	-0.164482
C156	C	1.570116	0.248079	0.335518
C157	C	1.070241	-0.251794	-0.082169
C158	C	1.570241	0.248206	0.417831
H159	H	0.506355	-0.198458	-0.454708
H160	H	1.006355	0.301542	0.045292
F161	F	1.167833	-0.444101	-0.259191
F162	F	1.667833	0.055899	0.240809
F163	F	1.110321	-0.157822	-0.787781
F164	F	1.610321	0.342178	-0.287781
F165	F	0.641540	-0.322781	-0.261453
F166	F	1.141540	0.177219	0.238547
H167	H	0.507069	-0.170365	-0.313200
H168	H	1.007069	0.329635	0.186800
H169	H	1.048231	-0.337143	-0.920116
H170	H	1.548231	0.162857	-0.420116
H171	H	1.156055	-0.549979	-0.271045
H172	H	1.656055	-0.049979	0.228955
H173	H	0.506081	-0.220486	-0.242223
H174	H	1.006081	0.279514	0.257777
H175	H	1.203516	-0.702096	-0.223756
H176	H	1.703516	-0.202096	0.276244
H177	H	0.507896	-0.318638	-0.277849
H178	H	1.007896	0.181362	0.222151
H179	H	0.984335	-1.052357	-0.442798
H180	H	1.484335	-0.552357	0.057202
F181	F	0.500815	-0.347636	-0.387001
F182	F	1.000815	0.152364	0.112999
H183	H	0.633922	-0.196165	-0.450971
H184	H	1.133922	0.303835	0.049029
H185	H	0.634971	-0.264108	-0.479587
H186	H	1.134971	0.235892	0.020413
F187	F	1.041061	-0.348179	-0.786227
F188	F	1.541061	0.151821	-0.286227
H189	H	0.975041	-0.196852	-0.792707
H190	H	1.475041	0.303148	-0.292707
H191	H	0.633914	-0.338044	-0.375733
H192	H	1.133914	0.161956	0.124267
F193	F	0.640764	-0.158057	-0.317208
F194	F	1.140764	0.341943	0.182792
H195	H	0.507657	-0.267490	-0.477742
H196	H	1.007657	0.232510	0.022258
H197	H	0.948210	-0.265272	-0.793760
H198	H	1.448210	0.234728	-0.293760
H199	H	0.984034	-0.450953	-0.442706
H200	H	1.484034	0.049047	0.057294
F201	F	0.970493	-0.183686	-0.925923
F202	F	1.470493	0.316314	-0.425923
H203	H	0.948260	-0.264597	-0.920492
H204	H	1.448260	0.235403	-0.420492
H205	H	1.145972	-0.320781	-0.921520
H206	H	1.645972	0.179219	-0.421520
H207	H	1.203571	-0.801144	-0.223775
H208	H	1.703571	-0.301144	0.276225
H209	H	1.156254	-0.953275	-0.271102
H210	H	1.656254	-0.453275	0.228898
F211	F	0.972441	-0.946483	-0.454624
F212	F	1.472441	-0.446483	0.045376
F213	F	0.639985	-0.223540	-0.223802
F214	F	1.139985	0.276460	0.276198
H215	H	1.149206	-0.318156	-0.793916
H216	H	1.649206	0.181844	-0.293916
H217	H	1.156301	-1.052341	-0.271125
H218	H	1.656301	-0.552341	0.228875
H219	H	1.114704	-0.170788	-0.921700
H220	H	1.614704	0.329212	-0.421700
F221	F	0.925003	-0.808007	-0.501939
F222	F	1.425003	-0.308007	-0.001939
F223	F	1.203547	-0.223656	-0.927098
F224	F	1.703547	0.276344	-0.427098
H225	H	0.936802	-0.702130	-0.490086
H226	H	1.436802	-0.202130	0.009914
H227	H	0.984089	-0.550019	-0.442733
H228	H	1.484089	-0.050019	0.057267
H229	H	1.185355	-0.220781	-0.793540
H230	H	1.685355	0.279219	-0.293540
