data_functionalizedCrystal
_audit_creation_method	'MofGen! by Chris Wilmer'
_symmetry_space_group_name_H-M	'P1'
_symmetry_Int_Tables_number	1
_symmetry_cell_setting	triclinic
loop_
_symmetry_equiv_pos_as_xyz
  x,y,z
_cell_length_a	12.594516
_cell_length_b	19.805407
_cell_length_c	19.805399
_cell_angle_alpha	90.019573
_cell_angle_beta	89.979203
_cell_angle_gamma	89.983947
loop_
_atom_site_label
_atom_site_type_symbol
_atom_site_fract_x
_atom_site_fract_y
_atom_site_fract_z
Zn1	Zn	-0.423767	-1.034784	-0.382752
Zn2	Zn	-0.601760	-1.034720	-0.269577
Zn3	Zn	-0.423796	-0.921599	-0.269576
Zn4	Zn	-0.601704	-0.921583	-0.382723
O5	O	-0.512757	-0.978172	-0.326157
O6	O	-0.447389	-1.129492	-0.367751
O7	O	-0.578189	-1.019694	-0.174860
O8	O	-0.274846	-0.936647	-0.284601
O9	O	-0.578160	-1.129445	-0.284602
O10	O	-0.274825	-1.019804	-0.367750
O11	O	-0.447439	-0.936584	-0.174860
O12	O	-0.447385	-0.826880	-0.284573
O13	O	-0.578064	-0.936620	-0.477444
O14	O	-0.578092	-0.826869	-0.367702
O15	O	-0.447335	-1.019788	-0.477464
O16	O	-0.750698	-1.019678	-0.284574
O17	O	-0.750657	-0.936557	-0.367703
C18	C	-0.512736	-0.802316	-0.326135
C19	C	-0.512753	-0.727084	-0.326142
C20	C	-0.789298	-0.978127	-0.326150
C21	C	-0.907603	-0.978170	-0.326170
C22	C	-0.512690	-0.978209	-0.502700
C23	C	-0.512661	-0.978226	-0.577932
C24	C	-0.976872	-0.932956	-0.371352
C25	C	-1.047728	-0.916467	-0.309590
C26	C	-1.047546	-0.994721	-0.387943
C27	C	-0.976901	-0.961649	-0.264375
C28	C	-0.976712	-1.039931	-0.342770
C29	C	-1.047536	-1.023465	-0.280965
C30	C	-0.235136	-0.978235	-0.326178
C31	C	-0.116830	-0.978261	-0.326188
C32	C	-0.512778	-1.154714	-0.326179
C33	C	-0.512787	-1.229946	-0.326189
C34	C	-0.580915	-0.691751	-0.369357
C35	C	-0.580917	-0.621063	-0.369366
C36	C	-0.512762	-0.585708	-0.326157
C37	C	-0.444592	-0.621045	-0.282940
C38	C	-0.444586	-0.691733	-0.282934
C39	C	-0.444615	-0.335972	-0.282962
C40	C	-0.444629	-0.265280	-0.282970
C41	C	-0.580947	-0.265302	-0.369394
C42	C	-0.580941	-0.335989	-0.369389
C43	C	-0.512768	-0.371321	-0.326175
C44	C	-0.512765	-0.447969	-0.326166
C45	C	-0.512769	-0.509061	-0.326162
C46	C	-0.444587	-1.021533	-0.613288
C47	C	-0.444556	-1.021539	-0.683976
C48	C	-0.512605	-0.978242	-0.719307
C49	C	-0.580683	-0.934931	-0.683947
C50	C	-0.580707	-0.934921	-0.613259
C51	C	-0.580583	-0.934969	-0.969020
C52	C	-0.580556	-0.934984	-1.039712
C53	C	-0.444432	-1.021588	-1.039737
C54	C	-0.444457	-1.021578	-0.969050
C55	C	-0.512530	-0.978264	-0.933695
C56	C	-0.512561	-0.978256	-0.857046
C57	C	-0.512580	-0.978253	-0.795955
C58	C	-0.512747	-0.978173	-0.150301
C59	C	-0.512475	-0.978288	-0.075069
H60	H	-0.945843	-0.894652	-0.409505
H61	H	-1.078577	-1.008682	-0.440176
H62	H	-0.636423	-0.592298	-0.404556
H63	H	-0.945498	-1.092106	-0.356826
C64	C	-0.369646	-0.226391	-0.235443
H65	H	-0.329035	-0.257556	-0.209710
H66	H	-0.410299	-0.198797	-0.205908
H67	H	-0.323331	-0.198834	-0.261396
H68	H	-1.078946	-0.864280	-0.295564
H69	H	-0.636444	-0.364771	-0.404572
H70	H	-0.636419	-0.720532	-0.404541
H71	H	-0.389075	-0.720500	-0.247748
H72	H	-0.945998	-0.947627	-0.212128
H73	H	-1.078369	-1.061740	-0.242720
H74	H	-0.636453	-0.236527	-0.404584
C75	C	-0.369647	-0.374828	-0.235417
H76	H	-0.329071	-0.343646	-0.209678
H77	H	-0.323314	-0.402424	-0.261347
H78	H	-0.410315	-0.402381	-0.205879
C79	C	-0.369680	-1.069180	-0.722865
H80	H	-0.329166	-1.094971	-0.691699
H81	H	-0.323286	-1.043307	-0.750439
H82	H	-0.410399	-1.098666	-0.750442
H83	H	-0.389094	-0.592254	-0.247761
H84	H	-0.389176	-1.056792	-0.584526
C85	C	-0.369599	-1.069202	-0.930189
H86	H	-0.329043	-1.094991	-0.961370
H87	H	-0.410323	-1.098680	-0.902614
H88	H	-0.323228	-1.043309	-0.902616
C89	C	-0.655406	-0.887350	-1.078575
H90	H	-0.695944	-0.861547	-1.047396
H91	H	-0.701778	-0.913232	-1.106152
H92	H	-0.614662	-0.857875	-1.106148
C93	C	-0.369545	-1.069228	-1.078629
H94	H	-0.379265	-1.063031	-1.125788
H95	H	-0.385136	-1.114699	-1.067052
H96	H	-0.298029	-1.059335	-1.067046
H97	H	-0.636028	-0.899710	-0.940243
H98	H	-0.636086	-0.899675	-0.712719
C99	C	-0.655615	-0.887300	-0.574368
H100	H	-0.696154	-0.861524	-0.605532
H101	H	-0.614928	-0.857810	-0.546782
H102	H	-0.702001	-0.913195	-0.546802
