data_functionalizedCrystal
_audit_creation_method	'MofGen! by Chris Wilmer'
_symmetry_space_group_name_H-M	'P1'
_symmetry_Int_Tables_number	1
_symmetry_cell_setting	triclinic
loop_
_symmetry_equiv_pos_as_xyz
  x,y,z
_cell_length_a	16.109295
_cell_length_b	10.868271
_cell_length_c	16.109301
_cell_angle_alpha	89.993636
_cell_angle_beta	96.539666
_cell_angle_gamma	90.002028
loop_
_atom_site_label
_atom_site_type_symbol
_atom_site_fract_x
_atom_site_fract_y
_atom_site_fract_z
O1	O	-1.103135	-0.102242	0.106845
O2	O	-0.603135	0.397758	0.606845
O3	O	-0.861073	-0.102264	0.120149
O4	O	-0.361073	0.397736	0.620149
O5	O	-0.988754	-0.102240	-0.007534
O6	O	-0.488754	0.397760	0.492466
O7	O	-0.975454	-0.102266	0.234528
O8	O	-0.475454	0.397734	0.734528
O9	O	-0.988742	0.102405	-0.007538
O10	O	-0.488742	0.602405	0.492462
O11	O	-0.861061	0.102381	0.120145
O12	O	-0.361061	0.602381	0.620145
O13	O	-1.103123	0.102402	0.106841
O14	O	-0.603123	0.602402	0.606841
Zn15	Zn	-0.982090	0.134883	0.113492
Zn16	Zn	-0.482090	0.634883	0.613492
Zn17	Zn	-0.982106	-0.134745	0.113498
Zn18	Zn	-0.482106	0.365255	0.613498
O19	O	-0.975442	0.102378	0.234524
O20	O	-0.475442	0.602378	0.734524
C21	C	-0.830092	0.000056	0.119609
C22	C	-0.330092	0.500056	0.619609
C23	C	-0.737796	0.000048	0.117996
C24	C	-0.237796	0.500048	0.617996
N25	N	-0.982085	0.318897	0.113488
N26	N	-0.482085	0.818897	0.613488
C27	C	-0.515523	0.000054	0.190008
C28	C	-0.015523	0.500054	0.690008
C29	C	-0.428803	0.000061	0.188486
C30	C	0.071197	0.500061	0.688486
C31	C	-0.448677	0.000072	0.036996
C32	C	0.051323	0.500072	0.536996
C33	C	-0.535396	0.000074	0.038520
C34	C	-0.035396	0.500074	0.538520
C35	C	-0.568816	0.000058	0.115028
C36	C	-0.068816	0.500058	0.615028
C37	C	-0.395377	0.000064	0.111982
C38	C	0.104623	0.500064	0.611982
C39	C	-0.301351	0.000073	0.110331
C40	C	0.198649	0.500073	0.610331
C41	C	-0.662849	0.000052	0.116679
C42	C	-0.162849	0.500052	0.616679
C43	C	-0.982096	0.569903	0.113498
C44	C	-0.482096	1.069903	0.613498
C45	C	-0.982087	0.430226	0.113495
C46	C	-0.482087	0.930226	0.613495
C47	C	-0.134104	0.000078	0.107386
C48	C	0.365896	0.500078	0.607386
C49	C	-0.226397	0.000074	0.109014
C50	C	0.273603	0.500074	0.609014
C51	C	-0.988209	0.000083	-0.038511
C52	C	-0.488209	0.500083	0.461489
C53	C	-0.986594	0.000085	-0.130806
C54	C	-0.486594	0.500085	0.369194
N55	N	-0.982109	0.681241	0.113499
N56	N	-0.482109	1.181241	0.613499
C57	C	-1.058602	0.000071	-0.353080
C58	C	-0.558602	0.500071	0.146920
C59	C	-1.057078	0.000061	-0.439800
C60	C	-0.557078	0.500061	0.060200
C61	C	-0.905588	0.000053	-0.419923
C62	C	-0.405588	0.500053	0.080077
C63	C	-0.907113	0.000054	-0.333204
C64	C	-0.407113	0.500054	0.166796
C65	C	-0.983622	0.000070	-0.299785
C66	C	-0.483622	0.500070	0.200215
C67	C	-0.980573	0.000058	-0.473225
C68	C	-0.480573	0.500058	0.026775
C69	C	-0.978920	0.000047	-0.567251
C70	C	-0.478920	0.500047	-0.067251
C71	C	-0.985276	0.000079	-0.205754
C72	C	-0.485276	0.500079	0.294246
C73	C	-0.975987	0.000053	0.265501
C74	C	-0.475987	0.500053	0.765501
C75	C	-0.977602	0.000043	0.357796
C76	C	-0.477602	0.500043	0.857796
H77	H	-0.542731	0.000050	0.252306
H78	H	-0.042731	0.500050	0.752306
H79	H	-1.118133	0.000060	-0.483190
H80	H	-0.618133	0.500060	0.016810
Cl81	Cl	-0.361808	0.000057	0.282751
Cl82	Cl	0.138192	0.500057	0.782751
H83	H	-0.846052	0.000049	-0.289809
H84	H	-0.346052	0.500049	0.210191
H85	H	-0.421455	0.000093	-0.025294
H86	H	0.078545	0.500093	0.474706
Cl87	Cl	-0.602398	0.000089	-0.055749
Cl88	Cl	-0.102398	0.500089	0.444251
H89	H	-1.120900	0.000082	-0.325874
H90	H	-0.620900	0.500082	0.174126
H91	H	-0.843297	0.000042	-0.447144
H92	H	-0.343297	0.500042	0.052856
