data_functionalizedCrystal
_audit_creation_method	'MofGen! by Chris Wilmer'
_symmetry_space_group_name_H-M	'P1'
_symmetry_Int_Tables_number	1
_symmetry_cell_setting	triclinic
loop_
_symmetry_equiv_pos_as_xyz
  x,y,z
_cell_length_a	23.532407
_cell_length_b	23.532407
_cell_length_c	12.996460
_cell_angle_alpha	89.985369
_cell_angle_beta	89.999749
_cell_angle_gamma	82.848713
loop_
_atom_site_label
_atom_site_type_symbol
_atom_site_fract_x
_atom_site_fract_y
_atom_site_fract_z
O1	O	0.755260	0.069136	-0.085457
O2	O	0.589397	0.079139	-0.085490
O3	O	0.677330	-0.008794	-0.085444
O4	O	0.667327	0.157069	-0.085503
O5	O	0.677321	-0.008799	0.085690
O6	O	0.589388	0.079134	0.085644
O7	O	0.755251	0.069131	0.085677
Cu8	Cu	0.672319	0.074132	0.101286
Cu9	Cu	0.672329	0.074138	-0.101099
O10	O	0.667318	0.157064	0.085630
C11	C	0.568176	0.078882	0.000073
C12	C	0.504959	0.078116	0.000062
C13	C	0.105856	0.125350	0.000092
C14	C	0.046456	0.124638	0.000098
O15	O	0.009711	0.168424	0.000120
N16	N	0.023830	0.072362	0.000115
C17	C	0.060607	0.020794	0.000136
O18	O	0.035908	-0.023737	0.000152
C19	C	0.120006	0.021506	0.000137
C20	C	0.142629	0.073785	0.000109
C21	C	0.128480	0.177625	0.000065
C22	C	0.187876	0.178336	0.000057
C23	C	0.224649	0.126772	0.000075
C24	C	0.202025	0.074496	0.000101
C25	C	0.156783	-0.030062	0.000165
C26	C	0.216185	-0.029345	0.000167
C27	C	0.238808	0.022934	0.000139
C28	C	0.298194	0.023643	0.000110
N29	N	0.320821	0.075920	0.000093
C30	C	0.284048	0.127484	0.000075
C31	C	-0.064135	0.019302	0.000136
C32	C	-0.123533	0.018589	0.000128
C33	C	-0.137680	0.122434	0.000092
C34	C	-0.078281	0.123146	0.000093
C35	C	-0.041509	0.071578	0.000119
C36	C	0.408784	0.128974	0.000057
C37	C	0.468186	0.129680	0.000044
C38	C	0.482329	0.025836	0.000086
C39	C	0.422932	0.025129	0.000093
C40	C	0.386160	0.076702	0.000082
O41	O	0.334974	-0.020119	0.000093
O42	O	0.308756	0.172007	0.000073
C43	C	0.677071	-0.030013	0.000128
C44	C	0.676305	-0.093230	0.000144
C45	C	0.621110	-0.359397	0.000069
C46	C	0.621821	-0.299997	0.000077
O47	O	0.578035	-0.263252	0.000035
N48	N	0.674097	-0.277371	0.000099
C49	C	0.725666	-0.314148	0.000103
O50	O	0.770196	-0.289449	0.000121
C51	C	0.724954	-0.373547	0.000087
C52	C	0.672674	-0.396170	0.000075
C53	C	0.568834	-0.382020	0.000056
C54	C	0.568123	-0.441417	0.000050
C55	C	0.619687	-0.478189	0.000056
C56	C	0.671963	-0.455566	0.000069
C57	C	0.776521	-0.410324	0.000083
C58	C	0.775805	-0.469726	0.000067
C59	C	0.723525	-0.492349	0.000056
C60	C	0.722816	-0.551735	0.000070
N61	N	0.670539	-0.574361	0.000048
C62	C	0.618975	-0.537589	0.000041
C63	C	0.727157	-0.189406	0.000133
C64	C	0.727870	-0.130008	0.000156
C65	C	0.624025	-0.115861	0.000128
C66	C	0.623313	-0.175260	0.000113
C67	C	0.674881	-0.212032	0.000111
C68	C	0.617486	-0.662325	0.000029
C69	C	0.616779	-0.721727	0.000027
C70	C	0.720623	-0.735869	0.000049
C71	C	0.721330	-0.676473	0.000057
C72	C	0.669757	-0.639701	0.000043
O73	O	0.766579	-0.588514	0.000107
O74	O	0.574452	-0.562296	0.000009
C75	C	0.776472	0.069388	0.000111
C76	C	0.839689	0.070154	0.000116
C77	C	0.667577	0.178283	0.000056
C78	C	0.668343	0.241500	0.000034
N79	N	0.672315	0.074128	0.243633
N80	N	0.672337	0.074138	-0.243447
C81	C	0.672329	0.074138	0.663447
C82	C	0.672323	0.074137	0.546642
C83	C	0.672322	0.074134	0.453544
C84	C	0.672316	0.074132	0.336731
H85	H	0.138374	-0.072634	0.000189
C86	C	0.510615	-0.466294	0.000022
H87	H	0.480012	-0.435880	0.000008
H88	H	0.508167	-0.489184	0.059692
H89	H	0.508182	-0.489157	-0.059672
H90	H	0.526842	-0.352085	0.000047
H91	H	0.206289	0.220908	0.000034
C92	C	0.256632	-0.086072	0.000185
H93	H	0.234647	-0.117306	0.000191
H94	H	0.280102	-0.087958	0.059858
H95	H	0.280092	-0.087951	-0.059506
H96	H	0.098544	0.219617	0.000054
C97	C	-0.178138	0.179155	0.000081
H98	H	-0.216753	0.171239	0.000096
H99	H	-0.171316	0.200611	-0.059603
H100	H	-0.171311	0.200601	0.059761
H101	H	0.762606	-0.765820	0.000060
H102	H	-0.141947	-0.023982	0.000134
C103	C	0.565806	-0.200139	0.000085
H104	H	0.535201	-0.169727	0.000076
H105	H	0.563361	-0.223032	0.059752
H106	H	0.563373	-0.223000	-0.059612
C107	C	-0.023690	-0.037426	0.000143
H108	H	-0.045677	-0.068658	0.000142
H109	H	-0.000221	-0.039317	0.059818
H110	H	-0.000228	-0.039304	-0.059546
C111	C	-0.053401	0.180653	0.000072
H112	H	-0.083814	0.211258	0.000066
H113	H	-0.030522	0.183094	-0.059604
H114	H	-0.030527	0.183090	0.059759
C115	C	0.567304	-0.075403	0.000103
H116	H	0.575220	-0.036788	0.000101
H117	H	0.545844	-0.082235	0.059769
H118	H	0.545863	-0.082219	-0.059594
H119	H	0.512280	-0.016146	0.000096
H120	H	0.770441	-0.111594	0.000182
H121	H	0.769152	-0.219343	0.000139
H122	H	0.575489	-0.632392	0.000017
C123	C	0.834028	-0.385449	0.000096
H124	H	0.827076	-0.344806	0.000111
H125	H	0.855245	-0.398083	-0.059580
H126	H	0.855240	-0.398106	0.059784
C127	C	0.832529	-0.510175	0.000066
H128	H	0.824622	-0.548792	0.000050
H129	H	0.853979	-0.503357	0.059746
H130	H	0.853978	-0.503334	-0.059617
C131	C	0.778836	-0.651586	0.000082
H132	H	0.809443	-0.681996	0.000083
H133	H	0.781269	-0.628716	0.059759
H134	H	0.781276	-0.628702	-0.059604
C135	C	0.559271	-0.746612	0.000010
H136	H	0.566228	-0.787255	0.000015
H137	H	0.538058	-0.733959	-0.059672
H138	H	0.538052	-0.733979	0.059691
C139	C	0.493068	0.187190	0.000020
H140	H	0.462657	0.217797	0.000021
H141	H	0.515943	0.189631	-0.059661
H142	H	0.515946	0.189624	0.059703
H143	H	0.404512	-0.017441	0.000100
H144	H	0.378852	0.170970	0.000051
