data_functionalizedCrystal
_audit_creation_method	'MofGen! by Chris Wilmer'
_symmetry_space_group_name_H-M	'P1'
_symmetry_Int_Tables_number	1
_symmetry_cell_setting	triclinic
loop_
_symmetry_equiv_pos_as_xyz
  x,y,z
_cell_length_a	19.288864
_cell_length_b	15.995350
_cell_length_c	17.766277
_cell_angle_alpha	89.995869
_cell_angle_beta	89.976791
_cell_angle_gamma	83.314311
loop_
_atom_site_label
_atom_site_type_symbol
_atom_site_fract_x
_atom_site_fract_y
_atom_site_fract_z
O1	O	0.921624	0.104452	-0.062832
O2	O	1.421624	0.604452	0.437168
O3	O	0.719400	0.118542	-0.062780
O4	O	1.219400	0.618542	0.437220
O5	O	0.826040	-0.010412	-0.062807
O6	O	1.326040	0.489588	0.437193
O7	O	0.814984	0.233405	-0.062805
O8	O	1.314984	0.733405	0.437195
O9	O	0.826021	-0.010418	0.062382
O10	O	1.326021	0.489582	0.562382
O11	O	0.719381	0.118535	0.062408
O12	O	1.219381	0.618535	0.562408
O13	O	0.921605	0.104445	0.062357
O14	O	1.421605	0.604445	0.562357
Cu15	Cu	0.820492	0.111490	0.073813
Cu16	Cu	1.320492	0.611490	0.573813
Cu17	Cu	0.820514	0.111497	-0.074237
Cu18	Cu	1.320514	0.611497	0.425763
O19	O	0.814965	0.233399	0.062383
O20	O	1.314965	0.733399	0.562383
C21	C	0.693513	0.118085	-0.000179
C22	C	1.193513	0.618085	0.499821
C23	C	0.616406	0.116724	-0.000159
C24	C	1.116406	0.616724	0.499841
C25	C	0.571906	0.192388	-0.000171
C26	C	1.071906	0.692388	0.499829
C27	C	0.499456	0.191110	-0.000179
C28	C	0.999456	0.691110	0.499821
C29	C	0.471508	0.114163	-0.000191
C30	C	0.971508	0.614163	0.499809
C31	C	0.516018	0.038489	-0.000176
C32	C	1.016018	0.538489	0.499824
C33	C	0.588467	0.039769	-0.000160
C34	C	1.088467	0.539769	0.499840
C35	C	0.363096	0.053676	-0.044076
C36	C	0.863096	0.553676	0.455924
C37	C	0.290648	0.052398	-0.044097
C38	C	0.790648	0.552398	0.455903
C39	C	0.248053	0.110209	-0.000237
C40	C	0.748053	0.610209	0.499763
C41	C	0.277912	0.169312	0.043634
C42	C	0.777912	0.669312	0.543634
C43	C	0.350361	0.170593	0.043650
C44	C	0.850361	0.670593	0.543650
C45	C	0.392951	0.112765	-0.000208
C46	C	0.892951	0.612765	0.499792
C47	C	0.124993	0.184492	-0.000256
C48	C	0.624993	0.684492	0.499744
C49	C	0.052542	0.183210	-0.000260
C50	C	0.552542	0.683210	0.499740
C51	C	0.069106	0.030587	-0.000264
C52	C	0.569106	0.530587	0.499736
C53	C	0.141556	0.031871	-0.000253
C54	C	0.641556	0.531871	0.499747
C55	C	0.169495	0.108826	-0.000252
C56	C	0.669495	0.608826	0.499748
C57	C	0.825574	-0.041608	-0.000214
C58	C	1.325574	0.458392	0.499786
C59	C	0.824203	-0.134553	-0.000218
C60	C	1.324203	0.365447	0.499782
C61	C	0.819282	-0.472282	-0.000214
C62	C	1.319282	0.027718	0.499786
C63	C	0.743335	-0.424562	-0.000475
C64	C	1.243335	0.075438	0.499525
C65	C	0.744706	-0.327877	-0.000193
C66	C	1.244706	0.172123	0.499807
C67	C	0.821723	-0.304731	-0.000216
C68	C	1.321723	0.195269	0.499784
C69	C	0.859172	-0.345953	0.071262
C70	C	1.359172	0.154047	0.571262
C71	C	0.857264	-0.442582	0.071322
C72	C	1.357264	0.057418	0.571322
C73	C	0.858855	-0.442939	-0.071041
C74	C	1.358855	0.057061	0.428959
C75	C	0.858837	-0.345993	-0.071986
C76	C	1.358837	0.154007	0.428014
C77	C	0.823107	-0.210039	-0.000215
C78	C	1.323107	0.289961	0.499785
C79	C	0.817901	-0.566975	-0.000210
C80	C	1.317901	-0.066975	0.499790
C81	C	0.947492	0.104902	-0.000246
C82	C	1.447492	0.604902	0.499754
C83	C	1.024600	0.106263	-0.000271
C84	C	1.524600	0.606263	0.499729
C85	C	0.815432	0.264595	-0.000211
C86	C	1.315432	0.764595	0.499789
C87	C	0.816802	0.357540	-0.000212
C88	C	1.316802	0.857540	0.499788
N89	N	0.820481	0.111484	0.177944
N90	N	1.320481	0.611484	0.677944
N91	N	0.820530	0.111497	-0.178367
N92	N	1.320530	0.611497	0.321633
C93	C	0.867717	0.054411	0.217319
C94	C	1.367717	0.554411	0.717319
C95	C	0.867721	0.054407	0.296120
C96	C	1.367721	0.554407	0.796120
C97	C	0.820496	0.111490	0.335544
C98	C	1.320496	0.611490	0.835544
C99	C	0.773251	0.168567	0.296160
C100	C	1.273251	0.668567	0.796160
C101	C	0.773244	0.168564	0.217359
C102	C	1.273244	0.668564	0.717359
C103	C	0.811395	0.187781	0.460384
C104	C	1.311395	0.687781	0.960384
C105	C	0.811407	0.187785	0.539183
C106	C	1.311407	0.687785	1.039183
C107	C	0.820514	0.111500	0.578590
C108	C	1.320514	0.611500	1.078590
C109	C	0.829624	0.035208	0.539190
C110	C	1.329624	0.535208	1.039190
C111	C	0.829617	0.035204	0.460389
C112	C	1.329617	0.535204	0.960389
C113	C	0.820498	0.111500	0.420990
C114	C	1.320498	0.611500	0.920990
C115	C	0.867757	0.054419	0.703411
C116	C	1.367757	0.554419	1.203411
C117	C	0.867756	0.054414	0.782215
C118	C	1.367756	0.554414	1.282215
C119	C	0.773290	0.168581	0.782252
C120	C	1.273290	0.668581	1.282252
C121	C	0.773288	0.168579	0.703451
C122	C	1.273288	0.668579	1.203451
C123	C	0.820525	0.111499	0.664035
C124	C	1.320525	0.611499	1.164035
H125	H	0.266342	0.004277	-0.079822
H126	H	0.766342	0.504277	0.420178
C127	C	0.932583	-0.486439	0.075702
C128	C	1.432583	0.013561	0.575702
H129	H	0.931928	-0.545736	0.075766
H130	H	1.431928	-0.045736	0.575766
H131	H	0.953973	-0.469923	0.120613
H132	H	1.453973	0.030077	0.620613
H133	H	0.958311	-0.470721	0.033420
H134	H	1.458311	0.029279	0.533420
H135	H	0.915002	-0.330843	-0.076319
H136	H	1.415002	0.169157	0.423681
C137	C	0.825321	-0.470548	-0.144230
C138	C	1.325321	0.029452	0.355770
H139	H	0.786867	-0.500231	-0.132274
H140	H	1.286867	-0.000231	0.367726
H141	H	0.858836	-0.506147	-0.172154
H142	H	1.358836	-0.006147	0.327846
H143	H	0.809552	-0.422288	-0.173408
H144	H	1.309552	0.077712	0.326592
H145	H	0.624700	-0.021848	-0.000151
H146	H	1.124700	0.478152	0.499849
H147	H	0.906218	0.007938	0.671318
H148	H	1.406218	0.507938	1.171318
C149	C	0.409948	-0.009920	-0.092322
C150	C	0.909948	0.490080	0.407678
H151	H	0.457372	-0.000699	-0.086024
H152	H	0.957372	0.499301	0.413976
H153	H	0.397306	-0.002770	-0.143791
H154	H	0.897306	0.497230	0.356209
H155	H	0.404077	-0.065530	-0.076900
H156	H	0.904077	0.434470	0.423100
H157	H	0.493259	-0.024162	-0.000196
H158	H	0.993259	0.475838	0.499804
H159	H	0.906219	0.007934	0.814274
H160	H	1.406219	0.507934	1.314274
C161	C	0.450497	0.274343	-0.000203
C162	C	0.950497	0.774343	0.499797
H163	H	0.477513	0.320357	-0.000207
H164	H	0.977513	0.820357	0.499793
H165	H	0.421860	0.277023	0.043442
H166	H	0.921860	0.777023	0.543442
H167	H	0.421922	0.277004	-0.043875
H168	H	0.921922	0.777004	0.456125
C169	C	0.704941	-0.289319	-0.069408
C170	C	1.204941	0.210681	0.430592
H171	H	0.705730	-0.230043	-0.069331
H172	H	1.205730	0.269957	0.430669
H173	H	0.657965	-0.301633	-0.067630
H174	H	1.157965	0.198367	0.432370
H175	H	0.726605	-0.312489	-0.113971
H176	H	1.226605	0.187511	0.386029
H177	H	0.831457	-0.318638	-0.124863
H178	H	1.331457	0.181362	0.375137
H179	H	0.837032	-0.026916	0.428312
H180	H	1.337032	0.473084	0.928312
C181	C	0.383209	0.235592	0.091907
C182	C	0.883209	0.735592	0.591907
H183	H	0.432456	0.228076	0.085629
H184	H	0.932456	0.728076	0.585629
H185	H	0.372107	0.228022	0.143371
H186	H	0.872107	0.728022	0.643371
H187	H	0.365335	0.290784	0.076481
H188	H	0.865335	0.790784	0.576481
H189	H	0.803994	0.249907	0.571257
H190	H	1.303994	0.749907	1.071257
H191	H	0.712988	-0.442976	-0.051732
H192	H	1.212988	0.057024	0.448268
H193	H	0.713107	-0.444044	0.050512
H194	H	1.213107	0.055956	0.550512
C195	C	0.820346	-0.467178	0.143516
C196	C	1.320346	0.032822	0.643516
H197	H	0.818859	-0.526332	0.144191
H198	H	1.318859	-0.026332	0.644191
H199	H	0.774132	-0.439204	0.144639
H200	H	1.274132	0.060796	0.644639
H201	H	0.845281	-0.451181	0.186261
H202	H	1.345281	0.048819	0.686261
H203	H	0.715054	-0.299903	0.051147
H204	H	1.215054	0.200097	0.551147
C205	C	0.038373	-0.054053	-0.000282
C206	C	0.538373	0.445947	0.499718
H207	H	-0.011149	-0.043981	-0.000298
H208	H	0.488851	0.456019	0.499702
H209	H	0.053624	-0.085205	0.043374
H210	H	0.553624	0.414795	0.543374
H211	H	0.053673	-0.085189	-0.043944
H212	H	0.553673	0.414811	0.456056
H213	H	0.914850	-0.474911	-0.071538
H214	H	1.414850	0.025089	0.428462
H215	H	0.594649	0.255051	-0.000172
H216	H	1.094649	0.755051	0.499828
H217	H	0.915755	-0.332041	0.073903
H218	H	1.415755	0.167959	0.573903
C219	C	0.801382	0.271700	0.417043
C220	C	1.301382	0.771700	0.917043
H221	H	0.795969	0.317136	0.451793
H222	H	1.295969	0.817136	0.951793
H223	H	0.760938	0.273524	0.386322
H224	H	1.260938	0.773524	0.886322
H225	H	0.841072	0.276217	0.386284
H226	H	1.341072	0.776217	0.886284
C227	C	0.231066	0.232912	0.091877
C228	C	0.731066	0.732912	0.591877
H229	H	0.183643	0.223682	0.085592
H230	H	0.683643	0.723682	0.585592
H231	H	0.236937	0.288517	0.076456
H232	H	0.736937	0.788517	0.576456
H233	H	0.243711	0.225761	0.143350
H234	H	0.743711	0.725761	0.643350
C235	C	0.839637	-0.048711	0.582527
C236	C	1.339637	0.451289	1.082527
H237	H	0.838327	-0.037786	0.635100
H238	H	1.338327	0.462214	1.135100
H239	H	0.883441	-0.078708	0.569596
H240	H	1.383441	0.421292	1.069596
H241	H	0.803307	-0.081404	0.569631
H242	H	1.303307	0.418596	1.069631
C243	C	0.919683	-0.008374	0.339442
C244	C	1.419683	0.491626	0.839442
H245	H	0.947816	-0.042366	0.304681
H246	H	1.447816	0.457634	0.804681
H247	H	0.894705	-0.043152	0.370202
H248	H	1.394705	0.456848	0.870202
H249	H	0.948595	0.021671	0.370161
H250	H	1.448595	0.521671	0.870161
C251	C	0.721308	0.231360	0.339522
C252	C	1.221308	0.731360	0.839522
H253	H	0.728082	0.223194	0.392093
H254	H	1.228082	0.723194	0.892093
H255	H	0.674952	0.222409	0.326637
H256	H	1.174952	0.722409	0.826637
H257	H	0.728851	0.287221	0.326595
H258	H	1.228851	0.787221	0.826595
H259	H	0.833147	-0.317477	0.124469
H260	H	1.333147	0.182523	0.624469
C261	C	0.721343	0.231372	0.825609
C262	C	1.221343	0.731372	1.325609
H263	H	0.728114	0.223204	0.878179
H264	H	1.228114	0.723204	1.378179
H265	H	0.674989	0.222422	0.812720
H266	H	1.174989	0.722422	1.312720
H267	H	0.728888	0.287233	0.812685
H268	H	1.228888	0.787233	1.312685
C269	C	0.721336	0.231369	0.660136
C270	C	1.221336	0.731369	1.160136
H271	H	0.693214	0.265371	0.694899
H272	H	1.193214	0.765371	1.194899
H273	H	0.692422	0.201339	0.629413
H274	H	1.192422	0.701339	1.129413
H275	H	0.746323	0.266149	0.629381
H276	H	1.246323	0.766149	1.129381
C277	C	0.721288	0.231353	0.174045
C278	C	1.221288	0.731353	0.674045
H279	H	0.693164	0.265353	0.208807
H280	H	1.193164	0.765353	0.708807
H281	H	0.692376	0.201322	0.143319
H282	H	1.192376	0.701322	0.643319
H283	H	0.746276	0.266134	0.143292
H284	H	1.246276	0.766134	0.643292
H285	H	0.016310	0.244828	-0.000265
H286	H	0.516310	0.744828	0.499735
C287	C	0.919668	-0.008384	0.173965
C288	C	1.419668	0.491616	0.673965
H289	H	0.947796	-0.042380	0.208707
H290	H	1.447796	0.457620	0.708707
H291	H	0.948576	0.021643	0.143203
H292	H	1.448576	0.521643	0.643203
H293	H	0.894676	-0.043168	0.143247
H294	H	1.394676	0.456832	0.643247
C295	C	0.155733	0.269135	-0.000247
C296	C	0.655733	0.769135	0.499753
H297	H	0.205255	0.259061	-0.000246
H298	H	0.705255	0.759061	0.499754
H299	H	0.140436	0.300276	0.043408
H300	H	0.640436	0.800276	0.543408
H301	H	0.140479	0.300281	-0.043909
H302	H	0.640479	0.800281	0.456091
C303	C	0.190508	-0.051361	-0.000252
C304	C	0.690508	0.448639	0.499748
H305	H	0.163489	-0.097372	-0.000266
H306	H	0.663489	0.402628	0.499734
H307	H	0.219092	-0.054038	0.043409
H308	H	0.719092	0.445962	0.543409
H309	H	0.219135	-0.054028	-0.043909
H310	H	0.719135	0.445972	0.456091
