data_functionalizedCrystal
_audit_creation_method	'MofGen! by Chris Wilmer'
_symmetry_space_group_name_H-M	'P1'
_symmetry_Int_Tables_number	1
_symmetry_cell_setting	triclinic
loop_
_symmetry_equiv_pos_as_xyz
  x,y,z
_cell_length_a	19.077399
_cell_length_b	19.076808
_cell_length_c	19.805399
_cell_angle_alpha	87.672943
_cell_angle_beta	92.276093
_cell_angle_gamma	94.711600
loop_
_atom_site_label
_atom_site_type_symbol
_atom_site_fract_x
_atom_site_fract_y
_atom_site_fract_z
Zn1	Zn	1.066424	-0.237392	-0.332415
Zn2	Zn	1.061601	-0.355291	-0.214855
Zn3	Zn	0.948539	-0.242147	-0.223602
Zn4	Zn	0.943769	-0.359987	-0.332365
O5	O	1.005083	-0.298704	-0.275809
O6	O	1.164433	-0.249076	-0.313181
O7	O	1.046581	-0.340307	-0.121299
O8	O	0.968191	-0.142859	-0.241719
O9	O	1.160890	-0.335696	-0.226810
O10	O	1.054801	-0.139365	-0.321663
O11	O	0.963515	-0.257181	-0.127725
O12	O	0.849257	-0.261734	-0.241669
O13	O	0.960061	-0.343700	-0.427088
O14	O	0.845753	-0.348311	-0.321576
O15	O	1.050176	-0.253630	-0.427125
O16	O	1.041956	-0.454572	-0.226761
O17	O	0.955385	-0.458022	-0.313095
C18	C	0.821927	-0.306049	-0.282567
C19	C	0.743571	-0.309208	-0.285473
C20	C	0.997648	-0.481877	-0.268987
C21	C	0.994532	-0.560236	-0.266089
C22	C	0.708566	-0.265548	-0.245309
C23	C	0.634942	-0.268522	-0.248039
C24	C	0.596324	-0.315153	-0.290938
C25	C	0.631334	-0.358818	-0.331104
C26	C	0.704957	-0.355846	-0.328370
C27	C	0.375943	-0.328883	-0.303566
C28	C	0.302315	-0.331850	-0.306299
C29	C	0.305928	-0.241555	-0.223233
C30	C	0.379551	-0.238585	-0.220506
C31	C	0.414555	-0.282252	-0.260669
N32	N	0.521069	-0.318193	-0.293732
N33	N	0.489809	-0.279215	-0.257871
C34	C	1.038128	-0.595171	-0.306386
C35	C	1.035197	-0.668799	-0.303664
C36	C	0.988674	-0.707489	-0.260641
C37	C	0.945074	-0.672549	-0.220342
C38	C	0.948001	-0.598923	-0.223068
C39	C	0.975083	-0.927888	-0.248024
C40	C	0.972160	-1.001518	-0.245300
C41	C	1.062282	-0.997763	-0.328623
C42	C	1.065209	-0.924136	-0.331342
C43	C	1.021606	-0.889202	-0.291046
N44	N	0.985678	-0.782748	-0.257856
N45	N	1.024598	-0.813945	-0.293835
C46	C	1.188955	-0.291332	-0.269026
C47	C	1.267310	-0.288190	-0.266135
C48	C	1.005125	-0.298658	-0.452352
C49	C	1.005142	-0.298639	-0.527584
C50	C	1.012566	-0.114816	-0.282672
C51	C	1.015755	-0.036453	-0.285597
C52	C	1.052066	-0.251737	-0.562949
C53	C	1.052074	-0.251716	-0.633638
C54	C	1.005161	-0.298601	-0.668961
C55	C	0.958232	-0.345505	-0.633591
C56	C	0.958222	-0.345522	-0.562904
C57	C	0.958275	-0.345438	-0.918666
C58	C	0.958291	-0.345419	-0.989358
C59	C	1.052127	-0.251632	-0.989400
C60	C	1.052116	-0.251649	-0.918713
C61	C	1.005185	-0.298550	-0.883349
C62	C	1.005176	-0.298571	-0.806700
C63	C	1.005173	-0.298584	-0.745608
C64	C	1.005085	-0.298698	-0.099954
C65	C	1.005212	-0.298513	-0.024724
H66	H	0.740003	-0.227570	-0.210382
O67	O	0.907631	-0.396071	-0.671690
H68	H	0.874995	-0.428683	-0.635221
H69	H	0.920005	-0.383707	-0.534111
H70	H	1.090320	-0.213472	-0.889956
H71	H	0.733457	-0.391399	-0.361076
H72	H	0.606444	-0.232974	-0.215329
H73	H	1.076015	-0.563674	-0.341417
O74	O	1.115389	-0.882411	-0.377749
H75	H	1.110105	-0.825345	-0.372869
H76	H	0.934272	-1.033018	-0.210264
O77	O	0.421203	-0.188311	-0.174216
H78	H	0.384492	-0.158461	-0.146734
H79	H	1.070702	-0.697239	-0.336473
O80	O	0.894893	-0.714279	-0.173940
H81	H	0.865065	-0.677615	-0.146382
H82	H	0.270875	-0.369822	-0.341237
O83	O	0.268175	-0.194479	-0.179895
H84	H	0.210493	-0.204386	-0.188992
O85	O	1.109299	-1.035440	-0.372095
H86	H	1.099443	-1.093137	-0.362980
H87	H	0.920071	-0.383638	-0.889881
H88	H	0.939581	-0.899450	-0.215212
H89	H	0.912500	-0.570480	-0.190254
H90	H	0.404434	-0.364440	-0.336270
O91	O	1.102665	-0.201168	-0.524852
H92	H	1.135290	-0.168546	-0.561322
O93	O	1.102688	-0.201134	-0.671784
H94	H	1.135314	-0.168542	-0.635346
O95	O	1.102730	-0.201023	-1.027542
H96	H	1.094849	-0.208874	-1.082630
H97	H	0.599886	-0.396789	-0.366030
O98	O	0.907680	-0.395982	-1.027459
H99	H	0.917502	-0.450836	-1.011379
