data_functionalizedCrystal
_audit_creation_method	'MofGen! by Chris Wilmer'
_symmetry_space_group_name_H-M	'P1'
_symmetry_Int_Tables_number	1
_symmetry_cell_setting	triclinic
loop_
_symmetry_equiv_pos_as_xyz
  x,y,z
_cell_length_a	12.759401
_cell_length_b	14.908520
_cell_length_c	12.759393
_cell_angle_alpha	93.262473
_cell_angle_beta	89.981504
_cell_angle_gamma	93.320696
loop_
_atom_site_label
_atom_site_type_symbol
_atom_site_fract_x
_atom_site_fract_y
_atom_site_fract_z
Zn1	Zn	1.582067	-0.359100	-0.618083
Zn2	Zn	1.571798	-0.509987	-0.452530
Zn3	Zn	1.406366	-0.359147	-0.442425
Zn4	Zn	1.396199	-0.509917	-0.628166
O5	O	1.489108	-0.434538	-0.535301
O6	O	1.727726	-0.379125	-0.596130
O7	O	1.549811	-0.490026	-0.304171
O8	O	1.438226	-0.232897	-0.457278
O9	O	1.720181	-0.489981	-0.474499
O10	O	1.567313	-0.232862	-0.586332
O11	O	1.428268	-0.379205	-0.296748
O12	O	1.257997	-0.379138	-0.467055
O13	O	1.420898	-0.489862	-0.773847
O14	O	1.250528	-0.489908	-0.603519
O15	O	1.557454	-0.379058	-0.766438
O16	O	1.539952	-0.636222	-0.484277
O17	O	1.410940	-0.636171	-0.613317
C18	C	1.216142	-0.434521	-0.535286
C19	C	1.099364	-0.434536	-0.535305
C20	C	1.473257	-0.668930	-0.551010
C21	C	1.466573	-0.769204	-0.557766
C22	C	1.040634	-0.492306	-0.606257
C23	C	0.930909	-0.492318	-0.606269
C24	C	0.938654	-0.376786	-0.464369
C25	C	1.048377	-0.376771	-0.464363
C26	C	1.036161	-0.559010	-0.688179
C27	C	0.926436	-0.559022	-0.688191
C28	C	1.588489	-0.957621	-0.436200
C29	C	1.582212	-1.051837	-0.442544
C30	C	1.447746	-1.051854	-0.576803
C31	C	1.454024	-0.957638	-0.570459
C32	C	1.524397	-0.910524	-0.500154
C33	C	1.530668	-0.816307	-0.493805
C34	C	1.396208	-0.816325	-0.628069
C35	C	1.389931	-0.910541	-0.634413
C36	C	1.763140	-0.434555	-0.535317
C37	C	1.879916	-0.434563	-0.535324
C38	C	1.489187	-0.434447	-0.809328
C39	C	1.489221	-0.434408	-0.926102
C40	C	1.505049	-0.199231	-0.519553
C41	C	1.511842	-0.098957	-0.512842
C42	C	1.560336	-0.376707	-0.977108
C43	C	1.560363	-0.376674	-1.086830
C44	C	1.418158	-0.492052	-1.094531
C45	C	1.418126	-0.492079	-0.984811
C46	C	1.642440	-0.310097	-0.972663
C47	C	1.642467	-0.310064	-1.082385
C48	C	1.489093	-0.434563	-0.262335
C49	C	1.489280	-0.434348	-0.145545
H50	H	1.096192	-0.329723	-0.406594
H51	H	1.587966	-0.777948	-0.436557
O52	O	1.349206	-0.548047	-1.151724
C53	C	1.286185	-0.599100	-1.324164
C54	C	1.364345	-0.535652	-1.259526
H55	H	1.298383	-0.589087	-1.411333
H56	H	1.299701	-0.671871	-1.307534
H57	H	1.202548	-0.583267	-1.301462
H58	H	1.448012	-0.551403	-1.282190
H59	H	1.350738	-0.462900	-1.276162
H60	H	1.645782	-0.919261	-0.378948
O61	O	0.888955	-0.320769	-0.395490
C62	C	0.723356	-0.269555	-0.332647
C63	C	0.779502	-0.333053	-0.410698
H64	H	0.634856	-0.279452	-0.344930
H65	H	0.743756	-0.285315	-0.248933
H66	H	0.749906	-0.196836	-0.346344
H67	H	0.752983	-0.405794	-0.397096
H68	H	0.759102	-0.317215	-0.494384
O69	O	1.073056	-0.536726	-0.783843
C70	C	1.030035	-0.496257	-0.958201
C71	C	0.988111	-0.521462	-0.849907
H72	H	0.961376	-0.483927	-1.011650
H73	H	1.083926	-0.432587	-0.948813
H74	H	1.075847	-0.553666	-0.994333
H75	H	0.942252	-0.464111	-0.813714
H76	H	0.934274	-0.585159	-0.859362
H77	H	1.390459	-1.090230	-0.634049
H78	H	0.891935	-0.628875	-0.670947
O79	O	1.071241	-0.638216	-0.658582
C80	C	1.024763	-0.787023	-0.602821
C81	C	0.984891	-0.697379	-0.636350
H82	H	0.954970	-0.834873	-0.584816
H83	H	1.072915	-0.818488	-0.669057
H84	H	1.075937	-0.774044	-0.529692
H85	H	0.933674	-0.710281	-0.709455
H86	H	0.936797	-0.665941	-0.570052
H87	H	1.722578	-0.328777	-1.113419
O88	O	1.348937	-0.547992	-0.935202
C89	C	1.206279	-0.560124	-0.812072
C90	C	1.284565	-0.496701	-0.868203
H91	H	1.154229	-0.518682	-0.757874
H92	H	1.155395	-0.601324	-0.872829
H93	H	1.251317	-0.607334	-0.763904
H94	H	1.239612	-0.449437	-0.916369
H95	H	1.335448	-0.455564	-0.807394
H96	H	1.634405	-1.090179	-0.390468
O97	O	1.321597	-0.956450	-0.702611
C98	C	1.252374	-1.101602	-0.771931
C99	C	1.329795	-1.049726	-0.694636
H100	H	1.258992	-1.177025	-0.765524
H101	H	1.168872	-1.083222	-0.752157
H102	H	1.271997	-1.082954	-0.855398
H103	H	1.310269	-1.068346	-0.611142
H104	H	1.413275	-1.068110	-0.714500
H105	H	0.894118	-0.534082	-0.763869
O106	O	1.622020	-0.226711	-0.931735
C107	C	1.584982	-0.074720	-0.967395
C108	C	1.608076	-0.169112	-1.013886
H109	H	1.573724	-0.028119	-1.033791
H110	H	1.510529	-0.079227	-0.918095
H111	H	1.653680	-0.046917	-0.915867
H112	H	1.539443	-0.196969	-1.065461
H113	H	1.682565	-0.164547	-1.063125
O114	O	1.333833	-0.770715	-0.690239
C115	C	1.199832	-0.780678	-0.824109
C116	C	1.270398	-0.832443	-0.753755
H117	H	1.148543	-0.830563	-0.875495
H118	H	1.147788	-0.736671	-0.772902
H119	H	1.250989	-0.736466	-0.876068
H120	H	1.219323	-0.876704	-0.701784
H121	H	1.322449	-0.876393	-0.805023
O122	O	1.732697	-0.339950	-0.934225
C123	C	1.902270	-0.396148	-0.974403
C124	C	1.800120	-0.362335	-1.018074
H125	H	1.956800	-0.414273	-1.042174
H126	H	1.942563	-0.341042	-0.920474
H127	H	1.883033	-0.458226	-0.928223
H128	H	1.819266	-0.300273	-1.064302
H129	H	1.759855	-0.417495	-1.071947
H130	H	1.617825	-0.243680	-1.111977
