data_functionalizedCrystal
_audit_creation_method	'MofGen! by Chris Wilmer'
_symmetry_space_group_name_H-M	'P1'
_symmetry_Int_Tables_number	1
_symmetry_cell_setting	triclinic
loop_
_symmetry_equiv_pos_as_xyz
  x,y,z
_cell_length_a	16.625547
_cell_length_b	21.295417
_cell_length_c	16.625539
_cell_angle_alpha	90.032326
_cell_angle_beta	90.024822
_cell_angle_gamma	90.029639
loop_
_atom_site_label
_atom_site_type_symbol
_atom_site_fract_x
_atom_site_fract_y
_atom_site_fract_z
Zn1	Zn	1.232640	-0.250609	0.455978
Zn2	Zn	1.732640	0.249391	0.955978
Zn3	Zn	1.232526	-0.355882	0.321136
Zn4	Zn	1.732526	0.144118	0.821136
Zn5	Zn	1.097802	-0.250631	0.321149
Zn6	Zn	1.597802	0.249369	0.821149
Zn7	Zn	1.097755	-0.355844	0.455916
Zn8	Zn	1.597755	0.144156	0.955916
O9	O	1.165181	-0.303242	0.388545
O10	O	1.665181	0.196758	0.888545
O11	O	1.345457	-0.264581	0.438112
O12	O	1.845457	0.235419	0.938112
O13	O	1.214627	-0.341946	0.208305
O14	O	1.714627	0.158054	0.708305
O15	O	1.115755	-0.162539	0.339066
O16	O	1.615755	0.337461	0.839066
O17	O	1.345374	-0.341925	0.339044
O18	O	1.845374	0.158075	0.839044
O19	O	1.214821	-0.162523	0.438124
O20	O	1.714821	0.337477	0.938124
O21	O	1.115645	-0.264618	0.208315
O22	O	1.615645	0.235382	0.708315
O23	O	0.984963	-0.264581	0.339005
O24	O	1.484963	0.235419	0.839005
O25	O	1.115676	-0.341859	0.568757
O26	O	1.615676	0.158141	1.068757
O27	O	0.984929	-0.341881	0.438018
O28	O	1.484929	0.158119	0.938018
O29	O	1.214775	-0.264544	0.568802
O30	O	1.714775	0.235456	1.068802
O31	O	1.214581	-0.443967	0.338983
O32	O	1.714581	0.056033	0.838983
O33	O	1.115566	-0.443939	0.438006
O34	O	1.615566	0.056061	0.938006
C35	C	0.955690	-0.303229	0.388507
C36	C	1.455690	0.196771	0.888507
C37	C	0.866069	-0.303239	0.388510
C38	C	1.366069	0.196761	0.888510
C39	C	0.793286	-0.303241	0.388519
C40	C	1.293286	0.196759	0.888519
C41	C	0.701978	-0.303244	0.388540
C42	C	1.201978	0.196756	0.888540
C43	C	0.629201	-0.303250	0.388560
C44	C	1.129201	0.196750	0.888560
C45	C	0.537887	-0.303254	0.388579
C46	C	1.037887	0.196746	0.888579
C47	C	1.165078	-0.466793	0.388504
C48	C	1.665078	0.033207	0.888504
C49	C	1.165108	-0.536761	0.388513
C50	C	1.665108	-0.036761	0.888513
C51	C	1.216661	-0.569563	0.440130
C52	C	1.716661	-0.069563	0.940130
C53	C	1.216690	-0.635305	0.440150
C54	C	1.716690	-0.135305	0.940150
C55	C	1.165173	-0.668244	0.388539
C56	C	1.665173	-0.168244	0.888539
C57	C	1.113610	-0.635435	0.336919
C58	C	1.613610	-0.135435	0.836919
C59	C	1.113577	-0.569694	0.336906
C60	C	1.613577	-0.069694	0.836906
N61	N	1.159082	-0.771508	0.317973
N62	N	1.659082	-0.271508	0.817973
N63	N	1.159117	-0.833959	0.317987
N64	N	1.659117	-0.333959	0.817987
C65	C	1.165267	-0.866319	0.388575
C66	C	1.665267	-0.366319	0.888575
N67	N	1.171396	-0.833868	0.459150
N68	N	1.671396	-0.333868	0.959150
N69	N	1.171364	-0.771410	0.459134
N70	N	1.671364	-0.271410	0.959134
C71	C	1.165203	-0.739529	0.388547
C72	C	1.665203	-0.239529	0.888547
C73	C	1.216855	-0.970405	0.440218
C74	C	1.716855	-0.470405	0.940218
C75	C	1.216877	-1.036149	0.440239
C76	C	1.716877	-0.536149	0.940239
C77	C	1.113801	-1.036278	0.337000
C78	C	1.613801	-0.536278	0.837000
C79	C	1.113774	-0.970535	0.336986
C80	C	1.613774	-0.470535	0.836986
C81	C	1.165305	-0.937603	0.388594
C82	C	1.665305	-0.437603	0.888594
C83	C	1.375490	-0.303254	0.388583
C84	C	1.875490	0.196746	0.888583
C85	C	1.465111	-0.303260	0.388600
C86	C	1.965111	0.196740	0.888600
C87	C	1.165233	-0.303195	0.598854
C88	C	1.665233	0.196805	1.098854
C89	C	1.165256	-0.303175	0.688475
C90	C	1.665256	0.196825	1.188475
C91	C	1.165306	-0.139051	0.388603
C92	C	1.665306	0.360949	0.888603
C93	C	1.165359	-0.069083	0.388628
C94	C	1.665359	0.430917	0.888628
C95	C	1.165175	-0.303243	0.179054
C96	C	1.665175	0.196757	0.679054
C97	C	1.165309	-0.303086	0.089433
C98	C	1.665309	0.196914	0.589433
C99	C	1.165293	-0.303104	1.016651
C100	C	1.665293	0.196896	1.516651
C101	C	1.165280	-0.303126	0.925342
C102	C	1.665280	0.196874	1.425342
C103	C	1.165275	-0.303140	0.852566
C104	C	1.665275	0.196860	1.352566
C105	C	1.165261	-0.303161	0.761251
C106	C	1.665261	0.196839	1.261251
H107	H	1.258619	-0.542751	0.482154
H108	H	1.758619	-0.042751	0.982154
H109	H	1.071662	-0.662258	0.294898
H110	H	1.571662	-0.162258	0.794898
H111	H	1.258812	-0.943591	0.482243
H112	H	1.758812	-0.443591	0.982243
H113	H	1.071798	-0.943827	0.294952
H114	H	1.571798	-0.443827	0.794952
H115	H	1.071850	-1.063096	0.294983
H116	H	1.571850	-0.563096	0.794983
O117	O	1.267038	-1.067917	0.490406
O118	O	1.767038	-0.567917	0.990406
C119	C	1.312498	-1.024749	0.535962
C120	C	1.812498	-0.524749	1.035962
H121	H	1.315280	-0.977903	0.502928
H122	H	1.815280	-0.477903	1.002928
H123	H	1.376032	-1.043695	0.544620
H124	H	1.876032	-0.543695	1.044620
H125	H	1.282943	-1.017743	0.597173
H126	H	1.782943	-0.517743	1.097173
H127	H	1.071595	-0.542986	0.294873
H128	H	1.571595	-0.042986	0.794873
O129	O	1.266840	-0.667080	0.490326
O130	O	1.766840	-0.167080	0.990326
C131	C	1.312292	-0.623915	0.535895
C132	C	1.812292	-0.123915	1.035895
H133	H	1.315091	-0.577070	0.502861
H134	H	1.815091	-0.077070	1.002861
H135	H	1.375821	-0.642866	0.544572
H136	H	1.875821	-0.142866	1.044572
H137	H	1.282720	-0.616907	0.597097
H138	H	1.782720	-0.116907	1.097097
