data_functionalizedCrystal
_audit_creation_method	'MofGen! by Chris Wilmer'
_symmetry_space_group_name_H-M	'P1'
_symmetry_Int_Tables_number	1
_symmetry_cell_setting	triclinic
loop_
_symmetry_equiv_pos_as_xyz
  x,y,z
_cell_length_a	15.944551
_cell_length_b	17.699083
_cell_length_c	16.176319
_cell_angle_alpha	89.992304
_cell_angle_beta	89.997076
_cell_angle_gamma	83.390876
loop_
_atom_site_label
_atom_site_type_symbol
_atom_site_fract_x
_atom_site_fract_y
_atom_site_fract_z
O1	O	1.114322	0.097616	-0.068662
O2	O	1.447655	0.430949	0.264671
O3	O	1.780989	0.764283	0.598005
O4	O	0.869747	0.109651	-0.068683
O5	O	1.203081	0.442984	0.264651
O6	O	1.536414	0.776317	0.597984
O7	O	0.998945	-0.006544	-0.068665
O8	O	1.332278	0.326789	0.264669
O9	O	1.665611	0.660123	0.598002
O10	O	0.985125	0.213811	-0.068680
O11	O	1.318458	0.547144	0.264653
O12	O	1.651792	0.880477	0.597986
O13	O	0.998927	-0.006551	0.068829
O14	O	1.332260	0.326782	0.402162
O15	O	1.665593	0.660115	0.735495
O16	O	0.869729	0.109643	0.068810
O17	O	1.203063	0.442977	0.402144
O18	O	1.536396	0.776310	0.735477
O19	O	1.114304	0.097609	0.068831
O20	O	1.447638	0.430942	0.402165
O21	O	1.780971	0.764275	0.735498
Cu22	Cu	0.992015	0.103625	0.081375
Cu23	Cu	1.325349	0.436959	0.414708
Cu24	Cu	1.658682	0.770292	0.748042
Cu25	Cu	0.992036	0.103634	-0.081227
Cu26	Cu	1.325370	0.436967	0.252107
Cu27	Cu	1.658703	0.770301	0.585440
O28	O	0.985107	0.213803	0.068813
O29	O	1.318440	0.547137	0.402146
O30	O	1.651774	0.880470	0.735480
C31	C	0.998440	-0.034746	0.000082
C32	C	1.331774	0.298588	0.333415
C33	C	1.665107	0.631921	0.666749
C34	C	0.996955	-0.118766	0.000082
C35	C	1.330288	0.214567	0.333416
C36	C	1.663622	0.547900	0.666749
C37	C	0.838445	0.109147	0.000061
C38	C	1.171779	0.442481	0.333395
C39	C	1.505112	0.775814	0.666728
C40	C	0.745203	0.107650	0.000054
C41	C	1.078536	0.440983	0.333387
C42	C	1.411869	0.774316	0.666720
C43	C	1.072791	-0.167258	0.000090
C44	C	1.406124	0.166076	0.333423
C45	C	1.739458	0.499409	0.666757
C46	C	1.071390	-0.246203	0.000083
C47	C	1.404723	0.087130	0.333416
C48	C	1.738057	0.420463	0.666749
C49	C	0.994152	-0.276656	0.000073
C50	C	1.327486	0.056677	0.333407
C51	C	1.660819	0.390011	0.666740
C52	C	0.918310	-0.228158	0.000063
C53	C	1.251644	0.105175	0.333397
C54	C	1.584977	0.438508	0.666730
C55	C	0.919712	-0.149214	0.000065
C56	C	1.253045	0.184119	0.333398
C57	C	1.586379	0.517452	0.666732
C58	C	0.912656	-0.546531	0.000056
C59	C	1.245989	-0.213198	0.333389
C60	C	1.579322	0.120136	0.666723
C61	C	0.911260	-0.625481	0.000057
C62	C	1.244593	-0.292148	0.333390
C63	C	1.577926	0.041185	0.666724
C64	C	1.064334	-0.643520	0.000074
C65	C	1.397667	-0.310187	0.333407
C66	C	1.731000	0.023146	0.666740
C67	C	1.065735	-0.564576	0.000075
C68	C	1.399069	-0.231243	0.333409
C69	C	1.732402	0.102091	0.666742
C70	C	0.989894	-0.516085	0.000061
C71	C	1.323227	-0.182752	0.333394
C72	C	1.656561	0.150581	0.666728
C73	C	0.991414	-0.430484	0.000067
C74	C	1.324747	-0.097150	0.333401
C75	C	1.658081	0.236183	0.666734
C76	C	0.992632	-0.362256	0.000073
C77	C	1.325965	-0.028923	0.333406
C78	C	1.659298	0.304410	0.666740
C79	C	0.530505	0.032046	0.000075
C80	C	0.863838	0.365380	0.333408
C81	C	1.197171	0.698713	0.666742
C82	C	0.469420	0.067158	-0.067719
C83	C	0.802753	0.400491	0.265614
C84	C	1.136086	0.733824	0.598948
C85	C	0.574482	0.104940	0.000063
C86	C	0.907816	0.438273	0.333397
C87	C	1.241149	0.771607	0.666730
C88	C	0.469424	0.067168	0.067839
C89	C	0.802758	0.400501	0.401172
C90	C	1.136091	0.733834	0.734505
C91	C	0.409575	0.102317	0.000077
C92	C	0.742909	0.435650	0.333410
C93	C	1.076242	0.768984	0.666743
C94	C	0.514625	0.140071	-0.067786
C95	C	0.847959	0.473404	0.265547
C96	C	1.181292	0.806738	0.598880
C97	C	0.514636	0.140071	0.067832
C98	C	0.847970	0.473404	0.401165
C99	C	1.181303	0.806738	0.734499
C100	C	0.453569	0.175235	0.000022
C101	C	0.786902	0.508568	0.333355
C102	C	1.120235	0.841902	0.666688
C103	C	0.669481	0.106449	0.000055
C104	C	1.002815	0.439782	0.333388
C105	C	1.336148	0.773115	0.666722
C106	C	0.314577	0.100814	0.000079
C107	C	0.647911	0.434147	0.333412
C108	C	0.981244	0.767481	0.666746
C109	C	1.145606	0.098112	0.000085
C110	C	1.478940	0.431445	0.333419
C111	C	1.812273	0.764779	0.666752
C112	C	1.238849	0.099610	0.000088
C113	C	1.572182	0.432943	0.333421
C114	C	1.905516	0.766276	0.666754
C115	C	0.985611	0.242005	0.000064
C116	C	1.318944	0.575338	0.333398
C117	C	1.652278	0.908672	0.666731
C118	C	0.987097	0.326026	0.000059
C119	C	1.320430	0.659359	0.333392
C120	C	1.653763	0.992692	0.666725
N121	N	0.992007	0.103619	0.195740
N122	N	1.325340	0.436952	0.529074
N123	N	1.658673	0.770285	0.862407
N124	N	0.992052	0.103635	-0.195592
N125	N	1.325385	0.436968	0.137742
N126	N	1.658718	0.770301	0.471075
C127	C	1.049232	0.052189	0.239013
C128	C	1.382566	0.385522	0.572346
C129	C	1.715899	0.718855	0.905679
C130	C	1.049237	0.052188	0.325560
C131	C	1.382570	0.385521	0.658893
C132	C	1.715903	0.718854	0.992226
C133	C	0.992019	0.103621	0.368833
C134	C	1.325352	0.436955	0.702166
C135	C	1.658685	0.770288	1.035499
C136	C	0.934787	0.155054	0.325554
C137	C	1.268120	0.488387	0.658888
C138	C	1.601453	0.821720	0.992221
C139	C	0.934779	0.155050	0.239009
C140	C	1.268112	0.488384	0.572342
C141	C	1.601446	0.821717	0.905676
C142	C	0.934815	0.155068	0.674583
C143	C	1.268149	0.488401	1.007916
C144	C	1.601482	0.821735	1.341249
C145	C	0.934829	0.155069	0.761134
C146	C	1.268163	0.488402	1.094468
C147	C	1.601496	0.821736	1.427801
C148	C	1.049273	0.052205	0.761133
C149	C	1.382606	0.385539	1.094467
C150	C	1.715940	0.718872	1.427800
C151	C	1.049265	0.052202	0.674588
C152	C	1.382599	0.385535	1.007921
C153	C	1.715932	0.718869	1.341255
C154	C	0.992031	0.103631	0.631317
C155	C	1.325364	0.436965	0.964650
C156	C	1.658698	0.770298	1.297984
C157	C	0.992026	0.103631	0.537473
C158	C	1.325359	0.436964	0.870806
C159	C	1.658693	0.770297	1.204140
C160	C	0.992027	0.103626	0.462675
C161	C	1.325360	0.436960	0.796009
C162	C	1.658694	0.770293	1.129342
H163	H	1.135687	-0.142470	0.000102
H164	H	1.469020	0.190864	0.333436
H165	H	1.802354	0.524197	0.666769
H166	H	0.888215	0.196945	0.639358
H167	H	1.221548	0.530278	0.972692
H168	H	1.554881	0.863612	1.306025
Br169	Br	0.398086	0.276167	-0.000044
Br170	Br	0.731419	0.609501	0.333290
Br171	Br	1.064753	0.942834	0.666623
Br172	Br	0.586232	-0.068798	-0.000024
Br173	Br	0.919565	0.264535	0.333310
Br174	Br	1.252899	0.597869	0.666643
H175	H	0.848360	-0.650272	0.000051
H176	H	1.181693	-0.316939	0.333385
H177	H	1.515026	0.016394	0.666718
H178	H	0.534696	0.170873	0.125145
H179	H	0.868029	0.504207	0.458479
H180	H	1.201362	0.837540	0.791812
H181	H	1.128630	-0.539786	0.000087
H182	H	1.461964	-0.206453	0.333420
H183	H	1.795297	0.126880	0.666754
Br184	Br	0.857107	0.224846	0.180282
Br185	Br	1.190440	0.558180	0.513615
Br186	Br	1.523773	0.891513	0.846949
H187	H	0.449382	0.036330	-0.125030
H188	H	0.782715	0.369663	0.208304
H189	H	1.116048	0.702997	0.541637
Br190	Br	0.813486	-0.269486	0.000037
Br191	Br	1.146819	0.063847	0.333370
Br192	Br	1.480153	0.397181	0.666704
H193	H	0.857958	-0.109733	0.000058
H194	H	1.191292	0.223601	0.333392
H195	H	1.524625	0.556934	0.666725
H196	H	0.888194	0.196929	0.360793
H197	H	1.221528	0.530263	0.694126
H198	H	1.554861	0.863596	1.027459
Br199	Br	1.126896	-0.017613	0.180294
Br200	Br	1.460230	0.315721	0.513627
Br201	Br	1.793563	0.649054	0.846960
Br202	Br	0.547837	0.191426	-0.163419
Br203	Br	0.881170	0.524760	0.169914
Br204	Br	1.214503	0.858093	0.503247
H205	H	0.449396	0.036320	0.125151
H206	H	0.782729	0.369653	0.458484
H207	H	1.116062	0.702987	0.791818
Br208	Br	1.126898	-0.017614	0.384289
Br209	Br	1.460232	0.315720	0.717622
Br210	Br	1.793565	0.649053	1.050956
Br211	Br	1.126925	-0.017598	0.615862
Br212	Br	1.460258	0.315735	0.949196
Br213	Br	1.793592	0.649069	1.282529
Br214	Br	1.174315	-0.312011	0.000093
Br215	Br	1.507649	0.021322	0.333426
Br216	Br	1.840982	0.354655	0.666759
H217	H	1.095874	0.010326	0.796374
H218	H	1.429207	0.343660	1.129707
H219	H	1.762541	0.676993	1.463040
H220	H	1.126087	-0.683011	0.000081
H221	H	1.459421	-0.349678	0.333415
H222	H	1.792754	-0.016345	0.666748
Br223	Br	0.857172	0.224877	0.819863
Br224	Br	1.190505	0.558210	1.153196
Br225	Br	1.523838	0.891544	1.486529
Br226	Br	0.809728	-0.480732	0.000031
Br227	Br	1.143061	-0.147399	0.333365
Br228	Br	1.476394	0.185935	0.666698
