data_functionalizedCrystal
_audit_creation_method	'MofGen! by Chris Wilmer'
_symmetry_space_group_name_H-M	'P1'
_symmetry_Int_Tables_number	1
_symmetry_cell_setting	triclinic
loop_
_symmetry_equiv_pos_as_xyz
  x,y,z
_cell_length_a	11.792241
_cell_length_b	17.699083
_cell_length_c	16.776229
_cell_angle_alpha	90.008282
_cell_angle_beta	90.003025
_cell_angle_gamma	96.261785
loop_
_atom_site_label
_atom_site_type_symbol
_atom_site_fract_x
_atom_site_fract_y
_atom_site_fract_z
O1	O	1.505659	-0.103739	-0.066213
O2	O	1.175190	-0.114431	-0.066231
O3	O	1.349761	0.001054	-0.066214
O4	O	1.331088	-0.219224	-0.066229
O5	O	1.349758	0.001065	0.066362
O6	O	1.175187	-0.114420	0.066345
O7	O	1.505656	-0.103729	0.066364
Zn8	Zn	1.340421	-0.109073	0.087404
Zn9	Zn	1.340425	-0.109087	-0.087271
O10	O	1.331085	-0.219214	0.066347
C11	C	1.132906	-0.113754	0.000055
C12	C	1.006916	-0.111744	0.000048
N13	N	1.340429	-0.109090	-0.206483
C14	C	1.349091	0.029260	0.000074
C15	C	1.347083	0.113289	0.000074
C16	C	0.776248	-0.108048	0.000071
C17	C	0.904609	-0.110101	0.000058
C18	C	1.547941	-0.104406	0.000076
C19	C	1.673930	-0.106416	0.000078
C20	C	1.331756	-0.247420	0.000057
C21	C	1.333763	-0.331449	0.000051
C22	C	1.449553	0.161364	0.000081
C23	C	1.447660	0.240317	0.000074
C24	C	1.343297	0.271194	0.000066
C25	C	1.240819	0.223113	0.000056
C26	C	1.242713	0.144161	0.000058
C27	C	1.233178	0.541517	0.000049
C28	C	1.231292	0.620475	0.000050
C29	C	1.438126	0.637673	0.000066
C30	C	1.440020	0.558721	0.000067
C31	C	1.337543	0.510647	0.000054
C32	C	1.339596	0.425037	0.000060
C33	C	1.341242	0.356803	0.000065
C34	C	1.417872	-0.058056	-0.248192
C35	C	1.417876	-0.058054	-0.331644
C36	C	1.340431	-0.109084	-0.373385
C37	C	1.262984	-0.160124	-0.331670
C38	C	1.262986	-0.160129	-0.248219
C39	C	1.262975	-0.160106	-0.668217
C40	C	1.262977	-0.160095	-0.751674
C41	C	1.417866	-0.058030	-0.751642
C42	C	1.417868	-0.058035	-0.668192
C43	C	1.340425	-0.109078	-0.626483
C44	C	1.340423	-0.109080	-0.535995
C45	C	1.340427	-0.109078	-0.463872
N46	N	1.340427	-0.109063	0.206615
H47	H	1.534538	0.136230	0.000093
H48	H	1.480927	-0.016480	-0.634209
Br49	Br	1.522975	0.011209	-0.191552
Br50	Br	1.522971	0.011243	-0.808250
Br51	Br	1.522983	0.011206	-0.388253
Br52	Br	1.157885	-0.229386	-0.388315
H53	H	1.149735	0.502384	0.000039
H54	H	1.199925	-0.201687	-0.214260
Br55	Br	1.157876	-0.229374	-0.611618
Br56	Br	1.157865	-0.229354	-0.808323
Br57	Br	1.577205	0.702920	0.000084
Br58	Br	1.586732	0.305559	0.000083
H59	H	1.159272	0.105019	0.000052
H60	H	1.525003	0.533586	0.000078
H61	H	1.146302	0.645611	0.000045
H62	H	1.155844	0.248259	0.000044
