data_functionalizedCrystal
_audit_creation_method	'MofGen! by Chris Wilmer'
_symmetry_space_group_name_H-M	'P1'
_symmetry_Int_Tables_number	1
_symmetry_cell_setting	triclinic
loop_
_symmetry_equiv_pos_as_xyz
  x,y,z
_cell_length_a	11.026607
_cell_length_b	10.723024
_cell_length_c	9.198806
_cell_angle_alpha	89.996352
_cell_angle_beta	90.001089
_cell_angle_gamma	83.473057
loop_
_atom_site_label
_atom_site_type_symbol
_atom_site_fract_x
_atom_site_fract_y
_atom_site_fract_z
O1	O	0.170518	-1.693992	0.120878
O2	O	0.186840	-1.334363	0.120883
O3	O	0.001778	-1.484372	0.120876
O4	O	0.355580	-1.543983	0.120886
O5	O	0.001777	-1.484357	-0.120909
O6	O	0.186840	-1.334348	-0.120902
O7	O	0.170518	-1.693977	-0.120907
Cu8	Cu	0.178679	-1.514161	-0.142981
Cu9	Cu	0.178679	-1.514179	0.142958
O10	O	0.355580	-1.543968	-0.120899
C11	C	-0.043525	-1.473367	-0.000015
C12	C	-0.178512	-1.440584	-0.000009
C13	C	0.185652	-1.287599	-0.000009
C14	C	0.182098	-1.148278	-0.000007
C15	C	0.171706	-1.740741	-0.000011
C16	C	0.175259	-1.880062	-0.000004
C17	C	-0.251564	-1.531104	-0.000008
C18	C	-0.391080	-1.497223	-0.000003
C19	C	0.400883	-1.554973	-0.000006
C20	C	0.535869	-1.587756	-0.000002
N21	N	0.178677	-1.514157	-0.344095
C22	C	0.285649	-1.095646	-0.000003
C23	C	0.281979	-0.951650	-0.000001
C24	C	0.100633	-1.577068	-0.416295
C25	C	0.100628	-1.577086	-0.583707
N26	N	0.178671	-1.514191	0.344072
H27	H	-0.210818	-1.633684	-0.000019
C28	C	0.409093	-1.178783	-0.000006
N29	N	0.502074	-1.241401	-0.000007
C30	C	0.055490	-0.941246	-0.000012
N31	N	-0.034720	-0.987339	-0.000022
C32	C	0.010357	-1.649851	-0.667584
N33	N	-0.057639	-1.704658	-0.730764
H34	H	0.245496	-1.460333	-0.593849
C35	C	0.268939	-1.441405	-0.428019
N36	N	0.336927	-1.386606	-0.491229
C37	C	-0.409100	-1.726349	-0.000005
N38	N	-0.367650	-1.830735	-0.000010
C39	C	-0.233550	-1.301999	-0.000009
N40	N	-0.275004	-1.197613	-0.000014
H41	H	0.370627	-0.906351	0.000008
C42	C	0.010346	-1.649789	-0.332371
N43	N	-0.057667	-1.704557	-0.269162
H44	H	0.090727	-1.086734	0.000028
H45	H	-0.431820	-1.394636	0.000008
