data_functionalizedCrystal
_audit_creation_method	'MofGen! by Chris Wilmer'
_symmetry_space_group_name_H-M	'P1'
_symmetry_Int_Tables_number	1
_symmetry_cell_setting	triclinic
loop_
_symmetry_equiv_pos_as_xyz
  x,y,z
_cell_length_a	19.805407
_cell_length_b	11.169416
_cell_length_c	11.169409
_cell_angle_alpha	89.971970
_cell_angle_beta	90.024953
_cell_angle_gamma	89.984971
loop_
_atom_site_label
_atom_site_type_symbol
_atom_site_fract_x
_atom_site_fract_y
_atom_site_fract_z
Zn1	Zn	1.034829	0.477648	0.678743
Zn2	Zn	1.368162	0.810981	1.012076
Zn3	Zn	1.701495	1.144314	1.345410
Zn4	Zn	1.034761	0.678388	0.478075
Zn5	Zn	1.368094	1.011722	0.811408
Zn6	Zn	1.701428	1.345055	1.144742
Zn7	Zn	0.921634	0.477725	0.478059
Zn8	Zn	1.254968	0.811058	0.811393
Zn9	Zn	1.588301	1.144391	1.144726
Zn10	Zn	0.921633	0.678294	0.678702
Zn11	Zn	1.254967	1.011628	1.012035
Zn12	Zn	1.588300	1.344961	1.345368
O13	O	0.978214	0.578014	0.578395
O14	O	1.311548	0.911347	0.911728
O15	O	1.644881	1.244680	1.245061
O16	O	1.129536	0.504284	0.652148
O17	O	1.462870	0.837617	0.985481
O18	O	1.796203	1.170950	1.318814
O19	O	1.019727	0.651841	0.310123
O20	O	1.353060	0.985175	0.643456
O21	O	1.686393	1.318508	0.976790
O22	O	0.936679	0.309765	0.504691
O23	O	1.270012	0.643098	0.838024
O24	O	1.603345	0.976431	1.171358
O25	O	1.129486	0.651767	0.504718
O26	O	1.462820	0.985100	0.838051
O27	O	1.796153	1.318433	1.171384
O28	O	1.019842	0.309708	0.652132
O29	O	1.353175	0.643042	0.985466
O30	O	1.686509	0.976375	1.318799
O31	O	0.936613	0.504415	0.310112
O32	O	1.269946	0.837748	0.643445
O33	O	1.603280	1.171081	0.976778
O34	O	0.826918	0.504323	0.504651
O35	O	1.160251	0.837657	0.837985
O36	O	1.493584	1.170990	1.171318
O37	O	0.936677	0.651607	0.846657
O38	O	1.270010	0.984940	1.179990
O39	O	1.603343	1.318273	1.513324
O40	O	0.826917	0.651681	0.652062
O41	O	1.160250	0.985014	0.985396
O42	O	1.493583	1.318348	1.318729
O43	O	1.019841	0.504192	0.846687
O44	O	1.353174	0.837526	1.180021
O45	O	1.686508	1.170859	1.513354
O46	O	1.019725	0.846325	0.504678
O47	O	1.353059	1.179659	0.838011
O48	O	1.686392	1.512992	1.171344
O49	O	0.936611	0.846256	0.652078
O50	O	1.269944	1.179590	0.985411
O51	O	1.603278	1.512923	1.318744
C52	C	0.802358	0.578001	0.578351
C53	C	1.135692	0.911335	0.911685
C54	C	1.469025	1.244668	1.245018
C55	C	0.727126	0.578025	0.578361
C56	C	1.060460	0.911358	0.911695
C57	C	1.393793	1.244692	1.245028
C58	C	0.265365	0.501363	0.655326
C59	C	0.598698	0.834696	0.988659
C60	C	0.932031	1.168029	1.321992
C61	C	0.336053	0.501365	0.655317
C62	C	0.669387	0.834698	0.988650
C63	C	1.002720	1.168032	1.321984
C64	C	0.371365	0.578032	0.578434
C65	C	0.704698	0.911365	0.911767
C66	C	1.038031	1.244699	1.245100
C67	C	0.335984	0.654710	0.501562
C68	C	0.669317	0.988044	0.834896
C69	C	1.002651	1.321377	1.168229
C70	C	0.265297	0.654713	0.501578
C71	C	0.598630	0.988047	0.834911
C72	C	0.931963	1.321380	1.168245
C73	C	0.621057	0.654701	0.501499
C74	C	0.954391	0.988034	0.834832
C75	C	1.287724	1.321368	1.168166
C76	C	0.691749	0.654690	0.501487
C77	C	1.025083	0.988023	0.834820
C78	C	1.358416	1.321356	1.168153
C79	C	0.691814	0.501353	0.655238
C80	C	1.025147	0.834686	0.988571
C81	C	1.358480	1.168019	1.321904
C82	C	0.621126	0.501356	0.655253
C83	C	0.954460	0.834689	0.988587
C84	C	1.287793	1.168022	1.321920
C85	C	0.585752	0.578038	0.578387
C86	C	0.919085	0.911371	0.911721
C87	C	1.252419	1.244705	1.245054
C88	C	0.509104	0.578036	0.578399
C89	C	0.842437	0.911370	0.911732
C90	C	1.175770	1.244703	1.245066
C91	C	0.448012	0.578028	0.578415
C92	C	0.781345	0.911362	0.911748
C93	C	1.114678	1.244695	1.245081
C94	C	0.978179	0.889838	0.578401
C95	C	1.311512	1.223172	0.911734
C96	C	1.644846	1.556505	1.245068
C97	C	0.978226	1.023238	0.578444
C98	C	1.311559	1.356572	0.911777
C99	C	1.644893	1.689905	1.245111
C100	C	1.154757	0.578027	0.578439
C101	C	1.488090	0.911360	0.911772
C102	C	1.821424	1.244694	1.245106
C103	C	1.229989	0.578033	0.578458
C104	C	1.563322	0.911366	0.911791
C105	C	1.896656	1.244699	1.245124
C106	C	0.978266	0.577880	0.891437
C107	C	1.311600	0.911214	1.224771
C108	C	1.644933	1.244547	1.558104
C109	C	0.978288	0.577824	1.024837
C110	C	1.311622	0.911157	1.358171
C111	C	1.644955	1.244490	1.691504
C112	C	0.978261	1.264971	0.578427
C113	C	1.311595	1.598305	0.911760
C114	C	1.644928	1.931638	1.245094
C115	C	0.978264	1.131571	0.578473
C116	C	1.311597	1.464905	0.911806
C117	C	1.644931	1.798238	1.245139
C118	C	0.978201	0.578060	0.266570
C119	C	1.311535	0.911393	0.599903
C120	C	1.644868	1.244727	0.933237
C121	C	0.978310	0.577779	0.133171
C122	C	1.311644	0.911112	0.466504
C123	C	1.644977	1.244445	0.799837
H124	H	0.236619	0.438924	0.717926
H125	H	0.569953	0.772257	1.051259
H126	H	0.903286	1.105591	1.384592
H127	H	0.720624	0.438918	0.717829
H128	H	1.053957	0.772251	1.051163
H129	H	1.387291	1.105584	1.384496
H130	H	0.592379	0.438921	0.717855
H131	H	0.925713	0.772255	1.051189
H132	H	1.259046	1.105588	1.384522
H133	H	0.592264	0.717137	0.438906
H134	H	0.925597	1.050471	0.772240
H135	H	1.258930	1.383804	1.105573
H136	H	0.364853	0.438937	0.717914
H137	H	0.698186	0.772270	1.051248
H138	H	1.031520	1.105603	1.384581
H139	H	0.720498	0.717126	0.438877
H140	H	1.053831	1.050460	0.772210
H141	H	1.387165	1.383793	1.105543
H142	H	0.364740	0.717139	0.438967
H143	H	0.698073	1.050472	0.772301
H144	H	1.031407	1.383805	1.105634
H145	H	0.236495	0.717148	0.438987
H146	H	0.569828	1.050482	0.772320
H147	H	0.903161	1.383815	1.105653
