data_functionalizedCrystal
_audit_creation_method	'MofGen! by Chris Wilmer'
_symmetry_space_group_name_H-M	'P1'
_symmetry_Int_Tables_number	1
_symmetry_cell_setting	triclinic
loop_
_symmetry_equiv_pos_as_xyz
  x,y,z
_cell_length_a	18.050591
_cell_length_b	18.050589
_cell_length_c	18.050582
_cell_angle_alpha	89.981795
_cell_angle_beta	90.020922
_cell_angle_gamma	89.975773
loop_
_atom_site_label
_atom_site_type_symbol
_atom_site_fract_x
_atom_site_fract_y
_atom_site_fract_z
Zn1	Zn	1.135293	0.295786	0.420054
Zn2	Zn	1.635293	0.795786	0.920054
Zn3	Zn	1.135203	0.419969	0.295873
Zn4	Zn	1.635203	0.919969	0.795873
Zn5	Zn	1.011112	0.295789	0.295865
Zn6	Zn	1.511112	0.795789	0.795865
Zn7	Zn	1.011060	0.419930	0.420009
Zn8	Zn	1.511060	0.919930	0.920009
O9	O	1.073167	0.357868	0.357950
O10	O	1.573167	0.857868	0.857950
O11	O	1.239205	0.312274	0.403603
O12	O	1.739205	0.812274	0.903603
O13	O	1.118727	0.403514	0.191948
O14	O	1.618727	0.903514	0.691948
O15	O	1.027644	0.191864	0.312354
O16	O	1.527644	0.691864	0.812354
O17	O	1.239140	0.403511	0.312369
O18	O	1.739140	0.903511	0.812369
O19	O	1.118879	0.191862	0.403595
O20	O	1.618879	0.691862	0.903595
O21	O	1.027557	0.312279	0.191942
O22	O	1.527557	0.812279	0.691942
O23	O	0.907180	0.312241	0.312311
O24	O	1.407180	0.812241	0.812311
O25	O	1.027555	0.403444	0.523940
O26	O	1.527555	0.903444	1.023940
O27	O	0.907142	0.403447	0.403519
O28	O	1.407142	0.903447	0.903519
O29	O	1.118828	0.312236	0.523973
O30	O	1.618828	0.812236	1.023973
O31	O	1.118676	0.523888	0.312325
O32	O	1.618676	1.023888	0.812325
O33	O	1.027468	0.523860	0.403527
O34	O	1.527468	1.023860	0.903527
C35	C	0.880215	0.357841	0.357909
C36	C	1.380215	0.857841	0.857909
C37	C	0.797669	0.357847	0.357909
C38	C	1.297669	0.857847	0.857909
C39	C	1.073077	0.550820	0.357938
C40	C	1.573077	1.050820	0.857938
C41	C	1.073107	0.633366	0.357958
C42	C	1.573107	1.133366	0.857958
C43	C	0.598217	0.308191	0.308425
C44	C	1.098217	0.808191	0.808425
C45	C	0.548798	0.375927	0.290154
C46	C	1.048798	0.875927	0.790154
C47	C	0.646539	0.357869	0.357943
C48	C	1.146539	0.857869	0.857943
C49	C	0.548877	0.290157	0.376212
C50	C	1.048877	0.790157	0.876212
C51	C	0.500553	0.357885	0.357974
C52	C	1.000553	0.857885	0.857974
C53	C	0.598206	0.425641	0.339637
C54	C	1.098206	0.925641	0.839637
C55	C	0.598289	0.339825	0.425726
C56	C	1.098289	0.839825	0.925726
C57	C	0.548892	0.407607	0.407481
C58	C	1.048892	0.907607	0.907481
C59	C	0.730637	0.357859	0.357923
C60	C	1.230637	0.857859	0.857923
C61	C	0.416457	0.357903	0.357994
C62	C	0.916457	0.857903	0.857994
C63	C	1.073196	0.357835	0.551656
C64	C	1.573196	0.857835	1.051656
C65	C	1.073208	0.357821	0.634202
C66	C	1.573208	0.857821	1.134202
C67	C	1.266872	0.357897	0.357992
C68	C	1.766872	0.857897	0.857992
C69	C	1.349418	0.357909	0.358010
C70	C	1.849418	0.857909	0.858010
C71	C	1.073277	0.164163	0.357979
C72	C	1.573277	0.664163	0.857979
C73	C	1.073324	0.081617	0.357991
C74	C	1.573324	0.581617	0.857991
C75	C	1.023557	0.832828	0.407536
C76	C	1.523557	1.332828	0.907536
C77	C	1.005459	0.882261	0.339767
C78	C	1.505459	1.382261	0.839767
C79	C	1.073180	0.784497	0.357967
C80	C	1.573180	1.284497	0.857967
C81	C	1.091314	0.882146	0.425744
C82	C	1.591314	1.382146	0.925744
C83	C	1.073249	0.930482	0.357983
C84	C	1.573249	1.430482	0.857983
C85	C	1.055046	0.832842	0.290162
C86	C	1.555046	1.332842	0.790162
C87	C	1.140933	0.832722	0.376186
C88	C	1.640933	1.332722	0.876186
C89	C	1.122861	0.882133	0.308370
C90	C	1.622861	1.382133	0.808370
C91	C	1.073138	0.700398	0.357959
C92	C	1.573138	1.200398	0.857959
C93	C	1.073291	1.014578	0.357983
C94	C	1.573291	1.514578	0.857983
C95	C	1.073181	0.357848	0.164998
C96	C	1.573181	0.857848	0.664998
C97	C	1.073312	0.357652	0.082453
C98	C	1.573312	0.857652	0.582453
C99	C	1.023612	0.407353	0.833635
C100	C	1.523612	0.907353	1.333635
C101	C	1.091367	0.425511	0.883034
C102	C	1.591367	0.925511	1.383034
C103	C	1.073245	0.357765	0.785332
C104	C	1.573245	0.857765	1.285332
C105	C	1.005527	0.339586	0.883014
C106	C	1.505527	0.839586	1.383014
C107	C	1.073274	0.357711	0.931317
C108	C	1.573274	0.857711	1.431317
C109	C	1.141036	0.375958	0.833645
C110	C	1.641036	0.875958	1.333645
C111	C	1.055150	0.290002	0.833620
C112	C	1.555150	0.790002	1.333620
C113	C	1.122952	0.308134	0.882998
C114	C	1.622952	0.808134	1.382998
C115	C	1.073227	0.357797	0.701234
C116	C	1.573227	0.857797	1.201234
C117	C	1.073300	0.357679	1.015414
C118	C	1.573300	0.857679	1.515414
H119	H	0.619875	0.266226	0.266503
H120	H	1.119875	0.766226	0.766503
N121	N	0.933678	0.320311	0.910231
N122	N	1.433678	0.820311	1.410231
N123	N	0.922334	0.316668	0.978444
N124	N	1.422334	0.816668	1.478444
H125	H	0.871590	0.303059	0.997665
H126	H	1.371590	0.803059	1.497665
N127	N	0.521537	0.395086	0.218256
N128	N	1.021537	0.895086	0.718256
N129	N	0.537334	0.355612	0.163611
N130	N	1.037334	0.855612	0.663611
H131	H	0.518085	0.369139	0.112831
H132	H	1.018085	0.869139	0.612831
N133	N	0.521899	0.460382	0.460029
N134	N	1.021899	0.960382	0.960029
N135	N	0.537860	0.527405	0.453113
N136	N	1.037860	1.027405	0.953113
H137	H	0.518796	0.564680	0.490223
H138	H	1.018796	1.064680	0.990223
H139	H	1.106625	0.903802	0.483056
H140	H	1.606625	1.403802	0.983056
H141	H	0.527169	0.232894	0.391625
H142	H	1.027169	0.732894	0.891625
N143	N	0.625281	0.497504	0.320187
N144	N	1.125281	0.997504	0.820187
N145	N	0.693474	0.509088	0.317011
N146	N	1.193474	1.009088	0.817011
H147	H	0.712598	0.559839	0.303273
H148	H	1.212598	1.059839	0.803273
H149	H	0.620045	0.324530	0.483019
H150	H	1.120045	0.824530	0.983019
H151	H	1.164986	0.266177	0.904535
H152	H	1.664986	0.766177	1.404535
H153	H	0.981678	0.449342	0.811961
H154	H	1.481678	0.949342	1.311961
N155	N	0.970832	0.805674	0.460045
N156	N	1.470832	1.305674	0.960045
N157	N	0.903780	0.821585	0.453152
N158	N	1.403780	1.321585	0.953152
H159	H	0.866541	0.802407	0.490234
H160	H	1.366541	1.302407	0.990234
H161	H	0.948195	0.904037	0.324371
H162	H	1.448195	1.404037	0.824371
H163	H	1.039669	0.811275	0.232834
H164	H	1.539669	1.311275	0.732834
H165	H	1.164855	0.903645	0.266409
H166	H	1.664855	1.403645	0.766409
N167	N	1.212755	0.805412	0.395545
N168	N	1.712755	1.305412	0.895545
N169	N	1.240375	0.821158	0.457065
N170	N	1.740375	1.321158	0.957065
H171	H	1.291101	0.801870	0.470746
H172	H	1.791101	1.301870	0.970746
H173	H	1.106690	0.482794	0.904739
H174	H	1.606690	0.982794	1.404739
H175	H	1.198333	0.391377	0.812050
H176	H	1.698333	0.891377	1.312050
N177	N	1.035897	0.218161	0.806376
N178	N	1.535897	0.718161	1.306376
N179	N	0.974426	0.190492	0.822162
N180	N	1.474426	0.690492	1.322162
H181	H	0.960821	0.139753	0.802921
H182	H	1.460821	0.639753	1.302921
