data_functionalizedCrystal
_audit_creation_method	'MofGen! by Chris Wilmer'
_symmetry_space_group_name_H-M	'P1'
_symmetry_Int_Tables_number	1
_symmetry_cell_setting	triclinic
loop_
_symmetry_equiv_pos_as_xyz
  x,y,z
_cell_length_a	12.759400
_cell_length_b	17.077404
_cell_length_c	12.759393
_cell_angle_alpha	90.024604
_cell_angle_beta	89.970195
_cell_angle_gamma	89.986252
loop_
_atom_site_label
_atom_site_type_symbol
_atom_site_fract_x
_atom_site_fract_y
_atom_site_fract_z
Zn1	Zn	-0.418241	-1.200124	-0.594128
Zn2	Zn	-0.593956	-1.200043	-0.418450
Zn3	Zn	-0.418289	-1.068849	-0.418452
Zn4	Zn	-0.593875	-1.068843	-0.594076
O5	O	-0.506090	-1.134464	-0.506276
O6	O	-0.441563	-1.309960	-0.570845
O7	O	-0.570708	-1.182608	-0.271429
O8	O	-0.271262	-1.086299	-0.441778
O9	O	-0.570661	-1.309900	-0.441775
O10	O	-0.271226	-1.182747	-0.570846
O11	O	-0.441646	-1.086220	-0.271430
O12	O	-0.441567	-0.959001	-0.441728
O13	O	-0.570523	-1.086289	-0.741104
O14	O	-0.570570	-0.958997	-0.570758
O15	O	-0.441485	-1.182741	-0.741142
O16	O	-0.740966	-1.182602	-0.441725
O17	O	-0.740907	-1.086210	-0.570757
C18	C	-0.779058	-1.134418	-0.506258
C19	C	-0.895834	-1.134470	-0.506285
C20	C	-0.506066	-0.930517	-0.506238
C21	C	-0.506081	-0.843267	-0.506247
C22	C	-0.950588	-1.184668	-0.573548
C23	C	-1.060312	-1.184712	-0.573577
C24	C	-1.060519	-1.084358	-0.439070
C25	C	-0.950797	-1.084310	-0.439047
C26	C	-0.573353	-0.802295	-0.573323
C27	C	-0.573353	-0.720315	-0.573336
C28	C	-0.506085	-0.679307	-0.506267
C29	C	-0.438806	-0.720285	-0.439187
C30	C	-0.438802	-0.802264	-0.439180
C31	C	-0.438822	-0.549415	-0.439205
C32	C	-0.438828	-0.467430	-0.439210
C33	C	-0.573374	-0.467466	-0.573361
C34	C	-0.573369	-0.549444	-0.573354
C35	C	-0.506091	-0.590416	-0.506273
C36	C	-0.232057	-1.134532	-0.506318
C37	C	-0.115280	-1.134561	-0.506336
C38	C	-0.505989	-1.134523	-0.780310
C39	C	-0.505946	-1.134548	-0.897087
C40	C	-0.506109	-0.339209	-0.506304
C41	C	-0.506100	-0.426459	-0.506287
C42	C	-0.438746	-1.184774	-0.951970
C43	C	-0.438700	-1.184788	-1.061694
C44	C	-0.573066	-1.084346	-1.061642
C45	C	-0.573105	-1.084330	-0.951920
C46	C	-0.506115	-1.134451	-0.233309
C47	C	-0.505862	-1.134578	-0.116533
H48	H	-0.905840	-1.225510	-0.628299
H49	H	-0.628151	-0.434102	-0.627984
H50	H	-0.384058	-1.225663	-0.907328
H51	H	-0.384041	-0.434045	-0.384609
Cl52	Cl	-0.354243	-0.600921	-0.354873
H53	H	-0.627746	-1.043462	-1.106300
Cl54	Cl	-1.129623	-1.021302	-0.354549
Cl55	Cl	-0.354234	-0.668733	-0.354878
Cl56	Cl	-0.354224	-1.247939	-1.130686
Cl57	Cl	-0.881959	-1.021192	-0.354489
Cl58	Cl	-0.657927	-0.853839	-0.657639
H59	H	-1.104887	-1.225587	-0.628351
Cl60	Cl	-0.657927	-0.668810	-0.657665
H61	H	-0.384016	-0.835622	-0.384565
H62	H	-0.627827	-1.043424	-0.907232
H63	H	-0.628150	-0.582830	-0.627962
