data_functionalizedCrystal
_audit_creation_method	'MofGen! by Chris Wilmer'
_symmetry_space_group_name_H-M	'P1'
_symmetry_Int_Tables_number	1
_symmetry_cell_setting	triclinic
loop_
_symmetry_equiv_pos_as_xyz
  x,y,z
_cell_length_a	12.759401
_cell_length_b	17.640968
_cell_length_c	12.759400
_cell_angle_alpha	78.769511
_cell_angle_beta	90.013728
_cell_angle_gamma	78.778116
loop_
_atom_site_label
_atom_site_type_symbol
_atom_site_fract_x
_atom_site_fract_y
_atom_site_fract_z
Zn1	Zn	1.726334	-0.446893	-0.298196
Zn2	Zn	2.226334	0.053107	0.201804
Zn3	Zn	1.690714	-0.314717	-0.509417
Zn4	Zn	2.190714	0.185283	-0.009417
Zn5	Zn	1.515125	-0.314732	-0.333746
Zn6	Zn	2.015125	0.185268	0.166254
Zn7	Zn	1.550617	-0.446864	-0.473838
Zn8	Zn	2.050617	0.053136	0.026162
O9	O	1.620698	-0.380802	-0.403799
O10	O	2.120698	0.119198	0.096201
O11	O	1.868632	-0.429366	-0.326227
O12	O	2.368632	0.070634	0.173773
O13	O	1.637660	-0.204106	-0.515882
O14	O	2.137660	0.295894	-0.015882
O15	O	1.543196	-0.332281	-0.182004
O16	O	2.043196	0.167719	0.317996
O17	O	1.842461	-0.332257	-0.481410
O18	O	2.342461	0.167743	0.018590
O19	O	1.698371	-0.429380	-0.155886
O20	O	2.198371	0.070620	0.344114
O21	O	1.508656	-0.204116	-0.386817
O22	O	2.008656	0.295884	0.113183
O23	O	1.372811	-0.332253	-0.352317
O24	O	1.872811	0.167747	0.147683
O25	O	1.603688	-0.557482	-0.420771
O26	O	2.103688	-0.057482	0.079229
O27	O	1.398887	-0.429330	-0.455243
O28	O	1.898887	0.070670	0.044757
O29	O	1.732786	-0.557503	-0.291728
O30	O	2.232786	-0.057503	0.208272
O31	O	1.672076	-0.332229	-0.651723
O32	O	2.172076	0.167771	-0.151723
O33	O	1.569148	-0.429316	-0.625584
O34	O	2.069148	0.070684	-0.125584
C35	C	1.347727	-0.380791	-0.403778
C36	C	1.847727	0.119209	0.096222
C37	C	1.230954	-0.380805	-0.403789
C38	C	1.730954	0.119195	0.096211
C39	C	1.189733	-0.431448	-0.323090
C40	C	1.689733	0.068552	0.176910
C41	C	1.080011	-0.431453	-0.323109
C42	C	1.580011	0.068547	0.176891
C43	C	1.052739	-0.330169	-0.484534
C44	C	1.552739	0.169831	0.015466
C45	C	1.162459	-0.330161	-0.484510
C46	C	1.662459	0.169839	0.015490
C47	C	1.258229	-0.482091	-0.242369
C48	C	1.758229	0.017909	0.257631
C49	C	1.217009	-0.532739	-0.161665
C50	C	1.717009	-0.032739	0.338335
C51	C	1.107287	-0.532744	-0.161684
C52	C	1.607287	-0.032744	0.338316
C53	C	1.038784	-0.482101	-0.242407
C54	C	1.538784	0.017899	0.257593
C55	C	1.676169	-0.586975	-0.348315
C56	C	2.176169	-0.086975	0.151685
C57	C	1.699808	-0.674834	-0.324671
C58	C	2.199808	-0.174834	0.175329
C59	C	1.441520	-0.963735	-0.582849
C60	C	1.941520	-0.463735	-0.082849
C61	C	1.463754	-1.046292	-0.560618
C62	C	1.963754	-0.546292	-0.060618
C63	C	1.598173	-1.046304	-0.426256
C64	C	2.098173	-0.546304	0.073744
C65	C	1.575946	-0.963745	-0.448472
C66	C	2.075946	-0.463745	0.051528
C67	C	1.497619	-0.922468	-0.526770
C68	C	1.997619	-0.422468	-0.026770
C69	C	1.632046	-0.922478	-0.392393
C70	C	2.132046	-0.422478	0.107607
C71	C	1.609824	-0.839927	-0.414612
C72	C	2.109824	-0.339927	0.085388
C73	C	1.531503	-0.798643	-0.492908
C74	C	2.031503	-0.298643	0.007092
C75	C	1.475398	-0.839916	-0.548988
C76	C	1.975398	-0.339916	-0.048988
C77	C	1.710378	-0.963757	-0.314101
C78	C	2.210378	-0.463757	0.185899
C79	C	1.766477	-0.922489	-0.258023
C80	C	2.266477	-0.422489	0.241977
C81	C	1.744251	-0.839937	-0.280235
C82	C	2.244251	-0.339937	0.219765
C83	C	1.665930	-0.798653	-0.358532
C84	C	2.165930	-0.298653	0.141468
C85	C	1.800357	-0.798663	-0.224155
C86	C	2.300357	-0.298663	0.275845
C87	C	1.778135	-0.716112	-0.246373
C88	C	2.278135	-0.216112	0.253627
C89	C	1.643709	-0.716102	-0.380750
C90	C	2.143709	-0.216102	0.119250
C91	C	1.894734	-0.380813	-0.403822
C92	C	2.394734	0.119187	0.096178
C93	C	2.011512	-0.380818	-0.403831
C94	C	2.511512	0.119182	0.096169
C95	C	1.620631	-0.380785	-0.676771
C96	C	2.120631	0.119215	-0.176771
C97	C	1.620706	-0.380805	-0.793542
C98	C	2.120706	0.119195	-0.293542
C99	C	1.565502	-0.175430	-0.458992
C100	C	2.065502	0.324570	0.041008
C101	C	1.542067	-0.087572	-0.482340
C102	C	2.042067	0.412428	0.017660
C103	C	1.674390	-0.330307	-0.861965
C104	C	2.174390	0.169693	-0.361965
C105	C	1.674461	-0.330331	-0.971683
C106	C	2.174461	0.169669	-0.471683
C107	C	1.567155	-0.431353	-0.944544
C108	C	2.067155	0.068647	-0.444544
C109	C	1.567091	-0.431332	-0.834828
C110	C	2.067091	0.068668	-0.334828
C111	C	1.728004	-0.279779	-0.820680
C112	C	2.228004	0.220221	-0.320680
C113	C	1.781692	-0.229277	-0.889105
C114	C	2.281692	0.270723	-0.389105
C115	C	1.781763	-0.229301	-0.998822
C116	C	2.281763	0.270699	-0.498822
C117	C	1.728146	-0.279828	-1.040115
C118	C	2.228146	0.220172	-0.540115
C119	C	1.620798	-0.380835	-0.129757
C120	C	2.120798	0.119165	0.370243
C121	C	1.620841	-0.380850	-0.012976
C122	C	2.120841	0.119150	0.487024
H123	H	0.996956	-0.288940	-0.550256
H124	H	1.496956	0.211060	-0.050256
Cl125	Cl	1.499752	-0.494865	-0.996458
Cl126	Cl	1.999752	0.005135	-0.496458
H127	H	1.196021	-0.288923	-0.550222
H128	H	1.696021	0.211077	-0.050222
Cl129	Cl	1.545229	-0.664203	-0.479174
Cl130	Cl	2.045229	-0.164203	0.020826
Cl131	Cl	1.849265	-0.165821	-1.084836
Cl132	Cl	2.349265	0.334179	-0.584836
Cl133	Cl	1.499603	-0.494818	-0.748804
Cl134	Cl	1.999603	0.005182	-0.248804
H135	H	1.728219	-0.279850	-1.129454
H136	H	2.228219	0.220150	-0.629454
Cl137	Cl	1.849103	-0.165769	-0.837192
Cl138	Cl	2.349103	0.334231	-0.337192
Cl139	Cl	1.393216	-1.098169	-0.631123
Cl140	Cl	1.893216	-0.598169	-0.131123
H141	H	1.272790	-0.573965	-0.095938
H142	H	1.772790	-0.073965	0.404062
Cl143	Cl	1.396168	-0.482092	-0.242343
Cl144	Cl	1.896168	0.017908	0.257657
H145	H	1.073727	-0.573978	-0.095965
H146	H	1.573727	-0.073978	0.404035
Cl147	Cl	1.503571	-0.694863	-0.520847
Cl148	Cl	2.003571	-0.194863	-0.020847
Cl149	Cl	0.900843	-0.482102	-0.242419
Cl150	Cl	1.400843	0.017898	0.257581
Cl151	Cl	1.738316	-1.067537	-0.286174
Cl152	Cl	2.238316	-0.567537	0.213826
H153	H	1.411591	-0.806306	-0.612721
H154	H	1.911591	-0.306306	-0.112721
H155	H	1.377713	-0.930125	-0.646582
H156	H	1.877713	-0.430125	-0.146582
H157	H	1.661950	-1.079924	-0.362509
H158	H	2.161950	-0.579924	0.137491
H159	H	1.864137	-0.832284	-0.160412
H160	H	2.364137	-0.332284	0.339588
H161	H	1.830254	-0.956109	-0.194275
H162	H	2.330254	-0.456109	0.305725
Cl163	Cl	1.848665	-0.664229	-0.175877
Cl164	Cl	2.348665	-0.164229	0.324123
Cl165	Cl	1.728272	-0.279966	-0.682692
Cl166	Cl	2.228272	0.220034	-0.182692
