data_functionalizedCrystal
_audit_creation_method	'MofGen! by Chris Wilmer'
_symmetry_space_group_name_H-M	'P1'
_symmetry_Int_Tables_number	1
_symmetry_cell_setting	triclinic
loop_
_symmetry_equiv_pos_as_xyz
  x,y,z
_cell_length_a	18.215407
_cell_length_b	12.827892
_cell_length_c	18.215399
_cell_angle_alpha	89.976162
_cell_angle_beta	89.983101
_cell_angle_gamma	90.012851
loop_
_atom_site_label
_atom_site_type_symbol
_atom_site_fract_x
_atom_site_fract_y
_atom_site_fract_z
Zn1	Zn	1.125120	-0.416115	-0.416079
Zn2	Zn	1.458454	-0.082781	-0.082746
Zn3	Zn	1.791787	0.250552	0.250587
Zn4	Zn	1.125049	-0.590874	-0.293022
Zn5	Zn	1.458383	-0.257541	0.040312
Zn6	Zn	1.791716	0.075793	0.373645
Zn7	Zn	1.002053	-0.416140	-0.293033
Zn8	Zn	1.335386	-0.082806	0.040300
Zn9	Zn	1.668720	0.250527	0.373634
Zn10	Zn	1.002039	-0.590807	-0.416053
Zn11	Zn	1.335373	-0.257473	-0.082720
Zn12	Zn	1.668706	0.075860	0.250614
O13	O	1.063566	-0.503484	-0.354547
O14	O	1.396899	-0.170150	-0.021213
O15	O	1.730232	0.163183	0.312120
O16	O	1.228095	-0.439314	-0.399762
O17	O	1.561429	-0.105981	-0.066428
O18	O	1.894762	0.227352	0.266905
O19	O	1.108710	-0.567734	-0.190039
O20	O	1.442043	-0.234400	0.143294
O21	O	1.775376	0.098933	0.476628
O22	O	1.018414	-0.269900	-0.309371
O23	O	1.351747	0.063433	0.023962
O24	O	1.685080	0.396766	0.357296
O25	O	1.228043	-0.567709	-0.309352
O26	O	1.561376	-0.234376	0.023981
O27	O	1.894710	0.098957	0.357315
O28	O	1.108831	-0.269882	-0.399773
O29	O	1.442164	0.063451	-0.066439
O30	O	1.775498	0.396785	0.266894
O31	O	1.018345	-0.439357	-0.190047
O32	O	1.351678	-0.106024	0.143286
O33	O	1.685011	0.227309	0.476620
O34	O	0.899067	-0.439292	-0.309345
O35	O	1.232400	-0.105959	0.023988
O36	O	1.565734	0.227375	0.357321
O37	O	1.018390	-0.567595	-0.519041
O38	O	1.351724	-0.234261	-0.185707
O39	O	1.685057	0.099072	0.147626
O40	O	0.899057	-0.567619	-0.399728
O41	O	1.232390	-0.234286	-0.066394
O42	O	1.565724	0.099048	0.266939
O43	O	1.108818	-0.439249	-0.519060
O44	O	1.442151	-0.105916	-0.185727
O45	O	1.775484	0.227417	0.147607
O46	O	1.108696	-0.737101	-0.309327
O47	O	1.442030	-0.403768	0.024007
O48	O	1.775363	-0.070434	0.357340
O49	O	1.018321	-0.737052	-0.399717
O50	O	1.351655	-0.403718	-0.066384
O51	O	1.684988	-0.070385	0.266950
C52	C	0.872359	-0.503452	-0.354535
C53	C	1.205693	-0.170118	-0.021202
C54	C	1.539026	0.163215	0.312131
C55	C	0.790560	-0.503463	-0.354548
C56	C	1.123894	-0.170130	-0.021215
C57	C	1.457227	0.163204	0.312119
C58	C	0.525517	-0.570413	-0.401544
C59	C	0.858850	-0.237080	-0.068211
C60	C	1.192183	0.096253	0.265122
C61	C	0.602376	-0.570404	-0.401541
C62	C	0.935709	-0.237071	-0.068207
C63	C	1.269042	0.096262	0.265126
C64	C	0.602355	-0.436578	-0.307562
C65	C	0.935689	-0.103244	0.025771
C66	C	1.269022	0.230089	0.359104
C67	C	0.525498	-0.436593	-0.307563
C68	C	0.858831	-0.103259	0.025771
C69	C	1.192165	0.230074	0.359104
C70	C	0.487081	-0.503509	-0.354558
C71	C	0.820414	-0.170175	-0.021224
C72	C	1.153747	0.163158	0.312109
C73	C	0.640797	-0.503485	-0.354554
C74	C	0.974130	-0.170152	-0.021221
C75	C	1.307464	0.163182	0.312113
C76	C	0.724131	-0.503475	-0.354550
C77	C	1.057464	-0.170141	-0.021216
C78	C	1.390797	0.163192	0.312117
C79	C	0.403742	-0.503521	-0.354561
C80	C	0.737075	-0.170187	-0.021228
C81	C	1.070408	0.163146	0.312105
C82	C	1.063519	-0.774994	-0.354534
C83	C	1.396853	-0.441660	-0.021200
C84	C	1.730186	-0.108327	0.312133
C85	C	1.063567	-0.891147	-0.354553
C86	C	1.396900	-0.557813	-0.021220
C87	C	1.730234	-0.224480	0.312114
C88	C	1.108341	-0.942921	-0.309874
C89	C	1.441674	-0.609588	0.023459
C90	C	1.775007	-0.276255	0.356792
C91	C	1.108391	-1.062972	-0.309893
C92	C	1.441724	-0.729638	0.023440
C93	C	1.775057	-0.396305	0.356774
C94	C	1.255518	-0.503517	-0.354559
C95	C	1.588852	-0.170183	-0.021225
C96	C	1.922185	0.163150	0.312108
C97	C	1.337317	-0.503531	-0.354564
C98	C	1.670651	-0.170197	-0.021230
C99	C	2.003984	0.163136	0.312103
C100	C	1.063610	-0.503412	-0.546500
C101	C	1.396944	-0.170078	-0.213166
C102	C	1.730277	0.163255	0.120167
C103	C	1.063629	-0.503381	-0.628299
C104	C	1.396963	-0.170048	-0.294965
C105	C	1.730296	0.163286	0.038368
C106	C	1.063632	-0.230914	-0.354576
C107	C	1.396965	0.102420	-0.021243
C108	C	1.730298	0.435753	0.312091
C109	C	1.063660	-0.114760	-0.354588
C110	C	1.396993	0.218573	-0.021255
C111	C	1.730327	0.551906	0.312078
C112	C	1.110732	-0.436489	-0.816504
C113	C	1.444065	-0.103156	-0.483171
C114	C	1.777398	0.230178	-0.149837
C115	C	1.110741	-0.436459	-0.893363
C116	C	1.444074	-0.103125	-0.560029
C117	C	1.777407	0.230208	-0.226696
C118	C	1.016579	-0.570111	-0.893331
C119	C	1.349912	-0.236778	-0.559998
C120	C	1.683246	0.096555	-0.226665
C121	C	1.016567	-0.570136	-0.816474
C122	C	1.349901	-0.236802	-0.483141
C123	C	1.683234	0.096531	-0.149807
C124	C	1.063648	-0.503326	-0.778062
C125	C	1.396981	-0.169993	-0.444729
C126	C	1.730314	0.163341	-0.111396
C127	C	1.063668	-0.503271	-0.931778
C128	C	1.397002	-0.169938	-0.598445
C129	C	1.730335	0.163395	-0.265112
C130	C	1.063678	-0.503239	-1.015112
C131	C	1.397011	-0.169905	-0.681779
C132	C	1.730344	0.163428	-0.348445
C133	C	1.063638	-0.503357	-0.694723
C134	C	1.396971	-0.170024	-0.361390
C135	C	1.730304	0.163310	-0.028057
C136	C	1.063563	-0.503480	-0.163341
C137	C	1.396897	-0.170147	0.169993
C138	C	1.730230	0.163187	0.503326
C139	C	1.063687	-0.503216	-0.081542
C140	C	1.397020	-0.169883	0.251791
C141	C	1.730353	0.163450	0.585125
H142	H	0.494203	-0.382109	-0.269297
H143	H	0.827536	-0.048776	0.064036
H144	H	1.160869	0.284557	0.397370
H145	H	1.025323	-1.070243	-0.392839
H146	H	1.358656	-0.736910	-0.059505
H147	H	1.691989	-0.403577	0.273828
F148	F	1.013515	-0.949372	-0.404573
F149	F	1.346848	-0.616039	-0.071240
F150	F	1.680181	-0.282705	0.262094
F151	F	0.643279	-0.641616	-0.451549
F152	F	0.976612	-0.308282	-0.118215
F153	F	1.309945	0.025051	0.215118
F154	F	1.158401	-0.884696	-0.259862
F155	F	1.491734	-0.551363	0.073471
F156	F	1.825068	-0.218029	0.406805
F157	F	1.160837	-0.365382	-0.775626
F158	F	1.494170	-0.032048	-0.442293
F159	F	1.827504	0.301285	-0.108959
H160	H	1.149080	-0.382031	-0.924659
H161	H	1.482413	-0.048698	-0.591325
H162	H	1.815747	0.284635	-0.257992
H163	H	1.146721	-1.107497	-0.271640
H164	H	1.480054	-0.774163	0.061693
H165	H	1.813388	-0.440830	0.395026
F166	F	0.484633	-0.641634	-0.451559
F167	F	0.817966	-0.308301	-0.118225
F168	F	1.151299	0.025033	0.215108
F169	F	0.966478	-0.641215	-0.934218
F170	F	1.299812	-0.307881	-0.600885
F171	F	1.633145	0.025452	-0.267552
H172	H	0.633644	-0.382095	-0.269301
H173	H	0.966978	-0.048762	0.064032
H174	H	1.300311	0.284571	0.397365
F175	F	0.966448	-0.641272	-0.775559
F176	F	1.299781	-0.307939	-0.442226
F177	F	1.633114	0.025395	-0.108892
