data_functionalizedCrystal
_audit_creation_method	'MofGen! by Chris Wilmer'
_symmetry_space_group_name_H-M	'P1'
_symmetry_Int_Tables_number	1
_symmetry_cell_setting	triclinic
loop_
_symmetry_equiv_pos_as_xyz
  x,y,z
_cell_length_a	15.995343
_cell_length_b	15.995350
_cell_length_c	11.295483
_cell_angle_alpha	94.097343
_cell_angle_beta	85.899052
_cell_angle_gamma	83.490779
loop_
_atom_site_label
_atom_site_type_symbol
_atom_site_fract_x
_atom_site_fract_y
_atom_site_fract_z
O1	O	1.116622	0.102264	-0.098899
O2	O	0.872848	0.115596	-0.098927
O3	O	1.001399	-0.012958	-0.098911
O4	O	0.988071	0.230818	-0.098915
O5	O	0.990108	-0.001684	0.099138
O6	O	0.861557	0.126870	0.099122
O7	O	1.105331	0.113538	0.099150
Cu8	Cu	0.982413	0.121233	0.117220
Cu9	Cu	0.995766	0.107901	-0.116997
O10	O	0.976781	0.242092	0.099134
C11	C	0.836008	0.120683	0.000094
C12	C	0.743058	0.119033	0.000083
C13	C	0.572870	0.116041	0.000099
C14	C	0.549525	0.023244	0.000100
C15	C	0.452821	0.021524	0.000557
C16	C	0.405310	0.113093	0.000114
C17	C	0.427966	0.166178	0.112984
C18	C	0.524754	0.167283	0.113072
C19	C	0.537505	0.155821	-0.112155
C20	C	0.441094	0.152311	-0.113632
C21	C	0.310611	0.111432	0.000126
C22	C	0.667568	0.117705	0.000095
C23	C	0.995202	-0.038516	0.000111
C24	C	0.993551	-0.131466	0.000104
C25	C	0.987619	-0.469213	0.000108
C26	C	0.896092	-0.421803	-0.000347
C27	C	0.897719	-0.325087	0.000099
C28	C	0.990561	-0.301653	0.000105
C29	C	1.029270	-0.336294	0.113204
C30	C	1.026965	-0.432924	0.113299
C31	C	1.041696	-0.446103	-0.111920
C32	C	1.041760	-0.349242	-0.113415
C33	C	0.992229	-0.206956	0.000108
C34	C	0.985953	-0.563911	0.000113
C35	C	1.142172	0.108451	0.000127
C36	C	1.235122	0.110100	0.000130
C37	C	0.982977	0.267649	0.000109
C38	C	0.984629	0.360600	0.000109
N39	N	0.973028	0.130610	0.281955
N40	N	1.005158	0.098517	-0.281732
C41	C	1.072721	0.030970	0.531257
C42	C	1.065634	0.038062	0.655919
C43	C	0.951764	0.151882	0.655946
C44	C	0.958851	0.144790	0.531283
C45	C	1.019332	0.084333	0.468943
C46	C	1.026422	0.077245	0.344278
C47	C	0.912549	0.191060	0.344306
C48	C	0.905462	0.198153	0.468969
H49	H	0.546711	0.140168	0.197766
H50	H	0.902516	0.201099	0.706719
Br51	Br	0.823380	0.280194	0.553580
H52	H	0.408545	0.218736	-0.120798
Br53	Br	0.418133	0.087735	-0.252814
H54	H	0.989217	-0.446412	0.197838
H55	H	0.857355	-0.292599	0.081304
Br56	Br	0.999944	-0.488456	-0.254798
Br57	Br	0.560918	0.269578	-0.113934
H58	H	1.109240	-0.477908	-0.112676
Br59	Br	1.138089	-0.034365	0.740486
H60	H	1.093889	-0.464882	0.118434
Br61	Br	0.840097	0.263492	0.259726
H62	H	1.075671	0.028021	0.293521
Br63	Br	0.846261	-0.285401	-0.135030
Br64	Br	1.155255	-0.324285	-0.124802
Br65	Br	0.827557	-0.447229	0.133656
Br66	Br	0.428802	-0.047027	-0.134274
H67	H	0.582146	-0.017332	-0.080827
Br68	Br	0.590151	-0.028068	0.134806
H69	H	1.097239	-0.321930	0.117414
H70	H	0.864124	-0.444950	-0.081453
H71	H	0.539052	0.235608	0.117897
Br72	Br	0.969001	-0.281007	0.253482
H73	H	0.429744	-0.010197	0.081941
H74	H	0.395899	0.233809	0.116863
H75	H	0.403068	0.138963	0.197302
H76	H	1.013514	-0.326756	-0.197083
Br77	Br	0.592753	0.098904	-0.254795
Br78	Br	1.154811	-0.051065	0.446649
