data_functionalizedCrystal
_audit_creation_method	'MofGen! by Chris Wilmer'
_symmetry_space_group_name_H-M	'P1'
_symmetry_Int_Tables_number	1
_symmetry_cell_setting	triclinic
loop_
_symmetry_equiv_pos_as_xyz
  x,y,z
_cell_length_a	8.497374
_cell_length_b	11.169416
_cell_length_c	11.169417
_cell_angle_alpha	90.005487
_cell_angle_beta	89.999901
_cell_angle_gamma	90.003741
loop_
_atom_site_label
_atom_site_type_symbol
_atom_site_fract_x
_atom_site_fract_y
_atom_site_fract_z
Zn1	Zn	0.891931	-0.477975	1.834781
Zn2	Zn	0.628155	-0.678625	1.834760
Zn3	Zn	0.628167	-0.477959	1.634135
Zn4	Zn	0.891895	-0.678619	1.634096
O5	O	0.760037	-0.578295	1.734443
O6	O	0.856951	-0.504601	2.002728
O7	O	0.407395	-0.652003	1.808155
O8	O	0.663175	-0.310012	1.660777
O9	O	0.663156	-0.652018	2.002713
O10	O	0.856962	-0.310023	1.808190
O11	O	0.407403	-0.504574	1.660757
O12	O	0.663141	-0.504568	1.466181
O13	O	1.112662	-0.652007	1.660709
O14	O	0.856901	-0.651992	1.466151
O15	O	1.112689	-0.504595	1.808151
O16	O	0.663121	-0.846574	1.808116
O17	O	0.856890	-0.846570	1.660689
C18	C	0.760019	-0.578279	1.422618
C19	C	0.760049	-0.578301	1.289218
C20	C	0.760035	-0.890120	1.734429
C21	C	0.760087	-1.023519	1.734532
C22	C	1.171517	-0.578297	1.734434
C23	C	1.350161	-0.578309	1.734437
C24	C	0.760056	-0.578312	2.047485
C25	C	0.760064	-0.578319	2.180885
C26	C	0.760074	-0.265253	1.734490
C27	C	0.760090	-0.131853	1.734510
