data_functionalizedCrystal
_audit_creation_method	'MofGen! by Chris Wilmer'
_symmetry_space_group_name_H-M	'P1'
_symmetry_Int_Tables_number	1
_symmetry_cell_setting	triclinic
loop_
_symmetry_equiv_pos_as_xyz
  x,y,z
_cell_length_a	19.805407
_cell_length_b	18.101395
_cell_length_c	19.805399
_cell_angle_alpha	90.025118
_cell_angle_beta	90.017803
_cell_angle_gamma	90.028420
loop_
_atom_site_label
_atom_site_type_symbol
_atom_site_fract_x
_atom_site_fract_y
_atom_site_fract_z
Zn1	Zn	1.034714	-0.294900	0.382699
Zn2	Zn	1.034619	-0.418743	0.269516
Zn3	Zn	0.921528	-0.294914	0.269527
Zn4	Zn	0.921482	-0.418698	0.382666
O5	O	0.978086	-0.356814	0.326102
O6	O	1.129418	-0.311341	0.367694
O7	O	1.019597	-0.402342	0.174801
O8	O	0.936601	-0.191280	0.284558
O9	O	1.129348	-0.402328	0.284539
O10	O	1.019758	-0.191269	0.367705
O11	O	0.936510	-0.311366	0.174809
O12	O	0.826806	-0.311322	0.284526
O13	O	0.936523	-0.402251	0.477387
O14	O	0.826772	-0.402265	0.367649
O15	O	1.019714	-0.311297	0.477411
O16	O	1.019553	-0.522370	0.284507
O17	O	0.936432	-0.522337	0.367638
C18	C	0.802230	-0.356791	0.326086
C19	C	0.726998	-0.356799	0.326095
C20	C	0.691690	-0.309505	0.369460
C21	C	0.621002	-0.309509	0.369462
C22	C	0.585622	-0.356811	0.326103
C23	C	0.620935	-0.404106	0.282733
C24	C	0.691622	-0.404098	0.282728
C25	C	0.335861	-0.404139	0.282754
C26	C	0.265169	-0.404146	0.282764
C27	C	0.265242	-0.309551	0.369488
C28	C	0.335929	-0.309543	0.369483
C29	C	0.371235	-0.356835	0.326111
C30	C	0.447883	-0.356829	0.326108
C31	C	0.508975	-0.356821	0.326109
C32	C	0.977995	-0.549225	0.326082
C33	C	0.978018	-0.631539	0.326096
C34	C	0.978167	-0.930630	0.326133
C35	C	0.925991	-0.899314	0.378566
C36	C	0.925743	-0.813696	0.378402
C37	C	0.978093	-0.782247	0.326115
C38	C	0.958782	-0.813394	0.254781
C39	C	0.958446	-0.899040	0.255095
C40	C	1.049768	-0.898978	0.344405
C41	C	1.049347	-0.813327	0.345970
C42	C	0.978053	-0.698388	0.326101
C43	C	0.978206	-1.014489	0.326142
C44	C	1.154629	-0.356838	0.326119
C45	C	1.229861	-0.356848	0.326126
C46	C	0.978124	-0.356767	0.502645
C47	C	0.978140	-0.356747	0.577877
C48	C	0.978195	-0.163652	0.326137
C49	C	0.978242	-0.081338	0.326152
C50	C	0.978087	-0.356807	0.150246
C51	C	0.978202	-0.356618	0.075015
C52	C	1.021458	-0.309385	0.613235
C53	C	1.021465	-0.309364	0.683923
C54	C	0.978157	-0.356709	0.719253
C55	C	0.934834	-0.404073	0.683890
C56	C	0.934824	-0.404090	0.613203
C57	C	0.934872	-0.404004	0.968963
C58	C	0.934887	-0.403985	1.039655
C59	C	1.021513	-0.309278	1.039684
C60	C	1.021503	-0.309295	0.968997
C61	C	0.978178	-0.356656	0.933640
C62	C	0.978170	-0.356678	0.856992
C63	C	0.978168	-0.356691	0.795900
H64	H	0.592123	-0.442616	0.247426
H65	H	0.720368	-0.442609	0.247415
Br66	Br	0.217154	-0.468345	0.223915
H67	H	1.088641	-0.919228	0.306216
H68	H	0.906997	-0.792006	0.239025
H69	H	0.899604	-0.442579	0.940184
Br70	Br	1.080285	-0.245043	0.921053
Br71	Br	1.080312	-0.244999	1.087672
H72	H	1.056741	-0.270798	0.712709
Br73	Br	0.876108	-0.468244	1.087602
Br74	Br	0.876053	-0.468323	0.731836
Br75	Br	0.945878	-0.778588	0.466562
H76	H	0.899543	-0.442650	0.584415
H77	H	0.364731	-0.271027	0.404793
H78	H	0.236487	-0.271040	0.404801
Br79	Br	0.838072	-0.935307	0.358666
Br80	Br	0.739699	-0.245312	0.428312
H81	H	1.063910	-0.792967	0.398468
Br82	Br	0.383768	-0.468303	0.223875
H83	H	0.872670	-0.793270	0.366299
Br84	Br	0.573087	-0.245323	0.428318
Br85	Br	0.945923	-0.933567	0.467015
H86	H	0.994801	-0.919757	0.214696
Br87	Br	0.871210	-0.932445	0.229295
H88	H	0.995590	-0.793024	0.214649
H89	H	1.067374	-0.920529	0.395536
Br90	Br	1.080242	-0.245133	0.565295
H91	H	1.090278	-0.791915	0.310563
