data_functionalizedCrystal
_audit_creation_method	'MofGen! by Chris Wilmer'
_symmetry_space_group_name_H-M	'P1'
_symmetry_Int_Tables_number	1
_symmetry_cell_setting	triclinic
loop_
_symmetry_equiv_pos_as_xyz
  x,y,z
_cell_length_a	11.792241
_cell_length_b	16.109301
_cell_length_c	15.186229
_cell_angle_alpha	89.998295
_cell_angle_beta	89.998567
_cell_angle_gamma	83.827448
loop_
_atom_site_label
_atom_site_type_symbol
_atom_site_fract_x
_atom_site_fract_y
_atom_site_fract_z
O1	O	-1.505912	-0.113949	0.073146
O2	O	-1.175468	-0.125693	0.073167
O3	O	-1.349768	0.001168	0.073147
O4	O	-1.331612	-0.240809	0.073166
O5	O	-1.349747	0.001160	-0.073310
O6	O	-1.175447	-0.125700	-0.073290
O7	O	-1.505892	-0.113956	-0.073311
Zn8	Zn	-1.340666	-0.119829	-0.096554
Zn9	Zn	-1.340693	-0.119820	0.096410
O10	O	-1.331592	-0.240816	-0.073291
C11	C	-1.133173	-0.124959	-0.000059
C12	C	-1.007179	-0.122751	-0.000051
C13	C	-1.349022	0.032142	-0.000082
C14	C	-1.346817	0.124448	-0.000083
C15	C	-1.548186	-0.114690	-0.000083
C16	C	-1.674181	-0.116898	-0.000085
C17	C	-0.776502	-0.118690	-0.000077
C18	C	-0.904868	-0.120946	-0.000063
C19	C	-1.332338	-0.271791	-0.000060
C20	C	-1.334542	-0.364097	-0.000053
N21	N	-1.340656	-0.119835	-0.228247
C22	C	-1.445116	0.346258	-0.000075
C23	C	-1.443036	0.432988	-0.000068
C24	C	-1.236235	0.414087	-0.000058
C25	C	-1.238317	0.327358	-0.000060
C26	C	-1.342761	0.293446	-0.000072
C27	C	-1.338599	0.466905	-0.000064
C28	C	-1.336342	0.560942	-0.000056
C29	C	-1.345018	0.199404	-0.000079
C30	C	-1.409491	-0.170587	-0.453970
C31	C	-1.409503	-0.170581	-0.546159
C32	C	-1.271875	-0.069049	-0.546168
C33	C	-1.271869	-0.069051	-0.453980
C34	C	-1.340675	-0.119825	-0.407883
C35	C	-1.340693	-0.119817	-0.592261
C36	C	-1.340706	-0.119810	-0.692217
C37	C	-1.340664	-0.119831	-0.307921
N38	N	-1.340712	-0.119807	0.228102
H39	H	-1.530161	0.318650	-0.000084
C40	C	-1.196945	-0.014046	-0.403988
C41	C	-1.082572	-0.036436	-0.426403
C42	C	-1.013523	0.014208	-0.380361
H43	H	-1.217904	0.042762	-0.419059
H44	H	-1.206717	-0.021325	-0.342473
H45	H	-1.072806	-0.029150	-0.487904
H46	H	-1.061578	-0.093236	-0.411330
H47	H	-1.023295	0.006928	-0.318846
H48	H	-1.034492	0.071013	-0.395435
H49	H	-0.935913	-0.000982	-0.395557
H50	H	-1.526384	0.475984	-0.000069
C51	C	-1.127058	0.270152	-0.000101
C52	C	-1.035145	0.318411	-0.000120
C53	C	-0.932642	0.265742	-0.000167
H54	H	-1.123418	0.235908	0.050958
H55	H	-1.123507	0.235939	-0.051194
H56	H	-1.038695	0.352609	0.050967
H57	H	-1.038747	0.352654	-0.051176
H58	H	-0.929091	0.231529	-0.051260
H59	H	-0.929014	0.231500	0.050893
H60	H	-0.870267	0.298478	-0.000188
C61	C	-1.122959	0.451069	-0.000099
C62	C	-1.143040	0.538326	-0.000125
C63	C	-1.038716	0.572419	-0.000178
H64	H	-1.080731	0.433065	0.050961
H65	H	-1.080803	0.433019	-0.051192
H66	H	-1.185179	0.556368	0.050962
H67	H	-1.185251	0.556353	-0.051181
H68	H	-0.996559	0.554369	-0.051270
H69	H	-0.996495	0.554409	0.050883
H70	H	-1.052327	0.631626	-0.000203
H71	H	-1.465541	-0.211916	-0.583679
C72	C	-1.484323	-0.225732	-0.404080
C73	C	-1.544614	-0.270168	-0.464178
C74	C	-1.613575	-0.320967	-0.418255
H75	H	-1.437921	-0.263839	-0.368117
H76	H	-1.536625	-0.191934	-0.368134
H77	H	-1.492318	-0.303964	-0.500108
H78	H	-1.591036	-0.232082	-0.500143
H79	H	-1.665877	-0.287169	-0.382309
H80	H	-1.567165	-0.359069	-0.382293
H81	H	-1.654499	-0.351117	-0.459023
H82	H	-1.215854	-0.027712	-0.583711
