data_functionalizedCrystal
_audit_creation_method	'MofGen! by Chris Wilmer'
_symmetry_space_group_name_H-M	'P1'
_symmetry_Int_Tables_number	1
_symmetry_cell_setting	triclinic
loop_
_symmetry_equiv_pos_as_xyz
  x,y,z
_cell_length_a	18.101398
_cell_length_b	19.120786
_cell_length_c	18.101389
_cell_angle_alpha	92.460644
_cell_angle_beta	90.024327
_cell_angle_gamma	92.460164
loop_
_atom_site_label
_atom_site_type_symbol
_atom_site_fract_x
_atom_site_fract_y
_atom_site_fract_z
Zn1	Zn	1.119565	-0.279790	0.406239
Zn2	Zn	1.452899	0.053544	0.739573
Zn3	Zn	1.786232	0.386877	1.072906
Zn4	Zn	1.114191	-0.397230	0.277109
Zn5	Zn	1.447524	-0.063897	0.610443
Zn6	Zn	1.780857	0.269436	0.943776
Zn7	Zn	0.995724	-0.279782	0.282401
Zn8	Zn	1.329058	0.053551	0.615734
Zn9	Zn	1.662391	0.386884	0.949068
Zn10	Zn	0.990406	-0.397200	0.400899
Zn11	Zn	1.323739	-0.063867	0.734233
Zn12	Zn	1.657073	0.269466	1.067566
O13	O	1.054972	-0.338501	0.341662
O14	O	1.388305	-0.005167	0.674996
O15	O	1.721638	0.328166	1.008329
O16	O	1.222484	-0.295384	0.389130
O17	O	1.555818	0.037949	0.722464
O18	O	1.889151	0.371283	1.055797
O19	O	1.098453	-0.381660	0.174178
O20	O	1.431786	-0.048327	0.507511
O21	O	1.765119	0.285006	0.840845
O22	O	1.016627	-0.181494	0.303278
O23	O	1.349961	0.151839	0.636611
O24	O	1.683294	0.485173	0.969944
O25	O	1.218536	-0.381667	0.294259
O26	O	1.551869	-0.048334	0.627593
O27	O	1.885203	0.284999	0.960926
O28	O	1.107612	-0.181499	0.394261
O29	O	1.440946	0.151834	0.727595
O30	O	1.774279	0.485167	1.060928
O31	O	1.011416	-0.295372	0.178066
O32	O	1.344749	0.037962	0.511399
O33	O	1.678083	0.371295	0.844732
O34	O	0.891387	-0.295342	0.298100
O35	O	1.224720	0.037991	0.631433
O36	O	1.558053	0.371324	0.964766
O37	O	1.007563	-0.381616	0.505241
O38	O	1.340896	-0.048283	0.838574
O39	O	1.674229	0.285051	1.171908
O40	O	0.887479	-0.381609	0.385160
O41	O	1.220813	-0.048276	0.718493
O42	O	1.554146	0.285058	1.051827
O43	O	1.102455	-0.295355	0.509164
O44	O	1.435789	0.037978	0.842498
O45	O	1.769122	0.371312	1.175831
O46	O	1.093295	-0.495516	0.289081
O47	O	1.426629	-0.162182	0.622414
O48	O	1.759962	0.171151	0.955748
O49	O	1.002351	-0.495494	0.380029
O50	O	1.335685	-0.162160	0.713362
O51	O	1.669018	0.171173	1.046696
C52	C	0.862562	-0.338472	0.341625
C53	C	1.195896	-0.005139	0.674958
C54	C	1.529229	0.328194	1.008292
C55	C	0.780248	-0.338477	0.341626
C56	C	1.113581	-0.005144	0.674959
C57	C	1.446915	0.328190	1.008292
C58	C	1.046683	-0.520990	0.333418
C59	C	1.380016	-0.187657	0.666751
C60	C	1.713350	0.145677	1.000084
C61	C	1.043205	-0.599060	0.329915
C62	C	1.376538	-0.265726	0.663249
C63	C	1.709872	0.067607	0.996582
C64	C	0.481155	-0.338521	0.341686
C65	C	0.814488	-0.005187	0.675019
C66	C	1.147822	0.328146	1.008353
C67	C	0.514926	-0.283973	0.287201
C68	C	0.848260	0.049360	0.620535
C69	C	1.181593	0.382694	0.953868
C70	C	0.600538	-0.284119	0.286952
C71	C	0.933871	0.049214	0.620285
C72	C	1.267204	0.382547	0.953619
C73	C	0.629539	-0.338498	0.341656
C74	C	0.962872	-0.005165	0.674989
C75	C	1.296205	0.328168	1.008323
C76	C	0.595100	-0.412484	0.317000
C77	C	0.928434	-0.079151	0.650333
C78	C	1.261767	0.254183	0.983667
C79	C	0.509469	-0.412181	0.316618
C80	C	0.842802	-0.078848	0.649951
C81	C	1.176135	0.254486	0.983284
C82	C	0.513613	-0.319726	0.420932
C83	C	0.846946	0.013607	0.754265
C84	C	1.180280	0.346940	1.087598
C85	C	0.599338	-0.318078	0.420578
C86	C	0.932671	0.015255	0.753911
C87	C	1.266005	0.348588	1.087245
C88	C	0.713398	-0.338490	0.341640
C89	C	1.046732	-0.005157	0.674974
C90	C	1.380065	0.328176	1.008307
C91	C	0.397295	-0.338534	0.341700
C92	C	0.730628	-0.005200	0.675033
C93	C	1.063962	0.328133	1.008366
C94	C	1.088907	-0.635679	0.375679
C95	C	1.422240	-0.302346	0.709012
C96	C	1.755574	0.030987	1.042345
C97	C	1.085636	-0.709034	0.372389
C98	C	1.418969	-0.375701	0.705722
C99	C	1.752302	-0.042368	1.039056
C100	C	1.036666	-0.745768	0.323332
C101	C	1.370000	-0.412435	0.656665
C102	C	1.703333	-0.079101	0.989998
C103	C	0.990959	-0.709143	0.277567
C104	C	1.324293	-0.375810	0.610900
C105	C	1.657626	-0.042476	0.944233
C106	C	0.994227	-0.635790	0.280860
C107	C	1.327560	-0.302456	0.614194
C108	C	1.660894	0.030877	0.947527
C109	C	1.024428	-0.967251	0.311018
C110	C	1.357761	-0.633917	0.644352
C111	C	1.691095	-0.300584	0.977685
C112	C	1.021165	-1.040609	0.307726
C113	C	1.354499	-0.707276	0.641060
C114	C	1.687832	-0.373943	0.974393
C115	C	1.115841	-1.040495	0.402550
C116	C	1.449174	-0.707162	0.735883
C117	C	1.782508	-0.373829	1.069217
C118	C	1.119108	-0.967141	0.405836
C119	C	1.452441	-0.633807	0.739170
C120	C	1.785774	-0.300474	1.072503
C121	C	1.073398	-0.930522	0.360074
C122	C	1.406732	-0.597189	0.693407
C123	C	1.740065	-0.263855	1.026741
C124	C	1.033323	-0.820748	0.319966
C125	C	1.366656	-0.487415	0.653300
C126	C	1.699990	-0.154082	0.986633
C127	C	1.076738	-0.855543	0.363443
C128	C	1.410071	-0.522210	0.696777
C129	C	1.743405	-0.188876	1.030110
C130	C	1.248132	-0.338530	0.341700
C131	C	1.581465	-0.005196	0.675034
C132	C	1.914799	0.328137	1.008367
C133	C	1.330446	-0.338542	0.341716
C134	C	1.663779	-0.005209	0.675050
C135	C	1.997112	0.328124	1.008383
C136	C	1.055015	-0.338483	0.534825
C137	C	1.388349	-0.005150	0.868158
C138	C	1.721682	0.328184	1.201492
C139	C	1.055034	-0.338475	0.617140
C140	C	1.388367	-0.005142	0.950473
C141	C	1.721700	0.328191	1.283806
C142	C	1.063313	-0.155299	0.349956
C143	C	1.396646	0.178035	0.683289
C144	C	1.729979	0.511368	1.016622
C145	C	1.066867	-0.077229	0.353490
C146	C	1.400200	0.256104	0.686823
C147	C	1.733534	0.589438	1.020156
C148	C	1.054973	-0.338468	0.149253
C149	C	1.388306	-0.005134	0.482587
C150	C	1.721640	0.328199	0.815920
C151	C	1.055107	-0.338277	0.066948
C152	C	1.388440	-0.004944	0.400282
C153	C	1.721774	0.328389	0.733615
C154	C	1.055083	-0.338344	0.916237
C155	C	1.388416	-0.005010	1.249570
C156	C	1.721749	0.328323	1.582903
C157	C	0.995189	-0.392444	0.882451
C158	C	1.328523	-0.059111	1.215784
C159	C	1.661856	0.274222	1.549117
C160	C	0.995333	-0.392695	0.796821
C161	C	1.328667	-0.059362	1.130154
C162	C	1.662000	0.273971	1.463488
C163	C	1.055058	-0.338409	0.767851
C164	C	1.388391	-0.005076	1.101184
C165	C	1.721724	0.328258	1.434518
C166	C	1.132181	-0.358507	0.798052
C167	C	1.465515	-0.025174	1.131385
C168	C	1.798848	0.308160	1.464718
C169	C	1.131845	-0.358862	0.883681
C170	C	1.465179	-0.025529	1.217014
C171	C	1.798512	0.307805	1.550347
C172	C	1.038537	-0.264025	0.888008
C173	C	1.371870	0.069308	1.221341
C174	C	1.705203	0.402642	1.554674
C175	C	1.036781	-0.264454	0.802337
C176	C	1.370115	0.068879	1.135671
C177	C	1.703448	0.402212	1.469004
C178	C	1.055049	-0.338445	0.683990
C179	C	1.388382	-0.005111	1.017323
C180	C	1.721715	0.328222	1.350657
C181	C	1.055097	-0.338310	1.000098
C182	C	1.388431	-0.004976	1.333431
C183	C	1.721764	0.328357	1.666764
H184	H	0.624040	-0.229255	0.302789
H185	H	0.957374	0.104078	0.636122
H186	H	1.290707	0.437411	0.969456
C187	C	0.571416	-0.200235	0.458309
C188	C	0.904749	0.133098	0.791642
C189	C	1.238083	0.466432	1.124975
C190	C	0.630092	-0.244575	0.445589
C191	C	0.963426	0.088758	0.778922
C192	C	1.296759	0.422092	1.112256
H193	H	0.590407	-0.154855	0.473740
H194	H	0.923740	0.178478	0.807074
H195	H	1.257073	0.511811	1.140407
H196	H	0.540304	-0.218426	0.495787
H197	H	0.873637	0.114907	0.829120
H198	H	1.206971	0.448240	1.162453
H199	H	0.543751	-0.197344	0.414019
H200	H	0.877085	0.135989	0.747352
H201	H	1.210418	0.469322	1.080686
H202	H	0.657754	-0.247470	0.489880
H203	H	0.991088	0.085864	0.823214
H204	H	1.324421	0.419197	1.156547
H205	H	0.661217	-0.226379	0.408108
H206	H	0.994550	0.106954	0.741441
H207	H	1.327884	0.440287	1.074775
C208	C	1.192202	-0.553115	0.389781
C209	C	1.525536	-0.219782	0.723114
C210	C	1.858869	0.113552	1.056448
C211	C	1.142738	-0.595307	0.429605
C212	C	1.476071	-0.261974	0.762938
C213	C	1.809404	0.071360	1.096272
H214	H	1.225437	-0.528197	0.423077
H215	H	1.558770	-0.194864	0.756410
H216	H	1.892103	0.138470	1.089743
H217	H	1.165454	-0.520807	0.363005
H218	H	1.498787	-0.187473	0.696339
H219	H	1.832121	0.145860	1.029672
H220	H	1.219271	-0.581731	0.356261
H221	H	1.552605	-0.248398	0.689594
H222	H	1.885938	0.084935	1.022928
H223	H	1.115664	-0.566690	0.463122
H224	H	1.448998	-0.233357	0.796455
H225	H	1.782331	0.099977	1.129788
H226	H	1.169488	-0.627619	0.456393
H227	H	1.502822	-0.294286	0.789727
H228	H	1.836155	0.039047	1.123060
C229	C	1.134329	-0.179048	0.858505
C230	C	1.467663	0.154285	1.191838
C231	C	1.800996	0.487618	1.525171
C232	C	1.097478	-0.209609	0.917830
C233	C	1.430811	0.123724	1.251164
C234	C	1.764145	0.457058	1.584497
H235	H	1.170721	-0.145463	0.876920
H236	H	1.504055	0.187871	1.210254
H237	H	1.837388	0.521204	1.543587
H238	H	1.099784	-0.156646	0.828997
H239	H	1.433118	0.176688	1.162331
H240	H	1.766451	0.510021	1.495664
H241	H	1.157485	-0.214313	0.829369
H242	H	1.490819	0.119021	1.162703
H243	H	1.824152	0.452354	1.496036
H244	H	1.074317	-0.174345	0.946963
H245	H	1.407651	0.158988	1.280296
H246	H	1.740984	0.492321	1.613629
H247	H	1.132029	-0.232012	0.947350
H248	H	1.465362	0.101321	1.280684
H249	H	1.798695	0.434655	1.614017
H250	H	0.987211	-0.937442	0.273755
H251	H	1.320544	-0.604108	0.607088
H252	H	1.653878	-0.270775	0.940422
H253	H	0.494420	-0.266716	0.442707
H254	H	0.827753	0.066618	0.776040
H255	H	1.161087	0.399951	1.109374
H256	H	0.491574	-0.359457	0.461569
H257	H	0.824907	-0.026124	0.794902
H258	H	1.158240	0.307210	1.128236
H259	H	1.158983	-0.937233	0.445783
H260	H	1.492316	-0.603900	0.779116
H261	H	1.825649	-0.270567	1.112449
H262	H	0.615787	-0.428701	0.259575
H263	H	0.949121	-0.095368	0.592908
H264	H	1.282454	0.237966	0.926242
H265	H	1.146915	-0.412258	0.774189
H266	H	1.480248	-0.078924	1.107522
H267	H	1.813582	0.254409	1.440856
C268	C	1.179573	-0.701554	0.466420
C269	C	1.512906	-0.368220	0.799753
C270	C	1.846239	-0.034887	1.133087
C271	C	1.135889	-0.749286	0.422677
C272	C	1.469223	-0.415953	0.756011
C273	C	1.802556	-0.082620	1.089344
H274	H	1.210604	-0.726405	0.497460
H275	H	1.543938	-0.393072	0.830793
H276	H	1.877271	-0.059738	1.164127
H277	H	1.148570	-0.672962	0.496011
H278	H	1.481904	-0.339628	0.829344
H279	H	1.815237	-0.006295	1.162678
H280	H	1.209178	-0.672929	0.435452
H281	H	1.542511	-0.339596	0.768785
H282	H	1.875845	-0.006263	1.102118
H283	H	1.106280	-0.777907	0.453646
H284	H	1.439613	-0.444574	0.786979
H285	H	1.772946	-0.111241	1.120312
H286	H	1.166895	-0.777890	0.393084
H287	H	1.500228	-0.444557	0.726417
H288	H	1.833562	-0.111224	1.059750
H289	H	0.938039	-0.380118	0.776355
H290	H	1.271372	-0.046785	1.109688
H291	H	1.604706	0.286549	1.443022
C292	C	0.916686	-0.228207	0.859210
C293	C	1.250019	0.105126	1.192543
C294	C	1.583353	0.438460	1.525876
C295	C	0.964171	-0.239308	0.918257
C296	C	1.297505	0.094025	1.251590
C297	C	1.630838	0.427358	1.584923
H298	H	0.870777	-0.212951	0.877888
H299	H	1.204110	0.120383	1.211221
H300	H	1.537443	0.453716	1.544554
H301	H	0.908708	-0.270691	0.830629
H302	H	1.242041	0.062643	1.163962
H303	H	1.575374	0.395976	1.497295
H304	H	0.938366	-0.193441	0.829074
H305	H	1.271700	0.139892	1.162408
H306	H	1.605033	0.473226	1.495741
H307	H	0.942493	-0.274078	0.948389
H308	H	1.275827	0.059255	1.281723
H309	H	1.609160	0.392588	1.615056
H310	H	0.972148	-0.196819	0.946850
H311	H	1.305481	0.136514	1.280183
H312	H	1.638815	0.469848	1.613517
H313	H	0.993454	-0.850665	0.280022
H314	H	1.326787	-0.517332	0.613355
H315	H	1.660121	-0.183998	0.946689
C316	C	1.152867	-1.152890	0.439612
C317	C	1.486200	-0.819557	0.772945
C318	C	1.819534	-0.486223	1.106279
C319	C	1.166076	-1.080748	0.452857
C320	C	1.499409	-0.747415	0.786190
C321	C	1.832742	-0.414081	1.119524
H322	H	1.183877	-1.177738	0.470676
H323	H	1.517210	-0.844405	0.804010
H324	H	1.850544	-0.511072	1.137343
H325	H	1.163204	-1.164922	0.389332
H326	H	1.496537	-0.831589	0.722665
H327	H	1.829870	-0.498256	1.055998
H328	H	1.102563	-1.164936	0.449858
H329	H	1.435896	-0.831603	0.783191
H330	H	1.769230	-0.498269	1.116524
H331	H	1.216379	-1.068701	0.442606
H332	H	1.549712	-0.735368	0.775939
H333	H	1.883045	-0.402035	1.109273
H334	H	1.155744	-1.068711	0.503149
H335	H	1.489078	-0.735378	0.836482
H336	H	1.822411	-0.402044	1.169816
H337	H	0.981285	-1.070516	0.267777
H338	H	1.314618	-0.737183	0.601111
H339	H	1.647951	-0.403849	0.934444
H340	H	0.492826	-0.296256	0.228893
H341	H	0.826159	0.037077	0.562226
H342	H	1.159492	0.370410	0.895560
H343	H	0.619090	-0.354914	0.463618
H344	H	0.952423	-0.021581	0.796951
H345	H	1.285757	0.311753	1.130285
C346	C	0.566353	-0.310858	0.160380
C347	C	0.899686	0.022476	0.493713
C348	C	1.233019	0.355809	0.827047
C349	C	0.627404	-0.300895	0.207775
C350	C	0.960737	0.032438	0.541108
C351	C	1.294071	0.365771	0.874442
H352	H	0.582940	-0.321220	0.111499
H353	H	0.916273	0.012113	0.444832
H354	H	1.249607	0.345447	0.778166
H355	H	0.539203	-0.269414	0.161130
H356	H	0.872537	0.063919	0.494463
H357	H	1.205870	0.397252	0.827796
H358	H	0.535517	-0.348705	0.176364
H359	H	0.868850	-0.015372	0.509697
H360	H	1.202184	0.317962	0.843031
H361	H	0.658237	-0.263045	0.191794
H362	H	0.991570	0.070289	0.525127
H363	H	1.324904	0.403622	0.858461
H364	H	0.654565	-0.342344	0.207022
H365	H	0.987899	-0.009010	0.540356
H366	H	1.321232	0.324323	0.873689
C367	C	0.943919	-0.821638	0.230406
C368	C	1.277252	-0.488305	0.563740
C369	C	1.610585	-0.154971	0.897073
C370	C	0.937133	-0.749519	0.223639
C371	C	1.270466	-0.416186	0.556972
C372	C	1.603800	-0.082853	0.890306
H373	H	0.910692	-0.846562	0.197107
H374	H	1.244025	-0.513228	0.530441
H375	H	1.577359	-0.179895	0.863774
H376	H	0.932513	-0.833645	0.279607
H377	H	1.265846	-0.500311	0.612941
H378	H	1.599180	-0.166978	0.946274
H379	H	0.993153	-0.833618	0.219081
H380	H	1.326486	-0.500284	0.552414
H381	H	1.659820	-0.166951	0.885747
H382	H	0.887900	-0.737539	0.234970
H383	H	1.221233	-0.404205	0.568303
H384	H	1.554566	-0.070872	0.901636
H385	H	0.948534	-0.737508	0.174427
H386	H	1.281867	-0.404174	0.507760
H387	H	1.615200	-0.070841	0.841093
H388	H	0.496825	-0.228942	0.302899
H389	H	0.830159	0.104392	0.636232
H390	H	1.163492	0.437725	0.969566
H391	H	0.488742	-0.428121	0.258586
H392	H	0.822075	-0.094788	0.591919
H393	H	1.155408	0.238545	0.925253
C394	C	1.163232	-0.256411	0.729838
C395	C	1.496565	0.076923	1.063171
C396	C	1.829898	0.410256	1.396505
C397	C	1.193852	-0.306992	0.772902
C398	C	1.527185	0.026341	1.106236
C399	C	1.860519	0.359674	1.439569
H400	H	1.201306	-0.224611	0.714308
H401	H	1.534639	0.108723	1.047641
H402	H	1.867972	0.442056	1.380975
H403	H	1.128009	-0.231589	0.758283
H404	H	1.461342	0.101744	1.091617
H405	H	1.794675	0.435077	1.424950
H406	H	1.139624	-0.278730	0.687709
H407	H	1.472958	0.054604	1.021042
H408	H	1.806291	0.387937	1.354376
H409	H	1.217455	-0.284673	0.815034
H410	H	1.550788	0.048660	1.148368
H411	H	1.884121	0.381993	1.481701
H412	H	1.229088	-0.331816	0.744456
H413	H	1.562421	0.001517	1.077789
H414	H	1.895755	0.334850	1.411123
H415	H	1.116606	-0.825632	0.403389
H416	H	1.449940	-0.492299	0.736722
H417	H	1.783273	-0.158966	1.070055
H418	H	0.980042	-0.249298	0.782688
H419	H	1.313375	0.084035	1.116021
H420	H	1.646708	0.417368	1.449355
C421	C	0.537802	-0.503007	0.398362
C422	C	0.871135	-0.169674	0.731696
C423	C	1.204469	0.163659	1.065029
C424	C	0.478943	-0.468901	0.367608
C425	C	0.812277	-0.135567	0.700941
C426	C	1.145610	0.197766	1.034275
H427	H	0.518957	-0.538025	0.429837
H428	H	0.852291	-0.204692	0.763170
H429	H	1.185624	0.128642	1.096504
H430	H	0.568383	-0.469948	0.426193
H431	H	0.901716	-0.136615	0.759526
H432	H	1.235049	0.196719	1.092860
H433	H	0.565977	-0.524190	0.359912
H434	H	0.899310	-0.190856	0.693245
H435	H	1.232643	0.142477	1.026578
H436	H	0.450772	-0.447714	0.406058
H437	H	0.784105	-0.114380	0.739392
H438	H	1.117439	0.218953	1.072725
H439	H	0.448350	-0.501965	0.339776
H440	H	0.781684	-0.168632	0.673110
H441	H	1.115017	0.164701	1.006443
H442	H	0.957011	-0.605975	0.243596
H443	H	1.290344	-0.272641	0.576929
H444	H	1.623678	0.060692	0.910263
C445	C	1.194209	-0.307807	0.991340
C446	C	1.527543	0.025526	1.324674
C447	C	1.860876	0.358860	1.658007
C448	C	1.193895	-0.307990	0.913978
C449	C	1.527229	0.025343	1.247311
C450	C	1.860562	0.358676	1.580644
H451	H	1.232516	-0.276401	1.010040
H452	H	1.565850	0.056932	1.343374
H453	H	1.899183	0.390265	1.676707
H454	H	1.202425	-0.353674	1.006830
H455	H	1.535759	-0.020340	1.340164
H456	H	1.869092	0.312993	1.673497
H457	H	1.147901	-0.293209	1.009617
H458	H	1.481235	0.040124	1.342950
H459	H	1.814568	0.373457	1.676284
H460	H	1.240202	-0.322593	0.895701
H461	H	1.573535	0.010740	1.229034
H462	H	1.906868	0.344074	1.562368
H463	H	1.185685	-0.262114	0.898481
H464	H	1.519018	0.071220	1.231814
H465	H	1.852351	0.404553	1.565148
C466	C	0.916205	-0.378670	0.988132
C467	C	1.249538	-0.045337	1.321466
C468	C	1.582872	0.287996	1.654799
C469	C	0.917597	-0.375640	0.910991
C470	C	1.250930	-0.042306	1.244325
C471	C	1.584264	0.291027	1.577658
H472	H	0.868300	-0.368299	1.005754
H473	H	1.201633	-0.034965	1.339087
H474	H	1.534967	0.298368	1.672421
H475	H	0.951544	-0.345428	1.009157
H476	H	1.284877	-0.012095	1.342490
H477	H	1.618211	0.321238	1.675823
H478	H	0.927816	-0.424346	1.001800
H479	H	1.261149	-0.091013	1.335134
H480	H	1.594482	0.242321	1.668467
H481	H	0.905992	-0.329962	0.897323
H482	H	1.239325	0.003371	1.230657
H483	H	1.572658	0.336704	1.563990
H484	H	0.882247	-0.408883	0.889959
H485	H	1.215580	-0.075550	1.223293
H486	H	1.548914	0.257783	1.556626
H487	H	0.613592	-0.454215	0.355296
H488	H	0.946925	-0.120881	0.688629
H489	H	1.280259	0.212452	1.021963
H490	H	1.005728	-0.447195	0.901511
H491	H	1.339061	-0.113862	1.234844
H492	H	1.672395	0.219471	1.568177
H493	H	1.005987	-0.447783	0.773858
H494	H	1.339321	-0.114449	1.107191
H495	H	1.672654	0.218884	1.440525
H496	H	1.146262	-0.413190	0.901218
H497	H	1.479595	-0.079857	1.234551
H498	H	1.812928	0.253477	1.567884
H499	H	1.077487	-0.222006	0.782865
H500	H	1.410821	0.111327	1.116198
H501	H	1.744154	0.444661	1.449531
