data_functionalizedCrystal
_audit_creation_method	'MofGen! by Chris Wilmer'
_symmetry_space_group_name_H-M	'P1'
_symmetry_Int_Tables_number	1
_symmetry_cell_setting	triclinic
loop_
_symmetry_equiv_pos_as_xyz
  x,y,z
_cell_length_a	10.723023
_cell_length_b	9.730223
_cell_length_c	10.723024
_cell_angle_alpha	89.999810
_cell_angle_beta	84.467709
_cell_angle_gamma	89.999613
loop_
_atom_site_label
_atom_site_type_symbol
_atom_site_fract_x
_atom_site_fract_y
_atom_site_fract_z
O1	O	-1.657182	0.114292	-0.175017
O2	O	-1.294029	0.114293	-0.191771
O3	O	-1.483982	0.114287	-0.001818
O4	O	-1.467229	0.114298	-0.364971
O5	O	-1.483980	-0.114292	-0.001823
O6	O	-1.294027	-0.114287	-0.191776
O7	O	-1.657180	-0.114288	-0.175022
Zn8	Zn	-1.475603	-0.150579	-0.183400
Zn9	Zn	-1.475606	0.150585	-0.183394
O10	O	-1.467227	-0.114282	-0.364975
C11	C	-1.247529	0.000003	-0.190555
C12	C	-1.108974	0.000004	-0.186908
N13	N	-1.475610	-0.356116	-0.183403
C14	C	-0.904008	0.118412	-0.181509
C15	C	-1.047211	0.118415	-0.185279
C16	C	-1.559743	-0.428044	-0.099321
C17	C	-1.559740	-0.571927	-0.099306
C18	C	-1.391467	-0.571940	-0.267467
C19	C	-1.391465	-0.428060	-0.267475
C20	C	-1.643888	-0.356100	-0.015249
C21	C	-1.728029	-0.428029	0.068839
C22	C	-1.728026	-0.571912	0.068854
C23	C	-1.643882	-0.643866	-0.015219
C24	C	-0.703680	0.000002	-0.176239
C25	C	-0.842235	0.000001	-0.179886
C26	C	-1.482762	-0.000001	0.044679
C27	C	-1.479114	0.000004	0.183233
N28	N	-1.475609	0.356121	-0.183380
C29	C	-1.468447	0.000009	-0.411473
C30	C	-1.472095	0.000013	-0.550027
C31	C	-1.585402	0.000006	0.258216
C32	C	-1.581634	0.000011	0.401420
H33	H	-0.850878	0.219787	-0.180101
Cl34	Cl	-1.643873	-0.824749	-0.015183
H35	H	-1.100334	0.219791	-0.186683
H36	H	-1.055858	-0.101377	-0.185518
Cl37	Cl	-1.722125	0.000002	0.500893
Cl38	Cl	-1.833790	-0.662335	0.174572
H39	H	-1.381099	0.000003	0.385548
Cl40	Cl	-0.924256	-0.156521	-0.182039
Cl41	Cl	-1.833793	-0.337576	0.174536
Cl42	Cl	-1.285697	-0.662397	-0.373156
Cl43	Cl	-1.643902	-0.175219	-0.015269
H44	H	-1.322955	-0.369495	-0.335942
H45	H	-1.679188	-0.000003	0.216394
H46	H	-1.385328	0.000013	0.225055
