data_functionalizedCrystal
_audit_creation_method	'MofGen! by Chris Wilmer'
_symmetry_space_group_name_H-M	'P1'
_symmetry_Int_Tables_number	1
_symmetry_cell_setting	triclinic
loop_
_symmetry_equiv_pos_as_xyz
  x,y,z
_cell_length_a	14.446369
_cell_length_b	14.628931
_cell_length_c	14.628931
_cell_angle_alpha	60.000193
_cell_angle_beta	90.000536
_cell_angle_gamma	59.998398
loop_
_atom_site_label
_atom_site_type_symbol
_atom_site_fract_x
_atom_site_fract_y
_atom_site_fract_z
Zr1	Zr	0.891769	1.000530	-0.119927
O2	O	0.743960	1.191243	-0.265892
O3	O	0.937081	0.809822	-0.075181
O4	O	0.937081	1.000527	-0.265886
O5	O	0.743960	1.000538	0.075244
O6	O	1.089418	1.000519	-0.265880
O7	O	0.743960	1.000538	-0.075187
O8	O	1.089418	0.659382	0.075256
O9	O	0.743960	1.341675	-0.265892
O10	O	1.070093	0.888255	-0.056093
O11	O	0.956406	0.888261	0.056169
O12	O	0.956406	1.112792	-0.168362
O13	O	0.842718	1.112798	-0.056101
Zr14	Zr	1.134729	1.000517	0.120003
Zr15	Zr	1.134730	1.000517	-0.119918
Zr16	Zr	0.891769	1.000531	0.119994
Zr17	Zr	0.891769	1.240451	-0.119926
Zr18	Zr	1.134730	0.760596	0.120003
O19	O	1.089417	1.191225	0.075257
O20	O	1.089418	1.191224	-0.265880
O21	O	0.743959	1.191244	0.075245
O22	O	1.282539	0.809804	0.265969
O23	O	1.282539	0.809803	-0.075168
O24	O	0.937081	0.809823	0.265956
O25	O	1.282539	1.000509	-0.075168
O26	O	1.089417	1.000520	0.265962
O27	O	0.937080	1.000528	0.265957
O28	O	1.282539	1.000509	0.075264
O29	O	0.937081	1.341664	-0.265885
O30	O	1.089418	0.659383	0.265962
O31	O	1.282539	0.659372	0.265969
O32	O	1.282539	0.659372	0.075263
O33	O	0.743959	1.341675	-0.075187
O34	O	0.937080	1.341665	-0.075180
O35	O	1.070093	0.888255	0.168438
O36	O	1.183781	0.888249	0.056177
O37	O	1.070093	1.112786	-0.056092
O38	O	0.956405	1.112792	0.056169
C39	C	1.013250	0.700418	0.000038
C40	C	1.013250	0.598565	0.000038
C41	C	1.069645	0.447888	-0.055650
C42	C	1.069647	0.553158	-0.055651
C43	C	0.709343	1.000540	0.000027
C44	C	0.606200	1.000546	0.000023
C45	C	0.387831	1.142146	-0.070428
C46	C	0.495063	1.142242	-0.070824
C47	C	0.602877	0.930204	-0.051624
C48	C	0.495108	0.931103	-0.052140
C49	C	0.496471	0.928187	0.122212
C50	C	0.602441	0.930856	0.122019
C51	C	1.317155	1.000507	0.000049
C52	C	1.420298	1.000502	0.000053
C53	C	1.013250	1.000523	-0.300067
C54	C	1.013250	1.000522	-0.401919
C55	C	1.013249	1.300629	0.000039
C56	C	1.013249	1.402482	0.000039
C57	C	0.956853	1.111908	-0.503022
C58	C	0.956852	1.111910	-0.608293
C59	C	1.013249	1.000524	0.300143
C60	C	1.013249	1.000525	0.401996
C61	C	1.317156	0.700402	0.000049
C62	C	1.420299	0.598543	0.000052
C63	C	1.013249	0.700419	0.300143
C64	C	1.013249	0.598567	0.401995
C65	C	1.317155	0.700403	0.300154
C66	C	1.420298	0.598544	0.402010
C67	C	0.709343	1.300644	-0.300077
C68	C	0.606200	1.402503	-0.401934
C69	C	0.709343	1.300645	0.000028
C70	C	0.606200	1.402504	0.000024
C71	C	1.013249	1.300628	-0.300066
C72	C	1.013249	1.402481	-0.401919
C73	C	1.409887	0.553134	-0.055639
C74	C	1.516489	0.447858	-0.055637
C75	C	1.069646	0.553155	0.503098
C76	C	1.069647	0.447884	0.608369
C77	C	1.522679	0.553130	0.391732
C78	C	1.629284	0.447854	0.497004
H79	H	1.117924	0.408834	-0.103333
C80	C	0.948035	0.455216	0.480912
N81	N	0.898920	0.494936	0.392655
H82	H	0.492617	1.197769	-0.160937
H83	H	1.717113	0.408794	0.488378
C84	C	1.078544	0.871686	-0.480837
N85	N	1.127749	0.774644	-0.392580
H86	H	0.908576	1.207267	-0.511644
H87	H	1.411569	0.559492	0.488746
C88	C	0.891621	1.240744	-0.725464
N89	N	0.842489	1.337786	-0.813721
C90	C	1.538958	0.545776	0.064471
N91	N	1.628333	0.506030	0.112994
C92	C	1.291227	0.605894	-0.120049
N93	N	1.201852	0.645626	-0.168559
H94	H	0.964962	0.559516	0.393373
H95	H	0.521762	0.827180	-0.004124
C96	C	1.504680	0.395102	-0.120049
N97	N	1.495785	0.355364	-0.168567
H98	H	0.964961	0.441548	0.047710
C99	C	0.492850	1.216861	-0.024084
N100	N	0.491164	1.273093	0.011098
C101	C	1.134878	0.605910	0.514753
N102	N	1.184015	0.645642	0.523534
H103	H	1.061536	0.905163	-0.393298
C104	C	1.534480	0.605887	0.274557
N105	N	1.543371	0.645620	0.186300
C106	C	0.948016	0.545822	0.064453
N107	N	0.898880	0.506091	0.112969
H108	H	1.627611	0.441485	0.047749
C109	C	1.500218	0.455205	0.609765
N110	N	1.410844	0.494948	0.618546
C111	C	0.314951	1.217246	-0.023855
N112	N	0.260058	1.273809	0.011232
C113	C	1.134880	0.395127	0.725540
N114	N	1.184014	0.355388	0.813797
H115	H	0.332847	1.197467	-0.159997
C116	C	0.708701	0.789516	0.014278
N117	N	0.788441	0.683572	0.063878
C118	C	0.605730	0.996227	-0.171923
N119	N	0.607864	1.045970	-0.262538
C120	C	0.427091	0.998639	-0.173581
N121	N	0.375863	1.049511	-0.265054
H122	H	1.117935	0.592200	-0.103324
H123	H	0.601922	0.982144	0.160602
C124	C	0.428897	0.989427	0.180493
N125	N	0.377993	1.035568	0.224378
H126	H	0.681599	0.827480	0.178951
C127	C	0.533547	0.787223	0.193489
N128	N	0.561464	0.681053	0.247167
