data_functionalizedCrystal
_audit_creation_method	'MofGen! by Chris Wilmer'
_symmetry_space_group_name_H-M	'P1'
_symmetry_Int_Tables_number	1
_symmetry_cell_setting	triclinic
loop_
_symmetry_equiv_pos_as_xyz
  x,y,z
_cell_length_a	29.839131
_cell_length_b	29.839134
_cell_length_c	21.395355
_cell_angle_alpha	90.024483
_cell_angle_beta	90.020172
_cell_angle_gamma	90.021992
loop_
_atom_site_label
_atom_site_type_symbol
_atom_site_fract_x
_atom_site_fract_y
_atom_site_fract_z
Zn1	Zn	-0.179138	0.686774	0.354253
Zn2	Zn	-0.254254	0.686690	0.249472
Zn3	Zn	-0.179113	0.611641	0.249490
Zn4	Zn	-0.254216	0.611605	0.354213
O5	O	-0.216680	0.649177	0.301857
O6	O	-0.189129	0.749630	0.340363
O7	O	-0.244291	0.676715	0.161797
O8	O	-0.116249	0.621658	0.263411
O9	O	-0.244315	0.749568	0.263381
O10	O	-0.116268	0.676858	0.340380
O11	O	-0.189085	0.621576	0.161810
O12	O	-0.189049	0.548769	0.263372
O13	O	-0.244252	0.621596	0.441896
O14	O	-0.244228	0.548742	0.340311
O15	O	-0.189093	0.676823	0.441925
O16	O	-0.317116	0.676680	0.263342
O17	O	-0.317088	0.621515	0.340295
C18	C	-0.216632	0.532455	0.301840
C19	C	-0.216622	0.482520	0.301847
C20	C	-0.188004	0.125961	0.342020
C21	C	-0.187968	0.313634	0.342006
O22	O	-0.163579	0.337923	0.376160
N23	N	-0.216652	0.337075	0.301862
C24	C	-0.245348	0.313595	0.261721
O25	O	-0.269748	0.337839	0.227581
C26	C	-0.245386	0.125923	0.261739
C27	C	-0.216698	0.102484	0.301882
C28	C	-0.159318	0.102523	0.382160
C29	C	-0.159326	0.055607	0.382160
C30	C	-0.188020	0.032130	0.342022
C31	C	-0.216705	0.055569	0.301882
C32	C	-0.274085	0.102443	0.221603
C33	C	-0.274093	0.055522	0.221612
C34	C	-0.245404	0.032084	0.261754
C35	C	-0.245407	-0.014824	0.261745
N36	N	-0.216723	-0.038265	0.301889
C37	C	-0.188030	-0.014788	0.342027
C38	C	-0.245326	0.412126	0.261714
C39	C	-0.245316	0.459043	0.261708
C40	C	-0.187936	0.459079	0.341994
C41	C	-0.187944	0.412161	0.341996
C42	C	-0.216642	0.388685	0.301858
C43	C	-0.188047	-0.113313	0.342026
C44	C	-0.188056	-0.160233	0.342021
C45	C	-0.245437	-0.160265	0.261738
C46	C	-0.245427	-0.113349	0.261740
C47	C	-0.216731	-0.089875	0.301889
O48	O	-0.269787	-0.039141	0.227614
O49	O	-0.163641	-0.039040	0.376173
C50	C	-0.187997	0.172877	0.342019
C51	C	-0.216683	0.196315	0.301880
C52	C	-0.245376	0.172838	0.261741
C53	C	-0.216673	0.243233	0.301875
C54	C	-0.187979	0.266710	0.342013
C55	C	-0.159296	0.243269	0.382157
C56	C	-0.159303	0.196353	0.382158
C57	C	-0.274060	0.196279	0.221597
C58	C	-0.274049	0.243195	0.221599
C59	C	-0.245356	0.266672	0.261738
C60	C	-0.333403	0.649096	0.301826
C61	C	-0.383337	0.649103	0.301834
C62	C	-0.692982	0.677954	0.261846
C63	C	-0.880655	0.678009	0.261871
O64	O	-0.904921	0.702476	0.227848
N65	N	-0.904122	0.649270	0.301904
C66	C	-0.880668	0.620518	0.341937
O67	O	-0.904935	0.596078	0.375993
C68	C	-0.692996	0.620465	0.341916
C69	C	-0.669531	0.649202	0.301875
C70	C	-0.669517	0.706690	0.221810
C71	C	-0.622602	0.706674	0.221802
C72	C	-0.599151	0.677922	0.261830
C73	C	-0.622616	0.649187	0.301867
C74	C	-0.669543	0.591715	0.381951
C75	C	-0.622622	0.591705	0.381944
C76	C	-0.599157	0.620442	0.341903
C77	C	-0.552250	0.620419	0.341888
N78	N	-0.528783	0.649158	0.301854
C79	C	-0.552233	0.677910	0.261826
C80	C	-0.979199	0.620547	0.341945
C81	C	-1.026117	0.620559	0.341950
C82	C	-1.026100	0.678052	0.261884
C83	C	-0.979182	0.678037	0.261876
C84	C	-0.955732	0.649286	0.301912
C85	C	-0.453708	0.677874	0.261811
C86	C	-0.406788	0.677854	0.261805
C87	C	-0.406808	0.620364	0.341873
C88	C	-0.453724	0.620381	0.341877
C89	C	-0.477172	0.649140	0.301844
O90	O	-0.527955	0.595969	0.375897
O91	O	-0.527959	0.702353	0.227784
C92	C	-0.739898	0.677970	0.261855
C93	C	-0.763362	0.649234	0.301891
C94	C	-0.739912	0.620483	0.341920
C95	C	-0.810280	0.649247	0.301896
C96	C	-0.833731	0.677998	0.261867
C97	C	-0.810264	0.706737	0.221834
C98	C	-0.763348	0.706721	0.221826
C99	C	-0.763379	0.591744	0.381953
C100	C	-0.810294	0.591762	0.381958
C101	C	-0.833745	0.620513	0.341929
C102	C	-0.099502	0.649271	0.301902
C103	C	-0.049567	0.649311	0.301921
C104	C	-0.216671	0.649215	0.465280
C105	C	-0.216667	0.649230	0.534922
C106	C	-0.216729	0.766356	0.301875
C107	C	-0.216750	0.816290	0.301882
C108	C	-0.216657	0.649166	0.139069
C109	C	-0.216534	0.649237	0.069428
C110	C	-0.187944	0.677986	0.567651
C111	C	-0.187925	0.677985	0.633087
C112	C	-0.216637	0.649234	0.665790
C113	C	-0.245362	0.620473	0.633053
C114	C	-0.245377	0.620471	0.567618
C115	C	-0.257087	0.645659	0.769454
C116	C	-0.257072	0.645663	0.834887
C117	C	-0.216589	0.649237	0.867611
C118	C	-0.176120	0.652815	0.834894
C119	C	-0.176135	0.652813	0.769460
C120	C	-0.216623	0.649232	0.736742
C121	C	-0.187843	0.677993	0.971293
C122	C	-0.187823	0.677989	1.036730
C123	C	-0.245263	0.620480	1.036694
C124	C	-0.245279	0.620481	0.971259
C125	C	-0.216570	0.649240	0.938562
H126	H	-0.268672	0.478123	0.229014
H127	H	-0.472830	0.596982	0.374483
Cl128	Cl	-0.151805	0.714128	0.674241
Cl129	Cl	-0.733905	0.555595	0.432280
H130	H	-0.164680	-0.094206	0.374718
H131	H	-0.135952	0.121632	0.414849
Cl132	Cl	-0.377319	0.584223	0.392195
Cl133	Cl	-0.125223	0.657309	0.876025
H134	H	-0.829366	0.730146	0.189239
Cl135	Cl	-0.281489	0.584319	0.526470
H136	H	-0.744247	0.730122	0.189221
H137	H	-0.164583	0.393080	0.374682
Cl138	Cl	-0.151850	0.714137	0.526550
Cl139	Cl	-0.281392	0.584331	0.930111
H140	H	-0.143183	0.655725	0.742824
H141	H	-0.164464	0.701408	0.944670
Cl142	Cl	-0.698990	0.742840	0.171481
Cl143	Cl	-0.281354	0.584331	1.077801
Cl144	Cl	-0.281400	0.382619	0.211240
Cl145	Cl	-0.839787	0.555630	0.432299
Cl146	Cl	-0.151718	0.714149	1.077876
H147	H	-0.290025	0.642753	0.861520
Cl148	Cl	-0.307986	0.641180	0.728322
H149	H	-0.164692	-0.179315	0.374709
Cl150	Cl	-0.123263	0.026149	0.432634
H151	H	-0.268737	0.597062	0.659684
H152	H	-0.164572	0.478202	0.374675
H153	H	-0.472794	0.701293	0.229214
H154	H	-0.297446	0.121519	0.188915
H155	H	-0.268784	-0.094265	0.229048
Cl156	Cl	-0.281507	-0.189788	0.211280
Cl157	Cl	-0.310176	0.026013	0.171153
H158	H	-0.135931	0.262392	0.414837
Cl159	Cl	-0.123237	0.166895	0.432627
Cl160	Cl	-0.310114	0.272654	0.171123
H161	H	-0.297426	0.177169	0.188912
H162	H	-0.387685	0.701256	0.229197
Cl163	Cl	-1.055590	0.714196	0.211561
Cl164	Cl	-0.949688	0.714166	0.211539
Cl165	Cl	-1.055609	0.584425	0.392281
Cl166	Cl	-0.593111	0.742810	0.171472
Cl167	Cl	-0.949726	0.584398	0.392279
H168	H	-0.603531	0.568293	0.414547
Cl169	Cl	-0.699030	0.555590	0.432299
