data_functionalizedCrystal
_audit_creation_method	'MofGen! by Chris Wilmer'
_symmetry_space_group_name_H-M	'P1'
_symmetry_Int_Tables_number	1
_symmetry_cell_setting	triclinic
loop_
_symmetry_equiv_pos_as_xyz
  x,y,z
_cell_length_a	12.827893
_cell_length_b	12.827892
_cell_length_c	12.759393
_cell_angle_alpha	90.029972
_cell_angle_beta	90.020760
_cell_angle_gamma	90.015362
loop_
_atom_site_label
_atom_site_type_symbol
_atom_site_fract_x
_atom_site_fract_y
_atom_site_fract_z
Zn1	Zn	1.597685	-0.415983	0.594019
Zn2	Zn	1.597575	-0.590761	0.418341
Zn3	Zn	1.422922	-0.416034	0.418355
Zn4	Zn	1.422912	-0.590683	0.593978
O5	O	1.510273	-0.503365	0.506173
O6	O	1.743906	-0.439179	0.570726
O7	O	1.574365	-0.567637	0.271321
O8	O	1.446155	-0.269791	0.441680
O9	O	1.743825	-0.567587	0.441656
O10	O	1.574553	-0.269754	0.570740
O11	O	1.446048	-0.439266	0.271332
O12	O	1.276684	-0.439190	0.441640
O13	O	1.446138	-0.567455	0.741005
O14	O	1.276677	-0.567504	0.570670
O15	O	1.574543	-0.439104	0.741035
O16	O	1.574355	-0.736986	0.441617
O17	O	1.446031	-0.736929	0.570657
C18	C	1.238763	-0.503345	0.506153
C19	C	1.122610	-0.503362	0.506170
C20	C	0.950757	-0.439802	0.442453
C21	C	1.070808	-0.439784	0.442435
C22	C	1.510208	-0.774875	0.506154
C23	C	1.510276	-0.891028	0.506181
C24	C	1.573782	-0.942711	0.570101
C25	C	1.573854	-1.062761	0.570130
C26	C	1.782843	-0.503386	0.506194
C27	C	1.898996	-0.503395	0.506203
C28	C	1.510351	-0.503265	0.780207
C29	C	1.510385	-0.503222	0.896983
C30	C	1.510367	-0.230795	0.506216
C31	C	1.510407	-0.114642	0.506234
C32	C	1.510255	-0.503390	0.233206
C33	C	1.510425	-0.503138	0.116430
C34	C	1.577250	-0.436379	0.951863
C35	C	1.577268	-0.436334	1.061587
C36	C	1.443552	-0.569984	1.061543
C37	C	1.443529	-0.570023	0.951821
H38	H	1.078104	-0.557812	0.560748
Cl39	Cl	1.657809	-1.131377	0.654619
H40	H	1.115321	-0.385343	0.387852
Cl41	Cl	1.426403	-0.959923	0.421725
Cl42	Cl	0.967788	-0.587430	0.590457
H43	H	0.906195	-0.385368	0.387892
Cl44	Cl	1.657638	-0.873816	0.654574
Cl45	Cl	1.661292	-0.352397	0.882928
Cl46	Cl	1.661341	-0.352308	1.130573
Cl47	Cl	1.426461	-1.046033	0.421730
H48	H	1.389123	-0.624373	1.106205
Cl49	Cl	1.359457	-0.654056	0.882824
