data_functionalizedCrystal
_audit_creation_method	'MofGen! by Chris Wilmer'
_symmetry_space_group_name_H-M	'P1'
_symmetry_Int_Tables_number	1
_symmetry_cell_setting	triclinic
loop_
_symmetry_equiv_pos_as_xyz
  x,y,z
_cell_length_a	17.038272
_cell_length_b	14.044202
_cell_length_c	12.503572
_cell_angle_alpha	93.837775
_cell_angle_beta	93.777379
_cell_angle_gamma	87.847871
loop_
_atom_site_label
_atom_site_type_symbol
_atom_site_fract_x
_atom_site_fract_y
_atom_site_fract_z
O1	O	0.185433	-1.278123	-0.089268
O2	O	0.178585	-1.001602	-0.089282
O3	O	0.068079	-1.138219	-0.089266
O4	O	0.295939	-1.141507	-0.089283
O5	O	0.076405	-1.127946	0.089375
O6	O	0.186910	-0.991329	0.089359
O7	O	0.193759	-1.267850	0.089373
Cu8	Cu	0.191095	-1.128652	0.105677
Cu9	Cu	0.181249	-1.140801	-0.105586
O10	O	0.304265	-1.131234	0.089358
C11	C	0.179752	-0.960910	0.000037
C12	C	0.170818	-0.854964	0.000032
C13	C	0.217843	-0.608469	0.000039
C14	C	0.154497	-0.660990	0.000042
C15	C	0.163580	-0.768927	0.000036
C16	C	0.208761	-0.500522	0.000044
C17	C	0.042904	-1.130093	0.000054
C18	C	-0.044513	-1.121174	0.000053
C19	C	-0.088896	-1.203062	0.000058
C20	C	-0.171034	-1.194676	0.000048
C21	C	-0.208787	-1.104401	0.000040
C22	C	-0.164398	-1.022507	0.000031
C23	C	-0.082262	-1.030894	0.000034
C24	C	-0.456619	-1.074772	0.000023
C25	C	-0.538761	-1.066391	0.000024
C26	C	-0.545391	-1.238561	0.000038
C27	C	-0.463253	-1.246940	0.000048
C28	C	-0.418872	-1.165046	0.000034
C29	C	-0.292745	-1.095827	0.000032
C30	C	-0.334915	-1.173621	0.000033
C31	C	0.329439	-1.139360	0.000035
C32	C	0.416856	-1.148279	0.000029
C33	C	0.192590	-0.308543	0.000052
C34	C	0.201519	-0.414490	0.000048
N35	N	0.198020	-1.120113	0.254269
N36	N	0.174318	-1.149346	-0.254177
C37	C	0.208214	-1.107554	0.473383
C38	C	0.164126	-1.161903	0.526716
C39	C	0.169798	-1.154914	0.648638
C40	C	0.202543	-1.114541	0.351449
H41	H	-0.207167	-1.261358	0.000054
H42	H	0.250216	-1.055780	0.519284
O43	O	0.114053	-1.223727	0.471966
C44	C	0.134508	-1.317675	0.499166
H45	H	0.168495	-1.315599	0.580886
H46	H	0.078770	-1.359487	0.502719
H47	H	0.172798	-1.353907	0.435890
H48	H	-0.323492	-1.022325	0.000028
O49	O	0.081713	-0.617783	-0.000011
C50	C	0.088726	-0.518069	0.000015
H51	H	0.146915	-0.501734	-0.033796
H52	H	0.037928	-0.486692	-0.051858
H53	H	0.087007	-0.485148	0.085716
O54	O	-0.426534	-1.334600	0.000238
C55	C	-0.374899	-1.339269	0.092746
H56	H	-0.394762	-1.284177	0.157410
H57	H	-0.375448	-1.413716	0.123803
H58	H	-0.312734	-1.323692	0.071829
O59	O	-0.052270	-1.290788	-0.000126
C60	C	-0.078682	-1.346433	-0.092632
H61	H	-0.102330	-1.297475	-0.157299
H62	H	-0.027617	-1.392781	-0.123687
H63	H	-0.127453	-1.394037	-0.071716
H64	H	-0.581535	-1.305234	0.000048
O65	O	0.290616	-0.651682	-0.000024
C66	C	0.283598	-0.751393	-0.000002
H67	H	0.222258	-0.771605	-0.033810
H68	H	0.329560	-0.788735	-0.051879
H69	H	0.293299	-0.774467	0.085698
O70	O	-0.575314	-0.978623	-0.000044
C71	C	-0.518529	-0.908138	-0.000034
H72	H	-0.462524	-0.941296	-0.033847
H73	H	-0.542360	-0.848501	-0.051912
H74	H	-0.504785	-0.877619	0.085664
O75	O	-0.413420	-0.995286	0.000159
C76	C	-0.361414	-0.989651	0.092690
H77	H	-0.350553	-1.063873	0.123541
H78	H	-0.303222	-0.960312	0.071877
H79	H	-0.388414	-0.940211	0.157474
O80	O	-0.201043	-0.934804	-0.000170
C81	C	-0.183247	-0.889798	-0.092681
H82	H	-0.165619	-0.946191	-0.157342
H83	H	-0.237205	-0.847023	-0.123740
H84	H	-0.132529	-0.839785	-0.071767
O85	O	-0.039120	-0.951387	-0.000158
C86	C	0.004296	-0.956423	-0.092665
H87	H	-0.025352	-1.006466	-0.157327
H88	H	0.006717	-0.882170	-0.123728
H89	H	0.066627	-0.984704	-0.071746
H90	H	-0.304174	-1.247124	0.000016
