data_functionalizedCrystal
_audit_creation_method	'MofGen! by Chris Wilmer'
_symmetry_space_group_name_H-M	'P1'
_symmetry_Int_Tables_number	1
_symmetry_cell_setting	triclinic
loop_
_symmetry_equiv_pos_as_xyz
  x,y,z
_cell_length_a	10.654546
_cell_length_b	14.519731
_cell_length_c	9.730223
_cell_angle_alpha	89.997677
_cell_angle_beta	89.998853
_cell_angle_gamma	84.086168
loop_
_atom_site_label
_atom_site_type_symbol
_atom_site_fract_x
_atom_site_fract_y
_atom_site_fract_z
O1	O	1.666605	0.129512	-0.114323
O2	O	1.301008	0.141856	-0.114320
O3	O	1.493486	0.001497	-0.114309
O4	O	1.474127	0.269871	-0.114334
O5	O	1.493484	0.001500	0.114271
O6	O	1.301006	0.141860	0.114260
O7	O	1.666602	0.129515	0.114256
Zn8	Zn	1.483804	0.135688	0.150550
Zn9	Zn	1.483807	0.135683	-0.150614
O10	O	1.474125	0.269874	0.114246
C11	C	1.254218	0.140952	-0.000029
C12	C	1.114800	0.138242	-0.000028
C13	C	1.049319	0.136958	-0.124633
C14	C	0.918322	0.134405	-0.124644
C15	C	0.918301	0.134416	0.124567
C16	C	1.049294	0.136976	0.124576
C17	C	1.049331	0.136948	-0.268513
C18	C	0.918334	0.134394	-0.268523
C19	C	1.492578	-0.032866	-0.000019
C20	C	1.489860	-0.135260	-0.000018
C21	C	1.487651	-0.218415	-0.000021
C22	C	1.484891	-0.322738	-0.000032
C23	C	1.482701	-0.405889	-0.000041
C24	C	1.479941	-0.510219	-0.000048
C25	C	1.713393	0.130419	-0.000037
C26	C	1.852811	0.133129	-0.000048
C27	C	1.475033	0.304237	-0.000047
C28	C	1.477751	0.406631	-0.000057
N29	N	1.483811	0.135691	0.356087
N30	N	1.483810	0.135673	-0.356150
C31	C	1.569062	0.073561	0.428017
C32	C	1.569059	0.073550	0.571900
C33	C	1.398550	0.197806	0.571909
C34	C	1.398548	0.197812	0.428029
C35	C	1.667508	0.001825	0.428014
C36	C	1.667504	0.001814	0.571896
H37	H	1.329119	0.248395	0.369464
H38	H	1.329130	0.248383	0.630500
N39	N	0.852648	0.216769	-0.324562
N40	N	0.734882	0.224923	-0.331569
H41	H	0.688487	0.283100	-0.371141
N42	N	1.115011	0.054553	-0.324479
N43	N	1.103883	-0.022109	-0.269883
H44	H	1.150270	-0.080303	-0.309405
N45	N	1.116189	0.138275	0.251854
N46	N	1.200715	0.074810	0.279671
H47	H	1.247963	0.075725	0.369565
N48	N	1.641411	-0.087090	0.379038
N49	N	1.623017	-0.149739	0.462525
H50	H	1.604568	-0.212530	0.427938
H51	H	1.073531	0.202064	-0.323761
N52	N	1.781613	0.030034	0.372035
N53	N	1.867066	0.051151	0.450433
H54	H	1.947647	0.071087	0.410899
H55	H	0.894139	0.069273	-0.323759
H56	H	1.637628	-0.065172	0.616518
H57	H	0.864949	0.133386	0.226015
N58	N	1.788377	0.021629	0.620919
N59	N	1.808836	0.024965	0.747224
H60	H	1.894200	0.038955	0.781849
