data_functionalizedCrystal
_audit_creation_method	'MofGen! by Chris Wilmer'
_symmetry_space_group_name_H-M	'P1'
_symmetry_Int_Tables_number	1
_symmetry_cell_setting	triclinic
loop_
_symmetry_equiv_pos_as_xyz
  x,y,z
_cell_length_a	14.044220
_cell_length_b	11.792241
_cell_length_c	10.868271
_cell_angle_alpha	90.005281
_cell_angle_beta	89.996185
_cell_angle_gamma	91.308854
loop_
_atom_site_label
_atom_site_type_symbol
_atom_site_fract_x
_atom_site_fract_y
_atom_site_fract_z
O1	O	1.259113	-0.273771	-0.102320
O2	O	1.509113	-0.023771	0.147680
O3	O	1.759113	0.226229	0.397680
O4	O	2.009113	0.476229	0.647680
O5	O	0.983093	-0.263891	-0.102323
O6	O	1.233093	-0.013891	0.147677
O7	O	1.483093	0.236109	0.397677
O8	O	1.733093	0.486109	0.647677
O9	O	1.127802	-0.104289	-0.102313
O10	O	1.377802	0.145711	0.147687
O11	O	1.627802	0.395711	0.397687
O12	O	1.877802	0.645711	0.647687
O13	O	1.114405	-0.433373	-0.102331
O14	O	1.364405	-0.183373	0.147669
O15	O	1.614405	0.066627	0.397669
O16	O	1.864405	0.316627	0.647669
O17	O	1.127790	-0.104281	0.102331
O18	O	1.377790	0.145719	0.352331
O19	O	1.627790	0.395719	0.602331
O20	O	1.877790	0.645719	0.852331
O21	O	0.983081	-0.263883	0.102321
O22	O	1.233081	-0.013883	0.352321
O23	O	1.483081	0.236117	0.602321
O24	O	1.733081	0.486117	0.852321
O25	O	1.259101	-0.273763	0.102324
O26	O	1.509101	-0.023763	0.352324
O27	O	1.759101	0.226237	0.602324
O28	O	2.009101	0.476237	0.852324
Zn29	Zn	1.121089	-0.268822	0.134815
Zn30	Zn	1.371089	-0.018822	0.384815
Zn31	Zn	1.621089	0.231178	0.634815
Zn32	Zn	1.871089	0.481178	0.884815
Zn33	Zn	1.121105	-0.268832	-0.134814
Zn34	Zn	1.371105	-0.018832	0.115186
Zn35	Zn	1.621105	0.231168	0.365186
Zn36	Zn	1.871105	0.481168	0.615186
O37	O	1.114393	-0.433365	0.102314
O38	O	1.364393	-0.183365	0.352314
O39	O	1.614393	0.066635	0.602314
O40	O	1.864393	0.316635	0.852314
C41	C	0.947751	-0.259563	-0.000001
C42	C	1.197751	-0.009563	0.249999
C43	C	1.447751	0.240437	0.499999
C44	C	1.697751	0.490437	0.749999
C45	C	0.842459	-0.246664	-0.000002
C46	C	1.092459	0.003336	0.249998
C47	C	1.342459	0.253336	0.499998
C48	C	1.592459	0.503336	0.749998
C49	C	1.294444	-0.278091	-0.000000
C50	C	1.544444	-0.028091	0.250000
C51	C	1.794444	0.221909	0.500000
C52	C	2.044444	0.471909	0.750000
C53	C	1.399736	-0.290990	-0.000008
C54	C	1.649736	-0.040990	0.249992
C55	C	1.899736	0.209010	0.499992
C56	C	2.149736	0.459010	0.749992
C57	C	1.126954	-0.061915	0.000009
C58	C	1.376954	0.188085	0.250009
C59	C	1.626954	0.438085	0.500009
C60	C	1.876954	0.688085	0.750009
C61	C	1.124435	0.064335	0.000008
C62	C	1.374435	0.314335	0.250008
C63	C	1.624435	0.564335	0.500008
C64	C	1.874435	0.814335	0.750008
C65	C	1.592519	-0.314572	-0.000008
C66	C	1.842519	-0.064572	0.249992
C67	C	2.092519	0.185428	0.499992
C68	C	2.342519	0.435428	0.749992
C69	C	1.649682	-0.223087	-0.000002
C70	C	1.899682	0.026913	0.249998
C71	C	2.149682	0.276913	0.499998
C72	C	2.399682	0.526913	0.749998
C73	C	1.756953	-0.236209	-0.000002
C74	C	2.006953	0.013791	0.249998
C75	C	2.256953	0.263791	0.499998
C76	C	2.506953	0.513791	0.749998
C77	C	1.485238	-0.301452	-0.000008
C78	C	1.735238	-0.051452	0.249992
C79	C	1.985238	0.198548	0.499992
C80	C	2.235238	0.448548	0.749992
C81	C	1.115241	-0.475739	-0.000011
C82	C	1.365241	-0.225739	0.249989
C83	C	1.615241	0.024261	0.499989
C84	C	1.865241	0.274261	0.749989
C85	C	1.117759	-0.601989	-0.000017
C86	C	1.367759	-0.351989	0.249983
C87	C	1.617759	-0.101989	0.499983
C88	C	1.867759	0.148011	0.749983
N89	N	1.121086	-0.268815	0.318829
N90	N	1.371086	-0.018815	0.568829
N91	N	1.621086	0.231185	0.818829
N92	N	1.871086	0.481185	1.068829
C93	C	1.119804	0.295482	-0.000013
C94	C	1.369804	0.545482	0.249987
C95	C	1.619804	0.795482	0.499987
C96	C	1.869804	1.045482	0.749987
C97	C	1.122377	0.166855	-0.000002
C98	C	1.372377	0.416855	0.249998
C99	C	1.622377	0.666855	0.499998
C100	C	1.872377	0.916855	0.749998
N101	N	1.121117	-0.268831	-0.318828
N102	N	1.371117	-0.018831	-0.068828
N103	N	1.621117	0.231169	0.181172
N104	N	1.871117	0.481169	0.431172
C105	C	1.121100	-0.268829	0.569835
C106	C	1.371100	-0.018829	0.819835
C107	C	1.621100	0.231171	1.069835
C108	C	1.871100	0.481171	1.319835
C109	C	1.121089	-0.268824	0.430157
C110	C	1.371089	-0.018824	0.680157
C111	C	1.621089	0.231176	0.930157
C112	C	1.871089	0.481176	1.180157
H113	H	1.624141	-0.402742	-0.000013
H114	H	1.874141	-0.152742	0.249987
H115	H	2.124141	0.097258	0.499987
H116	H	2.374141	0.347258	0.749987
H117	H	1.618057	-0.134910	-0.000087
H118	H	1.868057	0.115090	0.249913
H119	H	2.118057	0.365090	0.499913
H120	H	2.368057	0.615090	0.749913
