data_functionalizedCrystal
_audit_creation_method	'MofGen! by Chris Wilmer'
_symmetry_space_group_name_H-M	'P1'
_symmetry_Int_Tables_number	1
_symmetry_cell_setting	triclinic
loop_
_symmetry_equiv_pos_as_xyz
  x,y,z
_cell_length_a	10.489716
_cell_length_b	14.472310
_cell_length_c	15.995350
_cell_angle_alpha	90.001162
_cell_angle_beta	84.010755
_cell_angle_gamma	89.987310
loop_
_atom_site_label
_atom_site_type_symbol
_atom_site_fract_x
_atom_site_fract_y
_atom_site_fract_z
O1	O	1.692437	-0.076828	0.118028
O2	O	1.321082	-0.076831	0.129137
O3	O	1.516911	-0.076829	0.001756
O4	O	1.496608	-0.076831	0.245410
O5	O	1.516860	0.076853	0.001763
O6	O	1.321031	0.076851	0.129145
O7	O	1.692387	0.076854	0.118035
Cu8	Cu	1.506704	0.090884	0.123590
Cu9	Cu	1.506764	-0.090862	0.123582
O10	O	1.496558	0.076851	0.245417
C11	C	1.273536	0.000009	0.128306
C12	C	1.131940	0.000008	0.125809
C13	C	1.033173	0.000005	0.203923
C14	C	0.956380	0.075783	0.162650
C15	C	0.956436	-0.075736	0.162624
C16	C	1.057012	0.075848	0.084568
C17	C	1.057074	-0.075738	0.084554
C18	C	0.980330	0.000058	0.043222
C19	C	1.516046	0.000010	-0.029441
C20	C	1.513530	0.000005	-0.122406
C21	C	1.739932	0.000011	0.118866
C22	C	1.881528	0.000006	0.121363
N23	N	1.506672	0.218715	0.123596
N24	N	1.506807	-0.218693	0.123570
C25	C	1.506762	0.592807	0.123578
C26	C	1.401627	0.553639	0.191505
C27	C	1.401869	0.446551	0.191757
C28	C	1.506716	0.407215	0.123587
C29	C	1.639803	0.446054	0.143464
C30	C	1.639212	0.553175	0.143948
C31	C	1.479998	0.553336	0.035579
C32	C	1.476946	0.446209	0.036147
C33	C	1.506699	0.302327	0.123590
C34	C	1.506789	0.697695	0.123577
C35	C	1.504493	0.000008	-0.460208
C36	C	1.365027	-0.000338	-0.413606
C37	C	1.367544	0.000009	-0.316901
C38	C	1.508975	0.000006	-0.292620
C39	C	1.577736	0.087765	-0.333283
C40	C	1.574233	0.087838	-0.429940
C41	C	1.577171	-0.086927	-0.430289
C42	C	1.577138	-0.088087	-0.333343
C43	C	1.511516	0.000008	-0.197908
C44	C	1.501956	0.000012	-0.554921
C45	C	1.497422	0.000010	0.276613
C46	C	1.499939	0.000009	0.369578
H47	H	0.912512	-0.139791	0.195613
H48	H	1.676625	0.091818	-0.461576
H49	H	1.548548	0.419436	-0.016831
F50	F	1.744508	0.412751	0.080560
F51	F	1.114199	0.159669	0.041496
H52	H	1.302943	0.420295	0.179797
H53	H	1.056892	0.000075	0.271871
F54	F	0.949631	0.000116	-0.045653
H55	H	1.309511	0.062244	-0.433529
F56	F	0.898912	0.159517	0.205753
H57	H	1.679998	-0.087519	-0.461435
F58	F	1.296361	0.082373	-0.280897
F59	F	1.114574	-0.159477	0.041488
H60	H	1.526865	-0.153008	-0.306398
H61	H	1.681641	0.091027	-0.318536
F62	F	1.580210	0.586441	-0.030505
F63	F	1.711948	-0.095021	-0.312456
F64	F	1.671371	0.410976	0.226429
H65	H	1.418960	0.420917	0.257043
F66	F	1.296894	-0.082218	-0.280175
F67	F	1.271897	0.587327	0.176106
F68	F	1.423668	0.588796	0.276361
H69	H	1.662797	0.578150	0.208149
F70	F	1.744450	0.587041	0.081729
F71	F	1.355883	0.588688	0.010868
H72	H	1.309305	-0.063271	-0.432474
F73	F	1.348982	0.413033	0.016452
H74	H	1.524050	0.153441	-0.448537
H75	H	1.529937	0.153074	-0.305184
F76	F	1.517591	-0.173869	-0.457486
