data_functionalizedCrystal
_audit_creation_method	'MofGen! by Chris Wilmer'
_symmetry_space_group_name_H-M	'P1'
_symmetry_Int_Tables_number	1
_symmetry_cell_setting	triclinic
loop_
_symmetry_equiv_pos_as_xyz
  x,y,z
_cell_length_a	27.732048
_cell_length_b	10.489741
_cell_length_c	8.965430
_cell_angle_alpha	90.001157
_cell_angle_beta	89.995481
_cell_angle_gamma	96.409085
loop_
_atom_site_label
_atom_site_type_symbol
_atom_site_fract_x
_atom_site_fract_y
_atom_site_fract_z
O1	O	0.068187	-1.691056	-0.123965
O2	O	0.074588	-1.319579	-0.123990
O3	O	0.001064	-1.516855	-0.123949
O4	O	0.141711	-1.493781	-0.124007
O5	O	0.001068	-1.516839	0.124130
O6	O	0.074593	-1.319563	0.124089
O7	O	0.068192	-1.691040	0.124113
Cu8	Cu	0.071393	-1.505300	0.146753
Cu9	Cu	0.071387	-1.505319	-0.146629
O10	O	0.141716	-1.493764	0.124072
C11	C	0.074107	-1.272061	0.000046
C12	C	0.072661	-1.130495	0.000038
N13	N	0.071397	-1.505295	0.353102
C14	C	-0.016944	-1.516363	0.000095
C15	C	-0.070608	-1.514904	0.000107
C16	C	-0.408745	-1.622299	0.000038
C17	C	-0.610439	-1.616888	0.000016
O18	O	-0.641075	-1.715093	-0.000042
N19	N	-0.630301	-1.499911	0.000010
C20	C	-0.599736	-1.384279	-0.000001
O21	O	-0.621258	-1.284660	-0.000022
C22	C	-0.398044	-1.389692	0.000010
C23	C	-0.378184	-1.506676	0.000031
C24	C	-0.388886	-1.739274	0.000058
C25	C	-0.338465	-1.740625	0.000071
C26	C	-0.307904	-1.625002	0.000064
C27	C	-0.327764	-1.508028	0.000045
C28	C	-0.367480	-1.274062	-0.000012
C29	C	-0.317054	-1.275425	-0.000013
C30	C	-0.297195	-1.392409	0.000008
C31	C	-0.246783	-1.393757	0.000052
N32	N	-0.226920	-1.510733	0.000058
C33	C	-0.257481	-1.626356	0.000064
C34	C	-0.705628	-1.381446	-0.000003
C35	C	-0.756051	-1.380092	-0.000003
C36	C	-0.766751	-1.612701	0.000011
C37	C	-0.716327	-1.614053	0.000022
C38	C	-0.685766	-1.498422	0.000003
C39	C	-0.151594	-1.629186	0.000094
C40	C	-0.101169	-1.630527	0.000113
C41	C	-0.090474	-1.397919	0.000091
C42	C	-0.140895	-1.396577	0.000079
C43	C	-0.171454	-1.512221	0.000076
O44	O	-0.216118	-1.295604	0.000093
O45	O	-0.235950	-1.725961	0.000053
C46	C	-0.459166	-1.620947	0.000024
C47	C	-0.479025	-1.503973	0.000004
C48	C	-0.448464	-1.388350	-0.000002
C49	C	-0.529448	-1.502619	0.000004
C50	C	-0.560009	-1.618242	0.000011
C51	C	-0.540147	-1.735219	0.000017
C52	C	-0.489727	-1.736570	0.000031
C53	C	-0.468327	-1.271374	-0.000009
C54	C	-0.518748	-1.270032	-0.000020
C55	C	-0.549308	-1.385654	-0.000014
C56	C	0.159724	-1.494257	0.000025
C57	C	0.213388	-1.495715	0.000003
C58	C	0.068673	-1.738559	0.000074
C59	C	0.070119	-1.880124	0.000072
C60	C	0.025879	-1.064411	0.000072
C61	C	0.047976	-0.971321	-0.122250
C62	C	0.047992	-0.971338	0.122336
C63	C	0.094776	-1.039269	-0.122385
C64	C	0.094786	-1.039296	0.122311
C65	C	0.116916	-0.946232	-0.000040
N66	N	0.071379	-1.505334	-0.352979
C67	C	0.105388	-1.414034	0.450388
C68	C	0.115168	-1.529101	0.549805
C69	C	0.061621	-1.390277	0.549812
C70	C	0.081198	-1.620420	0.450330
C71	C	0.027633	-1.481520	0.450328
C72	C	0.037394	-1.596671	0.549700
H73	H	-0.085003	-1.725793	0.000135
C74	C	0.168924	-0.877165	-0.000154
N75	N	0.208095	-0.825139	-0.000247
H76	H	0.114566	-1.069466	0.225716
C77	C	-0.672017	-1.254234	-0.000023
N78	N	-0.646704	-1.158416	-0.000033
H79	H	0.152170	-1.549237	0.593500
C80	C	-0.001447	-1.701068	0.608265
N81	N	-0.030699	-1.779703	0.652386
H82	H	-0.012578	-1.115791	-0.000065
H83	H	0.053360	-1.292992	0.593515
H84	H	-0.772216	-1.284832	0.000005
C85	C	-0.185203	-1.756400	0.000104
N86	N	-0.210516	-1.852218	0.000124
C87	C	0.021243	-0.930657	0.262047
N88	N	0.001093	-0.900022	0.367271
C89	C	0.092421	-1.751874	0.391548
N90	N	0.100876	-1.850882	0.347270
H91	H	0.028180	-0.941184	-0.225651
H92	H	0.114553	-1.069235	-0.225916
H93	H	-0.009359	-1.461348	0.406599
C94	C	-0.694487	-1.742743	0.000032
N95	N	-0.678040	-1.839678	0.000035
C96	C	0.144257	-1.309874	0.391461
N97	N	0.173534	-1.231428	0.347072
C98	C	-0.389313	-1.145368	-0.000046
N99	N	-0.405757	-1.048428	-0.000077
H100	H	-0.443448	-1.177217	-0.000017
C101	C	-0.316627	-1.869318	0.000079
N102	N	-0.300182	-1.966256	0.000079
C103	C	-0.283440	-1.148218	-0.000029
N104	N	-0.258123	-1.052406	-0.000035
C105	C	-0.162741	-1.267890	0.000065
N106	N	-0.179191	-1.170960	0.000039
H107	H	-0.413764	-1.833433	0.000057
C108	C	-0.573774	-1.862404	0.000022
N109	N	-0.599104	-1.958194	0.000016
C110	C	-0.467889	-1.865263	0.000045
N111	N	-0.451444	-1.962201	0.000051
H112	H	-0.791642	-1.706846	0.000017
H113	H	-0.065582	-1.303782	0.000091
H114	H	-0.534912	-1.174762	-0.000025
