data_functionalizedCrystal
_audit_creation_method	'MofGen! by Chris Wilmer'
_symmetry_space_group_name_H-M	'P1'
_symmetry_Int_Tables_number	1
_symmetry_cell_setting	triclinic
loop_
_symmetry_equiv_pos_as_xyz
  x,y,z
_cell_length_a	25.639240
_cell_length_b	25.639242
_cell_length_c	25.639243
_cell_angle_alpha	89.984842
_cell_angle_beta	90.001726
_cell_angle_gamma	89.972413
loop_
_atom_site_label
_atom_site_type_symbol
_atom_site_fract_x
_atom_site_fract_y
_atom_site_fract_z
Zn1	Zn	-0.208339	-0.799213	0.295760
Zn2	Zn	-0.295739	-0.799157	0.208332
Zn3	Zn	-0.208313	-0.711800	0.208324
Zn4	Zn	-0.295738	-0.711744	0.295722
O5	O	-0.252032	-0.755479	0.252035
O6	O	-0.219944	-0.872371	0.284182
O7	O	-0.284131	-0.787569	0.135166
O8	O	-0.135151	-0.723442	0.219936
O9	O	-0.284157	-0.872330	0.219949
O10	O	-0.135170	-0.787664	0.284174
O11	O	-0.219900	-0.723388	0.135160
O12	O	-0.219899	-0.638627	0.219899
O13	O	-0.284155	-0.723347	0.368892
O14	O	-0.284130	-0.638587	0.284110
O15	O	-0.219943	-0.787610	0.368920
O16	O	-0.368904	-0.787515	0.219912
O17	O	-0.368903	-0.723293	0.284117
C18	C	-0.252012	-0.619636	0.251999
C19	C	-0.252015	-0.561522	0.251997
C20	C	-0.387875	-0.755406	0.252023
C21	C	-0.445989	-0.755423	0.252035
C22	C	-0.252052	-0.755479	0.388408
C23	C	-0.252060	-0.755479	0.446522
C24	C	-0.697141	-0.788916	0.285518
C25	C	-0.642537	-0.788900	0.285514
O26	O	-0.614265	-0.817317	0.313965
N27	N	-0.615263	-0.755481	0.252042
C28	C	-0.642596	-0.722078	0.218567
O29	O	-0.614383	-0.693651	0.190096
C30	C	-0.697199	-0.722097	0.218569
C31	C	-0.724470	-0.755515	0.252047
C32	C	-0.724412	-0.822332	0.318993
C33	C	-0.779013	-0.822347	0.318998
C34	C	-0.806342	-0.788946	0.285527
C35	C	-0.779071	-0.755530	0.252052
C36	C	-0.724531	-0.688697	0.185092
C37	C	-0.779138	-0.688719	0.185097
C38	C	-0.806410	-0.722138	0.218575
C39	C	-0.861001	-0.722144	0.218586
N40	N	-0.888275	-0.755564	0.252058
C41	C	-0.860945	-0.788965	0.285529
C42	C	-0.527925	-0.722042	0.218566
C43	C	-0.473323	-0.722020	0.218566
C44	C	-0.473267	-0.788843	0.285513
C45	C	-0.527871	-0.788862	0.285514
C46	C	-0.555199	-0.755462	0.252038
C47	C	-0.975610	-0.788993	0.285536
C48	C	-1.030216	-0.789003	0.285539
C49	C	-1.030266	-0.722183	0.218591
C50	C	-0.975666	-0.722170	0.218590
C51	C	-0.948339	-0.755579	0.252064
O52	O	-0.889307	-0.693743	0.190148
O53	O	-0.889165	-0.817392	0.313991
C54	C	-0.115659	-0.755565	0.252058
C55	C	-0.057545	-0.755602	0.252068
C56	C	-0.252053	-0.891852	0.252071
C57	C	-0.252062	-0.949966	0.252086
C58	C	-0.285533	-0.201147	0.285438
C59	C	-0.285536	-0.146542	0.285446
O60	O	-0.314009	-0.118295	0.313849
N61	N	-0.252047	-0.119240	0.252069
C62	C	-0.218548	-0.146544	0.218685
O63	O	-0.190062	-0.118307	0.190297
C64	C	-0.218542	-0.201147	0.218680
C65	C	-0.252038	-0.228447	0.252056
C66	C	-0.319026	-0.228447	0.318811
C67	C	-0.319023	-0.283047	0.318802
C68	C	-0.285528	-0.310348	0.285420
C69	C	-0.252035	-0.283048	0.252046
C70	C	-0.185041	-0.228451	0.185299
C71	C	-0.185038	-0.283058	0.185297
C72	C	-0.218534	-0.310358	0.218673
C73	C	-0.218537	-0.364949	0.218655
N74	N	-0.252027	-0.392252	0.252032
C75	C	-0.285522	-0.364951	0.285414
C76	C	-0.218561	-0.031873	0.218699
C77	C	-0.218569	0.022729	0.218702
C78	C	-0.285557	0.022727	0.285463
C79	C	-0.285551	-0.031876	0.285458
C80	C	-0.252051	-0.059176	0.252076
C81	C	-0.285515	-0.479616	0.285392
C82	C	-0.285511	-0.534222	0.285379
C83	C	-0.218521	-0.534215	0.218620
C84	C	-0.218527	-0.479614	0.218631
C85	C	-0.252025	-0.452316	0.252022
O86	O	-0.190078	-0.393231	0.190268
O87	O	-0.313998	-0.393195	0.313803
C88	C	-0.218601	-0.788939	0.806905
C89	C	-0.218598	-0.788939	0.861509
O90	O	-0.190153	-0.817379	0.889763
N91	N	-0.252030	-0.755482	0.888804
C92	C	-0.285464	-0.722020	0.861492
O93	O	-0.313900	-0.693563	0.889723
C94	C	-0.285464	-0.722018	0.806889
C95	C	-0.252033	-0.755481	0.779597
C96	C	-0.185173	-0.822398	0.779613
C97	C	-0.185176	-0.822399	0.725012
C98	C	-0.218609	-0.788940	0.697704
C99	C	-0.252037	-0.755481	0.724996
C100	C	-0.318894	-0.688554	0.779578
C101	C	-0.318891	-0.688555	0.724971
C102	C	-0.285460	-0.722017	0.697678
C103	C	-0.285473	-0.722024	0.643087
N104	N	-0.252041	-0.755480	0.615792
C105	C	-0.218609	-0.788938	0.643101
C106	C	-0.285460	-0.722027	0.976163
C107	C	-0.285463	-0.722031	1.030765
C108	C	-0.218597	-0.788948	1.030779
C109	C	-0.218597	-0.788946	0.976175
C110	C	-0.252028	-0.755483	0.948868
C111	C	-0.218619	-0.788938	0.528436
C112	C	-0.218628	-0.788937	0.473830
C113	C	-0.285492	-0.722018	0.473822
C114	C	-0.285486	-0.722020	0.528422
C115	C	-0.252045	-0.755482	0.555728
O116	O	-0.313901	-0.693596	0.614799
O117	O	-0.190172	-0.817386	0.614864
C118	C	-0.252028	-0.755478	1.116192
C119	C	-0.252029	-0.755487	1.058078
H120	H	-1.052417	-0.816216	0.312805
H121	H	-0.451123	-0.694802	0.191311
H122	H	-0.953461	-0.694953	0.191334
N123	N	-0.321545	-0.685929	0.444360
H124	H	-0.342724	-0.664729	0.469932
H125	H	-0.345745	-0.707195	0.421709
N126	N	-0.182542	-0.825039	0.946741
H127	H	-0.158307	-0.803812	0.924080
H128	H	-0.203836	-0.849245	0.924124
H129	H	-0.953367	-0.816199	0.312793
H130	H	-0.346298	-0.305270	0.345981
H131	H	-0.550173	-0.694839	0.191307
N132	N	-0.182558	-0.825031	0.557885
H133	H	-0.158321	-0.803802	0.580534
H134	H	-0.161420	-0.846219	0.532273
N135	N	-0.354954	-0.652460	0.695524
H136	H	-0.379191	-0.673689	0.672875
H137	H	-0.333668	-0.628250	0.672893
N138	N	-0.182419	-0.450160	0.182620
H139	H	-0.158224	-0.427519	0.203905
H140	H	-0.203679	-0.427521	0.158374
H141	H	-0.312791	-0.457397	0.312584
N142	N	-0.148908	-0.199022	0.149300
H143	H	-0.111569	-0.208551	0.157493
H144	H	-0.154027	-0.160295	0.154377
H145	H	-1.052528	-0.694987	0.191341
H146	H	-0.312789	-0.556447	0.312558
H147	H	-0.702165	-0.849533	0.346249
N148	N	-0.808423	-0.858373	0.355125
H149	H	-0.782817	-0.879522	0.376330
H150	H	-0.831070	-0.882602	0.333890
H151	H	-0.550071	-0.816072	0.312778
N152	N	-0.355159	-0.199006	0.354816
H153	H	-0.376373	-0.224594	0.375952
H154	H	-0.379322	-0.176338	0.333491
H155	H	-0.451006	-0.816041	0.312766
H156	H	-0.702335	-0.661486	0.157831
N157	N	-0.808614	-0.652696	0.148987
H158	H	-0.783049	-0.631526	0.127781
H159	H	-0.831286	-0.628487	0.170242
H160	H	-0.312826	-0.054100	0.312636
H161	H	-0.157953	-0.849646	0.702796
N162	N	-0.182536	-0.825037	1.060238
H163	H	-0.187611	-0.819956	1.098969
H164	H	-0.145194	-0.816922	1.050694
H165	H	-0.312829	0.044965	0.312647
H166	H	-0.191281	-0.054097	0.191512
N167	N	-0.182449	0.052171	0.182696
H168	H	-0.161232	0.026586	0.161549
H169	H	-0.158288	0.074807	0.204021
N170	N	-0.149115	-0.858494	0.809060
H171	H	-0.154182	-0.853426	0.847794
H172	H	-0.111773	-0.850383	0.799512
N173	N	-0.148901	-0.312502	0.149296
H174	H	-0.127685	-0.286919	0.128157
H175	H	-0.170137	-0.335139	0.125056
N176	N	-0.182396	-0.563665	0.182615
H177	H	-0.187478	-0.602398	0.187678
H178	H	-0.145070	-0.554141	0.190821
N179	N	-0.182571	-0.825032	0.444394
H180	H	-0.161391	-0.846225	0.469983
H181	H	-0.158372	-0.803766	0.421731
N182	N	-0.321528	-0.685947	1.060199
H183	H	-0.342706	-0.664754	1.034608
H184	H	-0.300243	-0.661762	1.082847
H185	H	-0.312687	-0.694776	0.953932
N186	N	-0.354951	-0.652462	0.809005
H187	H	-0.376124	-0.631267	0.783412
H188	H	-0.333663	-0.628279	0.831652
N189	N	-0.321548	-0.685937	0.557863
H190	H	-0.342730	-0.664744	0.532275
H191	H	-0.300260	-0.661752	0.580508
