data_functionalizedCrystal
_audit_creation_method	'MofGen! by Chris Wilmer'
_symmetry_space_group_name_H-M	'P1'
_symmetry_Int_Tables_number	1
_symmetry_cell_setting	triclinic
loop_
_symmetry_equiv_pos_as_xyz
  x,y,z
_cell_length_a	14.853567
_cell_length_b	11.792241
_cell_length_c	13.330367
_cell_angle_alpha	89.995231
_cell_angle_beta	89.995418
_cell_angle_gamma	83.914173
loop_
_atom_site_label
_atom_site_type_symbol
_atom_site_fract_x
_atom_site_fract_y
_atom_site_fract_z
O1	O	1.196946	0.148181	-0.083355
O2	O	0.934555	0.165833	-0.083372
O3	O	1.072118	-0.008203	-0.083356
O4	O	1.059383	0.322217	-0.083371
O5	O	1.072098	-0.008206	0.083491
O6	O	0.934535	0.165829	0.083475
O7	O	1.196926	0.148177	0.083492
Cu8	Cu	1.065728	0.157003	0.098718
Cu9	Cu	1.065752	0.157008	-0.098598
O10	O	1.059363	0.322213	0.083476
C11	C	0.900953	0.165032	0.000049
C12	C	0.800860	0.162635	0.000043
C13	C	1.071308	-0.050491	0.000067
C14	C	1.068913	-0.176489	0.000066
C15	C	0.387884	0.049122	0.000071
C16	C	0.367408	0.255880	0.000060
C17	C	0.461451	0.258134	0.000057
C18	C	0.518715	0.155880	0.000059
C19	C	0.481936	0.051372	0.000064
C20	C	0.498237	0.362640	0.000042
C21	C	0.592285	0.364898	0.000037
C22	C	0.649550	0.262642	0.000046
C23	C	0.612766	0.158131	0.000053
C24	C	0.670030	0.055877	0.000055
C25	C	0.633248	-0.048637	0.000068
C26	C	0.539201	-0.050883	0.000073
C27	C	0.743596	0.264889	0.000041
C28	C	0.764081	0.058127	0.000048
C29	C	1.064511	-0.407174	0.000049
C30	C	1.066957	-0.278804	0.000058
C31	C	1.230527	0.148979	0.000069
C32	C	1.330621	0.151376	0.000069
C33	C	1.060173	0.364501	0.000051
C34	C	1.062567	0.490500	0.000046
N35	N	1.065718	0.156999	0.237500
N36	N	1.065769	0.157003	-0.237379
C37	C	1.004837	0.234040	0.710116
C38	C	1.126692	0.079966	0.710098
C39	C	1.126682	0.079962	0.605079
C40	C	1.065749	0.157000	0.552574
C41	C	1.004826	0.234042	0.605087
C42	C	1.187610	0.002930	0.552558
C43	C	1.187602	0.002925	0.447534
C44	C	1.126665	0.079958	0.395027
C45	C	1.065739	0.157001	0.447546
C46	C	1.004806	0.234039	0.395041
C47	C	0.943875	0.311078	0.447559
C48	C	0.943888	0.311075	0.552580
C49	C	1.126651	0.079961	0.290005
C50	C	1.004796	0.234040	0.290013
H51	H	0.810700	-0.025142	0.000054
H52	H	0.679884	-0.131891	0.000063
O53	O	0.442519	0.461885	-0.000094
C54	C	0.324475	0.579354	-0.086553
C55	C	0.387517	0.466903	-0.086516
H56	H	0.280004	0.583459	-0.156429
H57	H	0.279875	0.583476	-0.016769
H58	H	0.366931	0.654421	-0.086517
H59	H	0.345132	0.391773	-0.086588
H60	H	0.432121	0.462880	-0.156295
O61	O	0.884619	0.385947	0.603440
C62	C	0.763782	0.538809	0.592379
C63	C	0.830840	0.454062	0.534652
H64	H	0.720298	0.593919	0.536789
H65	H	0.718457	0.489755	0.641535
H66	H	0.803000	0.595549	0.641562
H67	H	0.791696	0.397301	0.485414
H68	H	0.876166	0.503188	0.485559
O69	O	0.311693	0.355128	-0.000076
C70	C	0.193664	0.472610	-0.086546
C71	C	0.256700	0.360155	-0.086506
H72	H	0.149200	0.476723	-0.156427
H73	H	0.149056	0.476733	-0.016767
H74	H	0.236124	0.547674	-0.086500
H75	H	0.214311	0.285028	-0.086588
H76	H	0.301312	0.356132	-0.156279
H77	H	0.509244	-0.135972	0.000108
O78	O	0.945526	0.308757	0.761082
C79	C	0.789094	0.374935	0.793187
C80	C	0.856164	0.290239	0.735422
H81	H	0.716831	0.360009	0.772447
H82	H	0.799484	0.361701	0.877280
H83	H	0.801324	0.465862	0.772545
H84	H	0.843975	0.199279	0.755980
H85	H	0.845759	0.303572	0.651343
H86	H	1.176264	0.017242	0.247250
H87	H	0.955173	0.296770	0.247270
H88	H	0.357932	-0.035970	0.000086
H89	H	1.237214	-0.059805	0.404780
O90	O	0.627862	0.466515	0.000077
C91	C	0.597619	0.671356	0.000013
C92	C	0.557206	0.556356	-0.000013
H93	H	0.540513	0.744023	-0.000081
H94	H	0.641098	0.677653	0.069855
H95	H	0.641173	0.677522	-0.069795
H96	H	0.513610	0.550112	0.069747
H97	H	0.513779	0.550108	-0.069902
H98	H	0.773540	0.349982	0.000032
O99	O	0.884721	0.385803	0.396395
C100	C	0.830759	0.454130	0.234598
C101	C	0.897780	0.369428	0.292420
H102	H	0.841307	0.440936	0.150524
H103	H	0.758461	0.439172	0.255176
H104	H	0.842935	0.545054	0.255299
H105	H	0.885687	0.278471	0.271750
H106	H	0.970055	0.384485	0.271837
H107	H	1.176306	0.017249	0.752851
O108	O	1.246869	-0.071957	0.603404
C109	C	1.367669	-0.224863	0.592317
C110	C	1.300628	-0.140080	0.534604
H111	H	1.411137	-0.279978	0.536718
H112	H	1.413012	-0.175838	0.641462
H113	H	1.328437	-0.281593	0.641510
H114	H	1.339786	-0.083328	0.485357
H115	H	1.255286	-0.189175	0.485522
