data_functionalizedCrystal
_audit_creation_method	'MofGen! by Chris Wilmer'
_symmetry_space_group_name_H-M	'P1'
_symmetry_Int_Tables_number	1
_symmetry_cell_setting	triclinic
loop_
_symmetry_equiv_pos_as_xyz
  x,y,z
_cell_length_a	14.519709
_cell_length_b	23.532407
_cell_length_c	13.596369
_cell_angle_alpha	89.989360
_cell_angle_beta	90.000291
_cell_angle_gamma	83.264412
loop_
_atom_site_label
_atom_site_type_symbol
_atom_site_fract_x
_atom_site_fract_y
_atom_site_fract_z
O1	O	1.222985	0.074654	-0.081674
O2	O	0.954404	0.083445	-0.081705
O3	O	1.096794	-0.003846	-0.081671
O4	O	1.080596	0.161945	-0.081708
O5	O	1.096780	-0.003850	0.081912
O6	O	0.954390	0.083441	0.081878
O7	O	1.222971	0.074649	0.081909
Zn8	Zn	1.088678	0.079044	0.107866
Zn9	Zn	1.088697	0.079050	-0.107662
O10	O	1.080582	0.161940	0.081874
C11	C	0.920042	0.083033	0.000083
C12	C	0.817676	0.081805	0.000071
C13	C	0.442833	0.077286	0.000117
C14	C	0.547126	0.078541	0.000104
C15	C	0.630251	0.079545	0.000093
C16	C	0.734551	0.080801	0.000082
C17	C	1.096374	-0.025066	0.000123
C18	C	1.095134	-0.088288	0.000131
C19	C	1.171619	-0.487046	0.000086
C20	C	1.170467	-0.546452	0.000078
O21	O	1.241369	-0.582876	0.000050
N22	N	1.085816	-0.569460	0.000069
C23	C	1.002312	-0.533059	0.000057
O24	O	0.930205	-0.558084	0.000048
C25	C	1.003465	-0.473655	0.000058
C26	C	1.088121	-0.450650	0.000077
C27	C	1.256268	-0.464041	0.000104
C28	C	1.257420	-0.404640	0.000113
C29	C	1.173922	-0.368244	0.000105
C30	C	1.089273	-0.391249	0.000087
C31	C	0.919962	-0.437255	0.000039
C32	C	0.921123	-0.377847	0.000039
C33	C	1.005779	-0.354843	0.000058
C34	C	1.006927	-0.295451	0.000087
N35	N	1.091578	-0.272443	0.000097
C36	C	1.175075	-0.308839	0.000105
C37	C	0.999897	-0.657813	0.000055
C38	C	0.998743	-0.717216	0.000061
C39	C	1.166898	-0.730604	0.000080
C40	C	1.168051	-0.671200	0.000080
C41	C	1.084548	-0.634804	0.000064
C42	C	1.177487	-0.184092	0.000126
C43	C	1.178632	-0.124685	0.000139
C44	C	1.010477	-0.111301	0.000115
C45	C	1.009332	-0.170703	0.000107
C46	C	1.092845	-0.207098	0.000109
O47	O	0.936062	-0.258992	0.000111
O48	O	1.247171	-0.283806	0.000102
C49	C	1.257333	0.075061	0.000119
C50	C	1.359700	0.076289	0.000124
C51	C	1.081001	0.183160	0.000078
C52	C	1.082241	0.246383	0.000064
N53	N	1.088673	0.079040	0.254958
N54	N	1.088710	0.079050	-0.254754
C55	C	1.088696	0.079051	0.656248
C56	C	1.088686	0.079050	0.544597
C57	C	1.088685	0.079046	0.455607
C58	C	1.088674	0.079044	0.343948
H59	H	1.247572	-0.105958	0.000158
H60	H	0.940399	-0.189434	0.000119
C61	C	1.258748	-0.770649	0.000079
C62	C	1.328273	-0.767998	-0.084860
C63	C	1.420116	-0.808044	-0.084861
C64	C	1.442435	-0.850740	0.000077
C65	C	1.372909	-0.853392	0.085023
C66	C	1.281065	-0.813346	0.085023
H67	H	1.311752	-0.736390	-0.147742
H68	H	1.471584	-0.806080	-0.147744
H69	H	1.510423	-0.880384	0.000077
H70	H	1.389429	-0.885000	0.147905
H71	H	1.229598	-0.815310	0.147906
H72	H	1.245491	-0.213718	0.000124
C73	C	0.905619	-0.742516	0.000052
C74	C	0.836410	-0.728829	0.084988
C75	C	0.743283	-0.754126	0.084973
C76	C	0.719364	-0.793109	0.000022
C77	C	0.788575	-0.806797	-0.084921
C78	C	0.881702	-0.781501	-0.084906
H79	H	0.854115	-0.699970	0.147880
H80	H	0.692049	-0.743993	0.147854
H81	H	0.650426	-0.811835	0.000010
H82	H	0.770870	-0.835657	-0.147813
H83	H	0.932936	-0.791634	-0.147786
H84	H	0.942496	-0.081657	0.000112
H85	H	1.326355	-0.385915	0.000125
H86	H	0.931894	-0.628182	0.000049
H87	H	0.851027	-0.455975	0.000018
H88	H	0.853122	-0.348216	0.000024
H89	H	1.236985	-0.652474	0.000095
C90	C	1.348126	-0.504071	0.000119
C91	C	1.417627	-0.501423	0.085079
C92	C	1.509492	-0.541448	0.085103
C93	C	1.531857	-0.584120	0.000167
C94	C	1.462354	-0.586769	-0.084800
C95	C	1.370488	-0.546744	-0.084824
H96	H	1.401073	-0.469833	0.147960
H97	H	1.560943	-0.539486	0.148002
H98	H	1.599861	-0.613748	0.000184
H99	H	1.478907	-0.618359	-0.147681
H100	H	1.319038	-0.548706	-0.147723
