data_functionalizedCrystal
_audit_creation_method	'MofGen! by Chris Wilmer'
_symmetry_space_group_name_H-M	'P1'
_symmetry_Int_Tables_number	1
_symmetry_cell_setting	triclinic
loop_
_symmetry_equiv_pos_as_xyz
  x,y,z
_cell_length_a	10.967916
_cell_length_b	10.967829
_cell_length_c	10.065875
_cell_angle_alpha	86.921207
_cell_angle_beta	86.879757
_cell_angle_gamma	92.751242
loop_
_atom_site_label
_atom_site_type_symbol
_atom_site_fract_x
_atom_site_fract_y
_atom_site_fract_z
O1	O	-1.622283	0.210052	0.218652
O2	O	-1.272393	0.213492	0.135550
O3	O	-1.449084	0.036852	0.218656
O4	O	-1.445592	0.386692	0.135546
O5	O	-1.415398	0.070676	0.429766
O6	O	-1.238707	0.247316	0.346660
O7	O	-1.588597	0.243876	0.429762
Zn8	Zn	-1.408303	0.250966	0.421729
Zn9	Zn	-1.452687	0.206401	0.143583
O10	O	-1.411906	0.420516	0.346656
C11	C	-1.210631	0.227598	0.231200
C12	C	-1.076786	0.219223	0.201690
C13	C	-0.999663	0.233011	0.297895
C14	C	-0.861327	0.224355	0.267397
C15	C	-1.429442	0.008851	0.334114
C16	C	-1.421087	-0.124977	0.363619
C17	C	-1.434812	-0.202158	0.267411
C18	C	-1.426177	-0.340477	0.297904
C19	C	-0.650359	0.229770	0.334110
C20	C	-0.784205	0.238145	0.363615
C21	C	-1.431548	0.448517	0.231195
C22	C	-1.439905	0.582343	0.201682
N23	N	-1.378022	0.281381	0.611559
N24	N	-1.482977	0.175978	-0.046242
C25	C	-1.442143	0.216975	0.709568
C26	C	-1.418847	0.240393	0.855748
H27	H	-0.820584	0.256355	0.468566
H28	H	-1.514282	0.144494	0.685259
Cl29	Cl	-1.393063	-0.181046	0.525644
Cl30	Cl	-1.307449	0.352292	0.893263
H31	H	-0.824947	0.206138	0.162448
Cl32	Cl	-1.594638	0.064340	0.916247
H33	H	-1.305874	0.353852	0.635869
H34	H	-1.036050	0.251217	0.402839
H35	H	-1.452951	-0.165834	0.162468
Cl36	Cl	-1.020621	0.191094	0.039664
H37	H	-1.408024	-0.376794	0.402850
Cl38	Cl	-1.467874	-0.361592	0.039634
