data_functionalizedCrystal
_audit_creation_method	'MofGen! by Chris Wilmer'
_symmetry_space_group_name_H-M	'P1'
_symmetry_Int_Tables_number	1
_symmetry_cell_setting	triclinic
loop_
_symmetry_equiv_pos_as_xyz
  x,y,z
_cell_length_a	19.077105
_cell_length_b	19.077068
_cell_length_c	21.395355
_cell_angle_alpha	92.279051
_cell_angle_beta	87.678776
_cell_angle_gamma	90.115316
loop_
_atom_site_label
_atom_site_type_symbol
_atom_site_fract_x
_atom_site_fract_y
_atom_site_fract_z
Zn1	Zn	1.063028	-0.323070	-0.403776
Zn2	Zn	1.396361	0.010263	-0.070443
Zn3	Zn	1.729694	0.343596	0.262890
Zn4	Zn	1.058205	-0.440557	-0.303024
Zn5	Zn	1.391538	-0.107223	0.030309
Zn6	Zn	1.724872	0.226110	0.363642
Zn7	Zn	0.945510	-0.318340	-0.294646
Zn8	Zn	1.278843	0.014993	0.038687
Zn9	Zn	1.612176	0.348326	0.372020
Zn10	Zn	0.940763	-0.435812	-0.403400
Zn11	Zn	1.274096	-0.102478	-0.070067
Zn12	Zn	1.607429	0.230855	0.263267
O13	O	1.001876	-0.379445	-0.351212
O14	O	1.335210	-0.046111	-0.017878
O15	O	1.668543	0.287222	0.315455
O16	O	1.160720	-0.342620	-0.394075
O17	O	1.494053	-0.009287	-0.060742
O18	O	1.827386	0.324046	0.272591
O19	O	1.043224	-0.424351	-0.214234
O20	O	1.376558	-0.091017	0.119099
O21	O	1.709891	0.242316	0.452432
O22	O	0.965104	-0.220637	-0.305774
O23	O	1.298437	0.112696	0.027559
O24	O	1.631770	0.446029	0.360893
O25	O	1.157177	-0.428937	-0.320053
O26	O	1.490510	-0.095604	0.013280
O27	O	1.823843	0.237730	0.346613
O28	O	1.051444	-0.224112	-0.385951
O29	O	1.384777	0.109221	-0.052618
O30	O	1.718110	0.442555	0.280715
O31	O	0.960427	-0.334559	-0.208079
O32	O	1.293761	-0.001226	0.125254
O33	O	1.627094	0.332108	0.458588
O34	O	0.846548	-0.329958	-0.305409
O35	O	1.179882	0.003375	0.027924
O36	O	1.513215	0.336709	0.361258
O37	O	0.957013	-0.420850	-0.491129
O38	O	1.290346	-0.087517	-0.157795
O39	O	1.623680	0.245817	0.175538
O40	O	0.843061	-0.416264	-0.385310
O41	O	1.176394	-0.082930	-0.051976
O42	O	1.509727	0.250403	0.281357
O43	O	1.046841	-0.338019	-0.491405
O44	O	1.380174	-0.004686	-0.158072
O45	O	1.713507	0.328647	0.175261
O46	O	1.038621	-0.538258	-0.319688
O47	O	1.371955	-0.204925	0.013645
O48	O	1.705288	0.128409	0.346978
O49	O	0.952337	-0.534772	-0.393434
O50	O	1.285670	-0.201438	-0.060100
O51	O	1.619003	0.131895	0.273233
C52	C	0.819308	-0.372083	-0.344410
C53	C	1.152641	-0.038750	-0.011076
C54	C	1.485975	0.294583	0.322257
C55	C	0.741204	-0.368951	-0.341515
C56	C	1.074537	-0.035618	-0.008182
C57	C	1.407871	0.297716	0.325151
C58	C	0.702710	-0.412482	-0.381695
C59	C	1.036044	-0.079148	-0.048362
C60	C	1.369377	0.254185	0.284972
C61	C	0.629323	-0.409529	-0.378978
C62	C	0.962657	-0.076196	-0.045645
C63	C	1.295990	0.257137	0.287689
C64	C	0.594432	-0.363049	-0.336078
C65	C	0.927765	-0.029716	-0.002745
C66	C	1.261098	0.303618	0.330589
C67	C	0.632931	-0.319513	-0.295897
C68	C	0.966264	0.013820	0.037437
C69	C	1.299597	0.347153	0.370770
C70	C	0.706316	-0.322463	-0.298617
C71	C	1.039649	0.010871	0.034716
C72	C	1.372983	0.344204	0.368050
C73	C	0.375145	-0.349399	-0.323490
C74	C	0.708479	-0.016065	0.009843
C75	C	1.041812	0.317268	0.343177
C76	C	0.301755	-0.346454	-0.320771
C77	C	0.635088	-0.013121	0.012562
C78	C	0.968421	0.320212	0.345895
C79	C	0.298153	-0.436470	-0.403854
C80	C	0.631486	-0.103136	-0.070520
C81	C	0.964819	0.230197	0.262813
C82	C	0.371540	-0.439418	-0.406568
C83	C	0.704873	-0.106084	-0.073235
C84	C	1.038206	0.227249	0.260099
C85	C	0.410032	-0.395880	-0.366389
C86	C	0.743366	-0.062546	-0.033056
C87	C	1.076699	0.270787	0.300278
N88	N	0.519418	-0.360032	-0.333298
N89	N	0.852752	-0.026698	0.000035
N90	N	1.186085	0.306635	0.333368
N91	N	0.485044	-0.398894	-0.369172
N92	N	0.818378	-0.065561	-0.035839
N93	N	1.151711	0.267773	0.297495
C94	C	0.994460	-0.562012	-0.357444
C95	C	1.327793	-0.228678	-0.024110
C96	C	1.661126	0.104655	0.309223
C97	C	0.991351	-0.640117	-0.360133
C98	C	1.324684	-0.306784	-0.026800
C99	C	1.658018	0.026550	0.306534
C100	C	1.034849	-0.678604	-0.323036
C101	C	1.368183	-0.345271	0.010298
C102	C	1.701516	-0.011938	0.343631
C103	C	1.031930	-0.751993	-0.325569
C104	C	1.365263	-0.418659	0.007764
C105	C	1.698596	-0.085326	0.341098
C106	C	0.985508	-0.786893	-0.365197
C107	C	1.318841	-0.453559	-0.031863
C108	C	1.652174	-0.120226	0.301470
C109	C	0.942008	-0.748400	-0.402298
C110	C	1.275341	-0.415067	-0.068965
C111	C	1.608674	-0.081733	0.264368
C112	C	0.944931	-0.675013	-0.399768
C113	C	1.278265	-0.341680	-0.066434
C114	C	1.611598	-0.008346	0.266899
C115	C	0.971946	-1.006184	-0.376881
C116	C	1.305279	-0.672850	-0.043548
C117	C	1.638613	-0.339517	0.289785
C118	C	0.969024	-1.079576	-0.379408
C119	C	1.302357	-0.746243	-0.046074
C120	C	1.635691	-0.412909	0.287259
C121	C	1.058947	-1.083164	-0.302679
C122	C	1.392280	-0.749830	0.030654
C123	C	1.725614	-0.416497	0.363988
C124	C	1.061864	-1.009775	-0.300149
C125	C	1.395197	-0.676442	0.033184
C126	C	1.728530	-0.343108	0.366517
C127	C	1.018366	-0.971289	-0.337253
C128	C	1.351700	-0.637956	-0.003920
C129	C	1.685033	-0.304622	0.329414
N130	N	0.982521	-0.861907	-0.367786
N131	N	1.315854	-0.528574	-0.034452
N132	N	1.649187	-0.195241	0.298881
N133	N	1.021357	-0.896276	-0.334667
N134	N	1.354691	-0.562943	-0.001334
N135	N	1.688024	-0.229609	0.332000
C136	C	1.185157	-0.386836	-0.358041
C137	C	1.518491	-0.053502	-0.024707
C138	C	1.851824	0.279831	0.308626
C139	C	1.263261	-0.389985	-0.360951
C140	C	1.596594	-0.056652	-0.027618
C141	C	1.929928	0.276682	0.305716
C142	C	1.001935	-0.379433	-0.514637
C143	C	1.335269	-0.046100	-0.181304
C144	C	1.668602	0.287234	0.152030
C145	C	1.001960	-0.379428	-0.584279
C146	C	1.335294	-0.046094	-0.250946
C147	C	1.668627	0.287239	0.082388
C148	C	1.009341	-0.196166	-0.344970
C149	C	1.342674	0.137168	-0.011637
C150	C	1.676008	0.470501	0.321697
C151	C	1.012522	-0.118063	-0.342310
C152	C	1.345856	0.215270	-0.008977
C153	C	1.679189	0.548604	0.324356
C154	C	1.048732	-0.336296	-0.617137
C155	C	1.382065	-0.002963	-0.283803
C156	C	1.715398	0.330371	0.049530
C157	C	1.048732	-0.336266	-0.682571
C158	C	1.382065	-0.002932	-0.349238
C159	C	1.715399	0.330401	-0.015905
C160	C	1.001968	-0.379380	-0.715146
C161	C	1.335301	-0.046047	-0.381812
C162	C	1.668634	0.287287	-0.048479
C163	C	0.955187	-0.422515	-0.682280
C164	C	1.288521	-0.089182	-0.348946
C165	C	1.621854	0.244152	-0.015613
C166	C	0.955184	-0.422539	-0.616846
C167	C	1.288517	-0.089205	-0.283513
C168	C	1.621850	0.244128	0.049820
C169	C	0.993849	-0.442427	-0.820774
C170	C	1.327182	-0.109093	-0.487441
C171	C	1.660516	0.224240	-0.154107
C172	C	0.993858	-0.442404	-0.886206
C173	C	1.327191	-0.109071	-0.552873
C174	C	1.660524	0.224262	-0.219540
C175	C	1.001975	-0.379306	-0.916964
C176	C	1.335308	-0.045973	-0.583631
C177	C	1.668642	0.287361	-0.250298
C178	C	1.010099	-0.316229	-0.882282
C179	C	1.343432	0.017104	-0.548949
C180	C	1.676765	0.350438	-0.215615
C181	C	1.010095	-0.316253	-0.816849
C182	C	1.343428	0.017081	-0.483515
C183	C	1.676762	0.350414	-0.150182
C184	C	1.001966	-0.379359	-0.786097
C185	C	1.335300	-0.046025	-0.452764
C186	C	1.668633	0.287308	-0.119431
C187	C	1.048749	-0.336138	-1.020774
C188	C	1.382083	-0.002804	-0.687440
C189	C	1.715416	0.330529	-0.354107
C190	C	1.048745	-0.336106	-1.086209
C191	C	1.382078	-0.002773	-0.752876
C192	C	1.715411	0.330561	-0.419542
C193	C	0.955204	-0.422362	-1.085917
C194	C	1.288537	-0.089028	-0.752583
C195	C	1.621870	0.244305	-0.419250
C196	C	0.955205	-0.422387	-1.020482
C197	C	1.288538	-0.089054	-0.687149
C198	C	1.621871	0.244280	-0.353815
C199	C	1.001981	-0.379276	-0.987915
C200	C	1.335315	-0.045943	-0.654581
C201	C	1.668648	0.287391	-0.321248
C202	C	1.001860	-0.379408	-0.188422
C203	C	1.335193	-0.046074	0.144911
C204	C	1.668527	0.287259	0.478244
C205	C	1.001979	-0.379220	-0.118779
C206	C	1.335312	-0.045887	0.214554
C207	C	1.668646	0.287447	0.547888
H208	H	0.399943	-0.477269	-0.441500
H209	H	0.733277	-0.143935	-0.108167
H210	H	1.066610	0.189398	0.225166
H211	H	0.936527	-0.974854	-0.407092
H212	H	1.269861	-0.641521	-0.073758
H213	H	1.603194	-0.308187	0.259575
F214	F	1.018737	-0.249123	-0.779939
F215	F	1.352071	0.084210	-0.446606
F216	F	1.685404	0.417543	-0.113273
H217	H	1.016710	-0.264848	-0.907323
H218	H	1.350043	0.068485	-0.573990
H219	H	1.683377	0.401818	-0.240657
F220	F	1.078229	-0.792951	-0.286087
F221	F	1.411562	-0.459617	0.047247
F222	F	1.744895	-0.126284	0.380580
F223	F	0.739838	-0.461956	-0.427353
F224	F	1.073171	-0.128623	-0.094019
F225	F	1.406505	0.204710	0.239314
F226	F	0.898637	-0.634053	-0.439254
F227	F	1.231970	-0.300719	-0.105920
F228	F	1.565303	0.032614	0.227413
H229	H	0.273348	-0.308596	-0.285840
H230	H	0.606681	0.024737	0.047493
H231	H	0.940015	0.358070	0.380826
H232	H	0.987051	-0.493788	-0.795729
H233	H	1.320385	-0.160455	-0.462396
H234	H	1.653718	0.172878	-0.129063
F235	F	0.919606	-1.116717	-0.421580
F236	F	1.252939	-0.783384	-0.088247
F237	F	1.586273	-0.450050	0.245087
H238	H	0.266804	-0.471915	-0.436566
H239	H	0.600137	-0.138582	-0.103233
H240	H	0.933471	0.194752	0.230101
H241	H	1.072648	-0.650194	-0.290764
H242	H	1.405981	-0.316861	0.042570
H243	H	1.739314	0.016473	0.375903
F244	F	0.905416	-0.468398	-0.716948
F245	F	1.238749	-0.135065	-0.383615
F246	F	1.572082	0.198269	-0.050282
F247	F	1.105240	-1.124128	-0.263196
F248	F	1.438573	-0.790795	0.070137
F249	F	1.771906	-0.457462	0.403471
F250	F	1.111280	-0.972638	-0.257979
F251	F	1.444613	-0.639304	0.075354
F252	F	1.777947	-0.305971	0.408688
F253	F	0.985218	-0.509536	-0.923112
F254	F	1.318551	-0.176203	-0.589779
F255	F	1.651884	0.157130	-0.256445
H256	H	0.904213	-0.776821	-0.434567
H257	H	1.237547	-0.443488	-0.101233
H258	H	1.570880	-0.110155	0.232100
H259	H	0.406477	-0.313952	-0.290769
H260	H	0.739811	0.019381	0.042565
H261	H	1.073144	0.352714	0.375898
H262	H	0.917094	-0.457661	-0.590093
H263	H	1.250427	-0.124328	-0.256760
H264	H	1.583760	0.209006	0.076573
H265	H	0.604516	-0.281665	-0.260969
H266	H	0.937849	0.051668	0.072364
H267	H	1.271183	0.385002	0.405698
H268	H	0.917120	-0.457459	-1.112438
H269	H	1.250454	-0.124126	-0.779104
H270	H	1.583787	0.209208	-0.445771
F271	F	0.747284	-0.276130	-0.255854
F272	F	1.080617	0.057204	0.077480
F273	F	1.413950	0.390537	0.410813
H274	H	1.086820	-0.301191	-0.590624
H275	H	1.420153	0.032143	-0.257291
H276	H	1.753487	0.365476	0.076042
F277	F	1.098503	-0.290345	-0.717547
F278	F	1.431837	0.042988	-0.384214
F279	F	1.765170	0.376322	-0.050881
F280	F	1.098529	-0.290253	-0.986111
F281	F	1.431863	0.043080	-0.652777
F282	F	1.765196	0.376414	-0.319444
H283	H	1.086831	-0.300979	-1.112961
H284	H	1.420164	0.032355	-0.779627
H285	H	1.753497	0.365688	-0.446294
H286	H	0.597985	-0.444977	-0.411696
H287	H	0.931318	-0.111644	-0.078363
H288	H	1.264652	0.221689	0.254971
F289	F	0.905426	-0.468297	-0.985511
F290	F	1.238759	-0.134964	-0.652178
F291	F	1.572093	0.198370	-0.318844
