data_functionalizedCrystal
_audit_creation_method	'MofGen! by Chris Wilmer'
_symmetry_space_group_name_H-M	'P1'
_symmetry_Int_Tables_number	1
_symmetry_cell_setting	triclinic
loop_
_symmetry_equiv_pos_as_xyz
  x,y,z
_cell_length_a	6.817900
_cell_length_b	17.982959
_cell_length_c	10.992410
_cell_angle_alpha	94.193478
_cell_angle_beta	108.764651
_cell_angle_gamma	102.451857
loop_
_atom_site_label
_atom_site_type_symbol
_atom_site_fract_x
_atom_site_fract_y
_atom_site_fract_z
V1	V	-4.082291	-0.105413	-0.401130
O2	O	-4.073912	0.005065	-0.392942
O3	O	-4.028461	-0.209015	-0.398917
O4	O	-4.060375	-0.103791	-0.575834
O5	O	-4.041777	-0.100887	-0.214800
V6	V	-4.563191	-0.092198	-0.378779
O7	O	-4.349303	-0.134400	-0.450158
O8	O	-4.746375	-0.063211	-0.329750
O9	O	-4.393814	0.011405	-0.380991
O10	O	-4.688967	-0.202676	-0.386967
O11	O	-4.721101	-0.096723	-0.565108
O12	O	-4.361900	-0.093820	-0.204074
C13	C	-3.871284	-0.234271	-0.392726
C14	C	-3.908735	-0.318968	-0.392082
C15	C	-4.109221	-0.362639	-0.398207
C16	C	-4.144402	-0.442221	-0.397609
C17	C	-3.979090	-0.478130	-0.390877
C18	C	-3.778590	-0.434453	-0.384754
C19	C	-3.743416	-0.354873	-0.385362
C20	C	-3.920439	-0.755389	-0.382307
C21	C	-3.955627	-0.834974	-0.381696
C22	C	-4.321425	-0.842736	-0.394555
C23	C	-4.286251	-0.763157	-0.395162
C24	C	-4.085759	-0.719488	-0.389047
C25	C	-4.047615	-0.633196	-0.389698
C26	C	-4.017227	-0.564419	-0.390216
C27	C	-3.911992	-0.100046	-0.618399
C28	C	-3.975320	-0.099406	-0.761224
C29	C	-3.844212	-0.093573	-0.956318
C30	C	-3.778364	-0.094555	-0.807840
C31	C	-4.150562	-0.174528	-0.838711
C32	C	-4.215077	-0.173864	-0.987274
C33	C	-4.136942	-0.028401	-0.948502
C34	C	-4.066341	-0.028045	-0.799487
C35	C	-4.214332	0.036657	-0.387179
C36	C	-4.156121	0.121353	-0.387831
C37	C	-4.173624	-0.097567	-0.161502
C38	C	-4.089534	-0.098203	-0.018676
H39	H	-3.646284	-0.040539	-0.754224
H40	H	-3.743496	-0.039186	-0.974870
H41	H	-3.821003	-0.864208	-0.376222
N42	N	-4.453528	-0.182511	-1.043795
H43	H	-4.531799	-0.232835	-1.026711
H44	H	-4.497067	-0.182113	-1.140632
N45	N	-4.347250	-0.182831	-0.800614
H46	H	-4.324594	-0.137869	-0.732595
H47	H	-4.373653	-0.232487	-0.764139
N48	N	-4.360701	-0.489293	-0.404262
H49	H	-4.473571	-0.484502	-0.487240
H50	H	-4.395250	-0.469708	-0.327078
H51	H	-3.757187	-0.719842	-0.377320
N52	N	-3.600277	-0.473179	-0.377472
H53	H	-3.645813	-0.513429	-0.456976
H54	H	-3.567701	-0.498570	-0.296823
N55	N	-4.023540	0.047164	-0.975083
H56	H	-4.132429	0.075584	-1.019885
H57	H	-3.940286	0.036846	-1.032856
H58	H	-3.580164	-0.319317	-0.380379
H59	H	-4.484681	-0.878302	-0.399536
H60	H	-3.939934	0.027527	-0.746846
N61	N	-3.791017	-0.160006	-1.020211
H62	H	-3.925139	-0.193088	-1.089375
H63	H	-3.730578	-0.191981	-0.952628
N64	N	-4.464561	-0.724431	-0.402436
H65	H	-4.497213	-0.698987	-0.483030
H66	H	-4.418891	-0.684221	-0.322867
H67	H	-3.705768	-0.145404	-0.783284
N68	N	-4.068696	-0.244714	-0.805157
H69	H	-3.918217	-0.228017	-0.739822
H70	H	-4.068428	-0.274621	-0.886506
H71	H	-4.183492	-0.226716	-1.033813
H72	H	-4.208721	-0.027163	-0.766971
N73	N	-4.287539	-0.323918	-0.405476
H74	H	-4.320205	-0.298474	-0.486069
H75	H	-4.241874	-0.283711	-0.325905
N76	N	-4.372922	-0.032010	-1.002612
H77	H	-4.448822	-0.078606	-1.072237
H78	H	-4.393245	0.016222	-1.041281
