data_functionalizedCrystal
_audit_creation_method	'MofGen! by Chris Wilmer'
_symmetry_space_group_name_H-M	'P1'
_symmetry_Int_Tables_number	1
_symmetry_cell_setting	triclinic
loop_
_symmetry_equiv_pos_as_xyz
  x,y,z
_cell_length_a	14.971486
_cell_length_b	19.188924
_cell_length_c	14.048226
_cell_angle_alpha	89.991497
_cell_angle_beta	89.998499
_cell_angle_gamma	83.378047
loop_
_atom_site_label
_atom_site_type_symbol
_atom_site_fract_x
_atom_site_fract_y
_atom_site_fract_z
O1	O	1.186463	0.090988	-0.079056
O2	O	0.926005	0.101884	-0.079082
O3	O	1.063754	-0.005196	-0.079057
O4	O	1.048715	0.198068	-0.079081
O5	O	1.063737	-0.005202	0.079264
O6	O	0.925989	0.101878	0.079239
O7	O	1.186447	0.090982	0.079266
Zn8	Zn	1.056215	0.096429	0.104389
Zn9	Zn	1.056237	0.096437	-0.104206
O10	O	1.048699	0.198062	0.079240
C11	C	0.892675	0.101394	0.000075
C12	C	0.793386	0.099933	0.000066
C13	C	0.735826	0.162840	0.000060
C14	C	0.642534	0.161464	0.000074
C15	C	0.606803	0.097180	0.000088
C16	C	0.664370	0.034269	0.000096
C17	C	0.757661	0.035646	0.000089
C18	C	0.469923	0.031403	0.000110
C19	C	0.376626	0.030026	0.000116
C20	C	0.354796	0.157221	0.000095
C21	C	0.448087	0.158598	0.000087
C22	C	0.505647	0.095686	0.000095
C23	C	1.063260	-0.031211	0.000105
C24	C	1.061801	-0.108721	0.000107
C25	C	1.061129	-0.145119	-0.086194
C26	C	1.059745	-0.217946	-0.086202
C27	C	1.059052	-0.254374	0.000097
C28	C	1.059719	-0.217967	0.086410
C29	C	1.061093	-0.145141	0.086415
N30	N	1.107787	-0.373883	0.064332
N31	N	1.106484	-0.443066	0.064322
C32	C	1.054909	-0.473797	0.000088
N33	N	1.004698	-0.432733	-0.064150
N34	N	1.006006	-0.363544	-0.064142
C35	C	1.057561	-0.333343	0.000101
C36	C	1.052736	-0.589162	-0.086228
C37	C	1.051347	-0.661990	-0.086231
C38	C	1.051329	-0.662011	0.086382
C39	C	1.052709	-0.589183	0.086384
C40	C	1.053417	-0.552764	0.000076
C41	C	1.219777	0.091472	0.000106
C42	C	1.319067	0.092933	0.000110
C43	C	1.049193	0.224077	0.000077
C44	C	1.050652	0.301587	0.000068
N45	N	1.056207	0.096423	0.246750
N46	N	1.056252	0.096438	-0.246566
C47	C	1.117221	0.049027	0.296579
C48	C	1.117227	0.049027	0.396237
C49	C	1.056223	0.096426	0.446064
C50	C	0.995202	0.143823	0.396227
C51	C	0.995193	0.143820	0.296572
C52	C	0.995228	0.143828	0.603942
C53	C	0.995238	0.143833	0.703604
C54	C	1.117263	0.049036	0.703607
C55	C	1.117253	0.049032	0.603951
C56	C	1.056233	0.096431	0.554122
H57	H	0.516787	-0.019826	0.000117
O58	O	0.770382	0.225347	0.000087
C59	C	0.699568	0.280574	0.000063
H60	H	0.636271	0.260945	0.030044
H61	H	0.718888	0.325449	0.046020
H62	H	0.686285	0.299985	-0.075894
O63	O	0.586534	0.222527	-0.000068
C64	C	0.531930	0.225542	-0.082073
H65	H	0.527426	0.170119	-0.109391
H66	H	0.461710	0.251497	-0.063635
H67	H	0.562498	0.257450	-0.139503
O68	O	1.061593	-0.109733	0.170227
C69	C	0.984954	-0.059748	0.175371
H70	H	0.930412	-0.076204	0.126390
H71	H	0.958964	-0.056294	0.251699
H72	H	1.003513	-0.006326	0.152187
H73	H	0.945508	0.182413	0.256001
O74	O	1.059104	-0.253205	-0.170124
C75	C	1.059978	-0.205439	-0.246298
H76	H	1.089293	-0.156404	-0.221008
H77	H	1.102972	-0.230879	-0.306672
H78	H	0.988378	-0.190410	-0.272812
O79	O	0.298926	0.218355	-0.000075
C80	C	0.315092	0.257386	-0.082070
H81	H	0.347118	0.220552	-0.139377
H82	H	0.248788	0.285332	-0.109591
H83	H	0.362442	0.297837	-0.063547
O84	O	0.935849	0.189796	0.751971
C85	C	0.847358	0.178327	0.727623
H86	H	0.847158	0.122426	0.700231
H87	H	0.802451	0.186285	0.793171
H88	H	0.820909	0.216994	0.669781
H89	H	0.635271	-0.018072	0.000121
O90	O	0.935974	0.189961	0.444519
C91	C	0.950243	0.259097	0.420161
H92	H	0.984715	0.259053	0.347801
H93	H	0.882873	0.293391	0.416747
H94	H	0.994678	0.280752	0.476237
H95	H	0.477175	0.210943	0.000067
H96	H	0.347538	-0.022319	0.000128
H97	H	0.804526	-0.015579	0.000093
O98	O	1.176423	0.002824	0.555700
C99	C	1.162061	-0.066257	0.580245
H100	H	1.090419	-0.066595	0.607585
H101	H	1.172505	-0.101382	0.514810
H102	H	1.211643	-0.086656	0.638185
H103	H	1.050795	-0.691623	-0.156511
O104	O	1.061592	-0.109679	-0.169999
C105	C	0.984873	-0.059770	-0.175120
H106	H	0.959340	-0.046227	-0.100166
H107	H	1.003155	-0.010322	-0.211736
H108	H	0.930089	-0.082403	-0.217598
H109	H	1.053264	-0.559549	0.156660
H110	H	1.059152	-0.247632	0.156675
O111	O	1.176516	0.002916	0.248329
C112	C	1.230383	-0.038905	0.313685
H113	H	1.193722	-0.039737	0.384728
H114	H	1.244249	-0.094648	0.284907
H115	H	1.296736	-0.016148	0.324269
H116	H	1.166946	0.010442	0.744184
O117	O	1.050517	-0.697445	0.170159
C118	C	0.972252	-0.731700	0.175312
H119	H	0.946248	-0.739993	0.100372
H120	H	0.988679	-0.784677	0.211854
H121	H	0.918541	-0.698133	0.217876
O122	O	1.053371	-0.553881	-0.170147
C123	C	1.052494	-0.601629	-0.246324
H124	H	1.023197	-0.650677	-0.221028
H125	H	1.009482	-0.576179	-0.306686
H126	H	1.124091	-0.616640	-0.272856
H127	H	1.166909	0.010434	0.436807
H128	H	0.945536	0.182423	0.563374
