data_functionalizedCrystal
_audit_creation_method	'MofGen! by Chris Wilmer'
_symmetry_space_group_name_H-M	'P1'
_symmetry_Int_Tables_number	1
_symmetry_cell_setting	triclinic
loop_
_symmetry_equiv_pos_as_xyz
  x,y,z
_cell_length_a	14.519709
_cell_length_b	15.995350
_cell_length_c	13.596369
_cell_angle_alpha	89.996243
_cell_angle_beta	89.999709
_cell_angle_gamma	96.413740
loop_
_atom_site_label
_atom_site_type_symbol
_atom_site_fract_x
_atom_site_fract_y
_atom_site_fract_z
O1	O	-1.223669	0.109760	-0.081658
O2	O	-0.955169	0.122685	-0.081688
O3	O	-1.096759	-0.005654	-0.081671
O4	O	-1.082079	0.238099	-0.081675
O5	O	-1.096744	-0.005661	0.081912
O6	O	-0.955155	0.122679	0.081895
O7	O	-1.223655	0.109753	0.081925
Zn8	Zn	-1.089403	0.116215	0.107882
Zn9	Zn	-1.089421	0.116224	-0.107645
O10	O	-1.082065	0.238093	0.081908
C11	C	-0.920803	0.122080	0.000100
C12	C	-0.818425	0.120275	0.000088
C13	C	-1.096145	-0.036853	0.000118
C14	C	-1.094325	-0.129806	0.000112
C15	C	-1.258021	0.110359	0.000135
C16	C	-1.360399	0.112164	0.000140
C17	C	-0.443541	0.113629	0.000133
C18	C	-0.547846	0.115475	0.000120
C19	C	-0.630980	0.116952	0.000110
C20	C	-0.735291	0.118797	0.000099
C21	C	-1.087791	-0.467563	0.000115
C22	C	-0.986954	-0.420280	-0.000263
C23	C	-0.988773	-0.323587	0.000106
C24	C	-1.091032	-0.299998	0.000113
C25	C	-1.140761	-0.341005	0.093531
C26	C	-1.138228	-0.437644	0.093609
C27	C	-1.140327	-0.437992	-0.092415
C28	C	-1.140303	-0.341046	-0.093650
C29	C	-1.092869	-0.205298	0.000115
C30	C	-1.085957	-0.562264	0.000119
C31	C	-1.082679	0.269292	0.000116
C32	C	-1.084498	0.362245	0.000116
N33	N	-1.089397	0.116208	0.254974
N34	N	-1.089434	0.116224	-0.254737
C35	C	-1.089420	0.116225	0.656265
C36	C	-1.089411	0.116223	0.544614
C37	C	-1.089409	0.116217	0.455623
C38	C	-1.089399	0.116214	0.343965
H39	H	-0.949683	-0.295221	-0.066860
C40	C	-0.935599	-0.286018	0.090711
H41	H	-0.936522	-0.226725	0.091241
H42	H	-0.964191	-0.309458	0.148823
H43	H	-0.873267	-0.298682	0.087958
H44	H	-1.101954	-0.456003	0.163434
C45	C	-1.094081	-0.302753	0.187439
H46	H	-1.044294	-0.261803	0.169916
H47	H	-1.138120	-0.276950	0.225240
H48	H	-1.071008	-0.345914	0.225088
C49	C	-1.238234	-0.481064	0.099360
H50	H	-1.280227	-0.439617	0.101647
H51	H	-1.250961	-0.515560	0.043035
H52	H	-1.245212	-0.514789	0.156969
H53	H	-0.946656	-0.438870	-0.067255
C54	C	-0.932740	-0.446823	0.089725
H55	H	-0.971292	-0.486592	0.127526
H56	H	-0.879654	-0.471446	0.068244
H57	H	-0.913842	-0.398799	0.128934
H58	H	-1.215888	-0.326767	0.097010
C59	C	-1.095796	-0.465794	-0.188067
H60	H	-1.044742	-0.495699	-0.172462
H61	H	-1.140294	-0.501200	-0.224539
H62	H	-1.074857	-0.417625	-0.226201
H63	H	-1.103945	-0.313849	-0.162758
H64	H	-1.214674	-0.469641	-0.093038
C65	C	-1.241045	-0.320150	-0.101264
H66	H	-1.254438	-0.285971	-0.047114
H67	H	-1.248862	-0.290791	-0.160884
H68	H	-1.281995	-0.370806	-0.100467
