data_functionalizedCrystal
_audit_creation_method	'MofGen! by Chris Wilmer'
_symmetry_space_group_name_H-M	'P1'
_symmetry_Int_Tables_number	1
_symmetry_cell_setting	triclinic
loop_
_symmetry_equiv_pos_as_xyz
  x,y,z
_cell_length_a	16.120484
_cell_length_b	16.120542
_cell_length_c	15.296720
_cell_angle_alpha	82.715251
_cell_angle_beta	101.986518
_cell_angle_gamma	89.836765
loop_
_atom_site_label
_atom_site_type_symbol
_atom_site_fract_x
_atom_site_fract_y
_atom_site_fract_z
Zn1	Zn	-0.486515	-1.153843	-0.599991
Zn2	Zn	-0.603855	-1.170753	-0.456499
Zn3	Zn	-0.455450	-1.041400	-0.441289
Zn4	Zn	-0.618332	-1.007834	-0.599162
O5	O	-0.541038	-1.093457	-0.524235
O6	O	-0.509023	-1.271325	-0.587669
O7	O	-0.565109	-1.174718	-0.328359
O8	O	-0.342298	-1.063286	-0.456322
O9	O	-0.595232	-1.283749	-0.482246
O10	O	-0.365121	-1.145898	-0.572920
O11	O	-0.456077	-1.079683	-0.317184
O12	O	-0.470115	-0.921708	-0.455519
O13	O	-0.619906	-1.006078	-0.725395
O14	O	-0.589784	-0.897047	-0.571508
O15	O	-0.523061	-1.113350	-0.726004
O16	O	-0.723049	-1.142170	-0.481442
O17	O	-0.733686	-1.022475	-0.586256
C18	C	-0.528150	-0.879497	-0.511773
C19	C	-0.522660	-0.787958	-0.506465
C20	C	-0.569485	-0.567398	-0.551723
C21	C	-0.512644	-0.620361	-0.496771
C22	C	-0.518219	-0.713621	-0.502166
C23	C	-0.563912	-0.474130	-0.546329
C24	C	-0.758780	-1.080534	-0.535431
C25	C	-0.851939	-1.075076	-0.540255
C26	C	-1.022506	-1.065112	-0.549081
C27	C	-1.058742	-1.121947	-0.499413
C28	C	-1.153651	-1.116404	-0.504324
C29	C	-0.927588	-1.070655	-0.544171
C30	C	-0.322451	-1.106450	-0.513017
C31	C	-0.229302	-1.111987	-0.508236
C32	C	-0.576564	-1.054083	-0.759316
C33	C	-0.591702	-1.037304	-0.859493
C34	C	-0.553971	-0.308256	-0.536734
C35	C	-0.559466	-0.399796	-0.542027
C36	C	-0.432694	-1.213418	-1.143146
C37	C	-0.418472	-1.229187	-1.049024
C38	C	-0.461778	-1.181218	-1.001637
C39	C	-0.519309	-1.117476	-1.048380
C40	C	-0.533537	-1.101709	-1.142511
C41	C	-0.562622	-1.069509	-1.001002
C42	C	-0.620153	-1.005768	-1.047745
C43	C	-0.634378	-0.990003	-1.141867
C44	C	-0.591072	-1.037973	-1.189255
C45	C	-0.548393	-1.085276	-0.906871
C46	C	-0.649237	-0.973568	-0.906237
C47	C	-0.663459	-0.957798	-1.000358
C48	C	-0.505594	-1.132729	-0.290069
C49	C	-0.490228	-1.149681	-0.189889
H50	H	-1.018485	-1.174769	-0.453202
H51	H	-0.681231	-0.938107	-1.179924
C52	C	-1.076877	-0.993755	-0.611501
H53	H	-1.041664	-0.958823	-0.642024
H54	H	-1.103701	-0.961726	-0.576635
H55	H	-1.118811	-1.016697	-0.654366
H56	H	-0.501550	-1.137175	-0.868822
C57	C	-0.640882	-0.600753	-0.620743
H58	H	-0.675814	-0.555260	-0.654518
H59	H	-0.674088	-0.637940	-0.589974
H60	H	-0.616787	-0.629634	-0.660331
H61	H	-0.450195	-1.194061	-0.924999
C62	C	-0.441245	-0.587003	-0.427746
H63	H	-0.446819	-0.527788	-0.433126
H64	H	-0.387788	-0.602164	-0.438938
H65	H	-0.445094	-0.610465	-0.368585
C66	C	-0.385063	-1.266173	-1.195271
H67	H	-0.401774	-1.247649	-1.258022
H68	H	-0.398327	-1.323360	-1.183700
H69	H	-0.325694	-1.260045	-1.176258
H70	H	-0.710301	-0.905899	-1.038430
C71	C	-0.355192	-1.299294	-0.997613
H72	H	-0.331432	-1.325600	-1.039313
H73	H	-0.383863	-1.339419	-0.964630
H74	H	-0.311225	-1.276110	-0.957187
C75	C	-0.606715	-1.020628	-1.292789
H76	H	-0.572684	-1.058328	-1.314312
H77	H	-0.592241	-0.964781	-1.310242
H78	H	-0.664874	-1.028094	-1.317689
C79	C	-0.696873	-0.920797	-0.854121
H80	H	-0.680153	-0.939309	-0.791368
H81	H	-0.756239	-0.926915	-0.873133
H82	H	-0.683599	-0.863608	-0.865694
