data_functionalizedCrystal
_audit_creation_method	'MofGen! by Chris Wilmer'
_symmetry_space_group_name_H-M	'P1'
_symmetry_Int_Tables_number	1
_symmetry_cell_setting	triclinic
loop_
_symmetry_equiv_pos_as_xyz
  x,y,z
_cell_length_a	19.121111
_cell_length_b	13.897449
_cell_length_c	13.897441
_cell_angle_alpha	90.026069
_cell_angle_beta	87.592289
_cell_angle_gamma	92.470435
loop_
_atom_site_label
_atom_site_type_symbol
_atom_site_fract_x
_atom_site_fract_y
_atom_site_fract_z
Zn1	Zn	0.279592	-1.458247	-0.561877
Zn2	Zn	0.779592	-0.958247	-0.061877
Zn3	Zn	0.397055	-1.451227	-0.407451
Zn4	Zn	0.897055	-0.951227	0.092549
Zn5	Zn	0.279623	-1.296934	-0.400582
Zn6	Zn	0.779623	-0.796934	0.099418
Zn7	Zn	0.397007	-1.290007	-0.568685
Zn8	Zn	0.897007	-0.790007	-0.068685
O9	O	0.338319	-1.374104	-0.484649
O10	O	0.838319	-0.874104	0.015351
O11	O	0.295182	-1.592297	-0.541417
O12	O	0.795182	-1.092297	-0.041417
O13	O	0.381511	-1.430721	-0.271560
O14	O	0.881511	-0.930721	0.228440
O15	O	0.181334	-1.324169	-0.416254
O16	O	0.681334	-0.824169	0.083746
O17	O	0.381481	-1.587140	-0.427961
O18	O	0.881481	-1.087140	0.072039
O19	O	0.181312	-1.442685	-0.534757
O20	O	0.681312	-0.942685	-0.034757
O21	O	0.295234	-1.317363	-0.266513
O22	O	0.795234	-0.817363	0.233487
O23	O	0.295186	-1.161034	-0.422856
O24	O	0.795186	-0.661034	0.077144
O25	O	0.381398	-1.312363	-0.702762
O26	O	0.881398	-0.812363	-0.202762
O27	O	0.381428	-1.155945	-0.546361
O28	O	0.881428	-0.655945	-0.046361
O29	O	0.295134	-1.435968	-0.697760
O30	O	0.795134	-0.935968	-0.197760
O31	O	0.495333	-1.424004	-0.434563
O32	O	0.995333	-0.924004	0.065437
O33	O	0.495297	-1.305557	-0.553021
O34	O	0.995297	-0.805557	-0.053021
C35	C	0.338306	-1.123490	-0.484602
C36	C	0.838306	-0.623490	0.015398
C37	C	0.338317	-1.016276	-0.484607
C38	C	0.838317	-0.516276	0.015393
C39	C	0.338318	-0.929206	-0.484619
C40	C	0.838318	-0.429206	0.015381
C41	C	0.338322	-0.819973	-0.484643
C42	C	0.838322	-0.319973	0.015357
C43	C	0.520799	-1.363293	-0.495297
C44	C	1.020799	-0.863293	0.004703
C45	C	0.598865	-1.358757	-0.499885
C46	C	1.098865	-0.858757	0.000115
C47	C	0.635536	-1.418343	-0.440416
C48	C	1.135536	-0.918343	0.059584
C49	C	0.708887	-1.414082	-0.444737
C50	C	1.208887	-0.914082	0.055263
C51	C	0.745566	-1.350230	-0.508521
C52	C	1.245566	-0.850230	-0.008521
C53	C	0.708890	-1.290641	-0.567996
C54	C	1.208890	-0.790641	-0.067996
C55	C	0.635540	-1.294907	-0.563680
C56	C	1.135540	-0.794907	-0.063680
C57	C	0.967035	-1.334265	-0.524641
C58	C	1.467035	-0.834265	-0.024641
C59	C	1.040390	-1.330001	-0.528951
C60	C	1.540390	-0.830001	-0.028951
C61	C	1.040382	-1.453443	-0.405692
C62	C	1.540382	-0.953443	0.094308
C63	C	0.967031	-1.457700	-0.401377
C64	C	1.467031	-0.957700	0.098623
C65	C	0.930361	-1.398115	-0.460856
C66	C	1.430361	-0.898115	0.039144
C67	C	0.820543	-1.345871	-0.512937
C68	C	1.320543	-0.845871	-0.012937
C69	C	0.855386	-1.402480	-0.456444
C70	C	1.355386	-0.902480	0.043556
C71	C	1.155127	-1.384975	-0.473992
C72	C	1.655127	-0.884975	0.026008
C73	C	1.077061	-1.389587	-0.469482
C74	C	1.577061	-0.889587	0.030518
C75	C	0.338257	-1.374176	-0.736238
C76	C	0.838257	-0.874176	-0.236238
C77	C	0.338231	-1.374207	-0.843451
C78	C	0.838231	-0.874207	-0.343451
C79	C	0.338331	-0.625696	-0.484684
C80	C	0.838331	-0.125696	0.015316
C81	C	0.338328	-0.732910	-0.484668
C82	C	0.838328	-0.232910	0.015332
C83	C	0.338183	-1.374236	-1.039743
C84	C	0.838183	-0.874236	-0.539743
C85	C	0.338212	-1.374216	-0.930512
C86	C	0.838212	-0.874216	-0.430512
C87	C	0.338330	-1.374091	-0.234035
C88	C	0.838330	-0.874091	0.265965
C89	C	0.338159	-1.374258	-0.126811
C90	C	0.838159	-0.874258	0.373189
H91	H	0.605677	-1.470334	-0.388472
H92	H	1.105677	-0.970334	0.111528
H93	H	0.738760	-1.238655	-0.619936
H94	H	1.238760	-0.738655	-0.119936
H95	H	0.738741	-1.462603	-0.396310
H96	H	1.238741	-0.962603	0.103690
C97	C	1.062880	-1.615495	-0.360196
C98	C	1.562880	-1.115495	0.139804
C99	C	1.080686	-1.518948	-0.340322
C100	C	1.580686	-1.018948	0.159678
H101	H	1.087758	-1.655938	-0.319833
H102	H	1.587758	-1.155938	0.180167
H103	H	1.074862	-1.628870	-0.425716
H104	H	1.574862	-1.128870	0.074284
H105	H	1.013945	-1.627155	-0.348499
H106	H	1.513945	-1.127155	0.151501
H107	H	1.129621	-1.507286	-0.352025
H108	H	1.629621	-1.007286	0.147975
H109	H	1.068709	-1.505568	-0.274786
H110	H	1.568709	-1.005568	0.225214
H111	H	0.825520	-1.454472	-0.404514
H112	H	1.325520	-0.954472	0.095486
H113	H	0.937168	-1.509694	-0.349438
H114	H	1.437168	-1.009694	0.150562
C115	C	0.553117	-1.169947	-0.572111
C116	C	1.053117	-0.669947	-0.072111
C117	C	0.595229	-1.229408	-0.629050
C118	C	1.095229	-0.729408	-0.129050
H119	H	0.528229	-1.129517	-0.612474
H120	H	1.028229	-0.629517	-0.112474
H121	H	0.581776	-1.131405	-0.531744
H122	H	1.081776	-0.631405	-0.031744
H123	H	0.520778	-1.208595	-0.533510
H124	H	1.020778	-0.708595	-0.033510
H125	H	0.627571	-1.190760	-0.667646
H126	H	1.127571	-0.690760	-0.167646
H127	H	0.566567	-1.267954	-0.669433
H128	H	1.066567	-0.767954	-0.169433
C129	C	0.902975	-1.327604	-0.647508
C130	C	1.402975	-0.827604	-0.147508
C131	C	0.860866	-1.275678	-0.583040
C132	C	1.360866	-0.775678	-0.083040
H133	H	0.927874	-1.284269	-0.690782
H134	H	1.427874	-0.784269	-0.190782
H135	H	0.874313	-1.371259	-0.682766
H136	H	1.374313	-0.871259	-0.182766
H137	H	0.935304	-1.362487	-0.612696
H138	H	1.435304	-0.862487	-0.112696
H139	H	0.828533	-1.240801	-0.617852
H140	H	1.328533	-0.740801	-0.117852
H141	H	0.889531	-1.232006	-0.547778
H142	H	1.389531	-0.732006	-0.047778
C143	C	1.033034	-1.208424	-0.650379
C144	C	1.533034	-0.708424	-0.150379
C145	C	1.080709	-1.259818	-0.599078
C146	C	1.580709	-0.759818	-0.099078
H147	H	1.057927	-1.165105	-0.693674
H148	H	1.557927	-0.665105	-0.193674
H149	H	1.004472	-1.173204	-0.606644
H150	H	1.504472	-0.673204	-0.106644
H151	H	1.004378	-1.252112	-0.685625
H152	H	1.504378	-0.752112	-0.185625
H153	H	1.109362	-1.216131	-0.563826
H154	H	1.609362	-0.716131	-0.063826
H155	H	1.109283	-1.295040	-0.642819
H156	H	1.609283	-0.795040	-0.142819
H157	H	0.937184	-1.285746	-0.573069
H158	H	1.437184	-0.785746	-0.073069
