data_functionalizedCrystal
_audit_creation_method	'MofGen! by Chris Wilmer'
_symmetry_space_group_name_H-M	'P1'
_symmetry_Int_Tables_number	1
_symmetry_cell_setting	triclinic
loop_
_symmetry_equiv_pos_as_xyz
  x,y,z
_cell_length_a	10.489741
_cell_length_b	10.489741
_cell_length_c	16.776229
_cell_angle_alpha	89.993659
_cell_angle_beta	89.995573
_cell_angle_gamma	84.539174
loop_
_atom_site_label
_atom_site_type_symbol
_atom_site_fract_x
_atom_site_fract_y
_atom_site_fract_z
O1	O	1.694058	0.179971	-0.066238
O2	O	2.194058	0.679971	0.433762
O3	O	1.322863	0.196864	-0.066251
O4	O	1.822863	0.696864	0.433749
O5	O	1.516907	0.002820	-0.066240
O6	O	2.016907	0.502820	0.433760
O7	O	1.500014	0.374015	-0.066250
O8	O	2.000014	0.874015	0.433750
O9	O	1.516881	0.002807	0.066337
O10	O	2.016881	0.502807	0.566337
O11	O	1.322836	0.196852	0.066326
O12	O	1.822836	0.696852	0.566326
O13	O	1.694032	0.179959	0.066338
O14	O	2.194032	0.679959	0.566338
Zn15	Zn	1.508430	0.188403	0.087381
Zn16	Zn	2.008430	0.688403	0.587381
Zn17	Zn	1.508465	0.188419	-0.087294
Zn18	Zn	2.008465	0.688419	0.412706
O19	O	1.499988	0.374003	0.066327
O20	O	1.999988	0.874003	0.566327
C21	C	1.275318	0.195582	0.000036
C22	C	1.775318	0.695582	0.500036
C23	C	1.133688	0.191765	0.000031
C24	C	1.633688	0.691765	0.500031
C25	C	1.065548	0.068300	0.000042
C26	C	1.565548	0.568300	0.500042
C27	C	0.973434	0.126629	-0.065325
C28	C	1.473434	0.626629	0.434675
C29	C	0.973443	0.126647	0.065385
C30	C	1.473443	0.626647	0.565385
C31	C	1.043440	0.250145	-0.065390
C32	C	1.543440	0.750145	0.434610
C33	C	1.043458	0.250145	0.065379
C34	C	1.543458	0.750145	0.565379
C35	C	0.951371	0.308564	-0.000004
C36	C	1.451371	0.808564	0.499996
C37	C	1.515618	-0.044718	0.000048
C38	C	2.015618	0.455282	0.500048
C39	C	1.511801	-0.186348	0.000047
C40	C	2.011801	0.313652	0.500047
C41	C	1.388336	-0.254488	0.000037
C42	C	1.888336	0.245512	0.500037
C43	C	1.446647	-0.346616	0.065406
C44	C	1.946647	0.153384	0.565406
C45	C	1.446702	-0.346579	-0.065304
C46	C	1.946702	0.153421	0.434696
C47	C	1.570162	-0.276611	0.065470
C48	C	2.070162	0.223389	0.565470
C49	C	1.570200	-0.276564	-0.065299
C50	C	2.070200	0.223436	0.434701
C51	C	1.628600	-0.368665	0.000086
C52	C	2.128600	0.131335	0.500086
C53	C	1.741577	0.181241	0.000050
C54	C	2.241577	0.681241	0.500050
C55	C	1.883206	0.185058	0.000049
C56	C	2.383206	0.685058	0.500049
C57	C	1.501277	0.421541	0.000037
C58	C	2.001277	0.921541	0.500037
C59	C	1.505094	0.563170	0.000034
C60	C	2.005094	1.063170	0.500034
N61	N	1.508416	0.188391	0.206592
N62	N	2.008416	0.688391	0.706592
N63	N	1.508489	0.188421	-0.206505
N64	N	2.008489	0.688421	0.293495
C65	C	1.594366	0.102504	0.248315
C66	C	2.094366	0.602504	0.748315
C67	C	1.594373	0.102503	0.331767
C68	C	2.094373	0.602503	0.831767
C69	C	1.508435	0.188397	0.373495
C70	C	2.008435	0.688397	0.873495
C71	C	1.422477	0.274288	0.331767
C72	C	1.922477	0.774288	0.831767
C73	C	1.422464	0.274281	0.248317
C74	C	1.922464	0.774281	0.748317
C75	C	1.422523	0.274313	0.668315
C76	C	1.922523	0.774313	1.168315
C77	C	1.422544	0.274315	0.751771
C78	C	1.922544	0.774315	1.251771
C79	C	1.594431	0.102535	0.751765
C80	C	2.094431	0.602535	1.251765
C81	C	1.594419	0.102529	0.668314
C82	C	2.094419	0.602529	1.168314
C83	C	1.508456	0.188415	0.626593
C84	C	2.008456	0.688415	1.126593
C85	C	1.508448	0.188413	0.536105
C86	C	2.008448	0.688413	1.036105
C87	C	1.508449	0.188405	0.463982
C88	C	2.008449	0.688405	0.963982
H89	H	1.074279	0.302350	-0.120715
H90	H	1.574279	0.802350	0.379285
C91	C	1.688904	0.008013	0.202421
C92	C	2.188904	0.508013	0.702421
N93	N	1.760110	-0.063165	0.167856
N94	N	2.260110	0.436835	0.667856
H95	H	1.622347	-0.245784	0.120796
H96	H	2.122347	0.254216	0.620796
H97	H	1.730204	-0.418089	0.000125
H98	H	2.230204	0.081911	0.500125
C99	C	1.132629	-0.068836	-0.000042
C100	C	1.632629	0.431164	0.499958
N101	N	1.183156	-0.172123	-0.000110
N102	N	1.683156	0.327877	0.499890
C103	C	0.884590	0.445821	-0.000057
C104	C	1.384590	0.945821	0.499943
N105	N	0.834285	0.549201	-0.000101
N106	N	1.334285	1.049201	0.499899
H107	H	1.074493	0.302338	0.120643
H108	H	1.574493	0.802338	0.620643
H109	H	1.286824	-0.204837	0.000099
H110	H	1.786824	0.295163	0.500099
C111	C	1.376057	-0.388526	0.140059
C112	C	1.876057	0.111474	0.640059
N113	N	1.322880	-0.420088	0.196285
N114	N	1.822880	0.079912	0.696285
H115	H	1.664423	0.032598	0.785742
H116	H	2.164423	0.532598	1.285742
C117	C	1.327994	0.368801	0.797671
C118	C	1.827994	0.868801	1.297671
N119	N	1.256781	0.439962	0.832243
N120	N	1.756781	0.939962	1.332243
H121	H	0.942431	0.074394	-0.120586
H122	H	1.442431	0.574394	0.379414
H123	H	1.394456	-0.377538	-0.120574
H124	H	1.894456	0.122462	0.379426
H125	H	0.942454	0.074379	0.120648
H126	H	1.442454	0.574379	0.620648
C127	C	1.327932	0.368759	0.377672
C128	C	1.827932	0.868759	0.877672
N129	N	1.256719	0.439917	0.412247
N130	N	1.756719	0.939917	0.912247
C131	C	1.640729	-0.234611	-0.139960
C132	C	2.140729	0.265389	0.360040
N133	N	1.693842	-0.203009	-0.196200
N134	N	2.193842	0.296991	0.303800
H135	H	1.352474	0.344218	0.214347
H136	H	1.852474	0.844218	0.714347
H137	H	1.352531	0.344247	0.634352
H138	H	1.852531	0.844247	1.134352
H139	H	1.664358	0.032567	0.365736
H140	H	2.164358	0.532567	0.865736
H141	H	1.664401	0.032591	0.634341
H142	H	2.164401	0.532591	1.134341
