data_functionalizedCrystal
_audit_creation_method	'MofGen! by Chris Wilmer'
_symmetry_space_group_name_H-M	'P1'
_symmetry_Int_Tables_number	1
_symmetry_cell_setting	triclinic
loop_
_symmetry_equiv_pos_as_xyz
  x,y,z
_cell_length_a	14.519709
_cell_length_b	10.654550
_cell_length_c	9.730223
_cell_angle_alpha	90.000193
_cell_angle_beta	89.994593
_cell_angle_gamma	84.082524
loop_
_atom_site_label
_atom_site_type_symbol
_atom_site_fract_x
_atom_site_fract_y
_atom_site_fract_z
O1	O	-1.224716	-0.164618	-0.114107
O2	O	-0.956339	-0.184004	-0.114149
O3	O	-1.096698	0.008488	-0.114122
O4	O	-1.084357	-0.357109	-0.114134
O5	O	-1.096696	0.008483	0.114458
O6	O	-0.956338	-0.184009	0.114431
O7	O	-1.224714	-0.164622	0.114473
Zn8	Zn	-1.090526	-0.174316	0.150744
Zn9	Zn	-1.090528	-0.174310	-0.150420
O10	O	-1.084355	-0.357114	0.114446
C11	C	-0.921974	-0.183103	0.000136
C12	C	-0.819579	-0.180396	0.000120
C13	C	-1.095791	0.055275	0.000166
C14	C	-1.093080	0.194692	0.000161
C15	C	-1.259079	-0.165524	0.000185
C16	C	-1.361475	-0.168231	0.000192
C17	C	-0.444631	-0.170428	0.000183
C18	C	-0.548954	-0.173196	0.000165
C19	C	-0.632102	-0.175412	0.000150
C20	C	-0.736431	-0.178180	0.000135
C21	C	-1.085262	-0.403901	0.000155
C22	C	-1.087973	-0.543318	0.000151
N23	N	-1.090531	-0.174320	0.356280
C24	C	-1.175721	0.274972	0.000178
C25	C	-1.173168	0.405968	0.000168
C26	C	-1.005326	0.376391	0.000130
C27	C	-1.007880	0.245397	0.000130
C28	C	-1.272623	0.292049	0.000206
C29	C	-1.270070	0.423046	0.000196
N30	N	-1.090530	-0.174297	-0.355956
C31	C	-1.152698	-0.089113	0.428218
C32	C	-1.152695	-0.089098	0.572101
C33	C	-1.028356	-0.259507	0.572096
C34	C	-1.028355	-0.259516	0.428215
C35	C	-1.224487	0.009267	0.428223
C36	C	-1.224485	0.009283	0.572106
H37	H	-0.935959	0.417692	0.000103
H38	H	-1.291445	-0.020677	0.383606
H39	H	-1.306581	0.465155	0.095860
O40	O	-1.197806	0.117967	0.625116
C41	C	-1.147558	0.322112	0.577340
C42	C	-1.177759	0.199101	0.517120
H43	H	-1.131323	0.387732	0.490055
H44	H	-1.205791	0.370282	0.643223
H45	H	-1.083132	0.299346	0.643342
H46	H	-1.242164	0.221758	0.451057
H47	H	-1.119471	0.150966	0.451316
H48	H	-1.295354	-0.011554	0.611167
H49	H	-1.208741	0.105648	0.389169
O50	O	-0.927516	0.167592	0.000163
C51	C	-0.760771	0.152084	0.000023
C52	C	-0.851716	0.240343	0.000018
H53	H	-0.699463	0.210868	-0.000123
H54	H	-0.757697	0.090039	0.095705
H55	H	-0.757830	0.089993	-0.095616
H56	H	-0.854717	0.302513	0.095593
H57	H	-0.854753	0.302303	-0.095726
O58	O	-0.967926	-0.342397	0.358547
C59	C	-0.844548	-0.511350	0.373731
C60	C	-0.912953	-0.417573	0.452801
H61	H	-0.800072	-0.572137	0.449900
H62	H	-0.884705	-0.574311	0.306415
H63	H	-0.798181	-0.456957	0.306325
H64	H	-0.959336	-0.471864	0.520281
H65	H	-0.872739	-0.354614	0.520030
H66	H	-0.977733	-0.328870	0.630681
O67	O	-1.317698	0.257489	-0.114044
C68	C	-1.321978	0.254310	-0.361575
C69	C	-1.270832	0.293492	-0.232307
H70	H	-1.284119	0.283427	-0.457223
H71	H	-1.324037	0.147636	-0.361692
H72	H	-1.395690	0.302942	-0.361501
H73	H	-1.197098	0.244949	-0.232296
H74	H	-1.268848	0.400179	-0.232239
O75	O	-1.309275	0.250066	0.118156
C76	C	-1.375303	0.305325	0.339953
C77	C	-1.333982	0.353072	0.206333
H78	H	-1.395273	0.388577	0.411293
H79	H	-1.439404	0.256287	0.314752
H80	H	-1.321754	0.235736	0.392776
H81	H	-1.387462	0.422706	0.153445
H82	H	-1.269862	0.402035	0.231623
O83	O	-1.304851	0.477875	-0.117610
C84	C	-1.275460	0.602363	-0.316592
C85	C	-1.235953	0.540309	-0.183232
H86	H	-1.219781	0.652878	-0.369671
H87	H	-1.298683	0.526795	-0.387922
H88	H	-1.337197	0.673435	-0.290854
H89	H	-1.174189	0.469247	-0.208842
H90	H	-1.212793	0.615947	-0.111941
