data_functionalizedCrystal
_audit_creation_method	'MofGen! by Chris Wilmer'
_symmetry_space_group_name_H-M	'P1'
_symmetry_Int_Tables_number	1
_symmetry_cell_setting	triclinic
loop_
_symmetry_equiv_pos_as_xyz
  x,y,z
_cell_length_a	16.625547
_cell_length_b	18.101397
_cell_length_c	16.625539
_cell_angle_alpha	89.968146
_cell_angle_beta	89.975178
_cell_angle_gamma	90.020402
loop_
_atom_site_label
_atom_site_type_symbol
_atom_site_fract_x
_atom_site_fract_y
_atom_site_fract_z
Zn1	Zn	1.232692	-0.294829	-0.455981
Zn2	Zn	1.732692	0.205171	0.044019
Zn3	Zn	1.232600	-0.418678	-0.321140
Zn4	Zn	1.732600	0.081322	0.178860
Zn5	Zn	1.097854	-0.294855	-0.321151
Zn6	Zn	1.597854	0.205145	0.178849
Zn7	Zn	1.097829	-0.418634	-0.455920
Zn8	Zn	1.597829	0.081366	0.044080
O9	O	1.165243	-0.356749	-0.388548
O10	O	1.665243	0.143251	0.111452
O11	O	1.345512	-0.311266	-0.438115
O12	O	1.845512	0.188734	0.061885
O13	O	1.214697	-0.402283	-0.208309
O14	O	1.714697	0.097717	0.291691
O15	O	1.115789	-0.191219	-0.339067
O16	O	1.615789	0.308781	0.160933
O17	O	1.345444	-0.402258	-0.339048
O18	O	1.845444	0.097742	0.160952
O19	O	1.214854	-0.191200	-0.438126
O20	O	1.714854	0.308800	0.061874
O21	O	1.115700	-0.311310	-0.208317
O22	O	1.615700	0.188690	0.291683
O23	O	0.985018	-0.311267	-0.339008
O24	O	1.485018	0.188733	0.160992
O25	O	1.115747	-0.402181	-0.568760
O26	O	1.615747	0.097819	-0.068760
O27	O	0.985000	-0.402206	-0.438022
O28	O	1.485000	0.097794	0.061978
O29	O	1.214830	-0.311223	-0.568805
O30	O	1.714830	0.188777	-0.068805
O31	O	1.214673	-0.522305	-0.338988
O32	O	1.714673	-0.022305	0.161012
O33	O	1.115657	-0.522272	-0.438010
O34	O	1.615657	-0.022272	0.061990
C35	C	0.955753	-0.356735	-0.388510
C36	C	1.455753	0.143265	0.111490
C37	C	0.866131	-0.356746	-0.388513
C38	C	1.366131	0.143254	0.111487
C39	C	0.793349	-0.356748	-0.388523
C40	C	1.293349	0.143252	0.111477
C41	C	0.702041	-0.356752	-0.388543
C42	C	1.202041	0.143248	0.111457
C43	C	0.629264	-0.356759	-0.388563
C44	C	1.129264	0.143241	0.111437
C45	C	0.537950	-0.356764	-0.388583
C46	C	1.037950	0.143236	0.111417
C47	C	1.165174	-0.549160	-0.388509
C48	C	1.665174	-0.049160	0.111491
C49	C	1.165219	-0.631474	-0.388519
C50	C	1.665219	-0.131474	0.111481
C51	C	1.165322	-0.930565	-0.388593
C52	C	1.665322	-0.430565	0.111407
C53	C	1.227446	-0.899230	-0.326124
C54	C	1.727446	-0.399230	0.173876
C55	C	1.227661	-0.813611	-0.326286
C56	C	1.727661	-0.313611	0.173714
C57	C	1.165271	-0.782182	-0.388556
C58	C	1.665271	-0.282182	0.111444
C59	C	1.188307	-0.813188	-0.473547
C60	C	1.688307	-0.313188	0.026453
C61	C	1.188788	-0.898833	-0.473207
C62	C	1.688788	-0.398833	0.026793
C63	C	1.079995	-0.899074	-0.366805
C64	C	1.579995	-0.399074	0.133195
C65	C	1.080417	-0.813425	-0.364908
C66	C	1.580417	-0.313425	0.135092
C67	C	1.165240	-0.698323	-0.388540
C68	C	1.665240	-0.198323	0.111460
C69	C	1.165354	-1.014424	-0.388614
C70	C	1.665354	-0.514424	0.111386
C71	C	1.375552	-0.356764	-0.388587
C72	C	1.875552	0.143236	0.111413
C73	C	1.465173	-0.356771	-0.388603
C74	C	1.965173	0.143229	0.111397
C75	C	1.165296	-0.356694	-0.598857
C76	C	1.665296	0.143306	-0.098857
C77	C	1.165318	-0.356670	-0.688478
C78	C	1.665318	0.143330	-0.188478
C79	C	1.165335	-0.163587	-0.388605
C80	C	1.665335	0.336413	0.111395
C81	C	1.165373	-0.081273	-0.388629
C82	C	1.665373	0.418727	0.111371
C83	C	1.165355	-0.356588	-1.016654
C84	C	1.665355	0.143412	-0.516654
C85	C	1.165343	-0.356613	-0.925346
C86	C	1.665343	0.143387	-0.425346
C87	C	1.165337	-0.356630	-0.852569
C88	C	1.665337	0.143370	-0.352569
C89	C	1.165324	-0.356654	-0.761255
C90	C	1.665324	0.143346	-0.261255
C91	C	1.165238	-0.356751	-0.179057
C92	C	1.665238	0.143249	0.320943
C93	C	1.165371	-0.356566	-0.089437
C94	C	1.665371	0.143434	0.410563
H95	H	1.213249	-0.792651	-0.263266
H96	H	1.713249	-0.292651	0.236734
H97	H	1.251157	-0.918751	-0.491662
H98	H	1.751157	-0.418751	0.008338
Br99	Br	1.115190	-0.779267	-0.553214
Br100	Br	1.615190	-0.279267	-0.053214
Br101	Br	1.051458	-0.779658	-0.260661
Br102	Br	1.551458	-0.279658	0.239339
H103	H	1.145521	-0.919558	-0.521356
H104	H	1.645521	-0.419558	-0.021356
Br105	Br	1.332219	-0.935007	-0.349871
Br106	Br	1.832219	-0.435007	0.150129
Br107	Br	1.333006	-0.779363	-0.350317
Br108	Br	1.833006	-0.279363	0.149683
Br109	Br	1.045064	-0.935179	-0.265300
Br110	Br	1.545064	-0.435179	0.234700
H111	H	1.249978	-0.791680	-0.492314
H112	H	1.749978	-0.291680	0.007686
H113	H	1.031640	-0.792038	-0.407075
H114	H	1.531640	-0.292038	0.092925
H115	H	1.033708	-0.919339	-0.412304
H116	H	1.533708	-0.419339	0.087696
H117	H	1.213208	-0.919874	-0.262915
H118	H	1.713208	-0.419874	0.237085
