data_functionalizedCrystal
_audit_creation_method	'MofGen! by Chris Wilmer'
_symmetry_space_group_name_H-M	'P1'
_symmetry_Int_Tables_number	1
_symmetry_cell_setting	triclinic
loop_
_symmetry_equiv_pos_as_xyz
  x,y,z
_cell_length_a	10.489711
_cell_length_b	10.489716
_cell_length_c	16.053802
_cell_angle_alpha	92.595649
_cell_angle_beta	87.391283
_cell_angle_gamma	84.528072
loop_
_atom_site_label
_atom_site_type_symbol
_atom_site_fract_x
_atom_site_fract_y
_atom_site_fract_z
O1	O	1.699394	0.174466	-0.069452
O2	O	1.328192	0.191399	-0.069446
O3	O	1.522256	-0.002669	-0.069452
O4	O	1.505330	0.368533	-0.069446
O5	O	1.511574	0.007969	0.069407
O6	O	1.317510	0.202036	0.069413
O7	O	1.688712	0.185103	0.069408
Zn8	Zn	1.501415	0.195259	0.091457
Zn9	Zn	1.515489	0.181243	-0.091496
O10	O	1.494648	0.379171	0.069414
C11	C	1.275318	0.195447	-0.000016
C12	C	1.133687	0.191645	-0.000014
C13	C	0.951291	0.308350	-0.000021
C14	C	1.048709	0.244809	-0.068486
C15	C	1.038150	0.255266	0.068418
C16	C	0.978774	0.121260	-0.068553
C17	C	0.968200	0.131738	0.068413
C18	C	1.065592	0.068106	-0.000068
C19	C	1.515643	-0.044882	-0.000025
C20	C	1.511839	-0.186513	-0.000032
C21	C	1.630845	-0.284200	-0.000027
C22	C	1.573226	-0.366798	-0.068488
C23	C	1.562667	-0.356274	0.068416
C24	C	1.454274	-0.267251	-0.068551
C25	C	1.443728	-0.256717	0.068415
C26	C	1.386023	-0.339268	-0.000063
C27	C	1.741585	0.181055	-0.000024
C28	C	1.883217	0.184857	-0.000032
C29	C	1.501260	0.421384	-0.000015
C30	C	1.505065	0.563015	-0.000013
N31	N	1.491819	0.204823	0.216318
N32	N	1.525095	0.171669	-0.216356
C33	C	1.574424	0.122277	0.260009
C34	C	1.567723	0.128980	0.347416
C35	C	1.478423	0.218236	0.391130
C36	C	1.395809	0.300785	0.347433
C37	C	1.402504	0.294076	0.260027
C38	C	1.449176	0.247509	0.652541
C39	C	1.442490	0.254215	0.739952
C40	C	1.614404	0.082407	0.739930
C41	C	1.621096	0.075710	0.652523
C42	C	1.538478	0.158255	0.608833
N43	N	1.471574	0.225092	0.480474
N44	N	1.545321	0.151392	0.519491
H45	H	1.064648	0.311974	0.126301
N46	N	1.346181	0.350500	0.787104
H47	H	1.294859	0.401777	0.746165
H48	H	1.286575	0.303910	0.823390
H49	H	1.693812	0.003031	0.616933
H50	H	1.681667	0.015201	0.775510
N51	N	1.645658	-0.430313	-0.145156
H52	H	1.605637	-0.396655	-0.196868
H53	H	1.738057	-0.410682	-0.145033
N54	N	1.623333	-0.407992	0.145085
H55	H	1.715750	-0.388375	0.145017
H56	H	1.575272	-0.366367	0.196754
N57	N	1.360064	0.336529	0.605425
H58	H	1.302480	0.394088	0.646383
H59	H	1.412172	0.390615	0.569143
N60	N	1.767965	-0.251532	-0.000110
H61	H	1.816756	-0.291917	-0.051876
H62	H	1.769458	-0.155370	0.000449
H63	H	1.282433	-0.363690	-0.000098
H64	H	1.335236	0.361292	0.224455
N65	N	1.393664	-0.215778	-0.145304
H66	H	1.396673	-0.119799	-0.144849
H67	H	1.442250	-0.256965	-0.196914
H68	H	0.952427	0.064617	-0.126502
N69	N	1.299481	0.397047	0.394577
H70	H	1.307774	0.388776	0.456578
H71	H	1.316201	0.486511	0.379289
N72	N	1.371334	-0.193168	0.145080
H73	H	1.336559	-0.260734	0.180203
H74	H	1.431089	-0.143797	0.178713
N75	N	0.885455	0.442788	-0.000102
H76	H	0.914706	0.485301	-0.051868
H77	H	0.789554	0.439162	0.000456
N78	N	0.921199	0.068450	0.145080
H79	H	0.964430	-0.021742	0.145627
H80	H	0.942380	0.119230	0.196732
H81	H	1.115061	-0.033493	-0.000105
N82	N	1.095634	0.308130	-0.145166
H83	H	1.053645	0.398878	-0.145120
H84	H	1.191757	0.309437	-0.144841
H85	H	1.634986	0.061764	0.382990
N86	N	1.670749	0.026015	0.212864
H87	H	1.722060	-0.025261	0.253809
H88	H	1.624186	-0.033635	0.176609
