data_functionalizedCrystal
_audit_creation_method	'MofGen! by Chris Wilmer'
_symmetry_space_group_name_H-M	'P1'
_symmetry_Int_Tables_number	1
_symmetry_cell_setting	triclinic
loop_
_symmetry_equiv_pos_as_xyz
  x,y,z
_cell_length_a	12.759400
_cell_length_b	12.759401
_cell_length_c	18.215407
_cell_angle_alpha	90.008122
_cell_angle_beta	90.008126
_cell_angle_gamma	90.013808
loop_
_atom_site_label
_atom_site_type_symbol
_atom_site_fract_x
_atom_site_fract_y
_atom_site_fract_z
Zn1	Zn	-0.418464	1.606136	0.416095
Zn2	Zn	-0.594113	1.606066	0.293038
Zn3	Zn	-0.418446	1.430473	0.293047
Zn4	Zn	-0.594099	1.430426	0.416067
O5	O	-0.506280	1.518275	0.354562
O6	O	-0.441777	1.753147	0.399779
O7	O	-0.570809	1.582763	0.190055
O8	O	-0.271427	1.453824	0.309385
O9	O	-0.570826	1.753096	0.309369
O10	O	-0.271440	1.582882	0.399788
O11	O	-0.441747	1.453756	0.190062
O12	O	-0.441733	1.283446	0.309358
O13	O	-0.570802	1.453744	0.519055
O14	O	-0.570784	1.283412	0.399740
O15	O	-0.441764	1.582837	0.519076
O16	O	-0.741132	1.582718	0.309342
O17	O	-0.741122	1.453676	0.399731
C18	C	-0.506256	1.245308	0.354548
C19	C	-0.506271	1.128531	0.354559
C20	C	-0.438986	1.073656	0.307583
C21	C	-0.439011	0.963932	0.307593
C22	C	-0.573608	0.963968	0.401560
C23	C	-0.573588	1.073690	0.401547
C24	C	-0.401305	0.813944	0.220865
C25	C	-0.334003	0.759066	0.173895
C26	C	-0.231457	0.794677	0.162715
C27	C	-0.196191	0.885166	0.198516
C28	C	-0.263487	0.940039	0.245491
C29	C	-0.366048	0.904429	0.256656
C30	C	-0.611283	1.223679	0.488276
C31	C	-0.678575	1.278554	0.535255
C32	C	-0.781123	1.242945	0.546442
C33	C	-0.816385	1.152453	0.510655
C34	C	-0.749093	1.097578	0.463676
C35	C	-0.646547	1.133195	0.452487
C36	C	-0.779248	1.518213	0.354549
C37	C	-0.896024	1.518283	0.354568
C38	C	-0.950803	1.585454	0.401680
C39	C	-1.060527	1.585513	0.401700
C40	C	-1.060684	1.451226	0.307488
C41	C	-0.950962	1.451163	0.307473
C42	C	-1.210404	1.623047	0.488537
C43	C	-1.265186	1.690235	0.535644
C44	C	-1.229486	1.792717	0.547000
C45	C	-1.139005	1.828032	0.511239
C46	C	-1.084228	1.760849	0.464128
C47	C	-1.119926	1.658353	0.452785
C48	C	-0.801083	1.413639	0.220635
C49	C	-0.746304	1.346461	0.173519
C50	C	-0.782002	1.243978	0.162155
C51	C	-0.872487	1.208667	0.197902
C52	C	-0.927266	1.275845	0.245019
C53	C	-0.891560	1.378327	0.256384
C54	C	-0.232247	1.518366	0.354591
C55	C	-0.115470	1.518405	0.354603
C56	C	-0.506283	1.518293	0.546515
C57	C	-0.506284	1.518301	0.628313
C58	C	-0.506305	1.792308	0.354576
C59	C	-0.506316	1.909085	0.354582
C60	C	-0.439105	1.585499	0.816519
C61	C	-0.439105	1.585493	0.893378
C62	C	-0.573479	1.451069	0.893345
C63	C	-0.573473	1.451070	0.816488
C64	C	-0.506288	1.518291	0.778077
C65	C	-0.506293	1.518284	0.931793
C66	C	-0.506293	1.518277	1.015127
C67	C	-0.506286	1.518297	0.694738
C68	C	-0.506300	1.518257	1.163355
C69	C	-0.506297	1.518274	1.081557
H70	H	-0.384170	1.118305	0.269324
H71	H	-0.906076	1.640106	0.440029
H72	H	-0.628181	1.396334	0.785187
C73	C	-0.498475	1.262853	0.475969
C74	C	-0.459682	1.362380	0.515342
C75	C	-0.346874	1.401553	0.503039
C76	C	-0.272858	1.341199	0.451362
C77	C	-0.311649	1.241666	0.411985
C78	C	-0.424457	1.202493	0.424288
H79	H	-0.514474	1.407063	0.553600
H80	H	-0.318159	1.475235	0.532189
H81	H	-0.189351	1.370197	0.442255
H82	H	-0.256857	1.196983	0.373728
H83	H	-0.453173	1.128811	0.395139
C84	C	-0.083381	0.924339	0.186234
C85	C	-0.007469	0.933523	0.251651
C86	C	0.105342	0.972703	0.239372
C87	C	0.142241	1.002699	0.161676
C88	C	0.066328	0.993515	0.096253
C89	C	-0.046483	0.954335	0.108532
H90	H	-0.034783	0.911317	0.309171
H91	H	0.161538	0.979501	0.287803
H92	H	0.225751	1.031702	0.152586
H93	H	0.093642	1.015721	0.038733
H94	H	-0.102679	0.947537	0.060102
H95	H	-0.384396	1.640231	0.785247
H96	H	-0.234771	1.013707	0.274645
H97	H	-1.109951	1.911488	0.520483
H98	H	-0.628181	1.396343	0.924629
C99	C	-0.157426	0.734315	0.111047
C100	C	-0.196208	0.634785	0.071672
C101	C	-0.122184	0.574421	0.020001
C102	C	-0.009378	0.613587	0.007704
C103	C	0.029410	0.713122	0.047080
C104	C	-0.044614	0.773487	0.098751
H105	H	-0.279719	0.605787	0.080774
H106	H	-0.150898	0.500738	-0.009148
H107	H	0.045419	0.568901	-0.030547
H108	H	0.112922	0.742120	0.037978
H109	H	-0.015900	0.847170	0.127900
C110	C	-0.365206	1.659426	0.935665
C111	C	-0.365201	1.659426	1.020205
C112	C	-0.291298	1.733362	1.062491
C113	C	-0.217400	1.807299	1.020237
C114	C	-0.217402	1.807301	0.935692
C115	C	-0.291305	1.733365	0.893406
H116	H	-0.419907	1.604692	1.051488
H117	H	-0.291297	1.733360	1.125077
H118	H	-0.162693	1.862031	1.051540
H119	H	-0.162696	1.862036	0.904409
H120	H	-0.291306	1.733368	0.830820
C121	C	-0.647647	0.903641	0.453251
C122	C	-0.639260	0.918773	0.536920
C123	C	-0.713298	0.858450	0.588614
C124	C	-0.795723	0.782996	0.556638
C125	C	-0.804114	0.767860	0.472964
C126	C	-0.730075	0.828183	0.421271
H127	H	-0.578241	0.974632	0.560594
H128	H	-0.707087	0.869655	0.650555
H129	H	-0.850531	0.738341	0.594905
H130	H	-0.865133	0.712001	0.449290
H131	H	-0.736287	0.816979	0.359330
H132	H	-0.672630	1.375223	0.144408
H133	H	-0.362726	0.685389	0.144747
H134	H	-0.484809	0.784948	0.229955
H135	H	-0.777811	1.023892	0.434538
H136	H	-0.899885	1.123454	0.519768
H137	H	-0.835905	1.287626	0.584706
H138	H	-0.649846	1.352222	0.564410
H139	H	-1.239473	1.539595	0.479302
C140	C	-1.289742	1.866623	0.598820
C141	C	-1.389263	1.827786	0.638152
C142	C	-1.449521	1.901685	0.689975
C143	C	-1.410256	2.014420	0.702467
C144	C	-1.310729	2.053263	0.663134
C145	C	-1.250472	1.979364	0.611311
H146	H	-1.418334	1.744328	0.628906
H147	H	-1.523198	1.872931	0.719092
H148	H	-1.454863	2.069124	0.740830
H149	H	-1.281659	2.136721	0.672380
H150	H	-1.176795	2.008118	0.582194
H151	H	-1.000944	1.247085	0.274126
C152	C	-1.121120	1.377410	0.255679
C153	C	-1.106064	1.386066	0.172021
C154	C	-1.166499	1.312253	0.120207
C155	C	-1.241991	1.229782	0.152052
C156	C	-1.257050	1.221122	0.235714
C157	C	-1.196615	1.294936	0.287528
H158	H	-1.050177	1.447119	0.148444
H159	H	-1.155350	1.318664	0.058275
H160	H	-1.286728	1.175141	0.113696
H161	H	-1.312937	1.160070	0.259291
H162	H	-1.207764	1.288525	0.349460
H163	H	-0.737392	1.189284	0.123787
C164	C	-0.761817	1.526380	0.233132
C165	C	-0.662300	1.565228	0.193799
C166	C	-0.623036	1.677969	0.206290
C167	C	-0.683288	1.751862	0.258114
C168	C	-0.782810	1.713016	0.297451
C169	C	-0.822075	1.600274	0.284960
H170	H	-0.617693	1.510527	0.155432
H171	H	-0.549363	1.706726	0.177170
H172	H	-0.654222	1.835320	0.267361
H173	H	-0.827418	1.767717	0.335817
H174	H	-0.895748	1.571518	0.314079
H175	H	-1.338857	1.661472	0.564760
H176	H	-1.010561	1.789603	0.435011
H177	H	-0.901556	1.125217	0.188648
