data_functionalizedCrystal
_audit_creation_method	'MofGen! by Chris Wilmer'
_symmetry_space_group_name_H-M	'P1'
_symmetry_Int_Tables_number	1
_symmetry_cell_setting	triclinic
loop_
_symmetry_equiv_pos_as_xyz
  x,y,z
_cell_length_a	11.026623
_cell_length_b	14.421503
_cell_length_c	10.967971
_cell_angle_alpha	77.865608
_cell_angle_beta	83.619273
_cell_angle_gamma	89.991045
loop_
_atom_site_label
_atom_site_type_symbol
_atom_site_fract_x
_atom_site_fract_y
_atom_site_fract_z
O1	O	-1.614509	-0.006542	0.523503
O2	O	-1.260709	0.002985	0.463889
O3	O	-1.445776	0.026952	0.313881
O4	O	-1.429442	-0.030509	0.673512
O5	O	-1.445746	-0.127275	0.313902
O6	O	-1.260678	-0.151242	0.463911
O7	O	-1.614478	-0.160769	0.523525
Cu8	Cu	-1.437576	-0.170087	0.493720
Cu9	Cu	-1.437612	0.012304	0.493694
O10	O	-1.429411	-0.184735	0.673534
C11	C	-1.215392	-0.072371	0.452903
C12	C	-1.080406	-0.067131	0.420118
N13	N	-1.437559	-0.298372	0.493739
C14	C	-1.007351	-0.081594	0.510638
C15	C	-0.867836	-0.076179	0.476756
C16	C	-1.351968	-0.559101	0.563060
C17	C	-1.462027	-0.628724	0.612003
C18	C	-1.437588	-0.487529	0.493716
C19	C	-1.327558	-0.602006	0.444809
C20	C	-1.437607	-0.670247	0.493694
C21	C	-1.547703	-0.555803	0.542727
C22	C	-1.413162	-0.529069	0.375468
C23	C	-1.523299	-0.598659	0.424381
C24	C	-1.437576	-0.382271	0.493731
C25	C	-1.437632	-0.775504	0.493681
C26	C	-0.659796	-0.085411	0.534510
C27	C	-0.794782	-0.090644	0.567290
C28	C	-1.444575	-0.042689	0.267135
C29	C	-1.441026	-0.020422	0.127813
N30	N	-1.437638	0.140589	0.493667
C31	C	-1.439428	-0.090388	0.065704
C32	C	-1.435760	-0.067377	-0.078293
C33	C	-1.430613	-0.115093	0.720279
C34	C	-1.434162	-0.137353	0.859601
H35	H	-0.827100	-0.059764	0.374169
H36	H	-1.279637	-0.541384	0.621779
H37	H	-1.440781	-0.167325	0.119136
N38	N	-1.439283	0.081491	0.057053
H39	H	-1.440870	0.125021	0.118286
H40	H	-1.513155	0.092668	0.009542
H41	H	-1.640782	-0.535376	0.584199
H42	H	-1.435515	-0.214295	-0.086974
N43	N	-1.061301	-0.103311	0.646524
H44	H	-1.153319	-0.104102	0.651466
H45	H	-1.033287	-0.053002	0.689487
N46	N	-0.848724	-0.112366	0.703183
H47	H	-0.940742	-0.113158	0.708128
H48	H	-0.820710	-0.062058	0.746148
H49	H	-1.234501	-0.622568	0.403456
N50	N	-1.026456	-0.045431	0.284233
H51	H	-0.934438	-0.044643	0.279290
H52	H	-1.054490	0.018608	0.241248
N53	N	-1.489428	-0.685881	0.744449
H54	H	-1.424702	-0.671799	0.796776
H55	H	-1.490046	-0.755718	0.743277
N56	N	-1.619322	-0.621931	0.346716
H57	H	-1.618328	-0.691932	0.346538
H58	H	-1.601555	-0.584162	0.257819
H59	H	-1.392450	-0.485902	0.275499
H60	H	-1.434419	0.009565	-0.131718
