data_functionalizedCrystal
_audit_creation_method	'MofGen! by Chris Wilmer'
_symmetry_space_group_name_H-M	'P1'
_symmetry_Int_Tables_number	1
_symmetry_cell_setting	triclinic
loop_
_symmetry_equiv_pos_as_xyz
  x,y,z
_cell_length_a	14.853566
_cell_length_b	15.625429
_cell_length_c	13.330367
_cell_angle_alpha	71.918423
_cell_angle_beta	89.994651
_cell_angle_gamma	83.949208
loop_
_atom_site_label
_atom_site_type_symbol
_atom_site_fract_x
_atom_site_fract_y
_atom_site_fract_z
O1	O	1.196372	0.117696	-0.126166
O2	O	0.933912	0.131718	-0.131282
O3	O	1.072151	-0.006521	-0.080987
O4	O	1.058133	0.255935	-0.176461
O5	O	1.072129	-0.006523	0.085861
O6	O	0.933890	0.131716	0.035566
O7	O	1.196350	0.117694	0.040682
Cu8	Cu	1.065118	0.124705	0.053358
Cu9	Cu	1.065144	0.124707	-0.143959
O10	O	1.058111	0.255933	-0.009613
C11	C	0.900313	0.131082	-0.047630
C12	C	0.800229	0.129179	-0.046943
C13	C	0.377056	0.121129	-0.134946
C14	C	0.377053	0.121127	0.046958
C15	C	0.471087	0.122915	0.046305
C16	C	0.518110	0.123811	-0.044976
C17	C	0.471098	0.122920	-0.135603
C18	C	0.518105	0.123815	0.136927
C19	C	0.612145	0.125604	0.136277
C20	C	0.659170	0.126493	0.044997
C21	C	0.612152	0.125601	-0.045633
C22	C	0.659175	0.126497	-0.136914
C23	C	0.612160	0.125598	-0.227543
C24	C	0.518123	0.123809	-0.226882
C25	C	0.753206	0.128283	0.044337
C26	C	0.753217	0.128287	-0.137571
C27	C	1.071505	-0.040110	0.014653
C28	C	1.069600	-0.140192	0.051054
C29	C	1.063368	-0.469344	-0.283937
C30	C	1.061574	-0.563386	-0.249702
C31	C	1.061550	-0.563375	-0.067816
C32	C	1.063349	-0.469332	-0.102035
C33	C	1.064257	-0.422324	-0.210097
C34	C	1.064238	-0.422311	-0.028195
C35	C	1.066031	-0.328276	-0.062413
C36	C	1.066936	-0.281261	-0.170470
C37	C	1.066050	-0.328288	-0.244314
C38	C	1.063323	-0.469320	0.079865
C39	C	1.064212	-0.422300	0.153705
C40	C	1.066012	-0.328263	0.119489
C41	C	1.066917	-0.281248	0.011432
C42	C	1.066898	-0.281236	0.193333
C43	C	1.068692	-0.187200	0.159116
C44	C	1.068711	-0.187213	-0.022786
C45	C	1.229950	0.118330	-0.042973
C46	C	1.330033	0.120233	-0.043666
C47	C	1.058758	0.289522	-0.105256
C48	C	1.060663	0.389604	-0.141663
N49	N	1.065107	0.124702	0.192141
C50	C	1.003921	0.185899	0.642498
C51	C	1.126375	0.063516	0.686993
C52	C	1.126366	0.063513	0.581976
C53	C	1.065134	0.124704	0.507215
C54	C	1.003912	0.185900	0.537470
C55	C	1.187593	0.002325	0.551710
C56	C	1.187587	0.002320	0.446687
C57	C	1.126350	0.063508	0.371925
C58	C	1.065125	0.124705	0.402186
C59	C	1.003893	0.185897	0.327425
C60	C	0.942663	0.247090	0.357686
C61	C	0.942675	0.247088	0.462708
C62	C	1.126338	0.063510	0.266902
C63	C	1.003884	0.185897	0.222396
N64	N	1.065152	0.124707	0.717260
H65	H	0.338773	0.120394	-0.208733
H66	H	1.066150	-0.319523	0.281316
O67	O	0.803910	0.129259	0.142075
H68	H	0.877199	0.130659	0.126283
O69	O	1.067027	-0.277579	-0.360869
H70	H	1.129245	-0.242700	-0.377910
O71	O	0.803939	0.129249	-0.236021
H72	H	0.777939	0.190304	-0.301844
H73	H	1.064115	-0.431069	-0.371931
H74	H	0.650457	0.126334	-0.301866
H75	H	1.069458	-0.148937	-0.110780
O76	O	1.060623	-0.614107	-0.329347
H77	H	1.061563	-0.565619	-0.410234
O78	O	1.060591	-0.614080	0.048734
H79	H	1.059206	-0.687370	0.060126
H80	H	0.479836	0.123076	-0.300667
H81	H	1.068387	-0.204690	-0.198328
H82	H	1.061853	-0.545889	0.107721
H83	H	1.069396	-0.148913	0.219243
O84	O	1.063253	-0.473004	0.270255
H85	H	1.061868	-0.546295	0.281647
O86	O	0.876626	0.313090	0.277039
H87	H	0.834054	0.355647	0.315716
O88	O	0.937843	0.251900	0.141759
H89	H	0.895277	0.294452	0.180447
O90	O	0.326260	0.120816	0.145167
H91	H	0.252942	0.119657	0.130311
H92	H	0.892824	0.296910	0.487353
H93	H	1.237450	-0.047492	0.612582
O94	O	1.192347	-0.002500	0.234256
H95	H	1.236207	0.035517	0.172556
H96	H	0.954065	0.235720	0.667140
O97	O	0.467282	0.123726	0.235051
H98	H	0.393955	0.122639	0.220166
H99	H	0.650416	0.126334	0.210073
H100	H	1.176232	0.013699	0.747865
H101	H	1.237443	-0.047508	0.422056
