data_functionalizedCrystal
_audit_creation_method	'MofGen! by Chris Wilmer'
_symmetry_space_group_name_H-M	'P1'
_symmetry_Int_Tables_number	1
_symmetry_cell_setting	triclinic
loop_
_symmetry_equiv_pos_as_xyz
  x,y,z
_cell_length_a	10.654545
_cell_length_b	15.625429
_cell_length_c	9.130313
_cell_angle_alpha	71.918332
_cell_angle_beta	89.996934
_cell_angle_gamma	84.351614
loop_
_atom_site_label
_atom_site_type_symbol
_atom_site_fract_x
_atom_site_fract_y
_atom_site_fract_z
O1	O	1.666525	0.126605	-0.189017
O2	O	1.300920	0.138673	-0.195432
O3	O	1.493491	0.001463	-0.122555
O4	O	1.473954	0.263815	-0.261893
O5	O	1.493478	0.001459	0.121046
O6	O	1.300907	0.138669	0.048169
O7	O	1.666512	0.126601	0.054584
Cu8	Cu	1.483708	0.132635	0.073620
Cu9	Cu	1.483724	0.132640	-0.214467
O10	O	1.473941	0.263811	-0.018292
C11	C	1.254125	0.137786	-0.073162
C12	C	1.114709	0.135137	-0.071757
C13	C	1.049210	0.133888	0.061693
C14	C	0.918216	0.131385	0.063022
C15	C	0.918231	0.131383	-0.202562
C16	C	1.049224	0.133880	-0.203886
C17	C	1.492600	-0.032132	0.017084
C18	C	1.489950	-0.132229	0.070237
C19	C	1.481235	-0.461424	-0.418830
C20	C	1.478739	-0.555480	-0.368839
C21	C	1.478725	-0.555470	-0.103283
C22	C	1.481227	-0.461413	-0.153251
C23	C	1.482481	-0.414398	-0.311026
C24	C	1.482473	-0.414387	-0.045447
C25	C	1.484968	-0.320338	-0.095412
C26	C	1.486217	-0.273315	-0.253181
C27	C	1.484976	-0.320348	-0.360991
C28	C	1.481211	-0.461404	0.112327
C29	C	1.482456	-0.414377	0.220131
C30	C	1.484960	-0.320327	0.170167
C31	C	1.486210	-0.273304	0.012398
C32	C	1.486202	-0.273294	0.277977
C33	C	1.488697	-0.179244	0.228012
C34	C	1.488705	-0.179255	-0.037567
C35	C	1.713307	0.127488	-0.067689
C36	C	1.852723	0.130137	-0.069103
C37	C	1.474831	0.297406	-0.157934
C38	C	1.477481	0.397503	-0.211097
N39	N	1.483706	0.132631	0.276244
N40	N	1.483735	0.132636	-0.417088
C41	C	1.569005	0.071900	0.385152
C42	C	1.569017	0.071900	0.538489
C43	C	1.398427	0.193370	0.473992
C44	C	1.398410	0.193365	0.320661
H45	H	1.102524	0.134912	0.169281
O46	O	0.854429	0.130288	0.192498
C47	C	0.692469	0.205451	0.306747
C48	C	0.764589	0.206798	0.159988
H49	H	0.619836	0.267312	0.280523
H50	H	0.642448	0.141339	0.347457
H51	H	0.761807	0.206732	0.400952
H52	H	0.695336	0.205551	0.065682
H53	H	0.814630	0.270905	0.119409
H54	H	1.488235	-0.196733	-0.293861
H55	H	1.486007	-0.282066	-0.489467
H56	H	1.477700	-0.593763	0.025179
H57	H	1.638457	0.022446	0.348994
O58	O	1.652001	0.012875	0.644071
C59	C	1.821153	-0.107641	0.691869
C60	C	1.727261	-0.040825	0.572133
H61	H	1.882007	-0.151088	0.633760
H62	H	1.884042	-0.068342	0.742729
H63	H	1.766849	-0.153002	0.787803
H64	H	1.781462	0.004553	0.476111
H65	H	1.664373	-0.080180	0.521396
H66	H	0.864897	0.130361	-0.310137
H67	H	1.102555	0.134895	-0.312563
H68	H	1.489736	-0.140973	-0.166043
H69	H	1.479165	-0.537984	0.153003
O70	O	1.477317	-0.601062	-0.473698
C71	C	1.367686	-0.620364	-0.690308
C72	C	1.369195	-0.568649	-0.571690
H73	H	1.280265	-0.594191	-0.769544
H74	H	1.455912	-0.609588	-0.761688
H75	H	1.365726	-0.695654	-0.627421
H76	H	1.371111	-0.493343	-0.634452
H77	H	1.280975	-0.579500	-0.500315
H78	H	1.481431	-0.452670	0.348592
H79	H	1.485169	-0.311587	0.406438
O80	O	1.489720	-0.133632	0.332853
C81	C	1.381680	-0.095241	0.539378
C82	C	1.380398	-0.146963	0.420752
H83	H	1.293290	-0.105985	0.610454
H84	H	1.468937	-0.121428	0.618901
H85	H	1.383727	-0.019957	0.476512
H86	H	1.378306	-0.222255	0.483489
H87	H	1.293151	-0.120702	0.341235
H88	H	1.328943	0.242820	0.231980
O89	O	1.315407	0.252275	0.517128
C90	C	1.097144	0.303677	0.536726
C91	C	1.191024	0.236900	0.487848
H92	H	0.996560	0.291282	0.513041
H93	H	1.111702	0.293249	0.665041
H94	H	1.113682	0.375988	0.468176
H95	H	1.174544	0.164562	0.556289
H96	H	1.176444	0.247407	0.359512
H97	H	1.482267	-0.423142	-0.547306
