data_functionalizedCrystal
_audit_creation_method	'MofGen! by Chris Wilmer'
_symmetry_space_group_name_H-M	'P1'
_symmetry_Int_Tables_number	1
_symmetry_cell_setting	triclinic
loop_
_symmetry_equiv_pos_as_xyz
  x,y,z
_cell_length_a	23.532407
_cell_length_b	23.532407
_cell_length_c	9.730223
_cell_angle_alpha	90.007403
_cell_angle_beta	89.997627
_cell_angle_gamma	82.848678
loop_
_atom_site_label
_atom_site_type_symbol
_atom_site_fract_x
_atom_site_fract_y
_atom_site_fract_z
O1	O	0.755258	0.069133	0.114132
O2	O	1.255258	0.569133	0.614132
O3	O	0.589395	0.079137	0.114175
O4	O	1.089395	0.579137	0.614175
O5	O	0.677328	-0.008797	0.114127
O6	O	1.177328	0.491203	0.614127
O7	O	0.667325	0.157067	0.114180
O8	O	1.167325	0.657067	0.614180
O9	O	0.677323	-0.008796	-0.114453
O10	O	1.177323	0.491204	0.385547
O11	O	0.589390	0.079137	-0.114405
O12	O	1.089390	0.579137	0.385595
O13	O	0.755253	0.069134	-0.114448
O14	O	1.255253	0.569134	0.385552
Zn15	Zn	0.672320	0.074135	-0.150719
Zn16	Zn	1.172320	0.574135	0.349281
Zn17	Zn	0.672328	0.074135	0.150445
Zn18	Zn	1.172328	0.574135	0.650445
O19	O	0.667320	0.157067	-0.114400
O20	O	1.167320	0.657067	0.385600
C21	C	0.568176	0.078882	-0.000110
C22	C	1.068176	0.578882	0.499890
C23	C	0.504959	0.078116	-0.000095
C24	C	1.004959	0.578116	0.499905
C25	C	0.105856	0.125350	-0.000143
C26	C	0.605856	0.625350	0.499857
C27	C	0.046456	0.124638	-0.000151
C28	C	0.546456	0.624638	0.499849
O29	O	0.009711	0.168424	-0.000187
O30	O	0.509711	0.668424	0.499813
N31	N	0.023830	0.072362	-0.000166
N32	N	0.523830	0.572362	0.499834
C33	C	0.060607	0.020794	-0.000185
C34	C	0.560607	0.520794	0.499815
O35	O	0.035908	-0.023737	-0.000200
O36	O	0.535908	0.476263	0.499800
C37	C	0.120006	0.021506	-0.000187
C38	C	0.620006	0.521506	0.499813
C39	C	0.142629	0.073785	-0.000158
C40	C	0.642629	0.573785	0.499842
C41	C	0.128479	0.177625	-0.000116
C42	C	0.628479	0.677625	0.499884
C43	C	0.187876	0.178336	-0.000105
C44	C	0.687876	0.678336	0.499895
C45	C	0.224649	0.126772	-0.000120
C46	C	0.724649	0.626772	0.499880
C47	C	0.202025	0.074497	-0.000147
C48	C	0.702025	0.574497	0.499853
C49	C	0.156783	-0.030062	-0.000216
C50	C	0.656783	0.469938	0.499784
C51	C	0.216185	-0.029345	-0.000218
C52	C	0.716185	0.470655	0.499782
C53	C	0.238808	0.022934	-0.000190
C54	C	0.738808	0.522934	0.499810
C55	C	0.298194	0.023643	-0.000151
C56	C	0.798194	0.523643	0.499849
N57	N	0.320820	0.075920	-0.000137
N58	N	0.820820	0.575920	0.499863
C59	C	0.284048	0.127484	-0.000121
C60	C	0.784048	0.627484	0.499879
C61	C	-0.064135	0.019302	-0.000185
C62	C	0.435865	0.519302	0.499815
C63	C	-0.123533	0.018589	-0.000174
C64	C	0.376467	0.518589	0.499826
C65	C	-0.137680	0.122434	-0.000143
C66	C	0.362320	0.622434	0.499857
C67	C	-0.078281	0.123146	-0.000144
C68	C	0.421719	0.623146	0.499856
C69	C	-0.041509	0.071578	-0.000171
C70	C	0.458491	0.571578	0.499829
C71	C	0.408784	0.128974	-0.000097
C72	C	0.908784	0.628974	0.499903
C73	C	0.468186	0.129680	-0.000080
C74	C	0.968186	0.629680	0.499920
C75	C	0.482329	0.025836	-0.000119
C76	C	0.982329	0.525836	0.499881
C77	C	0.422932	0.025129	-0.000128
C78	C	0.922932	0.525129	0.499872
C79	C	0.386160	0.076702	-0.000122
C80	C	0.886160	0.576702	0.499878
O81	O	0.334974	-0.020119	-0.000121
O82	O	0.834974	0.479881	0.499879
O83	O	0.308755	0.172007	-0.000125
O84	O	0.808755	0.672007	0.499875
C85	C	0.677071	-0.030013	-0.000167
C86	C	1.177071	0.469987	0.499833
C87	C	0.676305	-0.093230	-0.000177
C88	C	1.176305	0.406770	0.499823
C89	C	0.723539	-0.492333	-0.000114
C90	C	1.223539	0.007667	0.499886
C91	C	0.722827	-0.551733	-0.000103
C92	C	1.222827	-0.051733	0.499897
O93	O	0.766613	-0.588478	-0.000063
O94	O	1.266613	-0.088478	0.499937
N95	N	0.670551	-0.574359	-0.000091
N96	N	1.170551	-0.074359	0.499909
C97	C	0.618983	-0.537582	-0.000075
C98	C	1.118983	-0.037582	0.499925
O99	O	0.574452	-0.562281	-0.000062
O100	O	1.074452	-0.062281	0.499938
C101	C	0.619695	-0.478182	-0.000076
C102	C	1.119695	0.021818	0.499924
C103	C	0.671974	-0.455560	-0.000102
C104	C	1.171974	0.044440	0.499898
C105	C	0.775814	-0.469710	-0.000138
C106	C	1.275814	0.030290	0.499862
C107	C	0.776525	-0.410313	-0.000152
C108	C	1.276525	0.089687	0.499848
C109	C	0.724961	-0.373540	-0.000140
C110	C	1.224961	0.126460	0.499860
C111	C	0.672685	-0.396164	-0.000115
C112	C	1.172685	0.103836	0.499885
C113	C	0.568127	-0.441406	-0.000050
C114	C	1.068127	0.058594	0.499950
C115	C	0.568844	-0.382004	-0.000050
C116	C	1.068844	0.117996	0.499950
C117	C	0.621123	-0.359381	-0.000076
C118	C	1.121123	0.140619	0.499924
C119	C	0.621832	-0.299995	-0.000117
C120	C	1.121832	0.200005	0.499883
N121	N	0.674109	-0.277368	-0.000129
N122	N	1.174109	0.222632	0.499871
C123	C	0.725673	-0.314141	-0.000141
C124	C	1.225673	0.185859	0.499859
C125	C	0.617491	-0.662324	-0.000071
C126	C	1.117491	-0.162324	0.499929
C127	C	0.616778	-0.721722	-0.000080
C128	C	1.116778	-0.221722	0.499920
C129	C	0.720623	-0.735869	-0.000105
C130	C	1.220623	-0.235869	0.499895
C131	C	0.721335	-0.676470	-0.000106
C132	C	1.221335	-0.176470	0.499894
C133	C	0.669767	-0.639698	-0.000083
C134	C	1.169767	-0.139698	0.499917
C135	C	0.727163	-0.189405	-0.000170
C136	C	1.227163	0.310595	0.499830
C137	C	0.727869	-0.130003	-0.000188
C138	C	1.227869	0.369997	0.499812
C139	C	0.624025	-0.115860	-0.000156
C140	C	1.124025	0.384140	0.499844
C141	C	0.623318	-0.175257	-0.000144
C142	C	1.123318	0.324743	0.499856
C143	C	0.674891	-0.212029	-0.000146
C144	C	1.174891	0.287971	0.499854
O145	O	0.578070	-0.263215	-0.000151
O146	O	1.078070	0.236785	0.499849
O147	O	0.770196	-0.289433	-0.000135
O148	O	1.270196	0.210567	0.499865
C149	C	0.776472	0.069388	-0.000160
C150	C	1.276472	0.569388	0.499840
C151	C	0.839689	0.070154	-0.000166
C152	C	1.339689	0.570154	0.499834
C153	C	0.667577	0.178283	-0.000104
C154	C	1.167577	0.678283	0.499896
C155	C	0.668343	0.241500	-0.000084
C156	C	1.168343	0.741500	0.499916
N157	N	0.672320	0.074135	-0.356255
N158	N	1.172320	0.574135	0.143745
C159	C	0.711273	0.035207	-0.572086
C160	C	1.211273	0.535207	-0.072086
C161	C	0.711269	0.035211	-0.428203
C162	C	1.211269	0.535211	0.071797
C163	C	0.633377	0.113062	-0.428197
C164	C	1.133377	0.613062	0.071803
C165	C	0.633385	0.113061	-0.572078
C166	C	1.133385	0.613061	-0.072078
C167	C	0.750221	-0.003723	-0.644027
C168	C	1.250221	0.496277	-0.144027
C169	C	0.789164	-0.042650	-0.572094
C170	C	1.289164	0.457350	-0.072094
C171	C	0.789159	-0.042646	-0.428212
C172	C	1.289159	0.457354	0.071788
C173	C	0.750211	-0.003716	-0.356261
C174	C	1.250211	0.496284	0.143739
N175	N	0.672333	0.074130	0.355982
N176	N	1.172333	0.574130	0.855982
H177	H	-0.059867	0.165717	-0.000129
H178	H	0.440133	0.665717	0.499871
H179	H	0.820872	-0.074338	-0.369646
H180	H	1.320872	0.425662	0.130354
H181	H	0.750227	-0.003731	-0.761183
H182	H	1.250227	0.496269	-0.261183
Br183	Br	0.842027	-0.095474	-0.669735
Br184	Br	1.342027	0.404526	-0.169735
H185	H	0.750214	-0.003713	-0.239102
H186	H	1.250214	0.496287	0.260898
H187	H	0.601667	0.144757	-0.369606
H188	H	1.101667	0.644757	0.130394
Br189	Br	0.798825	-0.099305	-0.000226
Br190	Br	1.298825	0.400695	0.499774
Br191	Br	0.497171	-0.472092	-0.000009
Br192	Br	0.997171	0.027908	0.499991
H193	H	0.601677	0.144756	-0.630645
H194	H	1.101677	0.644756	-0.130645
H195	H	0.486602	0.172255	-0.000056
H196	H	0.986602	0.672255	0.499944
H197	H	0.378851	0.170970	-0.000096
H198	H	0.878851	0.670970	0.499904
H199	H	0.098544	0.219617	-0.000108
H200	H	0.598544	0.719617	0.499892
Br201	Br	0.797156	-0.239299	-0.000171
Br202	Br	1.297156	0.260701	0.499829
H203	H	0.206289	0.220908	-0.000081
H204	H	0.706289	0.720908	0.499919
H205	H	-0.141947	-0.023982	-0.000176
H206	H	0.358053	0.476018	0.499824
Br207	Br	-0.187598	0.192415	-0.000125
Br208	Br	0.312402	0.692415	0.499875
H209	H	-0.034198	-0.022693	-0.000195
H210	H	0.465802	0.477307	0.499805
Br211	Br	0.126097	-0.101018	-0.000224
Br212	Br	0.626097	0.398982	0.499776
H213	H	0.246123	-0.071339	-0.000241
H214	H	0.746123	0.428661	0.499759
Br215	Br	0.392228	-0.045822	-0.000171
Br216	Br	0.892228	0.454178	0.499829
Br217	Br	0.532246	-0.044141	-0.000143
Br218	Br	1.032246	0.455859	0.499857
H219	H	0.819097	-0.391900	-0.000167
H220	H	1.319097	0.108100	0.499833
H221	H	0.817806	-0.499645	-0.000143
H222	H	1.317806	0.000355	0.499857
H223	H	0.763906	-0.658056	-0.000126
H224	H	1.263906	-0.158056	0.499874
H225	H	0.574207	-0.740136	-0.000082
H226	H	1.074207	-0.240136	0.499918
Br227	Br	0.547499	-0.612424	-0.000051
Br228	Br	1.047499	-0.112424	0.499949
H229	H	0.526850	-0.352066	-0.000029
H230	H	1.026850	0.147934	0.499971
Br231	Br	0.552367	-0.205961	-0.000140
Br232	Br	1.052367	0.294039	0.499860
H233	H	0.582043	-0.085909	-0.000151
H234	H	1.082043	0.414091	0.499849
H235	H	0.762610	-0.765821	-0.000110
H236	H	1.262610	-0.265821	0.499890
