data_functionalizedCrystal
_audit_creation_method	'MofGen! by Chris Wilmer'
_symmetry_space_group_name_H-M	'P1'
_symmetry_Int_Tables_number	1
_symmetry_cell_setting	triclinic
loop_
_symmetry_equiv_pos_as_xyz
  x,y,z
_cell_length_a	19.077267
_cell_length_b	19.077068
_cell_length_c	19.076919
_cell_angle_alpha	85.529249
_cell_angle_beta	85.333063
_cell_angle_gamma	89.936033
loop_
_atom_site_label
_atom_site_type_symbol
_atom_site_fract_x
_atom_site_fract_y
_atom_site_fract_z
Zn1	Zn	-1.047524	0.337166	-0.369401
Zn2	Zn	-1.047437	0.450316	-0.256249
Zn3	Zn	-0.934761	0.328092	-0.255885
Zn4	Zn	-0.924869	0.450276	-0.378825
O5	O	-0.988648	0.391462	-0.315090
O6	O	-1.145999	0.355990	-0.350599
O7	O	-1.036593	0.430322	-0.157395
O8	O	-0.953896	0.230808	-0.266847
O9	O	-1.145935	0.439120	-0.267467
O10	O	-1.036742	0.237474	-0.350246
O11	O	-0.953811	0.340525	-0.157128
O12	O	-0.834963	0.340486	-0.275985
O13	O	-0.937037	0.439052	-0.476380
O14	O	-0.827695	0.430254	-0.366309
O15	O	-1.027150	0.355951	-0.469456
O16	O	-1.027002	0.548798	-0.276605
O17	O	-0.936952	0.548769	-0.366662
C18	C	-0.805793	0.384381	-0.322130
C19	C	-0.727565	0.381370	-0.325160
C20	C	-0.690783	0.423161	-0.283230
C21	C	-0.617280	0.420332	-0.286086
C22	C	-0.580559	0.375707	-0.330868
C23	C	-0.617346	0.333914	-0.372803
C24	C	-0.690848	0.336748	-0.369950
C25	C	-0.360735	0.362603	-0.344052
C26	C	-0.287228	0.359772	-0.346900
C27	C	-0.287166	0.446190	-0.260184
C28	C	-0.360670	0.449016	-0.257332
C29	C	-0.397450	0.407226	-0.299269
N30	N	-0.505427	0.372813	-0.333787
N31	N	-0.472581	0.410125	-0.296354
C32	C	-0.980913	0.574322	-0.322710
C33	C	-0.977667	0.652553	-0.325991
C34	C	-0.981000	0.398509	-0.499254
C35	C	-0.977740	0.401512	-0.577734
C36	C	-0.172218	0.398562	-0.308012
C37	C	-0.250446	0.401563	-0.304970
C38	C	-0.996432	0.207890	-0.307455
C39	C	-0.999749	0.129663	-0.304201
C40	C	-1.023059	0.689301	-0.280681
C41	C	-1.020010	0.762808	-0.283771
C42	C	-0.971565	0.799566	-0.332168
C43	C	-0.926171	0.762813	-0.377483
C44	C	-0.929223	0.689307	-0.374396
C45	C	-0.957407	1.019404	-0.346429
C46	C	-0.954356	1.092915	-0.349511
C47	C	-1.048197	1.092905	-0.255799
C48	C	-1.051243	1.019398	-0.252714
C49	C	-1.005851	0.982652	-0.298031
N50	N	-0.968446	0.874702	-0.335327
N51	N	-1.008974	0.907518	-0.294876
C52	C	-1.023124	0.359658	-0.611000
C53	C	-1.020053	0.362477	-0.684740
C54	C	-0.971602	0.407153	-0.725213
C55	C	-0.926213	0.449008	-0.691942
C56	C	-0.929281	0.446186	-0.618203
C57	C	-0.957392	0.420231	-0.946136
C58	C	-0.954329	0.423052	-1.019879
C59	C	-1.048169	0.336519	-1.012673
C60	C	-1.051235	0.333703	-0.938933
C61	C	-1.005844	0.375556	-0.905668
N62	N	-0.968463	0.410037	-0.800587
N63	N	-1.008980	0.372668	-0.830295
C64	C	-0.996309	0.384394	-0.131639
C65	C	-0.999713	0.381198	-0.053146
H66	H	-0.390673	0.328576	-0.378201
H67	H	-1.057011	0.328397	-0.711822
H68	H	-0.886728	0.792747	-0.416892
H69	H	-0.892261	0.659388	-0.411293
H70	H	-0.257333	0.323427	-0.383365
H71	H	-0.914914	1.122841	-0.388934
H72	H	-0.920446	0.989491	-0.383326
H73	H	-0.720795	0.302716	-0.404093
H74	H	-1.062581	0.323280	-0.578052
H75	H	-1.090692	0.297325	-0.905985
Cl76	Cl	-1.105225	0.283905	-1.054496
H77	H	-0.257212	0.480214	-0.226043
H78	H	-1.085154	1.122832	-0.218906
Cl79	Cl	-1.083961	0.643099	-0.219832
H80	H	-0.886760	0.485382	-0.724901
Cl81	Cl	-0.893410	0.479217	-1.070759
H82	H	-0.587443	0.297584	-0.409268
H83	H	-0.390563	0.485354	-0.220865
Cl84	Cl	-1.077080	0.809003	-0.226810
Cl85	Cl	-0.736938	0.479262	-0.226928
H86	H	-0.920441	0.454321	-0.919061
H87	H	-0.892318	0.480260	-0.591119
H88	H	-0.587335	0.454362	-0.251943
H89	H	-1.090691	0.989472	-0.213305
