data_functionalizedCrystal
_audit_creation_method	'MofGen! by Chris Wilmer'
_symmetry_space_group_name_H-M	'P1'
_symmetry_Int_Tables_number	1
_symmetry_cell_setting	triclinic
loop_
_symmetry_equiv_pos_as_xyz
  x,y,z
_cell_length_a	14.908783
_cell_length_b	12.594516
_cell_length_c	14.908308
_cell_angle_alpha	93.270069
_cell_angle_beta	89.788727
_cell_angle_gamma	93.302904
loop_
_atom_site_label
_atom_site_type_symbol
_atom_site_fract_x
_atom_site_fract_y
_atom_site_fract_z
Zn1	Zn	1.345361	-0.372276	-0.587850
Zn2	Zn	1.353962	-0.539461	-0.437499
Zn3	Zn	1.203674	-0.371124	-0.428821
Zn4	Zn	1.194990	-0.559842	-0.579122
O5	O	1.274497	-0.460676	-0.508323
O6	O	1.472329	-0.386406	-0.575190
O7	O	1.341260	-0.508119	-0.310524
O8	O	1.222504	-0.222330	-0.449938
O9	O	1.478648	-0.509236	-0.464728
O10	O	1.326600	-0.223176	-0.566775
O11	O	1.230844	-0.384442	-0.304148
O12	O	1.076695	-0.404205	-0.441474
O13	O	1.207703	-0.543973	-0.706103
O14	O	1.070315	-0.542856	-0.551899
O15	O	1.318180	-0.406168	-0.712516
O16	O	1.332840	-0.691111	-0.456264
O17	O	1.216044	-0.706085	-0.560314
C18	C	1.040880	-0.475618	-0.494799
C19	C	0.940936	-0.482038	-0.489034
C20	C	0.746539	-0.366397	-0.593402
C21	C	0.652633	-0.372425	-0.587989
C22	C	0.659217	-0.500116	-0.472791
C23	C	0.753123	-0.494088	-0.478204
C24	C	0.796780	-0.427227	-0.538513
C25	C	0.890688	-0.421205	-0.543930
C26	C	0.897270	-0.548890	-0.428727
C27	C	0.803364	-0.554918	-0.423314
C28	C	1.274456	-0.737218	-0.508305
C29	C	1.274519	-0.855521	-0.508332
C30	C	1.338111	-0.916591	-0.451807
C31	C	1.355345	-0.991792	-0.535144
C32	C	1.257394	-0.991116	-0.425054
C33	C	1.291793	-0.929164	-0.591714
C34	C	1.193808	-0.928480	-0.481567
C35	C	1.211007	-1.003655	-0.564958
C36	C	1.509026	-0.445676	-0.521900
C37	C	1.608968	-0.439283	-0.527686
C38	C	1.261014	-0.477472	-0.742846
C39	C	1.255268	-0.484630	-0.842786
C40	C	1.274561	-0.183053	-0.508362
C41	C	1.274588	-0.064747	-0.508379
C42	C	1.359508	-0.354561	-1.037263
C43	C	1.354112	-0.361282	-1.131166
C44	C	1.239076	-0.504789	-1.124496
C45	C	1.244472	-0.498068	-1.030593
C46	C	1.304691	-0.422952	-0.986980
C47	C	1.310091	-0.416236	-0.893076
C48	C	1.195051	-0.559737	-0.886408
C49	C	1.189655	-0.566459	-0.980310
C50	C	1.287979	-0.443864	-0.274715
C51	C	1.293899	-0.436395	-0.174785
H52	H	0.623654	-0.554538	-0.423680
H53	H	1.140626	-0.627614	-1.015833
H54	H	0.782086	-0.311961	-0.642512
H55	H	1.157257	-1.041424	-0.612838
C56	C	0.597370	-0.305519	-0.648373
H57	H	0.636824	-0.264845	-0.685069
H58	H	0.562703	-0.258975	-0.611935
H59	H	0.558499	-0.351467	-0.685386
C60	C	0.938711	-0.347660	-0.610263
H61	H	0.895337	-0.312287	-0.642171
H62	H	0.973102	-0.388890	-0.651498
H63	H	0.977312	-0.296410	-0.578037
C64	C	0.755335	-0.628463	-0.356984
H65	H	0.692212	-0.623347	-0.361624
H66	H	0.774184	-0.607475	-0.297478
H67	H	0.769970	-0.699951	-0.370942
C68	C	0.952537	-0.615807	-0.368347
H69	H	1.014718	-0.602639	-0.380204
H70	H	0.936390	-0.689266	-0.380519
H71	H	0.940609	-0.596780	-0.307063
C72	C	1.134749	-0.634970	-0.831095
H73	H	1.146583	-0.620208	-0.768923
H74	H	1.147010	-0.706743	-0.847240
H75	H	1.073450	-0.624355	-0.842987
H76	H	1.125544	-0.900518	-0.458880
H77	H	1.306234	-0.901946	-0.662216
H78	H	1.408544	-0.293403	-1.001753
H79	H	1.391893	-0.878631	-0.404053
C80	C	1.447587	-1.029539	-0.565760
H81	H	1.492682	-0.999527	-0.525521
H82	H	1.460215	-1.007343	-0.624548
H83	H	1.446776	-1.105038	-0.566079
C84	C	1.237780	-1.028069	-0.329890
H85	H	1.282993	-0.998037	-0.289793
H86	H	1.237400	-1.103566	-0.330686
H87	H	1.180853	-1.005378	-0.310472
H88	H	1.359125	-0.355074	-0.857568
C89	C	1.414415	-0.286057	-1.186474
H90	H	1.451054	-0.240367	-1.147048
H91	H	1.377926	-0.244505	-1.221123
H92	H	1.451484	-0.326895	-1.225365
H93	H	1.190049	-0.565944	-1.160022
