data_functionalizedCrystal
_audit_creation_method	'MofGen! by Chris Wilmer'
_symmetry_space_group_name_H-M	'P1'
_symmetry_Int_Tables_number	1
_symmetry_cell_setting	triclinic
loop_
_symmetry_equiv_pos_as_xyz
  x,y,z
_cell_length_a	6.817900
_cell_length_b	14.858329
_cell_length_c	10.943624
_cell_angle_alpha	93.400022
_cell_angle_beta	108.838799
_cell_angle_gamma	104.519616
loop_
_atom_site_label
_atom_site_type_symbol
_atom_site_fract_x
_atom_site_fract_y
_atom_site_fract_z
V1	V	-4.093423	-0.128646	-0.402919
O2	O	-4.074269	0.006207	-0.394870
O3	O	-4.049676	-0.255108	-0.400528
O4	O	-4.071727	-0.126656	-0.578480
O5	O	-4.052065	-0.123134	-0.215686
V6	V	-4.572988	-0.112517	-0.380480
O7	O	-4.363364	-0.164026	-0.452140
O8	O	-4.753244	-0.077138	-0.331259
O9	O	-4.393528	0.013944	-0.382872
O10	O	-4.709539	-0.247370	-0.388529
O11	O	-4.731742	-0.118030	-0.567713
O12	O	-4.371477	-0.114507	-0.204919
C13	C	-3.894945	-0.285936	-0.394265
C14	C	-3.940641	-0.389320	-0.393480
C15	C	-3.977744	-0.473278	-0.392830
C16	C	-4.024311	-0.578608	-0.392022
C17	C	-4.061443	-0.662560	-0.391378
C18	C	-4.108013	-0.767896	-0.390567
C19	C	-3.923072	-0.122083	-0.621259
C20	C	-3.986647	-0.121293	-0.764784
C21	C	-3.832390	-0.115972	-0.841916
C22	C	-4.008198	-0.194950	-0.948132
C23	C	-3.924145	-0.040915	-0.914305
C24	C	-4.161653	-0.200345	-0.869123
C25	C	-4.077531	-0.046240	-0.835272
C26	C	-4.253472	-0.125241	-0.941458
C27	C	-4.211601	0.044768	-0.389130
C28	C	-4.145144	0.148151	-0.389924
C29	C	-4.183474	-0.119084	-0.162133
C30	C	-4.099137	-0.119869	-0.018608
H31	H	-3.979549	-0.257819	-0.997260
C32	C	-3.594424	-0.111034	-0.783805
C33	C	-3.573613	-0.190645	-0.724229
C34	C	-3.354441	-0.186128	-0.670667
H35	H	-3.534346	-0.108972	-0.851101
H36	H	-3.519948	-0.056029	-0.720565
H37	H	-3.648060	-0.245635	-0.787462
H38	H	-3.633644	-0.192723	-0.656916
H39	H	-3.279964	-0.131124	-0.607427
H40	H	-3.294381	-0.184064	-0.737971
H41	H	-3.340290	-0.240138	-0.630228
C42	C	-4.294369	-0.290363	-0.841932
C43	C	-4.155877	-0.340287	-0.773756
C44	C	-4.278046	-0.423221	-0.748699
H45	H	-4.374216	-0.275212	-0.790870
H46	H	-4.391322	-0.327918	-0.922255
H47	H	-4.058962	-0.302740	-0.693446
H48	H	-4.076027	-0.355462	-0.824795
H49	H	-4.375000	-0.460776	-0.829022
H50	H	-4.357889	-0.408061	-0.697640
H51	H	-4.184100	-0.457109	-0.702450
C52	C	-4.491602	-0.130431	-0.999383
C53	C	-4.548636	-0.128833	-1.133981
C54	C	-4.767974	-0.133604	-1.187385
H55	H	-4.576344	-0.187056	-0.984409
H56	H	-4.516950	-0.078110	-0.959290
H57	H	-4.523309	-0.181149	-1.174061
H58	H	-4.463951	-0.072213	-1.148991
H59	H	-4.793322	-0.081283	-1.147292
H60	H	-4.852696	-0.190230	-1.172402
H61	H	-4.806695	-0.132511	-1.278713
C62	C	-4.115244	0.037712	-0.769738
C63	C	-3.989608	0.120952	-0.791867
C64	C	-4.024248	0.198316	-0.731497
H65	H	-4.263763	0.035141	-0.805063
H66	H	-4.075404	0.036303	-0.678437
H67	H	-4.029462	0.122360	-0.883149
H68	H	-3.841080	0.123554	-0.756538
H69	H	-3.984407	0.196907	-0.640195
H70	H	-4.172770	0.195736	-0.766827
H71	H	-3.938996	0.254803	-0.746492
C72	C	-3.790703	0.048911	-0.941484
C73	C	-3.571257	0.053377	-0.890877
C74	C	-3.448251	0.136112	-0.915870
H75	H	-3.833007	0.049138	-1.033086
H76	H	-3.813794	0.101781	-0.901139
H77	H	-3.548179	0.000521	-0.931227
H78	H	-3.528889	0.053165	-0.799276
H79	H	-3.471342	0.188983	-0.875525
H80	H	-3.490573	0.136333	-1.007473
H81	H	-3.299344	0.139158	-0.881527
