data_functionalizedCrystal
_audit_creation_method	'MofGen! by Chris Wilmer'
_symmetry_space_group_name_H-M	'P1'
_symmetry_Int_Tables_number	1
_symmetry_cell_setting	triclinic
loop_
_symmetry_equiv_pos_as_xyz
  x,y,z
_cell_length_a	17.000371
_cell_length_b	17.038272
_cell_length_c	7.088929
_cell_angle_alpha	96.674532
_cell_angle_beta	84.292666
_cell_angle_gamma	83.355402
loop_
_atom_site_label
_atom_site_type_symbol
_atom_site_fract_x
_atom_site_fract_y
_atom_site_fract_z
O1	O	1.050410	0.036602	0.158997
O2	O	0.820590	0.064847	0.159000
O3	O	0.934135	-0.062998	0.158983
O4	O	0.936865	0.164447	0.159014
O5	O	0.949306	-0.080119	-0.158994
O6	O	0.835761	0.047726	-0.158977
O7	O	1.065582	0.019481	-0.158980
Cu8	Cu	0.952057	0.032040	-0.188013
Cu9	Cu	0.934114	0.052288	0.188032
O10	O	0.952037	0.147326	-0.158964
C11	C	0.798624	0.057804	0.000011
C12	C	0.710571	0.062315	0.000012
C13	C	0.673845	-0.007108	-0.000001
C14	C	0.591109	-0.002863	0.000014
C15	C	0.545101	0.070803	0.000027
C16	C	0.581832	0.140231	0.000045
C17	C	0.664566	0.135987	0.000045
C18	C	0.295064	0.087198	0.000042
C19	C	0.212325	0.091436	0.000037
C20	C	0.221608	-0.051659	0.000009
C21	C	0.304344	-0.055897	-0.000003
C22	C	0.341067	0.013532	0.000025
C23	C	0.460531	0.075143	0.000036
C24	C	0.425635	0.009192	0.000030
C25	C	0.939236	-0.100517	-0.000005
C26	C	0.931823	-0.186802	-0.000004
C27	C	0.999881	-0.241578	-0.000007
C28	C	0.992911	-0.322650	0.000011
C29	C	0.917881	-0.348945	0.000018
C30	C	0.849817	-0.294163	0.000027
C31	C	0.856788	-0.213091	0.000022
C32	C	0.893254	-0.593015	0.000045
C33	C	0.886289	-0.674094	0.000044
C34	C	1.029383	-0.702575	0.000031
C35	C	1.036348	-0.621501	0.000015
C36	C	0.968283	-0.566725	0.000034
C37	C	0.910755	-0.431814	0.000031
C38	C	0.975410	-0.483857	0.000035
C39	C	1.087546	0.026525	0.000012
C40	C	1.175599	0.022014	0.000024
C41	C	0.946935	0.184845	0.000029
C42	C	0.954347	0.271131	0.000041
N43	N	0.964682	0.017798	-0.452503
N44	N	0.921495	0.066524	0.452522
H45	H	0.544364	0.200213	0.000069
Cl46	Cl	0.731677	-0.099723	-0.000030
Cl47	Cl	0.544941	-0.090139	0.000053
H48	H	0.876736	0.117018	-0.465825
H49	H	0.837831	-0.548425	0.000059
H50	H	0.788726	-0.315578	0.000045
H51	H	0.694467	0.192518	0.000046
Cl52	Cl	1.033801	-0.060160	-0.578573
H53	H	1.048332	-0.367246	0.000005
Cl54	Cl	0.362178	-0.148511	-0.000034
H55	H	0.801367	-0.168493	0.000025
Cl56	Cl	0.154487	0.184052	0.000036
H57	H	0.825189	-0.695501	0.000019
H58	H	1.036496	-0.462442	0.000071
H59	H	0.324953	0.143732	0.000078
Cl60	Cl	0.402685	0.167750	0.000054
Cl61	Cl	0.175436	-0.138934	-0.000015
Cl62	Cl	1.130671	-0.588447	0.000068
H63	H	0.849665	-0.453233	0.000033
H64	H	0.463098	-0.050786	0.000031
H65	H	1.060979	-0.220176	-0.000025
H66	H	1.084796	-0.747182	0.000020
