data_functionalizedCrystal
_audit_creation_method	'MofGen! by Chris Wilmer'
_symmetry_space_group_name_H-M	'P1'
_symmetry_Int_Tables_number	1
_symmetry_cell_setting	triclinic
loop_
_symmetry_equiv_pos_as_xyz
  x,y,z
_cell_length_a	13.262415
_cell_length_b	17.699083
_cell_length_c	16.776229
_cell_angle_alpha	89.998886
_cell_angle_beta	105.922413
_cell_angle_gamma	96.116377
loop_
_atom_site_label
_atom_site_type_symbol
_atom_site_fract_x
_atom_site_fract_y
_atom_site_fract_z
O1	O	0.132733	-1.004677	0.094951
O2	O	0.150002	-0.784376	0.098721
O3	O	-0.011441	-0.900064	0.063703
O4	O	0.294176	-0.888989	0.129969
O5	O	-0.011451	-0.900049	-0.068875
O6	O	0.149992	-0.784361	-0.033858
O7	O	0.132723	-1.004661	-0.037627
Zn8	Zn	0.141356	-0.894509	-0.056792
Zn9	Zn	0.141369	-0.894529	0.117886
O10	O	0.294167	-0.888973	-0.002610
C11	C	0.149378	-0.756169	0.032301
C12	C	0.147522	-0.672142	0.031908
C13	C	-0.050549	-0.899434	-0.011063
C14	C	-0.167064	-0.897570	-0.036320
C15	C	0.133347	-1.032869	0.028795
C16	C	0.135203	-1.116895	0.029192
C17	C	-0.495466	-0.892354	0.181561
C18	C	-0.385996	-0.894111	0.205296
C19	C	-0.331257	-0.894976	0.144894
C20	C	-0.386000	-0.894084	0.060753
C21	C	-0.495483	-0.892332	0.037015
C22	C	-0.331274	-0.894954	0.000348
C23	C	-0.386017	-0.894062	-0.083793
C24	C	-0.495488	-0.892310	-0.107526
C25	C	-0.550227	-0.891446	-0.047125
C26	C	-0.221792	-0.896705	0.024086
C27	C	-0.221808	-0.896683	-0.120460
C28	C	-0.331279	-0.894926	-0.144195
C29	C	0.333275	-0.889604	0.072158
C30	C	0.449790	-0.891467	0.097421
N31	N	0.141347	-0.894500	-0.176005
C32	C	0.242286	-0.623948	0.052455
C33	C	0.240535	-0.544997	0.052066
C34	C	0.144020	-0.514241	0.031134
C35	C	0.049249	-0.562441	0.010583
C36	C	0.051001	-0.641391	0.010968
C37	C	0.042183	-0.244046	0.009031
C38	C	0.040439	-0.165091	0.008651
C39	C	0.231718	-0.147653	0.050129
C40	C	0.233469	-0.226602	0.050514
C41	C	0.138699	-0.274795	0.029959
C42	C	0.140598	-0.360403	0.030380
C43	C	0.142120	-0.428635	0.030718
C44	C	0.069889	-0.945742	-0.233222
C45	C	0.069888	-0.945747	-0.316674
C46	C	0.141351	-0.894512	-0.342907
C47	C	0.212812	-0.843264	-0.285684
C48	C	0.212807	-0.843257	-0.202235
C49	C	0.212833	-0.843291	-0.622227
C50	C	0.212834	-0.843304	-0.705683
C51	C	0.069914	-0.945781	-0.736667
C52	C	0.069909	-0.945774	-0.653217
C53	C	0.141366	-0.894524	-0.596002
C54	C	0.141364	-0.894519	-0.505514
C55	C	0.141358	-0.894520	-0.433393
N56	N	0.141371	-0.894543	0.237097
H57	H	-0.177230	-0.897431	0.092594
Br58	Br	0.364459	-0.268338	0.078929
Br59	Br	0.360338	-0.082243	0.078025
Br60	Br	0.309792	-0.773723	-0.321284
Br61	Br	0.309783	-0.773705	-0.124584
Br62	Br	-0.147531	-0.897865	-0.202440
H63	H	-0.029336	-0.537394	-0.006471
Br64	Br	-0.077612	-0.706799	-0.016926
H65	H	-0.540045	-0.891656	0.230731
Br66	Br	-0.090555	-0.123351	-0.019756
H67	H	0.320880	-0.648983	0.069501
H68	H	0.317702	-0.505760	0.068798
H69	H	0.011700	-0.987467	-0.211869
Br70	Br	-0.027095	-1.015288	-0.394329
H71	H	0.011721	-0.987497	-0.631862
H72	H	0.011726	-0.987510	-0.783262
Br73	Br	0.309827	-0.773767	-0.741284
H74	H	0.271017	-0.801563	-0.575648
H75	H	-0.375866	-0.894200	-0.212704
Br76	Br	-0.182687	-0.897359	0.177107
Br77	Br	-0.311709	-0.895325	0.319482
H78	H	-0.034985	-0.283276	-0.007707
Br79	Br	-0.698798	-0.889049	-0.079333
H80	H	-0.540059	-0.891594	-0.176040
