data_functionalizedCrystal
_audit_creation_method	'MofGen! by Chris Wilmer'
_symmetry_space_group_name_H-M	'P1'
_symmetry_Int_Tables_number	1
_symmetry_cell_setting	triclinic
loop_
_symmetry_equiv_pos_as_xyz
  x,y,z
_cell_length_a	14.044191
_cell_length_b	10.540539
_cell_length_c	12.503572
_cell_angle_alpha	93.560877
_cell_angle_beta	86.162165
_cell_angle_gamma	88.858634
loop_
_atom_site_label
_atom_site_type_symbol
_atom_site_fract_x
_atom_site_fract_y
_atom_site_fract_z
O1	O	1.265199	0.299579	-0.089259
O2	O	1.765199	0.799579	0.410741
O3	O	0.989155	0.288517	-0.089273
O4	O	1.489155	0.788517	0.410727
O5	O	1.133475	0.109979	-0.089264
O6	O	1.633475	0.609979	0.410736
O7	O	1.120879	0.478118	-0.089267
O8	O	1.620879	0.978118	0.410733
O9	O	1.122621	0.123430	0.089377
O10	O	1.622621	0.623430	0.589377
O11	O	0.978301	0.301969	0.089368
O12	O	1.478301	0.801969	0.589368
O13	O	1.254345	0.313030	0.089382
O14	O	1.754345	0.813030	0.589382
Cu15	Cu	1.115332	0.308728	0.105687
Cu16	Cu	1.615332	0.808728	0.605687
Cu17	Cu	1.128168	0.292820	-0.105577
Cu18	Cu	1.628168	0.792820	0.394423
O19	O	1.110026	0.491569	0.089374
O20	O	1.610026	0.991569	0.589374
C21	C	0.948381	0.290404	0.000046
C22	C	1.448381	0.790404	0.500046
C23	C	0.843058	0.275970	0.000041
C24	C	1.343058	0.775970	0.500041
C25	C	0.593285	0.351949	0.000051
C26	C	1.093285	0.851949	0.500051
C27	C	0.650221	0.249604	0.000050
C28	C	1.150221	0.749604	0.500050
C29	C	0.757525	0.264278	0.000045
C30	C	1.257525	0.764278	0.500045
C31	C	0.485971	0.337277	0.000056
C32	C	0.985971	0.837277	0.500056
C33	C	1.127103	0.069306	0.000054
C34	C	1.627103	0.569306	0.500054
C35	C	1.124278	-0.071929	0.000049
C36	C	1.624278	0.428071	0.500049
C37	C	1.016013	-0.266338	-0.000358
C38	C	1.516013	0.233662	0.499642
C39	C	1.018853	-0.119399	0.000044
C40	C	1.518853	0.380601	0.500044
C41	C	1.168815	-0.120774	0.102064
C42	C	1.668815	0.379226	0.602064
C43	C	1.165211	-0.267676	0.102150
C44	C	1.665211	0.232324	0.602150
C45	C	1.179698	-0.283274	-0.100999
C46	C	1.679698	0.216726	0.399001
C47	C	1.180751	-0.136295	-0.102347
C48	C	1.680751	0.363705	0.397653
C49	C	1.295119	0.311144	0.000061
C50	C	1.795119	0.811144	0.500061
C51	C	1.400443	0.325577	0.000060
C52	C	1.900443	0.825577	0.500060
C53	C	1.116397	0.532242	0.000053
C54	C	1.616397	1.032242	0.500053
C55	C	1.119223	0.673476	0.000052
C56	C	1.619223	1.173476	0.500052
N57	N	1.106311	0.319917	0.254279
N58	N	1.606311	0.819917	0.754279
N59	N	1.137196	0.281622	-0.254169
N60	N	1.637196	0.781622	0.245831
C61	C	1.093041	0.336386	0.473393
C62	C	1.593041	0.836386	0.973393
C63	C	1.150463	0.265156	0.526724
C64	C	1.650463	0.765156	1.026724
C65	C	1.143080	0.274320	0.648646
C66	C	1.643080	0.774320	1.148646
C67	C	1.100424	0.327224	0.351459
C68	C	1.600424	0.827224	0.851459
H69	H	0.625127	0.450581	0.000046
H70	H	1.125127	0.950581	0.500046
F71	F	1.116722	-0.062284	0.201290
F72	F	1.616722	0.437716	0.701290
H73	H	0.974202	-0.076194	0.073291
H74	H	1.474202	0.423806	0.573291
F75	F	1.021542	0.425088	0.533394
F76	F	1.521542	0.925088	1.033394
F77	F	0.972481	-0.076184	-0.095540
F78	F	1.472481	0.423816	0.404460
H79	H	0.618383	0.150958	-0.000025
H80	H	1.118383	0.650958	0.499975
F81	F	1.263942	-0.319899	0.108215
F82	F	1.763942	0.180101	0.608215
F83	F	1.141234	-0.336623	-0.202064
F84	F	1.641234	0.163377	0.297936
F85	F	0.967386	-0.316422	-0.095981
F86	F	1.467386	0.183578	0.404019
F87	F	0.955897	-0.304606	0.094462
F88	F	1.455897	0.195394	0.594462
F89	F	1.222255	0.176864	0.466721
F90	F	1.722255	0.676864	0.966721
H91	H	1.123083	-0.293925	0.178405
H92	H	1.623083	0.206075	0.678405
F93	F	1.269708	-0.080950	0.107031
F94	F	1.769708	0.419050	0.607031
F95	F	1.138604	-0.094593	-0.201005
F96	F	1.638604	0.405407	0.298995
F97	F	1.281705	-0.095077	-0.110401
F98	F	1.781705	0.404923	0.389599
F99	F	1.279282	-0.335004	-0.101893
F100	F	1.779282	0.164996	0.398107
