data_functionalizedCrystal
_audit_creation_method	'MofGen! by Chris Wilmer'
_symmetry_space_group_name_H-M	'P1'
_symmetry_Int_Tables_number	1
_symmetry_cell_setting	triclinic
loop_
_symmetry_equiv_pos_as_xyz
  x,y,z
_cell_length_a	10.685980
_cell_length_b	10.686496
_cell_length_c	10.685314
_cell_angle_alpha	99.023642
_cell_angle_beta	90.357263
_cell_angle_gamma	89.648047
loop_
_atom_site_label
_atom_site_type_symbol
_atom_site_fract_x
_atom_site_fract_y
_atom_site_fract_z
Zn1	Zn	1.893474	0.425437	0.891484
Zn2	Zn	1.923054	0.619341	0.697650
Zn3	Zn	1.699593	0.423040	0.665437
Zn4	Zn	1.699547	0.651403	0.893894
O5	O	1.803917	0.529805	0.787116
O6	O	2.072076	0.438744	0.878245
O7	O	1.905811	0.578880	0.516647
O8	O	1.712952	0.246638	0.680933
O9	O	2.093809	0.581204	0.735836
O10	O	1.855395	0.248399	0.847008
O11	O	1.741635	0.434658	0.492980
O12	O	1.524909	0.465748	0.683269
O13	O	1.712873	0.635849	1.070304
O14	O	1.524875	0.633525	0.851115
O15	O	1.855350	0.469833	1.068534
O16	O	1.905766	0.800314	0.738172
O17	O	1.741556	0.823870	0.882352
C18	C	1.479600	0.552857	0.763959
C19	C	1.340855	0.562751	0.754085
C20	C	1.826897	0.857913	0.814049
C21	C	1.836840	0.998274	0.825621
C22	C	2.129501	0.506665	0.810365
C23	C	2.268246	0.496804	0.820272
C24	C	1.780807	0.556685	1.116524
C25	C	1.770958	0.568140	1.256899
C26	C	1.780830	1.200419	0.760097
C27	C	1.770865	1.060062	0.748553
C28	C	1.827003	0.502934	0.458987
C29	C	1.837068	0.491106	0.318602
H30	H	1.296870	0.626784	0.689854
H31	H	1.706780	1.005581	0.673720
H32	H	1.312225	0.432766	0.884489
O33	O	1.913119	1.063350	0.915027
C34	C	1.841612	1.151412	0.997651
H35	H	1.739970	1.119293	0.995112
H36	H	1.879965	1.157696	1.098226
H37	H	1.847081	1.248455	0.966430
H38	H	1.901190	0.416380	1.264037
H39	H	1.706818	0.642858	1.311468
