data_functionalizedCrystal
_audit_creation_method	'MofGen! by Chris Wilmer'
_symmetry_space_group_name_H-M	'P1'
_symmetry_Int_Tables_number	1
_symmetry_cell_setting	triclinic
loop_
_symmetry_equiv_pos_as_xyz
  x,y,z
_cell_length_a	10.489741
_cell_length_b	23.532407
_cell_length_c	9.565339
_cell_angle_alpha	89.995586
_cell_angle_beta	89.999100
_cell_angle_gamma	83.693926
loop_
_atom_site_label
_atom_site_type_symbol
_atom_site_fract_x
_atom_site_fract_y
_atom_site_fract_z
O1	O	1.691382	0.080340	-0.116190
O2	O	1.319936	0.087882	-0.116213
O3	O	1.516860	0.001253	-0.116175
O4	O	1.494458	0.166968	-0.116228
O5	O	1.516844	0.001259	0.116345
O6	O	1.319920	0.087887	0.116307
O7	O	1.691366	0.080345	0.116330
Zn8	Zn	1.505641	0.084117	0.153236
Zn9	Zn	1.505661	0.084110	-0.153119
O10	O	1.494442	0.166974	0.116293
C11	C	1.272415	0.087315	0.000045
C12	C	1.130842	0.085611	0.000037
C13	C	1.516282	-0.019964	0.000089
C14	C	1.514566	-0.083192	0.000099
C15	C	1.064535	0.030491	0.000067
C16	C	0.971550	0.056527	-0.114582
C17	C	0.971568	0.056545	0.114664
C18	C	1.039722	0.111668	-0.114708
C19	C	1.039750	0.111679	0.114642
C20	C	0.946792	0.137754	-0.000036
C21	C	1.620344	-0.481594	0.000029
C22	C	1.618751	-0.541005	0.000019
O23	O	1.716808	-0.577100	-0.000027
N24	N	1.501680	-0.564407	0.000012
C25	C	1.386194	-0.528395	0.000002
O26	O	1.286470	-0.553755	-0.000005
C27	C	1.387789	-0.468985	0.000003
C28	C	1.504868	-0.445587	0.000024
C29	C	1.737414	-0.458195	0.000048
C30	C	1.739007	-0.398788	0.000062
C31	C	1.623530	-0.362781	0.000056
C32	C	1.506460	-0.386180	0.000037
C33	C	1.272305	-0.432974	-0.000017
C34	C	1.273909	-0.373561	-0.000017
C35	C	1.390988	-0.350162	0.000003
C36	C	1.392576	-0.290766	0.000045
N37	N	1.509648	-0.267364	0.000051
C38	C	1.625125	-0.303371	0.000057
C39	C	1.382854	-0.653160	-0.000002
C40	C	1.381258	-0.712568	0.000008
C41	C	1.613816	-0.725174	0.000021
C42	C	1.615410	-0.665765	0.000022
C43	C	1.499926	-0.629758	0.000005
C44	C	1.628461	-0.178612	0.000086
C45	C	1.630043	-0.119200	0.000105
C46	C	1.397486	-0.106599	0.000084
C47	C	1.395903	-0.166006	0.000072
C48	C	1.511401	-0.202012	0.000068
O49	O	1.294571	-0.254636	0.000084
O50	O	1.724833	-0.278003	0.000046
C51	C	1.738887	0.080912	0.000070
C52	C	1.880460	0.082616	0.000069
C53	C	1.495021	0.188191	0.000026
C54	C	1.496736	0.251419	0.000006
N55	N	1.505636	0.084122	0.362316
N56	N	1.505676	0.084101	-0.362198
C57	C	1.414538	0.124171	0.453501
C58	C	1.529652	0.135693	0.546683
C59	C	1.390572	0.072603	0.546689
C60	C	1.620808	0.095670	0.453446
C61	C	1.481652	0.032557	0.453444
C62	C	1.596850	0.044059	0.546584
H63	H	1.115731	-0.014820	-0.000062
H64	H	1.722510	-0.207922	0.000077
H65	H	1.673989	0.010180	0.587197
H66	H	1.461303	-0.011026	0.412456
H67	H	1.179865	-0.344246	-0.000033
O68	O	1.075437	0.139408	-0.230626
C69	C	1.039921	0.110458	-0.351152
H70	H	0.958187	0.084171	-0.324429
H71	H	1.007141	0.142915	-0.435813
H72	H	1.125712	0.080880	-0.390675
O73	O	0.886076	0.191875	-0.000368
C74	C	0.920836	0.220715	-0.121394
H75	H	0.954517	0.188155	-0.205488
H76	H	0.834381	0.249748	-0.161412
H77	H	1.001714	0.247561	-0.095149
O78	O	1.158538	-0.455665	-0.000294
C79	C	1.088210	-0.437286	-0.120713
H80	H	1.156709	-0.424647	-0.204864
H81	H	1.034404	-0.473487	-0.161157
H82	H	1.016649	-0.398865	-0.093496
H83	H	1.834344	-0.379743	0.000072
O84	O	1.274412	0.060953	0.595313
C85	C	1.192542	0.053342	0.481534
H86	H	1.252526	0.040756	0.384762
H87	H	1.129807	0.018150	0.507354
H88	H	1.129090	0.094965	0.460483
H89	H	1.831454	-0.487507	0.000048
H90	H	1.710746	-0.646718	0.000038
H91	H	1.285921	-0.731613	0.000015
O92	O	0.935558	0.028612	-0.230096
C93	C	0.996140	-0.027920	-0.229695
H94	H	1.024014	-0.041020	-0.118127
H95	H	0.927509	-0.057913	-0.272985
H96	H	1.085883	-0.030540	-0.297646
O97	O	1.076083	0.139490	0.230153
C98	C	1.210019	0.141145	0.227845
H99	H	1.246180	0.136194	0.115646
H100	H	1.233769	0.183795	0.271608
H101	H	1.258413	0.104787	0.294414
H102	H	0.941359	0.033215	0.211592
H103	H	1.718153	0.105455	0.412660
O104	O	1.743892	-0.096566	0.000057
C105	C	1.845468	-0.141091	0.000089
H106	H	1.810240	-0.181588	-0.043942
H107	H	1.927257	-0.128334	-0.067411
H108	H	1.881045	-0.149356	0.111641
H109	H	1.707843	-0.754503	0.000020
O110	O	1.270547	-0.618266	0.000064
C111	C	1.166887	-0.651667	0.000024
H112	H	1.199852	-0.695865	0.044042
H113	H	1.086017	-0.630100	0.067531
H114	H	1.130969	-0.656044	-0.111529
O115	O	1.282063	-0.188645	-0.000005
C116	C	1.180484	-0.144121	0.000034
H117	H	1.215718	-0.103615	-0.043958
H118	H	1.098709	-0.156868	-0.067496
H119	H	1.144885	-0.135876	0.111583
H120	H	1.303468	-0.077271	0.000084
O121	O	1.322851	0.164685	0.404792
C122	C	1.348640	0.218970	0.452332
H123	H	1.454928	0.217799	0.478460
H124	H	1.322630	0.252087	0.367102
H125	H	1.289216	0.230923	0.549874
O126	O	1.553707	0.187702	0.595724
C127	C	1.449911	0.211033	0.678854
H128	H	1.395426	0.175123	0.719719
H129	H	1.487605	0.235100	0.770782
H130	H	1.382771	0.241740	0.613285
