data_functionalizedCrystal
_audit_creation_method	'MofGen! by Chris Wilmer'
_symmetry_space_group_name_H-M	'P1'
_symmetry_Int_Tables_number	1
_symmetry_cell_setting	triclinic
loop_
_symmetry_equiv_pos_as_xyz
  x,y,z
_cell_length_a	10.723023
_cell_length_b	13.262508
_cell_length_c	9.198806
_cell_angle_alpha	105.915142
_cell_angle_beta	89.996513
_cell_angle_gamma	84.450751
loop_
_atom_site_label
_atom_site_type_symbol
_atom_site_fract_x
_atom_site_fract_y
_atom_site_fract_z
O1	O	1.656452	0.147209	-0.062667
O2	O	1.293229	0.161301	-0.057101
O3	O	1.483981	0.001531	-0.120265
O4	O	1.465700	0.306978	0.000497
O5	O	1.483966	0.001531	0.121519
O6	O	1.293214	0.161300	0.184684
O7	O	1.656437	0.147208	0.179118
Cu8	Cu	1.474824	0.154254	0.203978
Cu9	Cu	1.474842	0.154255	-0.081961
O10	O	1.465684	0.306977	0.242282
C11	C	1.246727	0.160275	0.063385
C12	C	1.108188	0.157207	0.062170
C13	C	1.046415	0.155839	0.186880
C14	C	0.903228	0.152669	0.185627
C15	C	1.482950	-0.037579	-0.014839
C16	C	1.479885	-0.154117	-0.060923
C17	C	1.471207	-0.482631	0.336378
C18	C	1.474077	-0.373137	0.379678
C19	C	1.475530	-0.318377	0.269531
C20	C	1.474112	-0.373121	0.116077
C21	C	1.471232	-0.482624	0.072773
C22	C	1.475554	-0.318370	0.005927
C23	C	1.474136	-0.373114	-0.147528
C24	C	1.471258	-0.482607	-0.190824
C25	C	1.469805	-0.537368	-0.080678
C26	C	1.478434	-0.208867	0.049231
C27	C	1.478458	-0.208860	-0.214374
C28	C	1.475589	-0.318354	-0.257674
C29	C	1.702939	0.148234	0.058628
C30	C	1.841478	0.151301	0.059834
C31	C	1.466716	0.346088	0.136852
C32	C	1.469780	0.462626	0.182927
N33	N	1.474820	0.154253	0.405091
N34	N	1.474855	0.154247	-0.283078
C35	C	1.554913	0.086875	0.450650
C36	C	1.554933	0.086871	0.618061
H37	H	0.850103	0.151498	0.292396
H38	H	1.479632	-0.164274	-0.304064
O39	O	1.479970	-0.149829	0.214731
H40	H	1.566228	-0.108680	0.237308
O41	O	1.645696	0.010431	0.338152
H42	H	1.631421	0.022418	0.224311
O43	O	1.469633	-0.541685	0.455173
H44	H	1.555124	-0.529408	0.523241
O45	O	1.037825	0.155636	-0.080491
H46	H	1.073490	0.084763	-0.171732
O47	O	0.911833	0.152845	-0.081609
H48	H	0.960406	0.225567	-0.059076
O49	O	1.645768	0.010452	0.670072
H50	H	1.631523	0.022436	0.793398
H51	H	1.474433	-0.362942	-0.382619
H52	H	1.406285	0.211940	0.677654
O53	O	1.478643	-0.200281	0.316221
H54	H	1.479399	-0.171415	0.441429
H55	H	1.406259	0.211932	0.490022
H56	H	1.099535	0.157010	0.294574
O57	O	1.475617	-0.314106	0.545180
H58	H	1.391972	-0.255484	0.574677
O59	O	1.466710	-0.655469	-0.127390
H60	H	1.380995	-0.675605	-0.078466
O61	O	1.469665	-0.541652	-0.356329
H62	H	1.471150	-0.485182	-0.425648
