data_functionalizedCrystal
_audit_creation_method	'MofGen! by Chris Wilmer'
_symmetry_space_group_name_H-M	'P1'
_symmetry_Int_Tables_number	1
_symmetry_cell_setting	triclinic
loop_
_symmetry_equiv_pos_as_xyz
  x,y,z
_cell_length_a	14.519731
_cell_length_b	14.971486
_cell_length_c	14.048226
_cell_angle_alpha	90.000262
_cell_angle_beta	90.003664
_cell_angle_gamma	96.348509
loop_
_atom_site_label
_atom_site_type_symbol
_atom_site_fract_x
_atom_site_fract_y
_atom_site_fract_z
O1	O	0.120178	-1.187022	0.079053
O2	O	0.620178	-0.687022	0.579053
O3	O	0.134570	-0.926631	0.079079
O4	O	0.634570	-0.426631	0.579079
O5	O	-0.006867	-1.063720	0.079057
O6	O	0.493133	-0.563720	0.579057
O7	O	0.261615	-1.049932	0.079076
O8	O	0.761615	-0.549932	0.579076
O9	O	-0.006866	-1.063707	-0.079264
O10	O	0.493134	-0.563707	0.420736
O11	O	0.134571	-0.926618	-0.079242
O12	O	0.634571	-0.426618	0.420758
O13	O	0.120179	-1.187009	-0.079268
O14	O	0.620179	-0.687009	0.420732
Zn15	Zn	0.127375	-1.056811	-0.104392
Zn16	Zn	0.627375	-0.556811	0.395608
Zn17	Zn	0.127374	-1.056828	0.104203
Zn18	Zn	0.627374	-0.556828	0.604203
O19	O	0.261616	-1.049919	-0.079246
O20	O	0.761616	-0.549919	0.420754
C21	C	0.133927	-0.893299	-0.000078
C22	C	0.633927	-0.393299	0.499922
C23	C	0.131998	-0.794001	-0.000068
C24	C	0.631998	-0.294001	0.499932
C25	C	-0.041226	-1.063068	-0.000104
C26	C	0.458774	-0.563068	0.499896
C27	C	-0.143605	-1.061132	-0.000104
C28	C	0.356395	-0.561132	0.499896
C29	C	-0.226748	-1.059559	-0.000102
C30	C	0.273252	-0.559559	0.499898
C31	C	-0.331056	-1.057593	-0.000094
C32	C	0.168944	-0.557593	0.499906
C33	C	-0.414194	-1.056033	-0.000088
C34	C	0.085806	-0.556033	0.499912
C35	C	-0.518508	-1.054068	-0.000082
C36	C	-0.018508	-0.554068	0.499918
C37	C	0.120822	-1.220340	-0.000109
C38	C	0.620822	-0.720340	0.499891
C39	C	0.122751	-1.319639	-0.000112
C40	C	0.622751	-0.819639	0.499888
C41	C	0.295975	-1.050572	-0.000083
C42	C	0.795975	-0.550572	0.499917
C43	C	0.398354	-1.052508	-0.000076
C44	C	0.898354	-0.552508	0.499924
N45	N	0.127376	-1.056806	-0.246753
N46	N	0.627376	-0.556806	0.253247
C47	C	0.215089	-0.736828	-0.000064
C48	C	0.715089	-0.236828	0.499936
C49	C	0.213271	-0.643528	-0.000078
C50	C	0.713271	-0.143528	0.499922
C51	C	0.128361	-0.607401	-0.000090
C52	C	0.628361	-0.107401	0.499910
C53	C	0.045264	-0.664581	-0.000097
C54	C	0.545264	-0.164581	0.499903
C55	C	0.047083	-0.757880	-0.000090
C56	C	0.547083	-0.257880	0.499910
C57	C	0.041479	-0.470116	-0.000111
C58	C	0.541479	0.029884	0.499889
C59	C	0.039660	-0.376811	-0.000116
C60	C	0.539660	0.123189	0.499884
C61	C	0.207667	-0.355764	-0.000099
C62	C	0.707667	0.144236	0.499901
C63	C	0.209486	-0.449063	-0.000091
C64	C	0.709486	0.050937	0.499909
C65	C	0.126388	-0.506236	-0.000097
C66	C	0.626388	-0.006236	0.499903
C67	C	0.071339	-1.002502	-0.703618
C68	C	0.571339	-0.502502	-0.203618
C69	C	0.071336	-1.002499	-0.603961
C70	C	0.571336	-0.502499	-0.103961
C71	C	0.127366	-1.056830	-0.554123
C72	C	0.627366	-0.556830	-0.054123
C73	C	0.183395	-1.111174	-0.603947
C74	C	0.683395	-0.611174	-0.103947
C75	C	0.183392	-1.111181	-0.703603
C76	C	0.683392	-0.611181	-0.203603
C77	C	0.183399	-1.111153	-0.396233
C78	C	0.683399	-0.611153	0.103767
C79	C	0.183403	-1.111144	-0.296570
C80	C	0.683403	-0.611144	0.203430
C81	C	0.071342	-1.002470	-0.296591
C82	C	0.571342	-0.502470	0.203409
C83	C	0.071339	-1.002478	-0.396246
C84	C	0.571339	-0.502478	0.103754
C85	C	0.127370	-1.056821	-0.446064
C86	C	0.627370	-0.556821	0.053936
N87	N	0.127366	-1.056841	0.246564
N88	N	0.627366	-0.556841	0.746564
H89	H	0.284232	-0.766235	-0.000053
H90	H	0.784232	-0.266235	0.499947
H91	H	0.275328	-0.309209	-0.000099
H92	H	0.775328	0.190791	0.499901
F93	F	0.011713	-0.944646	-0.449286
F94	F	0.511713	-0.444646	0.050714
F95	F	-0.050710	-0.338365	-0.000154
F96	F	0.449290	0.161635	0.499846
H97	H	0.278626	-0.478474	-0.000073
H98	H	0.778626	0.021526	0.499927
F99	F	-0.046963	-0.530963	-0.000120
F100	F	0.453037	-0.030963	0.499880
F101	F	0.011710	-0.944633	-0.243570
F102	F	0.511710	-0.444633	0.256430
H103	H	-0.023870	-0.635160	-0.000121
H104	H	0.476130	-0.135160	0.499879
F105	F	0.243022	-1.169001	-0.550903
F106	F	0.743022	-0.669001	-0.050903
F107	F	0.243008	-1.168996	-0.243531
F108	F	0.743008	-0.668996	0.256469
F109	F	0.243029	-1.168995	-0.449251
F110	F	0.743029	-0.668995	0.050749
H111	H	0.229015	-1.155429	-0.744163
H112	H	0.729015	-0.655429	-0.244163
H113	H	0.280932	-0.596981	-0.000073
H114	H	0.780932	-0.096981	0.499927
H115	H	-0.020578	-0.804430	-0.000093
H116	H	0.479422	-0.304430	0.499907
H117	H	0.025717	-0.958255	-0.744189
H118	H	0.525717	-0.458255	-0.244189
H119	H	0.025710	-0.958254	-0.563403
H120	H	0.525710	-0.458254	-0.063403
