data_functionalizedCrystal
_audit_creation_method	'MofGen! by Chris Wilmer'
_symmetry_space_group_name_H-M	'P1'
_symmetry_Int_Tables_number	1
_symmetry_cell_setting	triclinic
loop_
_symmetry_equiv_pos_as_xyz
  x,y,z
_cell_length_a	19.805407
_cell_length_b	19.805405
_cell_length_c	19.805399
_cell_angle_alpha	90.029301
_cell_angle_beta	90.017803
_cell_angle_gamma	90.023727
loop_
_atom_site_label
_atom_site_type_symbol
_atom_site_fract_x
_atom_site_fract_y
_atom_site_fract_z
Zn1	Zn	1.034736	-0.269527	0.382680
Zn2	Zn	1.368069	0.063806	0.716013
Zn3	Zn	1.701402	0.397139	1.049346
Zn4	Zn	1.034650	-0.382716	0.269488
Zn5	Zn	1.367984	-0.049382	0.602821
Zn6	Zn	1.701317	0.283951	0.936155
Zn7	Zn	0.921550	-0.269541	0.269508
Zn8	Zn	1.254884	0.063793	0.602841
Zn9	Zn	1.588217	0.397126	0.936174
Zn10	Zn	0.921514	-0.382674	0.382638
Zn11	Zn	1.254847	-0.049341	0.715971
Zn12	Zn	1.588180	0.283992	1.049305
O13	O	0.978113	-0.326115	0.326078
O14	O	1.311446	0.007219	0.659412
O15	O	1.644779	0.340552	0.992745
O16	O	1.129441	-0.284554	0.367674
O17	O	1.462774	0.048780	0.701007
O18	O	1.796108	0.382113	1.034340
O19	O	1.019627	-0.367726	0.174774
O20	O	1.352960	-0.034392	0.508107
O21	O	1.686294	0.298941	0.841441
O22	O	0.936615	-0.174822	0.284546
O23	O	1.269949	0.158511	0.617879
O24	O	1.603282	0.491844	0.951212
O25	O	1.129378	-0.367713	0.284512
O26	O	1.462712	-0.034379	0.617845
O27	O	1.796045	0.298954	0.951179
O28	O	1.019772	-0.174813	0.367693
O29	O	1.353106	0.158521	0.701026
O30	O	1.686439	0.491854	1.034359
O31	O	0.936533	-0.284576	0.174788
O32	O	1.269866	0.048757	0.508122
O33	O	1.603200	0.382090	0.841455
O34	O	0.826829	-0.284536	0.284506
O35	O	1.160162	0.048797	0.617839
O36	O	1.493496	0.382130	0.951172
O37	O	0.936553	-0.367642	0.477360
O38	O	1.269887	-0.034309	0.810694
O39	O	1.603220	0.299024	1.144027
O40	O	0.826802	-0.367655	0.367622
O41	O	1.160135	-0.034322	0.700955
O42	O	1.493469	0.299011	1.034289
O43	O	1.019737	-0.284514	0.477391
O44	O	1.353070	0.048820	0.810724
O45	O	1.686404	0.382153	1.144057
O46	O	1.019592	-0.477427	0.284472
O47	O	1.352925	-0.144093	0.617805
O48	O	1.686258	0.189240	0.951139
O49	O	0.936471	-0.477397	0.367603
O50	O	1.269804	-0.144063	0.700936
O51	O	1.603137	0.189270	1.034270
C52	C	0.802257	-0.326093	0.326062
C53	C	1.135590	0.007240	0.659395
C54	C	1.468923	0.340573	0.992729
C55	C	0.727025	-0.326101	0.326071
C56	C	1.060358	0.007233	0.659404
C57	C	1.393691	0.340566	0.992738
C58	C	0.691714	-0.282876	0.369439
C59	C	1.025047	0.050457	0.702772
C60	C	1.358380	0.383790	1.036106
C61	C	0.621025	-0.282880	0.369442
C62	C	0.954359	0.050454	0.702775
C63	C	1.287692	0.383787	1.036108
C64	C	0.585649	-0.326112	0.326079
C65	C	0.918982	0.007222	0.659412
C66	C	1.252316	0.340555	0.992746
C67	C	0.620965	-0.369338	0.282706
C68	C	0.954298	-0.036005	0.616040
C69	C	1.287632	0.297329	0.949373
C70	C	0.691652	-0.369330	0.282701
C71	C	1.024985	-0.035997	0.616034
C72	C	1.358319	0.297336	0.949367
C73	C	0.335892	-0.369368	0.282727
C74	C	0.669225	-0.036035	0.616060
C75	C	1.002558	0.297298	0.949394
C76	C	0.265199	-0.369374	0.282737
C77	C	0.598533	-0.036040	0.616071
C78	C	0.931866	0.297293	0.949404
C79	C	0.265265	-0.282918	0.369468
C80	C	0.598598	0.050416	0.702801
C81	C	0.931931	0.383749	1.036134
C82	C	0.335952	-0.282910	0.369462
C83	C	0.669285	0.050423	0.702796
C84	C	1.002619	0.383756	1.036129
C85	C	0.371262	-0.326134	0.326087
C86	C	0.704595	0.007200	0.659421
C87	C	1.037928	0.340533	0.992754
C88	C	0.447910	-0.326128	0.326084
C89	C	0.781243	0.007205	0.659417
C90	C	1.114577	0.340538	0.992751
C91	C	0.509002	-0.326121	0.326085
C92	C	0.842335	0.007213	0.659419
C93	C	1.175669	0.340546	0.992752
C94	C	0.978036	-0.501971	0.326046
C95	C	1.311370	-0.168637	0.659379
C96	C	1.644703	0.164696	0.992712
C97	C	0.978066	-0.577203	0.326054
C98	C	1.311399	-0.243869	0.659388
C99	C	1.644732	0.089464	0.992721
C100	C	1.021389	-0.612540	0.282813
C101	C	1.354722	-0.279207	0.616147
C102	C	1.688056	0.054127	0.949480
C103	C	1.021418	-0.683228	0.282828
C104	C	1.354751	-0.349895	0.616162
C105	C	1.688084	-0.016562	0.949495
C106	C	0.978119	-0.718578	0.326081
C107	C	1.311453	-0.385245	0.659415
C108	C	1.644786	-0.051911	0.992748
C109	C	0.934794	-0.683236	0.369327
C110	C	1.268128	-0.349902	0.702660
C111	C	1.601461	-0.016569	1.035994
C112	C	0.934769	-0.612549	0.369315
C113	C	1.268103	-0.279215	0.702648
C114	C	1.601436	0.054118	1.035982
C115	C	0.934894	-0.968309	0.369377
C116	C	1.268227	-0.634976	0.702710
C117	C	1.601561	-0.301642	1.036044
C118	C	0.934921	-1.039001	0.369384
C119	C	1.268254	-0.705668	0.702718
C120	C	1.601587	-0.372334	1.036051
C121	C	1.021542	-1.038989	0.282890
C122	C	1.354876	-0.705656	0.616224
C123	C	1.688209	-0.372322	0.949557
C124	C	1.021517	-0.968302	0.282878
C125	C	1.354851	-0.634968	0.616212
C126	C	1.688184	-0.301635	0.949545
C127	C	0.978195	-0.932965	0.326126
C128	C	1.311529	-0.599632	0.659460
C129	C	1.644862	-0.266299	0.992793
C130	C	0.978165	-0.856317	0.326110
C131	C	1.311499	-0.522984	0.659444
C132	C	1.644832	-0.189650	0.992777
C133	C	0.978145	-0.795225	0.326094
C134	C	1.311478	-0.461892	0.659427
C135	C	1.644812	-0.128559	0.992761
C136	C	1.154655	-0.326136	0.326095
C137	C	1.487989	0.007197	0.659429
C138	C	1.821322	0.340530	0.992762
C139	C	1.229887	-0.326146	0.326102
C140	C	1.563221	0.007188	0.659436
C141	C	1.896554	0.340521	0.992769
C142	C	0.978151	-0.326072	0.502621
C143	C	1.311484	0.007261	0.835954
C144	C	1.644817	0.340595	1.169288
C145	C	0.978167	-0.326054	0.577853
C146	C	1.311500	0.007280	0.911186
C147	C	1.644833	0.340613	1.244520
C148	C	0.978207	-0.149572	0.326126
C149	C	1.311541	0.183762	0.659459
C150	C	1.644874	0.517095	0.992793
C151	C	0.978248	-0.074340	0.326146
C152	C	1.311581	0.258994	0.659480
C153	C	1.644915	0.592327	0.992813
C154	C	0.978114	-0.326108	0.150222
C155	C	1.311447	0.007225	0.483556
C156	C	1.644780	0.340558	0.816889
C157	C	0.978229	-0.325936	0.074991
C158	C	1.311562	0.007398	0.408324
C159	C	1.644895	0.340731	0.741657
C160	C	1.021481	-0.282767	0.613214
C161	C	1.354815	0.050567	0.946548
C162	C	1.688148	0.383900	1.279881
C163	C	1.021488	-0.282747	0.683903
C164	C	1.354822	0.050586	1.017236
C165	C	1.688155	0.383920	1.350569
C166	C	0.978184	-0.326018	0.719229
C167	C	1.311517	0.007315	1.052562
C168	C	1.644850	0.340648	1.385895
C169	C	0.934864	-0.369308	0.683863
C170	C	1.268197	-0.035974	1.017196
C171	C	1.601531	0.297359	1.350529
C172	C	0.934854	-0.369323	0.613176
C173	C	1.268188	-0.035990	0.946509
C174	C	1.601521	0.297343	1.279842
C175	C	0.934902	-0.369244	0.968936
C176	C	1.268236	-0.035911	1.302270
C177	C	1.601569	0.297422	1.635603
C178	C	0.934917	-0.369227	1.039628
C179	C	1.268250	-0.035894	1.372962
C180	C	1.601584	0.297440	1.706295
C181	C	1.021536	-0.282668	1.039663
C182	C	1.354870	0.050665	1.372997
C183	C	1.688203	0.383999	1.706330
C184	C	1.021527	-0.282684	0.968976
C185	C	1.354860	0.050650	1.302309
C186	C	1.688193	0.383983	1.635643
C187	C	0.978205	-0.325970	0.933616
C188	C	1.311538	0.007363	1.266950
C189	C	1.644872	0.340697	1.600283
C190	C	0.978197	-0.325990	0.856968
C191	C	1.311530	0.007343	1.190301
C192	C	1.644864	0.340677	1.523634
C193	C	0.978194	-0.326002	0.795876
C194	C	1.311528	0.007331	1.129209
C195	C	1.644861	0.340664	1.462543
H196	H	0.592156	-0.404535	0.247397
H197	H	0.925489	-0.071201	0.580730
H198	H	1.258823	0.262132	0.914063
H199	H	0.364632	-0.404564	0.247409
H200	H	0.697966	-0.071231	0.580742
H201	H	1.031299	0.262103	0.914076
O202	O	0.729743	-0.415951	0.235927
O203	O	1.063076	-0.082618	0.569260
O204	O	1.396410	0.250716	0.902593
H205	H	0.693270	-0.446019	0.205778
H206	H	1.026603	-0.112685	0.539112
H207	H	1.359936	0.220648	0.872445
H208	H	0.236507	-0.247721	0.404783
H209	H	0.569840	0.085613	0.738117
H210	H	0.903174	0.418946	1.071450
H211	H	1.056644	-0.583763	0.247589
H212	H	1.389978	-0.250430	0.580922
H213	H	1.723311	0.082904	0.914255
O214	O	1.068140	-0.721345	0.236186
O215	O	1.401474	-0.388012	0.569520
O216	O	1.734807	-0.054679	0.902853
H217	H	1.098237	-0.684889	0.206101
H218	H	1.431570	-0.351556	0.539434
H219	H	1.764903	-0.018222	0.872767
H220	H	0.899576	-0.404565	0.584385
H221	H	1.232909	-0.071232	0.917719
H222	H	1.566243	0.262101	1.251052
H223	H	1.056809	-0.247420	1.068462
H224	H	1.390142	0.085914	1.401795
H225	H	1.723475	0.419247	1.735129
H226	H	0.899650	-0.404465	1.068389
H227	H	1.232983	-0.071132	1.401722
H228	H	1.566317	0.262202	1.735056
H229	H	1.056773	-0.939522	0.247655
H230	H	1.390106	-0.606189	0.580989
H231	H	1.723439	-0.272856	0.914322
H232	H	0.899492	-0.583777	0.404527
H233	H	1.232826	-0.250444	0.737860
H234	H	1.566159	0.082889	1.071194
O235	O	0.888155	-0.415979	0.721963
O236	O	1.221488	-0.082645	1.055296
O237	O	1.554822	0.250688	1.388630
H238	H	0.835038	-0.404359	0.708394
H239	H	1.168371	-0.071026	1.041727
H240	H	1.501705	0.262308	1.375060
H241	H	1.056820	-1.067768	0.247678
H242	H	1.390153	-0.734435	0.581012
H243	H	1.723487	-0.401101	0.914345
H244	H	1.056792	-0.247450	0.940217
H245	H	1.390125	0.085883	1.273550
H246	H	1.723459	0.419217	1.606884
O247	O	1.068189	-0.236095	0.575113
O248	O	1.401522	0.097238	0.908446
O249	O	1.734856	0.430572	1.241780
H250	H	1.098305	-0.205987	0.611581
H251	H	1.431638	0.127346	0.944914
H252	H	1.764971	0.460680	1.278247
O253	O	0.888224	-1.077133	0.416043
O254	O	1.221557	-0.743799	0.749376
O255	O	1.554891	-0.410466	1.082709
H256	H	0.858100	-1.040686	0.446120
H257	H	1.191433	-0.707353	0.779453
H258	H	1.524767	-0.374020	1.112786
O259	O	0.374104	-0.236280	0.416233
O260	O	0.707437	0.097053	0.749567
O261	O	1.040771	0.430386	1.082900
H262	H	0.429190	-0.243541	0.408947
H263	H	0.762523	0.089792	0.742281
H264	H	1.095856	0.423126	1.075614
H265	H	0.236398	-0.404580	0.247424
H266	H	0.569731	-0.071247	0.580757
H267	H	0.903065	0.262087	0.914091
H268	H	0.899618	-0.939544	0.404590
H269	H	1.232952	-0.606210	0.737923
H270	H	1.566285	-0.272877	1.071256
H271	H	0.592278	-0.247684	0.404757
H272	H	0.925611	0.085650	0.738091
H273	H	1.258945	0.418983	1.071424
H274	H	1.056761	-0.247500	0.712691
H275	H	1.390094	0.085834	1.046024
H276	H	1.723428	0.419167	1.379357
O277	O	0.729869	-0.236243	0.416205
O278	O	1.063202	0.097090	0.749538
O279	O	1.396536	0.430423	1.082871
H280	H	0.693436	-0.206182	0.446355
H281	H	1.026770	0.127152	0.779688
H282	H	1.360103	0.460485	1.113022
O283	O	0.888084	-0.721358	0.415973
O284	O	1.221417	-0.388024	0.749306
O285	O	1.554751	-0.054691	1.082640
H286	H	0.895371	-0.776448	0.408710
H287	H	1.228704	-0.443115	0.742043
H288	H	1.562037	-0.109782	1.075377
O289	O	0.888145	-0.415895	0.930801
O290	O	1.221478	-0.082561	1.264135
O291	O	1.554812	0.250772	1.597468
H292	H	0.858027	-0.445971	0.967244
H293	H	1.191361	-0.112638	1.300577
H294	H	1.524694	0.220695	1.633910
