data_functionalizedCrystal
_audit_creation_method	'MofGen! by Chris Wilmer'
_symmetry_space_group_name_H-M	'P1'
_symmetry_Int_Tables_number	1
_symmetry_cell_setting	triclinic
loop_
_symmetry_equiv_pos_as_xyz
  x,y,z
_cell_length_a	8.597340
_cell_length_b	8.634740
_cell_length_c	7.681459
_cell_angle_alpha	83.367599
_cell_angle_beta	103.474216
_cell_angle_gamma	92.880213
loop_
_atom_site_label
_atom_site_type_symbol
_atom_site_fract_x
_atom_site_fract_y
_atom_site_fract_z
O1	O	2.132595	0.213251	0.177131
O2	O	1.672308	0.237820	0.107294
O3	O	1.880664	0.001061	0.138911
O4	O	1.924240	0.450011	0.145514
O5	O	1.906295	-0.028143	0.435658
O6	O	1.697940	0.208617	0.404042
O7	O	2.158227	0.184048	0.473878
Zn8	Zn	1.932153	0.191696	0.486075
Zn9	Zn	1.898382	0.230172	0.095098
O10	O	1.949871	0.420808	0.442262
C11	C	1.625585	0.222207	0.246635
C12	C	1.448176	0.219174	0.219717
C13	C	1.883608	-0.070991	0.285784
C14	C	1.854173	-0.242172	0.281310
C15	C	2.204949	0.199662	0.334534
C16	C	2.382358	0.202696	0.361440
C17	C	1.946927	0.492859	0.295385
C18	C	1.976361	0.664041	0.299847
N19	N	1.955212	0.165435	0.752908
N20	N	1.875323	0.256433	0.828264
H21	H	1.461733	0.190897	0.503375
H22	H	1.368792	0.230962	0.077773
Cl23	Cl	2.172642	-0.257743	0.329618
H24	H	1.727036	-0.292841	0.262009
Cl25	Cl	1.749410	0.399835	0.693062
H26	H	2.036782	0.072561	0.840492
