data_functionalizedCrystal
_audit_creation_method	'MofGen! by Chris Wilmer'
_symmetry_space_group_name_H-M	'P1'
_symmetry_Int_Tables_number	1
_symmetry_cell_setting	triclinic
loop_
_symmetry_equiv_pos_as_xyz
  x,y,z
_cell_length_a	27.440280
_cell_length_b	20.919309
_cell_length_c	20.919309
_cell_angle_alpha	60.101124
_cell_angle_beta	89.996752
_cell_angle_gamma	62.585805
loop_
_atom_site_label
_atom_site_type_symbol
_atom_site_fract_x
_atom_site_fract_y
_atom_site_fract_z
Zr1	Zr	0.493209	0.692373	-0.106854
O2	O	0.422173	0.817908	-0.209950
O3	O	0.512143	0.561541	-0.071786
O4	O	0.519747	0.684722	-0.204960
O5	O	0.411805	0.702608	0.024333
O6	O	0.599948	0.684712	-0.204963
O7	O	0.414569	0.694727	-0.076777
O8	O	0.586347	0.464363	0.033260
O9	O	0.425407	0.922957	-0.213890
O10	O	0.583506	0.617307	-0.061017
O11	O	0.521590	0.623197	0.014442
O12	O	0.530542	0.768227	-0.142352
O13	O	0.468626	0.774117	-0.066893
Zr14	Zr	0.616714	0.704926	0.054399
Zr15	Zr	0.621122	0.692356	-0.106859
Zr16	Zr	0.488801	0.704942	0.054404
Zr17	Zr	0.498367	0.859913	-0.113138
Zr18	Zr	0.611556	0.537385	0.060683
O19	O	0.597780	0.835757	0.019331
O20	O	0.604048	0.817884	-0.209958
O21	O	0.415905	0.835781	0.019338
O22	O	0.687751	0.579390	0.157495
O23	O	0.694018	0.561517	-0.071794
O24	O	0.505875	0.579414	0.157502
O25	O	0.698118	0.694690	-0.076788
O26	O	0.590177	0.712576	0.152504
O27	O	0.509975	0.712586	0.152508
O28	O	0.695354	0.702571	0.024321
O29	O	0.527080	0.922944	-0.213894
O30	O	0.582843	0.474354	0.161439
O31	O	0.684517	0.474341	0.161435
O32	O	0.688020	0.464350	0.033256
O33	O	0.421903	0.932948	-0.085711
O34	O	0.523576	0.932935	-0.085715
O35	O	0.579381	0.629071	0.089897
O36	O	0.641297	0.623181	0.014437
O37	O	0.588333	0.774101	-0.066898
O38	O	0.526417	0.779991	0.008562
C39	C	0.548510	0.489081	-0.018368
C40	C	0.546321	0.417956	-0.015700
C41	C	0.577610	0.381466	-0.053836
C42	C	0.575554	0.314632	-0.051322
C43	C	0.542205	0.284293	-0.010677
C44	C	0.510914	0.320785	0.027464
C45	C	0.512974	0.387614	0.024954
C46	C	0.534372	0.082663	-0.001124
C47	C	0.532313	0.015832	0.001381
C48	C	0.596954	0.009682	-0.077405
C49	C	0.599008	0.076516	-0.079915
C50	C	0.567720	0.112999	-0.041771
C51	C	0.540101	0.215980	-0.008108
C52	C	0.569827	0.181307	-0.044335
C53	C	0.394963	0.698670	-0.026221
C54	C	0.340660	0.698677	-0.026219
C55	C	0.005484	0.694287	-0.081930
C56	C	-0.045534	0.694280	-0.081930
O57	O	-0.070615	0.690555	-0.129286
N58	N	-0.072574	0.698624	-0.026229
C59	C	-0.048591	0.702965	0.029481
O60	O	-0.076275	0.706658	0.076859
C61	C	0.002428	0.702966	0.029483
C62	C	0.029463	0.698631	-0.026226
C63	C	0.032519	0.689951	-0.137635
C64	C	0.083533	0.689959	-0.137635
C65	C	0.107512	0.694303	-0.081931
C66	C	0.080477	0.698639	-0.026227
C67	C	0.026413	0.707301	0.085196
C68	C	0.077436	0.707300	0.085194
C69	C	0.104471	0.702965	0.029485
C70	C	0.155470	0.702990	0.029477
N71	N	0.182511	0.698647	-0.026224
C72	C	0.158532	0.694303	-0.081928
C73	C	-0.155734	0.702963	0.029471
C74	C	-0.206755	0.702969	0.029466
C75	C	-0.203694	0.694283	-0.081945
C76	C	-0.152675	0.694283	-0.081942
C77	C	-0.128694	0.698620	-0.026230
C78	C	0.265664	0.694321	-0.081925
C79	C	0.316681	0.694333	-0.081923
C80	C	0.313617	0.703015	0.029489
C81	C	0.262603	0.703008	0.029485
C82	C	0.238629	0.698658	-0.026226
O83	O	0.180586	0.706710	0.076810
O84	O	0.186226	0.690599	-0.129293
C85	C	0.714961	0.698628	-0.026234
C86	C	0.769263	0.698621	-0.026236
C87	C	0.560476	0.682926	-0.227937
C88	C	0.562347	0.677590	-0.296395
C89	C	0.561413	0.908217	-0.034088
C90	C	0.563603	0.979342	-0.036755
C91	C	0.535580	0.753859	-0.371013
C92	C	0.537346	0.748840	-0.435334
C93	C	0.565875	0.667551	-0.425036
C94	C	0.592646	0.591276	-0.350410
C95	C	0.590883	0.596296	-0.286091
C96	C	0.572584	0.648453	-0.617115
C97	C	0.574343	0.643439	-0.681442
C98	C	0.519044	0.801004	-0.766362
C99	C	0.517281	0.806017	-0.702037
C100	C	0.544054	0.729742	-0.627418
C101	C	0.567680	0.662419	-0.490781
C102	C	0.542253	0.734875	-0.561674
C103	C	0.549448	0.714372	0.175482
C104	C	0.547576	0.719708	0.243940
C105	C	0.708509	0.489060	-0.018374
C106	C	0.760622	0.417927	-0.015709
C107	C	0.542996	0.504804	0.183342
C108	C	0.538935	0.439015	0.254468
C109	C	0.702995	0.504783	0.183335
C110	C	0.753237	0.438987	0.254459
C111	C	0.406928	0.892515	-0.235790
C112	C	0.356687	0.958312	-0.306914
C113	C	0.401414	0.908238	-0.034081
C114	C	0.349301	0.979371	-0.036746
C115	C	0.566927	0.892494	-0.235797
C116	C	0.570988	0.958283	-0.306923
C117	C	0.754929	0.381456	-0.053850
C118	C	0.803890	0.314628	-0.051361
C119	C	0.858544	0.284267	-0.010726
C120	C	0.864236	0.320745	0.027417
C121	C	0.815276	0.387577	0.024923
C122	C	0.567194	0.411186	0.327262
C123	C	0.563377	0.349380	0.394099
C124	C	0.531303	0.315399	0.388138
C125	C	0.503040	0.343234	0.315336
C126	C	0.506855	0.405043	0.248501
C127	C	0.809156	0.405014	0.248470
C128	C	0.856368	0.343200	0.315292
C129	C	0.847660	0.315355	0.388102
C130	C	0.791735	0.349335	0.394089
C131	C	0.744524	0.411152	0.327267
C132	C	0.300768	0.992293	-0.300926
C133	C	0.253556	1.054127	-0.367748
C134	C	0.262264	1.081975	-0.440558
C135	C	0.318189	1.047991	-0.446545
C136	C	0.365399	0.986162	-0.379723
C137	C	0.354995	1.015848	0.001388
C138	C	0.306035	1.082694	-0.001119
C139	C	0.251381	1.113056	-0.041757
C140	C	0.245689	1.076575	-0.079896
C141	C	0.294649	1.009735	-0.077393
C142	C	0.603067	0.992245	-0.300938
C143	C	0.606894	1.054053	-0.367762
C144	C	0.578638	1.081902	-0.440570
C145	C	0.546558	1.047934	-0.446553
C146	C	0.542735	0.986123	-0.379730
H147	H	0.505154	-0.008867	0.034479
H148	H	0.615878	0.525088	-0.342030
H149	H	0.512345	0.820054	-0.379408
C150	C	0.197529	1.186576	-0.044504
H151	H	0.164161	1.199443	-0.074171
H152	H	0.195486	1.168578	0.006503
H153	H	0.199714	1.237072	-0.067551
C154	C	0.185568	1.109975	-0.124588
H155	H	0.157229	1.154999	-0.120605
H156	H	0.183300	1.132011	-0.177388
H157	H	0.179080	1.063514	-0.103326
H158	H	0.784654	0.326655	0.453379
C159	C	0.602026	0.564553	-0.535043
H160	H	0.619262	0.515424	-0.538125
H161	H	0.630756	0.563226	-0.508183
H162	H	0.574217	0.563241	-0.508189
C163	C	0.620324	0.512399	-0.204011
H164	H	0.637563	0.463267	-0.207088
H165	H	0.649052	0.511078	-0.177154
H166	H	0.592515	0.511087	-0.177157
C167	C	0.515439	1.078626	-0.526645
H168	H	0.495776	1.049563	-0.520647
H169	H	0.488558	1.139642	-0.555692
H170	H	0.542779	1.065612	-0.553003
C171	C	0.606512	0.214673	-0.089041
H172	H	0.624857	0.183369	-0.111393
H173	H	0.582506	0.274866	-0.128676
H174	H	0.634814	0.206357	-0.054626
H175	H	0.799244	0.284935	-0.082422
H176	H	0.528201	0.265070	0.442566
C177	C	0.917878	0.305804	0.308698
H178	H	0.944752	0.265001	0.358918
H179	H	0.922264	0.277650	0.282953
H180	H	0.924567	0.351693	0.280161
H181	H	0.487493	0.417325	0.056006
H182	H	0.710431	0.406174	-0.086950
H183	H	0.516611	0.958478	-0.384614
H184	H	0.399493	0.991133	0.034485
C185	C	0.210331	1.149982	-0.514057
H186	H	0.223522	1.161708	-0.558282
H187	H	0.186575	1.128077	-0.513231
H188	H	0.188859	1.202125	-0.516007
C189	C	0.821545	0.427679	0.066892
H190	H	0.861108	0.400014	0.091454
H191	H	0.805814	0.488127	0.030542
H192	H	0.801590	0.419616	0.104587
H193	H	0.290004	0.980037	-0.108445
C194	C	0.635692	0.109885	-0.124624
H195	H	0.654036	0.078576	-0.146973
H196	H	0.611685	0.170076	-0.164262
H197	H	0.663995	0.101573	-0.090214
H198	H	0.604764	0.406168	-0.086938
C199	C	0.912394	0.210747	-0.007981
H200	H	0.901170	0.193372	-0.036511
H201	H	0.936732	0.230993	-0.029890
H202	H	0.932496	0.162505	0.044160
H203	H	0.476926	0.315557	0.310495
H204	H	0.310681	1.112386	0.029942
H205	H	0.508897	0.112357	0.029938
C206	C	0.475772	0.435642	0.168432
H207	H	0.456130	0.406542	0.174462
H208	H	0.448877	0.496656	0.139325
H209	H	0.503137	0.422587	0.142115
C210	C	0.818743	0.435637	0.168386
H211	H	0.782620	0.477315	0.129440
H212	H	0.840896	0.461269	0.161767
H213	H	0.838622	0.387213	0.164544
C214	C	0.924355	0.287332	0.072127
H215	H	0.920739	0.318621	0.094489
H216	H	0.942585	0.227140	0.111756
H217	H	0.946827	0.295632	0.037718
H218	H	0.410930	0.958495	-0.384608
C219	C	0.631374	-0.030459	-0.119349
H220	H	0.625377	-0.074611	-0.112029
H221	H	0.618843	0.013475	-0.172968
H222	H	0.671146	-0.055025	-0.098912
C223	C	0.899596	0.247350	0.461598
H224	H	0.934144	0.231102	0.447597
H225	H	0.899486	0.271513	0.489883
H226	H	0.897203	0.197468	0.492651
C227	C	0.683016	0.448506	0.333865
H228	H	0.684597	0.423058	0.386800
H229	H	0.664385	0.509775	0.308048
H230	H	0.662122	0.435710	0.310831
H231	H	0.626076	0.969580	-0.241660
H232	H	0.519027	0.801060	-0.570056
H233	H	0.293667	0.969622	-0.241646
C234	C	0.602474	0.448560	0.333829
H235	H	0.600707	0.489354	0.283604
H236	H	0.587113	0.476720	0.359575
H237	H	0.641373	0.402657	0.362357
H238	H	-0.223226	0.690744	-0.127301
C239	C	0.103813	0.712072	0.146476
H240	H	0.138072	0.711449	0.138506
H241	H	0.077133	0.764250	0.142207
H242	H	0.112517	0.663448	0.196525
H243	H	0.483764	0.296073	0.060563
H244	H	0.601033	0.284922	-0.082375
H245	H	0.494052	0.872211	-0.710432
H246	H	0.208024	1.081787	-0.362859
C247	C	-0.236495	0.707751	0.090737
H248	H	-0.270317	0.707132	0.082761
H249	H	-0.211070	0.659140	0.140786
H250	H	-0.246453	0.759942	0.086455
H251	H	0.590908	0.596233	-0.482404
C252	C	0.503442	0.182576	0.036634
H253	H	0.485109	0.213864	0.059003
H254	H	0.475139	0.190855	0.002256
H255	H	0.527476	0.122383	0.076272
H256	H	0.325272	1.070673	-0.505835
C257	C	0.489603	0.884898	-0.848440
H258	H	0.494742	0.870270	-0.885274
H259	H	0.449688	0.918098	-0.855348
H260	H	0.506228	0.918082	-0.855341
H261	H	-0.136215	0.706502	0.074837
C262	C	0.642174	1.091417	-0.361167
H263	H	0.658443	1.065987	-0.308234
H264	H	0.672051	1.078630	-0.384200
H265	H	0.617786	1.152690	-0.386988
H266	H	0.581756	1.132233	-0.494976
H267	H	0.338691	0.690806	-0.127291
C268	C	0.239297	0.689544	-0.143210
H269	H	0.262708	0.686972	-0.176386
H270	H	0.237147	0.638965	-0.118375
H271	H	0.201767	0.739768	-0.172691
H272	H	0.597574	0.577240	-0.673048
H273	H	0.105543	0.686426	-0.182997
C274	C	0.594473	0.318765	0.474171
H275	H	0.614128	0.347847	0.468143
H276	H	0.567118	0.331810	0.500498
H277	H	0.621368	0.257747	0.503267
H278	H	0.013001	0.686411	-0.182996
C279	C	-0.003309	0.712055	0.146485
H280	H	0.018291	0.714628	0.179663
H281	H	-0.040967	0.762628	0.121657
H282	H	-0.005577	0.661824	0.175964
H283	H	-0.130665	0.690752	-0.127305
H284	H	0.333148	0.706556	0.074841
C285	C	0.232858	0.707792	0.090755
H286	H	0.254448	0.710379	0.123930
H287	H	0.195201	0.758365	0.065909
H288	H	0.230589	0.657564	0.120239
H289	H	0.515551	0.810947	-0.496090
