data_functionalizedCrystal
_audit_creation_method	'MofGen! by Chris Wilmer'
_symmetry_space_group_name_H-M	'P1'
_symmetry_Int_Tables_number	1
_symmetry_cell_setting	triclinic
loop_
_symmetry_equiv_pos_as_xyz
  x,y,z
_cell_length_a	11.792241
_cell_length_b	27.732048
_cell_length_c	10.268362
_cell_angle_alpha	89.989776
_cell_angle_beta	89.999626
_cell_angle_gamma	83.418036
loop_
_atom_site_label
_atom_site_type_symbol
_atom_site_fract_x
_atom_site_fract_y
_atom_site_fract_z
O1	O	1.504790	0.066248	-0.108189
O2	O	1.174230	0.073076	-0.108221
O3	O	1.349776	-0.000675	-0.108179
O4	O	1.329243	0.139999	-0.108231
O5	O	1.349761	-0.000678	0.108421
O6	O	1.174215	0.073073	0.108379
O7	O	1.504775	0.066245	0.108411
Cu8	Cu	1.339493	0.069659	0.128173
Cu9	Cu	1.339511	0.069662	-0.127983
O10	O	1.329228	0.139996	0.108370
C11	C	1.131945	0.072645	0.000075
C12	C	1.005973	0.071362	0.000064
C13	C	0.775336	0.069001	0.000103
C14	C	0.903679	0.070313	0.000082
C15	C	1.349338	-0.018686	0.000124
C16	C	1.348040	-0.072348	0.000135
C17	C	1.443606	-0.410609	0.000077
C18	C	1.438790	-0.612297	0.000059
O19	O	1.526178	-0.643045	0.000010
N20	N	1.334698	-0.632024	0.000050
C21	C	1.231803	-0.601327	0.000037
O22	O	1.143157	-0.622734	0.000016
C23	C	1.236620	-0.399640	0.000046
C24	C	1.340718	-0.379915	0.000069
C25	C	1.547695	-0.390884	0.000098
C26	C	1.548898	-0.340465	0.000110
C27	C	1.446011	-0.309771	0.000101
C28	C	1.341921	-0.329496	0.000080
C29	C	1.133726	-0.368943	0.000024
C30	C	1.134940	-0.318519	0.000023
C31	C	1.239038	-0.298794	0.000045
C32	C	1.240237	-0.248384	0.000083
N33	N	1.344328	-0.228656	0.000092
C34	C	1.447215	-0.259350	0.000101
C35	C	1.229282	-0.707215	0.000035
C36	C	1.228077	-0.757637	0.000035
C37	C	1.435065	-0.768603	0.000054
C38	C	1.436268	-0.718181	0.000063
C39	C	1.333374	-0.687488	0.000044
C40	C	1.449733	-0.153466	0.000127
C41	C	1.450927	-0.103042	0.000144
C42	C	1.243941	-0.092080	0.000118
C43	C	1.242746	-0.142500	0.000108
C44	C	1.345652	-0.173192	0.000108
O45	O	1.152896	-0.217607	0.000117
O46	O	1.535849	-0.237933	0.000093
C47	C	1.442403	-0.461028	0.000066
C48	C	1.338313	-0.480753	0.000045
C49	C	1.235426	-0.450060	0.000036
C50	C	1.337108	-0.531175	0.000045
C51	C	1.439996	-0.561868	0.000054
C52	C	1.544087	-0.542141	0.000063
C53	C	1.545290	-0.491722	0.000074
C54	C	1.131334	-0.469787	0.000027
C55	C	1.130140	-0.520207	0.000017
C56	C	1.233027	-0.550900	0.000026
C57	C	1.547059	0.066676	0.000112
C58	C	1.673032	0.067959	0.000114
C59	C	1.329667	0.158007	0.000063
C60	C	1.330965	0.211669	0.000044
N61	N	1.339489	0.069656	0.308339
N62	N	1.339525	0.069661	-0.308148
C63	C	1.339506	0.069661	0.574009
C64	C	1.339493	0.069660	0.426171
H65	H	1.535700	-0.086985	0.000165
O66	O	1.020357	-0.436685	0.000022
H67	H	1.015954	-0.413457	0.088308
O68	O	1.655057	-0.575254	0.000079
H69	H	1.727652	-0.553072	0.000101
O70	O	1.017850	-0.541475	0.000003
H71	H	1.034285	-0.581693	0.000005
O72	O	1.560721	-0.186567	0.000146
H73	H	1.633294	-0.164372	0.000178
O74	O	1.657567	-0.470449	0.000072
H75	H	1.728899	-0.500270	0.000060
O76	O	1.115802	-0.778910	0.000028
H77	H	1.044466	-0.749091	0.000010
O78	O	1.021446	-0.390210	0.000001
H79	H	0.972074	-0.377894	-0.088296
O80	O	1.661175	-0.319193	0.000096
H81	H	1.732507	-0.349013	0.000079
O82	O	1.130474	-0.163779	0.000088
H83	H	1.059133	-0.133963	0.000078
O84	O	1.132971	-0.058971	0.000107
H85	H	1.151306	-0.020597	0.000103
H86	H	1.518839	-0.793603	0.000062
O87	O	1.023953	-0.285417	0.000017
H88	H	1.019545	-0.262176	-0.088266
O89	O	1.658679	-0.423984	0.000129
H90	H	1.708555	-0.416926	-0.088136
O91	O	1.548547	-0.696910	0.000061
H92	H	1.597942	-0.709227	0.088341
O93	O	1.118297	-0.674112	0.000042
H94	H	1.045723	-0.696306	0.000055
