data_functionalizedCrystal
_audit_creation_method	'MofGen! by Chris Wilmer'
_symmetry_space_group_name_H-M	'P1'
_symmetry_Int_Tables_number	1
_symmetry_cell_setting	triclinic
loop_
_symmetry_equiv_pos_as_xyz
  x,y,z
_cell_length_a	23.532355
_cell_length_b	23.532407
_cell_length_c	9.730223
_cell_angle_alpha	89.990960
_cell_angle_beta	90.002532
_cell_angle_gamma	82.838088
loop_
_atom_site_label
_atom_site_type_symbol
_atom_site_fract_x
_atom_site_fract_y
_atom_site_fract_z
O1	O	0.755278	0.068994	-0.114117
O2	O	0.589410	0.079028	-0.114162
O3	O	0.677346	-0.008922	-0.114113
O4	O	0.667342	0.156944	-0.114166
O5	O	0.677340	-0.008924	0.114467
O6	O	0.589405	0.079026	0.114417
O7	O	0.755272	0.068992	0.114463
Zn8	Zn	0.672337	0.074008	0.150732
Zn9	Zn	0.672345	0.074011	-0.150432
O10	O	0.667337	0.156941	0.114414
C11	C	0.568191	0.078776	0.000122
C12	C	0.504972	0.078022	0.000106
C13	C	0.112955	0.073283	0.124764
C14	C	0.053556	0.072565	0.124769
O15	O	0.022835	0.072174	0.230735
N16	N	0.023850	0.072211	0.000171
C17	C	0.053548	0.072568	-0.124441
O18	O	0.022827	0.072200	-0.230421
C19	C	0.112947	0.073281	-0.124445
C20	C	0.142649	0.073641	0.000161
C21	C	0.142657	0.073642	0.249360
C22	C	0.202052	0.074361	0.249354
C23	C	0.231746	0.074720	0.124751
C24	C	0.202044	0.074360	0.000155
C25	C	0.142644	0.073634	-0.249056
C26	C	0.202047	0.074347	-0.249049
C27	C	0.231749	0.074708	-0.124443
C28	C	0.291133	0.075437	-0.124453
N29	N	0.320838	0.075792	0.000145
C30	C	0.291144	0.075433	0.124747
C31	C	-0.071193	0.071069	-0.124423
C32	C	-0.130592	0.070360	-0.124420
C33	C	-0.130580	0.070356	0.124791
C34	C	-0.071181	0.071069	0.124786
C35	C	-0.041488	0.071423	0.000175
C36	C	0.415879	0.076942	0.124725
C37	C	0.475279	0.077663	0.124708
C38	C	0.475262	0.077664	-0.124502
C39	C	0.415867	0.076946	-0.124486
C40	C	0.386177	0.076583	0.000139
O41	O	0.321892	0.075827	-0.230365
O42	O	0.321874	0.075793	0.230710
C43	C	0.677088	-0.030139	0.000180
C44	C	0.676322	-0.093356	0.000191
C45	C	0.723557	-0.492468	0.000128
C46	C	0.722845	-0.551868	0.000118
O47	O	0.766632	-0.588620	0.000079
N48	N	0.670568	-0.574484	0.000104
C49	C	0.618998	-0.537697	0.000088
O50	O	0.574467	-0.562388	0.000074
C51	C	0.619710	-0.478298	0.000088
C52	C	0.671991	-0.455685	0.000116
C53	C	0.775834	-0.469854	0.000154
C54	C	0.776545	-0.410458	0.000167
C55	C	0.724979	-0.373676	0.000155
C56	C	0.672703	-0.396289	0.000129
C57	C	0.568141	-0.441512	0.000062
C58	C	0.568858	-0.382110	0.000062
C59	C	0.621139	-0.359497	0.000089
C60	C	0.621848	-0.300110	0.000129
N61	N	0.674126	-0.277494	0.000143
C62	C	0.725691	-0.314277	0.000156
C63	C	0.617507	-0.662439	0.000083
C64	C	0.616794	-0.721837	0.000093
C65	C	0.720642	-0.736004	0.000120
C66	C	0.721354	-0.676605	0.000121
C67	C	0.669784	-0.639823	0.000097
C68	C	0.727181	-0.189540	0.000184
C69	C	0.727888	-0.130138	0.000203
C70	C	0.624041	-0.115977	0.000168
C71	C	0.623334	-0.175373	0.000157
C72	C	0.674909	-0.212154	0.000160
O73	O	0.578084	-0.263323	0.000163
O74	O	0.770216	-0.289577	0.000151
C75	C	0.776492	0.069244	0.000176
C76	C	0.839710	0.069998	0.000183
C77	C	0.667594	0.178158	0.000117
C78	C	0.668360	0.241375	0.000098
N79	N	0.672337	0.074006	0.356269
N80	N	0.672350	0.074009	-0.355968
C81	C	0.711287	0.035078	0.428216
C82	C	0.711293	0.035078	0.572099
C83	C	0.633395	0.112939	0.572074
C84	C	0.633387	0.112936	0.428194
H85	H	-0.154771	0.070075	-0.225888
H86	H	0.391681	0.076662	-0.225950
C87	C	-0.038535	0.071468	-0.261507
C88	C	-0.039962	0.021914	-0.364293
C89	C	-0.007307	0.022312	-0.501376
C90	C	0.026773	0.072265	-0.535673
C91	C	0.028201	0.121824	-0.432885
C92	C	-0.004453	0.121425	-0.295802
H93	H	-0.065191	-0.015068	-0.338906
H94	H	-0.008364	-0.014375	-0.577466
H95	H	0.050946	0.072561	-0.637150
H96	H	0.053430	0.158806	-0.458271
H97	H	-0.003396	0.158112	-0.219712
C98	C	0.512129	-0.341650	0.000041
C99	C	0.498329	-0.298877	0.118737
C100	C	0.441601	-0.258420	0.118721
C101	C	0.398672	-0.260736	0.000008
C102	C	0.412471	-0.303510	-0.118697
C103	C	0.469199	-0.343968	-0.118680
H104	H	0.530108	-0.297162	0.206623
H105	H	0.431386	-0.226755	0.206595
H106	H	0.356679	-0.230787	-0.000004
H107	H	0.380692	-0.305226	-0.206583
H108	H	0.479414	-0.375632	-0.206554
C109	C	0.567321	-0.075508	0.000148
C110	C	0.553546	-0.032716	-0.118555
C111	C	0.496826	0.007756	-0.118588
C112	C	0.453883	0.005435	0.000083
C113	C	0.467657	-0.037359	0.118796
C114	C	0.524377	-0.077830	0.118828
H115	H	0.585336	-0.030996	-0.206411
H116	H	0.486630	0.039434	-0.206467
H117	H	0.411896	0.035394	0.000059
H118	H	0.435867	-0.039078	0.206651
H119	H	0.534573	-0.109509	0.206708
C120	C	0.754141	-0.007742	0.651244
C121	C	0.796991	-0.050553	0.572126
C122	C	0.839840	-0.093375	0.651270
C123	C	0.839840	-0.093386	0.809533
C124	C	0.796988	-0.050573	0.888660
C125	C	0.754139	-0.007751	0.809515
H126	H	0.796993	-0.050546	0.454962
H127	H	0.871562	-0.125068	0.592694
H128	H	0.871559	-0.125085	0.868121
H129	H	0.796987	-0.050580	1.005824
H130	H	0.722418	0.023942	0.868091
H131	H	0.769178	-0.219481	0.000182
H132	H	0.601666	0.144636	0.369610
H133	H	0.601684	0.144636	0.630650
H134	H	0.817827	-0.499797	0.000159
H135	H	0.819117	-0.392053	0.000184
H136	H	0.743002	0.003378	0.369658
H137	H	0.226220	0.074636	-0.350525
C138	C	0.507948	0.078053	0.261786
C139	C	0.493028	0.127409	0.364577
C140	C	0.525694	0.127795	0.501652
C141	C	0.573282	0.078825	0.535934
C142	C	0.588205	0.029465	0.433140
C143	C	0.555539	0.029079	0.296066
H144	H	0.457798	0.163663	0.339202
H145	H	0.514647	0.164335	0.577746
H146	H	0.597464	0.079111	0.637405
H147	H	0.623435	-0.006788	0.458516
H148	H	0.566586	-0.007461	0.219971
C149	C	0.778863	-0.651733	0.000138
C150	C	0.793635	-0.612855	0.118835
C151	C	0.851147	-0.587987	0.118849
C152	C	0.893887	-0.601998	0.000165
C153	C	0.879115	-0.640878	-0.118541
C154	C	0.821603	-0.665746	-0.118554
H155	H	0.761996	-0.602482	0.206700
H156	H	0.862082	-0.559206	0.206724
H157	H	0.936460	-0.583589	0.000175
H158	H	0.910754	-0.651251	-0.206405
H159	H	0.810669	-0.694527	-0.206429
C160	C	0.383224	0.076548	0.261811
C161	C	0.384648	0.126112	0.364573
C162	C	0.351993	0.125723	0.501657
C163	C	0.317914	0.075771	0.535978
C164	C	0.316489	0.026204	0.433213
C165	C	0.349144	0.026593	0.296129
H166	H	0.409876	0.163092	0.339169
H167	H	0.353048	0.162416	0.577730
H168	H	0.293741	0.075483	0.637455
H169	H	0.291261	-0.010777	0.458617
H170	H	0.348089	-0.010100	0.220056
H171	H	0.118472	0.073340	-0.350524
H172	H	0.118487	0.073349	0.350832
C173	C	0.777366	-0.776471	0.000119
C174	C	0.820302	-0.774167	0.118822
C175	C	0.877023	-0.814636	0.118822
C176	C	0.890809	-0.857408	0.000118
C177	C	0.847873	-0.859714	-0.118594
C178	C	0.791151	-0.819245	-0.118593
H179	H	0.810097	-0.742503	0.206702
H180	H	0.908807	-0.812929	0.206701
H181	H	0.932797	-0.887365	0.000118
H182	H	0.858077	-0.891378	-0.206473
H183	H	0.759367	-0.820952	-0.206472
C184	C	-0.163250	0.069954	0.261857
C185	C	-0.148331	0.020587	0.364663
C186	C	-0.181003	0.020184	0.501719
C187	C	-0.228594	0.069148	0.535971
C188	C	-0.243516	0.118519	0.433163
C189	C	-0.210844	0.118922	0.296106
H190	H	-0.113099	-0.015662	0.339310
H191	H	-0.169957	-0.016363	0.577824
H192	H	-0.252780	0.068850	0.637428
H193	H	-0.278748	0.154768	0.458516
H194	H	-0.221890	0.155469	0.220001
C195	C	0.559284	-0.746706	0.000079
C196	C	0.516544	-0.732698	0.118763
C197	C	0.459031	-0.757564	0.118741
C198	C	0.444258	-0.796438	0.000036
C199	C	0.486999	-0.810447	-0.118657
C200	C	0.544512	-0.785581	-0.118635
H201	H	0.527479	-0.703920	0.206644
H202	H	0.427392	-0.747193	0.206606
H203	H	0.401683	-0.814845	0.000019
H204	H	0.476064	-0.839226	-0.206538
H205	H	0.576151	-0.795953	-0.206500
C206	C	0.560776	-0.621981	0.000082
C207	C	0.517842	-0.624301	-0.118617
C208	C	0.461111	-0.583847	-0.118619
C209	C	0.447315	-0.541073	0.000078
C210	C	0.490250	-0.538752	0.118786
C211	C	0.546980	-0.579206	0.118788
H212	H	0.528054	-0.655965	-0.206492
H213	H	0.429328	-0.585565	-0.206496
H214	H	0.405319	-0.511127	0.000076
H215	H	0.480038	-0.507087	0.206660
H216	H	0.578764	-0.577488	0.206664
H217	H	-0.047002	0.071363	0.226252
H218	H	0.226230	0.074651	0.350822
H219	H	0.580762	-0.193785	0.000173
H220	H	0.499449	0.077958	-0.225950
H221	H	0.770463	-0.111731	0.000229
H222	H	0.525569	-0.459912	0.000031
