data_functionalizedCrystal
_audit_creation_method	'MofGen! by Chris Wilmer'
_symmetry_space_group_name_H-M	'P1'
_symmetry_Int_Tables_number	1
_symmetry_cell_setting	triclinic
loop_
_symmetry_equiv_pos_as_xyz
  x,y,z
_cell_length_a	10.489741
_cell_length_b	15.538191
_cell_length_c	8.965430
_cell_angle_alpha	89.995971
_cell_angle_beta	89.997334
_cell_angle_gamma	114.094366
loop_
_atom_site_label
_atom_site_type_symbol
_atom_site_fract_x
_atom_site_fract_y
_atom_site_fract_z
O1	O	1.631070	-0.132478	-0.123934
O2	O	1.253962	-0.144914	-0.123956
O3	O	1.515924	-0.002064	-0.123948
O4	O	1.369109	-0.275327	-0.123943
O5	O	1.515895	-0.002078	0.124131
O6	O	1.253933	-0.144927	0.124122
O7	O	1.631041	-0.132491	0.124144
Cu8	Cu	1.442485	-0.138711	0.146785
Cu9	Cu	1.442519	-0.138694	-0.146597
O10	O	1.369080	-0.275341	0.124136
C11	C	1.206863	-0.143981	0.000080
C12	C	1.066569	-0.141171	0.000071
C13	C	1.531270	0.032920	0.000087
C14	C	1.577024	0.137183	0.000075
N15	N	1.442470	-0.138722	0.353134
C16	C	1.041643	-0.050280	0.000083
C17	C	0.929117	-0.093209	-0.122229
C18	C	0.929112	-0.093245	0.122358
C19	C	0.955890	-0.184138	-0.122342
C20	C	0.955901	-0.184160	0.122354
C21	C	0.843371	-0.227156	0.000013
C22	C	1.678141	-0.133424	0.000105
C23	C	1.818434	-0.136234	0.000104
C24	C	1.353734	-0.310325	0.000098
C25	C	1.307979	-0.414589	0.000100
C26	C	1.122466	0.428058	0.000080
C27	C	1.165492	0.526032	0.000086
C28	C	1.407499	0.546833	0.000100
C29	C	1.364494	0.448859	0.000087
C30	C	1.221976	0.389478	0.000079
C31	C	1.464003	0.410279	0.000085
C32	C	1.421001	0.312314	0.000079
C33	C	1.278490	0.252927	0.000076
C34	C	1.178974	0.291513	0.000073
C35	C	1.606520	0.469661	0.000103
C36	C	1.706030	0.431082	0.000102
C37	C	1.663028	0.333115	0.000086
C38	C	1.520517	0.273728	0.000082
C39	C	1.762544	0.294529	0.000088
C40	C	1.719542	0.196564	0.000083
C41	C	1.477515	0.175763	0.000077
C42	C	1.321301	-0.204764	0.450436
C43	C	1.427760	-0.223767	0.549858
C44	C	1.336046	-0.119732	0.549840
C45	C	1.548968	-0.157767	0.450366
C46	C	1.457195	-0.053695	0.450341
C47	C	1.563754	-0.072662	0.549717
N48	N	1.442514	-0.138693	0.647054
H49	H	1.126857	0.024438	-0.000071
H50	H	1.006414	0.379706	0.000063
N51	N	0.913160	-0.044988	0.252069
N52	N	0.889758	0.027315	0.238477
H53	H	0.878497	0.061402	0.330078
H54	H	1.062922	0.243161	0.000056
H55	H	1.878582	0.342891	0.000110
N56	N	0.913183	-0.044954	-0.251958
N57	N	0.994302	0.039162	-0.273762
H58	H	0.983061	0.073248	-0.365383
N59	N	0.971655	-0.232357	-0.252185
N60	N	1.082693	-0.242280	-0.273170
H61	H	1.093828	-0.276340	-0.364864
N62	N	1.692422	-0.002595	0.604105
N63	N	1.712948	0.009200	0.741378
H64	H	1.803821	0.058679	0.779796
H65	H	1.469568	0.018176	0.406594
H66	H	1.246027	-0.103684	0.593539
N67	N	1.192825	-0.274873	0.395706
N68	N	1.114664	-0.251315	0.315960
H69	H	1.023933	-0.300829	0.277302
N70	N	1.331942	0.115081	0.000043
N71	N	1.280981	0.058102	-0.104536
H72	H	1.178176	0.015242	-0.104562
N73	N	1.234553	0.152857	0.000102
N74	N	1.269365	0.113764	0.104680
H75	H	1.238334	0.043088	0.104702
H76	H	1.415340	-0.295660	0.593569
N77	N	1.063842	0.565444	0.000125
N78	N	0.978016	0.547533	0.104708
H79	H	0.906230	0.575370	0.104746
H80	H	1.638968	-0.173902	0.406855
H81	H	1.641528	0.549431	0.000094
N82	N	0.736747	-0.320983	-0.000110
N83	N	0.650059	-0.347762	-0.104220
H84	H	0.574753	-0.414027	-0.104322
N85	N	0.971910	-0.232368	0.252095
N86	N	0.964561	-0.201405	0.379009
H87	H	0.975871	-0.235445	0.470652
H88	H	1.523537	0.595193	0.000112
H89	H	1.800573	0.165152	0.000083
N90	N	1.851602	0.491740	0.000077
N91	N	1.927828	0.487772	-0.104503
H92	H	2.030642	0.530611	-0.104527
