data_functionalizedCrystal
_audit_creation_method	'MofGen! by Chris Wilmer'
_symmetry_space_group_name_H-M	'P1'
_symmetry_Int_Tables_number	1
_symmetry_cell_setting	triclinic
loop_
_symmetry_equiv_pos_as_xyz
  x,y,z
_cell_length_a	16.053802
_cell_length_b	9.065218
_cell_length_c	9.065218
_cell_angle_alpha	94.984115
_cell_angle_beta	87.394393
_cell_angle_gamma	87.380570
loop_
_atom_site_label
_atom_site_type_symbol
_atom_site_fract_x
_atom_site_fract_y
_atom_site_fract_z
O1	O	0.069428	-1.966543	0.210228
O2	O	0.069429	-1.537259	0.227974
O3	O	0.069426	-1.760774	0.004459
O4	O	0.069430	-1.743028	0.433743
O5	O	-0.069432	-1.748470	0.016710
O6	O	-0.069430	-1.524955	0.240226
O7	O	-0.069431	-1.954240	0.222479
Zn8	Zn	-0.091477	-1.737644	0.233298
Zn9	Zn	0.091475	-1.753854	0.217156
O10	O	-0.069429	-1.730724	0.445995
C11	C	-0.000001	-1.476120	0.232394
C12	C	-0.000000	-1.312277	0.227294
N13	N	-0.216338	-1.726591	0.244313
C14	C	-0.000002	-1.752917	-0.044402
C15	C	0.000002	-1.747818	-0.208246
C16	C	-0.260032	-1.821733	0.149242
C17	C	-0.347439	-1.814016	0.156962
C18	C	-0.391149	-1.711163	0.259761
C19	C	-0.347448	-1.616011	0.354836
C20	C	-0.260043	-1.623722	0.347108
C21	C	-0.652559	-1.677478	0.293476
C22	C	-0.739970	-1.669777	0.301200
C23	C	-0.739955	-1.867781	0.103322
C24	C	-0.652548	-1.875489	0.095609
C25	C	-0.608855	-1.780332	0.190679
N26	N	-0.480493	-1.703275	0.267657
N27	N	-0.519512	-1.788214	0.182775
N28	N	0.216335	-1.764918	0.206128
C29	C	0.000000	-2.015378	0.218059
C30	C	0.000005	-2.179222	0.223158
C31	C	0.000001	-1.738582	0.494855
C32	C	0.000002	-1.743682	0.658698
H33	H	-0.383015	-1.891487	0.079546
H34	H	-0.775538	-1.945252	0.025919
H35	H	-0.224449	-1.905493	0.065538
O36	O	-0.609962	-1.974754	-0.004721
C37	C	-0.523447	-1.960807	0.008498
H38	H	-0.511386	-1.909122	0.124258
H39	H	-0.490029	-2.075044	-0.010386
H40	H	-0.498969	-1.886982	-0.077687
H41	H	-0.775555	-1.586017	0.384918
O42	O	-0.610252	-1.584988	0.385984
C43	C	-0.667578	-1.492538	0.478349
H44	H	-0.729873	-1.547568	0.486364
H45	H	-0.642320	-1.473821	0.593645
H46	H	-0.676895	-1.381471	0.429731
O47	O	-0.390035	-1.516228	0.454654
C48	C	-0.476552	-1.529799	0.441070
H49	H	-0.488478	-1.645321	0.388612
H50	H	-0.509762	-1.511941	0.555525
H51	H	-0.501374	-1.443111	0.368092
O52	O	-0.217725	-1.531240	0.439618
C53	C	-0.275045	-1.438781	0.531986
H54	H	-0.337342	-1.493802	0.540008
H55	H	-0.249783	-1.420065	0.647278
H56	H	-0.284359	-1.327715	0.483366
