data_functionalizedCrystal
_audit_creation_method	'MofGen! by Chris Wilmer'
_symmetry_space_group_name_H-M	'P1'
_symmetry_Int_Tables_number	1
_symmetry_cell_setting	triclinic
loop_
_symmetry_equiv_pos_as_xyz
  x,y,z
_cell_length_a	18.050591
_cell_length_b	21.295417
_cell_length_c	21.295420
_cell_angle_alpha	90.017552
_cell_angle_beta	90.021462
_cell_angle_gamma	90.026512
loop_
_atom_site_label
_atom_site_type_symbol
_atom_site_fract_x
_atom_site_fract_y
_atom_site_fract_z
Zn1	Zn	1.135285	-0.250773	0.356012
Zn2	Zn	1.635285	0.249227	0.856012
Zn3	Zn	1.135189	-0.356018	0.250737
Zn4	Zn	1.635189	0.143982	0.750737
Zn5	Zn	1.011103	-0.250759	0.250746
Zn6	Zn	1.511103	0.249241	0.750746
Zn7	Zn	1.011047	-0.356001	0.355958
Zn8	Zn	1.511047	0.143999	0.855958
O9	O	1.073156	-0.303388	0.303363
O10	O	1.573156	0.196612	0.803363
O11	O	1.239197	-0.264747	0.342066
O12	O	1.739197	0.235253	0.842066
O13	O	1.118712	-0.342056	0.162649
O14	O	1.618712	0.157944	0.662649
O15	O	1.027639	-0.162672	0.264736
O16	O	1.527639	0.337328	0.764736
O17	O	1.239126	-0.342070	0.264721
O18	O	1.739126	0.157930	0.764721
O19	O	1.118875	-0.162682	0.342074
O20	O	1.618875	0.337318	0.842074
O21	O	1.027546	-0.264723	0.162655
O22	O	1.527546	0.235277	0.662655
O23	O	0.907171	-0.264707	0.264684
O24	O	1.407171	0.235293	0.764684
O25	O	1.027544	-0.342042	0.444054
O26	O	1.527544	0.157958	0.944054
O27	O	0.907130	-0.342028	0.341982
O28	O	1.407130	0.157972	0.841982
O29	O	1.118821	-0.264731	0.444094
O30	O	1.618821	0.235269	0.944094
O31	O	1.118658	-0.444105	0.264669
O32	O	1.618658	0.055895	0.764669
O33	O	1.027451	-0.444093	0.341974
O34	O	1.527451	0.055907	0.841974
C35	C	0.880204	-0.303364	0.303328
C36	C	1.380204	0.196636	0.803328
C37	C	0.797658	-0.303370	0.303328
C38	C	1.297658	0.196630	0.803328
C39	C	0.598208	-0.261274	0.261390
C40	C	1.098208	0.238726	0.761390
C41	C	0.548785	-0.318686	0.245895
C42	C	1.048785	0.181314	0.745895
C43	C	0.646528	-0.303389	0.303357
C44	C	1.146528	0.196611	0.803357
C45	C	0.548868	-0.245996	0.318851
C46	C	1.048868	0.254004	0.818851
C47	C	0.500542	-0.303402	0.303383
C48	C	1.000542	0.196598	0.803383
C49	C	0.598192	-0.360831	0.287831
C50	C	1.098192	0.139169	0.787831
C51	C	0.598280	-0.288103	0.360814
C52	C	1.098280	0.211897	0.860814
C53	C	0.548879	-0.345555	0.345341
C54	C	1.048879	0.154445	0.845341
C55	C	0.730626	-0.303380	0.303340
C56	C	1.230626	0.196620	0.803340
C57	C	0.416446	-0.303417	0.303400
C58	C	0.916446	0.196583	0.803400
C59	C	1.073058	-0.466940	0.303328
C60	C	1.573058	0.033060	0.803328
C61	C	1.073085	-0.536908	0.303335
C62	C	1.573085	-0.036908	0.803335
C63	C	1.120618	-0.569760	0.263123
C64	C	1.620618	-0.069760	0.763123
C65	C	1.120653	-0.635502	0.263137
C66	C	1.620653	-0.135502	0.763137
C67	C	1.073141	-0.668390	0.303356
C68	C	1.573141	-0.168390	0.803356
C69	C	1.025604	-0.635530	0.343576
C70	C	1.525604	-0.135530	0.843576
C71	C	1.025576	-0.569789	0.343565
C72	C	1.525576	-0.069789	0.843565
N73	N	1.008174	-0.771653	0.308143
N74	N	1.508174	-0.271653	0.808143
N75	N	1.008203	-0.834105	0.308150
N76	N	1.508203	-0.334105	0.808150
C77	C	1.073224	-0.866465	0.303392
C78	C	1.573224	-0.366465	0.803392
N79	N	1.138217	-0.834014	0.298615
N80	N	1.638217	-0.334014	0.798615
N81	N	1.138187	-0.771557	0.298605
N82	N	1.638187	-0.271557	0.798605
C83	C	1.073167	-0.739675	0.303373
C84	C	1.573167	-0.239675	0.803373
C85	C	1.120800	-0.970602	0.263194
C86	C	1.620800	-0.470602	0.763194
C87	C	1.120836	-1.036346	0.263213
C88	C	1.620836	-0.536346	0.763213
C89	C	1.025780	-1.036373	0.343648
C90	C	1.525780	-0.536373	0.843648
C91	C	1.025751	-0.970630	0.343632
C92	C	1.525751	-0.470630	0.843632
C93	C	1.073259	-0.937749	0.303402
C94	C	1.573259	-0.437749	0.803402
C95	C	1.266861	-0.303412	0.303399
C96	C	1.766861	0.196588	0.803399
C97	C	1.349407	-0.303422	0.303414
C98	C	1.849407	0.196578	0.803414
C99	C	1.073187	-0.303386	0.467553
C100	C	1.573187	0.196614	0.967553
C101	C	1.073200	-0.303386	0.537522
C102	C	1.573200	0.196614	1.037522
C103	C	1.073274	-0.139198	0.303412
C104	C	1.573274	0.360802	0.803412
C105	C	1.073324	-0.069229	0.303433
C106	C	1.573324	0.430771	0.803433
C107	C	1.025737	-0.263121	0.570382
C108	C	1.525737	0.236879	1.070382
C109	C	1.025724	-0.263125	0.636124
C110	C	1.525724	0.236875	1.136124
C111	C	1.073186	-0.303386	0.669004
C112	C	1.573186	0.196614	1.169004
C113	C	1.120652	-0.343658	0.636136
C114	C	1.620652	0.156342	1.136136
C115	C	1.120659	-0.343658	0.570395
C116	C	1.620659	0.156342	1.070395
N117	N	1.138179	-0.308221	0.772248
N118	N	1.638179	0.191779	1.272248
N119	N	1.138171	-0.308217	0.834699
N120	N	1.638171	0.191783	1.334699
C121	C	1.073167	-0.303389	0.867079
C122	C	1.573167	0.196611	1.367079
N123	N	1.008171	-0.298553	0.834647
N124	N	1.508171	0.201447	1.334647
N125	N	1.008181	-0.298553	0.772190
N126	N	1.508181	0.201447	1.272190
C127	C	1.073184	-0.303391	0.740289
C128	C	1.573184	0.196609	1.240289
C129	C	1.025685	-0.263126	0.971224
C130	C	1.525685	0.236874	1.471224
C131	C	1.025671	-0.263134	1.036968
C132	C	1.525671	0.236866	1.536968
C133	C	1.120606	-0.343664	1.036979
C134	C	1.620606	0.156336	1.536979
C135	C	1.120614	-0.343660	0.971236
C136	C	1.620614	0.156340	1.471236
C137	C	1.073155	-0.303387	0.938363
C138	C	1.573155	0.196613	1.438363
C139	C	1.073126	-0.303402	1.139812
C140	C	1.573126	0.196598	1.639812
C141	C	1.073133	-0.303396	1.069844
C142	C	1.573133	0.196604	1.569844
H143	H	1.159305	-0.542990	0.230367
H144	H	1.659305	-0.042990	0.730367
F145	F	0.974982	-0.534824	0.386365
F146	F	1.474982	-0.034824	0.886365
F147	F	1.171162	-0.386509	0.671130
F148	F	1.671162	0.113491	1.171130
H149	H	1.159312	-0.376445	0.543641
H150	H	1.659312	0.123555	1.043641
H151	H	0.987041	-0.943880	0.376374
H152	H	1.487041	-0.443880	0.876374
H153	H	0.987098	-1.063150	0.376398
H154	H	1.487098	-0.563150	0.876398
F155	F	0.520369	-0.335599	0.182399
F156	F	1.020369	0.164401	0.682399
F157	F	0.626391	-0.424297	0.270643
F158	F	1.126391	0.075703	0.770643
F159	F	0.520745	-0.392166	0.391744
F160	F	1.020745	0.107834	0.891744
H161	H	1.159487	-0.943829	0.230438
H162	H	1.659487	-0.443829	0.730438
H163	H	0.987015	-0.230348	1.063722
H164	H	1.487015	0.269652	1.563722
H165	H	1.159548	-1.063093	0.230469
H166	H	1.659548	-0.563093	0.730469
H167	H	0.987089	-0.230331	0.543620
H168	H	1.487089	0.269669	1.043620
F169	F	1.171116	-0.386517	1.071968
F170	F	1.671116	0.113483	1.571968
H171	H	0.987075	-0.230333	0.662884
H172	H	1.487075	0.269667	1.162884
F173	F	0.975173	-0.220269	0.936236
F174	F	1.475173	0.279731	1.436236
H175	H	0.527163	-0.197461	0.331923
H176	H	1.027163	0.302539	0.831923
H177	H	1.159265	-0.376446	0.944481
H178	H	1.659265	0.123554	1.444481
H179	H	0.620036	-0.275146	0.409379
H180	H	1.120036	0.224854	0.909379
H181	H	1.159363	-0.662255	0.230392
H182	H	1.659363	-0.162255	0.730392
F183	F	0.975041	-0.670533	0.386382
F184	F	1.475041	-0.170533	0.886382
H185	H	0.619867	-0.225697	0.225862
H186	H	1.119867	0.274303	0.725862
