data_functionalizedCrystal
_audit_creation_method	'MofGen! by Chris Wilmer'
_symmetry_space_group_name_H-M	'P1'
_symmetry_Int_Tables_number	1
_symmetry_cell_setting	triclinic
loop_
_symmetry_equiv_pos_as_xyz
  x,y,z
_cell_length_a	19.188931
_cell_length_b	14.971486
_cell_length_c	13.448316
_cell_angle_alpha	90.006811
_cell_angle_beta	89.994767
_cell_angle_gamma	96.620545
loop_
_atom_site_label
_atom_site_type_symbol
_atom_site_fract_x
_atom_site_fract_y
_atom_site_fract_z
O1	O	0.926506	-0.111671	-0.082657
O2	O	1.426506	0.388329	0.417343
O3	O	0.723243	-0.126703	-0.082666
O4	O	1.223243	0.373297	0.417334
O5	O	0.830323	0.011042	-0.082654
O6	O	1.330323	0.511042	0.417346
O7	O	0.819427	-0.249416	-0.082669
O8	O	1.319427	0.250584	0.417331
O9	O	0.830309	0.011050	0.082730
O10	O	1.330309	0.511050	0.582730
O11	O	0.723230	-0.126695	0.082717
O12	O	1.223230	0.373305	0.582717
O13	O	0.926493	-0.111662	0.082727
O14	O	1.426493	0.388338	0.582727
Cu15	Cu	0.824860	-0.119178	0.097823
Cu16	Cu	1.324860	0.380822	0.597823
Cu17	Cu	0.824876	-0.119188	-0.097762
Cu18	Cu	1.324876	0.380812	0.402238
O19	O	0.819413	-0.249407	0.082715
O20	O	1.319413	0.250593	0.582715
C21	C	0.697224	-0.126212	0.000024
C22	C	1.197224	0.373788	0.500024
C23	C	0.619715	-0.124751	0.000021
C24	C	1.119715	0.375249	0.500021
C25	C	0.952512	-0.112153	0.000034
C26	C	1.452512	0.387847	0.500034
C27	C	1.030021	-0.113615	0.000031
C28	C	1.530021	0.386385	0.500031
C29	C	0.829829	0.044368	0.000037
C30	C	1.329829	0.544368	0.500037
C31	C	0.828369	0.143658	0.000036
C32	C	1.328369	0.643658	0.500036
C33	C	1.074685	-0.032790	0.000027
C34	C	1.574685	0.467210	0.500027
C35	C	1.147513	-0.034163	0.000033
C36	C	1.647513	0.465837	0.500033
C37	C	1.175675	-0.116365	0.000023
C38	C	1.675675	0.383635	0.500023
C39	C	1.131001	-0.197200	0.000033
C40	C	1.631001	0.302800	0.500033
C41	C	1.058174	-0.195825	0.000037
C42	C	1.558174	0.304175	0.500037
N43	N	1.283876	-0.179201	-0.056280
N44	N	1.783876	0.320799	0.443720
N45	N	1.353059	-0.180502	-0.056286
N46	N	1.853059	0.319498	0.443714
C47	C	1.395097	-0.120513	0.000013
C48	C	1.895097	0.379487	0.500013
N49	N	1.365339	-0.059161	0.056306
N50	N	1.865339	0.440839	0.556306
N51	N	1.296150	-0.057857	0.056308
N52	N	1.796150	0.442143	0.556308
C53	C	1.254642	-0.117865	0.000020
C54	C	1.754642	0.382135	0.500020
C55	C	1.518730	-0.041172	0.000017
C56	C	2.018730	0.458828	0.500017
C57	C	1.591559	-0.042548	0.000029
C58	C	2.091559	0.457452	0.500029
C59	C	1.575045	-0.205587	0.000019
C60	C	2.075045	0.294413	0.500019
C61	C	1.502217	-0.204209	0.000017
C62	C	2.002217	0.295791	0.500017
C63	C	1.474064	-0.121999	0.000011
C64	C	1.974064	0.378001	0.500011
C65	C	0.819907	-0.282734	0.000021
C66	C	1.319907	0.217266	0.500021
C67	C	0.821368	-0.382023	0.000016
C68	C	1.321368	0.117977	0.500016
N69	N	0.824854	-0.119170	0.235387
N70	N	1.324854	0.380830	0.735387
C71	C	0.891275	0.201215	0.000040
C72	C	1.391275	0.701215	0.500040
C73	C	0.889899	0.294507	0.000030
C74	C	1.389899	0.794507	0.500030
C75	C	0.825615	0.330240	0.000023
C76	C	1.325615	0.830240	0.500023
C77	C	0.762704	0.272675	0.000017
C78	C	1.262704	0.772675	0.500017
C79	C	0.764081	0.179385	0.000020
C80	C	1.264081	0.679385	0.500020
C81	C	0.759839	0.467123	0.000013
C82	C	1.259839	0.967123	0.500013
C83	C	0.758461	0.560419	0.000012
C84	C	1.258461	1.060419	0.500012
C85	C	0.885656	0.582245	0.000023
C86	C	1.385656	1.082245	0.500023
C87	C	0.887033	0.488955	0.000026
C88	C	1.387033	0.988955	0.500026
C89	C	0.824122	0.431396	0.000022
C90	C	1.324122	0.931396	0.500022
N91	N	0.824888	-0.119188	-0.235327
N92	N	1.324888	0.380812	0.264673
C93	C	0.872284	-0.058202	0.287433
C94	C	1.372284	0.441798	0.787433
C95	C	0.872288	-0.058201	0.391537
C96	C	1.372288	0.441799	0.891537
C97	C	0.824866	-0.119174	0.443592
C98	C	1.324866	0.380826	0.943592
C99	C	0.777431	-0.180145	0.391539
C100	C	1.277431	0.319855	0.891539
C101	C	0.777424	-0.180141	0.287438
C102	C	1.277424	0.319859	0.787438
C103	C	0.777450	-0.180151	0.608519
C104	C	1.277450	0.319849	1.108519
C105	C	0.777458	-0.180157	0.712628
C106	C	1.277458	0.319843	1.212628
C107	C	0.872314	-0.058211	0.712618
C108	C	1.372314	0.441789	1.212618
C109	C	0.872307	-0.058207	0.608517
C110	C	1.372307	0.441793	1.108517
C111	C	0.824873	-0.119180	0.556471
C112	C	1.324873	0.380820	1.056471
H113	H	1.051768	0.034152	0.000026
H114	H	1.551768	0.534152	0.500026
H115	H	0.936881	0.629114	0.000024
H116	H	1.436881	1.129114	0.500024
Cl117	Cl	0.931907	0.018451	0.222003
Cl118	Cl	1.431907	0.518451	0.722003
Cl119	Cl	0.717810	-0.256794	0.456978
Cl120	Cl	1.217810	0.243206	0.956978
Cl121	Cl	1.203673	0.067452	0.000025
Cl122	Cl	1.703673	0.567452	0.500025
H123	H	1.495806	0.025768	0.000017
H124	H	1.995806	0.525768	0.500017
Cl125	Cl	0.681890	0.317597	-0.000004
Cl126	Cl	1.181890	0.817597	0.499996
Cl127	Cl	0.967847	0.444035	0.000030
Cl128	Cl	1.467847	0.944035	0.500030
Cl129	Cl	0.717793	-0.256788	0.222009
Cl130	Cl	1.217793	0.243212	0.722009
H131	H	1.153934	-0.264129	0.000027
H132	H	1.653934	0.235871	0.500027
H133	H	1.465851	-0.270025	0.000014
H134	H	1.965851	0.229975	0.500014
Cl135	Cl	1.647709	0.059069	0.000035
Cl136	Cl	2.147709	0.559069	0.500035
Cl137	Cl	0.968985	0.366862	0.000038
Cl138	Cl	1.468985	0.866862	0.500038
Cl139	Cl	1.002022	-0.297441	0.000039
Cl140	Cl	1.502022	0.202559	0.500039
Cl141	Cl	0.677647	0.605339	0.000004
Cl142	Cl	1.177647	1.105339	0.500004
H143	H	0.943622	0.172130	0.000052
H144	H	1.443622	0.672130	0.500052
Cl145	Cl	1.610440	-0.308928	0.000022
Cl146	Cl	2.110440	0.191072	0.500022
Cl147	Cl	0.680749	0.394764	0.000006
Cl148	Cl	1.180749	0.894764	0.500006
H149	H	0.712856	0.132522	0.000016
H150	H	1.212856	0.632522	0.500016
H151	H	0.910908	-0.008555	0.433912
H152	H	1.410908	0.491445	0.933912
Cl153	Cl	0.931928	0.018439	0.543073
Cl154	Cl	1.431928	0.518439	1.043073
Cl155	Cl	0.717816	-0.256803	0.543094
Cl156	Cl	1.217816	0.243197	1.043094
H157	H	0.910936	-0.008565	0.755000
H158	H	1.410936	0.491435	1.255000
H159	H	0.738841	-0.229806	0.755006
H160	H	1.238841	0.270194	1.255006
