data_functionalizedCrystal
_audit_creation_method	'MofGen! by Chris Wilmer'
_symmetry_space_group_name_H-M	'P1'
_symmetry_Int_Tables_number	1
_symmetry_cell_setting	triclinic
loop_
_symmetry_equiv_pos_as_xyz
  x,y,z
_cell_length_a	13.897449
_cell_length_b	13.897447
_cell_length_c	19.805399
_cell_angle_alpha	89.976253
_cell_angle_beta	89.979867
_cell_angle_gamma	90.020357
loop_
_atom_site_label
_atom_site_type_symbol
_atom_site_fract_x
_atom_site_fract_y
_atom_site_fract_z
Zn1	Zn	1.474659	-0.384016	-0.382748
Zn2	Zn	1.974659	0.115984	0.117252
Zn3	Zn	1.474557	-0.545322	-0.269567
Zn4	Zn	1.974557	-0.045322	0.230433
Zn5	Zn	1.313358	-0.384045	-0.269571
Zn6	Zn	1.813358	0.115955	0.230429
Zn7	Zn	1.313325	-0.545273	-0.382713
Zn8	Zn	1.813325	-0.045273	0.117287
O9	O	1.393975	-0.464664	-0.326150
O10	O	1.893975	0.035336	0.173850
O11	O	1.609627	-0.405422	-0.367747
O12	O	2.109627	0.094578	0.132253
O13	O	1.453145	-0.523961	-0.174851
O14	O	1.953145	-0.023961	0.325149
O15	O	1.334811	-0.249059	-0.284601
O16	O	1.834811	0.250941	0.215399
O17	O	1.609552	-0.523933	-0.284594
O18	O	2.109552	-0.023933	0.215406
O19	O	1.453319	-0.249038	-0.367751
O20	O	1.953319	0.250962	0.132249
O21	O	1.334712	-0.405471	-0.174854
O22	O	1.834712	0.094529	0.325146
O23	O	1.178372	-0.405424	-0.284567
O24	O	1.678372	0.094576	0.215433
O25	O	1.334755	-0.523849	-0.477434
O26	O	1.834755	-0.023849	0.022566
O27	O	1.178348	-0.523877	-0.367691
O28	O	1.678348	-0.023877	0.132309
O29	O	1.453287	-0.405374	-0.477460
O30	O	1.953287	0.094626	0.022540
O31	O	1.453113	-0.680297	-0.284560
O32	O	1.953113	-0.180297	0.215440
O33	O	1.334656	-0.680261	-0.367687
O34	O	1.834656	-0.180261	0.132313
C35	C	1.143360	-0.464649	-0.326126
C36	C	1.643360	0.035351	0.173874
C37	C	1.036147	-0.464666	-0.326132
C38	C	1.536147	0.035334	0.173868
C39	C	0.949077	-0.464669	-0.326143
C40	C	1.449077	0.035331	0.173857
C41	C	0.839844	-0.464676	-0.326164
C42	C	1.339844	0.035324	0.173836
C43	C	1.393896	-0.715278	-0.326134
C44	C	1.893896	-0.215278	0.173866
C45	C	1.393951	-0.822492	-0.326150
C46	C	1.893951	-0.322492	0.173850
C47	C	1.393998	-0.909562	-0.326165
C48	C	1.893998	-0.409562	0.173835
C49	C	1.394065	-1.018794	-0.326183
C50	C	1.894065	-0.518794	0.173817
C51	C	1.645568	-0.464680	-0.326174
C52	C	2.145568	0.035320	0.173826
C53	C	1.752782	-0.464686	-0.326184
C54	C	2.252782	0.035314	0.173816
C55	C	1.394029	-0.464603	-0.502693
C56	C	1.894029	0.035397	-0.002693
C57	C	1.394052	-0.464577	-0.577925
C58	C	1.894052	0.035423	-0.077925
C59	C	1.394080	-0.213071	-0.326180
C60	C	1.894080	0.286929	0.173820
C61	C	1.394125	-0.105857	-0.326193
C62	C	1.894125	0.394143	0.173807
C63	C	1.455773	-0.402884	-0.613283
C64	C	1.955773	0.097116	-0.113283
C65	C	1.455783	-0.402856	-0.683972
C66	C	1.955783	0.097144	-0.183972
C67	C	1.394076	-0.464527	-0.719300
C68	C	1.894076	0.035473	-0.219300
C69	C	1.332348	-0.526223	-0.683937
C70	C	1.832348	-0.026223	-0.183937
C71	C	1.332334	-0.526245	-0.613249
C72	C	1.832334	-0.026245	-0.113249
C73	C	1.332403	-0.526133	-0.969010
C74	C	1.832403	-0.026133	-0.469010
C75	C	1.332424	-0.526108	-1.039702
C76	C	1.832424	-0.026108	-0.539702
C77	C	1.455851	-0.402744	-1.039732
C78	C	1.955851	0.097256	-0.539732
C79	C	1.455837	-0.402766	-0.969045
C80	C	1.955837	0.097234	-0.469045
C81	C	1.394106	-0.464458	-0.933688
C82	C	1.894106	0.035542	-0.433688
C83	C	1.394095	-0.464486	-0.857039
C84	C	1.894095	0.035514	-0.357039
C85	C	1.394091	-0.464504	-0.795947
C86	C	1.894091	0.035496	-0.295947
C87	C	1.393976	-0.464655	-0.150294
C88	C	1.893976	0.035345	0.349706
C89	C	1.394140	-0.464409	-0.075062
C90	C	1.894140	0.035591	0.424938
H91	H	1.506025	-0.352668	-0.584524
H92	H	2.006025	0.147332	-0.084524
H93	H	1.282065	-0.576472	-0.584461
H94	H	1.782065	-0.076472	-0.084461
O95	O	1.515833	-0.342901	-0.718214
O96	O	2.015833	0.157099	-0.218214
C97	C	1.570282	-0.288463	-0.671875
C98	C	2.070282	0.211537	-0.171875
H99	H	1.573592	-0.327991	-0.621483
H100	H	2.073592	0.172009	-0.121483
H101	H	1.646290	-0.278178	-0.692311
H102	H	2.146290	0.221822	-0.192311
H103	H	1.534995	-0.215202	-0.664360
H104	H	2.034995	0.284798	-0.164360
H105	H	1.506088	-0.352551	-0.940284
H106	H	2.006088	0.147449	-0.440284
H107	H	1.282152	-0.576380	-0.940231
H108	H	1.782152	-0.076380	-0.440231
H109	H	1.506112	-0.352508	-1.068529
H110	H	2.006112	0.147492	-0.568529
O111	O	1.272382	-0.586044	-1.073917
O112	O	1.772382	-0.086044	-0.573917
C113	C	1.217908	-0.640516	-1.027553
C114	C	1.717908	-0.140516	-0.527553
H115	H	1.214573	-0.601025	-0.977168
H116	H	1.714573	-0.101025	-0.477168
H117	H	1.141911	-0.650785	-1.047969
H118	H	1.641911	-0.150785	-0.547969
H119	H	1.253191	-0.713783	-1.020030
H120	H	1.753191	-0.213783	-0.520030
H121	H	1.282102	-0.576432	-0.712707
H122	H	1.782102	-0.076432	-0.212707
