data_functionalizedCrystal
_audit_creation_method	'MofGen! by Chris Wilmer'
_symmetry_space_group_name_H-M	'P1'
_symmetry_Int_Tables_number	1
_symmetry_cell_setting	triclinic
loop_
_symmetry_equiv_pos_as_xyz
  x,y,z
_cell_length_a	14.519731
_cell_length_b	17.666332
_cell_length_c	14.519731
_cell_angle_alpha	90.000240
_cell_angle_beta	96.311147
_cell_angle_gamma	90.009346
loop_
_atom_site_label
_atom_site_type_symbol
_atom_site_fract_x
_atom_site_fract_y
_atom_site_fract_z
O1	O	1.223871	0.062941	-0.120983
O2	O	1.557204	0.396274	0.212350
O3	O	1.890538	0.729607	0.545683
O4	O	0.955398	0.062941	-0.135199
O5	O	1.288731	0.396274	0.198134
O6	O	1.622065	0.729607	0.531467
O7	O	1.096742	0.062946	0.006145
O8	O	1.430076	0.396279	0.339478
O9	O	1.763409	0.729613	0.672812
O10	O	1.082526	0.062935	-0.262328
O11	O	1.415860	0.396268	0.071005
O12	O	1.749193	0.729602	0.404339
O13	O	1.096717	-0.062951	0.006149
O14	O	1.430051	0.270383	0.339483
O15	O	1.763384	0.603716	0.672816
O16	O	0.955373	-0.062956	-0.135195
O17	O	1.288706	0.270377	0.198138
O18	O	1.622040	0.603711	0.531471
O19	O	1.223846	-0.062956	-0.120979
O20	O	1.557179	0.270377	0.212354
O21	O	1.890513	0.603710	0.545687
Cu22	Cu	1.089607	-0.074452	-0.128087
Cu23	Cu	1.422941	0.258882	0.205246
Cu24	Cu	1.756274	0.592215	0.538580
Cu25	Cu	1.089637	0.074436	-0.128092
Cu26	Cu	1.422970	0.407769	0.205242
Cu27	Cu	1.756303	0.741103	0.538575
O28	O	1.082502	-0.062962	-0.262324
O29	O	1.415835	0.270372	0.071010
O30	O	1.749168	0.603705	0.404343
C31	C	0.921026	-0.000008	-0.134531
C32	C	1.254359	0.333326	0.198802
C33	C	1.587693	0.666659	0.532136
C34	C	0.818645	-0.000007	-0.132535
C35	C	1.151979	0.333326	0.200798
C36	C	1.485312	0.666660	0.534132
C37	C	0.735501	-0.000004	-0.130913
C38	C	1.068835	0.333329	0.202420
C39	C	1.402168	0.666663	0.535753
C40	C	0.631192	-0.000004	-0.128887
C41	C	0.964526	0.333330	0.204447
C42	C	1.297859	0.666663	0.537780
C43	C	0.548053	-0.000004	-0.127278
C44	C	0.881386	0.333330	0.206055
C45	C	1.214720	0.666663	0.539388
C46	C	0.443738	-0.000002	-0.125252
C47	C	0.777071	0.333331	0.208081
C48	C	1.110404	0.666665	0.541415
N49	N	1.089593	-0.179171	-0.128083
N50	N	1.422926	0.154162	0.205251
N51	N	1.756260	0.487496	0.538584
C52	C	1.145612	-0.218777	-0.184150
C53	C	1.478946	0.114557	0.149183
C54	C	1.812279	0.447890	0.482517
C55	C	1.145627	-0.298024	-0.184147
C56	C	1.478960	0.035309	0.149186
C57	C	1.812294	0.368642	0.482519
C58	C	1.089606	-0.337663	-0.128088
C59	C	1.422939	-0.004330	0.205245
C60	C	1.756272	0.329003	0.538578
C61	C	1.033583	-0.298048	-0.072010
C62	C	1.366916	0.035286	0.261324
C63	C	1.700250	0.368619	0.594657
C64	C	1.033577	-0.218802	-0.072007
C65	C	1.366910	0.114532	0.261326
C66	C	1.700243	0.447865	0.594660
N67	N	1.008826	-0.462102	-0.125430
N68	N	1.342159	-0.128769	0.207903
N69	N	1.675492	0.204564	0.541237
N70	N	1.008834	-0.537383	-0.125438
N71	N	1.342167	-0.204049	0.207895
N72	N	1.675501	0.129284	0.541229
C73	C	1.089622	-0.576427	-0.128091
C74	C	1.422956	-0.243094	0.205242
C75	C	1.756289	0.090239	0.538575
N76	N	1.170403	-0.537347	-0.130755
N77	N	1.503736	-0.204014	0.202579
N78	N	1.837070	0.129319	0.535912
N79	N	1.170393	-0.462060	-0.130752
N80	N	1.503727	-0.128727	0.202581
N81	N	1.837060	0.204607	0.535915
C82	C	1.089606	-0.423592	-0.128084
C83	C	1.422940	-0.090259	0.205249
C84	C	1.756273	0.243074	0.538582
C85	C	1.145662	-0.701962	-0.184159
C86	C	1.478996	-0.368629	0.149175
C87	C	1.812329	-0.035296	0.482508
C88	C	1.145679	-0.781211	-0.184149
C89	C	1.479012	-0.447878	0.149184
C90	C	1.812346	-0.114545	0.482517
C91	C	1.033626	-0.781233	-0.072017
C92	C	1.366960	-0.447900	0.261316
C93	C	1.700293	-0.114567	0.594649
C94	C	1.033618	-0.701986	-0.072021
C95	C	1.366951	-0.368652	0.261312
C96	C	1.700285	-0.035319	0.594646
C97	C	1.089635	-0.662355	-0.128097
C98	C	1.422968	-0.329022	0.205237
C99	C	1.756301	0.004312	0.538570
C100	C	1.258218	-0.000006	-0.121648
C101	C	1.591551	0.333327	0.211686
C102	C	1.924885	0.666660	0.545019
C103	C	1.360598	-0.000002	-0.123643
C104	C	1.693932	0.333331	0.209690
C105	C	2.027265	0.666665	0.543023
N106	N	1.089658	0.179155	-0.128089
N107	N	1.422991	0.512489	0.205245
N108	N	1.756325	0.845822	0.538578
C109	C	1.083180	-0.000015	-0.296685
C110	C	1.416513	0.333319	0.036648
C111	C	1.749847	0.666652	0.369981
C112	C	1.085176	-0.000019	-0.399066
C113	C	1.418509	0.333315	-0.065732
C114	C	1.751843	0.666648	0.267601
C115	C	1.086798	-0.000016	-0.482210
C116	C	1.420131	0.333318	-0.148877
C117	C	1.753465	0.666651	0.184457
C118	C	1.088825	-0.000008	-0.586519
C119	C	1.422158	0.333325	-0.253186
C120	C	1.755491	0.666658	0.080148
C121	C	1.090433	-0.000002	-0.669658
C122	C	1.423766	0.333331	-0.336325
C123	C	1.757100	0.666664	-0.002991
C124	C	1.092459	0.000004	-0.773974
C125	C	1.425793	0.333337	-0.440640
C126	C	1.759126	0.666670	-0.107307
C127	C	1.096064	0.000001	0.040507
C128	C	1.429397	0.333334	0.373840
C129	C	1.762730	0.666667	0.707173
C130	C	1.094068	0.000010	0.142887
C131	C	1.427401	0.333343	0.476220
C132	C	1.760734	0.666676	0.809554
H133	H	1.191245	-0.330278	-0.229806
H134	H	1.524578	0.003056	0.103527
H135	H	1.857912	0.336389	0.436860
O136	O	0.973203	-0.659266	-0.011537
O137	O	1.306536	-0.325933	0.321796
O138	O	1.639870	0.007401	0.655130
H139	H	0.982621	-0.597502	-0.020942
H140	H	1.315954	-0.264169	0.312392
H141	H	1.649288	0.069164	0.645725
O142	O	0.973163	-0.176064	-0.011536
O143	O	1.306496	0.157269	0.321798
O144	O	1.639829	0.490603	0.655131
H145	H	0.899486	-0.191273	-0.031427
H146	H	1.232819	0.142061	0.301906
H147	H	1.566153	0.475394	0.635240
H148	H	1.191275	-0.669693	-0.229818
H149	H	1.524608	-0.336360	0.103515
H150	H	1.857942	-0.003027	0.436849
O151	O	1.206106	-0.823936	-0.244620
O152	O	1.539440	-0.490603	0.088714
O153	O	1.872773	-0.157270	0.422047
H154	H	1.186151	-0.808739	-0.318285
H155	H	1.519484	-0.475405	0.015048
H156	H	1.852817	-0.142072	0.348382
O157	O	0.973176	-0.340800	-0.011531
O158	O	1.306510	-0.007467	0.321803
O159	O	1.639843	0.325866	0.655136
H160	H	0.934231	-0.299942	0.027470
H161	H	1.267564	0.033391	0.360803
H162	H	1.600897	0.366724	0.694136
H163	H	0.988014	-0.813506	-0.026372
H164	H	1.321347	-0.480173	0.306962
H165	H	1.654680	-0.146840	0.640295
O166	O	1.206035	-0.176037	-0.244626
O167	O	1.539369	0.157297	0.088707
O168	O	1.872702	0.490630	0.422041
H169	H	1.196617	-0.114277	-0.235213
H170	H	1.529950	0.219057	0.098121
H171	H	1.863283	0.552390	0.431454
