data_functionalizedCrystal
_audit_creation_method	'MofGen! by Chris Wilmer'
_symmetry_space_group_name_H-M	'P1'
_symmetry_Int_Tables_number	1
_symmetry_cell_setting	triclinic
loop_
_symmetry_equiv_pos_as_xyz
  x,y,z
_cell_length_a	17.077404
_cell_length_b	17.638516
_cell_length_c	17.077396
_cell_angle_alpha	78.825117
_cell_angle_beta	90.021444
_cell_angle_gamma	101.242040
loop_
_atom_site_label
_atom_site_type_symbol
_atom_site_fract_x
_atom_site_fract_y
_atom_site_fract_z
Zn1	Zn	1.136821	-0.314722	0.507014
Zn2	Zn	1.636821	0.185278	1.007014
Zn3	Zn	1.110169	-0.446912	0.402264
Zn4	Zn	1.610169	0.053088	0.902264
Zn5	Zn	1.005548	-0.314746	0.375762
Zn6	Zn	1.505548	0.185254	0.875762
Zn7	Zn	0.978972	-0.446860	0.533473
Zn8	Zn	1.478972	0.053140	1.033473
O9	O	1.057878	-0.380810	0.454628
O10	O	1.557878	0.119190	0.954628
O11	O	1.243130	-0.332269	0.493136
O12	O	1.743130	0.167731	0.993136
O13	O	1.096259	-0.429411	0.288908
O14	O	1.596259	0.070589	0.788908
O15	O	1.045238	-0.204130	0.371009
O16	O	1.545238	0.295870	0.871009
O17	O	1.223549	-0.429389	0.416177
O18	O	1.723549	0.070611	0.916177
O19	O	1.141684	-0.204113	0.467439
O20	O	1.641684	0.295887	0.967439
O21	O	1.019395	-0.332309	0.269437
O22	O	1.519395	0.167691	0.769437
O23	O	0.892178	-0.332259	0.396665
O24	O	1.392178	0.167741	0.896665
O25	O	0.999943	-0.429301	0.639803
O26	O	1.499943	0.070699	1.139803
O27	O	0.872653	-0.429323	0.512534
O28	O	1.372653	0.070677	1.012534
O29	O	1.115914	-0.332220	0.620364
O30	O	1.615914	0.167780	1.120364
O31	O	1.070489	-0.557517	0.441833
O32	O	1.570489	-0.057517	0.941833
O33	O	0.974099	-0.557480	0.538232
O34	O	1.474099	-0.057480	1.038232
C35	C	0.853934	-0.380789	0.454595
C36	C	1.353934	0.119211	0.954595
C37	C	0.766682	-0.380799	0.454603
C38	C	1.266682	0.119201	0.954603
C39	C	0.401036	-0.330353	0.494832
C40	C	0.901036	0.169647	0.994832
C41	C	0.483018	-0.330347	0.494822
C42	C	0.983018	0.169653	0.994822
C43	C	0.513828	-0.380827	0.454651
C44	C	1.013828	0.119173	0.954651
C45	C	0.462650	-0.431321	0.414494
C46	C	0.962650	0.068679	0.914494
C47	C	0.380669	-0.431330	0.414509
C48	C	0.880669	0.068670	0.914509
C49	C	0.633525	-0.431297	0.414464
C50	C	1.133525	0.068703	0.914464
C51	C	0.715512	-0.431287	0.414447
C52	C	1.215512	0.068713	0.914447
C53	C	0.735873	-0.330314	0.494777
C54	C	1.235873	0.169686	0.994777
C55	C	0.653892	-0.330323	0.494792
C56	C	1.153892	0.169677	0.994792
C57	C	0.602721	-0.380817	0.454634
C58	C	1.102721	0.119183	0.954634
C59	C	1.016539	-0.586179	0.495796
C60	C	1.516539	-0.086179	0.995796
C61	C	0.998927	-0.674037	0.513435
C62	C	1.498927	-0.174037	1.013435
C63	C	1.192152	-0.962950	0.320691
C64	C	1.692152	-0.462950	0.820691
C65	C	1.175588	-1.045506	0.337278
C66	C	1.675588	-0.545506	0.837278
C67	C	1.075133	-1.045511	0.437578
C68	C	1.575133	-0.545511	0.937578
C69	C	1.091686	-0.962954	0.420997
C70	C	1.591686	-0.462954	0.920997
C71	C	1.150197	-0.921680	0.362554
C72	C	1.650197	-0.421680	0.862554
C73	C	1.049730	-0.921683	0.462860
C74	C	1.549730	-0.421683	0.962860
C75	C	1.066284	-0.839133	0.446283
C76	C	1.566284	-0.339133	0.946283
C77	C	1.124794	-0.797854	0.387843
C78	C	1.624794	-0.297854	0.887843
C79	C	1.166751	-0.839130	0.345977
C80	C	1.666751	-0.339130	0.845977
C81	C	0.991224	-0.962959	0.521307
C82	C	1.491224	-0.462959	1.021307
C83	C	0.949268	-0.921688	0.563169
C84	C	1.449268	-0.421688	1.063169
C85	C	0.965818	-0.839137	0.546589
C86	C	1.465818	-0.339137	1.046589
C87	C	1.024328	-0.797857	0.488149
C88	C	1.524328	-0.297857	0.988149
C89	C	0.923862	-0.797861	0.588455
C90	C	1.423862	-0.297861	1.088455
C91	C	0.940416	-0.715311	0.571878
C92	C	1.440416	-0.215311	1.071878
C93	C	1.040882	-0.715307	0.471572
C94	C	1.540882	-0.215307	0.971572
C95	C	1.262617	-0.380832	0.454662
C96	C	1.762617	0.119168	0.954662
C97	C	1.349865	-0.380842	0.454676
C98	C	1.849865	0.119158	0.954676
C99	C	1.057937	-0.380752	0.659361
C100	C	1.557937	0.119248	1.159361
C101	C	1.057962	-0.380727	0.746606
C102	C	1.557962	0.119273	1.246606
C103	C	1.099399	-0.174639	0.413316
C104	C	1.599399	0.325361	0.913316
C105	C	1.117092	-0.086782	0.395711
C106	C	1.617092	0.413218	0.895711
C107	C	1.057875	-0.380811	0.250680
C108	C	1.557875	0.119189	0.750680
C109	C	1.058047	-0.380613	0.163391
C110	C	1.558047	0.119387	0.663391
C111	C	1.118351	-0.330173	0.777474
C112	C	1.618351	0.169827	1.277474
C113	C	1.118366	-0.330146	0.859449
C114	C	1.618366	0.169854	1.359449
C115	C	1.057994	-0.380679	0.910555
C116	C	1.557994	0.119321	1.410555
C117	C	0.997599	-0.431236	0.879682
C118	C	1.497599	0.068764	1.379682
C119	C	0.997582	-0.431257	0.797707
C120	C	1.497582	0.068743	1.297707
C121	C	0.997640	-0.431188	1.050542
C122	C	1.497640	0.068812	1.550542
C123	C	0.997658	-0.431168	1.132523
C124	C	1.497658	0.068832	1.632523
C125	C	1.118424	-0.330077	1.112285
C126	C	1.618424	0.169923	1.612285
C127	C	1.118407	-0.330099	1.030310
C128	C	1.618407	0.169901	1.530310
C129	C	1.058012	-0.380657	0.999442
C130	C	1.558012	0.119343	1.499442
H131	H	0.777542	-0.289199	0.527475
H132	H	1.277542	0.210801	1.027475
F133	F	0.748297	-0.485031	0.371713
F134	F	1.248297	0.014969	0.871713
H135	H	0.948451	-0.472345	1.025411
H136	H	1.448451	0.027655	1.525411
F137	F	0.933399	-0.484943	1.186911
F138	F	1.433399	0.015057	1.686911
H139	H	1.209761	-1.079105	0.303187
H140	H	1.709761	-0.579105	0.803187
F141	F	0.933344	-0.485013	0.934074
F142	F	1.433344	0.014987	1.434074
H143	H	0.375958	-0.289242	0.527539
H144	H	0.875958	0.210758	1.027539
F145	F	1.182701	-0.276270	1.145137
F146	F	1.682701	0.223730	1.645137
H147	H	1.214390	-0.805523	0.298380
H148	H	1.714390	-0.305523	0.798380
F149	F	0.495442	-0.485049	0.371745
F150	F	0.995442	0.014951	0.871745
H151	H	0.591862	-0.472418	0.381766
H152	H	1.091862	0.027582	0.881766
F153	F	1.103144	-0.671376	0.409357
F154	F	1.603144	-0.171376	0.909357
F155	F	0.933306	-0.485062	0.764855
F156	F	1.433306	0.014938	1.264855
F157	F	0.326209	-0.485072	0.371775
F158	F	0.826209	0.014928	0.871775
H159	H	0.524678	-0.289237	0.527525
H160	H	1.024678	0.210763	1.027525
H161	H	1.239792	-0.929343	0.273095
H162	H	1.739792	-0.429343	0.773095
H163	H	1.138274	-0.730636	0.374350
H164	H	1.638274	-0.230636	0.874350
F165	F	1.182611	-0.276392	0.723091
F166	F	1.682611	0.223608	1.223091
H167	H	1.027496	-1.079128	0.485165
H168	H	1.527496	-0.579128	0.985165
F169	F	0.973350	-1.050816	0.538692
F170	F	1.473350	-0.550816	1.038692
F171	F	0.887001	-0.965624	0.625370
F172	F	1.387001	-0.465624	1.125370
F173	F	0.861600	-0.841798	0.650661
F174	F	1.361600	-0.341798	1.150661
F175	F	0.621104	-0.276594	0.537543
F176	F	1.121104	0.223406	1.037543
F177	F	1.182665	-0.276321	0.975921
F178	F	1.682665	0.223679	1.475921
H179	H	0.906252	-0.681708	0.605968
H180	H	1.406252	-0.181708	1.105968
H181	H	1.167542	-0.288982	0.884578
H182	H	1.667542	0.211018	1.384578
