data_functionalizedCrystal
_audit_creation_method	'MofGen! by Chris Wilmer'
_symmetry_space_group_name_H-M	'P1'
_symmetry_Int_Tables_number	1
_symmetry_cell_setting	triclinic
loop_
_symmetry_equiv_pos_as_xyz
  x,y,z
_cell_length_a	6.817900
_cell_length_b	17.078472
_cell_length_c	10.773894
_cell_angle_alpha	96.744406
_cell_angle_beta	96.645922
_cell_angle_gamma	99.306020
loop_
_atom_site_label
_atom_site_type_symbol
_atom_site_fract_x
_atom_site_fract_y
_atom_site_fract_z
V1	V	-3.928691	-0.106853	-0.388822
O2	O	-3.939481	0.008135	-0.381550
O3	O	-3.860287	-0.214756	-0.386039
O4	O	-3.846912	-0.103893	-0.558458
O5	O	-3.952948	-0.103496	-0.207937
V6	V	-4.419236	-0.093255	-0.367202
O7	O	-4.174545	-0.136682	-0.436248
O8	O	-4.623578	-0.063426	-0.319776
O9	O	-4.264433	0.014649	-0.369985
O10	O	-4.525842	-0.208242	-0.374475
O11	O	-4.512375	-0.096611	-0.548087
O12	O	-4.277807	-0.096214	-0.197567
C13	C	-3.701501	-0.241102	-0.379873
C14	C	-3.726637	-0.329306	-0.378728
C15	C	-3.918551	-0.374739	-0.384408
C16	C	-3.942159	-0.457617	-0.383340
C17	C	-3.773848	-0.495059	-0.376582
C18	C	-3.581918	-0.449621	-0.370906
C19	C	-3.558315	-0.366745	-0.371983
C20	C	-3.825128	-0.742492	-0.372702
C21	C	-3.848746	-0.825373	-0.371621
C22	C	-4.208986	-0.833364	-0.384057
C23	C	-4.185364	-0.750486	-0.385126
C24	C	-3.993439	-0.705055	-0.379456
N25	N	-3.797973	-0.579773	-0.375486
N26	N	-3.969318	-0.620344	-0.380562
C27	C	-3.684440	-0.099684	-0.599809
C28	C	-3.698728	-0.097978	-0.738486
C29	C	-3.876255	-0.100934	-0.806344
C30	C	-3.891027	-0.099171	-0.949674
C31	C	-4.086560	0.040991	-0.376148
C32	C	-4.040661	0.129194	-0.377301
C33	C	-4.103622	-0.100426	-0.156209
C34	C	-4.068573	-0.102128	-0.017531
H35	H	-4.055611	-0.344259	-0.389898
C36	C	-4.420088	-0.883340	-0.390312
H37	H	-4.410050	-0.938061	-0.388715
H38	H	-4.480384	-0.864702	-0.319974
H39	H	-4.500068	-0.878099	-0.466132
C40	C	-4.066819	-0.106120	-0.741500
H41	H	-4.180112	-0.107742	-0.802659
H42	H	-4.083603	-0.153300	-0.702267
H43	H	-4.054320	-0.060505	-0.679580
C44	C	-3.396779	-0.490805	-0.363472
H45	H	-3.438318	-0.546669	-0.363630
H46	H	-3.328756	-0.482283	-0.434166
H47	H	-3.309053	-0.468877	-0.288007
H48	H	-3.557676	-0.094135	-0.786499
H49	H	-4.209640	-0.105969	-0.969524
H50	H	-4.098433	-0.494605	-0.387967
C51	C	-3.614021	-0.692528	-0.366454
H52	H	-3.517167	-0.726698	-0.362262
H53	H	-3.607172	-0.666734	-0.439691
H54	H	-3.587465	-0.653331	-0.293532
H55	H	-3.402041	-0.329755	-0.367363
C56	C	-3.700457	-0.093989	-1.014521
H57	H	-3.735386	-0.093490	-1.102349
H58	H	-3.609566	-0.046250	-0.979272
H59	H	-3.638873	-0.139045	-1.001965
H60	H	-3.711680	-0.855859	-0.366147
H61	H	-4.322427	-0.720007	-0.390638
