data_functionalizedCrystal
_audit_creation_method	'MofGen! by Chris Wilmer'
_symmetry_space_group_name_H-M	'P1'
_symmetry_Int_Tables_number	1
_symmetry_cell_setting	triclinic
loop_
_symmetry_equiv_pos_as_xyz
  x,y,z
_cell_length_a	15.995350
_cell_length_b	8.634740
_cell_length_c	7.681481
_cell_angle_alpha	96.618670
_cell_angle_beta	84.260013
_cell_angle_gamma	92.031341
loop_
_atom_site_label
_atom_site_type_symbol
_atom_site_fract_x
_atom_site_fract_y
_atom_site_fract_z
O1	O	0.279742	2.031482	-0.146416
O2	O	0.256851	1.582530	-0.146420
O3	O	0.147399	1.819279	-0.146416
O4	O	0.389194	1.794733	-0.146420
O5	O	0.133891	1.848418	0.146442
O6	O	0.243343	1.611670	0.146438
O7	O	0.266235	2.060622	0.146442
Zn8	Zn	0.252644	1.840772	0.192938
Zn9	Zn	0.270441	1.802379	-0.192916
O10	O	0.375686	1.823873	0.146438
C11	C	0.244911	1.539650	0.000009
C12	C	0.229449	1.368466	0.000007
C13	C	0.109369	1.832833	0.000009
C14	C	0.016173	1.829790	-0.000001
C15	C	-0.322456	1.818866	0.000005
C16	C	-0.288594	1.650192	-0.000653
C17	C	-0.191689	1.653301	0.000007
C18	C	-0.154458	1.824284	0.000001
C19	C	-0.196540	1.924088	0.167235
C20	C	-0.293524	1.919866	0.167375
C21	C	-0.278240	1.890212	-0.165659
C22	C	-0.181196	1.889952	-0.167870
C23	C	-0.059513	1.827356	0.000005
C24	C	-0.417402	1.815800	0.000013
C25	C	0.413717	1.810318	0.000009
C26	C	0.506913	1.813360	0.000007
C27	C	0.278174	2.103502	0.000009
C28	C	0.293637	2.274684	-0.000001
N29	N	0.240499	1.866986	0.456272
N30	N	0.282581	1.776178	-0.456250
H31	H	-0.163011	1.576001	-0.119872
Cl32	Cl	0.174189	2.010130	0.572377
H33	H	-0.319101	1.594967	0.118605
Cl34	Cl	-0.317058	1.527713	-0.185812
H35	H	0.162665	1.317784	-0.000042
H36	H	-0.174672	1.599438	0.120091
Cl37	Cl	-0.338239	1.845434	0.360380
Cl38	Cl	-0.328439	2.112148	0.179109
H39	H	0.325533	1.683482	0.468552
H40	H	-0.172567	2.050324	0.173450
Cl41	Cl	-0.168783	1.854031	0.359388
Cl42	Cl	-0.307780	1.785614	-0.361359
H43	H	-0.153147	1.816839	-0.291585
H44	H	0.360418	1.325356	0.000014
H45	H	-0.155309	2.013636	-0.177971
H46	H	-0.299920	2.014413	-0.166788
