data_functionalizedCrystal
_audit_creation_method	'MofGen! by Chris Wilmer'
_symmetry_space_group_name_H-M	'P1'
_symmetry_Int_Tables_number	1
_symmetry_cell_setting	triclinic
loop_
_symmetry_equiv_pos_as_xyz
  x,y,z
_cell_length_a	17.052832
_cell_length_b	23.196402
_cell_length_c	23.196401
_cell_angle_alpha	60.008822
_cell_angle_beta	102.328588
_cell_angle_gamma	67.551810
loop_
_atom_site_label
_atom_site_type_symbol
_atom_site_fract_x
_atom_site_fract_y
_atom_site_fract_z
Zr1	Zr	0.773282	0.630993	0.045627
O2	O	0.645085	0.751261	-0.066521
O3	O	0.812578	0.510727	0.080003
O4	O	0.812542	0.630994	-0.040268
O5	O	0.645152	0.630992	0.148626
O6	O	0.944638	0.630993	-0.019555
O7	O	0.645121	0.630993	0.053750
O8	O	0.944702	0.415857	0.195588
O9	O	0.645089	0.846128	-0.066516
O10	O	0.927923	0.560193	0.110126
O11	O	0.829364	0.560192	0.165473
O12	O	0.829322	0.701791	0.023870
O13	O	0.730764	0.701791	0.079217
Zr14	Zr	0.984010	0.630989	0.229980
Zr15	Zr	0.983960	0.630991	0.078663
Zr16	Zr	0.773332	0.630991	0.196944
Zr17	Zr	0.773287	0.782295	0.045635
Zr18	Zr	0.984005	0.479687	0.229972
O19	O	0.944715	0.751255	0.195604
O20	O	0.944643	0.751258	-0.019549
O21	O	0.645157	0.751257	0.148632
O22	O	1.112207	0.510721	0.342128
O23	O	1.112135	0.510725	0.126975
O24	O	0.812649	0.510724	0.295156
O25	O	1.112140	0.630990	0.126981
O26	O	0.944750	0.630988	0.315875
O27	O	0.812654	0.630989	0.295162
O28	O	1.112171	0.630988	0.221857
O29	O	0.812550	0.846127	-0.040258
O30	O	0.944742	0.415855	0.315864
O31	O	1.112203	0.415854	0.342123
O32	O	1.112163	0.415856	0.221847
O33	O	0.645129	0.846126	0.053760
O34	O	0.812590	0.846125	0.080019
O35	O	0.927970	0.560190	0.251737
O36	O	1.026528	0.560191	0.196390
O37	O	0.927928	0.701790	0.110133
O38	O	0.829370	0.701789	0.165480
C39	C	0.878639	0.441735	0.137794
C40	C	0.878636	0.377503	0.137791
C41	C	0.615119	0.630993	0.096481
C42	C	0.525681	0.630994	0.082457
C43	C	0.930076	0.347333	0.108897
C44	C	0.930086	0.286972	0.108904
C45	C	0.878636	0.256795	0.137793
C46	C	0.827194	0.286969	0.166695
C47	C	0.827194	0.347323	0.166694
C48	C	0.792440	0.194766	0.119002
C49	C	0.792437	0.134417	0.118998
C50	C	0.878637	0.070640	0.137800
C51	C	0.964840	0.067227	0.156593
C52	C	0.964840	0.127581	0.156592
C53	C	0.878631	0.191350	0.137798
C54	C	0.930092	-0.024982	0.108913
C55	C	0.930104	-0.085347	0.108925
C56	C	0.827203	-0.085343	0.166710
C57	C	0.827201	-0.024984	0.166704
C58	C	0.878643	0.005196	0.137801
C59	C	0.273647	0.630985	0.252011
C60	C	0.357682	0.630979	0.265192
C61	C	0.399686	0.630983	0.219510
C62	C	0.357646	0.630992	0.160644
C63	C	0.273607	0.630992	0.147465
C64	C	0.399646	0.630990	0.114963
C65	C	0.357606	0.630999	0.056097
C66	C	0.273575	0.630999	0.042921
C67	C	0.231571	0.630995	0.088604
C68	C	0.483685	0.630990	0.128142
C69	C	0.483645	0.630997	0.023596
C70	C	0.399610	0.631003	0.010415
C71	C	1.142173	0.630989	0.179126
C72	C	1.231611	0.630988	0.193150
C73	C	0.878583	0.630994	-0.051471
C74	C	0.878562	0.630995	-0.115709
C75	C	0.878653	0.820247	0.137813
C76	C	0.878656	0.884479	0.137816
C77	C	0.827098	0.704906	-0.190906
C78	C	0.827123	0.704907	-0.251257
C79	C	0.878598	0.630993	-0.236409
C80	C	0.930073	0.557072	-0.161198
C81	C	0.930055	0.557073	-0.100848
C82	C	0.871286	0.574365	-0.304875
C83	C	0.871298	0.574367	-0.365227
C84	C	0.878660	0.630987	-0.422547
C85	C	0.885992	0.687618	-0.419518
C86	C	0.885974	0.687619	-0.359168
C87	C	0.878624	0.630983	-0.301844
C88	C	0.827222	0.704904	-0.563187
C89	C	0.827254	0.704902	-0.623537
C90	C	0.930197	0.557065	-0.533477
C91	C	0.930171	0.557069	-0.473128
C92	C	0.878678	0.630991	-0.487989
C93	C	0.878709	0.630988	0.327078
C94	C	0.878731	0.630987	0.391316
C95	C	1.142165	0.441733	0.179117
C96	C	1.231602	0.377500	0.193138
C97	C	0.878702	0.441732	0.327068
C98	C	0.878721	0.377499	0.391303
C99	C	1.142228	0.441730	0.368391
C100	C	1.231686	0.377496	0.446650
C101	C	0.615064	0.820252	-0.092784
C102	C	0.525606	0.884486	-0.171043
C103	C	0.615127	0.820249	0.096490
C104	C	0.525691	0.884482	0.082469
C105	C	0.878590	0.820250	-0.051462
C106	C	0.878571	0.884483	-0.115696
C107	C	1.222131	0.347337	0.154687
C108	C	1.306157	0.286992	0.167847
C109	C	1.399654	0.256807	0.219460
C110	C	1.409123	0.286976	0.257912
C111	C	1.325097	0.347324	0.244748
C112	C	0.930201	0.347334	0.466504
C113	C	0.930215	0.286988	0.526864
C114	C	0.878754	0.256806	0.512024
C115	C	0.827268	0.286977	0.436815
C116	C	0.827249	0.347325	0.376456
C117	C	1.325151	0.347332	0.454512
C118	C	1.409214	0.286986	0.528041
C119	C	1.399809	0.256802	0.593706
C120	C	1.306334	0.286972	0.585841
C121	C	1.222273	0.347321	0.512313
C122	C	0.432141	0.914658	-0.178905
C123	C	0.348078	0.975022	-0.252434
C124	C	0.357483	1.005210	-0.318099
C125	C	0.450958	0.975035	-0.310234
C126	C	0.535019	0.914676	-0.236706
C127	C	0.535162	0.914651	0.120913
C128	C	0.451135	0.975013	0.107737
C129	C	0.357638	1.005200	0.056121
C130	C	0.348169	0.975028	0.017673
C131	C	0.432195	0.914671	0.030845
C132	C	0.930042	0.914647	-0.100832
C133	C	0.930044	0.974992	-0.161178
C134	C	0.878568	1.005177	-0.236390
C135	C	0.827095	0.975008	-0.251253
C136	C	0.827100	0.914659	-0.190906
H137	H	0.971976	0.262402	0.085374
H138	H	0.424464	0.890082	-0.125446
N139	N	1.490273	0.191717	0.233650
H140	H	1.490303	0.141643	0.254683
H141	H	1.550896	0.177235	0.272163
H142	H	1.485318	0.262427	0.534431
H143	H	0.785294	0.765095	-0.575288
H144	H	0.785182	0.890106	-0.203021
H145	H	0.865322	0.528258	-0.367690
H146	H	0.239446	0.630975	0.289205
N147	N	0.985559	0.379883	0.077725
H148	H	1.018148	0.351607	0.059422
H149	H	1.037305	0.369381	0.119771
N150	N	1.121462	0.379849	0.503833
H151	H	1.113597	0.404885	0.529264
H152	H	1.113680	0.333755	0.529257
H153	H	0.971960	0.890079	-0.039596
H154	H	1.035030	0.124798	0.171895
H155	H	0.971963	0.496884	-0.039616
N156	N	1.509968	0.254417	0.313579
H157	H	1.561753	0.211609	0.316080
H158	H	1.517777	0.229412	0.366489
H159	H	0.272033	0.999615	-0.024353
N160	N	0.354270	0.630999	-0.053066
H161	H	0.393625	0.631001	-0.080008
H162	H	0.284399	0.681266	-0.091429
N163	N	1.295937	0.254448	0.126382
H164	H	1.328481	0.264957	0.094284
H165	H	1.223939	0.282735	0.091738
N166	N	1.057822	-0.001552	0.176872
H167	H	1.044747	-0.039273	0.174026
H168	H	1.110897	-0.032897	0.230884
N169	N	0.266817	1.070307	-0.397403
H170	H	0.226375	1.120383	-0.403764
H171	H	0.226449	1.049227	-0.403716
H172	H	1.146008	0.371912	0.112651
H173	H	0.458864	0.999569	0.139052
H174	H	1.332822	0.371876	0.276065
H175	H	0.972145	0.262430	0.588097
N176	N	0.140935	0.630994	0.074393
H177	H	0.120678	0.630995	0.030174
H178	H	0.085762	0.681262	0.061156
H179	H	0.424470	0.890109	-0.000461
H180	H	1.298691	0.262387	0.639315
H181	H	0.972107	0.371902	0.478601
N182	N	0.771780	0.254407	0.420822
H183	H	0.798771	0.229360	0.398400
H184	H	0.699792	0.300478	0.382896
H185	H	0.722235	0.246703	0.103675
H186	H	1.468265	0.207661	0.653572
H187	H	0.271975	0.999580	-0.258823
H188	H	0.458604	0.999622	-0.363707
N189	N	0.635827	0.882133	-0.228232
H190	H	0.629020	0.910418	-0.280990
H191	H	0.672936	0.821550	-0.198993
N192	N	0.635998	0.882101	0.176586
H193	H	0.629232	0.910383	0.198932
H194	H	0.673093	0.892603	0.148466
H195	H	0.785303	0.371888	0.190223
N196	N	0.228238	0.630996	-0.020560
H197	H	0.267595	0.631000	-0.047502
H198	H	0.158367	0.681262	-0.058924
H199	H	0.971957	0.999550	-0.149062
H200	H	0.289227	1.054346	0.045403
H201	H	0.878571	1.054317	-0.285521
N202	N	0.771577	1.007568	-0.332376
H203	H	0.779387	1.050377	-0.368344
H204	H	0.699610	1.032572	-0.349255
N205	N	1.335324	0.379876	0.383702
H206	H	1.302742	0.440460	0.351906
H207	H	1.302767	0.369314	0.351961
H208	H	0.971983	-0.000411	0.085381
N209	N	0.528940	0.630998	-0.025680
H210	H	0.588552	0.631000	-0.008402
H211	H	0.479240	0.681266	-0.081430
H212	H	0.785312	-0.109913	0.190232
N213	N	0.985594	-0.117895	0.077764
H214	H	1.018177	-0.089614	0.059454
H215	H	0.938330	-0.107396	0.033204
H216	H	0.722244	0.137204	0.103692
N217	N	0.771719	0.007561	0.197868
H218	H	0.739127	-0.020714	0.216172
H219	H	0.719974	0.068146	0.155823
H220	H	0.517907	0.630983	0.176071
N221	N	0.771708	0.254421	0.197860
H222	H	0.779511	0.211609	0.193475
H223	H	0.699739	0.300513	0.167174
H224	H	0.865283	0.528259	-0.258209
N225	N	0.490332	0.630965	0.233763
H226	H	0.475599	0.681228	0.185814
H227	H	0.545536	0.580664	0.247065
N228	N	0.403039	0.630947	0.328691
H229	H	0.363684	0.630940	0.355634
H230	H	0.402918	0.681206	0.305833
H231	H	0.785173	0.765098	-0.203012
H232	H	0.891946	0.733729	-0.356704
N233	N	0.771614	0.784627	-0.332375
H234	H	0.738992	0.831455	-0.332630
H235	H	0.719892	0.787838	-0.367145
N236	N	0.893929	0.748695	-0.481337
H237	H	0.892833	0.740102	-0.520027
H238	H	0.957546	0.741113	-0.457000
H239	H	0.972110	0.496883	-0.521386
N240	N	0.771766	0.784634	-0.704637
H241	H	0.699768	0.816958	-0.721605
H242	H	0.779669	0.773368	-0.740570
N243	N	0.985676	0.477351	-0.392018
H244	H	1.018291	0.430525	-0.391767
H245	H	0.938420	0.474130	-0.372792
H246	H	0.971985	0.496891	-0.149112
N247	N	0.878781	0.191714	0.577130
H248	H	0.919208	0.177187	0.627020
H249	H	0.908047	0.141674	0.581687
H250	H	0.785331	0.371878	0.315226
