data_functionalizedCrystal
_audit_creation_method	'MofGen! by Chris Wilmer'
_symmetry_space_group_name_H-M	'P1'
_symmetry_Int_Tables_number	1
_symmetry_cell_setting	triclinic
loop_
_symmetry_equiv_pos_as_xyz
  x,y,z
_cell_length_a	11.026607
_cell_length_b	10.723024
_cell_length_c	9.198806
_cell_angle_alpha	90.003648
_cell_angle_beta	89.998911
_cell_angle_gamma	83.473057
loop_
_atom_site_label
_atom_site_type_symbol
_atom_site_fract_x
_atom_site_fract_y
_atom_site_fract_z
O1	O	0.170518	-1.693992	-0.120878
O2	O	0.186840	-1.334363	-0.120883
O3	O	0.001778	-1.484372	-0.120876
O4	O	0.355580	-1.543983	-0.120886
O5	O	0.001777	-1.484357	0.120909
O6	O	0.186840	-1.334348	0.120902
O7	O	0.170518	-1.693977	0.120907
Cu8	Cu	0.178679	-1.514161	0.142981
Cu9	Cu	0.178679	-1.514179	-0.142958
O10	O	0.355580	-1.543968	0.120899
C11	C	-0.043525	-1.473367	0.000015
C12	C	-0.178512	-1.440584	0.000009
C13	C	0.185652	-1.287599	0.000009
C14	C	0.182098	-1.148278	0.000007
C15	C	0.171706	-1.740741	0.000011
C16	C	0.175259	-1.880062	0.000004
C17	C	-0.251564	-1.531104	0.000008
C18	C	-0.391080	-1.497223	0.000003
C19	C	0.400883	-1.554973	0.000006
C20	C	0.535869	-1.587756	0.000002
N21	N	0.178677	-1.514157	0.344095
C22	C	0.285649	-1.095646	0.000003
C23	C	0.281979	-0.951650	0.000001
N24	N	0.178671	-1.514191	-0.344072
C25	C	0.100633	-1.577068	0.416295
C26	C	0.100628	-1.577086	0.583707
H27	H	-0.431820	-1.394636	-0.000008
H28	H	0.377021	-1.157190	0.000009
O29	O	0.387823	-0.897765	0.000189
C30	C	0.455967	-0.935702	0.125429
H31	H	0.427053	-1.027958	0.167183
H32	H	0.438661	-0.860648	0.213111
C33	C	0.628354	-0.840597	0.036102
C34	C	0.592848	-0.953913	0.087378
H35	H	0.712789	-0.851825	0.012634
H36	H	0.582443	-0.815033	-0.048272
H37	H	0.613922	-0.778063	0.109179
H38	H	0.607266	-1.016440	0.014295
H39	H	0.638765	-0.979488	0.171740
O40	O	0.258556	-1.450002	0.418037
C41	C	0.379032	-1.497678	0.380975
H42	H	0.379273	-1.545743	0.270416
H43	H	0.416932	-1.568504	0.466596
C44	C	0.458816	-1.330122	0.509966
C45	C	0.459114	-1.389147	0.374170
H46	H	0.508217	-1.263177	0.505774
H47	H	0.377650	-1.298004	0.534941
H48	H	0.490397	-1.389155	0.581302
H49	H	0.427520	-1.330117	0.302840
H50	H	0.540277	-1.421253	0.349183
H51	H	-0.219257	-1.338003	-0.000002
O52	O	-0.202766	-1.653421	0.000077
C53	C	-0.074329	-1.660019	0.000042
H54	H	-0.045488	-1.569090	0.045814
H55	H	-0.038963	-1.673968	-0.115954
C56	C	-0.056188	-1.882894	0.038646
C57	C	-0.020765	-1.771217	0.094876
H58	H	-0.023146	-1.951490	0.097138
H59	H	-0.142719	-1.878451	0.038664
H60	H	-0.026714	-1.894501	-0.058016
H61	H	-0.050253	-1.759604	0.191529
H62	H	0.065762	-1.775661	0.094877
O63	O	0.020971	-1.641516	0.342384
C64	C	0.041514	-1.769760	0.379457
H65	H	0.088295	-1.780307	0.489995
H66	H	0.102317	-1.822118	0.293815
C67	C	-0.138831	-1.811917	0.250559
C68	C	-0.081383	-1.824871	0.386329
H69	H	-0.214638	-1.845915	0.254792
H70	H	-0.152670	-1.725518	0.225576
H71	H	-0.088149	-1.855549	0.179205
H72	H	-0.132058	-1.781226	0.457676
H73	H	-0.067556	-1.911264	0.411323
H74	H	-0.423393	-1.690344	-0.000106
H75	H	0.086607	-0.925352	-0.000002
H76	H	0.033815	-1.630952	0.645796
H77	H	0.090727	-1.086734	-0.000028
H78	H	0.245496	-1.460333	0.593849
