data_functionalizedCrystal
_audit_creation_method	'MofGen! by Chris Wilmer'
_symmetry_space_group_name_H-M	'P1'
_symmetry_Int_Tables_number	1
_symmetry_cell_setting	triclinic
loop_
_symmetry_equiv_pos_as_xyz
  x,y,z
_cell_length_a	14.971475
_cell_length_b	17.038272
_cell_length_c	13.448316
_cell_angle_alpha	89.993314
_cell_angle_beta	90.005879
_cell_angle_gamma	92.639383
loop_
_atom_site_label
_atom_site_type_symbol
_atom_site_fract_x
_atom_site_fract_y
_atom_site_fract_z
O1	O	-1.194580	0.101857	-0.082673
O2	O	-0.935092	0.114068	-0.082679
O3	O	-1.063294	-0.005855	-0.082668
O4	O	-1.066378	0.221780	-0.082684
O5	O	-1.063276	-0.005862	0.082716
O6	O	-0.935075	0.114061	0.082705
O7	O	-1.194562	0.101849	0.082711
Cu8	Cu	-1.064817	0.107954	0.097809
Cu9	Cu	-1.064838	0.107963	-0.097777
O10	O	-1.066360	0.221772	0.082700
C11	C	-0.901718	0.113520	0.000012
C12	C	-0.802298	0.111888	0.000010
C13	C	-0.755586	0.111115	0.090161
C14	C	-0.662171	0.109569	0.090162
C15	C	-0.615470	0.108802	0.000010
C16	C	-0.662189	0.109572	-0.090149
C17	C	-0.755602	0.111112	-0.090148
C18	C	-0.467486	0.106364	-0.090143
C19	C	-0.374066	0.104825	-0.090144
C20	C	-0.374055	0.104821	0.090167
C21	C	-0.467469	0.106361	0.090167
C22	C	-0.514181	0.107133	0.000008
C23	C	-1.060480	-0.034990	0.000024
C24	C	-1.052110	-0.121792	0.000023
C25	C	-1.128954	-0.171820	0.000026
C26	C	-1.121084	-0.253379	0.000017
C27	C	-1.036370	-0.284909	0.000011
C28	C	-0.959520	-0.234876	0.000005
C29	C	-0.967390	-0.153318	0.000008
C30	C	-1.008565	-0.530699	-0.000003
C31	C	-1.000700	-0.612263	-0.000003
C32	C	-1.162265	-0.630761	0.000007
C33	C	-1.170128	-0.549200	0.000015
C34	C	-1.093279	-0.499174	0.000004
C35	C	-1.028324	-0.368276	0.000004
C36	C	-1.101325	-0.415809	0.000004
C37	C	-0.227936	0.102403	0.000016
C38	C	-0.327354	0.104052	0.000007
C39	C	-1.069175	0.250907	0.000006
C40	C	-1.077544	0.337710	0.000000
N41	N	-1.064808	0.107948	0.235373
N42	N	-1.064853	0.107964	-0.235341
C43	C	-1.121596	0.054868	0.287418
C44	C	-1.121602	0.054867	0.391522
C45	C	-1.064823	0.107951	0.443578
C46	C	-1.008029	0.161033	0.391525
C47	C	-1.008019	0.161030	0.287424
C48	C	-1.008054	0.161039	0.608505
C49	C	-1.008064	0.161043	0.712614
C50	C	-1.121637	0.054876	0.712603
C51	C	-1.121627	0.054872	0.608502
C52	C	-1.064834	0.107956	0.556456
H53	H	-0.336018	0.104192	0.163577
H54	H	-0.931712	-0.637931	0.000009
H55	H	-1.167836	0.011644	0.245041
H56	H	-0.505516	0.106992	-0.163560
H57	H	-1.167879	0.011654	0.754984
H58	H	-1.224832	-0.671501	0.000014
Br59	Br	-1.285102	-0.506415	-0.000009
Br60	Br	-0.904268	-0.462816	-0.000025
Br61	Br	-0.930940	0.233065	0.216791
Br62	Br	-0.931004	0.233089	0.783254
Br63	Br	-1.216291	-0.373016	0.000002
H64	H	-0.961804	0.204262	0.566133
H65	H	-0.890544	-0.260554	-0.000006
H66	H	-0.624144	0.108927	0.163572
H67	H	-0.793603	0.111747	0.163574
Br68	Br	-0.530848	0.107415	0.212518
Br69	Br	-0.310686	0.103783	-0.212494
H70	H	-1.167842	0.011645	0.433896
H71	H	-1.183659	-0.294109	0.000021
H72	H	-0.904816	-0.112586	0.000005
H73	H	-1.167865	0.011652	0.566118
H74	H	-0.624158	0.108942	-0.163552
H75	H	-0.793634	0.111743	-0.163559
Br76	Br	-0.930963	0.233072	0.462169
H77	H	-1.197937	-0.146154	0.000037
H78	H	-0.959349	-0.393957	0.000002
