data_functionalizedCrystal
_audit_creation_method	'MofGen! by Chris Wilmer'
_symmetry_space_group_name_H-M	'P1'
_symmetry_Int_Tables_number	1
_symmetry_cell_setting	triclinic
loop_
_symmetry_equiv_pos_as_xyz
  x,y,z
_cell_length_a	17.640112
_cell_length_b	29.839131
_cell_length_c	17.640968
_cell_angle_alpha	78.768609
_cell_angle_beta	92.139080
_cell_angle_gamma	101.266684
loop_
_atom_site_label
_atom_site_type_symbol
_atom_site_fract_x
_atom_site_fract_y
_atom_site_fract_z
Zn1	Zn	1.247771	-0.012909	-0.195080
Zn2	Zn	1.747771	0.487091	0.304920
Zn3	Zn	1.221948	-0.105602	-0.068098
Zn4	Zn	1.721948	0.394398	0.431902
Zn5	Zn	1.095086	-0.042134	-0.093726
Zn6	Zn	1.595086	0.457866	0.406274
Zn7	Zn	1.120692	-0.099688	-0.220680
Zn8	Zn	1.620692	0.400312	0.279320
O9	O	1.171374	-0.065083	-0.144396
O10	O	1.671374	0.434917	0.355604
O11	O	1.350620	-0.015449	-0.156796
O12	O	1.850620	0.484551	0.343204
O13	O	1.183596	-0.111889	0.034776
O14	O	1.683596	0.388111	0.534776
O15	O	1.115431	0.024621	-0.107183
O16	O	1.615431	0.524621	0.392817
O17	O	1.331648	-0.083550	-0.063503
O18	O	1.831648	0.416450	0.436497
O19	O	1.227608	0.046093	-0.181647
O20	O	1.727608	0.546093	0.318353
O21	O	1.090391	-0.065260	0.015947
O22	O	1.590391	0.434740	0.515947
O23	O	0.992208	-0.059525	-0.132006
O24	O	1.492208	0.440475	0.367994
O25	O	1.159073	-0.073471	-0.323557
O26	O	1.659073	0.426529	0.176443
O27	O	1.011020	-0.101810	-0.225278
O28	O	1.511020	0.398190	0.274722
O29	O	1.252437	-0.009714	-0.304749
O30	O	1.752437	0.490286	0.195251
O31	O	1.208425	-0.167697	-0.088326
O32	O	1.708425	0.332303	0.411674
O33	O	1.134033	-0.163352	-0.200427
O34	O	1.634033	0.336648	0.299573
C35	C	0.974058	-0.083197	-0.184201
C36	C	1.474058	0.416803	0.315799
C37	C	0.889649	-0.090955	-0.201248
C38	C	1.389649	0.409045	0.298752
C39	C	0.563036	-0.006143	-0.014898
C40	C	1.063036	0.493857	0.485102
C41	C	0.483723	-0.013439	-0.030927
C42	C	0.983723	0.486561	0.469073
C43	C	0.503332	-0.057573	-0.127883
C44	C	1.003332	0.442427	0.372117
C45	C	0.582649	-0.050277	-0.111866
C46	C	1.082649	0.449723	0.388134
C47	C	0.612494	-0.024563	-0.055372
C48	C	1.112494	0.475437	0.444628
C49	C	0.632108	-0.068697	-0.152339
C50	C	1.132108	0.431303	0.347661
C51	C	0.711417	-0.061405	-0.136320
C52	C	1.211417	0.438595	0.363680
C53	C	0.741268	-0.035692	-0.079827
C54	C	1.241268	0.464308	0.420173
C55	C	0.691803	-0.017270	-0.039352
C56	C	1.191803	0.482730	0.460648
C57	C	0.602261	-0.094415	-0.208829
C58	C	1.102261	0.405585	0.291171
C59	C	0.651719	-0.112835	-0.249303
C60	C	1.151719	0.387165	0.250697
C61	C	0.731031	-0.105540	-0.233287
C62	C	1.231031	0.394460	0.266713
C63	C	0.760882	-0.079827	-0.176794
C64	C	1.260882	0.420173	0.323206
C65	C	0.780495	-0.123962	-0.273762
C66	C	1.280495	0.376038	0.226238
C67	C	0.859805	-0.116670	-0.257742
C68	C	1.359805	0.383330	0.242258
C69	C	0.840191	-0.072535	-0.160775
C70	C	1.340191	0.427465	0.339225
C71	C	1.171229	-0.181824	-0.144386
C72	C	1.671229	0.318176	0.355614
C73	C	1.171242	-0.231756	-0.144393
C74	C	1.671242	0.268244	0.355607
C75	C	1.210213	-0.543616	-0.086078
C76	C	1.710213	-0.043616	0.413922
C77	C	1.210312	-0.731276	-0.086088
C78	C	1.710312	-0.231276	0.413912
O79	O	1.243332	-0.757439	-0.036500
O80	O	1.743332	-0.257439	0.463500
N81	N	1.171543	-0.752503	-0.144421
N82	N	1.671543	-0.252503	0.355579
C83	C	1.132750	-0.726811	-0.202759
C84	C	1.632750	-0.226811	0.297241
O85	O	1.099784	-0.749171	-0.252379
O86	O	1.599784	-0.249171	0.247621
C87	C	1.132656	-0.539151	-0.202750
C88	C	1.632656	-0.039151	0.297250
C89	C	1.171421	-0.517928	-0.144409
C90	C	1.671421	-0.017928	0.355591
C91	C	1.248976	-0.522392	-0.027742
C92	C	1.748976	-0.022392	0.472258
C93	C	1.248947	-0.475481	-0.027738
C94	C	1.748947	0.024519	0.472262
C95	C	1.210155	-0.449792	-0.086069
C96	C	1.710155	0.050208	0.413931
C97	C	1.171392	-0.471016	-0.144405
C98	C	1.671392	0.028984	0.355595
C99	C	1.093868	-0.513459	-0.261090
C100	C	1.593868	-0.013459	0.238910
C101	C	1.093850	-0.466541	-0.261084
C102	C	1.593850	0.033459	0.238916
C103	C	1.132615	-0.445318	-0.202743
C104	C	1.632615	0.054682	0.297257
C105	C	1.132572	-0.398416	-0.202732
C106	C	1.632572	0.101584	0.297268
N107	N	1.171341	-0.377189	-0.144399
N108	N	1.671341	0.122811	0.355601
C109	C	1.210133	-0.402877	-0.086068
C110	C	1.710133	0.097123	0.413932
C111	C	1.132802	-0.825336	-0.202758
C112	C	1.632802	-0.325336	0.297242
C113	C	1.132824	-0.872251	-0.202759
C114	C	1.632824	-0.372251	0.297241
C115	C	1.210387	-0.876713	-0.086090
C116	C	1.710387	-0.376713	0.413910
C117	C	1.210360	-0.829797	-0.086086
C118	C	1.710360	-0.329797	0.413914
C119	C	1.171571	-0.804109	-0.144425
C120	C	1.671571	-0.304109	0.355575
C121	C	1.210069	-0.304360	-0.086062
C122	C	1.710069	0.195640	0.413938
C123	C	1.210034	-0.257444	-0.086061
C124	C	1.710034	0.242556	0.413939
C125	C	1.132474	-0.252986	-0.202733
C126	C	1.632474	0.247014	0.297267
C127	C	1.132505	-0.299898	-0.202732
C128	C	1.632505	0.200102	0.297268
C129	C	1.171308	-0.325583	-0.144393
C130	C	1.671308	0.174417	0.355607
O131	O	1.099577	-0.372224	-0.252299
O132	O	1.599577	0.127776	0.247701
O133	O	1.243109	-0.380507	-0.036464
O134	O	1.743109	0.119493	0.463536
C135	C	1.210242	-0.590527	-0.086082
C136	C	1.710242	-0.090527	0.413918
C137	C	1.171479	-0.611751	-0.144418
C138	C	1.671479	-0.111751	0.355582
C139	C	1.132687	-0.586063	-0.202750
C140	C	1.632687	-0.086063	0.297250
C141	C	1.171501	-0.658666	-0.144420
C142	C	1.671501	-0.158666	0.355580
C143	C	1.210293	-0.684354	-0.086088
C144	C	1.710293	-0.184354	0.413912
C145	C	1.249062	-0.663127	-0.027755
C146	C	1.749062	-0.163127	0.472245
C147	C	1.249033	-0.616215	-0.027751
C148	C	1.749033	-0.116215	0.472249
C149	C	1.093918	-0.607290	-0.261082
C150	C	1.593918	-0.107290	0.238918
C151	C	1.093949	-0.654202	-0.261082
C152	C	1.593949	-0.154202	0.238918
C153	C	1.132741	-0.679890	-0.202750
C154	C	1.632741	-0.179890	0.297250
C155	C	1.369461	-0.046899	-0.104435
C156	C	1.869461	0.453101	0.395565
C157	C	1.453873	-0.039150	-0.087407
C158	C	1.953873	0.460850	0.412593
C159	C	1.211491	-0.037673	-0.342479
C160	C	1.711491	0.462327	0.157521
C161	C	1.228587	-0.025992	-0.426890
C162	C	1.728587	0.474008	0.073110
C163	C	1.171544	0.052117	-0.144418
C164	C	1.671544	0.552117	0.355582
C165	C	1.171616	0.102061	-0.144428
C166	C	1.671616	0.602061	0.355572
C167	C	1.041792	-0.153550	-0.753463
C168	C	1.541792	0.346450	-0.253463
C169	C	1.057872	-0.142567	-0.832777
C170	C	1.557872	0.357433	-0.332777
C171	C	1.155084	-0.076183	-0.813183
C172	C	1.655084	0.423817	-0.313183
C173	C	1.139010	-0.087159	-0.733867
C174	C	1.639010	0.412841	-0.233867
C175	C	1.082364	-0.125843	-0.704013
C176	C	1.582364	0.374157	-0.204013
C177	C	1.179581	-0.059452	-0.684417
C178	C	1.679581	0.440548	-0.184417
C179	C	1.163511	-0.070429	-0.605107
C180	C	1.663511	0.429571	-0.105107
C181	C	1.106869	-0.109113	-0.575246
C182	C	1.606869	0.390887	-0.075246
C183	C	1.066293	-0.136820	-0.624703
C184	C	1.566293	0.363180	-0.124703
C185	C	1.236231	-0.020770	-0.714271
C186	C	1.736231	0.479230	-0.214271
C187	C	1.276802	0.006936	-0.664821
C188	C	1.776802	0.506936	-0.164821
C189	C	1.260728	-0.004039	-0.585510
C190	C	1.760728	0.495961	-0.085510
C191	C	1.204086	-0.042722	-0.555650
C192	C	1.704086	0.457278	-0.055650
C193	C	1.301304	0.023669	-0.536054
C194	C	1.801304	0.523669	-0.036054
C195	C	1.285233	0.012692	-0.456744
C196	C	1.785233	0.512692	0.043256
C197	C	1.188016	-0.053699	-0.476340
C198	C	1.688016	0.446301	0.023660
C199	C	1.131457	-0.092351	0.052925
C200	C	1.631457	0.407649	0.552925
C201	C	1.114508	-0.103892	0.137366
C202	C	1.614508	0.396108	0.637366
H203	H	0.805847	-0.029756	-0.066783
H204	H	1.305847	0.470244	0.433217
H205	H	0.716106	0.003678	0.006640
H206	H	1.216106	0.503678	0.506640
F207	F	0.594804	0.021230	0.045225
F208	F	1.094804	0.521230	0.545225
H209	H	1.062330	-0.586378	-0.308584
H210	H	1.562330	-0.086378	0.191416
F211	F	0.431085	0.006165	0.012160
F212	F	0.931085	0.506165	0.512160
F213	F	1.290268	-0.549724	0.034347
F214	F	1.790268	-0.049724	0.534347
H215	H	1.249315	-0.011835	-0.778851
H216	H	1.749315	0.488165	-0.278851
H217	H	1.322925	0.038432	-0.689139
H218	H	1.822925	0.538432	-0.189139
H219	H	1.101213	-0.804423	-0.250266
H220	H	1.601213	-0.304423	0.249734
F221	F	0.471559	-0.084945	-0.187999
F222	F	0.971559	0.415055	0.312001
F223	F	1.052566	-0.439204	-0.323179
F224	F	1.552566	0.060796	0.176821
H225	H	0.537681	-0.100352	-0.221870
H226	H	1.037681	0.399648	0.278130
H227	H	1.024830	-0.165132	-0.873038
H228	H	1.524830	0.334868	-0.373038
F229	F	1.251619	-0.807214	-0.023992
F230	F	1.751619	-0.307214	0.476008
H231	H	0.864494	-0.051587	-0.114783
H232	H	1.364494	0.448413	0.385217
H233	H	0.756182	-0.144903	-0.319754
H234	H	1.256182	0.355097	0.180246
F235	F	1.091194	-0.225639	-0.264812
F236	F	1.591194	0.274361	0.235188
F237	F	1.290296	-0.593634	0.034343
F238	F	1.790296	-0.093634	0.534343
H239	H	0.627408	-0.133774	-0.295298
H240	H	1.127408	0.366226	0.204702
H241	H	1.201208	-0.044687	-0.837501
H242	H	1.701208	0.455313	-0.337501
F243	F	0.912445	-0.136275	-0.300817
F244	F	1.412445	0.363725	0.199183
H245	H	1.241600	-0.240166	-0.038551
H246	H	1.741600	0.259834	0.461449
F247	F	1.251367	-0.331689	-0.023971
F248	F	1.751367	0.168311	0.476029
H249	H	1.100942	-0.317178	-0.250240
H250	H	1.600942	0.182822	0.249760
H251	H	1.241973	-0.897636	-0.038594
H252	H	1.741973	-0.397636	0.461406
H253	H	1.062297	-0.530732	-0.308595
H254	H	1.562297	-0.030732	0.191405
H255	H	1.280515	-0.458203	0.019767
H256	H	1.780515	0.041797	0.519767
F257	F	1.290345	-0.690475	0.034327
F258	F	1.790345	-0.190475	0.534327
F259	F	1.091554	-0.894835	-0.264847
F260	F	1.591554	-0.394835	0.235153
F261	F	1.052684	-0.676784	-0.323179
F262	F	1.552684	-0.176784	0.176821
F263	F	1.127720	-0.094868	-0.444564
F264	F	1.627720	0.405132	0.055436
F265	F	1.005998	-0.177989	-0.592928
F266	F	1.505998	0.322011	-0.092928
F267	F	1.089768	-0.120797	-0.490835
F268	F	1.589768	0.379203	0.009165
H269	H	0.995647	-0.185041	-0.729159
H270	H	1.495647	0.314959	-0.229159
H271	H	1.347430	0.055163	-0.560372
H272	H	1.847430	0.555163	-0.060372
F273	F	1.328416	0.042179	-0.404112
F274	F	1.828416	0.542179	0.095888
