data_functionalizedCrystal
_audit_creation_method	'MofGen! by Chris Wilmer'
_symmetry_space_group_name_H-M	'P1'
_symmetry_Int_Tables_number	1
_symmetry_cell_setting	triclinic
loop_
_symmetry_equiv_pos_as_xyz
  x,y,z
_cell_length_a	9.065218
_cell_length_b	14.185569
_cell_length_c	9.065215
_cell_angle_alpha	103.352255
_cell_angle_beta	85.015291
_cell_angle_gamma	76.647086
loop_
_atom_site_label
_atom_site_type_symbol
_atom_site_fract_x
_atom_site_fract_y
_atom_site_fract_z
O1	O	1.927375	0.083418	0.249364
O2	O	1.498089	0.083419	0.267111
O3	O	1.721609	0.083415	0.043594
O4	O	1.703855	0.083422	0.472882
O5	O	1.787639	-0.083421	-0.022428
O6	O	1.564119	-0.083417	0.201089
O7	O	1.993404	-0.083418	0.183342
Cu8	Cu	1.784791	-0.098651	0.186188
Cu9	Cu	1.706703	0.098652	0.264266
O10	O	1.769885	-0.083414	0.406860
C11	C	1.476117	0.000001	0.232395
C12	C	1.312274	0.000002	0.227295
N13	N	1.839724	-0.237423	0.131271
C14	C	1.490385	-0.605066	0.480453
C15	C	1.532007	-0.710088	0.438865
C16	C	1.729975	-0.710053	0.241015
C17	C	1.688365	-0.605029	0.282582
C18	C	1.568570	-0.552543	0.402304
C19	C	1.766550	-0.552506	0.204432
C20	C	1.724948	-0.447491	0.246002
C21	C	1.605161	-0.394998	0.365722
C22	C	1.526968	-0.447528	0.443873
C23	C	1.886352	-0.604994	0.084719
C24	C	1.964537	-0.552471	0.006569
C25	C	1.922928	-0.447454	0.048131
C26	C	1.803141	-0.394961	0.167851
C27	C	2.001121	-0.394924	-0.030020
C28	C	1.959519	-0.289908	0.011549
C29	C	1.761539	-0.289946	0.209420
C30	C	2.015375	0.000002	0.218060
C31	C	2.179216	0.000008	0.223162
C32	C	1.752918	-0.000002	-0.044404
C33	C	1.747819	0.000001	-0.208245
N34	N	1.651781	0.237424	0.319172
C35	C	1.738574	0.000005	0.494858
C36	C	1.743671	0.000008	0.658703
H37	H	1.663980	-0.247210	0.306899
H38	H	1.920224	-0.690504	0.050882
H39	H	2.062079	-0.595217	-0.090906
H40	H	2.023188	-0.247144	-0.052088
O41	O	1.560272	-0.281730	0.410553
H42	H	1.659830	-0.254014	0.446649
O43	O	1.397758	-0.390904	0.573001
H44	H	1.350376	-0.445067	0.620370
H45	H	2.098669	-0.437671	-0.127489
O46	O	1.447659	-0.766733	0.523165
H47	H	1.529673	-0.814561	0.576823
O48	O	1.361175	-0.548442	0.609581
H49	H	1.313793	-0.602605	0.656950
H50	H	1.827518	-0.752799	0.143540
