data_functionalizedCrystal
_audit_creation_method	'MofGen! by Chris Wilmer'
_symmetry_space_group_name_H-M	'P1'
_symmetry_Int_Tables_number	1
_symmetry_cell_setting	triclinic
loop_
_symmetry_equiv_pos_as_xyz
  x,y,z
_cell_length_a	6.817900
_cell_length_b	15.301126
_cell_length_c	10.773894
_cell_angle_alpha	96.210204
_cell_angle_beta	96.645922
_cell_angle_gamma	104.177575
loop_
_atom_site_label
_atom_site_type_symbol
_atom_site_fract_x
_atom_site_fract_y
_atom_site_fract_z
V1	V	-3.952252	-0.121442	-0.389313
O2	O	-3.937687	0.009245	-0.381512
O3	O	-3.907641	-0.244078	-0.387026
O4	O	-3.869821	-0.118078	-0.558935
O5	O	-3.975769	-0.117627	-0.208413
V6	V	-4.439799	-0.105987	-0.367630
O7	O	-4.204684	-0.155344	-0.436876
O8	O	-4.637564	-0.072085	-0.320068
O9	O	-4.261203	0.016649	-0.369918
O10	O	-4.571760	-0.236675	-0.375432
O11	O	-4.533678	-0.109802	-0.548531
O12	O	-4.299023	-0.109351	-0.198009
C13	C	-3.754665	-0.274021	-0.380981
C14	C	-3.799251	-0.374269	-0.380241
C15	C	-3.706421	-0.113294	-0.600267
C16	C	-3.720333	-0.111355	-0.738936
C17	C	-4.001183	-0.425904	-0.386130
C18	C	-4.043065	-0.520098	-0.385442
C19	C	-3.883011	-0.562653	-0.378857
C20	C	-3.681062	-0.511010	-0.372972
C21	C	-3.639184	-0.416820	-0.373669
C22	C	-3.768361	-0.707333	-0.371517
C23	C	-3.810240	-0.801530	-0.370818
C24	C	-4.172242	-0.810612	-0.383291
C25	C	-4.130364	-0.716421	-0.383988
C26	C	-3.928417	-0.664785	-0.378100
C27	C	-3.898512	-0.114716	-0.806808
C28	C	-3.912895	-0.112712	-0.950130
C29	C	-4.077522	0.046587	-0.375959
C30	C	-4.012173	0.146834	-0.376707
C31	C	-4.125767	-0.114138	-0.156670
C32	C	-4.091093	-0.116073	-0.018000
H33	H	-4.207495	-0.562136	-0.390240
O34	O	-3.743454	-0.107346	-1.007280
C35	C	-3.593148	-0.026785	-0.954466
H36	H	-3.669537	0.024848	-0.910284
H37	H	-3.480925	-0.042771	-0.878836
C38	C	-3.383546	-0.050351	-1.112885
C39	C	-3.477371	0.013068	-1.058630
H40	H	-3.312121	-0.025769	-1.177136
H41	H	-3.484806	-0.104629	-1.148465
H42	H	-3.290041	-0.063668	-1.049849
H43	H	-3.570892	0.026375	-1.121662
H44	H	-3.376124	0.067349	-1.023063
H45	H	-4.260697	-0.681775	-0.389343
H46	H	-3.578433	-0.106988	-0.786932
H47	H	-3.474753	-0.374779	-0.368879
H48	H	-4.336673	-0.852657	-0.388067
O49	O	-4.156523	-0.384487	-0.392689
C50	C	-4.160001	-0.341604	-0.502055
H51	H	-4.002189	-0.327314	-0.532940
H52	H	-4.277244	-0.388068	-0.580893
C53	C	-4.412431	-0.268849	-0.435367
C54	C	-4.218598	-0.251291	-0.473294
H55	H	-4.448585	-0.213142	-0.417630
H56	H	-4.410094	-0.297743	-0.361687
H57	H	-4.510110	-0.307572	-0.501072
H58	H	-4.120920	-0.212579	-0.407584
H59	H	-4.220920	-0.222388	-0.546963
O60	O	-4.067822	-0.120078	-0.749537
C61	C	-4.107842	-0.199692	-0.691673
H62	H	-4.034999	-0.251357	-0.739409
H63	H	-4.040757	-0.182166	-0.587369
C64	C	-4.430043	-0.177088	-0.646250
C65	C	-4.340591	-0.240546	-0.704888
H66	H	-4.573612	-0.202287	-0.654396
H67	H	-4.403079	-0.123448	-0.685229
H68	H	-4.374118	-0.162488	-0.559335
H69	H	-4.396497	-0.255136	-0.791804
H70	H	-4.367569	-0.294189	-0.665924
H71	H	-3.679913	-0.836179	-0.365493
H72	H	-4.233007	-0.120437	-0.970011
H73	H	-3.603919	-0.665295	-0.366733
H74	H	-3.550747	-0.545667	-0.367618
