data_functionalizedCrystal
_audit_creation_method	'MofGen! by Chris Wilmer'
_symmetry_space_group_name_H-M	'P1'
_symmetry_Int_Tables_number	1
_symmetry_cell_setting	triclinic
loop_
_symmetry_equiv_pos_as_xyz
  x,y,z
_cell_length_a	12.759401
_cell_length_b	29.839131
_cell_length_c	29.839125
_cell_angle_alpha	89.982291
_cell_angle_beta	89.990937
_cell_angle_gamma	90.041581
loop_
_atom_site_label
_atom_site_type_symbol
_atom_site_fract_x
_atom_site_fract_y
_atom_site_fract_z
Zn1	Zn	1.605962	-0.178914	-0.253970
Zn2	Zn	1.605804	-0.254026	-0.178840
Zn3	Zn	1.430293	-0.178911	-0.178857
Zn4	Zn	1.430171	-0.254018	-0.253946
O5	O	1.518058	-0.216468	-0.216403
O6	O	1.752962	-0.188883	-0.244008
O7	O	1.582507	-0.244064	-0.115975
O8	O	1.453714	-0.116045	-0.188838
O9	O	1.752846	-0.244067	-0.188810
O10	O	1.582777	-0.116047	-0.244024
O11	O	1.453560	-0.188878	-0.115987
O12	O	1.283256	-0.188870	-0.188814
O13	O	1.453505	-0.244053	-0.316816
O14	O	1.283166	-0.244051	-0.243981
O15	O	1.582659	-0.188875	-0.316834
O16	O	1.582388	-0.316893	-0.188786
O17	O	1.453352	-0.316887	-0.243965
C18	C	1.245090	-0.216459	-0.216397
C19	C	1.128314	-0.216467	-0.216405
C20	C	1.517868	-0.333190	-0.216381
C21	C	1.517883	-0.383125	-0.216386
C22	C	1.073432	-0.245245	-0.245083
C23	C	0.963708	-0.245251	-0.245088
C24	C	0.963756	-0.187698	-0.187733
C25	C	1.073479	-0.187691	-0.187731
C26	C	1.128267	-0.274021	-0.273758
C27	C	1.073386	-0.302803	-0.302438
C28	C	0.963662	-0.302808	-0.302443
C29	C	0.908819	-0.274033	-0.273768
C30	C	1.585369	-0.692758	-0.187713
C31	C	1.585499	-0.880432	-0.187731
O32	O	1.642727	-0.904688	-0.163334
N33	N	1.518275	-0.903910	-0.216437
C34	C	1.451020	-0.880467	-0.245143
O35	O	1.393853	-0.904743	-0.269564
C36	C	1.450896	-0.692795	-0.245128
C37	C	1.518116	-0.669319	-0.216416
C38	C	1.652585	-0.669283	-0.159004
C39	C	1.652548	-0.622367	-0.158998
C40	C	1.585295	-0.598928	-0.187702
C41	C	1.518079	-0.622403	-0.216410
C42	C	1.383647	-0.669352	-0.273836
C43	C	1.383624	-0.622431	-0.273830
C44	C	1.450844	-0.598956	-0.245119
C45	C	1.450789	-0.552048	-0.245108
N46	N	1.518013	-0.528570	-0.216401
C47	C	1.585265	-0.552010	-0.187698
C48	C	1.451088	-0.978997	-0.245149
C49	C	1.451117	-1.025915	-0.245152
C50	C	1.585598	-1.025877	-0.187740
C51	C	1.585563	-0.978958	-0.187735
C52	C	1.518311	-0.955519	-0.216442
C53	C	1.585182	-0.453484	-0.187688
C54	C	1.585136	-0.406564	-0.187683
C55	C	1.450659	-0.406607	-0.245097
C56	C	1.450701	-0.453522	-0.245100
C57	C	1.517971	-0.476960	-0.216394
O58	O	1.393599	-0.527763	-0.269495
O59	O	1.642440	-0.527726	-0.163289
C60	C	1.585406	-0.739674	-0.187719
C61	C	1.518191	-0.763150	-0.216428
C62	C	1.450938	-0.739710	-0.245131
C63	C	1.518220	-0.810068	-0.216431
C64	C	1.585473	-0.833507	-0.187728
C65	C	1.652696	-0.810029	-0.159022
C66	C	1.652659	-0.763114	-0.159016
C67	C	1.383715	-0.763188	-0.273837
C68	C	1.383756	-0.810104	-0.273840
C69	C	1.451009	-0.833543	-0.245137
C70	C	1.792091	-0.216476	-0.216410
C71	C	1.908868	-0.216480	-0.216412
C72	C	1.518086	-0.216464	-0.333582
C73	C	1.518098	-0.216462	-0.383516
C74	C	1.518277	-0.099289	-0.216435
C75	C	1.518370	-0.049355	-0.216449
C76	C	1.585419	-0.187655	-0.693172
C77	C	1.585471	-0.187617	-0.880845
O78	O	1.642631	-0.163167	-0.905121
N79	N	1.518238	-0.216342	-0.904301
C80	C	1.450981	-0.245076	-0.880836
O81	O	1.393789	-0.269504	-0.905094
C82	C	1.450925	-0.245112	-0.693164
C83	C	1.518170	-0.216388	-0.669710
C84	C	1.652658	-0.158934	-0.669718
C85	C	1.652648	-0.158945	-0.622803
C86	C	1.585400	-0.187678	-0.599341
C87	C	1.518160	-0.216400	-0.622795
C88	C	1.383664	-0.273843	-0.669700
C89	C	1.383654	-0.273849	-0.622779
C90	C	1.450899	-0.245125	-0.599325
C91	C	1.450902	-0.245144	-0.552418
N92	N	1.518135	-0.216420	-0.528961
C93	C	1.585384	-0.187687	-0.552423
C94	C	1.451017	-0.245056	-0.979367
C95	C	1.451033	-0.245047	-1.026285
C96	C	1.585521	-0.187588	-1.026290
C97	C	1.585510	-0.187599	-0.979372
C98	C	1.518251	-0.216331	-0.955911
C99	C	1.585360	-0.187713	-0.453897
C100	C	1.585347	-0.187729	-0.406978
C101	C	1.450855	-0.245187	-0.406976
C102	C	1.450871	-0.245173	-0.453892
C103	C	1.518127	-0.216433	-0.477351
O104	O	1.393763	-0.269578	-0.528113
O105	O	1.642552	-0.163255	-0.528158
C106	C	1.585429	-0.187644	-0.740087
C107	C	1.518189	-0.216365	-0.763541
C108	C	1.450941	-0.245098	-0.740080
C109	C	1.518205	-0.216357	-0.810459
C110	C	1.585454	-0.187624	-0.833921
C111	C	1.652687	-0.158899	-0.810465
C112	C	1.652677	-0.158911	-0.763549
C113	C	1.383707	-0.273823	-0.763536
C114	C	1.383723	-0.273809	-0.810451
C115	C	1.450972	-0.245076	-0.833913
C116	C	1.518090	-0.216439	-0.099681
C117	C	1.518281	-0.216314	-0.049746
H118	H	1.217610	-0.274021	-0.273756
C119	C	1.725425	-0.596802	-0.127846
C120	C	1.710999	-0.550695	-0.133971
C121	C	1.778111	-0.527134	-0.105276
H122	H	1.796049	-0.604407	-0.134421
H123	H	1.710095	-0.604487	-0.097646
H124	H	1.726336	-0.543014	-0.164163
H125	H	1.640389	-0.543076	-0.127392
H126	H	1.762781	-0.534818	-0.075077
H127	H	1.848732	-0.534743	-0.111854
H128	H	1.768326	-0.495848	-0.109425
C129	C	1.378086	-1.051319	-0.276371
C130	C	1.319209	-1.020744	-0.301514
C131	C	1.251935	-1.044127	-0.330284
H132	H	1.332252	-1.069650	-0.259222
H133	H	1.418231	-1.069586	-0.295987
H134	H	1.279067	-1.002484	-0.281900
H135	H	1.365015	-1.002411	-0.318671
H136	H	1.292080	-1.062394	-0.349900
H137	H	1.206108	-1.062457	-0.313132
H138	H	1.211986	-1.023385	-0.347350
H139	H	1.118164	-0.164253	-0.164382
H140	H	1.707396	-0.744003	-0.135636
H141	H	1.707356	-0.688362	-0.135631
H142	H	1.640279	-0.164193	-1.045401
C143	C	0.789689	-0.274104	-0.273839
C144	C	0.753360	-0.305466	-0.305093
C145	C	0.643626	-0.305543	-0.305172
H146	H	0.764819	-0.245148	-0.281682
H147	H	0.764764	-0.281848	-0.244847
H148	H	0.778274	-0.297719	-0.334078
H149	H	0.778200	-0.334426	-0.297256
H150	H	0.618701	-0.313287	-0.276180
H151	H	0.618767	-0.276586	-0.313015
H152	H	0.618963	-0.326824	-0.326374
C153	C	1.377885	-0.479072	-0.276295
C154	C	1.437349	-0.505974	-0.305108
C155	C	1.370313	-0.529518	-0.333850
H156	H	1.337798	-0.458443	-0.293430
H157	H	1.332170	-0.497431	-0.259107
H158	H	1.483045	-0.487616	-0.322294
H159	H	1.477434	-0.526610	-0.287985
H160	H	1.324599	-0.547877	-0.316663
H161	H	1.330230	-0.508886	-0.350982
H162	H	1.410649	-0.547776	-0.353400
H163	H	1.707405	-0.135555	-0.603711
C164	C	1.658664	-0.953553	-0.156547
C165	C	1.717577	-0.984129	-0.131419
C166	C	1.784942	-0.960745	-0.102688
H167	H	1.618616	-0.935273	-0.136916
H168	H	1.704463	-0.935235	-0.173736
H169	H	1.671784	-1.002439	-0.114231
H170	H	1.757647	-1.002410	-0.151038
H171	H	1.830741	-0.942427	-0.119877
H172	H	1.744886	-0.942466	-0.083060
H173	H	1.824929	-0.981487	-0.085638
H174	H	0.918980	-0.326240	-0.325799
C175	C	1.132869	-0.333986	-0.333646
C176	C	1.106239	-0.324265	-0.378116
C177	C	1.161022	-0.352977	-0.406879
H178	H	1.114886	-0.364178	-0.327077
H179	H	1.206086	-0.329858	-0.329567
H180	H	1.033039	-0.328397	-0.382193
H181	H	1.124225	-0.294078	-0.384699
H182	H	1.234239	-0.348850	-0.402799
H183	H	1.143035	-0.383168	-0.400305
H184	H	1.142969	-0.346383	-0.437054
C185	C	1.725737	-0.127808	-0.695245
C186	C	1.793026	-0.153239	-0.722185
C187	C	1.860360	-0.124581	-0.745708
H188	H	1.765874	-0.110695	-0.674603
H189	H	1.685625	-0.108233	-0.713575
H190	H	1.833135	-0.172806	-0.703856
H191	H	1.752919	-0.170352	-0.742835
H192	H	1.820247	-0.105007	-0.764039
H193	H	1.900489	-0.107469	-0.725064
H194	H	1.906017	-0.141832	-0.763993
C195	C	0.904269	-0.156388	-0.156654
C196	C	0.930993	-0.111949	-0.166523
C197	C	0.876204	-0.083095	-0.137904
H198	H	0.922182	-0.162856	-0.126441
H199	H	0.831053	-0.160486	-0.160767
H200	H	1.004193	-0.107853	-0.162406
H201	H	0.913077	-0.105467	-0.196731
H202	H	0.802987	-0.087193	-0.142017
H203	H	0.894121	-0.089567	-0.107692
H204	H	0.894321	-0.052940	-0.144599
H205	H	1.329008	-0.829214	-0.297220
H206	H	1.707453	-0.829122	-0.135649
H207	H	1.396286	-0.268442	-1.045377
H208	H	1.395900	-0.387515	-0.268465
H209	H	1.328905	-0.297233	-0.688788
C210	C	1.658239	-0.381158	-0.156493
C211	C	1.717163	-0.411731	-0.131368
C212	C	1.784524	-0.388346	-0.102637
H213	H	1.618187	-0.362880	-0.136860
H214	H	1.704031	-0.362837	-0.173683
H215	H	1.671376	-0.430045	-0.114179
H216	H	1.757236	-0.430010	-0.150988
H217	H	1.830317	-0.370025	-0.119826
H218	H	1.744465	-0.370069	-0.083007
H219	H	1.824519	-0.409086	-0.085589
C220	C	1.378233	-0.953530	-0.276373
C221	C	1.437641	-0.926567	-0.305201
C222	C	1.370560	-0.903108	-0.333973
H223	H	1.332448	-0.935218	-0.259222
H224	H	1.338225	-0.974223	-0.293492
H225	H	1.477632	-0.905877	-0.288083
H226	H	1.483423	-0.944868	-0.322361
H227	H	1.330551	-0.923801	-0.351092
H228	H	1.324778	-0.884798	-0.316819
H229	H	1.410858	-0.884814	-0.353539
H230	H	1.328945	-0.297222	-0.744438
C231	C	1.310627	-0.694751	-0.305061
C232	C	1.251758	-0.664172	-0.330203
C233	C	1.184489	-0.687552	-0.358979
H234	H	1.264788	-0.713083	-0.287916
H235	H	1.350775	-0.713017	-0.324677
H236	H	1.211613	-0.645914	-0.310589
H237	H	1.297570	-0.645839	-0.347357
H238	H	1.224637	-0.705818	-0.378595
H239	H	1.138657	-0.705884	-0.341831
H240	H	1.144545	-0.666808	-0.376044
C241	C	1.310541	-0.596928	-0.304927
C242	C	1.243233	-0.570025	-0.279467
C243	C	1.175905	-0.546522	-0.308097
H244	H	1.270419	-0.617581	-0.322035
H245	H	1.350656	-0.578574	-0.324508
H246	H	1.203122	-0.588378	-0.259894
H247	H	1.283327	-0.549363	-0.262360
H248	H	1.216020	-0.528168	-0.327678
H249	H	1.135789	-0.567179	-0.325203
H250	H	1.130235	-0.528263	-0.290827
H251	H	1.639961	-0.472561	-0.164314
H252	H	1.328951	-0.744107	-0.297211
C253	C	1.658397	-0.156491	-0.381595
C254	C	1.717268	-0.131317	-0.412188
C255	C	1.784559	-0.102533	-0.388824
H256	H	1.704234	-0.173631	-0.363291
H257	H	1.618264	-0.136895	-0.363303
H258	H	1.757398	-0.150911	-0.430473
H259	H	1.671459	-0.114169	-0.430493
H260	H	1.744425	-0.082937	-0.370532
H261	H	1.830388	-0.119676	-0.370521
H262	H	1.824503	-0.085446	-0.409578
C263	C	1.310602	-0.305101	-0.597389
C264	C	1.251746	-0.330261	-0.627975
C265	C	1.184460	-0.359063	-0.604603
H266	H	1.264755	-0.287975	-0.579081
H267	H	1.350737	-0.324705	-0.579099
H268	H	1.211614	-0.310660	-0.646257
H269	H	1.297565	-0.347397	-0.646283
H270	H	1.224595	-0.378667	-0.586313
H271	H	1.138620	-0.341933	-0.586296
H272	H	1.144525	-0.376140	-0.625352
H273	H	1.640266	-0.164209	-0.960279
H274	H	1.640358	-1.044969	-0.164369
C275	C	1.658209	-0.156456	-0.479386
C276	C	1.598794	-0.127640	-0.506314
C277	C	1.665870	-0.098839	-0.529795
H278	H	1.703982	-0.173585	-0.497725
H279	H	1.698230	-0.139329	-0.458707
H280	H	1.558791	-0.144766	-0.526991
H281	H	1.553023	-0.110501	-0.487986
H282	H	1.705891	-0.081711	-0.509116
H283	H	1.711640	-0.115972	-0.548132
H284	H	1.625566	-0.079281	-0.548065
H285	H	1.396247	-0.268456	-0.960269
H286	H	1.396124	-0.268566	-0.472989
C287	C	1.377881	-0.276331	-0.381417
C288	C	1.392250	-0.270179	-0.335309
C289	C	1.325029	-0.298855	-0.311749
H290	H	1.393125	-0.306535	-0.389046
H291	H	1.307283	-0.269745	-0.389078
H292	H	1.462832	-0.276769	-0.327651
H293	H	1.376999	-0.239981	-0.327667
H294	H	1.254430	-0.292268	-0.319410
H295	H	1.340278	-0.329057	-0.319382
H296	H	1.334762	-0.294682	-0.280463
C297	C	1.725582	-0.127718	-0.836024
C298	C	1.711168	-0.133852	-0.882131
C299	C	1.778280	-0.105131	-0.905693
H300	H	1.796206	-0.134264	-0.828394
H301	H	1.710245	-0.097524	-0.828364
H302	H	1.726513	-0.164039	-0.889788
H303	H	1.640558	-0.127303	-0.889774
H304	H	1.762943	-0.074937	-0.898033
H305	H	1.848900	-0.111679	-0.898059
H306	H	1.768503	-0.109286	-0.936979
H307	H	1.707435	-0.135521	-0.744457
H308	H	1.328965	-0.297203	-0.829543
