data_functionalizedCrystal
_audit_creation_method	'MofGen! by Chris Wilmer'
_symmetry_space_group_name_H-M	'P1'
_symmetry_Int_Tables_number	1
_symmetry_cell_setting	triclinic
loop_
_symmetry_equiv_pos_as_xyz
  x,y,z
_cell_length_a	10.654550
_cell_length_b	13.262508
_cell_length_c	9.730223
_cell_angle_alpha	105.916979
_cell_angle_beta	89.996251
_cell_angle_gamma	84.460192
loop_
_atom_site_label
_atom_site_type_symbol
_atom_site_fract_x
_atom_site_fract_y
_atom_site_fract_z
O1	O	1.667069	0.147419	-0.059293
O2	O	1.301517	0.161465	-0.054020
O3	O	1.493489	0.001719	-0.113741
O4	O	1.475097	0.307165	0.000428
O5	O	1.493487	0.001723	0.114841
O6	O	1.301515	0.161469	0.174561
O7	O	1.667066	0.147423	0.169288
Zn8	Zn	1.484290	0.154447	0.208217
Zn9	Zn	1.484293	0.154442	-0.092949
O10	O	1.475094	0.307169	0.229009
C11	C	1.254723	0.160436	0.059888
C12	C	1.115296	0.157350	0.058743
C13	C	1.035322	0.251406	0.093879
C14	C	0.904316	0.248501	0.092769
C15	C	0.933272	0.057475	0.021379
C16	C	1.064275	0.060382	0.022499
C17	C	1.086343	0.348375	0.130123
C18	C	1.006368	0.442438	0.165260
C19	C	0.875362	0.439533	0.164150
C20	C	0.824332	0.342564	0.127903
C21	C	1.492457	-0.037390	-0.014072
C22	C	1.489370	-0.153929	-0.057639
C23	C	1.480658	-0.482437	0.317966
C24	C	1.483548	-0.372942	0.358902
C25	C	1.485004	-0.318183	0.254770
C26	C	1.483569	-0.372930	0.109696
C27	C	1.480668	-0.482435	0.068756
C28	C	1.485015	-0.318181	0.005560
C29	C	1.483579	-0.372928	-0.139514
C30	C	1.480680	-0.482422	-0.180446
C31	C	1.479224	-0.537181	-0.076314
C32	C	1.487915	-0.208677	0.046500
C33	C	1.487926	-0.208675	-0.202710
C34	C	1.485035	-0.318170	-0.243645
C35	C	1.713860	0.148453	0.055377
C36	C	1.853287	0.151538	0.056513
C37	C	1.476126	0.346279	0.129337
C38	C	1.479213	0.462817	0.172895
N39	N	1.484297	0.154450	0.413755
N40	N	1.484296	0.154430	-0.298489
C41	C	1.569324	0.083739	0.459245
C42	C	1.569321	0.083726	0.603124
C43	C	1.399260	0.225145	0.656011
C44	C	1.399258	0.225152	0.512133
C45	C	1.654364	0.013037	0.360867
C46	C	1.739398	-0.057680	0.406356
C47	C	1.739395	-0.057692	0.550234
C48	C	1.654357	0.013011	0.648623
H49	H	0.891712	-0.021473	-0.008154
H50	H	1.489073	-0.164111	0.164620
H51	H	0.717657	0.340206	0.127024
H52	H	1.330026	0.282710	0.736128
H53	H	1.808627	-0.115250	0.326239
C54	C	1.152251	-0.043077	-0.016169
H55	H	1.103104	-0.101244	-0.037939
H56	H	1.203941	-0.045916	0.062490
H57	H	1.203971	-0.045906	-0.096938
H58	H	1.654376	0.013043	0.243712
H59	H	1.047926	0.521387	0.194782
H60	H	1.654353	0.012988	0.765774
C61	C	1.479045	-0.542665	0.432497
H62	H	1.480309	-0.494380	0.524762
H63	H	1.551055	-0.592857	0.418916
H64	H	1.404751	-0.577901	0.424492
H65	H	1.479500	-0.526993	-0.298574
C66	C	1.230445	0.351569	0.131329
H67	H	1.270768	0.281664	0.105199
H68	H	1.254731	0.387509	0.224467
H69	H	1.254738	0.387491	0.065028
H70	H	1.483865	-0.362760	-0.361767
C71	C	1.475998	-0.657622	-0.121346
H72	H	1.475339	-0.682386	-0.222658
H73	H	1.402185	-0.674899	-0.081779
H74	H	1.548488	-0.689886	-0.087396
C75	C	0.787393	0.542995	0.202800
H76	H	0.836547	0.601158	0.224534
H77	H	0.735664	0.545842	0.283561
H78	H	0.735711	0.545824	0.124123
C79	C	1.488198	-0.197743	0.299797
H80	H	1.488857	-0.172981	0.401109
H81	H	1.415716	-0.165493	0.265830
H82	H	1.562020	-0.180451	0.260249
C83	C	1.485121	-0.312722	0.518467
H84	H	1.487041	-0.239665	0.527935
H85	H	1.557787	-0.338133	0.560173
H86	H	1.411482	-0.323201	0.565735
C87	C	1.489538	-0.148453	-0.317262
H88	H	1.491486	-0.075401	-0.272104
H89	H	1.415919	-0.158922	-0.372378
H90	H	1.562223	-0.173871	-0.377956
C91	C	1.832925	-0.135477	0.600270
H92	H	1.883573	-0.177575	0.521072
H93	H	1.787532	-0.179530	0.639930
H94	H	1.885396	-0.097305	0.670665
C95	C	1.305737	0.302938	0.462089
H96	H	1.255104	0.345055	0.541288
H97	H	1.253269	0.264775	0.391694
H98	H	1.351148	0.346988	0.422431
