data_functionalizedCrystal
_audit_creation_method	'MofGen! by Chris Wilmer'
_symmetry_space_group_name_H-M	'P1'
_symmetry_Int_Tables_number	1
_symmetry_cell_setting	triclinic
loop_
_symmetry_equiv_pos_as_xyz
  x,y,z
_cell_length_a	14.908520
_cell_length_b	13.897449
_cell_length_c	14.908294
_cell_angle_alpha	86.722584
_cell_angle_beta	96.360837
_cell_angle_gamma	86.679392
loop_
_atom_site_label
_atom_site_type_symbol
_atom_site_fract_x
_atom_site_fract_y
_atom_site_fract_z
Zn1	Zn	-0.389882	-1.417713	-0.532597
Zn2	Zn	-0.532527	-1.417604	-0.389967
Zn3	Zn	-0.381184	-1.266289	-0.381252
Zn4	Zn	-0.541200	-1.246498	-0.541273
O5	O	-0.461198	-1.337026	-0.461272
O6	O	-0.408815	-1.552678	-0.513694
O7	O	-0.505181	-1.405769	-0.262151
O8	O	-0.255673	-1.294703	-0.394050
O9	O	-0.513616	-1.552598	-0.408904
O10	O	-0.262064	-1.405954	-0.505243
O11	O	-0.393990	-1.294598	-0.255747
O12	O	-0.402399	-1.128683	-0.402462
O13	O	-0.528397	-1.260974	-0.666783
O14	O	-0.519962	-1.114144	-0.520029
O15	O	-0.417225	-1.386764	-0.660409
O16	O	-0.660342	-1.386579	-0.417317
O17	O	-0.666714	-1.260868	-0.528480
C18	C	-0.461178	-1.086415	-0.461242
C19	C	-0.461193	-0.979199	-0.461252
C20	C	-0.461193	-0.782903	-0.461269
C21	C	-0.461190	-0.892137	-0.461257
C22	C	-0.696372	-1.321589	-0.474806
C23	C	-0.796982	-1.315072	-0.480625
C24	C	-0.979349	-1.433848	-0.375900
C25	C	-1.073881	-1.427727	-0.381365
C26	C	-1.080580	-1.296716	-0.497025
C27	C	-0.986048	-1.302836	-0.491560
C28	C	-0.935435	-1.371403	-0.430994
C29	C	-0.840901	-1.377519	-0.425525
C30	C	-0.847603	-1.246512	-0.541189
C31	C	-0.942135	-1.240392	-0.546654
C32	C	-0.225107	-1.352548	-0.447706
C33	C	-0.124499	-1.359163	-0.441925
C34	C	-0.474748	-1.321673	-0.697356
C35	C	-0.480523	-1.315131	-0.797960
C36	C	-0.461212	-0.588617	-0.461294
C37	C	-0.461202	-0.695832	-0.461281
C38	C	-0.546532	-1.240420	-0.943077
C39	C	-0.541113	-1.246565	-0.848551
C40	C	-0.425345	-1.377554	-0.841903
C41	C	-0.430764	-1.371409	-0.936430
C42	C	-0.491360	-1.302841	-0.987014
C43	C	-0.496783	-1.296701	-1.081542
C44	C	-0.381012	-1.427685	-1.074893
C45	C	-0.375593	-1.433830	-0.980366
C46	C	-0.447635	-1.352379	-0.226104
C47	C	-0.441606	-1.359125	-0.125485
H48	H	-0.799693	-1.433347	-0.376207
N49	N	-0.363449	-1.447575	-0.790210
N50	N	-0.358618	-1.453041	-0.705813
H51	H	-0.314903	-1.502493	-0.669303
H52	H	-0.811838	-1.195663	-0.586048
N53	N	-0.313699	-1.503856	-0.928679
N54	N	-0.308865	-1.509332	-0.844281
H55	H	-0.265152	-1.558790	-0.807776
H56	H	-0.546126	-1.240872	-1.122727
N57	N	-0.608428	-1.170392	-0.994759
N58	N	-0.669135	-1.197104	-1.050829
H59	H	-0.712851	-1.147644	-1.087327
N60	N	-1.132273	-1.226669	-0.558884
N61	N	-1.093057	-1.170913	-0.608070
H62	H	-1.129565	-1.121440	-0.651757
N63	N	-0.597470	-1.182792	-0.803684
N64	N	-0.651563	-1.121575	-0.848863
H65	H	-0.691367	-1.076530	-0.817177
H66	H	-0.336089	-1.478514	-1.110676
H67	H	-0.938139	-1.489672	-0.326579
N68	N	-1.118751	-1.491495	-0.325084
N69	N	-1.203154	-1.486020	-0.329968
H70	H	-1.234846	-1.531058	-0.290217
H71	H	-0.983356	-1.184569	-0.595967
