data_functionalizedCrystal
_audit_creation_method	'MofGen! by Chris Wilmer'
_symmetry_space_group_name_H-M	'P1'
_symmetry_Int_Tables_number	1
_symmetry_cell_setting	triclinic
loop_
_symmetry_equiv_pos_as_xyz
  x,y,z
_cell_length_a	18.101398
_cell_length_b	18.101395
_cell_length_c	18.101389
_cell_angle_alpha	89.983159
_cell_angle_beta	89.990255
_cell_angle_gamma	90.026661
loop_
_atom_site_label
_atom_site_type_symbol
_atom_site_fract_x
_atom_site_fract_y
_atom_site_fract_z
Zn1	Zn	1.132121	-0.294995	-0.418559
Zn2	Zn	1.632121	0.205005	0.081441
Zn3	Zn	1.132017	-0.418821	-0.294721
Zn4	Zn	1.632017	0.081179	0.205279
Zn5	Zn	1.008280	-0.294988	-0.294751
Zn6	Zn	1.508280	0.205012	0.205249
Zn7	Zn	1.008231	-0.418790	-0.418541
Zn8	Zn	1.508231	0.081210	0.081459
O9	O	1.070162	-0.356898	-0.356643
O10	O	1.570162	0.143102	0.143357
O11	O	1.235740	-0.311437	-0.402126
O12	O	1.735740	0.188563	0.097874
O13	O	1.115580	-0.402404	-0.191092
O14	O	1.615580	0.097596	0.308908
O15	O	1.024772	-0.191356	-0.311195
O16	O	1.524772	0.308644	0.188805
O17	O	1.235663	-0.402411	-0.311143
O18	O	1.735663	0.097589	0.188857
O19	O	1.115757	-0.191361	-0.402156
O20	O	1.615757	0.308639	0.097844
O21	O	1.024671	-0.311425	-0.191114
O22	O	1.524671	0.188575	0.308886
O23	O	0.904640	-0.311395	-0.311178
O24	O	1.404640	0.188605	0.188822
O25	O	1.024688	-0.402358	-0.522176
O26	O	1.524688	0.097642	-0.022176
O27	O	0.904604	-0.402351	-0.402125
O28	O	1.404604	0.097649	0.097875
O29	O	1.115710	-0.311407	-0.522189
O30	O	1.615710	0.188593	-0.022189
O31	O	1.115532	-0.522450	-0.311125
O32	O	1.615532	-0.022450	0.188875
O33	O	1.024587	-0.522427	-0.402095
O34	O	1.524587	-0.022427	0.097905
C35	C	0.877751	-0.356869	-0.356653
C36	C	1.377751	0.143131	0.143347
C37	C	0.795437	-0.356875	-0.356675
C38	C	1.295437	0.143125	0.143325
C39	C	0.496346	-0.356918	-0.356644
C40	C	0.996346	0.143082	0.143356
C41	C	0.527674	-0.414422	-0.413583
C42	C	1.027674	0.085578	0.086417
C43	C	0.613292	-0.414242	-0.413817
C44	C	1.113292	0.085758	0.086183
C45	C	0.644729	-0.356897	-0.356660
C46	C	1.144729	0.143103	0.143340
C47	C	0.613675	-0.278899	-0.377985
C48	C	1.113675	0.221101	0.122015
C49	C	0.528029	-0.279244	-0.378390
C50	C	1.028029	0.220756	0.121610
C51	C	0.527894	-0.376725	-0.278242
C52	C	1.027894	0.123275	0.221758
C53	C	0.613544	-0.378437	-0.278661
C54	C	1.113544	0.121563	0.221339
C55	C	0.728588	-0.356881	-0.356667
C56	C	1.228588	0.143119	0.143333
C57	C	0.412487	-0.356930	-0.356639
C58	C	0.912487	0.143070	0.143361
C59	C	1.070063	-0.549309	-0.356621
C60	C	1.570063	-0.049309	0.143379
C61	C	1.070088	-0.631623	-0.356637
C62	C	1.570088	-0.131623	0.143363
C63	C	1.070251	-0.930714	-0.356676
C64	C	1.570251	-0.430714	0.143324
C65	C	1.013163	-0.899405	-0.414054
C66	C	1.513163	-0.399405	0.085946
C67	C	1.012892	-0.813787	-0.413875
C68	C	1.512892	-0.313787	0.086125
C69	C	1.070170	-0.782331	-0.356657
C70	C	1.570170	-0.282331	0.143343
C71	C	1.049041	-0.813467	-0.278611
C72	C	1.549041	-0.313467	0.221389
C73	C	1.048673	-0.899112	-0.278955
C74	C	1.548673	-0.399112	0.221045
C75	C	1.148592	-0.899067	-0.376658
C76	C	1.648592	-0.399067	0.123342
C77	C	1.148132	-0.813417	-0.378369
C78	C	1.648132	-0.313417	0.121631
C79	C	1.070126	-0.698472	-0.356642
C80	C	1.570126	-0.198472	0.143358
C81	C	1.070293	-1.014573	-0.356687
C82	C	1.570293	-0.514573	0.143313
C83	C	1.263324	-0.356928	-0.356633
C84	C	1.763324	0.143072	0.143367
C85	C	1.345638	-0.356941	-0.356629
C86	C	1.845638	0.143059	0.143371
C87	C	1.070205	-0.356880	-0.549805
C88	C	1.570205	0.143120	-0.049805
C89	C	1.070223	-0.356872	-0.632119
C90	C	1.570223	0.143128	-0.132119
C91	C	1.070282	-0.163736	-0.356681
C92	C	1.570282	0.336264	0.143319
C93	C	1.070333	-0.081422	-0.356697
C94	C	1.570333	0.418578	0.143303
C95	C	1.070266	-0.356733	-0.931210
C96	C	1.570266	0.143267	-0.431210
C97	C	1.012801	-0.413775	-0.899877
C98	C	1.512801	0.086225	-0.399877
C99	C	1.012956	-0.414040	-0.814258
C100	C	1.512956	0.085960	-0.314258
C101	C	1.070244	-0.356802	-0.782827
C102	C	1.570244	0.143198	-0.282827
C103	C	1.148270	-0.377992	-0.813914
C104	C	1.648270	0.122008	-0.313914
C105	C	1.147949	-0.378366	-0.899559
C106	C	1.647949	0.121634	-0.399559
C107	C	1.050385	-0.278374	-0.899637
C108	C	1.550385	0.221626	-0.399637
C109	C	1.048649	-0.278826	-0.813987
C110	C	1.548649	0.221174	-0.313987
C111	C	1.070236	-0.356839	-0.698968
C112	C	1.570236	0.143161	-0.198968
C113	C	1.070279	-0.356697	-1.015070
C114	C	1.570279	0.143303	-0.515070
C115	C	1.070162	-0.356864	-0.164232
C116	C	1.570162	0.143136	0.335768
C117	C	1.070287	-0.356663	-0.081919
C118	C	1.570287	0.143337	0.418081
H119	H	0.507635	-0.334839	-0.235817
H120	H	1.007635	0.165161	0.264183
N121	N	1.102372	-0.786476	-0.220429
N122	N	1.602372	-0.286476	0.279571
H123	H	1.127420	-0.830166	-0.196421
H124	H	1.627420	-0.330166	0.303579
H125	H	1.140794	-0.753715	-0.244210
H126	H	1.640794	-0.253715	0.255790
N127	N	0.499199	-0.397278	-0.490091
N128	N	0.999199	0.102722	0.009909
H129	H	0.519587	-0.434470	-0.526328
H130	H	1.019587	0.065530	-0.026328
H131	H	0.443463	-0.399851	-0.490156
H132	H	0.943463	0.100149	0.009844
N133	N	0.640656	-0.220602	-0.324776
N134	N	1.140656	0.279398	0.175224
H135	H	0.620019	-0.170917	-0.339543
H136	H	1.120019	0.329083	0.160457
H137	H	0.623617	-0.233270	-0.273171
H138	H	1.123617	0.266730	0.226829
H139	H	1.191125	-0.919313	-0.334867
H140	H	1.691125	-0.419313	0.165133
H141	H	0.507308	-0.234865	-0.338820
H142	H	1.007308	0.265135	0.161180
N143	N	1.206596	-0.325737	-0.927020
N144	N	1.706596	0.174263	-0.427020
H145	H	1.243688	-0.353667	-0.957943
H146	H	1.743688	0.146333	-0.457943
H147	H	1.182792	-0.285903	-0.957992
H148	H	1.682792	0.214097	-0.457992
H149	H	1.026111	-0.792735	-0.471746
H150	H	1.526111	-0.292735	0.028254
H151	H	0.992380	-0.792075	-0.261380
H152	H	1.492380	-0.292075	0.238620
N153	N	1.101333	-0.926553	-0.220375
N154	N	1.601333	-0.426553	0.279625
H155	H	1.101499	-0.982349	-0.220136
H156	H	1.601499	-0.482349	0.279864
H157	H	1.152733	-0.907801	-0.231359
H158	H	1.652733	-0.407801	0.268641
H159	H	1.167856	-0.920627	-0.432598
H160	H	1.667856	-0.420627	0.067402
N161	N	1.169246	-0.786462	-0.454450
N162	N	1.669246	-0.286462	0.045550
H163	H	1.128487	-0.754247	-0.474773
H164	H	1.628487	-0.254247	0.025227
H165	H	1.216483	-0.756919	-0.451262
H166	H	1.716483	-0.256919	0.048738
H167	H	0.991406	-0.919148	-0.262027
H168	H	1.491406	-0.419148	0.237973
N169	N	0.499264	-0.450772	-0.252566
N170	N	0.999264	0.049228	0.247434
H171	H	0.520193	-0.462392	-0.202168
H172	H	1.020193	0.037608	0.297832
H173	H	0.443567	-0.449182	-0.249668
H174	H	0.943567	0.050818	0.250332
H175	H	0.955448	-0.920985	-0.400987
H176	H	1.455448	-0.420985	0.099013
N177	N	1.207459	-0.785048	-0.327054
N178	N	1.707459	-0.285048	0.172946
H179	H	1.184537	-0.751497	-0.288831
H180	H	1.684537	-0.251497	0.211169
H181	H	1.232132	-0.828127	-0.301597
H182	H	1.732132	-0.328127	0.198403
N183	N	1.030015	-0.490245	-0.928377
N184	N	1.530015	0.009755	-0.428377
H185	H	0.992847	-0.526548	-0.907986
H186	H	1.492847	-0.026548	-0.407986
H187	H	1.027457	-0.490291	-0.984113
H188	H	1.527457	0.009709	-0.484113
H189	H	0.508068	-0.262443	-0.435705
H190	H	1.008068	0.237557	0.064295
N191	N	0.936325	-0.396443	-0.786409
N192	N	1.436325	0.103557	-0.286409
H193	H	0.902139	-0.388447	-0.829769
H194	H	1.402139	0.111553	-0.329769
H195	H	0.917555	-0.438944	-0.755489
H196	H	1.417555	0.061056	-0.255489
N197	N	1.030489	-0.926640	-0.490962
N198	N	1.530489	-0.426640	0.009038
H199	H	1.075511	-0.959539	-0.489359
H200	H	1.575511	-0.459539	0.010641
H201	H	0.987002	-0.955533	-0.510650
H202	H	1.487002	-0.455533	-0.010650
N203	N	0.935927	-0.396377	-0.927151
N204	N	1.435927	0.103623	-0.427151
H205	H	0.934979	-0.398668	-0.982892
H206	H	1.434979	0.101332	-0.482892
H207	H	0.899953	-0.433636	-0.906354
H208	H	1.399953	0.066364	-0.406354
N209	N	1.030338	-0.490974	-0.787116
N210	N	1.530338	0.009026	-0.287116
H211	H	1.037937	-0.524846	-0.830787
H212	H	1.537937	-0.024846	-0.330787
H213	H	1.076778	-0.489710	-0.756224
H214	H	1.576778	0.010290	-0.256224
H215	H	1.092240	-0.235875	-0.919901
H216	H	1.592240	0.264125	-0.419901
H217	H	1.087450	-0.234070	-0.792592
H218	H	1.587450	0.265930	-0.292592
N219	N	1.170274	-0.454239	-0.926033
N220	N	1.670274	0.045761	-0.426033
H221	H	1.180229	-0.487128	-0.882069
H222	H	1.680229	0.012872	-0.382069
H223	H	1.129076	-0.476093	-0.956664
H224	H	1.629076	0.023907	-0.456664
N225	N	0.935977	-0.786716	-0.396339
N226	N	1.435977	-0.286716	0.103661
H227	H	0.902117	-0.830419	-0.388692
H228	H	1.402117	-0.330419	0.111308
H229	H	0.937308	-0.755853	-0.349886
H230	H	1.437308	-0.255853	0.150114
H231	H	1.192236	-0.337751	-0.793556
H232	H	1.692236	0.162249	-0.293556
H233	H	1.165415	-0.434665	-0.792469
H234	H	1.665415	0.065335	-0.292469
H235	H	0.994478	-0.259069	-0.921237
H236	H	1.494478	0.240931	-0.421237
N237	N	0.972593	-0.257650	-0.787074
N238	N	1.472593	0.242350	-0.287074
H239	H	0.952205	-0.298390	-0.754831
H240	H	1.452205	0.201610	-0.254831
H241	H	0.975845	-0.210414	-0.757570
H242	H	1.475845	0.289586	-0.257570
N243	N	0.642100	-0.256235	-0.453080
N244	N	1.142100	0.243765	0.046920
H245	H	0.675086	-0.296373	-0.473394
H246	H	1.175086	0.203627	0.026606
H247	H	0.599012	-0.248299	-0.487617
H248	H	1.099012	0.251701	0.012383
H249	H	0.507058	-0.472452	-0.400367
H250	H	1.007058	0.027548	0.099633
N251	N	0.641110	-0.490856	-0.396112
N252	N	1.141110	0.009144	0.103888
H253	H	0.597736	-0.525049	-0.388086
H254	H	1.097736	-0.025049	0.111914
H255	H	0.672028	-0.509636	-0.438584
H256	H	1.172028	-0.009636	0.061416
H257	H	0.633794	-0.401138	-0.471908
H258	H	1.133794	0.098862	0.028092
H259	H	0.634944	-0.339594	-0.233959
H260	H	1.134944	0.160406	0.266041
N261	N	0.640495	-0.454432	-0.257316
N262	N	1.140495	0.045568	0.242684
H263	H	0.672764	-0.474832	-0.298000
H264	H	1.172764	0.025168	0.202000
H265	H	0.669989	-0.451056	-0.210080
H266	H	1.169989	0.048944	0.289920
