data_functionalizedCrystal
_audit_creation_method	'MofGen! by Chris Wilmer'
_symmetry_space_group_name_H-M	'P1'
_symmetry_Int_Tables_number	1
_symmetry_cell_setting	triclinic
loop_
_symmetry_equiv_pos_as_xyz
  x,y,z
_cell_length_a	16.109318
_cell_length_b	13.262508
_cell_length_c	15.186229
_cell_angle_alpha	105.914579
_cell_angle_beta	90.000224
_cell_angle_gamma	83.969745
loop_
_atom_site_label
_atom_site_type_symbol
_atom_site_fract_x
_atom_site_fract_y
_atom_site_fract_z
O1	O	1.103616	0.134995	-0.040821
O2	O	0.861618	0.151765	-0.036822
O3	O	0.988707	-0.009410	-0.075412
O4	O	0.976527	0.296170	-0.002231
O5	O	0.988698	-0.009412	0.071045
O6	O	0.861609	0.151763	0.109635
O7	O	1.103608	0.134993	0.105636
Zn8	Zn	0.982607	0.143378	0.130889
Zn9	Zn	0.982618	0.143381	-0.062074
O10	O	0.976519	0.296168	0.144226
C11	C	0.830636	0.151082	0.036241
C12	C	0.738334	0.149036	0.035744
C13	C	0.439241	0.142428	-0.045657
C14	C	0.525969	0.144344	-0.045203
C15	C	0.525979	0.144327	0.114469
C16	C	0.439253	0.142404	0.114012
C17	C	0.395886	0.141460	0.033949
C18	C	0.569340	0.145299	0.034858
C19	C	0.663375	0.147376	0.035350
C20	C	0.301845	0.139381	0.033456
C21	C	0.988020	-0.048514	-0.011550
C22	C	0.985978	-0.165028	-0.039459
C23	C	0.980199	-0.493482	0.201213
C24	C	0.982111	-0.384009	0.227437
C25	C	0.983078	-0.329259	0.160715
C26	C	0.982133	-0.383991	0.067765
C27	C	0.980214	-0.493473	0.041540
C28	C	0.983093	-0.329250	0.001041
C29	C	0.982147	-0.383983	-0.091908
C30	C	0.980229	-0.493454	-0.118129
C31	C	0.979262	-0.548205	-0.051408
C32	C	0.985012	-0.219768	0.027267
C33	C	0.985027	-0.219760	-0.132407
C34	C	0.983114	-0.329232	-0.158630
C35	C	1.134589	0.135677	0.032571
C36	C	1.226891	0.137723	0.033062
C37	C	0.977205	0.335272	0.080362
C38	C	0.979247	0.451787	0.108266
N39	N	0.982606	0.143375	0.262581
N40	N	0.982627	0.143375	-0.193768
C41	C	1.038900	0.072031	0.471222
C42	C	1.038903	0.072028	0.563411
C43	C	0.926326	0.214723	0.597585
C44	C	0.926320	0.214720	0.505396
C45	C	0.982612	0.143375	0.442217
C46	C	0.982620	0.143376	0.626595
C47	C	0.982623	0.143373	0.726551
C48	C	0.982609	0.143375	0.342255
H49	H	0.984634	-0.240121	0.182072
H50	H	0.979452	-0.538013	-0.193815
H51	H	0.979406	-0.538069	0.255528
O52	O	0.983081	-0.331017	0.317758
C53	C	0.982844	-0.342582	0.473364
C54	C	0.981753	-0.402729	0.371102
H55	H	0.981754	-0.400531	0.516522
H56	H	1.041874	-0.300987	0.487374
H57	H	0.925647	-0.281676	0.491903
H58	H	1.038910	-0.463685	0.352492
H59	H	0.922686	-0.444251	0.357146
O60	O	0.568140	0.145104	-0.122552
C61	C	0.675186	0.056447	-0.236446
C62	C	0.627480	0.055444	-0.148857
H63	H	0.723185	-0.016024	-0.257730
H64	H	0.629334	0.055375	-0.293796
H65	H	0.708395	0.130787	-0.222618
H66	H	0.594268	-0.018884	-0.162596
H67	H	0.673371	0.056572	-0.091536
O68	O	0.396982	0.141545	-0.123340
C69	C	0.263380	0.138521	-0.194828
C70	C	0.311129	0.139548	-0.106780
H71	H	0.193962	0.136885	-0.181476
H72	H	0.273012	0.212324	-0.216536
H73	H	0.287834	0.065511	-0.251684
H74	H	0.286706	0.212510	-0.049866
H75	H	0.301498	0.065697	-0.085151
O76	O	0.568213	0.145115	0.192151
C77	C	0.675208	0.056378	0.263582
C78	C	0.627459	0.055364	0.175537
H79	H	0.723107	-0.016189	0.250186
H80	H	0.708515	0.130640	0.285371
H81	H	0.629301	0.055405	0.320399
H82	H	0.673309	0.056299	0.118661
H83	H	0.594139	-0.018891	0.153826
O84	O	0.397256	0.141514	0.191437
C85	C	0.406416	0.141634	0.349842
C86	C	0.454078	0.142675	0.262237
H87	H	0.452339	0.142550	0.407102
H88	H	0.358478	0.214157	0.371267
H89	H	0.373146	0.067340	0.335987
H90	H	0.487399	0.216920	0.276021
H91	H	0.501969	0.070102	0.240837
H92	H	0.985774	-0.175215	0.102947
H93	H	0.977709	-0.637347	-0.072754
H94	H	0.982344	-0.373811	-0.234311
O95	O	0.985818	-0.166473	-0.197157
C96	C	0.915930	-0.031060	-0.257412
C97	C	0.914971	-0.091305	-0.184016
H98	H	0.858648	0.029711	-0.246825
H99	H	0.974887	0.010678	-0.251471
H100	H	0.914939	-0.089034	-0.328325
H101	H	0.915931	-0.033401	-0.113070
H102	H	0.856019	-0.133060	-0.190038
H103	H	1.084735	0.013936	0.419782
O104	O	1.093663	0.002687	0.591440
C105	C	1.205291	-0.138886	0.547799
C106	C	1.143332	-0.060393	0.515939
H107	H	1.245452	-0.189921	0.486770
H108	H	1.247036	-0.093607	0.601776
H109	H	1.169205	-0.191290	0.578435
H110	H	1.179349	-0.007969	0.485260
H111	H	1.101586	-0.105737	0.462002
H112	H	0.880480	0.272817	0.481781
O113	O	0.871570	0.284066	0.658832
C114	C	0.759938	0.425635	0.683006
C115	C	0.821893	0.347144	0.613547
H116	H	0.719771	0.476670	0.646423
H117	H	0.718198	0.380355	0.715302
H118	H	0.796027	0.478041	0.738736
H119	H	0.785872	0.294718	0.557764
H120	H	0.863633	0.392490	0.581322
