data_functionalizedCrystal
_audit_creation_method	'MofGen! by Chris Wilmer'
_symmetry_space_group_name_H-M	'P1'
_symmetry_Int_Tables_number	1
_symmetry_cell_setting	triclinic
loop_
_symmetry_equiv_pos_as_xyz
  x,y,z
_cell_length_a	10.723023
_cell_length_b	10.967829
_cell_length_c	9.198806
_cell_angle_alpha	77.868939
_cell_angle_beta	89.996513
_cell_angle_gamma	84.591615
loop_
_atom_site_label
_atom_site_type_symbol
_atom_site_fract_x
_atom_site_fract_y
_atom_site_fract_z
O1	O	1.657191	0.175021	-0.164720
O2	O	2.157191	0.675021	0.335280
O3	O	1.294038	0.191776	-0.168923
O4	O	1.794038	0.691776	0.331077
O5	O	1.483989	0.001821	-0.121327
O6	O	1.983989	0.501821	0.378673
O7	O	1.467240	0.364977	-0.212316
O8	O	1.967240	0.864977	0.287684
O9	O	1.483974	0.001820	0.120458
O10	O	1.983974	0.501820	0.620458
O11	O	1.294023	0.191775	0.072862
O12	O	1.794023	0.691775	0.572862
O13	O	1.657175	0.175021	0.077065
O14	O	2.157175	0.675021	0.577065
Cu15	Cu	1.475598	0.183398	0.097040
Cu16	Cu	1.975598	0.683398	0.597040
Cu17	Cu	1.475616	0.183399	-0.188899
Cu18	Cu	1.975616	0.683399	0.311101
O19	O	1.467225	0.364976	0.029469
O20	O	1.967225	0.864976	0.529469
C21	C	1.247531	0.190557	-0.047726
C22	C	1.747531	0.690557	0.452274
C23	C	1.108977	0.186909	-0.046815
C24	C	1.608977	0.686909	0.453185
C25	C	1.047197	0.185283	0.078844
C26	C	1.547197	0.685283	0.578844
C27	C	0.903994	0.181513	0.079789
C28	C	1.403994	0.681513	0.579789
C29	C	1.482761	-0.044680	0.011213
C30	C	1.982761	0.455320	0.511213
C31	C	1.479112	-0.183235	0.045919
C32	C	1.979112	0.316765	0.545919
C33	C	1.477493	-0.245001	-0.063861
C34	C	1.977493	0.254999	0.436139
C35	C	1.473721	-0.388205	-0.027994
C36	C	1.973721	0.111795	0.472006
C37	C	1.703683	0.176240	-0.044135
C38	C	2.203683	0.676240	0.455865
C39	C	1.842237	0.179888	-0.045057
C40	C	2.342237	0.679888	0.454943
C41	C	1.468452	0.411476	-0.103075
C42	C	1.968452	0.911476	0.396925
C43	C	1.472102	0.550032	-0.137790
C44	C	1.972102	1.050032	0.362210
N45	N	1.475594	0.183397	0.298155
N46	N	1.975594	0.683397	0.798155
N47	N	1.475629	0.183390	-0.390010
N48	N	1.975629	0.683390	0.109990
C49	C	1.555349	0.103289	0.390424
C50	C	2.055349	0.603289	0.890424
C51	C	1.555369	0.103284	0.557837
C52	C	2.055369	0.603284	1.057837
H53	H	0.895357	0.181293	-0.152646
H54	H	1.395357	0.681293	0.347354
H55	H	1.477698	-0.236372	0.166459
H56	H	1.977698	0.263628	0.666459
Cl57	Cl	1.370184	0.289279	0.367535
Cl58	Cl	1.870184	0.789279	0.867535
Cl59	Cl	1.660469	-0.002882	0.321116
Cl60	Cl	2.160469	0.497118	0.821116
H61	H	1.478894	-0.191862	-0.184402
H62	H	1.978894	0.308138	0.315598
H63	H	1.472307	-0.441338	0.092555
H64	H	1.972307	0.058662	0.592555
H65	H	0.850864	0.180121	0.187369
H66	H	1.350864	0.680121	0.687369
Cl67	Cl	1.660801	-0.002603	0.680219
Cl68	Cl	2.160801	0.497397	1.180219
H69	H	1.473493	-0.396835	-0.258340
H70	H	1.973493	0.103165	0.241660
Cl71	Cl	1.129208	0.187439	0.243870
Cl72	Cl	1.629208	0.687439	0.743870
H73	H	1.055852	0.185508	-0.153695
H74	H	1.555852	0.685508	0.346305
H75	H	1.407349	0.251982	0.530726
H76	H	1.907349	0.751982	1.030726
