data_functionalizedCrystal
_audit_creation_method	'MofGen! by Chris Wilmer'
_symmetry_space_group_name_H-M	'P1'
_symmetry_Int_Tables_number	1
_symmetry_cell_setting	triclinic
loop_
_symmetry_equiv_pos_as_xyz
  x,y,z
_cell_length_a	12.759401
_cell_length_b	19.076808
_cell_length_c	19.077271
_cell_angle_alpha	85.283144
_cell_angle_beta	92.285453
_cell_angle_gamma	92.322593
loop_
_atom_site_label
_atom_site_type_symbol
_atom_site_fract_x
_atom_site_fract_y
_atom_site_fract_z
Zn1	Zn	1.567036	-0.264683	-0.387256
Zn2	Zn	1.566911	-0.387318	-0.264627
Zn3	Zn	1.398135	-0.269439	-0.269387
Zn4	Zn	1.384512	-0.382541	-0.382484
O5	O	1.479148	-0.325995	-0.325939
O6	O	1.714040	-0.280960	-0.370994
O7	O	1.550171	-0.375671	-0.166607
O8	O	1.426293	-0.170151	-0.289012
O9	O	1.713947	-0.371059	-0.280899
O10	O	1.550385	-0.166657	-0.375610
O11	O	1.426172	-0.289065	-0.170104
O12	O	1.249307	-0.284433	-0.284385
O13	O	1.403076	-0.362917	-0.481768
O14	O	1.239299	-0.367529	-0.367476
O15	O	1.537175	-0.276328	-0.485275
O16	O	1.536962	-0.485341	-0.276272
O17	O	1.402954	-0.481831	-0.362860
C18	C	1.206183	-0.325979	-0.325929
C19	C	1.089405	-0.325988	-0.325942
C20	C	1.034575	-0.279156	-0.372920
C21	C	0.924850	-0.279169	-0.372924
C22	C	0.924794	-0.372854	-0.278968
C23	C	1.034517	-0.372836	-0.278962
C24	C	1.034606	-0.225070	-0.427167
C25	C	0.924881	-0.225083	-0.427171
C26	C	1.468494	-0.509166	-0.318547
C27	C	1.464030	-0.587526	-0.315408
C28	C	1.526489	-0.622459	-0.359057
C29	C	1.522291	-0.696087	-0.356109
C30	C	1.455639	-0.734781	-0.309509
C31	C	1.393174	-0.699843	-0.265858
C32	C	1.397367	-0.626216	-0.268810
C33	C	1.436170	-0.955182	-0.295845
C34	C	1.431984	-1.028814	-0.292895
C35	C	1.561100	-1.025053	-0.383147
C36	C	1.565292	-0.951425	-0.386092
C37	C	1.502823	-0.916494	-0.342444
N38	N	1.451349	-0.810040	-0.306493
N39	N	1.507108	-0.841235	-0.345464
C40	C	1.753180	-0.326012	-0.325948
C41	C	1.869956	-0.326019	-0.325952
C42	C	1.468620	-0.318559	-0.509816
C43	C	1.464134	-0.315390	-0.588174
C44	C	1.489872	-0.142108	-0.333375
C45	C	1.494442	-0.063747	-0.336543
C46	C	1.431952	-0.292719	-1.029440
C47	C	1.436173	-0.295693	-0.955814
C48	C	1.502837	-0.342275	-0.917180
C49	C	1.565292	-0.385880	-0.952175
C50	C	1.561076	-0.382901	-1.025799
C51	C	1.522373	-0.356016	-0.696792
C52	C	1.526582	-0.358993	-0.623163
C53	C	1.397464	-0.268805	-0.626808
C54	C	1.393249	-0.265834	-0.700433
C55	C	1.455708	-0.309436	-0.735422
N56	N	1.507150	-0.345319	-0.841923
N57	N	1.451400	-0.306388	-0.810677
C58	C	1.489699	-0.333351	-0.142779
C59	C	1.494401	-0.336322	-0.064429
H60	H	1.068370	-0.171028	-0.414838
C61	C	1.074336	-0.248437	-0.495283
C62	C	0.988810	-0.263941	-0.540412
C63	C	1.025370	-0.285461	-0.603168
H64	H	1.114363	-0.289213	-0.485300
H65	H	1.117115	-0.211731	-0.517231
H66	H	0.946049	-0.300644	-0.518468
H67	H	0.948775	-0.223175	-0.550415
H68	H	1.068149	-0.248756	-0.625117
H69	H	1.065397	-0.326236	-0.593178
H70	H	0.967348	-0.295978	-0.633799
H71	H	1.619576	-0.423805	-0.920713
H72	H	1.377703	-1.060317	-0.254946
H73	H	1.377665	-0.254788	-1.060891
C74	C	1.589933	-0.734041	-0.403583
C75	C	1.525412	-0.774487	-0.447062
C76	C	1.587692	-0.809449	-0.490813
H77	H	1.635663	-0.763890	-0.375571
H78	H	1.630208	-0.700467	-0.431793
H79	H	1.485155	-0.808057	-0.418855
H80	H	1.479684	-0.744654	-0.475089
H81	H	1.627967	-0.775875	-0.519023
H82	H	1.633419	-0.839294	-0.462795
H83	H	1.543924	-0.836890	-0.520322
C84	C	0.885181	-0.156873	-0.404027
C85	C	0.970727	-0.111672	-0.388684
C86	C	0.934194	-0.048830	-0.367370
H87	H	0.845126	-0.166730	-0.363226
H88	H	0.842436	-0.135040	-0.440788
H89	H	1.013455	-0.133501	-0.351927
H90	H	1.010790	-0.101795	-0.429475
H91	H	0.891448	-0.026998	-0.404130
H92	H	0.894139	-0.058695	-0.326570
H93	H	0.992230	-0.018152	-0.356963
H94	H	1.346614	-0.233306	-0.598313
C95	C	1.599062	-0.409598	-0.581341
C96	C	1.652875	-0.447136	-0.627740
C97	C	1.719651	-0.493754	-0.589239
H98	H	1.558824	-0.441535	-0.551378
H99	H	1.648110	-0.383816	-0.553720
H100	H	1.603834	-0.472917	-0.655349
H101	H	1.693133	-0.415218	-0.657703
H102	H	1.768699	-0.467972	-0.561618
H103	H	1.679405	-0.525686	-0.559278
H104	H	1.756178	-0.519225	-0.620715
C105	C	1.598827	-0.580328	-0.409582
C106	C	1.589155	-0.508371	-0.402814
C107	C	1.655786	-0.469542	-0.449342
H108	H	1.580063	-0.590386	-0.456488
H109	H	1.669359	-0.592734	-0.398819
H110	H	1.518639	-0.495970	-0.413582
H111	H	1.607927	-0.498292	-0.355918
H112	H	1.726318	-0.481948	-0.438579
H113	H	1.637017	-0.479605	-0.496245
H114	H	1.649240	-0.420716	-0.444751
H115	H	1.338959	-0.227905	-0.731884
H116	H	1.573229	-0.391522	-0.725271
H117	H	0.891138	-0.237590	-0.481155
H118	H	0.880091	-0.410996	-0.240719
C119	C	1.628792	-1.063108	-0.430507
C120	C	1.610838	-1.135868	-0.417964
C121	C	1.673166	-1.170945	-0.461590
H122	H	1.700708	-1.051503	-0.420759
H123	H	1.611317	-1.049157	-0.478362
H124	H	1.628320	-1.149813	-0.370120
H125	H	1.538934	-1.147492	-0.427716
H126	H	1.655691	-1.156994	-0.509444
H127	H	1.745079	-1.159335	-0.451839
H128	H	1.660986	-1.220316	-0.453090
H129	H	1.619565	-0.919922	-0.424037
H130	H	1.385307	-0.926747	-0.260304
C131	C	1.320915	-0.741977	-0.215283
C132	C	1.330632	-0.813934	-0.222024
C133	C	1.264096	-0.852768	-0.175436
H134	H	1.250362	-0.729620	-0.225992
H135	H	1.339757	-0.731873	-0.168393
H136	H	1.311783	-0.824034	-0.268903
H137	H	1.401170	-0.826312	-0.211309
H138	H	1.282938	-0.842664	-0.128545
H139	H	1.193548	-0.840405	-0.186149
H140	H	1.270687	-0.901595	-0.179998
H141	H	1.385320	-0.260188	-0.927329
C142	C	1.329509	-0.588417	-0.221339
C143	C	1.270259	-0.638060	-0.179883
C144	C	1.207739	-0.603267	-0.136141
H145	H	1.283705	-0.558625	-0.249356
H146	H	1.373103	-0.560939	-0.191758
H147	H	1.226669	-0.665527	-0.209461
H148	H	1.316036	-0.667854	-0.151852
H149	H	1.251333	-0.575789	-0.106560
H150	H	1.161942	-0.573476	-0.164164
H151	H	1.167538	-0.636945	-0.108004
H152	H	1.611930	-0.418406	-1.054286
C153	C	1.094241	-0.423602	-0.227982
C154	C	1.202082	-0.413550	-0.238017
C155	C	1.257132	-0.460299	-0.191060
H156	H	1.073062	-0.470607	-0.236260
H157	H	1.079622	-0.415117	-0.181039
H158	H	1.216694	-0.422041	-0.284949
H159	H	1.223292	-0.366555	-0.229734
H160	H	1.242513	-0.451813	-0.144117
H161	H	1.235944	-0.507301	-0.199341
H162	H	1.330308	-0.453480	-0.197857
