data_functionalizedCrystal
_audit_creation_method	'MofGen! by Chris Wilmer'
_symmetry_space_group_name_H-M	'P1'
_symmetry_Int_Tables_number	1
_symmetry_cell_setting	triclinic
loop_
_symmetry_equiv_pos_as_xyz
  x,y,z
_cell_length_a	6.817900
_cell_length_b	11.102250
_cell_length_c	10.943624
_cell_angle_alpha	91.863616
_cell_angle_beta	108.838799
_cell_angle_gamma	108.605052
loop_
_atom_site_label
_atom_site_type_symbol
_atom_site_fract_x
_atom_site_fract_y
_atom_site_fract_z
V1	V	-4.114282	-0.175807	-0.402557
O2	O	-4.073263	0.008482	-0.394888
O3	O	-4.091041	-0.348628	-0.399809
O4	O	-4.092264	-0.173087	-0.578123
O5	O	-4.072031	-0.168273	-0.215340
V6	V	-4.591232	-0.153765	-0.380163
O7	O	-4.389960	-0.224156	-0.451678
O8	O	-4.765752	-0.105416	-0.331042
O9	O	-4.391267	0.019056	-0.382911
O10	O	-4.749649	-0.338054	-0.387832
O11	O	-4.750880	-0.161299	-0.567381
O12	O	-4.390044	-0.156485	-0.204597
C13	C	-3.941308	-0.390758	-0.393460
C14	C	-4.003768	-0.532042	-0.392384
C15	C	-4.030809	-0.713021	-0.272616
C16	C	-3.972124	-0.580272	-0.273636
C17	C	-4.094083	-0.616569	-0.510118
C18	C	-4.152752	-0.749315	-0.509096
C19	C	-3.960405	-0.692064	-0.136085
C20	C	-3.901720	-0.559315	-0.137105
C21	C	-3.942867	-0.166837	-0.620916
C22	C	-4.006314	-0.165758	-0.764442
C23	C	-3.851194	-0.158486	-0.841589
C24	C	-4.039808	-0.266418	-0.947583
C25	C	-3.930779	-0.055914	-0.914189
C26	C	-4.194138	-0.273790	-0.868559
C27	C	-4.085029	-0.063192	-0.835142
C28	C	-4.273779	-0.171154	-0.941106
C29	C	-4.204342	0.061180	-0.389257
C30	C	-4.121122	0.202462	-0.390341
C31	C	-4.202783	-0.162739	-0.161798
C32	C	-4.118573	-0.163812	-0.018270
H33	H	-4.102550	-0.731868	-0.098511
Br34	Br	-4.136991	-0.551115	-0.671277
H35	H	-4.304885	-0.365972	-0.848017
Br36	Br	-3.591967	-0.471291	-0.058512
H37	H	-3.672029	-0.153274	-0.798141
H38	H	-3.820065	0.036144	-0.934949
Br39	Br	-3.706380	-0.730420	-0.040000
Br40	Br	-4.065627	-0.494131	-0.058448
H41	H	-4.021353	-0.352334	-0.996534
H42	H	-4.226264	-0.818125	-0.604958
Br43	Br	-4.572580	-0.180113	-1.013185
Br44	Br	-4.115647	0.080016	-0.753487
