data_functionalizedCrystal
_audit_creation_method	'MofGen! by Chris Wilmer'
_symmetry_space_group_name_H-M	'P1'
_symmetry_Int_Tables_number	1
_symmetry_cell_setting	triclinic
loop_
_symmetry_equiv_pos_as_xyz
  x,y,z
_cell_length_a	10.654550
_cell_length_b	10.868271
_cell_length_c	10.654543
_cell_angle_alpha	90.001425
_cell_angle_beta	95.516448
_cell_angle_gamma	89.998292
loop_
_atom_site_label
_atom_site_type_symbol
_atom_site_fract_x
_atom_site_fract_y
_atom_site_fract_z
O1	O	1.667838	-0.102220	-0.176400
O2	O	1.302359	-0.102242	-0.193206
O3	O	1.493506	-0.102233	-0.002063
O4	O	1.476691	-0.102229	-0.367543
O5	O	1.493487	0.102412	-0.002056
O6	O	1.302341	0.102403	-0.193199
O7	O	1.667819	0.102425	-0.176393
Zn8	Zn	1.485077	0.134906	-0.184795
Zn9	Zn	1.485101	-0.134722	-0.184804
O10	O	1.476673	0.102416	-0.367536
C11	C	1.255552	0.000078	-0.191969
C12	C	1.116109	0.000069	-0.188277
N13	N	1.485070	0.318920	-0.184789
C14	C	1.036620	0.000074	-0.300819
C15	C	0.905600	0.000096	-0.297342
C16	C	0.933568	0.000102	-0.068772
C17	C	1.064586	0.000089	-0.072250
C18	C	1.485086	0.569926	-0.184805
C19	C	1.485073	0.430248	-0.184799
C20	C	1.714627	0.000103	-0.177630
C21	C	1.854070	0.000103	-0.181322
C22	C	1.492264	0.000086	0.044738
C23	C	1.488575	0.000076	0.184182
N24	N	1.485106	0.681263	-0.184805
C25	C	1.601119	0.000078	0.263668
C26	C	1.597645	0.000055	0.394689
C27	C	1.369075	0.000034	0.366726
C28	C	1.372550	0.000047	0.235707
C29	C	1.477921	0.000080	0.585663
C30	C	1.481627	0.000039	0.446222
H31	H	1.078565	0.000067	-0.395295
C32	C	1.693812	0.000024	0.607944
C33	C	1.721356	0.000054	0.482062
H34	H	1.770191	0.000013	0.661882
H35	H	1.646289	0.071377	0.623681
H36	H	1.646293	-0.071352	0.623645
H37	H	1.768868	0.071435	0.466359
H38	H	1.768900	-0.071306	0.466319
H39	H	1.274611	0.000013	0.408694
H40	H	1.280898	0.000042	0.170986
H41	H	0.891602	0.000126	0.025693
C42	C	1.228160	0.105279	0.056443
C43	C	1.151971	0.000083	0.051466
H44	H	1.282101	0.105279	0.132821
H45	H	1.277588	0.105263	-0.013146
H46	H	1.176457	0.176638	0.053052
H47	H	1.203674	-0.071277	0.054849
H48	H	1.102538	0.000087	0.121075
C49	C	1.797009	-0.105116	0.247143
C50	C	1.728649	0.000088	0.207025
H51	H	1.875739	-0.105115	0.212169
H52	H	1.811045	-0.105114	0.336538
H53	H	1.750610	-0.176469	0.219910
H54	H	1.775044	0.071442	0.234266
H55	H	1.714617	0.000098	0.117611
C56	C	0.891123	0.000069	-0.523619
C57	C	0.818226	0.000092	-0.421052
H58	H	0.837179	0.000060	-0.599995
H59	H	0.942810	0.071423	-0.520226
H60	H	0.942804	-0.071306	-0.520206
H61	H	0.766551	0.071472	-0.424460
H62	H	0.766517	-0.071269	-0.424447
