data_functionalizedCrystal
_audit_creation_method	'MofGen! by Chris Wilmer'
_symmetry_space_group_name_H-M	'P1'
_symmetry_Int_Tables_number	1
_symmetry_cell_setting	triclinic
loop_
_symmetry_equiv_pos_as_xyz
  x,y,z
_cell_length_a	16.959455
_cell_length_b	15.297327
_cell_length_c	15.296720
_cell_angle_alpha	72.680778
_cell_angle_beta	80.337093
_cell_angle_gamma	99.703731
loop_
_atom_site_label
_atom_site_type_symbol
_atom_site_fract_x
_atom_site_fract_y
_atom_site_fract_z
Zn1	Zn	1.048938	-0.461286	0.589821
Zn2	Zn	1.048848	-0.589908	0.461216
Zn3	Zn	0.944425	-0.434408	0.434340
Zn4	Zn	0.889073	-0.616741	0.616662
O5	O	0.982821	-0.525586	0.525510
O6	O	1.159532	-0.478367	0.572776
O7	O	1.058124	-0.546802	0.327526
O8	O	0.981492	-0.307838	0.432485
O9	O	1.159466	-0.572865	0.478290
O10	O	1.058277	-0.327585	0.546716
O11	O	0.981405	-0.432557	0.307781
O12	O	0.826477	-0.458576	0.458511
O13	O	0.887152	-0.618598	0.743226
O14	O	0.785810	-0.592535	0.592462
O15	O	1.004604	-0.504386	0.723506
O16	O	1.004451	-0.723603	0.504316
O17	O	0.887065	-0.743317	0.618522
C18	C	0.939759	-0.767206	0.567268
C19	C	0.921404	-0.870578	0.585163
C20	C	0.777464	-0.525551	0.525483
C21	C	0.689604	-0.525563	0.525498
C22	C	1.114278	-1.120811	0.397925
C23	C	1.131524	-1.023687	0.381107
C24	C	1.078996	-0.985405	0.432120
C25	C	1.009218	-1.044256	0.499954
C26	C	0.991967	-1.141388	0.516769
C27	C	0.956685	-1.005982	0.550963
C28	C	0.886907	-1.064833	0.618797
C29	C	0.869659	-1.161956	0.635609
C30	C	0.922187	-1.200238	0.584596
C31	C	0.973936	-0.908850	0.534148
C32	C	0.851625	-0.929427	0.652991
C33	C	0.834379	-1.026551	0.669810
C34	C	0.339260	-0.455806	0.455877
C35	C	0.296962	-0.595451	0.595209
C36	C	0.379511	-0.595437	0.595201
C37	C	0.441939	-0.525607	0.525529
C38	C	0.421818	-0.455791	0.455866
C39	C	0.399639	-0.665257	0.664857
C40	C	0.482193	-0.665246	0.664852
C41	C	0.544622	-0.595411	0.595183
C42	C	0.524497	-0.525592	0.525517
C43	C	0.586925	-0.455762	0.455846
C44	C	0.566801	-0.385938	0.386183
C45	C	0.484248	-0.385956	0.386197
C46	C	0.627176	-0.595393	0.595169
C47	C	0.669482	-0.455747	0.455834
C48	C	1.188980	-0.525621	0.525537
C49	C	1.276832	-0.525636	0.525549
C50	C	0.939714	-0.567483	0.768049
C51	C	0.921344	-0.585337	0.871405
C52	C	1.026069	-0.283026	0.483609
C53	C	1.044499	-0.179661	0.465753
C54	C	1.025819	-0.483784	0.283903
C55	C	1.044388	-0.465668	0.180502
C56	C	1.114172	-0.397816	1.121681
C57	C	1.131436	-0.381043	1.024574
C58	C	1.078915	-0.432115	0.986277
C59	C	1.009126	-0.499963	1.045097
C60	C	0.991864	-0.516744	1.142215
C61	C	0.956606	-0.551042	1.006810
C62	C	0.886817	-0.618891	1.065630
C63	C	0.869558	-0.635667	1.162738
C64	C	0.922079	-0.584596	1.201036
C65	C	0.973868	-0.534262	0.909692
C66	C	0.851560	-0.653189	0.930225
C67	C	0.834295	-0.669963	1.027333
H68	H	1.030749	-0.860942	0.478917
H69	H	0.643557	-0.652245	0.651885
F70	F	1.205708	-0.308837	0.961980
H71	H	0.322871	-0.398955	0.399162
H72	H	0.777472	-0.725205	1.075238
F73	F	0.795661	-0.707552	0.889473
F74	F	1.048140	-0.462054	0.847102
H75	H	0.246129	-0.652308	0.651927
F76	F	0.333197	-0.739589	0.738981
F77	F	0.503603	-0.739556	0.738993
H78	H	1.156932	-0.356246	1.152874
H79	H	1.093041	-0.906322	0.418421
F80	F	0.633250	-0.311627	0.312032
H81	H	1.188336	-0.975774	0.325877
H82	H	0.777565	-1.074481	0.725040
H83	H	1.157035	-1.151989	0.356393
H84	H	1.092975	-0.418454	0.907207
H85	H	0.812736	-0.690922	1.210629
F86	F	0.903711	-0.602447	1.304390
F87	F	0.903637	-1.303557	0.602196
H88	H	0.812834	-1.209868	0.690833
H89	H	0.808850	-0.898259	0.694528
H90	H	0.467854	-0.329111	0.329481
F91	F	0.735918	-0.381419	0.381682
