data_functionalizedCrystal
_audit_creation_method	'MofGen! by Chris Wilmer'
_symmetry_space_group_name_H-M	'P1'
_symmetry_Int_Tables_number	1
_symmetry_cell_setting	triclinic
loop_
_symmetry_equiv_pos_as_xyz
  x,y,z
_cell_length_a	19.288865
_cell_length_b	17.766277
_cell_length_c	19.288865
_cell_angle_alpha	89.988397
_cell_angle_beta	83.136247
_cell_angle_gamma	89.992086
loop_
_atom_site_label
_atom_site_type_symbol
_atom_site_fract_x
_atom_site_fract_y
_atom_site_fract_z
O1	O	0.921353	-0.062577	0.086649
O2	O	1.421353	0.437423	0.586649
O3	O	0.719092	-0.062585	0.098337
O4	O	1.219092	0.437415	0.598337
O5	O	0.826067	-0.062566	-0.008637
O6	O	1.326067	0.437434	0.491363
O7	O	0.814378	-0.062596	0.193623
O8	O	1.314378	0.437404	0.693623
O9	O	0.826048	0.062622	-0.008643
O10	O	1.326048	0.562622	0.491357
O11	O	0.719074	0.062603	0.098332
O12	O	1.219074	0.562603	0.598332
O13	O	0.921334	0.062611	0.086643
O14	O	1.421334	0.562611	0.586643
Cu15	Cu	0.820202	0.074038	0.092487
Cu16	Cu	1.320202	0.574038	0.592487
Cu17	Cu	0.820224	-0.074012	0.092494
Cu18	Cu	1.320224	0.425988	0.592494
O19	O	0.814360	0.062592	0.193618
O20	O	1.314360	0.562592	0.693618
C21	C	0.693207	0.000008	0.097959
C22	C	1.193207	0.500008	0.597959
C23	C	0.616103	0.000005	0.096830
C24	C	1.116103	0.500005	0.596830
C25	C	0.825682	0.000030	-0.034516
C26	C	1.325682	0.500030	0.465484
C27	C	0.824553	0.000037	-0.111620
C28	C	1.324553	0.500037	0.388380
C29	C	0.947220	0.000016	0.087022
C30	C	1.447220	0.500016	0.587022
C31	C	1.024324	0.000014	0.088151
C32	C	1.524324	0.500014	0.588151
N33	N	0.820192	0.178168	0.092482
N34	N	1.320192	0.678168	0.592482
C35	C	1.069020	0.000017	0.025383
C36	C	1.569020	0.500017	0.525383
C37	C	1.141467	0.000021	0.026444
C38	C	1.641467	0.500021	0.526444
C39	C	1.169215	0.000007	0.090276
C40	C	1.669215	0.500007	0.590276
C41	C	1.124508	0.000009	0.153052
C42	C	1.624508	0.500009	0.653052
C43	C	1.052063	0.000012	0.151990
C44	C	1.552063	0.500012	0.651990
C45	C	1.277498	-0.043864	0.140457
C46	C	1.777498	0.456136	0.640457
C47	C	1.349942	-0.043872	0.141517
C48	C	1.849942	0.456128	0.641517
C49	C	1.392660	0.000000	0.093556
C50	C	1.892660	0.500000	0.593556
C51	C	1.362926	0.043871	0.044523
C52	C	1.862926	0.543871	0.544523
C53	C	1.290481	0.043874	0.043460
C54	C	1.790481	0.543874	0.543460
C55	C	1.247769	0.000004	0.091435
C56	C	1.747769	0.500004	0.591435
C57	C	1.515912	0.000009	0.031934
C58	C	2.015912	0.500009	0.531934
C59	C	1.588361	0.000018	0.032997
C60	C	2.088361	0.500018	0.532997
C61	C	1.571400	-0.000002	0.159607
C62	C	2.071400	0.499998	0.659607
C63	C	1.498954	-0.000003	0.158542
C64	C	1.998954	0.499997	0.658542
C65	C	1.471215	-0.000001	0.094703
C66	C	1.971215	0.499999	0.594703
N67	N	0.820240	-0.178142	0.092493
N68	N	1.320240	0.321858	0.592493
C69	C	0.867575	0.217564	0.045137
C70	C	1.367575	0.717564	0.545137
C71	C	0.867579	0.296366	0.045134
C72	C	1.367579	0.796366	0.545134
C73	C	0.820206	0.335769	0.092488
C74	C	1.320206	0.835769	0.592488
C75	C	0.772814	0.296364	0.139837
C76	C	1.272814	0.796364	0.639837
C77	C	0.772807	0.217564	0.139834
C78	C	1.272807	0.717564	0.639834
C79	C	0.810908	0.460597	0.155775
C80	C	1.310908	0.960597	0.655775
C81	C	0.810920	0.539396	0.155779
C82	C	1.310920	1.039396	0.655779
C83	C	0.820225	0.578815	0.092496
C84	C	1.320225	1.078815	0.592496
C85	C	0.829533	0.539426	0.029207
C86	C	1.329533	1.039426	0.529207
C87	C	0.829525	0.460626	0.029204
C88	C	1.329525	0.960626	0.529204
C89	C	0.820209	0.421215	0.092496
C90	C	1.320209	0.921215	0.592496
C91	C	0.867616	0.703657	0.045143
C92	C	1.367616	1.203657	0.545143
C93	C	0.867615	0.782460	0.045139
C94	C	1.367615	1.282460	0.545139
C95	C	0.772852	0.782457	0.139848
C96	C	1.272852	1.282457	0.639848
C97	C	0.772850	0.703655	0.139846
C98	C	1.272850	1.203655	0.639846
C99	C	0.820235	0.664260	0.092495
C100	C	1.320235	1.164260	0.592495
C101	C	0.887320	0.000043	-0.156316
C102	C	1.387320	0.500043	0.343684
C103	C	0.886260	0.000031	-0.228763
C104	C	1.386260	0.500031	0.271237
C105	C	0.822428	0.000028	-0.256511
C106	C	1.322428	0.500028	0.243489
C107	C	0.759651	0.000018	-0.211805
C108	C	1.259651	0.500018	0.288195
C109	C	0.760714	0.000022	-0.139359
C110	C	1.260714	0.500022	0.360641
C111	C	0.772242	0.043877	-0.364800
C112	C	1.272242	0.543877	0.135200
C113	C	0.771182	0.043877	-0.437245
C114	C	1.271182	0.543877	0.062755
C115	C	0.819148	0.000011	-0.479956
C116	C	1.319148	0.500011	0.020044
C117	C	0.868186	-0.043845	-0.450216
C118	C	1.368186	0.456155	0.049784
C119	C	0.869248	-0.043841	-0.377771
C120	C	1.369248	0.456159	0.122229
C121	C	0.821268	0.000023	-0.335065
C122	C	1.321268	0.500023	0.164935
C123	C	0.880770	0.000003	-0.603209
C124	C	1.380770	0.500003	-0.103209
C125	C	0.879707	-0.000013	-0.675657
C126	C	1.379707	0.499987	-0.175657
C127	C	0.753097	-0.000019	-0.658697
C128	C	1.253097	0.499981	-0.158697
C129	C	0.754162	-0.000010	-0.586250
C130	C	1.254162	0.499990	-0.086250
C131	C	0.818000	0.000005	-0.558511
C132	C	1.318000	0.500005	-0.058511
C133	C	0.814745	-0.000006	0.219497
C134	C	1.314745	0.499994	0.719497
C135	C	0.815874	-0.000018	0.296601
C136	C	1.315874	0.499982	0.796601
H137	H	1.046440	0.000021	-0.026599
H138	H	1.546440	0.500021	0.473401
Cl139	Cl	0.841237	0.588972	-0.050355
Cl140	Cl	1.341237	1.088972	0.449645
H141	H	1.624752	0.000026	-0.018118
H142	H	2.124752	0.500026	0.481882
H143	H	0.906198	0.814536	0.006581
H144	H	1.406198	1.314536	0.506581
Cl145	Cl	0.927140	0.168039	-0.014393
Cl146	Cl	1.427140	0.668039	0.485607
Cl147	Cl	0.927181	0.654130	-0.014388
Cl148	Cl	1.427181	1.154130	0.485612
Cl149	Cl	1.197667	0.000022	-0.052470
Cl150	Cl	1.697667	0.500022	0.447530
H151	H	0.733180	0.079602	-0.330029
H152	H	1.233180	0.579602	0.169971
Cl153	Cl	1.159390	-0.000005	0.233298
Cl154	Cl	1.659390	0.499995	0.733298
Cl155	Cl	1.606276	-0.000007	0.239854
Cl156	Cl	2.106276	0.499993	0.739854
Cl157	Cl	0.927153	0.345900	-0.014391
Cl158	Cl	1.427153	0.845900	0.485609
H159	H	0.734241	0.328450	0.178392
H160	H	1.234241	0.828450	0.678392
Cl161	Cl	0.799274	0.411050	0.235341
Cl162	Cl	1.299274	0.911050	0.735341
Cl163	Cl	0.713235	0.168034	0.199359
Cl164	Cl	1.213235	0.668034	0.699359
H165	H	0.837102	0.428558	-0.022328
H166	H	1.337102	0.928558	0.477672
Cl167	Cl	0.967575	0.000041	-0.121448
Cl168	Cl	1.467575	0.500041	0.378552
Cl169	Cl	1.253101	0.099039	-0.018165
Cl170	Cl	1.753101	0.599039	0.481835
H171	H	0.731249	0.079583	-0.461453
H172	H	1.231249	0.579583	0.038547
Cl173	Cl	1.416621	0.099020	-0.015783
Cl174	Cl	1.916621	0.599020	0.484217
Cl175	Cl	0.672850	-0.000028	-0.693572
Cl176	Cl	1.172850	0.499972	-0.193572
Cl177	Cl	0.961022	0.000026	-0.568333
Cl178	Cl	1.461022	0.500026	-0.068333
H179	H	0.734278	0.814538	0.178402
H180	H	1.234278	1.314538	0.678402
Cl181	Cl	0.713283	0.654124	0.199373
Cl182	Cl	1.213283	1.154124	0.699373
Cl183	Cl	0.681799	0.000015	-0.083166
Cl184	Cl	1.181799	0.500015	0.416834
H185	H	1.493326	0.000014	-0.020048
H186	H	1.993326	0.500014	0.479952
H187	H	1.462561	-0.000010	0.209654
H188	H	1.962561	0.499990	0.709654
H189	H	0.937375	0.000033	-0.265162
H190	H	1.437375	0.500033	0.234838
Cl191	Cl	0.799224	0.588906	0.235342
Cl192	Cl	1.299224	1.088906	0.735342
Cl193	Cl	0.930889	-0.098977	-0.340385
Cl194	Cl	1.430889	0.401023	0.159615
H195	H	0.907245	-0.079566	-0.484991
H196	H	1.407245	0.420434	0.015009
H197	H	0.930822	-0.000012	-0.712049
H198	H	1.430822	0.499988	-0.212049
Cl199	Cl	0.679405	0.000008	-0.246686
Cl200	Cl	1.179405	0.500008	0.253314
H201	H	0.703049	-0.000011	-0.549857
H202	H	1.203049	0.499989	-0.049857
H203	H	1.374147	-0.079599	0.181438
H204	H	1.874147	0.420401	0.681438
H205	H	1.242722	-0.079589	0.179519
H206	H	1.742722	0.420411	0.679519
H207	H	1.015670	0.000010	0.203105
H208	H	1.515670	0.500010	0.703105
