data_functionalizedCrystal
_audit_creation_method	'MofGen! by Chris Wilmer'
_symmetry_space_group_name_H-M	'P1'
_symmetry_Int_Tables_number	1
_symmetry_cell_setting	triclinic
loop_
_symmetry_equiv_pos_as_xyz
  x,y,z
_cell_length_a	21.395364
_cell_length_b	16.959453
_cell_length_c	21.395355
_cell_angle_alpha	90.017356
_cell_angle_beta	90.024552
_cell_angle_gamma	90.039772
loop_
_atom_site_label
_atom_site_type_symbol
_atom_site_fract_x
_atom_site_fract_y
_atom_site_fract_z
Zn1	Zn	0.957885	-0.314458	0.354267
Zn2	Zn	1.457885	0.185542	0.854267
Zn3	Zn	0.957798	-0.446619	0.249491
Zn4	Zn	1.457798	0.053381	0.749491
Zn5	Zn	0.853100	-0.314492	0.249503
Zn6	Zn	1.353100	0.185508	0.749503
Zn7	Zn	0.853080	-0.446633	0.354231
Zn8	Zn	1.353080	0.053367	0.854231
O9	O	0.905466	-0.380550	0.301873
O10	O	1.405466	0.119450	0.801873
O11	O	1.045551	-0.331969	0.340378
O12	O	1.545551	0.168031	0.840378
O13	O	0.943882	-0.429100	0.161815
O14	O	1.443882	0.070900	0.661815
O15	O	0.867044	-0.203877	0.263420
O16	O	1.367044	0.296123	0.763420
O17	O	1.045487	-0.429067	0.263400
O18	O	1.545487	0.070933	0.763400
O19	O	0.944030	-0.203851	0.340389
O20	O	1.444030	0.296149	0.840389
O21	O	0.866960	-0.332028	0.161824
O22	O	1.366960	0.167972	0.661824
O23	O	0.765419	-0.332042	0.263386
O24	O	1.265419	0.167958	0.763386
O25	O	0.867010	-0.429091	0.441914
O26	O	1.367010	0.070909	0.941914
O27	O	0.765405	-0.429124	0.340329
O28	O	1.265405	0.070876	0.840329
O29	O	0.944010	-0.331982	0.441940
O30	O	1.444010	0.168018	0.941940
O31	O	0.943862	-0.557231	0.263365
O32	O	1.443862	-0.057231	0.763365
O33	O	0.866926	-0.557242	0.340318
O34	O	1.366926	-0.057242	0.840318
C35	C	0.742678	-0.380589	0.301855
C36	C	1.242678	0.119411	0.801855
C37	C	0.673037	-0.380624	0.301863
C38	C	1.173037	0.119376	0.801863
C39	C	0.640379	-0.330148	0.342007
C40	C	1.140379	0.169852	0.842007
C41	C	0.574944	-0.330127	0.342010
C42	C	1.074944	0.169873	0.842010
C43	C	0.542168	-0.380596	0.301874
C44	C	1.042168	0.119404	0.801874
C45	C	0.574834	-0.431076	0.261722
C46	C	1.074834	0.068924	0.761722
C47	C	0.640268	-0.431090	0.261716
C48	C	1.140268	0.068910	0.761716
C49	C	0.438450	-0.451779	0.296838
C50	C	0.938450	0.048221	0.796838
C51	C	0.373017	-0.451767	0.296848
C52	C	0.873017	0.048233	0.796848
C53	C	0.340348	-0.380553	0.301888
C54	C	0.840348	0.119447	0.801888
C55	C	0.373119	-0.309349	0.306931
C56	C	0.873119	0.190651	0.806931
C57	C	0.438554	-0.309363	0.306926
C58	C	0.938554	0.190637	0.806926
C59	C	0.471216	-0.380587	0.301876
C60	C	0.971216	0.119413	0.801876
C61	C	0.236738	-0.330050	0.342037
C62	C	0.736738	0.169950	0.842037
C63	C	0.171301	-0.330027	0.342035
C64	C	0.671301	0.169973	0.842035
C65	C	0.171192	-0.430983	0.261751
C66	C	0.671192	0.069017	0.761751
C67	C	0.236628	-0.430999	0.261750
C68	C	0.736628	0.069001	0.761750
C69	C	0.269396	-0.380533	0.301896
C70	C	0.769396	0.119467	0.801896
C71	C	0.905400	-0.585917	0.301850
C72	C	1.405400	-0.085917	0.801850
C73	C	0.905429	-0.673773	0.301861
C74	C	1.405429	-0.173773	0.801861
C75	C	0.865352	-0.715082	0.341898
C76	C	1.365352	-0.215082	0.841898
C77	C	0.945537	-0.715018	0.261838
C78	C	1.445537	-0.215018	0.761838
C79	C	0.945568	-0.797564	0.261849
C80	C	1.445568	-0.297564	0.761849
C81	C	0.905491	-0.838873	0.301886
C82	C	1.405491	-0.338873	0.801886
C83	C	0.865383	-0.797635	0.341912
C84	C	1.365383	-0.297635	0.841912
C85	C	0.985679	-0.838808	0.221829
C86	C	1.485679	-0.338808	0.721829
C87	C	0.985713	-0.921359	0.221839
C88	C	1.485713	-0.421359	0.721839
C89	C	0.945632	-0.962669	0.261874
C90	C	1.445632	-0.462669	0.761874
C91	C	0.905522	-0.921426	0.301900
C92	C	1.405522	-0.421426	0.801900
C93	C	0.865445	-0.962735	0.341937
C94	C	1.365445	-0.462735	0.841937
C95	C	0.825332	-0.921493	0.381962
C96	C	1.325332	-0.421493	0.881962
C97	C	0.825303	-0.838945	0.381947
C98	C	1.325303	-0.338945	0.881947
C99	C	0.945661	-1.045217	0.261889
C100	C	1.445661	-0.545217	0.761889
C101	C	0.865477	-1.045288	0.341951
C102	C	1.365477	-0.545288	0.841951
C103	C	1.068889	-0.380512	0.301891
C104	C	1.568889	0.119488	0.801891
C105	C	1.138530	-0.380496	0.301899
C106	C	1.638530	0.119504	0.801899
C107	C	0.905518	-0.380534	0.465296
C108	C	1.405518	0.119466	0.965296
C109	C	0.905540	-0.380528	0.534938
C110	C	1.405540	0.119472	1.034938
C111	C	0.905549	-0.174382	0.301910
C112	C	1.405549	0.325618	0.801910
C113	C	0.905584	-0.086525	0.301926
C114	C	1.405584	0.413475	0.801926
C115	C	0.905450	-0.380509	0.139086
C116	C	1.405450	0.119491	0.639086
C117	C	0.905549	-0.380293	0.069445
C118	C	1.405549	0.119707	0.569445
C119	C	0.945632	-0.329961	0.567665
C120	C	1.445632	0.170039	1.067665
C121	C	0.945631	-0.329927	0.633101
C122	C	1.445631	0.170073	1.133101
C123	C	0.905545	-0.380474	0.665806
C124	C	1.405545	0.119526	1.165806
C125	C	0.865445	-0.431044	0.633071
C126	C	1.365445	0.068956	1.133071
C127	C	0.865442	-0.431071	0.567636
C128	C	1.365442	0.068929	1.067636
C129	C	0.900575	-0.451647	0.769473
C130	C	1.400575	0.048353	1.269473
C131	C	0.900581	-0.451621	0.834906
C132	C	1.400581	0.048379	1.334906
C133	C	0.905549	-0.380390	0.867627
C134	C	1.405549	0.119610	1.367627
C135	C	0.910522	-0.309183	0.834907
C136	C	1.410522	0.190817	1.334907
C137	C	0.910520	-0.309210	0.769473
C138	C	1.410520	0.190790	1.269473
C139	C	0.905543	-0.380450	0.736759
C140	C	1.405543	0.119550	1.236759
C141	C	0.945642	-0.329783	0.971307
C142	C	1.445642	0.170217	1.471307
C143	C	0.945637	-0.329747	1.036744
C144	C	1.445637	0.170253	1.536744
C145	C	0.865454	-0.430871	1.036712
C146	C	1.365454	0.069129	1.536712
C147	C	0.865456	-0.430899	0.971277
C148	C	1.365456	0.069101	1.471277
C149	C	0.905553	-0.380356	0.938578
C150	C	1.405553	0.119644	1.438578
H151	H	0.832841	-1.078916	0.374555
H152	H	1.332841	-0.578916	0.874555
N153	N	0.675491	-0.485536	0.218414
N154	N	1.175491	0.014464	0.718414
H155	H	0.664069	-0.542028	0.228064
H156	H	1.164069	-0.042028	0.728064
H157	H	0.721905	-0.477823	0.224520
H158	H	1.221905	0.022177	0.724520
H159	H	0.896362	-0.509637	0.742837
H160	H	1.396362	-0.009637	1.242837
N161	N	0.822198	-0.485550	0.668341
N162	N	1.322198	0.014450	1.168341
H163	H	0.828282	-0.477859	0.714760
H164	H	1.328282	0.022141	1.214760
H165	H	0.831917	-0.542008	0.656911
H166	H	1.331917	-0.042008	1.156911
N167	N	0.822092	-0.670599	0.385064
N168	N	1.322092	-0.170599	0.885064
H169	H	0.831803	-0.684920	0.429844
H170	H	1.331803	-0.184920	0.929844
H171	H	0.777354	-0.685057	0.375238
H172	H	1.277354	-0.185057	0.875238
H173	H	0.914568	-0.251180	0.861547
H174	H	1.414568	0.248820	1.361547
H175	H	0.548349	-0.289020	0.374699
H176	H	1.048349	0.210980	0.874699
H177	H	0.978288	-0.288623	0.944682
H178	H	1.478288	0.211377	1.444682
N179	N	0.988877	-0.275384	0.668406
N180	N	1.488877	0.224616	1.168406
H181	H	1.033637	-0.287662	0.657037
H182	H	1.533637	0.212338	1.157037
H183	H	0.982741	-0.283063	0.714809
H184	H	1.482741	0.216937	1.214809
N185	N	0.337675	-0.528561	0.291404
N186	N	0.837675	-0.028561	0.791404
H187	H	0.291266	-0.517748	0.292176
H188	H	0.791266	-0.017748	0.792176
H189	H	0.349108	-0.563974	0.327583
H190	H	0.849108	-0.063974	0.827583
H191	H	0.978283	-0.288565	1.063389
H192	H	1.478283	0.211435	1.563389
N193	N	0.473683	-0.528593	0.291398
N194	N	0.973683	-0.028593	0.791398
H195	H	0.442995	-0.573696	0.288209
H196	H	0.942995	-0.073696	0.788209
H197	H	0.500847	-0.536009	0.329560
H198	H	1.000847	-0.036009	0.829560
N199	N	0.337892	-0.232533	0.312356
N200	N	0.837892	0.267467	0.812356
H201	H	0.368581	-0.187431	0.315547
H202	H	0.868581	0.312569	0.815547
H203	H	0.310756	-0.233727	0.350958
H204	H	0.810756	0.266273	0.850958
H205	H	0.792704	-0.955138	0.414563
H206	H	1.292704	-0.455138	0.914563
H207	H	0.792644	-0.805362	0.414533
H208	H	1.292644	-0.305362	0.914533
H209	H	0.832792	-0.472247	0.540990
H210	H	1.332792	0.027753	1.040990
N211	N	0.272091	-0.275626	0.385335
N212	N	0.772091	0.224374	0.885335
H213	H	0.260747	-0.219125	0.375688
H214	H	0.760747	0.280875	0.875688
H215	H	0.318486	-0.283374	0.379219
H216	H	0.818486	0.216626	0.879219
H217	H	0.978169	-0.681382	0.229244
H218	H	1.478169	-0.181382	0.729244
N219	N	0.271854	-0.485455	0.218460
N220	N	0.771854	0.014545	0.718460
H221	H	0.318279	-0.477807	0.224547
H222	H	0.818279	0.022193	0.724547
H223	H	0.260403	-0.473070	0.173730
H224	H	0.760403	0.026930	0.673730
H225	H	0.548144	-0.472168	0.229043
H226	H	1.048144	0.027832	0.729043
H227	H	0.144712	-0.288919	0.374725
H228	H	0.644712	0.211081	0.874725
H229	H	0.465234	-0.251387	0.311030
H230	H	0.965234	0.248613	0.811030
H231	H	1.018375	-0.954930	0.189248
H232	H	1.518375	-0.454930	0.689248
N233	N	0.675722	-0.275718	0.385305
N234	N	1.175722	0.224282	0.885305
H235	H	0.645101	-0.243738	0.410736
H236	H	1.145101	0.256262	0.910736
H237	H	0.702883	-0.239095	0.359851
H238	H	1.202883	0.260905	0.859851
N239	N	1.028909	-0.794257	0.178655
N240	N	1.528909	-0.294257	0.678655
H241	H	1.022800	-0.735705	0.184719
H242	H	1.522800	-0.235705	0.684719
H243	H	1.019193	-0.808729	0.133899
H244	H	1.519193	-0.308729	0.633899
H245	H	0.144507	-0.472076	0.229072
H246	H	0.644507	0.027924	0.729072
N247	N	0.988919	-1.089707	0.218729
N248	N	1.488919	-0.589707	0.718729
H249	H	1.033675	-1.075273	0.228504
H250	H	1.533675	-0.575273	0.728504
H251	H	0.979158	-1.075368	0.173966
H252	H	1.479158	-0.575368	0.673966
N253	N	0.988877	-0.275448	0.532397
N254	N	1.488877	0.224552	1.032397
H255	H	1.014275	-0.243408	0.563064
H256	H	1.514275	0.256592	1.063064
H257	H	0.963387	-0.238883	0.505238
H258	H	1.463387	0.261117	1.005238
H259	H	0.896535	-0.509602	0.861541
H260	H	1.396535	-0.009602	1.361541
H261	H	0.914568	-0.251230	0.742835
H262	H	1.414568	0.248770	1.242835
N263	N	0.822211	-0.485384	1.071978
N264	N	1.322211	0.014616	1.571978
H265	H	0.828294	-0.477693	1.118397
H266	H	1.328294	0.022307	1.618397
H267	H	0.831938	-0.541839	1.060547
H268	H	1.331938	-0.041839	1.560547
H269	H	0.832812	-0.472081	0.944630
H270	H	1.332812	0.027919	1.444630
