data_functionalizedCrystal
_audit_creation_method	'MofGen! by Chris Wilmer'
_symmetry_space_group_name_H-M	'P1'
_symmetry_Int_Tables_number	1
_symmetry_cell_setting	triclinic
loop_
_symmetry_equiv_pos_as_xyz
  x,y,z
_cell_length_a	12.827893
_cell_length_b	12.827892
_cell_length_c	12.827885
_cell_angle_alpha	89.968088
_cell_angle_beta	90.019272
_cell_angle_gamma	89.974721
loop_
_atom_site_label
_atom_site_type_symbol
_atom_site_fract_x
_atom_site_fract_y
_atom_site_fract_z
Zn1	Zn	1.597599	0.415978	0.590833
Zn2	Zn	2.097599	0.915978	1.090833
Zn3	Zn	1.597463	0.590755	0.416087
Zn4	Zn	2.097463	1.090755	0.916087
Zn5	Zn	1.422840	0.416029	0.416107
Zn6	Zn	1.922840	0.916029	0.916107
Zn7	Zn	1.422796	0.590678	0.590787
Zn8	Zn	1.922796	1.090678	1.090787
O9	O	1.510175	0.503360	0.503454
O10	O	2.010175	1.003360	1.003454
O11	O	1.743817	0.439173	0.567664
O12	O	2.243817	0.939173	1.067664
O13	O	1.574261	0.567631	0.269854
O14	O	2.074261	1.067631	0.769854
O15	O	1.446098	0.269787	0.439312
O16	O	1.946098	0.769787	0.939312
O17	O	1.743717	0.567582	0.439279
O18	O	2.243717	1.067582	0.939279
O19	O	1.574492	0.269749	0.567683
O20	O	2.074492	0.769749	1.067683
O21	O	1.445966	0.439261	0.269868
O22	O	1.945966	0.939261	0.769868
O23	O	1.276598	0.439186	0.439268
O24	O	1.776598	0.939186	0.939268
O25	O	1.446022	0.567450	0.737029
O26	O	1.946022	1.067450	1.237029
O27	O	1.276566	0.567500	0.567604
O28	O	1.776566	1.067500	1.067604
O29	O	1.574449	0.439099	0.737063
O30	O	2.074449	0.939099	1.237063
O31	O	1.574218	0.736981	0.439234
O32	O	2.074218	1.236981	0.939234
O33	O	1.445891	0.736924	0.567585
O34	O	1.945891	1.236924	1.067585
C35	C	1.238665	0.503341	0.503434
C36	C	1.738665	1.003341	1.003434
C37	C	1.122512	0.503358	0.503450
C38	C	1.622512	1.003358	1.003450
C39	C	1.070776	0.439930	0.567078
C40	C	1.570776	0.939930	1.067078
C41	C	0.950726	0.439946	0.567096
C42	C	1.450726	0.939946	1.067096
C43	C	1.510063	0.774870	0.503425
C44	C	2.010063	1.274870	1.003425
C45	C	1.510111	0.891023	0.503448
C46	C	2.010111	1.391023	1.003448
C47	C	1.573608	0.942706	0.567025
C48	C	2.073608	1.442706	1.067025
C49	C	1.573659	1.062756	0.567050
C50	C	2.073659	1.562756	1.067050
C51	C	1.782745	0.503380	0.503474
C52	C	2.282745	1.003380	1.003474
C53	C	1.898898	0.503389	0.503483
C54	C	2.398898	1.003389	1.003483
C55	C	1.510246	0.503260	0.776024
C56	C	2.010246	1.003260	1.276024
C57	C	1.510276	0.503217	0.892177
C58	C	2.010276	1.003217	1.392177
C59	C	1.510272	1.230790	0.503497
C60	C	2.010272	1.730790	1.003497
C61	C	1.510205	1.114637	0.503493
C62	C	2.010205	1.614637	1.003493
C63	C	1.510164	0.503385	0.231944
C64	C	2.010164	1.003385	0.731944
C65	C	1.510336	0.503133	0.115791
C66	C	2.010336	1.003133	0.615791
C67	C	1.573833	0.439692	0.943979
C68	C	2.073833	0.939692	1.443979
C69	C	1.573866	0.439647	1.064029
C70	C	2.073866	0.939647	1.564029
H71	H	0.906234	0.385647	0.621574
H72	H	1.406234	0.885647	1.121574
Br73	Br	0.973039	0.593915	0.412689
Br74	Br	1.473039	1.093915	0.912689
H75	H	1.455844	1.070199	0.449055
H76	H	1.955844	1.570199	0.949055
Br77	Br	1.664142	0.868332	0.657736
Br78	Br	2.164142	1.368332	1.157736
Br79	Br	1.664280	1.136829	0.657769
Br80	Br	2.164280	1.636829	1.157769
Br81	Br	1.419553	0.965397	0.412760
Br82	Br	1.919553	1.465397	0.912760
H83	H	1.628282	0.385264	1.108577
H84	H	2.128282	0.885264	1.608577
Br85	Br	1.664459	0.349065	0.869774
Br86	Br	2.164459	0.849065	1.369774
Br87	Br	1.419644	0.593798	1.041556
Br88	Br	1.919644	1.093798	1.541556
H89	H	1.115360	0.385612	0.621535
H90	H	1.615360	0.885612	1.121535
H91	H	1.077928	0.557670	0.448987
H92	H	1.577928	1.057670	0.948987
H93	H	1.455881	0.557562	0.936705
H94	H	1.955881	1.057562	1.436705
