data_functionalizedCrystal
_audit_creation_method	'MofGen! by Chris Wilmer'
_symmetry_space_group_name_H-M	'P1'
_symmetry_Int_Tables_number	1
_symmetry_cell_setting	triclinic
loop_
_symmetry_equiv_pos_as_xyz
  x,y,z
_cell_length_a	21.395364
_cell_length_b	19.076808
_cell_length_c	19.076919
_cell_angle_alpha	89.878360
_cell_angle_beta	92.280361
_cell_angle_gamma	92.338361
loop_
_atom_site_label
_atom_site_type_symbol
_atom_site_fract_x
_atom_site_fract_y
_atom_site_fract_z
Zn1	Zn	0.933460	-0.295469	-0.386067
Zn2	Zn	1.266794	0.037864	-0.052734
Zn3	Zn	1.600127	0.371197	0.280599
Zn4	Zn	0.933724	-0.408264	-0.263837
Zn5	Zn	1.267058	-0.074931	0.069497
Zn6	Zn	1.600391	0.258403	0.402830
Zn7	Zn	0.833059	-0.290798	-0.268574
Zn8	Zn	1.166392	0.042535	0.064759
Zn9	Zn	1.499725	0.375869	0.398093
Zn10	Zn	0.824622	-0.412978	-0.381302
Zn11	Zn	1.157955	-0.079644	-0.047969
Zn12	Zn	1.491289	0.253689	0.285364
O13	O	0.881216	-0.351877	-0.324945
O14	O	1.214550	-0.018544	0.008388
O15	O	1.547883	0.314789	0.341722
O16	O	1.021173	-0.310414	-0.369865
O17	O	1.354507	0.022919	-0.036531
O18	O	1.687840	0.356253	0.296802
O19	O	0.924012	-0.388754	-0.166134
O20	O	1.257345	-0.055421	0.167199
O21	O	1.590679	0.277913	0.500533
O22	O	0.849797	-0.193080	-0.288136
O23	O	1.183131	0.140253	0.045197
O24	O	1.516464	0.473587	0.378530
O25	O	1.021367	-0.393284	-0.280062
O26	O	1.354701	-0.059951	0.053271
O27	O	1.688034	0.273383	0.386604
O28	O	0.923562	-0.196512	-0.374458
O29	O	1.256895	0.136821	-0.041125
O30	O	1.590229	0.470155	0.292208
O31	O	0.850053	-0.302452	-0.169615
O32	O	1.183387	0.030881	0.163719
O33	O	1.516720	0.364214	0.497052
O34	O	0.744261	-0.307023	-0.283516
O35	O	1.077595	0.026310	0.049817
O36	O	1.410928	0.359644	0.383151
O37	O	0.835419	-0.401318	-0.480265
O38	O	1.168752	-0.067984	-0.146932
O39	O	1.502085	0.265349	0.186401
O40	O	0.738063	-0.396788	-0.366337
O41	O	1.071396	-0.063455	-0.033004
O42	O	1.404730	0.269879	0.300330
O43	O	0.915382	-0.314985	-0.483766
O44	O	1.248715	0.018349	-0.150433
O45	O	1.582048	0.351682	0.182900
O46	O	0.915831	-0.507227	-0.275442
O47	O	1.249165	-0.173894	0.057891
O48	O	1.582498	0.159440	0.391225
O49	O	0.835675	-0.510690	-0.361743
O50	O	1.169008	-0.177357	-0.028410
O51	O	1.502341	0.155977	0.304923
C52	C	0.718428	-0.351911	-0.324924
C53	C	1.051762	-0.018577	0.008409
C54	C	1.385095	0.314756	0.341743
C55	C	0.648786	-0.351943	-0.324931
C56	C	0.982119	-0.018609	0.008402
C57	C	1.315452	0.314724	0.341736
C58	C	0.615989	-0.308869	-0.371757
C59	C	0.949322	0.024465	-0.038424
C60	C	1.282655	0.357798	0.294909
C61	C	0.550554	-0.308850	-0.371761
C62	C	0.883887	0.024483	-0.038428
C63	C	1.217221	0.357817	0.294906
C64	C	0.517918	-0.351918	-0.324945
C65	C	0.851251	-0.018585	0.008389
C66	C	1.184584	0.314748	0.341722
C67	C	0.550723	-0.394995	-0.278109
C68	C	0.884056	-0.061662	0.055224
C69	C	1.217389	0.271672	0.388557
C70	C	0.616157	-0.395007	-0.278102
C71	C	0.949490	-0.061674	0.055231
C72	C	1.282823	0.271660	0.388564
C73	C	0.412237	-0.414977	-0.316751
C74	C	0.745570	-0.081644	0.016582
C75	C	1.078904	0.251689	0.349915
C76	C	0.346804	-0.414967	-0.316763
C77	C	0.680137	-0.081633	0.016570
C78	C	1.013471	0.251700	0.349904
C79	C	0.316098	-0.351880	-0.324962
C80	C	0.649431	-0.018547	0.008371
C81	C	0.982764	0.314787	0.341705
C82	C	0.350832	-0.288803	-0.333164
C83	C	0.684165	0.044530	0.000170
C84	C	1.017499	0.377864	0.333503
C85	C	0.416266	-0.288815	-0.333157
C86	C	0.749599	0.044518	0.000177
C87	C	1.082932	0.377851	0.333510
C88	C	0.446966	-0.351910	-0.324947
C89	C	0.780299	-0.018576	0.008387
C90	C	1.113632	0.314757	0.341720
C91	C	0.212349	-0.308782	-0.371795
C92	C	0.545682	0.024551	-0.038461
C93	C	0.879016	0.357884	0.294872
C94	C	0.146913	-0.308762	-0.371793
C95	C	0.480246	0.024571	-0.038460
C96	C	0.813580	0.357904	0.294873
C97	C	0.147083	-0.394914	-0.278145
C98	C	0.480416	-0.061580	0.055188
C99	C	0.813749	0.271753	0.388522
C100	C	0.212518	-0.394927	-0.278143
C101	C	0.545851	-0.061594	0.055190
C102	C	0.879184	0.271739	0.388524
C103	C	0.245147	-0.351863	-0.324972
C104	C	0.578480	-0.018529	0.008362
C105	C	0.911813	0.314804	0.341695
C106	C	0.874883	-0.534457	-0.317577
C107	C	1.208216	-0.201124	0.015756
C108	C	1.541549	0.132210	0.349090
C109	C	0.872229	-0.612566	-0.314448
C110	C	1.205563	-0.279233	0.018885
C111	C	1.538896	0.054100	0.352218
C112	C	0.909357	-0.650990	-0.357958
C113	C	1.242690	-0.317657	-0.024625
C114	C	1.576024	0.015677	0.308709
C115	C	0.906862	-0.724382	-0.355019
C116	C	1.240195	-0.391049	-0.021686
C117	C	1.573528	-0.057715	0.311647
C118	C	0.867241	-0.759349	-0.308567
C119	C	1.200575	-0.426015	0.024766
C120	C	1.533908	-0.092682	0.358099
C121	C	0.830110	-0.720920	-0.265056
C122	C	1.163443	-0.387586	0.068277
C123	C	1.496776	-0.054253	0.401611
C124	C	0.832602	-0.647529	-0.267998
C125	C	1.165936	-0.314196	0.065335
C126	C	1.499269	0.019137	0.398668
C127	C	0.855669	-0.978658	-0.294947
C128	C	1.189002	-0.645324	0.038386
C129	C	1.522335	-0.311991	0.371720
C130	C	0.853180	-1.052053	-0.292006
C131	C	1.186514	-0.718720	0.041327
C132	C	1.519847	-0.385387	0.374660
C133	C	0.929932	-1.055511	-0.381971
C134	C	1.263265	-0.722177	-0.048638
C135	C	1.596598	-0.388844	0.284695
C136	C	0.932423	-0.982118	-0.384907
C137	C	1.265757	-0.648785	-0.051573
C138	C	1.599090	-0.315452	0.281760
C139	C	0.895289	-0.943696	-0.341398
C140	C	1.228623	-0.610363	-0.008065
C141	C	1.561956	-0.277029	0.325269
N142	N	0.864691	-0.834367	-0.305561
N143	N	1.198024	-0.501034	0.027772
N144	N	1.531358	-0.167700	0.361106
N145	N	0.897837	-0.868679	-0.344408
N146	N	1.231170	-0.535346	-0.011075
N147	N	1.564503	-0.202012	0.322259
C148	C	1.044640	-0.351844	-0.324967
C149	C	1.377973	-0.018511	0.008367
C150	C	1.711307	0.314822	0.341700
C151	C	1.114281	-0.351830	-0.324976
C152	C	1.447615	-0.018497	0.008358
C153	C	1.780948	0.314836	0.341691
C154	C	0.874430	-0.359198	-0.508225
C155	C	1.207763	-0.025865	-0.174891
C156	C	1.541096	0.307468	0.158442
C157	C	0.871538	-0.362318	-0.586328
C158	C	1.204871	-0.028985	-0.252994
C159	C	1.538204	0.304349	0.080339
C160	C	0.887591	-0.168585	-0.332357
C161	C	1.220925	0.164748	0.000976
C162	C	1.554258	0.498081	0.334309
C163	C	0.890308	-0.090477	-0.335516
C164	C	1.223641	0.242856	-0.002183
C165	C	1.556975	0.576190	0.331151
C166	C	0.911809	-0.318837	-0.624844
C167	C	1.245142	0.014497	-0.291511
C168	C	1.578476	0.347830	0.041822
C169	C	0.909084	-0.321765	-0.698230
C170	C	1.242417	0.011568	-0.364897
C171	C	1.575751	0.344901	-0.031564
C172	C	0.866090	-0.368179	-0.733098
C173	C	1.199424	-0.034846	-0.399765
C174	C	1.532757	0.298487	-0.066432
C175	C	0.825814	-0.411662	-0.694577
C176	C	1.159148	-0.078329	-0.361243
C177	C	1.492481	0.255004	-0.027910
C178	C	0.828537	-0.408730	-0.621192
C179	C	1.161870	-0.075396	-0.287859
C180	C	1.495203	0.257937	0.045475
C181	C	0.853481	-0.381767	-0.952379
C182	C	1.186814	-0.048433	-0.619046
C183	C	1.520148	0.284900	-0.285713
C184	C	0.850763	-0.384698	-1.025769
C185	C	1.184096	-0.051364	-0.692436
C186	C	1.517430	0.281969	-0.359102
C187	C	0.934032	-0.294799	-1.029418
C188	C	1.267366	0.038534	-0.696085
C189	C	1.600699	0.371867	-0.362751
C190	C	0.936754	-0.291874	-0.956032
C191	C	1.270087	0.041459	-0.622698
C192	C	1.603420	0.374793	-0.289365
C193	C	0.896476	-0.335354	-0.917516
C194	C	1.229809	-0.002021	-0.584183
C195	C	1.563142	0.331313	-0.250850
N196	N	0.863305	-0.371175	-0.808111
N197	N	1.196639	-0.037842	-0.474777
N198	N	1.529972	0.295491	-0.141444
N199	N	0.899258	-0.332354	-0.842506
N200	N	1.232591	0.000979	-0.509172
N201	N	1.565925	0.334313	-0.175839
C202	C	0.888014	-0.344534	-0.142380
C203	C	1.221348	-0.011201	0.190953
C204	C	1.554681	0.322133	0.524286
C205	C	0.891035	-0.341216	-0.064286
C206	C	1.224368	-0.007883	0.269048
C207	C	1.557701	0.325450	0.602381
H208	H	0.523846	-0.273771	-0.409892
H209	H	0.857179	0.059563	-0.076558
H210	H	1.190512	0.392896	0.256775
C211	C	0.454471	-0.219436	-0.342168
C212	C	0.787805	0.113897	-0.008834
C213	C	1.121138	0.447231	0.324499
H214	H	0.426817	-0.181859	-0.347047
H215	H	0.760151	0.151475	-0.013713
H216	H	1.093484	0.484808	0.319620
H217	H	0.478465	-0.222041	-0.382853
H218	H	0.811798	0.111292	-0.049520
H219	H	1.145132	0.444625	0.283813
H220	H	0.481697	-0.211599	-0.302148
H221	H	0.815031	0.121734	0.031185
H222	H	1.148364	0.455067	0.364518
C223	C	0.778523	-0.462717	-0.732929
C224	C	1.111856	-0.129384	-0.399596
C225	C	1.445189	0.203950	-0.066263
H226	H	0.782673	-0.458242	-0.782151
H227	H	1.116006	-0.124909	-0.448818
H228	H	1.449339	0.208424	-0.115484
H229	H	0.737228	-0.451962	-0.721311
H230	H	1.070562	-0.118629	-0.387978
H231	H	1.403895	0.214704	-0.054645
H232	H	0.786501	-0.509452	-0.718992
H233	H	1.119834	-0.176119	-0.385659
H234	H	1.453168	0.157214	-0.052326
C235	C	0.809183	-0.429597	-0.910018
C236	C	1.142516	-0.096263	-0.576685
C237	C	1.475849	0.237070	-0.243352
H238	H	0.816954	-0.421201	-0.861319
H239	H	1.150287	-0.087868	-0.527986
H240	H	1.483621	0.245466	-0.194652
H241	H	0.816264	-0.477291	-0.920137
H242	H	1.149598	-0.143957	-0.586804
H243	H	1.482931	0.189376	-0.253471
H244	H	0.766995	-0.419797	-0.922455
H245	H	1.100328	-0.086464	-0.589122
H246	H	1.433662	0.246870	-0.255789
C247	C	0.791763	-0.605263	-0.220137
C248	C	1.125096	-0.271930	0.113196
C249	C	1.458430	0.061404	0.446530
H250	H	0.767813	-0.636598	-0.192046
H251	H	1.101146	-0.303264	0.141287
H252	H	1.434480	0.030069	0.474621
H253	H	0.764422	-0.577731	-0.248136
H254	H	1.097755	-0.244398	0.085197
H255	H	1.431088	0.088935	0.418530
H256	H	0.817861	-0.575392	-0.190691
H257	H	1.151194	-0.242059	0.142643
H258	H	1.484528	0.091275	0.475976
C259	C	0.959100	-0.267778	-0.586496
C260	C	1.292433	0.065556	-0.253163
C261	C	1.625767	0.398889	0.080171
H262	H	0.982689	-0.242296	-0.619949
H263	H	1.316022	0.091037	-0.286615
H264	H	1.649355	0.424371	0.046718
H265	H	0.986529	-0.293504	-0.556785
H266	H	1.319862	0.039829	-0.223452
H267	H	1.653195	0.373162	0.109882
H268	H	0.937252	-0.236018	-0.559106
H269	H	1.270586	0.097315	-0.225772
H270	H	1.603919	0.430649	0.107561
H271	H	0.120211	-0.273682	-0.409924
H272	H	0.453544	0.059651	-0.076591
H273	H	0.786878	0.392984	0.256743
C274	C	0.651878	-0.261491	-0.423258
C275	C	0.985211	0.071843	-0.089925
C276	C	1.318545	0.405176	0.243409
H277	H	0.622970	-0.235829	-0.451142
H278	H	0.956303	0.097504	-0.117809
H279	H	1.289637	0.430838	0.215524
H280	H	0.675335	-0.289641	-0.452742
H281	H	1.008669	0.043693	-0.119408
H282	H	1.342002	0.377026	0.213925
H283	H	0.679465	-0.229759	-0.397656
H284	H	1.012798	0.103574	-0.064323
H285	H	1.346132	0.436907	0.269010
H286	H	0.120511	-0.429981	-0.240026
H287	H	0.453844	-0.096647	0.093307
H288	H	0.787178	0.236686	0.426640
C289	C	0.784253	-0.456576	-0.578823
C290	C	1.117586	-0.123243	-0.245490
C291	C	1.450920	0.210091	0.087844
H292	H	0.758265	-0.484648	-0.610098
H293	H	1.091598	-0.151315	-0.276764
H294	H	1.424932	0.182019	0.056569
H295	H	0.758946	-0.428570	-0.551268
H296	H	1.092279	-0.095237	-0.217935
H297	H	1.425613	0.238096	0.115398
H298	H	0.808234	-0.486044	-0.548971
H299	H	1.141567	-0.152711	-0.215638
H300	H	1.474900	0.180623	0.117696
C301	C	0.970774	-1.097773	-0.429831
C302	C	1.304107	-0.764440	-0.096497
C303	C	1.637440	-0.431106	0.236836
H304	H	0.994730	-1.066436	-0.457913
H305	H	1.328063	-0.733103	-0.124580
H306	H	1.661396	-0.399770	0.208754
H307	H	0.944681	-1.127646	-0.459274
H308	H	1.278014	-0.794312	-0.125941
H309	H	1.611347	-0.460979	0.207393
H310	H	0.998119	-1.125303	-0.401828
H311	H	1.331453	-0.791969	-0.068494
H312	H	1.664786	-0.458636	0.264839
C313	C	0.809591	-1.090516	-0.240912
C314	C	1.142924	-0.757183	0.092421
C315	C	1.476258	-0.423849	0.425754
H316	H	0.787827	-1.057123	-0.215426
H317	H	1.121160	-0.723789	0.117907
H318	H	1.454494	-0.390456	0.451240
H319	H	0.833739	-1.117904	-0.209172
H320	H	1.167073	-0.784571	0.124162
H321	H	1.500406	-0.451238	0.457495
H322	H	0.780307	-1.120243	-0.266625
H323	H	1.113640	-0.786910	0.066708
H324	H	1.446973	-0.453576	0.400041
H325	H	0.239221	-0.430006	-0.240015
H326	H	0.572554	-0.096672	0.093319
H327	H	0.905888	0.236661	0.426652
H328	H	0.238917	-0.273712	-0.409921
H329	H	0.572251	0.059621	-0.076588
H330	H	0.905584	0.392955	0.256746
C331	C	0.446008	-0.484378	-0.307738
C332	C	0.779341	-0.151044	0.025596
C333	C	1.112674	0.182289	0.358929
H334	H	0.415951	-0.521942	-0.302866
H335	H	0.749284	-0.188608	0.030467
H336	H	1.082618	0.144725	0.363800
H337	H	0.473071	-0.481786	-0.267046
H338	H	0.806404	-0.148452	0.066287
H339	H	1.139738	0.184881	0.399620
H340	H	0.469827	-0.492225	-0.347752
H341	H	0.803161	-0.158892	-0.014419
H342	H	1.136494	0.174442	0.318915
H343	H	0.825434	-0.947380	-0.259519
H344	H	1.158767	-0.614046	0.073814
H345	H	1.492101	-0.280713	0.407148
C346	C	0.947706	-0.766648	-0.402873
C347	C	1.281040	-0.433315	-0.069539
C348	C	1.614373	-0.099981	0.263794
H349	H	0.940544	-0.815365	-0.394474
H350	H	1.273878	-0.482032	-0.061140
H351	H	1.607211	-0.148698	0.272193
H352	H	0.990599	-0.754161	-0.393111
H353	H	1.323933	-0.420828	-0.059778
H354	H	1.657266	-0.087495	0.273556
H355	H	0.937165	-0.756501	-0.450562
H356	H	1.270498	-0.423168	-0.117229
H357	H	1.603831	-0.089834	0.216104
H358	H	0.797847	-0.749396	-0.227237
H359	H	1.131181	-0.416062	0.106097
H360	H	1.464514	-0.082729	0.439430
H361	H	0.941879	-0.286360	-0.729588
H362	H	1.275212	0.046973	-0.396254
H363	H	1.608546	0.380307	-0.062921
C364	C	0.978330	-0.246970	-1.071786
C365	C	1.311663	0.086363	-0.738453
C366	C	1.644996	0.419696	-0.405119
H367	H	0.970549	-0.255358	-1.120485
H368	H	1.303882	0.077975	-0.787152
H369	H	1.637216	0.411308	-0.453819
H370	H	1.020516	-0.256763	-1.059352
H371	H	1.353849	0.076570	-0.726019
H372	H	1.687182	0.409904	-0.392686
H373	H	0.971242	-0.199274	-1.061666
H374	H	1.304575	0.134059	-0.728333
H375	H	1.637909	0.467393	-0.395000
H376	H	0.815750	-0.422495	-1.054156
H377	H	1.149084	-0.089162	-0.720823
H378	H	1.482417	0.244172	-0.387490
C379	C	0.984047	-0.240819	-0.917682
C380	C	1.317381	0.092514	-0.584349
C381	C	1.650714	0.425848	-0.251015
H382	H	1.007639	-0.215339	-0.951132
H383	H	1.340973	0.117995	-0.617799
H384	H	1.674306	0.451328	-0.284466
H385	H	1.011472	-0.266554	-0.887974
H386	H	1.344805	0.066780	-0.554640
H387	H	1.678139	0.400113	-0.221307
H388	H	0.962205	-0.209058	-0.890288
H389	H	1.295538	0.124276	-0.556955
H390	H	1.628871	0.457609	-0.223621
H391	H	0.325832	-0.237432	-0.339840
H392	H	0.659166	0.095901	-0.006507
H393	H	0.992499	0.429235	0.326827
H394	H	0.524146	-0.430061	-0.239991
H395	H	0.857479	-0.096727	0.093343
H396	H	1.190813	0.236606	0.426676
C397	C	0.308603	-0.484346	-0.307737
C398	C	0.641936	-0.151013	0.025596
C399	C	0.975269	0.182320	0.358929
H400	H	0.336261	-0.521918	-0.302839
H401	H	0.669594	-0.188585	0.030494
H402	H	1.002928	0.144748	0.363828
H403	H	0.281373	-0.492197	-0.347746
H404	H	0.614706	-0.158864	-0.014413
H405	H	0.948040	0.174469	0.318920
H406	H	0.284614	-0.481730	-0.267044
H407	H	0.617948	-0.148397	0.066289
H408	H	0.951281	0.184937	0.399622
H409	H	0.642859	-0.430084	-0.239969
H410	H	0.976193	-0.096751	0.093364
H411	H	1.309526	0.236582	0.426697
C412	C	0.952932	-0.612533	-0.409064
C413	C	1.286265	-0.279200	-0.075731
C414	C	1.619598	0.054133	0.257602
H415	H	0.974679	-0.645931	-0.434563
H416	H	1.308012	-0.312598	-0.101230
H417	H	1.641346	0.020735	0.232104
H418	H	0.982221	-0.582801	-0.383372
H419	H	1.315555	-0.249468	-0.050039
H420	H	1.648888	0.083865	0.283294
H421	H	0.928769	-0.585151	-0.440803
H422	H	1.262102	-0.251818	-0.107470
H423	H	1.595436	0.081516	0.225864
H424	H	0.964685	-0.953650	-0.422732
H425	H	1.298019	-0.620317	-0.089398
H426	H	1.631352	-0.286983	0.243935
