data_functionalizedCrystal
_audit_creation_method	'MofGen! by Chris Wilmer'
_symmetry_space_group_name_H-M	'P1'
_symmetry_Int_Tables_number	1
_symmetry_cell_setting	triclinic
loop_
_symmetry_equiv_pos_as_xyz
  x,y,z
_cell_length_a	12.594516
_cell_length_b	16.625548
_cell_length_c	16.625539
_cell_angle_alpha	89.981168
_cell_angle_beta	90.021462
_cell_angle_gamma	89.984088
loop_
_atom_site_label
_atom_site_type_symbol
_atom_site_fract_x
_atom_site_fract_y
_atom_site_fract_z
Zn1	Zn	-0.423764	-1.232688	0.455975
Zn2	Zn	-0.090430	-0.899355	0.789309
Zn3	Zn	0.242903	-0.566022	1.122642
Zn4	Zn	-0.601759	-1.232615	0.321154
Zn5	Zn	-0.268426	-0.899282	0.654488
Zn6	Zn	0.064907	-0.565948	0.987821
Zn7	Zn	-0.423795	-1.097859	0.321152
Zn8	Zn	-0.090461	-0.764525	0.654485
Zn9	Zn	0.242872	-0.431192	0.987818
Zn10	Zn	-0.601700	-1.097836	0.455940
Zn11	Zn	-0.268367	-0.764502	0.789273
Zn12	Zn	0.064966	-0.431169	1.122607
O13	O	-0.512755	-1.165249	0.388555
O14	O	-0.179421	-0.831916	0.721889
O15	O	0.153912	-0.498583	1.055222
O16	O	-0.447387	-1.345511	0.438107
O17	O	-0.114054	-1.012178	0.771440
O18	O	0.219280	-0.678844	1.104774
O19	O	-0.578190	-1.214718	0.208322
O20	O	-0.244856	-0.881385	0.541655
O21	O	0.088477	-0.548051	0.874988
O22	O	-0.274845	-1.115784	0.339050
O23	O	0.058488	-0.782451	0.672384
O24	O	0.391822	-0.449118	1.005717
O25	O	-0.578160	-1.345457	0.339055
O26	O	-0.244826	-1.012124	0.672388
O27	O	0.088507	-0.678790	1.005721
O28	O	-0.274822	-1.214843	0.438105
O29	O	0.058511	-0.881510	0.771438
O30	O	0.391845	-0.548177	1.104771
O31	O	-0.447440	-1.115713	0.208320
O32	O	-0.114107	-0.782380	0.541653
O33	O	0.219227	-0.449046	0.874986
O34	O	-0.447383	-0.985023	0.339016
O35	O	-0.114049	-0.651690	0.672349
O36	O	0.219284	-0.318356	1.005683
O37	O	-0.578059	-1.115745	0.568777
O38	O	-0.244726	-0.782412	0.902111
O39	O	0.088608	-0.449079	1.235444
O40	O	-0.578089	-0.985006	0.438044
O41	O	-0.244756	-0.651673	0.771378
O42	O	0.088578	-0.318340	1.104711
O43	O	-0.447330	-1.214821	0.568803
O44	O	-0.113996	-0.881488	0.902137
O45	O	0.219337	-0.548154	1.235470
O46	O	-0.750697	-1.214696	0.339020
O47	O	-0.417364	-0.881363	0.672354
O48	O	-0.084031	-0.548029	1.005687
O49	O	-0.750654	-1.115674	0.438047
O50	O	-0.417321	-0.782341	0.771380
O51	O	-0.083987	-0.449008	1.104713
C52	C	-0.512733	-0.955759	0.388526
C53	C	-0.179400	-0.622425	0.721860
C54	C	0.153933	-0.289092	1.055193
C55	C	-0.512750	-0.866138	0.388533
C56	C	-0.179417	-0.532804	0.721866
C57	C	0.153917	-0.199471	1.055200
C58	C	-0.512748	-0.537962	0.388557
C59	C	-0.179415	-0.204629	0.721891
C60	C	0.153919	0.128705	1.055224
C61	C	-0.512746	-0.629270	0.388548
C62	C	-0.179412	-0.295937	0.721881
C63	C	0.153921	0.037396	1.055215
C64	C	-0.512750	-0.702047	0.388545
C65	C	-0.179416	-0.368713	0.721878
C66	C	0.153917	-0.035380	1.055211
C67	C	-0.512746	-0.793361	0.388537
C68	C	-0.179413	-0.460028	0.721870
C69	C	0.153921	-0.126694	1.055203
C70	C	-0.789296	-1.165197	0.388548
C71	C	-0.455962	-0.831863	0.721881
C72	C	-0.122629	-0.498530	1.055214
C73	C	-0.907601	-1.165248	0.388571
C74	C	-0.574268	-0.831914	0.721904
C75	C	-0.240934	-0.498581	1.055238
C76	C	-0.976869	-1.111385	0.442394
C77	C	-0.643536	-0.778051	0.775727
C78	C	-0.310202	-0.444718	1.109060
C79	C	-1.047726	-1.091744	0.368819
C80	C	-0.714393	-0.758411	0.702152
C81	C	-0.381060	-0.425077	1.035485
C82	C	-1.047543	-1.184962	0.462159
C83	C	-0.714209	-0.851628	0.795492
C84	C	-0.380876	-0.518295	1.128826
C85	C	-0.976900	-1.145568	0.314957
C86	C	-0.643567	-0.812235	0.648290
C87	C	-0.310233	-0.478902	0.981624
C88	C	-0.976710	-1.238820	0.408347
C89	C	-0.643377	-0.905487	0.741680
C90	C	-0.310043	-0.572154	1.075014
C91	C	-1.047535	-1.219208	0.334721
C92	C	-0.714202	-0.885874	0.668054
C93	C	-0.380869	-0.552541	1.001388
C94	C	-0.235134	-1.165324	0.388581
C95	C	0.098200	-0.831991	0.721914
C96	C	0.431533	-0.498658	1.055248
C97	C	-0.116828	-1.165356	0.388592
C98	C	0.216505	-0.832023	0.721925
C99	C	0.549838	-0.498690	1.055259
C100	C	-0.512684	-1.165289	0.598864
C101	C	-0.179351	-0.831956	0.932198
C102	C	0.153982	-0.498622	1.265531
C103	C	-0.512654	-1.165306	0.688486
C104	C	-0.179321	-0.831972	1.021819
C105	C	0.154012	-0.498639	1.355152
C106	C	-0.512769	-0.375558	0.388577
C107	C	-0.179436	-0.042225	0.721911
C108	C	0.153897	0.291108	1.055244
C109	C	-0.512758	-0.465179	0.388567
C110	C	-0.179425	-0.131846	0.721900
C111	C	0.153909	0.201487	1.055233
C112	C	-0.512748	-1.165256	0.179065
C113	C	-0.179414	-0.831923	0.512398
C114	C	0.153919	-0.498590	0.845731
C115	C	-0.512478	-1.165396	0.089444
C116	C	-0.179144	-0.832063	0.422777
C117	C	0.154189	-0.498729	0.756111
C118	C	-0.512631	-1.165319	0.761268
C119	C	-0.179297	-0.831986	1.094601
C120	C	0.154036	-0.498652	1.427935
C121	C	-0.512591	-1.165338	0.852577
C122	C	-0.179258	-0.832004	1.185910
C123	C	0.154075	-0.498671	1.519243
C124	C	-0.512554	-1.165357	0.925353
C125	C	-0.179220	-0.832023	1.258686
C126	C	0.154113	-0.498690	1.592020
C127	C	-0.512515	-1.165377	1.016667
C128	C	-0.179182	-0.832044	1.350001
C129	C	0.154151	-0.498710	1.683334
H130	H	-0.945839	-1.065753	0.487844
H131	H	-0.612506	-0.732420	0.821177
H132	H	-0.279173	-0.399086	1.154510
F133	F	-0.936513	-1.123740	0.233602
F134	F	-0.603179	-0.790406	0.566935
F135	F	-0.269846	-0.457073	0.900269
F136	F	-1.088496	-1.010482	0.346959
F137	F	-0.755163	-0.677148	0.680292
F138	F	-0.421830	-0.343815	1.013626
H139	H	-1.078368	-1.264804	0.289161
H140	H	-0.745035	-0.931471	0.622495
H141	H	-0.411702	-0.598138	0.955828
H142	H	-0.945496	-1.300974	0.425092
H143	H	-0.612162	-0.967641	0.758425
H144	H	-0.278829	-0.634308	1.091758
F145	F	-1.088106	-1.206698	0.543489
F146	F	-0.754773	-0.873365	0.876822
F147	F	-0.421440	-0.540031	1.210155
