data_functionalizedCrystal
_audit_creation_method	'MofGen! by Chris Wilmer'
_symmetry_space_group_name_H-M	'P1'
_symmetry_Int_Tables_number	1
_symmetry_cell_setting	triclinic
loop_
_symmetry_equiv_pos_as_xyz
  x,y,z
_cell_length_a	15.021413
_cell_length_b	14.044220
_cell_length_c	14.044220
_cell_angle_alpha	93.188878
_cell_angle_beta	90.003392
_cell_angle_gamma	89.996894
loop_
_atom_site_label
_atom_site_type_symbol
_atom_site_fract_x
_atom_site_fract_y
_atom_site_fract_z
O1	O	0.073941	-1.277172	-0.230155
O2	O	0.323941	-1.027172	0.019845
O3	O	0.573941	-0.777172	0.269845
O4	O	0.823941	-0.527172	0.519845
O5	O	0.073963	-1.000501	-0.221850
O6	O	0.323963	-0.750501	0.028150
O7	O	0.573963	-0.500501	0.278150
O8	O	0.823963	-0.250501	0.528150
O9	O	0.073944	-1.134684	-0.087667
O10	O	0.323944	-0.884684	0.162333
O11	O	0.573944	-0.634684	0.412333
O12	O	0.823944	-0.384684	0.662333
O13	O	0.073961	-1.142989	-0.364338
O14	O	0.323961	-0.892989	-0.114338
O15	O	0.573961	-0.642989	0.135662
O16	O	0.823961	-0.392989	0.385662
O17	O	-0.074121	-1.134662	-0.087686
O18	O	0.175879	-0.884662	0.162314
O19	O	0.425879	-0.634662	0.412314
O20	O	0.675879	-0.384662	0.662314
O21	O	-0.074101	-1.000479	-0.221869
O22	O	0.175899	-0.750479	0.028131
O23	O	0.425899	-0.500479	0.278131
O24	O	0.675899	-0.250479	0.528131
O25	O	-0.074123	-1.277151	-0.230174
O26	O	0.175877	-1.027151	0.019826
O27	O	0.425877	-0.777151	0.269826
O28	O	0.675877	-0.527151	0.519826
Zn29	Zn	-0.097620	-1.138811	-0.226024
Zn30	Zn	0.152380	-0.888811	0.023976
Zn31	Zn	0.402380	-0.638811	0.273976
Zn32	Zn	0.652380	-0.388811	0.523976
Zn33	Zn	0.097460	-1.138840	-0.225999
Zn34	Zn	0.347460	-0.888840	0.024001
Zn35	Zn	0.597460	-0.638840	0.274001
Zn36	Zn	0.847460	-0.388840	0.524001
O37	O	-0.074104	-1.142968	-0.364357
O38	O	0.175896	-0.892968	-0.114357
O39	O	0.425896	-0.642968	0.135643
O40	O	0.675896	-0.392968	0.385643
C41	C	-0.000066	-0.964868	-0.218223
C42	C	0.249934	-0.714868	0.031777
C43	C	0.499934	-0.464868	0.281777
C44	C	0.749934	-0.214868	0.531777
C45	C	-0.000058	-0.858725	-0.207379
C46	C	0.249942	-0.608725	0.042621
C47	C	0.499942	-0.358725	0.292621
C48	C	0.749942	-0.108725	0.542621
C49	C	-0.000092	-1.312783	-0.233800
C50	C	0.249908	-1.062783	0.016200
C51	C	0.499908	-0.812783	0.266200
C52	C	0.749908	-0.562783	0.516200
C53	C	-0.000094	-1.418926	-0.244645
C54	C	0.249906	-1.168926	0.005355
C55	C	0.499906	-0.918926	0.255355
C56	C	0.749906	-0.668926	0.505355
N57	N	-0.230758	-1.138799	-0.226041
N58	N	0.019242	-0.888799	0.023959
N59	N	0.269242	-0.638799	0.273959
N60	N	0.519242	-0.388799	0.523959
C61	C	-0.470432	-1.076740	-0.288055
C62	C	-0.220432	-0.826740	-0.038055
C63	C	0.029568	-0.576740	0.211945
C64	C	0.279568	-0.326740	0.461945
C65	C	-0.529772	-1.164574	-0.313879
C66	C	-0.279772	-0.914574	-0.063879
C67	C	-0.029772	-0.664574	0.186121
C68	C	0.220228	-0.414574	0.436121
C69	C	-0.412365	-1.138821	-0.226020
C70	C	-0.162365	-0.888821	0.023980
C71	C	0.087635	-0.638821	0.273980
C72	C	0.337635	-0.388821	0.523980
C73	C	-0.529767	-1.051012	-0.200219
C74	C	-0.279767	-0.801012	0.049781
C75	C	-0.029767	-0.551012	0.299781
C76	C	0.220233	-0.301012	0.549781
C77	C	-0.587789	-1.138836	-0.226000
C78	C	-0.337789	-0.888836	0.024000
C79	C	-0.087789	-0.638836	0.274000
C80	C	0.162211	-0.388836	0.524000
C81	C	-0.470399	-1.226703	-0.251890
C82	C	-0.220399	-0.976703	-0.001890
C83	C	0.029601	-0.726703	0.248110
C84	C	0.279601	-0.476703	0.498110
C85	C	-0.470388	-1.113081	-0.138188
C86	C	-0.220388	-0.863081	0.111812
C87	C	0.029612	-0.613081	0.361812
C88	C	0.279612	-0.363081	0.611812
C89	C	-0.529701	-1.200975	-0.163981
C90	C	-0.279701	-0.950975	0.086019
C91	C	-0.029701	-0.700975	0.336019
C92	C	0.220299	-0.450975	0.586019
C93	C	-0.311308	-1.138812	-0.226033
C94	C	-0.061308	-0.888812	0.023967
C95	C	0.188692	-0.638812	0.273967
C96	C	0.438692	-0.388812	0.523967
C97	C	-0.688844	-1.138855	-0.225987
C98	C	-0.438844	-0.888855	0.024013
C99	C	-0.188844	-0.638855	0.274013
C100	C	0.061156	-0.388855	0.524013
N101	N	0.230598	-1.138859	-0.225975
N102	N	0.480598	-0.888859	0.024025
N103	N	0.730598	-0.638859	0.274025
N104	N	0.980598	-0.388859	0.524025
C105	C	-0.000089	-1.131037	-0.052054
C106	C	0.249911	-0.881037	0.197946
C107	C	0.499911	-0.631037	0.447946
C108	C	0.749911	-0.381037	0.697946
C109	C	-0.000089	-1.120193	0.054088
C110	C	0.249911	-0.870193	0.304088
C111	C	0.499911	-0.620193	0.554088
C112	C	0.749911	-0.370193	0.804088
C113	C	-0.000077	-0.664388	-0.187553
C114	C	0.249923	-0.414388	0.062447
C115	C	0.499923	-0.164388	0.312447
C116	C	0.749923	0.085612	0.562447
C117	C	-0.000076	-0.613258	-0.264467
C118	C	0.249924	-0.363258	-0.014467
C119	C	0.499924	-0.113258	0.235533
C120	C	0.749924	0.136742	0.485533
C121	C	-0.000086	-0.505122	-0.253435
C122	C	0.249914	-0.255122	-0.003435
C123	C	0.499914	-0.005122	0.246565
C124	C	0.749914	0.244878	0.496565
C125	C	-0.000066	-0.772534	-0.198583
C126	C	0.249934	-0.522534	0.051417
C127	C	0.499934	-0.272534	0.301417
C128	C	0.749934	-0.022534	0.551417
C129	C	-0.000069	-1.146614	-0.399969
C130	C	0.249931	-0.896614	-0.149969
C131	C	0.499931	-0.646614	0.100031
C132	C	0.749931	-0.396614	0.350031
C133	C	-0.000063	-1.157459	-0.506112
C134	C	0.249937	-0.907459	-0.256112
C135	C	0.499937	-0.657459	-0.006112
C136	C	0.749937	-0.407459	0.243888
C137	C	-0.000074	-1.100366	0.248426
C138	C	0.249926	-0.850366	0.498426
C139	C	0.499926	-0.600366	0.748426
C140	C	0.749926	-0.350366	0.998426
C141	C	-0.000078	-1.177281	0.299556
C142	C	0.249922	-0.927281	0.549556
C143	C	0.499922	-0.677281	0.799556
C144	C	0.749922	-0.427281	1.049556
C145	C	-0.000070	-1.166249	0.407692
C146	C	0.249930	-0.916249	0.657692
C147	C	0.499930	-0.666249	0.907692
C148	C	0.749930	-0.416249	1.157692
C149	C	-0.000082	-1.111397	0.140280
C150	C	0.249918	-0.861397	0.390280
C151	C	0.499918	-0.611397	0.640280
C152	C	0.749918	-0.361397	0.890280
H153	H	-0.555857	-1.186358	-0.388148
H154	H	-0.305857	-0.936358	-0.138148
H155	H	-0.055857	-0.686358	0.111852
H156	H	0.194143	-0.436358	0.361852
O157	O	-0.000069	-1.002174	0.298014
O158	O	0.249931	-0.752174	0.548014
O159	O	0.499931	-0.502174	0.798014
O160	O	0.749931	-0.252174	1.048014
H161	H	-0.000065	-0.947525	0.243881
H162	H	0.249935	-0.697525	0.493881
H163	H	0.499935	-0.447525	0.743881
H164	H	0.749935	-0.197525	0.993881
O165	O	-0.435958	-1.007277	-0.357609
O166	O	-0.185958	-0.757277	-0.107609
O167	O	0.064042	-0.507277	0.142391
O168	O	0.314042	-0.257277	0.392391
H169	H	-0.395315	-0.951712	-0.318765
H170	H	-0.145315	-0.701712	-0.068765
H171	H	0.104685	-0.451712	0.181235
H172	H	0.354685	-0.201712	0.431235
H173	H	-0.000086	-0.626951	-0.113425
H174	H	0.249914	-0.376951	0.136575
H175	H	0.499914	-0.126951	0.386575
H176	H	0.749914	0.123049	0.636575
H177	H	-0.444430	-1.300991	-0.273792
H178	H	-0.194430	-1.050991	-0.023792
H179	H	0.055570	-0.800991	0.226208
H180	H	0.305570	-0.550991	0.476208
O181	O	-0.563975	-1.270600	-0.094484
O182	O	-0.313975	-1.020600	0.155516
O183	O	-0.063975	-0.770600	0.405516
O184	O	0.186025	-0.520600	0.655516
H185	H	-0.540071	-1.343399	-0.116116
H186	H	-0.290071	-1.093399	0.133884
H187	H	-0.040071	-0.843399	0.383884
H188	H	0.209929	-0.593399	0.633884
O189	O	-0.000094	-1.275486	0.249980
O190	O	0.249906	-1.025486	0.499980
O191	O	0.499906	-0.775486	0.749980
O192	O	0.749906	-0.525486	0.999980
H193	H	-0.060453	-1.284163	0.204735
H194	H	0.189547	-1.034163	0.454735
H195	H	0.439547	-0.784163	0.704735
H196	H	0.689547	-0.534163	0.954735
O197	O	-0.435796	-1.084200	-0.039840
O198	O	-0.185796	-0.834200	0.210160
O199	O	0.064204	-0.584200	0.460160
O200	O	0.314204	-0.334200	0.710160
H201	H	-0.459529	-1.011243	-0.018588
H202	H	-0.209529	-0.761243	0.231412
H203	H	0.040471	-0.511243	0.481412
H204	H	0.290471	-0.261243	0.731412
H205	H	-0.555847	-0.976748	-0.178407
H206	H	-0.305847	-0.726748	0.071593
H207	H	-0.055847	-0.476748	0.321593
H208	H	0.194153	-0.226748	0.571593
H209	H	-0.000067	-0.650697	-0.338600
H210	H	0.249933	-0.400697	-0.088600
H211	H	0.499933	-0.150697	0.161400
H212	H	0.749933	0.099303	0.411400
