data_functionalizedCrystal
_audit_creation_method	'MofGen! by Chris Wilmer'
_symmetry_space_group_name_H-M	'P1'
_symmetry_Int_Tables_number	1
_symmetry_cell_setting	triclinic
loop_
_symmetry_equiv_pos_as_xyz
  x,y,z
_cell_length_a	19.121266
_cell_length_b	16.625548
_cell_length_c	16.625539
_cell_angle_alpha	89.979432
_cell_angle_beta	87.577902
_cell_angle_gamma	87.556418
loop_
_atom_site_label
_atom_site_type_symbol
_atom_site_fract_x
_atom_site_fract_y
_atom_site_fract_z
Zn1	Zn	0.279587	1.219107	-0.469652
Zn2	Zn	0.397042	1.213309	-0.340593
Zn3	Zn	0.279614	1.084268	-0.334834
Zn4	Zn	0.397002	1.078540	-0.475381
O5	O	0.338311	1.148806	-0.405115
O6	O	0.295173	1.331170	-0.452545
O7	O	0.381493	1.196162	-0.226998
O8	O	0.181328	1.106979	-0.347911
O9	O	0.381467	1.326910	-0.357726
O10	O	0.181308	1.206045	-0.446961
O11	O	0.295219	1.101356	-0.222767
O12	O	0.295180	0.970676	-0.353465
O13	O	0.381398	1.097216	-0.587452
O14	O	0.381424	0.966467	-0.456724
O15	O	0.295134	1.200490	-0.583243
O16	O	0.495319	1.190607	-0.363280
O17	O	0.495290	1.091593	-0.462309
C18	C	0.338301	0.939316	-0.405092
C19	C	0.338314	0.849694	-0.405102
C20	C	0.338318	0.521518	-0.405137
C21	C	0.338315	0.612827	-0.405125
C22	C	0.338316	0.685603	-0.405119
C23	C	0.338312	0.776917	-0.405108
C24	C	0.155122	1.157798	-0.396154
C25	C	0.077057	1.161629	-0.392336
C26	C	0.040369	1.111877	-0.442097
C27	C	-0.032981	1.115480	-0.438511
C28	C	-0.069641	1.168831	-0.385158
C29	C	-0.032948	1.218589	-0.335394
C30	C	0.040401	1.214990	-0.338986
C31	C	-0.291106	1.182281	-0.371739
C32	C	-0.364459	1.185875	-0.368150
C33	C	-0.364487	1.082766	-0.471268
C34	C	-0.291137	1.079168	-0.474851
C35	C	-0.254450	1.128929	-0.425091
C36	C	-0.144616	1.172513	-0.381489
C37	C	-0.179476	1.125250	-0.428764
C38	C	0.520788	1.139871	-0.414059
C39	C	0.598853	1.136122	-0.417912
C40	C	0.338259	1.148861	-0.615422
C41	C	0.338237	1.148884	-0.705042
C42	C	0.338322	1.359114	-0.405139
C43	C	0.338326	1.448735	-0.405149
C44	C	0.338158	1.148925	-1.033214
C45	C	0.338182	1.148912	-0.941906
C46	C	0.338198	1.148905	-0.869131
C47	C	0.338221	1.148891	-0.777817
C48	C	0.338313	1.148800	-0.195624
C49	C	0.338137	1.148942	-0.105995
H50	H	0.070212	1.068433	-0.485544
N51	N	0.077869	1.265816	-0.288150
N52	N	0.045130	1.313447	-0.240514
H53	H	0.071591	1.349347	-0.204610
N54	N	-0.070446	1.064656	-0.489350
N55	N	-0.037706	1.017021	-0.536980
H56	H	-0.064164	0.981125	-0.572889
N57	N	-0.070403	1.273093	-0.280910
N58	N	-0.135893	1.276303	-0.277712
H59	H	-0.162346	1.314797	-0.239232
H60	H	-0.149625	1.081815	-0.472207
N61	N	-0.253685	1.024667	-0.529341
N62	N	-0.212752	0.971272	-0.502964
H63	H	-0.186301	0.932776	-0.541444
H64	H	-0.394365	1.042254	-0.511782
H65	H	-0.261244	1.222797	-0.331218
N66	N	-0.401897	1.240376	-0.313640
N67	N	-0.369134	1.284798	-0.269213
H68	H	-0.395574	1.323286	-0.230715
N69	N	-0.182081	1.226999	-0.326994
N70	N	-0.223006	1.200623	-0.273618
H71	H	-0.249471	1.239106	-0.235135
