data_functionalizedCrystal
_audit_creation_method	'MofGen! by Chris Wilmer'
_symmetry_space_group_name_H-M	'P1'
_symmetry_Int_Tables_number	1
_symmetry_cell_setting	triclinic
loop_
_symmetry_equiv_pos_as_xyz
  x,y,z
_cell_length_a	23.532407
_cell_length_b	10.723024
_cell_length_c	9.198806
_cell_angle_alpha	89.996352
_cell_angle_beta	90.011662
_cell_angle_gamma	96.341692
loop_
_atom_site_label
_atom_site_type_symbol
_atom_site_fract_x
_atom_site_fract_y
_atom_site_fract_z
O1	O	0.079871	-1.654700	0.120913
O2	O	0.087516	-1.291309	0.120921
O3	O	0.000833	-1.483962	0.120876
O4	O	0.166554	-1.462046	0.120958
O5	O	0.000833	-1.483947	-0.120909
O6	O	0.087516	-1.291294	-0.120864
O7	O	0.079871	-1.654684	-0.120872
Cu8	Cu	0.083693	-1.472988	-0.142945
Cu9	Cu	0.083693	-1.473006	0.142994
O10	O	0.166554	-1.462031	-0.120827
C11	C	0.086960	-1.244819	0.000029
C12	C	0.085295	-1.106317	0.000030
C13	C	-0.020387	-1.483397	-0.000024
C14	C	-0.083615	-1.481719	-0.000046
C15	C	0.080427	-1.701174	0.000024
C16	C	0.082092	-1.839677	0.000032
C17	C	-0.350567	-1.360791	0.000048
C18	C	-0.291157	-1.362350	0.000036
O19	O	-0.255035	-1.266419	0.000085
N20	N	-0.267787	-1.476882	0.000017
C21	C	-0.303832	-1.589863	0.000024
O22	O	-0.278499	-1.687425	0.000008
C23	C	-0.363241	-1.588303	0.000046
C24	C	-0.386607	-1.473763	0.000050
C25	C	-0.373934	-1.246260	0.000054
C26	C	-0.433340	-1.244702	0.000062
C27	C	-0.469380	-1.357675	0.000065
C28	C	-0.446013	-1.472205	0.000059
C29	C	-0.399284	-1.701282	0.000063
C30	C	-0.458697	-1.699713	0.000086
C31	C	-0.482063	-1.585173	0.000090
C32	C	-0.541459	-1.583619	0.000069
N33	N	-0.564829	-1.469087	0.000089
C34	C	-0.528789	-1.356114	0.000086
C35	C	-0.179068	-1.593130	-0.000019
C36	C	-0.119660	-1.594692	-0.000051
C37	C	-0.106989	-1.367178	-0.000036
C38	C	-0.166398	-1.365618	-0.000014
C39	C	-0.202437	-1.478598	0.000000
C40	C	-0.653547	-1.352851	0.000103
C41	C	-0.712959	-1.351303	0.000105
C42	C	-0.725625	-1.578816	0.000098
C43	C	-0.666218	-1.580365	0.000088
C44	C	-0.630180	-1.467372	0.000095
O45	O	-0.577616	-1.679499	0.000027
O46	O	-0.554130	-1.258569	0.000121
C47	C	0.187773	-1.462597	0.000076
C48	C	0.251001	-1.464275	0.000108
N49	N	0.083693	-1.472984	-0.344059
C50	C	0.133798	-1.029823	0.000055
C51	C	0.132079	-0.886673	0.000056
C52	C	0.047136	-1.553879	-0.416275
C53	C	0.047134	-1.553898	-0.583687
N54	N	0.083689	-1.473019	0.344108
H55	H	-0.731980	-1.258027	0.000102
H56	H	-0.100641	-1.687961	-0.000077
Br57	Br	0.205136	-1.097293	0.000081
H58	H	0.114991	-1.403763	-0.593799
Br59	Br	0.013957	-1.038847	-0.000022
H60	H	0.173602	-0.820947	0.000083
Br61	Br	0.135853	-1.357558	-0.447570
Br62	Br	-0.005173	-1.668981	-0.312764
H63	H	0.040567	-0.905395	0.000020
Br64	Br	-0.604647	-1.199502	0.000112
H65	H	-0.488038	-1.791717	0.000105
H66	H	0.015839	-1.623160	-0.645789
H67	H	-0.452358	-1.151432	0.000078
H68	H	-0.185418	-1.272349	-0.000016
Br69	Br	-0.058066	-1.213857	-0.000042
Br70	Br	-0.325032	-1.092919	0.000057
H71	H	-0.208409	-1.685138	-0.000017
H72	H	-0.380271	-1.794553	0.000060
H73	H	-0.754979	-1.670795	0.000093
Br74	Br	-0.634505	-1.735812	0.000020
