data_functionalizedCrystal
_audit_creation_method	'MofGen! by Chris Wilmer'
_symmetry_space_group_name_H-M	'P1'
_symmetry_Int_Tables_number	1
_symmetry_cell_setting	triclinic
loop_
_symmetry_equiv_pos_as_xyz
  x,y,z
_cell_length_a	17.637015
_cell_length_b	16.959455
_cell_length_c	17.639514
_cell_angle_alpha	78.780849
_cell_angle_beta	87.856296
_cell_angle_gamma	78.780682
loop_
_atom_site_label
_atom_site_type_symbol
_atom_site_fract_x
_atom_site_fract_y
_atom_site_fract_z
Zn1	Zn	-0.389470	-1.204000	0.368258
Zn2	Zn	-0.490775	-1.152617	0.215578
Zn3	Zn	-0.363768	-1.051388	0.241281
Zn4	Zn	-0.516422	-1.040928	0.342500
O5	O	-0.440109	-1.112233	0.291904
O6	O	-0.402931	-1.307795	0.348028
O7	O	-0.452437	-1.122062	0.112730
O8	O	-0.260894	-1.097513	0.279661
O9	O	-0.477359	-1.270044	0.235855
O10	O	-0.279777	-1.209637	0.372951
O11	O	-0.359126	-1.047689	0.131614
O12	O	-0.383995	-0.939389	0.254684
O13	O	-0.521071	-1.079686	0.452175
O14	O	-0.496149	-0.931704	0.329050
O15	O	-0.427800	-1.199494	0.471099
O16	O	-0.600460	-1.111919	0.210879
O17	O	-0.619303	-1.029862	0.304127
C18	C	-0.440067	-0.906866	0.291861
C19	C	-0.440071	-0.819008	0.291857
C20	C	-0.478780	-0.427874	0.233449
C21	C	-0.401459	-0.467193	0.350376
C22	C	-0.401446	-0.549739	0.350364
C23	C	-0.440102	-0.571356	0.291894
C24	C	-0.478771	-0.510427	0.233436
C25	C	-0.362785	-0.610674	0.408825
C26	C	-0.362771	-0.693226	0.408816
C27	C	-0.401423	-0.714844	0.350342
C28	C	-0.440093	-0.653909	0.291882
C29	C	-0.478749	-0.675526	0.233412
C30	C	-0.517414	-0.614593	0.174948
C31	C	-0.517423	-0.532046	0.174963
C32	C	-0.401415	-0.797391	0.350327
C33	C	-0.478739	-0.758079	0.233399
C34	C	-0.637443	-1.064204	0.251935
C35	C	-0.721868	-1.043734	0.234862
C36	C	-0.831088	-0.956530	0.162178
C37	C	-0.751759	-0.975772	0.178227
C38	C	-0.771301	-1.092483	0.275468
C39	C	-0.850634	-1.073254	0.259424
C40	C	-0.880521	-1.005276	0.202779
C41	C	-0.900066	-1.121999	0.300025
C42	C	-0.979392	-1.102769	0.283985
C43	C	-1.009285	-1.034792	0.227345
C44	C	-0.959846	-0.986045	0.186739
C45	C	-0.870178	-1.189974	0.356674
C46	C	-0.919610	-1.238720	0.397275
C47	C	-0.998937	-1.219492	0.381232
C48	C	-1.028830	-1.151516	0.324591
C49	C	-1.048375	-1.268240	0.421837
C50	C	-1.127701	-1.249009	0.405798
C51	C	-1.108156	-1.132285	0.308551
C52	C	-0.242007	-1.160473	0.332046
C53	C	-0.157588	-1.181031	0.349152
C54	C	-0.480164	-1.144155	0.489959
C55	C	-0.497233	-1.157758	0.574358
C56	C	-0.440140	-0.318401	0.291936
C57	C	-0.440124	-0.406257	0.291919
C58	C	-0.310493	-1.008906	0.901110
C59	C	-0.326548	-1.021702	0.980413
C60	C	-0.423703	-1.099138	0.960732
C61	C	-0.407653	-1.086352	0.881426
C62	C	-0.351048	-1.041234	0.851622
C63	C	-0.448209	-1.118680	0.831938
C64	C	-0.432163	-1.105891	0.752640
C65	C	-0.375562	-1.060773	0.722829
C66	C	-0.335002	-1.028445	0.772324
C67	C	-0.504818	-1.163793	0.861743
C68	C	-0.545373	-1.196121	0.812255
C69	C	-0.529324	-1.183337	0.732956
C70	C	-0.472723	-1.138219	0.703145
C71	C	-0.569884	-1.215665	0.683461
C72	C	-0.553838	-1.202876	0.604162
C73	C	-0.456677	-1.125430	0.623846
C74	C	-0.400223	-1.080421	1.094618
C75	C	-0.383143	-1.066808	1.010221
H76	H	-0.331287	-0.742832	0.456421
H77	H	-0.469793	-1.135870	0.985009
O78	O	-0.520529	-1.176115	0.938749
C79	C	-0.598679	-1.142374	0.950481
H80	H	-0.620821	-1.092899	0.898413
H81	H	-0.634444	-1.192587	0.957887
C82	C	-0.578631	-1.165290	1.087578
C83	C	-0.605823	-1.104518	1.023630
H84	H	-0.583039	-1.141941	1.132702
H85	H	-0.525980	-1.188024	1.079675
H86	H	-0.608438	-1.207129	1.093740
H87	H	-0.576010	-1.062686	1.017464
H88	H	-0.658470	-1.081775	1.031533
H89	H	-0.410576	-1.088701	0.599580
O90	O	-1.019261	-1.334183	0.476917
C91	C	-0.983322	-1.308147	0.535198
H92	H	-0.966074	-1.246806	0.510747
H93	H	-1.025258	-1.301079	0.585281
C94	C	-0.931902	-1.447457	0.594270
C95	C	-0.910711	-1.372120	0.564236
H96	H	-0.887114	-1.486919	0.612186
H97	H	-0.956116	-1.464999	0.555007
H98	H	-0.966849	-1.441556	0.636002
H99	H	-0.875772	-1.378020	0.522500
H100	H	-0.886489	-1.354581	0.603494
H101	H	-1.132491	-1.076934	0.262421
O102	O	-0.325351	-0.589566	0.465633
C103	C	-0.378584	-0.539204	0.505843
H104	H	-0.430667	-0.508510	0.467318
H105	H	-0.398390	-0.578052	0.560392
C106	C	-0.275652	-0.510877	0.575438
C107	C	-0.339618	-0.473172	0.528118
H108	H	-0.251616	-0.470147	0.589182
H109	H	-0.239788	-0.544808	0.548350
H110	H	-0.292167	-0.543249	0.620890
H111	H	-0.323102	-0.440809	0.482663
H112	H	-0.375479	-0.439233	0.555199
O113	O	-0.287168	-0.990168	1.028399
C114	C	-0.299848	-0.904220	1.005663
H115	H	-0.317392	-0.886184	0.942168
H116	H	-0.347923	-0.875289	1.042375
C117	C	-0.203511	-0.895934	1.094996
C118	C	-0.225052	-0.873781	1.017008
H119	H	-0.157375	-0.877156	1.101996
H120	H	-0.194969	-0.953838	1.110316
H121	H	-0.243579	-0.871823	1.125580
H122	H	-0.184988	-0.897900	0.986426
H123	H	-0.233585	-0.815880	1.001683
H124	H	-0.586852	-1.229214	0.563869
H125	H	-1.167952	-1.288695	0.438868
H126	H	-0.591464	-1.232853	0.836532
O127	O	-0.360112	-1.048309	0.645770
C128	C	-0.427531	-1.005991	0.604517
H129	H	-0.480528	-1.016215	0.641344
H130	H	-0.426282	-0.937746	0.590118
C131	C	-0.366178	-1.025587	0.483925
C132	C	-0.431271	-1.038150	0.529154
H133	H	-0.368485	-1.045421	0.437436
H134	H	-0.320756	-1.054095	0.511717
H135	H	-0.365146	-0.968715	0.471934
H136	H	-0.432298	-1.095022	0.541152
H137	H	-0.476694	-1.009653	0.501362
H138	H	-0.288901	-0.991716	0.748057
H139	H	-1.073879	-1.019131	0.214291
O140	O	-0.363923	-0.856501	0.407211
C141	C	-0.395963	-0.844503	0.479475
H142	H	-0.425477	-0.777711	0.475095
H143	H	-0.440208	-0.885576	0.497055
C144	C	-0.295076	-0.948174	0.545963
C145	C	-0.331320	-0.866137	0.540584
H146	H	-0.255203	-0.961522	0.583659
H147	H	-0.273491	-0.956260	0.497277
H148	H	-0.331955	-0.982391	0.560610
H149	H	-0.294444	-0.831920	0.525929
H150	H	-0.352898	-0.858046	0.589269
H151	H	-0.264391	-0.972177	0.876844
H152	H	-0.984181	-0.930694	0.140609
O153	O	-0.516351	-0.779169	0.176699
C154	C	-0.574211	-0.821921	0.209891
H155	H	-0.559160	-0.850088	0.272885
H156	H	-0.632180	-0.777744	0.206741
C157	C	-0.597924	-0.855654	0.087938
C158	C	-0.579436	-0.890255	0.165306
H159	H	-0.601151	-0.897803	0.060434
H160	H	-0.558945	-0.826849	0.065574
H161	H	-0.646230	-0.818840	0.085324
H162	H	-0.531127	-0.927060	0.167920
H163	H	-0.618407	-0.919068	0.187669
H164	H	-0.615977	-1.252393	0.707739
H165	H	-0.548893	-0.632204	0.127345
O166	O	-0.860005	-0.890447	0.107149
C167	C	-0.799363	-0.851558	0.074731
H168	H	-0.749092	-0.867514	0.117261
H169	H	-0.779274	-0.873307	0.018796
C170	C	-0.889908	-0.738544	0.005189
C171	C	-0.828167	-0.758137	0.057429
H172	H	-0.907675	-0.680917	-0.005487
H173	H	-0.930764	-0.764745	0.027027
H174	H	-0.873159	-0.756674	-0.041417
H175	H	-0.844919	-0.740015	0.104037
H176	H	-0.787314	-0.731930	0.035598
H177	H	-0.548902	-0.482427	0.127364
H178	H	-0.510258	-0.378259	0.185847
O179	O	-0.742133	-1.158507	0.330441
C180	C	-0.661521	-1.165017	0.335908
H181	H	-0.638874	-1.132339	0.279467
H182	H	-0.648126	-1.135598	0.385459
C183	C	-0.649967	-1.296145	0.420510
C184	C	-0.622151	-1.256016	0.351186
H185	H	-0.625681	-1.352277	0.429938
H186	H	-0.704278	-1.291759	0.416830
H187	H	-0.638803	-1.271621	0.461794
H188	H	-0.633324	-1.280534	0.309903
H189	H	-0.567841	-1.260409	0.354860
O190	O	-0.890496	-1.304667	0.452351
C191	C	-0.854553	-1.278642	0.510636
H192	H	-0.837302	-1.217300	0.486190
H193	H	-0.896487	-1.271578	0.560721
C194	C	-0.803137	-1.417958	0.569693
C195	C	-0.781943	-1.342620	0.539667
H196	H	-0.758350	-1.457423	0.587604
H197	H	-0.827354	-1.435492	0.530427
H198	H	-0.838083	-1.412060	0.611427
H199	H	-0.747006	-1.348517	0.497928
H200	H	-0.757718	-1.325088	0.578927
O201	O	-0.364025	-0.446088	0.407186
C202	C	-0.417259	-0.395737	0.447404
H203	H	-0.469344	-0.365042	0.408883
H204	H	-0.437060	-0.434593	0.501951
C205	C	-0.314327	-0.367411	0.517001
C206	C	-0.378297	-0.329705	0.469686
H207	H	-0.290294	-0.326682	0.530749
H208	H	-0.278463	-0.401336	0.489908
H209	H	-0.330838	-0.399790	0.562451
H210	H	-0.361784	-0.297336	0.424234
H211	H	-0.414158	-0.295773	0.496773
H212	H	-0.711514	-0.936071	0.145160
H213	H	-0.805585	-1.205631	0.369729
