data_functionalizedCrystal
_audit_creation_method	'MofGen! by Chris Wilmer'
_symmetry_space_group_name_H-M	'P1'
_symmetry_Int_Tables_number	1
_symmetry_cell_setting	triclinic
loop_
_symmetry_equiv_pos_as_xyz
  x,y,z
_cell_length_a	19.188933
_cell_length_b	19.188930
_cell_length_c	18.266242
_cell_angle_alpha	89.988525
_cell_angle_beta	89.992377
_cell_angle_gamma	83.145175
loop_
_atom_site_label
_atom_site_type_symbol
_atom_site_fract_x
_atom_site_fract_y
_atom_site_fract_z
O1	O	0.926148	0.087175	-0.060865
O2	O	0.722837	0.098908	-0.060873
O3	O	0.830360	-0.008614	-0.060854
O4	O	0.818626	0.194697	-0.060883
O5	O	0.830342	-0.008620	0.060908
O6	O	0.722819	0.098902	0.060889
O7	O	0.926130	0.087170	0.060897
Zn8	Zn	0.824472	0.093035	0.080226
Zn9	Zn	0.824496	0.093042	-0.080201
O10	O	0.818608	0.194692	0.060879
C11	C	0.696817	0.098525	0.000008
C12	C	0.619313	0.097384	0.000005
C13	C	0.066067	0.089242	-0.066358
C14	C	0.138892	0.090310	-0.066361
C15	C	0.175299	0.090844	0.000011
C16	C	0.138878	0.090292	0.066391
C17	C	0.066056	0.089217	0.066392
N18	N	0.284311	0.132260	0.049409
N19	N	0.353489	0.133283	0.049403
C20	C	0.394707	0.094082	0.000012
N21	N	0.364134	0.053828	-0.049385
N22	N	0.294949	0.052808	-0.049382
C23	C	0.254262	0.092009	0.000017
C24	C	0.510084	0.095787	-0.066367
C25	C	0.582911	0.096851	-0.066368
C26	C	0.582894	0.096840	0.066386
C27	C	0.510071	0.095769	0.066385
C28	C	0.473669	0.095246	0.000006
C29	C	0.829971	-0.034628	0.000029
C30	C	0.828830	-0.112132	0.000035
C31	C	0.891921	-0.157056	0.000041
C32	C	0.890849	-0.229880	0.000029
C33	C	0.826683	-0.257777	0.000026
C34	C	0.763584	-0.212843	0.000016
C35	C	0.764658	-0.140021	0.000021
N36	N	0.777630	-0.365784	0.041462
N37	N	0.776614	-0.434962	0.041460
C38	C	0.823445	-0.477185	0.000011
N39	N	0.871340	-0.447618	-0.041425
N40	N	0.872358	-0.378433	-0.041419
C41	C	0.825512	-0.336739	0.000021
C42	C	0.885378	-0.601073	0.000004
C43	C	0.884304	-0.673898	-0.000013
C44	C	0.757037	-0.656860	-0.000019
C45	C	0.758113	-0.584037	-0.000010
C46	C	0.822286	-0.556148	0.000005
C47	C	0.952150	0.087553	0.000015
C48	C	1.029655	0.088694	0.000013
C49	C	0.818997	0.220705	-0.000006
C50	C	0.820137	0.298210	-0.000017
N51	N	0.824461	0.093030	0.189713
N52	N	0.824512	0.093042	-0.189688
C53	C	0.872087	0.045442	0.228030
C54	C	0.872092	0.045439	0.304675
C55	C	0.824476	0.093035	0.342999
C56	C	0.776841	0.140626	0.304673
C57	C	0.776833	0.140624	0.228030
N58	N	0.815400	0.154843	0.463323
N59	N	0.815412	0.154843	0.536131
C60	C	0.824496	0.093045	0.573922
N61	N	0.833581	0.031245	0.536154
N62	N	0.833573	0.031245	0.463339
C63	C	0.824479	0.093043	0.426106
C64	C	0.872130	0.045450	0.695346
C65	C	0.872129	0.045446	0.771992
C66	C	0.776882	0.140640	0.771990
C67	C	0.776879	0.140638	0.695345
C68	C	0.824506	0.093044	0.657028
H69	H	0.036434	0.088813	-0.120409
H70	H	0.612537	0.097273	0.120428
C71	C	0.693866	-0.243031	0.000127
C72	C	0.655718	-0.220176	0.062758
C73	C	0.591485	-0.247962	0.062875
H74	H	0.702162	-0.292833	0.000164
H75	H	0.667868	-0.227568	-0.042315
H76	H	0.681711	-0.235643	0.105188
H77	H	0.647404	-0.170378	0.062734
H78	H	0.565486	-0.232498	0.020433
H79	H	0.599787	-0.297763	0.062910
H80	H	0.565590	-0.232453	0.105365
H81	H	0.942227	-0.266463	0.000031
H82	H	0.168544	0.090760	-0.120410
C83	C	0.470425	0.095287	0.138391
C84	C	0.420563	0.154712	0.142257
C85	C	0.384021	0.154281	0.208576
H86	H	0.502448	0.095791	0.177985
H87	H	0.447425	0.054180	0.141156
H88	H	0.443561	0.195808	0.139500
H89	H	0.388525	0.154220	0.102679
H90	H	0.361022	0.113175	0.211341
H91	H	0.416050	0.154784	0.248165
H92	H	0.350181	0.194597	0.211205
H93	H	0.738099	0.179391	0.664145
H94	H	0.612557	0.097291	-0.120417
C95	C	0.923840	-0.006119	0.346377
C96	C	0.966452	0.030976	0.390370
C97	C	1.014125	-0.016496	0.428800
H98	H	0.952269	-0.034483	0.312661
H99	H	0.898841	-0.035114	0.376333
H100	H	0.991449	0.059959	0.360417
H101	H	0.938043	0.059337	0.424100
H102	H	0.989126	-0.045490	0.458756
H103	H	1.042549	-0.044857	0.395078
H104	H	1.043039	0.008666	0.458659
H105	H	0.480445	0.095359	-0.120417
C106	C	0.178298	0.090980	0.138508
C107	C	0.152526	0.150758	0.178557
C108	C	0.188815	0.151407	0.245001
H109	H	0.226889	0.091737	0.129106
H110	H	0.171793	0.050115	0.165822
H111	H	0.159036	0.191613	0.151249
H112	H	0.103939	0.150015	0.187978
H113	H	0.182311	0.110541	0.272315
H114	H	0.237405	0.152161	0.235592
H115	H	0.171330	0.191962	0.272186
C116	C	0.952882	-0.722560	0.000030
C117	C	1.009307	-0.682545	0.000065
C118	C	1.072493	-0.727349	0.000115
H119	H	0.955220	-0.751327	-0.042422
H120	H	0.955136	-0.751323	0.042506
H121	H	1.007055	-0.653794	-0.042407
H122	H	1.006993	-0.653780	0.042514
H123	H	1.074746	-0.756112	0.042590
H124	H	1.074823	-0.756114	-0.042338
H125	H	1.110784	-0.700206	0.000145
H126	H	0.738049	0.179376	0.196831
C127	C	0.961543	-0.126684	-0.000068
C128	C	0.965881	-0.085349	-0.062701
C129	C	1.030003	-0.057351	-0.062824
H130	H	0.999023	-0.163802	-0.000105
H131	H	0.964610	-0.098598	0.042372
H132	H	0.962821	-0.113432	-0.105130
H133	H	0.928416	-0.048219	-0.062677
H134	H	1.033070	-0.029266	-0.020384
H135	H	1.067478	-0.094473	-0.062859
H136	H	1.032953	-0.029297	-0.105316
H137	H	0.937631	-0.578365	0.000012
C138	C	0.026623	0.088519	0.138512
C139	C	0.052382	0.028730	0.178569
C140	C	0.016079	0.028069	0.245014
H141	H	-0.021967	0.087768	0.129112
H142	H	0.033125	0.129377	0.165820
H143	H	0.045874	-0.012118	0.151266
H144	H	0.100968	0.029467	0.187988
H145	H	0.022581	0.068927	0.272322
H146	H	-0.032510	0.027320	0.235607
H147	H	0.033556	-0.012493	0.272204
H148	H	0.713280	-0.103444	0.000016
C149	C	0.687440	-0.687274	0.000011
C150	C	0.700002	-0.760665	0.000023
C151	C	0.635905	-0.788710	0.000055
H152	H	0.661427	-0.671906	-0.042440
H153	H	0.661457	-0.671891	0.042488
H154	H	0.725975	-0.776042	-0.042450
H155	H	0.726005	-0.776053	0.042470
H156	H	0.609921	-0.773326	0.042532
H157	H	0.609896	-0.773336	-0.042396
H158	H	0.644419	-0.838508	0.000070
C159	C	0.689537	-0.535374	0.000032
C160	C	0.633112	-0.575388	0.000046
C161	C	0.569927	-0.530584	0.000092
H162	H	0.687216	-0.506585	-0.042415
H163	H	0.687268	-0.506633	0.042512
H164	H	0.635381	-0.604117	-0.042431
H165	H	0.635410	-0.604176	0.042490
H166	H	0.567657	-0.501843	0.042572
H167	H	0.567613	-0.501797	-0.042356
H168	H	0.531635	-0.557727	0.000108
C169	C	0.923751	-0.006314	0.653748
C170	C	0.912656	-0.074913	0.672360
C171	C	0.960190	-0.122606	0.634036
H172	H	0.970355	0.001065	0.666257
H173	H	0.916908	0.000481	0.602612
H174	H	0.919505	-0.081705	0.723484
H175	H	0.866061	-0.082315	0.659849
H176	H	0.953346	-0.115811	0.582901
H177	H	1.006791	-0.115221	0.646548
H178	H	0.952664	-0.169156	0.646654
H179	H	0.910867	0.006687	0.196834
H180	H	0.910910	0.006691	0.803191
C181	C	0.725222	0.192273	0.346412
C182	C	0.735435	0.182104	0.421735
C183	C	0.687900	0.229673	0.460206
H184	H	0.678618	0.184849	0.333955
H185	H	0.732663	0.238867	0.333877
H186	H	0.727989	0.135520	0.434264
H187	H	0.782030	0.189533	0.434213
H188	H	0.695341	0.276268	0.447672
H189	H	0.641298	0.222246	0.447744
H190	H	0.694827	0.222784	0.511316
C191	C	0.725148	0.192205	0.813683
C192	C	0.682541	0.155117	0.857716
C193	C	0.634878	0.202594	0.896144
H194	H	0.696715	0.220568	0.779965
H195	H	0.750155	0.221200	0.843611
H196	H	0.657535	0.126134	0.827790
H197	H	0.710954	0.126756	0.891447
H198	H	0.659885	0.231589	0.926073
H199	H	0.606450	0.230955	0.862422
H200	H	0.605968	0.177437	0.926030
