data_functionalizedCrystal
_audit_creation_method	'MofGen! by Chris Wilmer'
_symmetry_space_group_name_H-M	'P1'
_symmetry_Int_Tables_number	1
_symmetry_cell_setting	triclinic
loop_
_symmetry_equiv_pos_as_xyz
  x,y,z
_cell_length_a	12.837943
_cell_length_b	10.540539
_cell_length_c	11.295483
_cell_angle_alpha	94.138588
_cell_angle_beta	85.461227
_cell_angle_gamma	89.677216
loop_
_atom_site_label
_atom_site_type_symbol
_atom_site_fract_x
_atom_site_fract_y
_atom_site_fract_z
O1	O	1.384822	0.322576	-0.098993
O2	O	1.082896	0.306260	-0.099000
O3	O	1.240747	0.130469	-0.098995
O4	O	1.226971	0.498368	-0.098998
O5	O	1.226883	0.145882	0.099055
O6	O	1.069032	0.321674	0.099050
O7	O	1.370958	0.337990	0.099057
Cu8	Cu	1.218729	0.331239	0.117137
Cu9	Cu	1.235125	0.313011	-0.117080
O10	O	1.213106	0.513782	0.099052
C11	C	1.037303	0.308455	0.000024
C12	C	0.922104	0.292017	0.000021
C13	C	0.682608	0.489637	0.000036
C14	C	0.574368	0.474197	0.000034
C15	C	0.597381	0.245700	0.000023
C16	C	0.705621	0.261140	0.000025
C17	C	0.748230	0.383112	0.000030
C18	C	0.856473	0.398549	0.000023
C19	C	0.879484	0.170054	0.000021
C20	C	0.771244	0.154615	0.000019
C21	C	1.232782	0.090759	0.000028
C22	C	1.229692	-0.050529	0.000022
C23	C	1.111280	-0.247004	-0.000426
C24	C	1.114382	-0.100007	0.000020
C25	C	1.277266	-0.097288	0.113119
C26	C	1.273324	-0.244258	0.113215
C27	C	1.291436	-0.262047	-0.112006
C28	C	1.292603	-0.115064	-0.113501
C29	C	1.416551	0.335795	0.000031
C30	C	1.531750	0.352233	0.000026
C31	C	1.221072	0.553491	0.000026
C32	C	1.224163	0.694779	0.000025
N33	N	1.207204	0.344061	0.281873
N34	N	1.246658	0.300181	-0.281816
C35	C	1.329620	0.207816	0.531167
C36	C	1.320918	0.217515	0.655830
C37	C	1.181093	0.373150	0.655866
C38	C	1.189795	0.363451	0.531202
C39	C	1.264062	0.280783	0.468857
C40	C	1.272769	0.271091	0.344192
C41	C	1.132940	0.426719	0.344229
C42	C	1.124238	0.436418	0.468892
H43	H	0.717300	0.588951	0.000038
N44	N	1.409712	0.118668	0.463895
H45	H	1.481946	0.143939	0.485562
H46	H	1.395495	0.028758	0.485610
N47	N	0.503604	0.589111	0.000073
H48	H	0.522545	0.636053	-0.073331
H49	H	0.428587	0.560750	0.000128
H50	H	0.562663	0.146404	0.000118
H51	H	1.333243	0.203782	0.293431
N52	N	1.211159	-0.278866	0.225195
H53	H	1.137953	-0.242768	0.227103
H54	H	1.208060	-0.374497	0.226314
H55	H	1.374300	0.158097	0.706559
H56	H	0.736536	0.055309	0.000029
N57	N	1.043711	-0.285292	0.106405
H58	H	1.018119	-0.206612	0.156905
H59	H	0.981893	-0.334758	0.078701
N60	N	1.249952	-0.318103	-0.225555
H61	H	1.294244	-0.289182	-0.296304
H62	H	1.252459	-0.413993	-0.227028
H63	H	1.064727	-0.056761	0.081226
H64	H	1.355894	-0.282716	0.118347
H65	H	1.361652	-0.065303	0.117326
H66	H	1.120620	0.440447	0.706643
H67	H	1.076394	-0.068510	-0.081053
H68	H	0.932927	0.083313	0.000008
N69	N	1.044135	0.525570	0.536138
H70	H	1.048566	0.520642	0.624568
H71	H	1.058311	0.615464	0.514349
N72	N	0.902430	0.530100	0.000041
H73	H	0.980958	0.523721	0.000039
H74	H	0.883623	0.571587	-0.073374
H75	H	1.232827	-0.052374	0.197281
N76	N	1.062221	0.505433	0.277036
H77	H	1.105896	0.562486	0.225308
H78	H	1.019543	0.447197	0.225388
N79	N	1.058452	-0.299875	-0.107851
H80	H	1.107175	-0.362082	-0.157270
H81	H	0.992479	-0.344839	-0.080764
H82	H	1.377150	-0.082138	-0.120328
N83	N	1.246642	-0.075371	-0.224327
H84	H	1.250442	0.020115	-0.226587
H85	H	1.287448	-0.117255	-0.296989
N86	N	1.401831	-0.312552	-0.113019
H87	H	1.408284	-0.363156	-0.041302
H88	H	1.419094	-0.369160	-0.188096
