data_functionalizedCrystal
_audit_creation_method	'MofGen! by Chris Wilmer'
_symmetry_space_group_name_H-M	'P1'
_symmetry_Int_Tables_number	1
_symmetry_cell_setting	triclinic
loop_
_symmetry_equiv_pos_as_xyz
  x,y,z
_cell_length_a	14.908571
_cell_length_b	16.120444
_cell_length_c	14.908308
_cell_angle_alpha	84.013251
_cell_angle_beta	89.824947
_cell_angle_gamma	89.788391
loop_
_atom_site_label
_atom_site_type_symbol
_atom_site_fract_x
_atom_site_fract_y
_atom_site_fract_z
Zn1	Zn	1.320089	-0.434924	0.609966
Zn2	Zn	1.321029	-0.566746	0.466391
Zn3	Zn	1.179332	-0.418916	0.450140
Zn4	Zn	1.162114	-0.565756	0.607991
O5	O	1.245641	-0.496586	0.533622
O6	O	1.445627	-0.459524	0.598548
O7	O	1.309832	-0.540851	0.338087
O8	O	1.204815	-0.304419	0.465366
O9	O	1.446318	-0.556373	0.493063
O10	O	1.308229	-0.316180	0.582790
O11	O	1.205727	-0.432242	0.326147
O12	O	1.051634	-0.431281	0.463452
O13	O	1.175471	-0.554686	0.734401
O14	O	1.038984	-0.539164	0.579424
O15	O	1.291534	-0.458564	0.735852
O16	O	1.293136	-0.683236	0.491149
O17	O	1.176382	-0.682508	0.595182
C18	C	1.012791	-0.483379	0.519461
C19	C	0.913174	-0.477750	0.513425
C20	C	0.712859	-0.579668	0.622700
C21	C	0.619260	-0.574382	0.617032
C22	C	0.632375	-0.461888	0.496427
C23	C	0.725974	-0.467174	0.502095
C24	C	0.766213	-0.526067	0.565232
C25	C	0.859814	-0.531357	0.570895
C26	C	0.872926	-0.418859	0.450295
C27	C	0.779327	-0.413573	0.444627
C28	C	1.233016	-0.713113	0.544736
C29	C	1.227696	-0.805750	0.549525
C30	C	1.273450	-1.016974	0.508982
C31	C	1.217997	-0.975356	0.558281
C32	C	1.223395	-0.880979	0.553408
C33	C	1.268053	-1.111360	0.513854
C34	C	1.479400	-0.509845	0.547839
C35	C	1.579014	-0.515495	0.553897
C36	C	1.231477	-0.508300	0.768750
C37	C	1.225441	-0.513292	0.868948
C38	C	1.258338	-0.279215	0.522486
C39	C	1.263749	-0.186585	0.517740
C40	C	1.259805	-0.484860	0.299408
C41	C	1.266028	-0.479643	0.199210
C42	C	1.334954	-0.422562	1.058741
C43	C	1.329286	-0.427249	1.152885
C44	C	1.208432	-0.527350	1.151383
C45	C	1.214101	-0.522663	1.057238
C46	C	1.277364	-0.470267	1.010921
C47	C	1.283036	-0.465585	0.916775
C48	C	1.162179	-0.565681	0.915273
C49	C	1.156511	-0.570368	1.009418
H50	H	0.746551	-0.365623	0.393225
H51	H	0.575823	-0.618028	0.663830
C52	C	0.931008	-0.360706	0.388005
C53	C	1.021592	-0.377926	0.406491
C54	C	1.075122	-0.324370	0.349134
H55	H	0.918708	-0.368887	0.327076
H56	H	0.918182	-0.304509	0.397500
H57	H	1.034413	-0.434110	0.396988
H58	H	1.033920	-0.369740	0.467409
H59	H	1.062296	-0.268173	0.358629
H60	H	1.062815	-0.332555	0.288209
H61	H	1.136589	-0.336041	0.361674
C62	C	0.903335	-0.595320	0.639535
C63	C	0.836572	-0.641112	0.688667
C64	C	0.876627	-0.700033	0.751918
H65	H	0.939806	-0.632007	0.609170
H66	H	0.939316	-0.567533	0.679491
H67	H	0.800607	-0.668898	0.648717
H68	H	0.800098	-0.604448	0.719051
H69	H	0.912607	-0.672246	0.791874
H70	H	0.913096	-0.736715	0.721546
H71	H	0.831335	-0.731105	0.785267
C72	C	1.342287	-0.970039	0.447941
C73	C	1.428587	-0.997034	0.474097
C74	C	1.492017	-0.953798	0.417891
H75	H	1.332184	-0.980502	0.387263
H76	H	1.336885	-0.911929	0.452763
H77	H	1.433986	-1.055130	0.469267
H78	H	1.438719	-0.986569	0.534766
H79	H	1.486615	-0.895688	0.422713
H80	H	1.481906	-0.964264	0.357217
H81	H	1.550579	-0.972102	0.435636
C82	C	1.391848	-0.375598	1.204932
C83	C	1.443269	-0.428728	1.264910
C84	C	1.500902	-0.381173	1.312879
H85	H	1.430415	-0.343713	1.163970
H86	H	1.357490	-0.339191	1.237766
H87	H	1.477624	-0.465121	1.232078
H88	H	1.404725	-0.460614	1.305890
H89	H	1.466544	-0.344766	1.345712
H90	H	1.539464	-0.349290	1.271909
H91	H	1.535792	-0.417214	1.353584
C92	C	0.588743	-0.397806	0.427995
C93	C	0.615122	-0.317656	0.444945
C94	C	0.574945	-0.258595	0.381932
H95	H	0.606982	-0.407645	0.368913
H96	H	0.525350	-0.402263	0.432849
H97	H	0.678501	-0.313201	0.440083
H98	H	0.596883	-0.307790	0.504015
H99	H	0.511552	-0.263053	0.386786
H100	H	0.593187	-0.268442	0.322854
H101	H	0.592830	-0.204207	0.393429
H102	H	1.334550	-0.422923	0.879065
C103	C	1.099794	-0.617531	0.863253
C104	C	1.150676	-0.671120	0.815014
C105	C	1.093241	-0.718890	0.767075
H106	H	1.061290	-0.649477	0.904227
H107	H	1.064831	-0.581634	0.822467
H108	H	1.185624	-0.707013	0.855795
H109	H	1.189178	-0.639197	0.774024
H110	H	1.058278	-0.682993	0.726289
H111	H	1.054740	-0.750831	0.808056
H112	H	1.127756	-0.755250	0.734333
C113	C	1.403534	-0.365540	1.008480
C114	C	1.387447	-0.283114	1.025945
C115	C	1.450599	-0.230562	0.979651
H116	H	1.462150	-0.381811	1.028150
H117	H	1.398657	-0.369525	0.945550
H118	H	1.392333	-0.279133	1.088861
H119	H	1.328843	-0.266817	1.006271
H120	H	1.445721	-0.234546	0.916722
H121	H	1.509211	-0.246840	0.999326
H122	H	1.439688	-0.174629	0.991489
C123	C	1.149316	-1.022497	0.619347
C124	C	1.157526	-1.108088	0.612076
C125	C	1.094266	-1.151542	0.668303
H126	H	1.159463	-1.012104	0.680039
H127	H	1.090682	-1.004314	0.601714
H128	H	1.216147	-1.126264	0.629714
H129	H	1.147371	-1.118506	0.551397
H130	H	1.035631	-1.133360	0.650670
H131	H	1.104418	-1.141143	0.728991
H132	H	1.099822	-1.209619	0.663371
H133	H	1.156926	-0.570007	1.189111
H134	H	1.105002	-0.613025	1.047142
H135	H	0.745623	-0.627625	0.674104
