data_functionalizedCrystal
_audit_creation_method	'MofGen! by Chris Wilmer'
_symmetry_space_group_name_H-M	'P1'
_symmetry_Int_Tables_number	1
_symmetry_cell_setting	triclinic
loop_
_symmetry_equiv_pos_as_xyz
  x,y,z
_cell_length_a	15.297979
_cell_length_b	16.959453
_cell_length_c	15.296720
_cell_angle_alpha	99.644028
_cell_angle_beta	88.354193
_cell_angle_gamma	99.680120
loop_
_atom_site_label
_atom_site_type_symbol
_atom_site_fract_x
_atom_site_fract_y
_atom_site_fract_z
Zn1	Zn	1.253400	-0.235128	-0.727370
Zn2	Zn	1.753400	0.264872	-0.227370
Zn3	Zn	1.278668	-0.341284	-0.580899
Zn4	Zn	1.778668	0.158716	-0.080899
Zn5	Zn	1.132279	-0.227449	-0.555536
Zn6	Zn	1.632279	0.272551	-0.055536
Zn7	Zn	1.106898	-0.385597	-0.701920
Zn8	Zn	1.606898	0.114403	-0.201920
O9	O	1.192811	-0.297365	-0.641431
O10	O	1.692811	0.202635	-0.141431
O11	O	1.379328	-0.233879	-0.729206
O12	O	1.879328	0.266121	-0.229206
O13	O	1.280445	-0.304425	-0.454974
O14	O	1.780445	0.195575	0.045026
O15	O	1.148393	-0.117855	-0.578367
O16	O	1.648393	0.382145	-0.078367
O17	O	1.397892	-0.311871	-0.621594
O18	O	1.897892	0.188129	-0.121594
O19	O	1.237380	-0.123497	-0.704613
O20	O	1.737380	0.376503	-0.204613
O21	O	1.172894	-0.220790	-0.436340
O22	O	1.672894	0.279210	0.063660
O23	O	1.006336	-0.263759	-0.553689
O24	O	1.506336	0.236241	-0.053689
O25	O	1.105135	-0.387396	-0.827857
O26	O	1.605135	0.112604	-0.327857
O27	O	0.987689	-0.379950	-0.661236
O28	O	1.487689	0.120050	-0.161236
O29	O	1.212770	-0.276847	-0.846555
O30	O	1.712770	0.223153	-0.346555
O31	O	1.255835	-0.457775	-0.596916
O32	O	1.755835	0.042225	-0.096916
O33	O	1.129636	-0.490332	-0.685830
O34	O	1.629636	0.009668	-0.185830
C35	C	0.965229	-0.325830	-0.601949
C36	C	1.465229	0.174170	-0.101949
C37	C	0.867866	-0.338031	-0.585079
C38	C	1.367866	0.161969	-0.085079
C39	C	1.192743	-0.502734	-0.641387
C40	C	1.692743	-0.002734	-0.141387
C41	C	1.192790	-0.590588	-0.641411
C42	C	1.692790	-0.090588	-0.141411
C43	C	0.831804	-0.384273	-0.521036
C44	C	1.331804	0.115727	-0.021036
C45	C	0.740324	-0.395739	-0.505191
C46	C	1.240324	0.104261	-0.005191
C47	C	0.684899	-0.360958	-0.553381
C48	C	1.184899	0.139042	-0.053381
C49	C	0.720962	-0.314709	-0.617421
C50	C	1.220962	0.185291	-0.117421
C51	C	0.812449	-0.303248	-0.633273
C52	C	1.312449	0.196752	-0.133273
C53	C	0.665545	-0.279932	-0.665618
C54	C	1.165545	0.220068	-0.165618
C55	C	0.701607	-0.233684	-0.729658
C56	C	1.201607	0.266316	-0.229658
C57	C	0.793086	-0.222225	-0.745506
C58	C	1.293086	0.277775	-0.245506
C59	C	0.848511	-0.257006	-0.697316
C60	C	1.348511	0.242994	-0.197316
C61	C	0.574058	-0.291394	-0.649766
C62	C	1.074058	0.208606	-0.149766
C63	C	0.554703	-0.210369	-0.762002
C64	C	1.054703	0.289631	-0.262002
C65	C	0.646182	-0.198903	-0.777848
C66	C	1.146182	0.301097	-0.277848
C67	C	1.239200	-0.964952	-0.707286
C68	C	1.739200	-0.464952	-0.207286
C69	C	1.146644	-0.959166	-0.575750
C70	C	1.646644	-0.459166	-0.075750
C71	C	1.146615	-0.876621	-0.575724
C72	C	1.646615	-0.376621	-0.075724
C73	C	1.192878	-0.838238	-0.641481
C74	C	1.692878	-0.338238	-0.141481
C75	C	1.239170	-0.882400	-0.707264
C76	C	1.739170	-0.382400	-0.207264
C77	C	1.100316	-0.832455	-0.509947
C78	C	1.600316	-0.332455	-0.009947
C79	C	1.100285	-0.749904	-0.509920
C80	C	1.600285	-0.249904	-0.009920
C81	C	1.146554	-0.711518	-0.575674
C82	C	1.646554	-0.211518	-0.075674
C83	C	1.192848	-0.755685	-0.641459
C84	C	1.692848	-0.255685	-0.141459
C85	C	1.239112	-0.717302	-0.707216
C86	C	1.739112	-0.217302	-0.207216
C87	C	1.285412	-0.761466	-0.772998
C88	C	1.785412	-0.261466	-0.272998
C89	C	1.285439	-0.844014	-0.773018
C90	C	1.785439	-0.344014	-0.273018
C91	C	1.146526	-0.628971	-0.575654
C92	C	1.646526	-0.128971	-0.075654
C93	C	1.239082	-0.634750	-0.707194
C94	C	1.739082	-0.134750	-0.207194
C95	C	1.421281	-0.268789	-0.681069
C96	C	1.921281	0.231211	-0.181069
C97	C	1.518641	-0.256611	-0.697959
C98	C	2.018641	0.243389	-0.197959
C99	C	1.153303	-0.337921	-0.869873
C100	C	1.653303	0.162079	-0.369873
C101	C	1.136466	-0.355204	-0.967222
C102	C	1.636466	0.144796	-0.467222
C103	C	1.192899	-0.091193	-0.641500
C104	C	1.692899	0.408807	-0.141500
C105	C	1.192937	-0.003335	-0.641529
C106	C	1.692937	0.496665	-0.141529
C107	C	1.313174	-0.173699	-1.280573
C108	C	1.813174	0.326301	-0.780573
C109	C	1.328998	-0.157461	-1.189110
C110	C	1.828998	0.342539	-0.689110
C111	C	1.280866	-0.206895	-1.133634
C112	C	1.780866	0.293105	-0.633634
C113	C	1.216908	-0.272570	-1.169629
C114	C	1.716908	0.227430	-0.669629
C115	C	1.201088	-0.288813	-1.261101
C116	C	1.701088	0.211187	-0.761101
C117	C	1.168780	-0.322010	-1.114162
C118	C	1.668780	0.177990	-0.614162
C119	C	1.104822	-0.387685	-1.150157
C120	C	1.604822	0.112315	-0.650157
C121	C	1.089004	-0.403924	-1.241620
C122	C	1.589004	0.096076	-0.741620
C123	C	1.137136	-0.354490	-1.297097
C124	C	1.637136	0.145510	-0.797097
C125	C	1.184601	-0.305767	-1.022689
C126	C	1.684601	0.194233	-0.522689
C127	C	1.072514	-0.420881	-1.003218
C128	C	1.572514	0.079119	-0.503218
C129	C	1.056690	-0.437119	-1.094680
C130	C	1.556690	0.062881	-0.594680
C131	C	1.232216	-0.256902	-0.413887
C132	C	1.732216	0.243098	0.086113
C133	C	1.249222	-0.239376	-0.316569
C134	C	1.749222	0.260624	0.183431
H135	H	0.544705	-0.329050	-0.597624
H136	H	1.044705	0.170950	-0.097624
N137	N	0.701429	-0.445614	-0.436123
N138	N	1.201429	0.054386	0.063877
H139	H	0.750420	-0.465906	-0.407997
H140	H	1.250420	0.034094	0.092003
H141	H	0.670471	-0.410951	-0.389082
H142	H	1.170471	0.089049	0.110918
N143	N	1.050426	-0.873853	-0.439026
N144	N	1.550426	-0.373853	0.060974
H145	H	1.021090	-0.833352	-0.397353
H146	H	1.521090	-0.333352	0.102647
H147	H	1.003718	-0.919519	-0.467618
H148	H	1.503718	-0.419519	0.032382
H149	H	1.381074	-0.103990	-1.159810
H150	H	1.881074	0.396010	-0.659810
N151	N	1.096753	-1.000559	-0.504826
N152	N	1.596753	-0.500559	-0.004826
H153	H	1.049993	-1.046219	-0.533343
H154	H	1.549993	-0.546219	-0.033343
H155	H	1.139477	-1.023089	-0.470488
H156	H	1.639477	-0.523089	0.029512
N157	N	1.365082	-0.120384	-1.340402
N158	N	1.865082	0.379616	-0.840402
H159	H	1.430414	-0.122009	-1.335338
H160	H	1.930414	0.377991	-0.835338
H161	H	1.345284	-0.140672	-1.403779
H162	H	1.845284	0.359328	-0.903779
N163	N	1.050355	-0.702272	-0.438970
N164	N	1.550355	-0.202272	0.061030
H165	H	1.021054	-0.739114	-0.397317
H166	H	1.521054	-0.239114	0.102683
H167	H	1.093042	-0.656362	-0.404651
H168	H	1.593042	-0.156362	0.095349
N169	N	1.289142	-1.012577	-0.778231
N170	N	1.789142	-0.512577	-0.278231
H171	H	1.282146	-1.070696	-0.768269
H172	H	1.782146	-0.570696	-0.268269
H173	H	1.264636	-1.010951	-0.838393
H174	H	1.764636	-0.510951	-0.338393
H175	H	1.124255	-0.367707	-1.371574
H176	H	1.624255	0.132293	-0.871574
N177	N	1.335365	-0.891651	-0.843967
N178	N	1.835365	-0.391651	-0.343967
H179	H	1.364672	-0.854811	-0.885620
H180	H	1.864672	-0.354811	-0.385620
H181	H	1.382100	-0.914490	-0.815394
H182	H	1.882100	-0.414490	-0.315394
N183	N	1.297927	-0.189366	-1.034984
N184	N	1.797927	0.310634	-0.534984
H185	H	1.241654	-0.178432	-1.002539
H186	H	1.741654	0.321568	-0.502539
H187	H	1.317837	-0.237678	-1.015786
H188	H	1.817837	0.262322	-0.515786
N189	N	1.020574	-0.474200	-0.943401
N190	N	1.520574	0.025800	-0.443401
H191	H	1.031393	-0.531805	-0.961653
H192	H	1.531393	-0.031805	-0.461653
H193	H	1.040313	-0.453880	-0.880012
H194	H	1.540313	0.046120	-0.380012
H195	H	0.876937	-0.412591	-0.481810
H196	H	1.376937	0.087409	0.018190
N197	N	1.335313	-0.720068	-0.843921
N198	N	1.835313	-0.220068	-0.343921
H199	H	1.310845	-0.747237	-0.904123
H200	H	1.810845	-0.247237	-0.404123
H201	H	1.328250	-0.661079	-0.833846
H202	H	1.828250	-0.161079	-0.333846
H203	H	0.822443	-0.184575	-0.797660
H204	H	1.322443	0.315425	-0.297660
N205	N	1.096588	-0.581338	-0.504718
N206	N	1.596588	-0.081338	-0.004718
H207	H	1.067281	-0.618181	-0.463068
H208	H	1.567281	-0.118181	0.036932
H209	H	1.139266	-0.535425	-0.470394
H210	H	1.639266	-0.035425	0.029606
H211	H	0.675558	-0.161248	-0.829990
H212	H	1.175558	0.338752	-0.329990
N213	N	0.947181	-0.244633	-0.714404
N214	N	1.447181	0.255367	-0.214404
H215	H	0.976817	-0.273681	-0.674153
H216	H	1.476817	0.226319	-0.174153
H217	H	0.958772	-0.267138	-0.778292
H218	H	1.458772	0.232862	-0.278292
N219	N	1.253583	-0.234940	-0.983873
N220	N	1.753583	0.265060	-0.483873
H221	H	1.224575	-0.196018	-0.939757
H222	H	1.724575	0.303982	-0.439757
H223	H	1.300699	-0.255324	-0.953007
H224	H	1.800699	0.244676	-0.453007
H225	H	1.036932	-0.457407	-1.270925
H226	H	1.536932	0.042593	-0.770925
N227	N	0.987697	-0.507942	-1.133505
N228	N	1.487697	-0.007942	-0.633505
H229	H	0.984978	-0.510723	-1.199865
H230	H	1.484978	-0.010723	-0.699865
H231	H	1.004054	-0.559860	-1.119870
H232	H	1.504054	-0.059860	-0.619870
H233	H	0.610414	-0.370296	-0.540475
H234	H	1.110414	0.129704	-0.040475
H235	H	0.509576	-0.182048	-0.801244
H236	H	1.009576	0.317952	-0.301244
H237	H	1.276759	-0.603502	-0.760739
H238	H	1.776759	-0.103502	-0.260739
