data_functionalizedCrystal
_audit_creation_method	'MofGen! by Chris Wilmer'
_symmetry_space_group_name_H-M	'P1'
_symmetry_Int_Tables_number	1
_symmetry_cell_setting	triclinic
loop_
_symmetry_equiv_pos_as_xyz
  x,y,z
_cell_length_a	18.760487
_cell_length_b	12.970454
_cell_length_c	12.970454
_cell_angle_alpha	59.999644
_cell_angle_beta	90.035326
_cell_angle_gamma	60.020386
loop_
_atom_site_label
_atom_site_type_symbol
_atom_site_fract_x
_atom_site_fract_y
_atom_site_fract_z
Zr1	Zr	0.686683	1.128520	-0.134695
O2	O	0.572866	1.343612	-0.299422
O3	O	0.721574	0.913429	-0.084196
O4	O	0.721573	1.128521	-0.299288
O5	O	0.572867	1.128519	0.085338
O6	O	0.838876	1.128521	-0.299184
O7	O	0.572866	1.128520	-0.084330
O8	O	0.838877	0.743761	0.085576
O9	O	0.572866	1.513280	-0.299422
O10	O	0.823996	1.001899	-0.062582
O11	O	0.736455	1.001898	0.063961
O12	O	0.736454	1.255141	-0.189282
O13	O	0.648912	1.255141	-0.062739
Zr14	Zr	0.873768	1.128519	0.136072
Zr15	Zr	0.873767	1.128520	-0.134528
Zr16	Zr	0.686684	1.128519	0.135905
Zr17	Zr	0.686683	1.399120	-0.134696
Zr18	Zr	0.873768	0.857919	0.136073
O19	O	0.838877	1.343610	0.085573
O20	O	0.838876	1.343612	-0.299185
O21	O	0.572867	1.343610	0.085337
O22	O	0.987585	0.913427	0.300799
O23	O	0.987584	0.913429	-0.083959
O24	O	0.721575	0.913427	0.300562
O25	O	0.987584	1.128519	-0.083961
O26	O	0.838878	1.128518	0.300665
O27	O	0.721575	1.128518	0.300561
O28	O	0.987584	1.128519	0.085707
O29	O	0.721573	1.513279	-0.299290
O30	O	0.838878	0.743760	0.300667
O31	O	0.987585	0.743759	0.300800
O32	O	0.987584	0.743760	0.085709
O33	O	0.572866	1.513278	-0.084332
O34	O	0.721574	1.513278	-0.084199
O35	O	0.823997	1.001898	0.190659
O36	O	0.911538	1.001898	0.064117
O37	O	0.823996	1.255141	-0.062584
O38	O	0.736455	1.255140	0.063959
C39	C	0.780225	0.790040	0.000690
C40	C	0.780225	0.675163	0.000691
C41	C	0.546211	1.128520	0.000480
C42	C	0.466789	1.128520	0.000410
C43	C	0.085276	1.260715	-0.065228
C44	C	0.176676	0.996325	0.067049
C45	C	0.251298	0.996323	0.066941
C46	C	0.242912	1.128518	0.000745
C47	C	0.159903	1.260717	-0.065341
C48	C	0.334311	0.864127	0.133016
C49	C	0.408939	0.864120	0.132909
C50	C	0.400554	0.996317	0.066720
C51	C	0.317539	1.128520	0.000632
C52	C	0.309153	1.260716	-0.065564
C53	C	0.226139	1.392921	-0.131645
C54	C	0.151518	1.392914	-0.131530
C55	C	0.475175	0.996324	0.066605
C56	C	0.383780	1.260718	-0.065677
C57	C	1.014240	1.128519	0.000897
C58	C	1.093662	1.128519	0.000968
C59	C	0.780224	1.128521	-0.337791
C60	C	0.780224	1.128522	-0.452667
C61	C	0.780225	1.466999	0.000687
C62	C	0.780225	1.581875	0.000686
C63	C	0.780226	1.128518	0.339168
C64	C	0.780227	1.128517	0.454045
C65	C	1.014240	0.790040	0.000899
C66	C	1.093662	0.675163	0.000970
C67	C	0.780226	0.790039	0.339170
C68	C	0.780227	0.675161	0.454047
C69	C	1.014241	0.790038	0.339378
C70	C	1.093663	0.675161	0.454326
C71	C	0.546210	1.467001	-0.338001
C72	C	0.466787	1.581878	-0.452949
C73	C	0.546211	1.466999	0.000479
C74	C	0.466789	1.581876	0.000407
C75	C	0.780224	1.467000	-0.337792
C76	C	0.780224	1.581878	-0.452670
C77	C	1.085263	0.621216	-0.065143
C78	C	1.159882	0.513292	-0.065102
C79	C	1.242898	0.459309	0.001061
C80	C	1.251295	0.513267	0.067177
C81	C	1.176677	0.621196	0.067127
C82	C	1.176665	0.621213	0.442253
C83	C	1.251298	0.513289	0.550248
C84	C	1.242928	0.459306	0.670316
C85	C	1.159918	0.513264	0.682387
C86	C	1.085286	0.621194	0.574392
C87	C	0.383786	1.635839	-0.440875
C88	C	0.309153	1.743797	-0.548871
C89	C	0.317523	1.797785	-0.668939
C90	C	0.400533	1.743820	-0.681009
C91	C	0.475164	1.635871	-0.573015
C92	C	0.475187	1.635834	0.066509
C93	C	0.400569	1.743788	0.066438
C94	C	0.317553	1.797775	0.000271
C95	C	0.309156	1.743812	-0.065839
C96	C	0.383773	1.635867	-0.065774
H97	H	0.376941	1.368370	-0.119568
H98	H	1.017674	0.665167	-0.119037
H99	H	0.542746	1.591938	-0.582860
H100	H	0.376923	1.591937	-0.119599
H101	H	0.542761	0.888685	0.120419
H102	H	0.542777	1.591887	0.120399
C103	C	0.374567	1.576472	-0.308812
H104	H	0.430897	1.504443	-0.246211
H105	H	0.343566	1.653961	-0.299373
H106	H	0.343554	1.534367	-0.299375
C107	C	1.325027	0.340574	0.789098
H108	H	1.375656	0.316173	0.764700
H109	H	1.325044	0.375936	0.837939
H110	H	1.325039	0.256344	0.837924
C111	C	1.342615	0.453864	0.139962
H112	H	1.385845	0.381848	0.130528
H113	H	1.349180	0.531331	0.107347
H114	H	1.349165	0.411731	0.226933
H115	H	1.153116	0.469296	0.780160
C116	C	0.235424	1.916506	-0.787721
H117	H	0.184795	1.940889	-0.763323
H118	H	0.235403	2.000737	-0.836567
H119	H	0.235416	1.881111	-0.836541
H120	H	1.183528	0.665106	0.120972
C121	C	0.217852	1.803136	-0.535577
H122	H	0.174597	1.875173	-0.617085
H123	H	0.211311	1.725642	-0.490741
H124	H	0.211318	1.845228	-0.490718
C125	C	1.185889	0.680579	0.310192
H126	H	1.246015	0.632992	0.318487
H127	H	1.158684	0.662885	0.265309
H128	H	1.158674	0.782491	0.265317
H129	H	0.407338	1.787791	-0.778781
C130	C	0.235478	1.916505	0.000211
H131	H	0.184830	1.940943	-0.048667
H132	H	0.235484	1.881118	0.084425
H133	H	0.235483	2.000719	-0.035183
H134	H	1.318881	0.469367	0.540397
C135	C	0.216922	1.538327	-0.204386
H136	H	0.273257	1.519384	-0.194961
H137	H	0.185840	1.592716	-0.291352
H138	H	0.185997	1.592576	-0.171679
C139	C	0.993990	0.680509	0.587688
H140	H	0.999702	0.632882	0.674666
H141	H	0.962962	0.782414	0.548308
H142	H	0.962986	0.662789	0.548316
C143	C	0.217838	1.803192	-0.138608
H144	H	0.223513	1.755608	-0.177978
H145	H	0.186836	1.785501	-0.081570
H146	H	0.186829	1.905103	-0.201186
C147	C	-0.006031	1.406129	-0.137916
H148	H	-0.049276	1.387202	-0.128377
H149	H	-0.012507	1.460448	-0.105316
H150	H	-0.012644	1.460439	-0.224915
C151	C	0.185899	0.850922	0.139856
H152	H	0.129567	0.869855	0.130463
H153	H	0.216839	0.796601	0.107220
H154	H	0.216969	0.796611	0.226818
C155	C	0.343531	0.718727	0.205818
H156	H	0.287199	0.737663	0.196431
H157	H	0.374465	0.664413	0.173173
H158	H	0.374608	0.664406	0.292779
H159	H	0.407423	1.787707	0.120278
H160	H	0.476526	0.756470	0.186715
H161	H	0.083924	1.500548	-0.185329
C162	C	1.324973	0.340578	0.001121
H163	H	1.375621	0.316152	0.049988
H164	H	1.324965	0.256374	0.036502
H165	H	1.324969	0.375975	-0.083099
H166	H	1.153028	0.469373	-0.118941
