data_functionalizedCrystal
_audit_creation_method	'MofGen! by Chris Wilmer'
_symmetry_space_group_name_H-M	'P1'
_symmetry_Int_Tables_number	1
_symmetry_cell_setting	triclinic
loop_
_symmetry_equiv_pos_as_xyz
  x,y,z
_cell_length_a	17.077404
_cell_length_b	16.959453
_cell_length_c	17.077396
_cell_angle_alpha	90.029064
_cell_angle_beta	90.019501
_cell_angle_gamma	90.020213
loop_
_atom_site_label
_atom_site_type_symbol
_atom_site_fract_x
_atom_site_fract_y
_atom_site_fract_z
Zn1	Zn	1.200070	-0.314677	0.443840
Zn2	Zn	1.199984	-0.446865	0.312572
Zn3	Zn	1.068802	-0.314705	0.312587
Zn4	Zn	1.068777	-0.446818	0.443796
O5	O	1.134408	-0.380766	0.378199
O6	O	1.309906	-0.332220	0.426439
O7	O	1.182557	-0.429365	0.202727
O8	O	1.086262	-0.204090	0.330023
O9	O	1.309843	-0.429338	0.329997
O10	O	1.182704	-0.204070	0.426453
O11	O	1.086178	-0.332267	0.202738
O12	O	0.958952	-0.332222	0.329981
O13	O	1.086219	-0.429258	0.553649
O14	O	0.958933	-0.429285	0.426379
O15	O	1.182680	-0.332174	0.553681
O16	O	1.182533	-0.557469	0.329955
O17	O	1.086135	-0.557435	0.426364
C18	C	0.930461	-0.380752	0.378177
C19	C	0.843211	-0.380765	0.378186
C20	C	0.802231	-0.431381	0.428300
C21	C	0.720251	-0.431383	0.428313
C22	C	0.679251	-0.380771	0.378207
C23	C	0.720236	-0.330149	0.328091
C24	C	0.802215	-0.330144	0.328083
C25	C	0.549366	-0.330164	0.328110
C26	C	0.467382	-0.330170	0.328116
C27	C	0.467402	-0.431404	0.428340
C28	C	0.549381	-0.431399	0.428332
C29	C	0.590360	-0.380777	0.378214
C30	C	1.134343	-0.586132	0.378170
C31	C	1.134387	-0.673989	0.378184
C32	C	1.184690	-1.045395	0.428505
C33	C	1.084346	-1.045533	0.328009
C34	C	1.084317	-0.962988	0.327991
C35	C	1.134474	-0.921642	0.378232
C36	C	1.184661	-0.962842	0.428490
C37	C	1.034126	-0.921781	0.277739
C38	C	1.034094	-0.839230	0.277720
C39	C	1.084256	-0.797883	0.327957
C40	C	1.134445	-0.839088	0.378217
C41	C	1.184603	-0.797742	0.428457
C42	C	1.234796	-0.838946	0.478714
C43	C	1.234823	-0.921494	0.478727
C44	C	1.084229	-0.715335	0.327944
C45	C	1.184573	-0.715189	0.428442
C46	C	1.339153	-0.380781	0.378221
C47	C	1.426402	-0.380787	0.378230
C48	C	1.134456	-0.380708	0.582943
C49	C	1.134476	-0.380683	0.670193
C50	C	1.134496	-0.174598	0.378245
C51	C	1.134533	-0.086741	0.378264
C52	C	1.134406	-0.380767	0.174251
C53	C	1.134538	-0.380569	0.087002
C54	C	1.184705	-0.330127	0.711201
C55	C	1.184715	-0.330101	0.793182
C56	C	1.134498	-0.380635	0.834152
C57	C	1.084264	-0.431193	0.793139
C58	C	1.084251	-0.431214	0.711160
C59	C	1.084296	-0.431145	0.964009
C60	C	1.084309	-0.431125	1.045993
C61	C	1.184759	-0.330032	1.046031
C62	C	1.184746	-0.330054	0.964052
C63	C	1.134512	-0.380613	0.923044
H64	H	0.582761	-0.472616	0.469128
H65	H	1.225660	-0.288863	1.079424
H66	H	1.225599	-0.288979	0.677849
H67	H	0.686889	-0.472601	0.469120
H68	H	1.275687	-0.955050	0.519644
Br69	Br	1.016150	-0.499699	1.101597
H70	H	1.043378	-0.472303	0.930622
Br71	Br	0.411789	-0.500095	0.496367
Br72	Br	1.016108	-0.499770	0.848741
H73	H	1.043342	-0.472374	0.677772
H74	H	0.835607	-0.472598	0.469100
Br75	Br	1.016264	-1.101646	0.259843
Br76	Br	0.966040	-0.977896	0.209579
H77	H	0.434002	-0.288948	0.287325
H78	H	0.582729	-0.288936	0.287306
H79	H	0.686848	-0.288936	0.287297
Br80	Br	0.857831	-0.261442	0.260073
Br81	Br	1.252655	-0.659083	0.496623
Br82	Br	1.302855	-0.782824	0.546904
Br83	Br	1.252922	-0.261524	0.848833
H84	H	1.225559	-1.078947	0.469420
H85	H	0.993224	-0.805688	0.236798
H86	H	1.043359	-0.681790	0.287029
Br87	Br	1.252904	-0.261478	0.908448
