data_functionalizedCrystal
_audit_creation_method	'MofGen! by Chris Wilmer'
_symmetry_space_group_name_H-M	'P1'
_symmetry_Int_Tables_number	1
_symmetry_cell_setting	triclinic
loop_
_symmetry_equiv_pos_as_xyz
  x,y,z
_cell_length_a	18.215407
_cell_length_b	18.215405
_cell_length_c	18.215399
_cell_angle_alpha	90.030551
_cell_angle_beta	90.017777
_cell_angle_gamma	90.020505
loop_
_atom_site_label
_atom_site_type_symbol
_atom_site_fract_x
_atom_site_fract_y
_atom_site_fract_z
Zn1	Zn	-1.125072	0.293078	-0.416062
Zn2	Zn	-0.625072	0.793078	0.083938
Zn3	Zn	-1.124980	0.416149	-0.292990
Zn4	Zn	-0.624980	0.916149	0.207010
Zn5	Zn	-1.002004	0.293092	-0.293014
Zn6	Zn	-0.502004	0.793092	0.206986
Zn7	Zn	-1.001970	0.416098	-0.416020
Zn8	Zn	-0.501970	0.916098	0.083980
O9	O	-1.063507	0.354604	-0.354521
O10	O	-0.563507	0.854604	0.145479
O11	O	-1.228044	0.309419	-0.399744
O12	O	-0.728044	0.809419	0.100256
O13	O	-1.108643	0.399852	-0.190009
O14	O	-0.608643	0.899852	0.309991
O15	O	-1.018382	0.190105	-0.309364
O16	O	-0.518382	0.690105	0.190636
O17	O	-1.227977	0.399839	-0.309324
O18	O	-0.727977	0.899839	0.190676
O19	O	-1.108799	0.190095	-0.399767
O20	O	-0.608799	0.690095	0.100233
O21	O	-1.018293	0.309443	-0.190026
O22	O	-0.518293	0.809443	0.309974
O23	O	-0.899016	0.309393	-0.309323
O24	O	-0.399016	0.809393	0.190677
O25	O	-1.018324	0.399752	-0.519010
O26	O	-0.518324	0.899752	-0.019010
O27	O	-0.898991	0.399765	-0.399695
O28	O	-0.398991	0.899765	0.100305
O29	O	-1.108766	0.309369	-0.519041
O30	O	-0.608766	0.809369	-0.019041
O31	O	-1.108610	0.519127	-0.309283
O32	O	-0.608610	1.019127	0.190717
O33	O	-1.018235	0.519089	-0.399672
O34	O	-0.518235	1.019089	0.100328
C35	C	-0.872300	0.354575	-0.354507
C36	C	-0.372300	0.854575	0.145493
C37	C	-0.790502	0.354581	-0.354519
C38	C	-0.290502	0.854581	0.145481
C39	C	-0.602342	0.307590	-0.401673
C40	C	-0.102342	0.807590	0.098327
C41	C	-0.525483	0.307594	-0.401675
C42	C	-0.025483	0.807594	0.098325
C43	C	-0.525424	0.401607	-0.307375
C44	C	-0.025424	0.901607	0.192625
C45	C	-0.602281	0.401599	-0.307370
C46	C	-0.102281	0.901599	0.192630
C47	C	-0.640738	0.354591	-0.354523
C48	C	-0.140738	0.854591	0.145477
C49	C	-0.487022	0.354603	-0.354530
C50	C	0.012978	0.854603	0.145470
C51	C	-0.403688	0.354608	-0.354532
C52	C	0.096312	0.854608	0.145468
C53	C	-0.724077	0.354586	-0.354521
C54	C	-0.224077	0.854586	0.145479
C55	C	-1.063429	0.545810	-0.354486
C56	C	-0.563429	1.045810	0.145514
C57	C	-1.063463	0.627609	-0.354496
C58	C	-0.563463	1.127609	0.145504
C59	C	-1.063552	0.354553	-0.546474
C60	C	-0.563552	0.854553	-0.046474
C61	C	-1.063571	0.354532	-0.628273
C62	C	-0.563571	0.854532	-0.128273
C63	C	-0.255460	0.354625	-0.354534
C64	C	0.244540	0.854625	0.145466
C65	C	-0.337259	0.354614	-0.354535
C66	C	0.162741	0.854614	0.145465
C67	C	-1.063605	0.162651	-0.354573
C68	C	-0.563605	0.662651	0.145427
C69	C	-1.063647	0.080852	-0.354595
C70	C	-0.563647	0.580852	0.145405
C71	C	-1.110632	0.815798	-0.307517
C72	C	-0.610632	1.315798	0.192483
C73	C	-1.110665	0.892657	-0.307534
C74	C	-0.610665	1.392657	0.192466
C75	C	-1.016476	0.892658	-0.401579
C76	C	-0.516476	1.392658	0.098421
C77	C	-1.016447	0.815800	-0.401565
C78	C	-0.516447	1.315800	0.098435
C79	C	-1.063524	0.777373	-0.354529
C80	C	-0.563524	1.277373	0.145471
C81	C	-1.063586	0.931089	-0.354562
C82	C	-0.563586	1.431089	0.145438
C83	C	-1.063621	1.014422	-0.354581
C84	C	-0.563621	1.514422	0.145419
C85	C	-1.063490	0.694034	-0.354510
C86	C	-0.563490	1.194034	0.145490
C87	C	-1.110681	0.307426	-0.816485
C88	C	-0.610681	0.807426	-0.316485
C89	C	-1.110690	0.307404	-0.893344
C90	C	-0.610690	0.807404	-0.393344
C91	C	-1.016513	0.401524	-0.893300
C92	C	-0.516513	0.901524	-0.393300
C93	C	-1.016501	0.401541	-0.816443
C94	C	-0.516501	0.901541	-0.316443
C95	C	-1.063589	0.354493	-0.778037
C96	C	-0.563589	0.854493	-0.278037
C97	C	-1.063610	0.354454	-0.931753
C98	C	-0.563610	0.854454	-0.431753
C99	C	-1.063619	0.354432	-1.015087
C100	C	-0.563619	0.854432	-0.515087
C101	C	-1.063579	0.354515	-0.694698
C102	C	-0.563579	0.854515	-0.194698
C103	C	-1.063504	0.354602	-0.163315
C104	C	-0.563504	0.854602	0.336685
C105	C	-1.063628	0.354416	-0.081517
C106	C	-0.563628	0.854416	0.418483
H107	H	-0.633651	0.269311	-0.440066
H108	H	-0.133651	0.769311	0.059934
H109	H	-0.494224	0.269320	-0.440069
H110	H	0.005776	0.769320	0.059931
H111	H	-1.149026	0.923940	-0.269253
H112	H	-0.649026	1.423940	0.230747
N113	N	-0.968336	0.776535	-0.449593
N114	N	-0.468336	1.276535	0.050407
N115	N	-0.994193	0.733597	-0.496502
N116	N	-0.494193	1.233597	0.003498
H117	H	-0.960220	0.705865	-0.530424
H118	H	-0.460220	1.205865	-0.030424
H119	H	-1.149035	0.269076	-0.924645
H120	H	-0.649035	0.769076	-0.424645
N121	N	-1.158721	0.776556	-0.259468
N122	N	-0.658721	1.276556	0.240532
N123	N	-1.200778	0.810878	-0.217496
N124	N	-0.700778	1.310878	0.282504
H125	H	-1.234744	0.783166	-0.183560
H126	H	-0.734744	1.283166	0.316440
N127	N	-0.486128	0.449616	-0.259216
N128	N	0.013872	0.949616	0.240784
N129	N	-0.417506	0.449619	-0.259227
N130	N	0.082494	0.949619	0.240773
H131	H	-0.389754	0.483527	-0.225215
H132	H	0.110246	0.983527	0.274785
H133	H	-0.978146	0.923955	-0.439873
H134	H	-0.478146	1.423955	0.060127
N135	N	-1.158782	0.259364	-0.777265
N136	N	-0.658782	0.759364	-0.277265
N137	N	-1.200824	0.217342	-0.811607
N138	N	-0.700824	0.717342	-0.311607
H139	H	-1.234796	0.183395	-0.783911
H140	H	-0.734796	0.683395	-0.283911
H141	H	-0.633544	0.439874	-0.268971
H142	H	-0.133544	0.939874	0.231029
H143	H	-0.978147	0.439868	-0.785137
H144	H	-0.478147	0.939868	-0.285137
H145	H	-0.978177	0.439830	-0.924579
H146	H	-0.478177	0.939830	-0.424579
