data_functionalizedCrystal
_audit_creation_method	'MofGen! by Chris Wilmer'
_symmetry_space_group_name_H-M	'P1'
_symmetry_Int_Tables_number	1
_symmetry_cell_setting	triclinic
loop_
_symmetry_equiv_pos_as_xyz
  x,y,z
_cell_length_a	16.109296
_cell_length_b	16.992695
_cell_length_c	15.186229
_cell_angle_alpha	90.009826
_cell_angle_beta	90.004927
_cell_angle_gamma	92.936244
loop_
_atom_site_label
_atom_site_type_symbol
_atom_site_fract_x
_atom_site_fract_y
_atom_site_fract_z
O1	O	-1.109849	0.100771	0.073188
O2	O	-0.609849	0.600771	0.573188
O3	O	-0.868624	0.113317	0.073199
O4	O	-0.368624	0.613317	0.573199
O5	O	-0.988270	-0.007099	0.073186
O6	O	-0.488270	0.492901	0.573186
O7	O	-0.990204	0.221186	0.073200
O8	O	-0.490204	0.721186	0.573200
O9	O	-0.988277	-0.007114	-0.073271
O10	O	-0.488277	0.492886	0.426729
O11	O	-0.868631	0.113302	-0.073258
O12	O	-0.368631	0.613302	0.426742
O13	O	-1.109857	0.100755	-0.073269
O14	O	-0.609857	0.600755	0.426731
Zn15	Zn	-0.989245	0.107026	-0.096517
Zn16	Zn	-0.489245	0.607026	0.403483
Zn17	Zn	-0.989236	0.107046	0.096447
Zn18	Zn	-0.489236	0.607046	0.596447
O19	O	-0.990211	0.221171	-0.073257
O20	O	-0.490211	0.721171	0.426743
C21	C	-0.837619	0.112802	-0.000029
C22	C	-0.337619	0.612802	0.499971
C23	C	-0.745222	0.111280	-0.000024
C24	C	-0.245222	0.611280	0.499976
C25	C	-0.440659	0.177758	-0.000038
C26	C	0.059341	0.677758	0.499962
C27	C	-0.527475	0.179195	-0.000032
C28	C	-0.027475	0.679195	0.499968
C29	C	-0.537815	0.036328	-0.000029
C30	C	-0.037815	0.536328	0.499971
C31	C	-0.451000	0.034892	-0.000028
C32	C	0.049000	0.534892	0.499972
C33	C	-0.402424	0.105609	-0.000037
C34	C	0.097576	0.605609	0.499963
C35	C	-0.576055	0.108482	-0.000032
C36	C	-0.076055	0.608482	0.499968
C37	C	-0.670185	0.110039	-0.000026
C38	C	-0.170185	0.610039	0.499974
C39	C	-0.308288	0.104052	-0.000042
C40	C	0.191712	0.604052	0.499958
C41	C	-0.985785	-0.036318	-0.000042
C42	C	-0.485785	0.463682	0.499958
C43	C	-0.978362	-0.123360	-0.000041
C44	C	-0.478362	0.376640	0.499959
C45	C	-1.049988	-0.173620	-0.000046
C46	C	-0.549988	0.326380	0.499954
C47	C	-1.043008	-0.255405	-0.000037
C48	C	-0.543008	0.244595	0.499963
C49	C	-0.964401	-0.286928	-0.000030
C50	C	-0.464401	0.213072	0.499970
C51	C	-0.892770	-0.236662	-0.000024
C52	C	-0.392770	0.263338	0.499976
C53	C	-0.899750	-0.154878	-0.000026
C54	C	-0.399750	0.345122	0.499974
C55	C	-0.935468	-0.530518	-0.000017
C56	C	-0.435468	-0.030518	0.499983
C57	C	-0.928493	-0.612307	-0.000017
C58	C	-0.428493	-0.112307	0.499983
C59	C	-1.078732	-0.631045	-0.000029
C60	C	-0.578732	-0.131045	0.499971
C61	C	-1.085706	-0.549260	-0.000037
C62	C	-0.585706	-0.049260	0.499963
C63	C	-1.014074	-0.499001	-0.000025
C64	C	-0.514074	0.000999	0.499975
N65	N	-0.957264	-0.370525	-0.000024
N66	N	-0.457264	0.129475	0.499976
N67	N	-1.021212	-0.415405	-0.000025
N68	N	-0.521212	0.084595	0.499975
C69	C	-0.140862	0.101275	-0.000042
C70	C	0.359138	0.601275	0.499958
C71	C	-0.233258	0.102811	-0.000045
C72	C	0.266742	0.602811	0.499955
C73	C	-0.992695	0.250390	-0.000027
C74	C	-0.492695	0.750390	0.499973
C75	C	-1.000119	0.337432	-0.000021
C76	C	-0.500119	0.837432	0.499979
N77	N	-0.989229	0.107055	0.228139
N78	N	-0.489229	0.607055	0.728139
N79	N	-0.989258	0.107011	-0.228210
N80	N	-0.489258	0.607011	0.271790
C81	C	-0.935763	0.059365	0.453861
C82	C	-0.435763	0.559365	0.953861
C83	C	-0.935769	0.059356	0.546050
C84	C	-0.435769	0.559356	1.046050
C85	C	-1.042730	0.154702	0.546062
C86	C	-0.542730	0.654702	1.046062
C87	C	-1.042728	0.154707	0.453874
C88	C	-0.542728	0.654707	0.953874
C89	C	-0.989239	0.107040	0.407776
C90	C	-0.489239	0.607040	0.907776
C91	C	-0.989248	0.107026	0.592153
C92	C	-0.489248	0.607026	1.092153
C93	C	-0.989254	0.107016	0.692110
C94	C	-0.489254	0.607016	1.192110
C95	C	-0.989234	0.107048	0.307813
C96	C	-0.489234	0.607048	0.807813
H97	H	-0.401110	0.235340	-0.000044
H98	H	0.098890	0.735340	0.499956
C99	C	-1.101551	0.207152	0.403173
C100	C	-0.601551	0.707152	0.903173
H101	H	-1.093894	0.200321	0.341667
H102	H	-0.593894	0.700321	0.841667
H103	H	-1.089560	0.260780	0.418294
H104	H	-0.589560	0.760780	0.918294
H105	H	-1.157496	0.192695	0.418269
H106	H	-0.657496	0.692695	0.918269
C107	C	-0.569530	0.258558	-0.000038
C108	C	-0.069530	0.758558	0.499962
H109	H	-0.528163	0.300466	-0.000049
H110	H	-0.028163	0.800466	0.499951
H111	H	-0.603176	0.262101	0.051035
H112	H	-0.103176	0.762101	0.551035
H113	H	-0.603186	0.262076	-0.051117
H114	H	-0.103186	0.762076	0.448883
H115	H	-0.419869	-0.023864	-0.000025
H116	H	0.080131	0.476136	0.499975
H117	H	-1.113998	-0.147961	-0.000056
H118	H	-0.613998	0.352039	0.499944
C119	C	-0.876928	0.006934	0.403155
C120	C	-0.376928	0.506934	0.903155
H121	H	-0.845084	-0.021463	0.443809
H122	H	-0.345084	0.478537	0.943809
H123	H	-0.840738	0.038997	0.367208
H124	H	-0.340738	0.538997	0.867208
H125	H	-0.908671	-0.029091	0.367178
H126	H	-0.408671	0.470909	0.867178
C127	C	-0.591247	-0.041457	-0.000021
C128	C	-0.091247	0.458543	0.499979
H129	H	-0.556039	-0.084632	-0.000011
H130	H	-0.056039	0.415368	0.499989
H131	H	-0.625335	-0.043879	-0.051092
H132	H	-0.125335	0.456121	0.448908
H133	H	-0.625321	-0.043853	0.051060
H134	H	-0.125321	0.456147	0.551060
H135	H	-0.841424	-0.113957	-0.000022
H136	H	-0.341424	0.386043	0.499978
C137	C	-1.121797	-0.310688	-0.000051
C138	C	-0.621797	0.189312	0.499949
H139	H	-1.169612	-0.280201	-0.000068
H140	H	-0.669612	0.219799	0.499932
H141	H	-1.122203	-0.342974	0.051022
H142	H	-0.622203	0.157026	0.551022
H143	H	-1.122192	-0.342988	-0.051130
H144	H	-0.622192	0.157012	0.448870
C145	C	-1.172173	-0.514590	-0.000032
C146	C	-0.672173	-0.014590	0.499968
H147	H	-1.213833	-0.556237	-0.000024
H148	H	-0.713833	-0.056237	0.499976
H149	H	-1.178026	-0.483082	-0.051104
H150	H	-0.678026	0.016918	0.448896
H151	H	-1.178011	-0.483070	0.051048
H152	H	-0.678011	0.016930	0.551048
C153	C	-1.157519	-0.686331	-0.000029
C154	C	-0.657519	-0.186331	0.499971
H155	H	-1.142107	-0.739553	-0.000018
H156	H	-0.642107	-0.239553	0.499982
H157	H	-1.189534	-0.676789	-0.051101
H158	H	-0.689534	-0.176789	0.448899
H159	H	-1.189519	-0.676766	0.051051
H160	H	-0.689519	-0.176766	0.551051
C161	C	-0.842021	-0.646981	0.000005
C162	C	-0.342021	-0.146981	0.500005
H163	H	-0.800359	-0.605336	0.000022
H164	H	-0.300359	-0.105336	0.500022
H165	H	-0.836169	-0.678505	-0.051065
H166	H	-0.336169	-0.178505	0.448935
H167	H	-0.836187	-0.678486	0.051087
H168	H	-0.336187	-0.178486	0.551087
C169	C	-1.101554	0.207140	0.596773
C170	C	-0.601554	0.707140	1.096773
H171	H	-1.093891	0.200316	0.658277
H172	H	-0.593891	0.700316	1.158277
H173	H	-1.157496	0.192692	0.581657
H174	H	-0.657496	0.692692	1.081657
H175	H	-1.089552	0.260771	0.581677
H176	H	-0.589552	0.760771	1.081677
H177	H	-0.877140	-0.489606	-0.000008
H178	H	-0.377140	0.010394	0.499992
H179	H	-0.828766	-0.262334	-0.000013
H180	H	-0.328766	0.237666	0.499987
C181	C	-0.876940	0.006918	0.596740
C182	C	-0.376940	0.506918	1.096740
H183	H	-0.845083	-0.021463	0.556080
H184	H	-0.345083	0.478537	1.056080
H185	H	-0.908681	-0.029109	0.632690
H186	H	-0.408681	0.470891	1.132690
H187	H	-0.840750	0.038981	0.632715
H188	H	-0.340750	0.538981	1.132715
