data_functionalizedCrystal
_audit_creation_method	'MofGen! by Chris Wilmer'
_symmetry_space_group_name_H-M	'P1'
_symmetry_Int_Tables_number	1
_symmetry_cell_setting	triclinic
loop_
_symmetry_equiv_pos_as_xyz
  x,y,z
_cell_length_a	15.995350
_cell_length_b	15.072220
_cell_length_c	15.995350
_cell_angle_alpha	90.001101
_cell_angle_beta	96.507625
_cell_angle_gamma	90.008851
loop_
_atom_site_label
_atom_site_type_symbol
_atom_site_fract_x
_atom_site_fract_y
_atom_site_fract_z
O1	O	1.110996	0.073703	-0.107921
O2	O	1.444329	0.407036	0.225412
O3	O	1.777663	0.740370	0.558746
O4	O	0.867221	0.073721	-0.121249
O5	O	1.200554	0.407054	0.212085
O6	O	1.533887	0.740387	0.545418
O7	O	0.995772	0.073710	0.007303
O8	O	1.329105	0.407044	0.340636
O9	O	1.662439	0.740377	0.673970
O10	O	0.982444	0.073713	-0.236472
O11	O	1.315778	0.407046	0.096861
O12	O	1.649111	0.740380	0.430194
O13	O	0.995740	-0.073855	0.007296
O14	O	1.329074	0.259479	0.340629
O15	O	1.662407	0.592812	0.673962
O16	O	0.867189	-0.073844	-0.121256
O17	O	1.200522	0.259489	0.212078
O18	O	1.533855	0.592822	0.545411
O19	O	1.110964	-0.073862	-0.107928
O20	O	1.444297	0.259471	0.225405
O21	O	1.777631	0.592804	0.558738
Zn22	Zn	0.989071	-0.097283	-0.114593
Zn23	Zn	1.322405	0.236051	0.218740
Zn24	Zn	1.655738	0.569384	0.552074
Zn25	Zn	0.989113	0.097141	-0.114584
Zn26	Zn	1.322447	0.430474	0.218750
Zn27	Zn	1.655780	0.763808	0.552083
O28	O	0.982413	-0.073852	-0.236480
O29	O	1.315746	0.259481	0.096854
O30	O	1.649079	0.592815	0.430187
C31	C	0.836010	-0.000060	-0.120701
C32	C	1.169343	0.333274	0.212632
C33	C	1.502677	0.666607	0.545966
C34	C	0.743060	-0.000053	-0.119049
C35	C	1.076393	0.333281	0.214284
C36	C	1.409726	0.666614	0.547617
N37	N	0.989049	-0.229971	-0.114599
N38	N	1.322382	0.103362	0.218734
N39	N	1.655716	0.436695	0.552068
C40	C	0.405312	-0.000071	-0.113117
C41	C	0.738645	0.333262	0.220216
C42	C	1.071979	0.666595	0.553550
C43	C	0.452746	-0.000401	-0.021565
C44	C	0.786079	0.332932	0.311768
C45	C	1.119413	0.666265	0.645101
C46	C	0.549436	-0.000063	-0.023217
C47	C	0.882770	0.333271	0.310116
C48	C	1.216103	0.666604	0.643449
C49	C	0.572873	-0.000063	-0.116060
C50	C	0.906206	0.333271	0.217274
C51	C	1.239539	0.666604	0.550607
C52	C	0.531804	0.084201	-0.161212
C53	C	0.865137	0.417535	0.172121
C54	C	1.198470	0.750868	0.505455
C55	C	0.435168	0.084266	-0.158912
C56	C	0.768501	0.417599	0.174421
C57	C	1.101835	0.750932	0.507755
C58	C	0.434793	-0.083543	-0.160812
C59	C	0.768126	0.249790	0.172521
C60	C	1.101460	0.583123	0.505855
C61	C	0.531738	-0.084651	-0.160790
C62	C	0.865071	0.248682	0.172543
C63	C	1.198405	0.582016	0.505876
C64	C	0.667570	-0.000055	-0.117727
C65	C	1.000903	0.333279	0.215606
C66	C	1.334237	0.666612	0.548939
C67	C	0.310614	-0.000073	-0.111452
C68	C	0.643948	0.333260	0.221881
C69	C	0.977281	0.666593	0.555215
C70	C	0.989112	-0.589173	-0.114580
C71	C	1.322445	-0.255840	0.218753
C72	C	1.655778	0.077494	0.552086
C73	C	0.920095	-0.551560	-0.183135
C74	C	1.253429	-0.218227	0.150198
C75	C	1.586762	0.115106	0.483532
C76	C	0.920254	-0.448735	-0.183385
C77	C	1.253587	-0.115401	0.149948
C78	C	1.586920	0.217932	0.483281
C79	C	0.989080	-0.410969	-0.114590
C80	C	1.322413	-0.077635	0.218744
C81	C	1.655746	0.255698	0.552077
C82	C	1.076445	-0.448266	-0.133671
C83	C	1.409778	-0.114933	0.199662
C84	C	1.743111	0.218400	0.532995
C85	C	1.076058	-0.551124	-0.134159
C86	C	1.409391	-0.217791	0.199175
C87	C	1.742725	0.115543	0.532508
C88	C	0.971542	-0.551272	-0.026741
C89	C	1.304875	-0.217939	0.306592
C90	C	1.638209	0.115394	0.639926
C91	C	0.969537	-0.448409	-0.027327
C92	C	1.302871	-0.115076	0.306007
C93	C	1.636204	0.218258	0.639340
C94	C	0.989067	-0.310255	-0.114593
C95	C	1.322401	0.023078	0.218740
C96	C	1.655734	0.356411	0.552073
C97	C	0.989130	-0.689886	-0.114579
C98	C	1.322463	-0.356553	0.218755
C99	C	1.655796	-0.023220	0.552088
C100	C	1.142175	-0.000080	-0.108476
C101	C	1.475508	0.333253	0.224858
C102	C	1.808841	0.666587	0.558191
C103	C	1.235125	-0.000081	-0.110127
C104	C	1.568458	0.333252	0.223206
C105	C	1.901792	0.666586	0.556539
C106	C	0.995205	-0.000070	0.038494
C107	C	1.328538	0.333263	0.371827
C108	C	1.661872	0.666596	0.705161
C109	C	0.993553	-0.000065	0.131444
C110	C	1.326887	0.333268	0.464778
C111	C	1.660220	0.666601	0.798111
N112	N	0.989142	0.229830	-0.114571
N113	N	1.322476	0.563163	0.218762
N114	N	1.655809	0.896496	0.552096
C115	C	0.982980	-0.000069	-0.267671
C116	C	1.316313	0.333264	0.065663
C117	C	1.649646	0.666597	0.398996
C118	C	0.984631	-0.000069	-0.360621
C119	C	1.317965	0.333265	-0.027288
C120	C	1.651298	0.666598	0.306046
C121	C	0.987621	-0.000068	0.469192
C122	C	1.320954	0.333266	0.802525
C123	C	1.654288	0.666599	1.135859
C124	C	0.896069	0.000270	0.421758
C125	C	1.229403	0.333603	0.755091
C126	C	1.562736	0.666936	1.088425
C127	C	0.897721	-0.000063	0.325068
C128	C	1.231055	0.333270	0.658401
C129	C	1.564388	0.666604	0.991734
C130	C	0.990564	-0.000066	0.301631
C131	C	1.323897	0.333267	0.634965
C132	C	1.657230	0.666601	0.968298
C133	C	1.035702	-0.084335	0.342705
C134	C	1.369035	0.248999	0.676038
C135	C	1.702369	0.582332	1.009371
C136	C	1.033402	-0.084405	0.439341
C137	C	1.366736	0.248928	0.772674
C138	C	1.700069	0.582262	1.106007
C139	C	1.035330	0.083404	0.439707
C140	C	1.368663	0.416737	0.773040
C141	C	1.701996	0.750071	1.106373
C142	C	1.035308	0.084518	0.342761
C143	C	1.368641	0.417851	0.676095
C144	C	1.701975	0.751184	1.009428
C145	C	0.992231	-0.000068	0.206934
C146	C	1.325565	0.333265	0.540267
C147	C	1.658898	0.666599	0.873601
C148	C	0.985956	-0.000072	0.563890
C149	C	1.319289	0.333262	0.897223
C150	C	1.652623	0.666595	1.230556
H151	H	0.577852	-0.060467	0.012275
H152	H	0.911186	0.272867	0.345608
H153	H	1.244519	0.606200	0.678942
H154	H	0.905271	-0.424032	-0.012846
H155	H	1.238604	-0.090699	0.320488
H156	H	1.571938	0.242635	0.653821
Cl157	Cl	0.937187	-0.591433	-0.283213
Cl158	Cl	1.270520	-0.258099	0.050120
Cl159	Cl	1.603853	0.075234	0.383454
H160	H	1.092297	-0.422498	-0.197002
H161	H	1.425630	-0.089164	0.136331
H162	H	1.758963	0.244169	0.469665
H163	H	0.854945	-0.576317	-0.171953
H164	H	1.188279	-0.242984	0.161380
H165	H	1.521612	0.090349	0.494714
H166	H	0.861974	-0.060568	0.297200
H167	H	1.195307	0.272765	0.630533
H168	H	1.528640	0.606099	0.963867
Cl169	Cl	0.842937	0.093200	0.281187
Cl170	Cl	1.176270	0.426534	0.614520
Cl171	Cl	1.509603	0.759867	0.947853
Cl172	Cl	0.403073	-0.182155	-0.114603
Cl173	Cl	0.736406	0.151178	0.218730
Cl174	Cl	1.069740	0.484512	0.552064
H175	H	0.931473	-0.424121	-0.248570
H176	H	1.264806	-0.090788	0.084764
H177	H	1.598139	0.242545	0.418097
Cl178	Cl	0.555450	-0.092508	-0.265324
Cl179	Cl	0.888784	0.240825	0.068009
Cl180	Cl	1.222117	0.574159	0.401342
H181	H	0.433165	0.059694	0.014865
H182	H	0.766499	0.393027	0.348198
H183	H	1.099832	0.726360	0.681531
H184	H	1.091540	-0.575106	-0.198219
H185	H	1.424874	-0.241773	0.135114
H186	H	1.758207	0.091560	0.468447
Cl187	Cl	1.042115	-0.408737	0.055129
Cl188	Cl	1.375448	-0.075404	0.388463
Cl189	Cl	1.708781	0.257929	0.721796
Cl190	Cl	0.987259	-0.181153	0.298886
Cl191	Cl	1.320593	0.152180	0.632220
Cl192	Cl	1.653926	0.485514	0.965553
H193	H	0.434211	-0.060830	0.015027
H194	H	0.767544	0.272503	0.348361
H195	H	1.100878	0.605836	0.681694
H196	H	0.559041	-0.146989	-0.127829
H197	H	0.892375	0.186344	0.205504
H198	H	1.225708	0.519678	0.538837
H199	H	1.129019	-0.576003	-0.086195
H200	H	1.462352	-0.242670	0.247138
H201	H	1.795686	0.090664	0.580471
H202	H	1.103014	0.089603	0.327400
H203	H	1.436347	0.422937	0.660733
H204	H	1.769680	0.756270	0.994066
H205	H	0.909219	-0.577258	-0.008392
H206	H	1.242553	-0.243925	0.324941
H207	H	1.575886	0.089408	0.658274
H208	H	1.102831	0.083968	0.471468
H209	H	1.436164	0.417301	0.804801
H210	H	1.769497	0.750635	1.138134
Cl211	Cl	1.157634	-0.410500	-0.058632
Cl212	Cl	1.490967	-0.077167	0.274701
Cl213	Cl	1.824301	0.256167	0.608035
H214	H	1.021872	-0.575595	0.024275
H215	H	1.355206	-0.242261	0.357609
H216	H	1.688539	0.091072	0.690942
H217	H	0.859490	0.060701	0.440293
H218	H	1.192823	0.394034	0.773626
H219	H	1.526156	0.727367	1.106959
H220	H	0.859626	-0.059819	0.441349
H221	H	1.192960	0.273514	0.774682
H222	H	1.526293	0.606847	1.108016
H223	H	0.577307	0.060446	0.012521
H224	H	0.910641	0.393779	0.345854
H225	H	1.243974	0.727112	0.679188
H226	H	1.000460	-0.147395	0.457639
H227	H	1.333794	0.185939	0.790972
H228	H	1.667127	0.519272	1.124306
H229	H	1.103910	-0.087471	0.328579
H230	H	1.437244	0.245863	0.661912
H231	H	1.770577	0.579196	0.995246
Cl232	Cl	0.406918	0.181515	-0.108065
Cl233	Cl	0.740252	0.514848	0.225269
Cl234	Cl	1.073585	0.848181	0.558602
Cl235	Cl	0.989129	0.182016	0.471410
Cl236	Cl	1.322462	0.515349	0.804743
Cl237	Cl	1.655795	0.848683	1.138076
H238	H	1.100617	-0.088231	0.471588
H239	H	1.433951	0.245103	0.804922
H240	H	1.767284	0.578436	1.138255
H241	H	0.402920	0.088090	-0.226128
H242	H	0.736254	0.421423	0.107206
H243	H	1.069587	0.754756	0.440539
H244	H	0.545929	0.087335	-0.229421
H245	H	0.879263	0.420668	0.103913
H246	H	1.212596	0.754001	0.437246
H247	H	1.002306	0.146857	0.315516
H248	H	1.335640	0.480191	0.648849
H249	H	1.668973	0.813524	0.982182
H250	H	0.560191	0.146912	-0.129845
H251	H	0.893525	0.480245	0.203488
H252	H	1.226858	0.813579	0.536821
H253	H	0.403031	-0.084113	-0.228312
H254	H	0.736365	0.249220	0.105021
H255	H	1.069698	0.582553	0.438354
H256	H	0.855314	-0.423519	-0.172016
H257	H	1.188647	-0.090186	0.161317
H258	H	1.521980	0.243148	0.494650
