data_functionalizedCrystal
_audit_creation_method	'MofGen! by Chris Wilmer'
_symmetry_space_group_name_H-M	'P1'
_symmetry_Int_Tables_number	1
_symmetry_cell_setting	triclinic
loop_
_symmetry_equiv_pos_as_xyz
  x,y,z
_cell_length_a	16.109301
_cell_length_b	14.519731
_cell_length_c	14.586319
_cell_angle_alpha	90.005332
_cell_angle_beta	90.001418
_cell_angle_gamma	83.575167
loop_
_atom_site_label
_atom_site_type_symbol
_atom_site_fract_x
_atom_site_fract_y
_atom_site_fract_z
O1	O	1.103345	0.118539	0.076184
O2	O	1.603345	0.618539	0.576184
O3	O	0.861309	0.133291	0.076199
O4	O	1.361309	0.633291	0.576199
O5	O	0.988735	-0.008335	0.076183
O6	O	1.488735	0.491665	0.576183
O7	O	0.975919	0.260166	0.076201
O8	O	1.475919	0.760166	0.576201
O9	O	0.988725	-0.008339	-0.076298
O10	O	1.488725	0.491661	0.423702
O11	O	0.861299	0.133288	-0.076282
O12	O	1.361299	0.633288	0.423718
O13	O	1.103335	0.118536	-0.076296
O14	O	1.603335	0.618536	0.423704
Cu15	Cu	0.982316	0.125912	-0.090212
Cu16	Cu	1.482316	0.625912	0.409788
Cu17	Cu	0.982328	0.125916	0.090115
Cu18	Cu	1.482328	0.625916	0.590115
O19	O	0.975909	0.260163	-0.076280
O20	O	1.475909	0.760163	0.423720
C21	C	0.830328	0.132692	-0.000039
C22	C	1.330328	0.632692	0.499961
C23	C	0.738030	0.130901	-0.000034
C24	C	1.238030	0.630901	0.499966
C25	C	0.515901	0.210773	-0.000039
C26	C	1.015901	0.710773	0.499961
C27	C	0.429178	0.209083	-0.000045
C28	C	0.929178	0.709083	0.499955
C29	C	0.448750	0.041048	-0.000052
C30	C	0.948750	0.541048	0.499948
C31	C	0.535471	0.042739	-0.000053
C32	C	1.035471	0.542739	0.499947
C33	C	0.569045	0.127605	-0.000042
C34	C	1.069045	0.627605	0.499958
C35	C	0.395599	0.124223	-0.000047
C36	C	0.895599	0.624223	0.499953
C37	C	0.301570	0.122389	-0.000054
C38	C	0.801570	0.622389	0.499946
C39	C	0.663080	0.129439	-0.000037
C40	C	1.163080	0.629439	0.499963
C41	C	0.988129	-0.042695	-0.000057
C42	C	1.488129	0.457305	0.499943
C43	C	0.986330	-0.145072	-0.000058
C44	C	1.486330	0.354928	0.499942
C45	C	0.984868	-0.228213	-0.000056
C46	C	1.484868	0.271787	0.499944
C47	C	0.983041	-0.332518	-0.000049
C48	C	1.483041	0.167482	0.499951
C49	C	0.981591	-0.415654	-0.000043
C50	C	1.481591	0.084346	0.499957
C51	C	0.979764	-0.519965	-0.000037
C52	C	1.479764	-0.019965	0.499963
C53	C	1.134316	0.119135	-0.000056
C54	C	1.634316	0.619135	0.499944
C55	C	1.226614	0.120927	-0.000055
C56	C	1.726614	0.620927	0.499945
C57	C	0.976515	0.294523	-0.000038
C58	C	1.476515	0.794523	0.499962
C59	C	0.978314	0.396899	-0.000031
C60	C	1.478314	0.896899	0.499969
N61	N	0.982314	0.125908	-0.217043
N62	N	1.482314	0.625908	0.282957
C63	C	1.038760	0.063216	-0.548044
C64	C	1.538760	0.563216	-0.048044
C65	C	1.038758	0.063217	-0.452063
C66	C	1.538758	0.563217	0.047937
C67	C	0.925888	0.188610	-0.452059
C68	C	1.425888	0.688610	0.047941
C69	C	0.925895	0.188613	-0.548039
C70	C	1.425895	0.688613	-0.048039
C71	C	0.982330	0.125911	-0.596029
C72	C	1.482330	0.625911	-0.096029
C73	C	0.982321	0.125909	-0.404068
C74	C	1.482321	0.625909	0.095932
C75	C	0.982318	0.125910	-0.300001
C76	C	1.482318	0.625910	0.199999
C77	C	0.982334	0.125911	-0.700103
C78	C	1.482334	0.625911	-0.200103
N79	N	0.982337	0.125912	0.216946
N80	N	1.482337	0.625912	0.716946
H81	H	1.084713	0.012162	-0.587116
H82	H	1.584713	0.512162	-0.087116
C83	C	1.100827	-0.005751	-0.399284
C84	C	1.600827	0.494249	0.100716
H85	H	1.134432	-0.043096	-0.441614
H86	H	1.634432	0.456904	0.058386
H87	H	1.135487	0.027428	-0.361834
H88	H	1.635487	0.527428	0.138166
H89	H	1.070851	-0.044152	-0.361851
H90	H	1.570851	0.455848	0.138149
C91	C	0.370723	0.300568	-0.000036
C92	C	0.870723	0.800568	0.499964
H93	H	0.403142	0.351350	-0.000023
H94	H	0.903142	0.851350	0.499977
H95	H	0.336485	0.303404	-0.053209
H96	H	0.836485	0.803404	0.446791
H97	H	0.336489	0.303400	0.053145
H98	H	0.836489	0.803400	0.553145
H99	H	0.879939	0.239660	-0.412976
H100	H	1.379939	0.739660	0.087024
C101	C	0.863814	0.257575	-0.600826
C102	C	1.363814	0.757575	-0.100826
H103	H	0.830193	0.294908	-0.558500
H104	H	1.330193	0.794908	-0.058500
H105	H	0.893780	0.295975	-0.638262
H106	H	1.393780	0.795975	-0.138262
H107	H	0.829157	0.224380	-0.638272
H108	H	1.329157	0.724380	-0.138272
H109	H	0.543233	0.279876	-0.000037
H110	H	1.043233	0.779876	0.499963
C111	C	0.411816	-0.052297	-0.000053
C112	C	0.911816	0.447703	0.499947
H113	H	0.352556	-0.041394	-0.000042
H114	H	0.852556	0.458606	0.499958
H115	H	0.430046	-0.086547	-0.053226
H116	H	0.930046	0.413453	0.446774
H117	H	0.430052	-0.086532	0.053128
H118	H	0.930052	0.413468	0.553128
H119	H	0.578743	-0.024991	-0.000058
H120	H	1.078743	0.475009	0.499942
