data_functionalizedCrystal
_audit_creation_method	'MofGen! by Chris Wilmer'
_symmetry_space_group_name_H-M	'P1'
_symmetry_Int_Tables_number	1
_symmetry_cell_setting	triclinic
loop_
_symmetry_equiv_pos_as_xyz
  x,y,z
_cell_length_a	11.792254
_cell_length_b	10.967926
_cell_length_c	10.065875
_cell_angle_alpha	93.120479
_cell_angle_beta	81.145539
_cell_angle_gamma	95.540404
loop_
_atom_site_label
_atom_site_type_symbol
_atom_site_fract_x
_atom_site_fract_y
_atom_site_fract_z
O1	O	-0.197975	1.614187	0.266172
O2	O	0.135359	1.947521	0.599505
O3	O	0.468692	2.280854	0.932838
O4	O	-0.201217	1.264164	0.183846
O5	O	0.132117	1.597498	0.517179
O6	O	0.465450	1.930831	0.850513
O7	O	-0.034735	1.447663	0.226999
O8	O	0.298598	1.780996	0.560332
O9	O	0.631931	2.114330	0.893665
O10	O	-0.364456	1.430689	0.223019
O11	O	-0.031123	1.764022	0.556352
O12	O	0.302211	2.097355	0.889686
O13	O	-0.066614	1.412673	0.445759
O14	O	0.266719	1.746006	0.779092
O15	O	0.600052	2.079340	1.112426
O16	O	-0.233096	1.229175	0.402606
O17	O	0.100238	1.562508	0.735940
O18	O	0.433571	1.895841	1.069273
O19	O	-0.229854	1.579197	0.484932
O20	O	0.103479	1.912531	0.818265
O21	O	0.436813	2.245864	1.151599
Zn22	Zn	-0.236536	1.398631	0.478502
Zn23	Zn	0.096797	1.731964	0.811835
Zn24	Zn	0.430130	2.065297	1.145169
Zn25	Zn	-0.194534	1.444731	0.190276
Zn26	Zn	0.138799	1.778065	0.523609
Zn27	Zn	0.472132	2.111398	0.856943
O28	O	-0.396335	1.395699	0.441779
O29	O	-0.063002	1.729032	0.775113
O30	O	0.270332	2.062366	1.108446
C31	C	-0.214511	1.201859	0.282686
C32	C	0.118822	1.535192	0.616020
C33	C	0.452155	1.868525	0.949353
C34	C	-0.206618	1.068337	0.251281
C35	C	0.126716	1.401670	0.584615
C36	C	0.460049	1.735003	0.917948
C37	C	-0.219612	0.990683	0.350604
C38	C	0.113721	1.324016	0.683938
C39	C	0.447054	1.657349	1.017271
C40	C	-0.211454	0.852680	0.318148
C41	C	0.121879	1.186014	0.651481
C42	C	0.455213	1.519347	0.984815
C43	C	-0.422726	1.414263	0.332652
C44	C	-0.089392	1.747596	0.665985
C45	C	0.243941	2.080929	0.999319
C46	C	-0.548856	1.417462	0.333409
C47	C	-0.215523	1.750795	0.666742
C48	C	0.117811	2.084129	1.000076
C49	C	-0.651287	1.420063	0.334013
C50	C	-0.317953	1.753397	0.667347
C51	C	0.015380	2.086730	1.000680
C52	C	-0.779790	1.423317	0.334763
C53	C	-0.446457	1.756650	0.668096
C54	C	-0.113123	2.089984	1.001429
C55	C	-0.008344	1.429100	0.336123
C56	C	0.324989	1.762433	0.669456
C57	C	0.658322	2.095766	1.002790
C58	C	0.117787	1.425902	0.335357
C59	C	0.451121	1.759235	0.668691
C60	C	0.784454	2.092568	1.002024
C61	C	-0.216559	1.641504	0.386089
C62	C	0.116775	1.974837	0.719422
C63	C	0.450108	2.308170	1.052755
C64	C	-0.224451	1.775027	0.417485
C65	C	0.108882	2.108360	0.750818
C66	C	0.442215	2.441694	1.084152
N67	N	-0.265201	1.367177	0.675211
N68	N	0.068132	1.700510	1.008544
N69	N	0.401465	2.033844	1.341878
N70	N	-0.165861	1.476194	-0.006431
N71	N	0.167473	1.809528	0.326903
N72	N	0.500806	2.142861	0.660236
C73	C	-0.204500	1.433780	0.758652
C74	C	0.128833	1.767113	1.091986
C75	C	0.462167	2.100447	1.425319
C76	C	-0.226571	1.409582	0.910129
C77	C	0.106763	1.742915	1.243462
C78	C	0.440096	2.076248	1.576796
H79	H	-0.241614	0.810704	0.526555
H80	H	0.091720	1.144038	0.859889
H81	H	0.425053	1.477371	1.193222
H82	H	-0.333505	1.292237	0.715914
H83	H	-0.000172	1.625570	1.049247
H84	H	0.333162	1.958903	1.382580
Cl85	Cl	-0.060643	1.592157	0.930808
Cl86	Cl	0.272691	1.925490	1.264141
Cl87	Cl	0.606024	2.258824	1.597474
H88	H	-0.189449	1.032653	0.142219
H89	H	0.143884	1.365986	0.475553
H90	H	0.477217	1.699319	0.808886
Cl91	Cl	-0.184942	0.797605	0.149752
Cl92	Cl	0.148392	1.130938	0.483085
Cl93	Cl	0.481725	1.464271	0.816418
H94	H	-0.136187	1.508712	0.717950
H95	H	0.197146	1.842045	1.051283
H96	H	0.530479	2.175379	1.384616
H97	H	-0.236771	1.026368	0.459667
H98	H	0.096562	1.359701	0.793000
H99	H	0.429895	1.693035	1.126333
H100	H	-0.294879	1.334636	0.950825
H101	H	0.038455	1.667970	1.284159
H102	H	0.371788	2.001303	1.617492
