data_functionalizedCrystal
_audit_creation_method	'MofGen! by Chris Wilmer'
_symmetry_space_group_name_H-M	'P1'
_symmetry_Int_Tables_number	1
_symmetry_cell_setting	triclinic
loop_
_symmetry_equiv_pos_as_xyz
  x,y,z
_cell_length_a	11.792254
_cell_length_b	10.654553
_cell_length_c	9.730223
_cell_angle_alpha	89.999314
_cell_angle_beta	89.996917
_cell_angle_gamma	95.657612
loop_
_atom_site_label
_atom_site_type_symbol
_atom_site_fract_x
_atom_site_fract_y
_atom_site_fract_z
O1	O	-0.159431	1.667389	-0.114291
O2	O	0.340569	2.167389	0.385709
O3	O	-0.174615	1.301869	-0.114288
O4	O	0.325385	1.801869	0.385712
O5	O	-0.001874	1.493491	-0.114296
O6	O	0.498126	1.993491	0.385704
O7	O	-0.332172	1.475767	-0.114283
O8	O	0.167828	1.975767	0.385717
O9	O	-0.001878	1.493488	0.114284
O10	O	0.498122	1.993488	0.614284
O11	O	-0.174620	1.301866	0.114291
O12	O	0.325380	1.801866	0.614291
O13	O	-0.159435	1.667387	0.114289
O14	O	0.340565	2.167387	0.614289
Zn15	Zn	-0.167028	1.484626	0.150582
Zn16	Zn	0.332972	1.984626	0.650582
Zn17	Zn	-0.167022	1.484629	-0.150581
Zn18	Zn	0.332978	1.984629	0.349419
O19	O	-0.332177	1.475765	0.114297
O20	O	0.167823	1.975765	0.614297
C21	C	-0.173502	1.255073	0.000002
C22	C	0.326498	1.755073	0.500002
C23	C	-0.170164	1.115639	0.000002
C24	C	0.329836	1.615639	0.500002
C25	C	-0.165455	0.919111	0.124591
C26	C	0.334545	1.419111	0.624591
C27	C	-0.168597	1.050123	0.124599
C28	C	0.331403	1.550123	0.624599
C29	C	-0.168599	1.050135	-0.124612
C30	C	0.331401	1.550135	0.375388
C31	C	-0.165465	0.919124	-0.124618
C32	C	0.334535	1.419124	0.375382
C33	C	-0.165449	0.919105	0.268471
C34	C	0.334551	1.419105	0.768471
C35	C	-0.168592	1.050117	0.268479
C36	C	0.331408	1.550117	0.768479
C37	C	-0.374468	1.476882	0.000008
C38	C	0.125532	1.976882	0.500008
C39	C	-0.500488	1.480224	0.000013
C40	C	-0.000488	1.980224	0.500013
C41	C	-0.602831	1.482939	0.000005
C42	C	-0.102831	1.982939	0.500005
C43	C	-0.731226	1.486334	-0.000011
C44	C	-0.231226	1.986334	0.499989
C45	C	0.040417	1.492373	-0.000010
C46	C	0.540417	1.992373	0.499990
C47	C	0.166438	1.489031	-0.000024
C48	C	0.666438	1.989031	0.499976
C49	C	-0.160549	1.714182	-0.000004
C50	C	0.339451	2.214182	0.499996
C51	C	-0.163887	1.853616	-0.000013
C52	C	0.336113	2.353616	0.499987
N53	N	-0.167031	1.484633	0.356119
N54	N	0.332969	1.984633	0.856119
N55	N	-0.167010	1.484632	-0.356118
N56	N	0.332990	1.984632	0.143882
C57	C	-0.090568	1.569505	0.428042
C58	C	0.409432	2.069505	0.928042
C59	C	-0.090554	1.569502	0.571925
C60	C	0.409446	2.069502	1.071925
C61	C	-0.243478	1.399751	0.571949
C62	C	0.256522	1.899751	1.071949
C63	C	-0.243485	1.399749	0.428069
C64	C	0.256515	1.899749	0.928069
C65	C	-0.002282	1.667514	0.428028
C66	C	0.497718	2.167514	0.928028
C67	C	-0.002268	1.667511	0.571911
C68	C	0.497732	2.167511	1.071911
H69	H	-0.164202	0.865802	-0.226082
H70	H	0.335798	1.365802	0.273918
Cl71	Cl	-0.044977	1.808166	0.359119
Cl72	Cl	0.455023	2.308166	0.859119
Cl73	Cl	-0.170581	1.132497	-0.281249
Cl74	Cl	0.329419	1.632497	0.218751
H75	H	-0.021716	1.763968	0.610963
H76	H	0.478284	2.263968	1.110963
Cl77	Cl	-0.339598	1.293033	0.337650
Cl78	Cl	0.160402	1.793033	0.837650
Cl79	Cl	-0.296399	1.095419	0.337417
Cl80	Cl	0.203601	1.595419	0.837417
H81	H	-0.305723	1.330639	0.630547
H82	H	0.194277	1.830639	1.130547
Cl83	Cl	0.125007	1.620745	0.640802
Cl84	Cl	0.625007	2.120745	1.140802
H85	H	-0.090150	1.096619	0.323712
H86	H	0.409850	1.596619	0.823712
Cl87	Cl	-0.286547	0.847300	0.353763
Cl88	Cl	0.213453	1.347300	0.853763
H89	H	-0.082669	0.889762	0.313106
H90	H	0.417331	1.389762	0.813106
Cl91	Cl	0.132406	1.634781	0.367716
Cl92	Cl	0.632406	2.134781	0.867716
