data_functionalizedCrystal
_audit_creation_method	'MofGen! by Chris Wilmer'
_symmetry_space_group_name_H-M	'P1'
_symmetry_Int_Tables_number	1
_symmetry_cell_setting	triclinic
loop_
_symmetry_equiv_pos_as_xyz
  x,y,z
_cell_length_a	25.639239
_cell_length_b	16.625548
_cell_length_c	16.625539
_cell_angle_alpha	90.022345
_cell_angle_beta	89.968745
_cell_angle_gamma	89.961455
loop_
_atom_site_label
_atom_site_type_symbol
_atom_site_fract_x
_atom_site_fract_y
_atom_site_fract_z
Zn1	Zn	-0.208152	-1.232590	-0.455931
Zn2	Zn	0.291848	-0.732590	0.044069
Zn3	Zn	-0.295590	-1.232455	-0.321091
Zn4	Zn	0.204410	-0.732455	0.178909
Zn5	Zn	-0.208170	-1.097751	-0.321107
Zn6	Zn	0.291830	-0.597751	0.178893
Zn7	Zn	-0.295558	-1.097684	-0.455877
Zn8	Zn	0.204442	-0.597684	0.044123
O9	O	-0.251867	-1.165120	-0.388502
O10	O	0.248133	-0.665120	0.111498
O11	O	-0.219756	-1.345404	-0.438060
O12	O	0.280244	-0.845404	0.061940
O13	O	-0.284014	-1.214558	-0.208261
O14	O	0.215986	-0.714558	0.291739
O15	O	-0.135002	-1.115723	-0.339021
O16	O	0.364998	-0.615723	0.160979
O17	O	-0.283997	-1.345305	-0.338994
O18	O	0.216003	-0.845305	0.161006
O19	O	-0.134989	-1.214788	-0.438076
O20	O	0.365011	-0.714788	0.061924
O21	O	-0.219787	-1.115592	-0.208273
O22	O	0.280213	-0.615592	0.291727
O23	O	-0.219756	-0.984910	-0.338969
O24	O	0.280244	-0.484910	0.161031
O25	O	-0.283942	-1.115607	-0.568717
O26	O	0.216058	-0.615607	-0.068717
O27	O	-0.283960	-0.984860	-0.437984
O28	O	0.216040	-0.484860	0.062016
O29	O	-0.219726	-1.214722	-0.568756
O30	O	0.280274	-0.714722	-0.068756
O31	O	-0.368751	-1.214492	-0.338942
O32	O	0.131249	-0.714492	0.161058
O33	O	-0.368727	-1.115477	-0.437968
O34	O	0.131273	-0.615477	0.062032
C35	C	-0.251857	-0.955629	-0.388473
C36	C	0.248143	-0.455629	0.111527
C37	C	-0.251865	-0.866008	-0.388479
C38	C	0.248135	-0.366008	0.111521
C39	C	-0.251864	-0.537832	-0.388504
C40	C	0.248136	-0.037832	0.111496
C41	C	-0.251863	-0.629141	-0.388494
C42	C	0.248137	-0.129141	0.111506
C43	C	-0.251865	-0.701917	-0.388491
C44	C	0.248135	-0.201917	0.111509
C45	C	-0.251863	-0.793231	-0.388483
C46	C	0.248137	-0.293231	0.111517
C47	C	-0.387710	-1.164984	-0.388465
C48	C	0.112290	-0.664984	0.111535
C49	C	-0.445824	-1.165000	-0.388476
C50	C	0.054176	-0.665000	0.111524
C51	C	-0.806187	-1.216812	-0.337026
C52	C	-0.306187	-0.716812	0.162974
C53	C	-0.860791	-1.216843	-0.337037
C54	C	-0.360791	-0.716843	0.162963
O55	O	-0.889027	-1.260755	-0.293253
O56	O	-0.389027	-0.760755	0.206747
N57	N	-0.888106	-1.165262	-0.388555
N58	N	-0.388106	-0.665262	0.111445
C59	C	-0.860815	-1.113651	-0.440071
C60	C	-0.360815	-0.613651	0.059929
O61	O	-0.889063	-1.069780	-0.483893
O62	O	-0.389063	-0.569780	0.016107
C63	C	-0.806211	-1.113625	-0.440064
C64	C	-0.306211	-0.613625	0.059936
C65	C	-0.778899	-1.165204	-0.388537
C66	C	-0.278899	-0.665204	0.111463
C67	C	-0.778874	-1.268387	-0.285504
C68	C	-0.278874	-0.768387	0.214496
C69	C	-0.724273	-1.268355	-0.285493
C70	C	-0.224273	-0.768355	0.214507
C71	C	-0.696985	-1.216747	-0.337003
C72	C	-0.196985	-0.716747	0.162997
C73	C	-0.724298	-1.165171	-0.388525
C74	C	-0.224298	-0.665171	0.111475
C75	C	-0.778921	-1.062019	-0.491584
C76	C	-0.278921	-0.562019	0.008416
C77	C	-0.724314	-1.061997	-0.491572
C78	C	-0.224314	-0.561997	0.008428
C79	C	-0.697001	-1.113576	-0.440045
C80	C	-0.197001	-0.613576	0.059955
C81	C	-0.642410	-1.113531	-0.440024
C82	C	-0.142410	-0.613531	0.059976
N83	N	-0.615094	-1.165112	-0.388506
N84	N	-0.115094	-0.665112	0.111494
C85	C	-0.642382	-1.216720	-0.336996
C86	C	-0.142382	-0.716720	0.163004
C87	C	-0.975485	-1.113712	-0.440084
C88	C	-0.475485	-0.613712	0.059916
C89	C	-1.030088	-1.113734	-0.440088
C90	C	-0.530088	-0.613734	0.059912
C91	C	-1.030060	-1.216927	-0.337054
C92	C	-0.530060	-0.716927	0.162946
C93	C	-0.975457	-1.216900	-0.337047
C94	C	-0.475457	-0.716900	0.162953
C95	C	-0.948170	-1.165293	-0.388566
C96	C	-0.448170	-0.665293	0.111434
C97	C	-0.527717	-1.216648	-0.336975
C98	C	-0.027717	-0.716648	0.163025
C99	C	-0.473112	-1.216608	-0.336965
C100	C	0.026888	-0.716608	0.163035
C101	C	-0.473144	-1.113418	-0.440001
C102	C	0.026856	-0.613418	0.059999
C103	C	-0.527745	-1.113454	-0.440008
C104	C	-0.027745	-0.613454	0.059992
C105	C	-0.555030	-1.165076	-0.388492
C106	C	-0.055030	-0.665076	0.111508
O107	O	-0.614139	-1.069644	-0.483789
O108	O	-0.114139	-0.569644	0.016211
O109	O	-0.614128	-1.260591	-0.293189
O110	O	-0.114128	-0.760591	0.206811
C111	C	-0.115494	-1.165278	-0.388556
C112	C	0.384506	-0.665278	0.111444
C113	C	-0.057380	-1.165345	-0.388580
C114	C	0.442620	-0.665345	0.111420
C115	C	-0.251828	-1.165172	-0.598811
C116	C	0.248172	-0.665172	-0.098811
C117	C	-0.251812	-1.165195	-0.688432
C118	C	0.248188	-0.665195	-0.188432
C119	C	-0.251875	-0.375429	-0.388523
C120	C	0.248125	0.124571	0.111477
C121	C	-0.251869	-0.465050	-0.388513
C122	C	0.248131	0.034950	0.111487
C123	C	-0.251753	-1.165232	-1.016608
C124	C	0.248247	-0.665232	-0.516608
C125	C	-0.251771	-1.165219	-0.925299
C126	C	0.248229	-0.665219	-0.425299
C127	C	-0.251783	-1.165214	-0.852523
C128	C	0.248217	-0.665214	-0.352523
C129	C	-0.251800	-1.165200	-0.761208
C130	C	0.248200	-0.665200	-0.261208
C131	C	-0.251868	-1.165114	-0.179011
C132	C	0.248132	-0.665114	0.320989
C133	C	-0.251738	-1.165248	-0.089390
C134	C	0.248262	-0.665248	0.410610
H135	H	-0.549926	-1.258684	-0.295027
H136	H	-0.049926	-0.758684	0.204973
H137	H	-0.702039	-1.310357	-0.243537
H138	H	-0.202039	-0.810357	0.256463
H139	H	-0.801086	-1.310417	-0.243558
H140	H	-0.301086	-0.810417	0.256442
H141	H	-0.450918	-1.071397	-0.481938
H142	H	0.049082	-0.571397	0.018062
C143	C	-0.945900	-1.272992	-0.281076
C144	C	-0.445900	-0.772992	0.218924
C145	C	-0.981491	-1.318202	-0.235982
C146	C	-0.481491	-0.818202	0.264018
C147	C	-0.954286	-1.369892	-0.184420
C148	C	-0.454286	-0.869892	0.315580
H149	H	-0.924631	-1.242250	-0.245839
H150	H	-0.424631	-0.742250	0.254161
H151	H	-0.924576	-1.308144	-0.311930
H152	H	-0.424576	-0.808144	0.188070
H153	H	-1.002806	-1.283054	-0.205131
H154	H	-0.502806	-0.783054	0.294869
H155	H	-1.002762	-1.348960	-0.271198
H156	H	-0.502762	-0.848960	0.228802
H157	H	-0.932962	-1.405044	-0.215274
H158	H	-0.432962	-0.905044	0.284726
H159	H	-0.933017	-1.339144	-0.149189
H160	H	-0.433017	-0.839144	0.350811
H161	H	-0.978430	-1.400578	-0.153823
H162	H	-0.478430	-0.900578	0.346177
H163	H	-0.450875	-1.258610	-0.295003
H164	H	0.049125	-0.758610	0.204997
C165	C	-0.557428	-1.057349	-0.495812
C166	C	-0.057428	-0.557349	0.004188
C167	C	-0.588824	-1.005699	-0.450121
C168	C	-0.088824	-0.505699	0.049879
C169	C	-0.616165	-0.954001	-0.501505
C170	C	-0.116165	-0.454001	-0.001505
H171	H	-0.578732	-1.088092	-0.530997
H172	H	-0.078732	-0.588092	-0.030997
H173	H	-0.533369	-1.026561	-0.526470
H174	H	-0.033369	-0.526561	-0.026470
H175	H	-0.612881	-1.036484	-0.419476
H176	H	-0.112881	-0.536484	0.080524
H177	H	-0.567533	-0.974938	-0.414937
H178	H	-0.067533	-0.474938	0.085063
H179	H	-0.592106	-0.923213	-0.532163
H180	H	-0.092106	-0.423213	-0.032163
H181	H	-0.637467	-0.984751	-0.536688
H182	H	-0.137467	-0.484751	-0.036688
H183	H	-0.637468	-0.918946	-0.470511
H184	H	-0.137468	-0.418946	0.029489
H185	H	-1.052288	-1.258952	-0.295114
H186	H	-0.552288	-0.758952	0.204886
H187	H	-1.052321	-1.071725	-0.482038
H188	H	-0.552321	-0.571725	0.017962
H189	H	-0.953271	-1.071681	-0.482034
H190	H	-0.453271	-0.571681	0.017966
C191	C	-0.808471	-1.005990	-0.547621
C192	C	-0.308471	-0.505990	-0.047621
C193	C	-0.772875	-0.960814	-0.592741
C194	C	-0.272875	-0.460814	-0.092741
C195	C	-0.800076	-0.909198	-0.644383
C196	C	-0.300076	-0.409198	-0.144383
H197	H	-0.829811	-0.970807	-0.516848
H198	H	-0.329811	-0.470807	-0.016848
H199	H	-0.829723	-1.036809	-0.582831
H200	H	-0.329723	-0.536809	-0.082831
H201	H	-0.751632	-0.929998	-0.557536
H202	H	-0.251632	-0.429998	-0.057536
H203	H	-0.751534	-0.995976	-0.623531
H204	H	-0.251534	-0.495976	-0.123531
H205	H	-0.821329	-0.940016	-0.679593
H206	H	-0.321329	-0.440016	-0.179593
H207	H	-0.821416	-0.874021	-0.613604
H208	H	-0.321416	-0.374021	-0.113604
H209	H	-0.775929	-0.878545	-0.675009
H210	H	-0.275929	-0.378545	-0.175009
H211	H	-0.702099	-1.019973	-0.533528
H212	H	-0.202099	-0.519973	-0.033528
