data_functionalizedCrystal
_audit_creation_method	'MofGen! by Chris Wilmer'
_symmetry_space_group_name_H-M	'P1'
_symmetry_Int_Tables_number	1
_symmetry_cell_setting	triclinic
loop_
_symmetry_equiv_pos_as_xyz
  x,y,z
_cell_length_a	16.625548
_cell_length_b	19.121063
_cell_length_c	16.625539
_cell_angle_alpha	87.591339
_cell_angle_beta	90.020568
_cell_angle_gamma	92.470058
loop_
_atom_site_label
_atom_site_type_symbol
_atom_site_fract_x
_atom_site_fract_y
_atom_site_fract_z
Zn1	Zn	1.218959	-0.279593	0.469577
Zn2	Zn	1.552292	0.053741	0.802910
Zn3	Zn	1.885626	0.387074	1.136244
Zn4	Zn	1.213098	-0.397050	0.340486
Zn5	Zn	1.546431	-0.063717	0.673820
Zn6	Zn	1.879764	0.269616	1.007153
Zn7	Zn	1.084119	-0.279620	0.334759
Zn8	Zn	1.417453	0.053714	0.668092
Zn9	Zn	1.750786	0.387047	1.001426
Zn10	Zn	1.078329	-0.397010	0.475274
Zn11	Zn	1.411662	-0.063677	0.808607
Zn12	Zn	1.744995	0.269657	1.141941
O13	O	1.148626	-0.338318	0.405024
O14	O	1.481959	-0.004985	0.738357
O15	O	1.815293	0.328349	1.071691
O16	O	1.331013	-0.295179	0.452466
O17	O	1.664347	0.038154	0.785799
O18	O	1.997680	0.371487	1.119132
O19	O	1.195959	-0.381501	0.226895
O20	O	1.529292	-0.048168	0.560229
O21	O	1.862626	0.285166	0.893562
O22	O	1.106883	-0.181331	0.347862
O23	O	1.440216	0.152002	0.681195
O24	O	1.773549	0.485335	1.014528
O25	O	1.326707	-0.381475	0.357623
O26	O	1.660041	-0.048142	0.690956
O27	O	1.993374	0.285192	1.024290
O28	O	1.205949	-0.181312	0.446912
O29	O	1.539282	0.152022	0.780245
O30	O	1.872615	0.485355	1.113579
O31	O	1.101199	-0.295225	0.222688
O32	O	1.434532	0.038108	0.556021
O33	O	1.767866	0.371442	0.889354
O34	O	0.970519	-0.295186	0.353386
O35	O	1.303852	0.038147	0.686719
O36	O	1.637186	0.371481	1.020053
O37	O	1.097013	-0.381406	0.587349
O38	O	1.430346	-0.048073	0.920683
O39	O	1.763680	0.285260	1.254016
O40	O	0.966265	-0.381432	0.456622
O41	O	1.299598	-0.048099	0.789955
O42	O	1.632931	0.285235	1.123288
O43	O	1.200333	-0.295140	0.583164
O44	O	1.533667	0.038193	0.916497
O45	O	1.867000	0.371526	1.249831
O46	O	1.190344	-0.495330	0.363147
O47	O	1.523677	-0.161996	0.696480
O48	O	1.857010	0.171337	1.029814
O49	O	1.091330	-0.495300	0.462175
O50	O	1.424663	-0.161967	0.795509
O51	O	1.757996	0.171367	1.128842
C52	C	0.939136	-0.338308	0.405001
C53	C	1.272469	-0.004975	0.738334
C54	C	1.605802	0.328359	1.071668
C55	C	0.849514	-0.338321	0.405011
C56	C	1.182847	-0.004987	0.738344
C57	C	1.516181	0.328346	1.071678
C58	C	0.521338	-0.338325	0.405046
C59	C	0.854671	-0.004992	0.738379
C60	C	1.188005	0.328341	1.071712
C61	C	0.612647	-0.338322	0.405034
C62	C	0.945980	-0.004989	0.738367
C63	C	1.279313	0.328345	1.071700
C64	C	0.685423	-0.338323	0.405028
C65	C	1.018756	-0.004990	0.738361
C66	C	1.352090	0.328343	1.071695
C67	C	0.776738	-0.338319	0.405017
C68	C	1.110071	-0.004986	0.738350
C69	C	1.443404	0.328347	1.071683
C70	C	1.139594	-0.520799	0.413918
C71	C	1.472927	-0.187465	0.747252
C72	C	1.806261	0.145868	1.080585
C73	C	1.135804	-0.598865	0.417750
C74	C	1.469137	-0.265532	0.751084
C75	C	1.802471	0.067802	1.084417
C76	C	1.185615	-0.635533	0.368035
C77	C	1.518948	-0.302199	0.701368
C78	C	1.852282	0.031134	1.034702
C79	C	1.182055	-0.708884	0.371644
C80	C	1.515388	-0.375551	0.704977
C81	C	1.848722	-0.042217	1.038310
C82	C	1.128680	-0.745566	0.424964
C83	C	1.462013	-0.412233	0.758298
C84	C	1.795346	-0.078899	1.091631
C85	C	1.078867	-0.708893	0.474685
C86	C	1.412200	-0.375560	0.808019
C87	C	1.745534	-0.042227	1.141352
C88	C	1.082431	-0.635543	0.471080
C89	C	1.415765	-0.302210	0.804414
C90	C	1.749098	0.031123	1.137747
C91	C	1.115340	-0.967036	0.438431
C92	C	1.448673	-0.633703	0.771764
C93	C	1.782007	-0.300369	1.105098
C94	C	1.111778	-1.040391	0.442031
C95	C	1.445111	-0.707058	0.775364
C96	C	1.778444	-0.373724	1.108697
C97	C	1.214967	-1.040377	0.338989
C98	C	1.548301	-0.707043	0.672323
C99	C	1.881634	-0.373710	1.005656
C100	C	1.218524	-0.967025	0.335386
C101	C	1.551857	-0.633692	0.668719
C102	C	1.885190	-0.300359	1.002052
C103	C	1.168714	-0.930359	0.385109
C104	C	1.502047	-0.597025	0.718443
C105	C	1.835381	-0.263692	1.051776
C106	C	1.125038	-0.820543	0.428653
C107	C	1.458371	-0.487210	0.761986
C108	C	1.791705	-0.153876	1.095319
C109	C	1.172360	-0.855383	0.381425
C110	C	1.505694	-0.522050	0.714758
C111	C	1.839027	-0.188717	1.048091
C112	C	1.358934	-0.338329	0.405048
C113	C	1.692268	-0.004995	0.738381
C114	C	2.025601	0.328338	1.071714
C115	C	1.448555	-0.338333	0.405058
C116	C	1.781889	-0.005000	0.738391
C117	C	2.115222	0.328333	1.071724
C118	C	1.148681	-0.338266	0.615331
C119	C	1.482014	-0.004932	0.948664
C120	C	1.815348	0.328401	1.281997
C121	C	1.148705	-0.338244	0.704951
C122	C	1.482038	-0.004910	1.038284
C123	C	1.815371	0.328423	1.371617
C124	C	1.157715	-0.155125	0.396113
C125	C	1.491049	0.178208	0.729446
C126	C	1.824382	0.511542	1.062779
C127	C	1.161589	-0.077059	0.392315
C128	C	1.494922	0.256275	0.725648
C129	C	1.828255	0.589608	1.058982
C130	C	1.148620	-0.338320	0.195533
C131	C	1.481954	-0.004986	0.528867
C132	C	1.815287	0.328347	0.862200
C133	C	1.148763	-0.338144	0.105904
C134	C	1.482096	-0.004811	0.439237
C135	C	1.815429	0.328523	0.772571
C136	C	1.148746	-0.338165	1.033123
C137	C	1.482079	-0.004832	1.366456
C138	C	1.815412	0.328502	1.699789
C139	C	1.148732	-0.338189	0.941815
C140	C	1.482065	-0.004856	1.275149
C141	C	1.815398	0.328478	1.608482
C142	C	1.148725	-0.338205	0.869040
C143	C	1.482059	-0.004871	1.202373
C144	C	1.815392	0.328462	1.535706
C145	C	1.148711	-0.338228	0.777726
C146	C	1.482044	-0.004894	1.111060
C147	C	1.815378	0.328439	1.444393
H148	H	1.229075	-0.605671	0.324612
H149	H	1.562409	-0.272337	0.657945
H150	H	1.895742	0.060996	0.991279
H151	H	1.261986	-0.937160	0.291967
H152	H	1.595319	-0.603827	0.625301
H153	H	1.928653	-0.270493	0.958634
H154	H	1.035411	-0.738766	0.518104
H155	H	1.368744	-0.405432	0.851437
H156	H	1.702078	-0.072099	1.184771
H157	H	1.222616	-0.738735	0.331159
H158	H	1.555949	-0.405402	0.664493
H159	H	1.889282	-0.072069	0.997826
H160	H	1.041871	-0.605689	0.511565
H161	H	1.375204	-0.272356	0.844898
H162	H	1.708538	0.060978	1.178232
H163	H	1.255521	-1.070238	0.298508
H164	H	1.588854	-0.736905	0.631842
H165	H	1.922188	-0.403572	0.965175
H166	H	1.215822	-0.825515	0.338014
H167	H	1.549155	-0.492181	0.671347
H168	H	1.882488	-0.158848	1.004681
H169	H	1.068323	-1.070256	0.485465
H170	H	1.401656	-0.736922	0.818798
H171	H	1.734989	-0.403589	1.152132
H172	H	1.074781	-0.937188	0.478917
H173	H	1.408115	-0.603855	0.812250
H174	H	1.741448	-0.270521	1.145583
H175	H	1.081578	-0.850418	0.472065
H176	H	1.414911	-0.517084	0.805398
H177	H	1.748245	-0.183751	1.138732
