data_functionalizedCrystal
_audit_creation_method	'MofGen! by Chris Wilmer'
_symmetry_space_group_name_H-M	'P1'
_symmetry_Int_Tables_number	1
_symmetry_cell_setting	triclinic
loop_
_symmetry_equiv_pos_as_xyz
  x,y,z
_cell_length_a	14.044220
_cell_length_b	13.101039
_cell_length_c	14.971486
_cell_angle_alpha	86.633875
_cell_angle_beta	88.401503
_cell_angle_gamma	93.659868
loop_
_atom_site_label
_atom_site_type_symbol
_atom_site_fract_x
_atom_site_fract_y
_atom_site_fract_z
O1	O	1.263154	0.085106	0.211146
O2	O	1.596487	0.418440	0.544480
O3	O	1.929820	0.751773	0.877813
O4	O	0.987177	0.085132	0.203363
O5	O	1.320511	0.418466	0.536696
O6	O	1.653844	0.751799	0.870029
O7	O	1.132562	0.085111	0.077637
O8	O	1.465895	0.418445	0.410971
O9	O	1.799229	0.751778	0.744304
O10	O	1.117769	0.085127	0.336871
O11	O	1.451102	0.418461	0.670205
O12	O	1.784436	0.751794	1.003538
O13	O	1.122131	-0.085317	0.086674
O14	O	1.455464	0.248016	0.420008
O15	O	1.788798	0.581350	0.753341
O16	O	0.976746	-0.085296	0.212400
O17	O	1.310080	0.248037	0.545733
O18	O	1.643413	0.581371	0.879066
O19	O	1.252723	-0.085322	0.220183
O20	O	1.586056	0.248011	0.553516
O21	O	1.919389	0.581345	0.886850
Zn22	Zn	1.113078	-0.112368	0.217726
Zn23	Zn	1.446412	0.220965	0.551059
Zn24	Zn	1.779745	0.554298	0.884393
Zn25	Zn	1.126822	0.112178	0.205820
Zn26	Zn	1.460155	0.445512	0.539153
Zn27	Zn	1.793488	0.778845	0.872486
O28	O	1.107338	-0.085301	0.345908
O29	O	1.440671	0.248032	0.679242
O30	O	1.774005	0.581366	1.012575
C31	C	0.946644	-0.000079	0.204474
C32	C	1.279977	0.333255	0.537808
C33	C	1.613310	0.666588	0.871141
C34	C	0.841407	-0.000069	0.194313
C35	C	1.174740	0.333264	0.527646
C36	C	1.508074	0.666598	0.860979
C37	C	0.648723	-0.000090	0.175737
C38	C	0.982057	0.333243	0.509071
C39	C	1.315390	0.666576	0.842404
C40	C	0.591172	-0.000090	0.247804
C41	C	0.924505	0.333243	0.581137
C42	C	1.257838	0.666576	0.914471
C43	C	0.483956	-0.000102	0.237468
C44	C	0.817289	0.333231	0.570802
C45	C	1.150623	0.666564	0.904135
C46	C	0.755949	-0.000079	0.186072
C47	C	1.089282	0.333255	0.519405
C48	C	1.422616	0.666588	0.852738
N49	N	1.103706	-0.265615	0.225852
N50	N	1.437039	0.067718	0.559185
N51	N	1.770372	0.401051	0.892519
C52	C	1.090954	-0.474656	0.236916
C53	C	1.424287	-0.141323	0.570249
C54	C	1.757620	0.192010	0.903583
C55	C	1.148951	-0.525540	0.186626
C56	C	1.482284	-0.192207	0.519959
C57	C	1.815617	0.141126	0.853293
C58	C	1.141855	-0.641858	0.192782
C59	C	1.475189	-0.308524	0.526115
C60	C	1.808522	0.024809	0.859449
C61	C	1.098048	-0.358328	0.230761
C62	C	1.431381	-0.024995	0.564094
C63	C	1.764714	0.308338	0.897428
C64	C	1.293256	-0.000109	0.219071
C65	C	1.626590	0.333224	0.552405
C66	C	1.959923	0.666558	0.885738
C67	C	1.398494	-0.000112	0.229233
C68	C	1.731827	0.333221	0.562566
C69	C	2.065160	0.666555	0.895899
C70	C	1.126685	-0.000103	0.048779
C71	C	1.460018	0.333231	0.382112
C72	C	1.793352	0.666564	0.715446
C73	C	1.124702	-0.000101	-0.050674
C74	C	1.458036	0.333232	0.282659
C75	C	1.791369	0.666565	0.615992
N76	N	1.136202	0.265426	0.197687
N77	N	1.469535	0.598759	0.531021
N78	N	1.802869	0.932092	0.864354
C79	C	1.210112	-0.000110	-0.101171
C80	C	1.543445	0.333223	0.232163
C81	C	1.876779	0.666556	0.565496
C82	C	1.208244	-0.000100	-0.194618
C83	C	1.541577	0.333234	0.138715
C84	C	1.874911	0.666567	0.472049
C85	C	1.120965	-0.000088	-0.237567
C86	C	1.454298	0.333246	0.095767
C87	C	1.787632	0.666579	0.429100
C88	C	1.035549	-0.000076	-0.187063
C89	C	1.368882	0.333257	0.146270
C90	C	1.702216	0.666591	0.479603
C91	C	1.037418	-0.000079	-0.093618
C92	C	1.370752	0.333254	0.239715
C93	C	1.704085	0.666588	0.573048
C94	C	1.031658	-0.000072	-0.381833
C95	C	1.364992	0.333261	-0.048499
C96	C	1.698325	0.666595	0.284834
C97	C	1.029788	-0.000071	-0.475284
C98	C	1.363122	0.333263	-0.141951
C99	C	1.696455	0.666596	0.191383
C100	C	1.202484	-0.000092	-0.482832
C101	C	1.535818	0.333241	-0.149499
C102	C	1.869151	0.666574	0.183835
C103	C	1.204354	-0.000096	-0.389387
C104	C	1.537687	0.333238	-0.056054
C105	C	1.871020	0.666571	0.277280
C106	C	1.118937	-0.000086	-0.338890
C107	C	1.452270	0.333248	-0.005557
C108	C	1.785604	0.666581	0.327776
C109	C	1.113215	-0.000085	0.374767
C110	C	1.446549	0.333248	0.708100
C111	C	1.779882	0.666582	1.041433
C112	C	1.115198	-0.000079	0.474220
C113	C	1.448532	0.333254	0.807553
C114	C	1.781865	0.666587	1.140886
H115	H	0.617475	-0.000100	0.106282
H116	H	0.950808	0.333233	0.439615
H117	H	1.284141	0.666566	0.772949
H118	H	0.622422	-0.000081	0.317265
H119	H	0.955755	0.333252	0.650598
H120	H	1.289089	0.666586	0.983932
H121	H	1.203933	-0.481746	0.138949
H122	H	1.537266	-0.148413	0.472282
H123	H	1.870599	0.184921	0.805616
C124	C	1.023999	-0.639223	0.295004
C125	C	1.357332	-0.305890	0.628337
C126	C	1.690665	0.027443	0.961670
C127	C	1.016742	-0.533768	0.301285
C128	C	1.350075	-0.200435	0.634618
C129	C	1.683409	0.132898	0.967952
H130	H	0.978190	-0.675723	0.334749
H131	H	1.311523	-0.342390	0.668082
H132	H	1.644856	-0.009056	1.001415
H133	H	1.012467	-0.656741	0.235415
H134	H	1.345800	-0.323408	0.568748
H135	H	1.679133	0.009925	0.902082
H136	H	1.086260	-0.656725	0.310603
H137	H	1.419593	-0.323391	0.643936
H138	H	1.752926	0.009942	0.977269
H139	H	0.954483	-0.516266	0.285679
H140	H	1.287816	-0.182932	0.619013
H141	H	1.621150	0.150401	0.952346
H142	H	1.028267	-0.516243	0.360887
H143	H	1.361600	-0.182910	0.694220
H144	H	1.694934	0.150424	1.027553
C145	C	1.380626	-0.000114	-0.118028
C146	C	1.713959	0.333220	0.215305
C147	C	2.047293	0.666553	0.548638
C148	C	1.306054	-0.000116	-0.053966
C149	C	1.639388	0.333217	0.279367
C150	C	1.972721	0.666551	0.612700
H151	H	1.439858	-0.000107	-0.088887
H152	H	1.773191	0.333226	0.244447
H153	H	2.106524	0.666560	0.577780
H154	H	1.372672	-0.059542	-0.151167
H155	H	1.706005	0.273791	0.182167
H156	H	2.039338	0.607124	0.515500
H157	H	1.379930	0.059323	-0.157469
H158	H	1.713263	0.392656	0.175865
H159	H	2.046596	0.725989	0.509198
H160	H	1.306746	-0.059556	-0.014530
H161	H	1.640079	0.273777	0.318804
H162	H	1.973413	0.607110	0.652137
H163	H	1.314011	0.059319	-0.020813
H164	H	1.647344	0.392652	0.312520
H165	H	1.980678	0.725985	0.645854
H166	H	0.967869	-0.000072	-0.052505
H167	H	1.301202	0.333262	0.280828
H168	H	1.634535	0.666595	0.614162
C169	C	1.311703	0.087513	-0.308709
C170	C	1.645036	0.420846	0.024624
C171	C	1.978369	0.754180	0.357958
C172	C	1.302133	-0.000106	-0.250118
C173	C	1.635467	0.333228	0.083215
C174	C	1.968800	0.666561	0.416548
H175	H	1.369673	0.087513	-0.342966
H176	H	1.703006	0.420846	-0.009633
H177	H	2.036340	0.754180	0.323700
H178	H	1.259466	0.087515	-0.347661
H179	H	1.592800	0.420849	-0.014328
H180	H	1.926133	0.754182	0.319006
H181	H	1.312475	0.146933	-0.275231
H182	H	1.645808	0.480267	0.058103
H183	H	1.979141	0.813600	0.391436
H184	H	1.301354	-0.059526	-0.283597
H185	H	1.634688	0.273807	0.049736
H186	H	1.968021	0.607140	0.383069
H187	H	1.354383	-0.000118	-0.211162
H188	H	1.687717	0.333216	0.122172
H189	H	2.021050	0.666549	0.455505
C190	C	1.276312	-0.000068	-0.629426
C191	C	1.609645	0.333265	-0.296092
C192	C	1.942979	0.666599	0.037241
C193	C	1.296378	-0.000087	-0.538336
C194	C	1.629712	0.333246	-0.205002
C195	C	1.963045	0.666580	0.128331
H196	H	1.334277	-0.000059	-0.663692
H197	H	1.667611	0.333274	-0.330359
H198	H	2.000944	0.666607	0.002975
H199	H	1.236900	-0.059492	-0.640042
H200	H	1.570233	0.273841	-0.306709
H201	H	1.903566	0.607174	0.026624
H202	H	1.244163	0.059373	-0.646321
H203	H	1.577496	0.392706	-0.312988
H204	H	1.910830	0.726039	0.020345
H205	H	1.328521	-0.059532	-0.521438
H206	H	1.661855	0.273802	-0.188105
H207	H	1.995188	0.607135	0.145228
H208	H	1.335806	0.059343	-0.527714
H209	H	1.669140	0.392677	-0.194381
H210	H	2.002473	0.726010	0.138953
H211	H	1.275424	-0.000113	-0.354421
H212	H	1.608757	0.333221	-0.021087
H213	H	1.942090	0.666554	0.312246
H214	H	0.958717	-0.000077	-0.510249
H215	H	1.292051	0.333256	-0.176916
H216	H	1.625384	0.666589	0.156417
C217	C	0.860763	-0.000058	-0.383753
C218	C	1.194097	0.333275	-0.050419
C219	C	1.527430	0.666609	0.282914
C220	C	0.937767	-0.000063	-0.326325
C221	C	1.271101	0.333271	0.007009
C222	C	1.604434	0.666604	0.340342
H223	H	0.802801	-0.000061	-0.349482
H224	H	1.136135	0.333272	-0.016148
H225	H	1.469468	0.666605	0.317185
H226	H	0.867262	0.059372	-0.423501
H227	H	1.200595	0.392705	-0.090168
H228	H	1.533928	0.726038	0.243165
H229	H	0.859996	-0.059493	-0.417212
H230	H	1.193329	0.273840	-0.083878
H231	H	1.526663	0.607173	0.249455
H232	H	0.938539	0.059377	-0.292870
H233	H	1.271872	0.392710	0.040463
H234	H	1.605205	0.726044	0.373796
H235	H	0.931267	-0.059498	-0.286560
H236	H	1.264600	0.273835	0.046773
H237	H	1.597934	0.607169	0.380106
H238	H	0.964485	-0.000060	-0.222040
H239	H	1.297818	0.333273	0.111293
H240	H	1.631152	0.666607	0.444627
