data_functionalizedCrystal
_audit_creation_method	'MofGen! by Chris Wilmer'
_symmetry_space_group_name_H-M	'P1'
_symmetry_Int_Tables_number	1
_symmetry_cell_setting	triclinic
loop_
_symmetry_equiv_pos_as_xyz
  x,y,z
_cell_length_a	23.196402
_cell_length_b	23.196402
_cell_length_c	23.196401
_cell_angle_alpha	90.011712
_cell_angle_beta	60.007332
_cell_angle_gamma	60.004007
loop_
_atom_site_label
_atom_site_type_symbol
_atom_site_fract_x
_atom_site_fract_y
_atom_site_fract_z
Zr1	Zr	0.630986	0.555407	-0.075650
O2	O	0.751247	0.463347	-0.167694
O3	O	0.510725	0.583620	-0.047437
O4	O	0.630988	0.583604	-0.167703
O5	O	0.630983	0.463387	0.047443
O6	O	0.630989	0.678474	-0.167706
O7	O	0.630984	0.463364	-0.047428
O8	O	0.415861	0.678503	0.047428
O9	O	0.846111	0.463357	-0.167691
O10	O	0.560191	0.666463	-0.035403
O11	O	0.560189	0.595680	0.035401
O12	O	0.701783	0.595660	-0.106197
O13	O	0.701781	0.524877	-0.035393
Zr14	Zr	0.630986	0.706750	0.075653
Zr15	Zr	0.630988	0.706714	-0.075655
Zr16	Zr	0.630984	0.555444	0.075659
Zr17	Zr	0.782283	0.555423	-0.075645
Zr18	Zr	0.479689	0.706735	0.075648
O19	O	0.751247	0.678537	0.047440
O20	O	0.751251	0.678486	-0.167702
O21	O	0.751244	0.463399	0.047448
O22	O	0.510725	0.798810	0.167697
O23	O	0.510728	0.798759	-0.047444
O24	O	0.510722	0.583672	0.167705
O25	O	0.630989	0.798771	-0.047440
O26	O	0.630984	0.678554	0.167706
O27	O	0.630983	0.583684	0.167709
O28	O	0.630988	0.798794	0.047431
O29	O	0.846113	0.583625	-0.167695
O30	O	0.415859	0.678532	0.167698
O31	O	0.415861	0.798801	0.167694
O32	O	0.415863	0.798772	0.047423
O33	O	0.846109	0.463386	-0.047420
O34	O	0.846111	0.583654	-0.047424
O35	O	0.560189	0.666497	0.106200
O36	O	0.560191	0.737281	0.035396
O37	O	0.701783	0.666478	-0.035398
O38	O	0.701781	0.595694	0.035406
C39	C	0.441736	0.631060	-0.000005
C40	C	0.377507	0.631053	-0.000008
C41	C	0.295078	0.683331	0.052251
C42	C	0.234718	0.683336	0.052257
C43	C	0.256791	0.631068	-0.000006
C44	C	0.339233	0.578781	-0.052269
C45	C	0.399591	0.578774	-0.052270
C46	C	0.201204	0.614780	-0.063797
C47	C	0.140845	0.614792	-0.063796
C48	C	0.070629	0.631087	-0.000003
C49	C	0.060770	0.647385	0.063794
C50	C	0.121127	0.647378	0.063793
C51	C	0.191349	0.631070	-0.000010
C52	C	-0.077253	0.683373	0.052267
C53	C	-0.137612	0.683373	0.052274
C54	C	-0.033094	0.578821	-0.052258
C55	C	0.027263	0.578819	-0.052259
C56	C	0.005178	0.631098	0.000003
C57	C	0.630983	0.441817	0.000008
C58	C	0.630982	0.377584	0.000010
C59	C	0.557075	0.384367	0.036957
C60	C	0.557074	0.324013	0.036960
C61	C	0.630984	0.256875	0.000003
C62	C	0.704901	0.250095	-0.036946
C63	C	0.704900	0.310449	-0.036942
C64	C	0.687610	0.132937	-0.061906
C65	C	0.687608	0.072586	-0.061912
C66	C	0.630990	0.070722	-0.000008
C67	C	0.574361	0.129223	0.061901
C68	C	0.574360	0.189577	0.061905
C69	C	0.630994	0.191427	-0.000005
C70	C	0.557077	0.012064	0.036945
C71	C	0.557079	-0.048293	0.036950
C72	C	0.704908	-0.122211	-0.036963
C73	C	0.704904	-0.061854	-0.036961
C74	C	0.630986	0.005281	-0.000009
C75	C	0.820236	0.631098	0.000009
C76	C	0.884466	0.631104	0.000011
C77	C	0.630989	0.631034	-0.189263
C78	C	0.630990	0.631018	-0.253497
C79	C	0.630989	0.820340	-0.000005
C80	C	0.630990	0.884574	-0.000007
C81	C	0.704897	0.594063	-0.320624
C82	C	0.704898	0.594081	-0.380979
C83	C	0.630988	0.631044	-0.374204
C84	C	0.557071	0.668008	-0.307065
C85	C	0.557072	0.667994	-0.246712
C86	C	0.574362	0.625789	-0.441523
C87	C	0.574364	0.625797	-0.501876
C88	C	0.630982	0.631089	-0.560351
C89	C	0.687611	0.636359	-0.558472
C90	C	0.687612	0.636346	-0.498119
C91	C	0.630979	0.631063	-0.439642
C92	C	0.704895	0.594152	-0.692925
C93	C	0.704893	0.594175	-0.753280
C94	C	0.557064	0.668096	-0.679363
C95	C	0.557068	0.668078	-0.619010
C96	C	0.630986	0.631102	-0.625796
C97	C	0.630983	0.631124	0.189266
C98	C	0.630982	0.631139	0.253501
C99	C	0.441739	0.820321	-0.000012
C100	C	0.377511	0.884548	-0.000017
C101	C	0.441733	0.631105	0.189259
C102	C	0.377503	0.631114	0.253491
C103	C	0.441736	0.820366	0.189252
C104	C	0.377507	0.884609	0.253482
C105	C	0.820236	0.441791	-0.189249
C106	C	0.884466	0.377549	-0.253479
C107	C	0.820233	0.441836	0.000015
C108	C	0.884462	0.377609	0.000020
C109	C	0.820239	0.631053	-0.189256
C110	C	0.884470	0.631044	-0.253488
C111	C	0.347348	0.877744	-0.036982
C112	C	0.287007	0.938087	-0.037000
C113	C	0.256825	1.005232	-0.000049
C114	C	0.286993	1.012035	0.036917
C115	C	0.347338	0.951693	0.036931
C116	C	0.347339	0.668084	0.320618
C117	C	0.286996	0.668090	0.380977
C118	C	0.256814	0.631129	0.374207
C119	C	0.286983	0.594154	0.307073
C120	C	0.347329	0.594145	0.246716
C121	C	0.347345	0.951732	0.246686
C122	C	0.287003	1.012101	0.307032
C123	C	0.256819	1.005344	0.374172
C124	C	0.286987	0.938214	0.380966
C125	C	0.347332	0.877847	0.320622
C126	C	0.914635	0.310425	-0.246683
C127	C	0.974996	0.250057	-0.307028
C128	C	1.005182	0.256813	-0.374169
C129	C	0.975011	0.323944	-0.380963
C130	C	0.914655	0.384311	-0.320619
C131	C	0.914630	0.384414	0.036978
C132	C	0.974988	0.324071	0.036980
C133	C	1.005172	0.256925	0.000027
C134	C	0.975001	0.250122	-0.036936
C135	C	0.914648	0.310464	-0.036941
C136	C	0.914633	0.668012	-0.246696
C137	C	0.974977	0.668017	-0.307043
C138	C	1.005160	0.631050	-0.374182
C139	C	0.974990	0.594081	-0.380972
C140	C	0.914643	0.594080	-0.320626
H141	H	-0.015120	0.536263	-0.094811
H142	H	0.765088	-0.176874	-0.067055
H143	H	0.765088	-0.067380	-0.067052
O144	O	0.477353	0.331325	0.076807
H145	H	0.489774	0.278077	0.070596
O146	O	0.110493	0.664951	0.132601
H147	H	0.110959	0.712018	0.139602
H148	H	0.262439	0.698201	0.435634
O149	O	-0.014954	0.664957	0.132608
H150	H	-0.055265	0.662215	0.121894
O151	O	0.882086	0.303122	-0.174274
H152	H	0.835040	0.356372	-0.133446
H153	H	0.733717	0.024958	-0.112323
H154	H	0.262410	1.066713	0.067001
O155	O	-0.101055	0.739751	0.108632
H156	H	-0.137692	0.737188	0.161331
H157	H	0.890087	0.304914	-0.067035
O158	O	0.513274	0.620115	-0.378432
H159	H	0.546070	0.572169	-0.367330
O160	O	0.379730	0.554340	0.174339
H161	H	0.407195	0.497535	0.168163
O162	O	1.007513	0.707890	-0.299711
H163	H	0.976393	0.733583	-0.242886
H164	H	0.890067	0.698115	-0.192033
H165	H	0.262451	0.932534	-0.067102
H166	H	0.496893	0.698104	-0.301552
O167	O	0.513291	0.127217	0.128671
H168	H	0.450619	0.170131	0.146171
O169	O	0.477358	0.084479	0.076802
H170	H	0.441919	0.090630	0.133605
O171	O	1.070263	0.191840	0.000037
H172	H	1.047095	0.159976	0.023162
O173	O	0.379846	0.805449	0.327955
H174	H	0.348705	0.810900	0.384781
O175	O	0.276939	0.597205	-0.132605
H176	H	0.259440	0.635687	-0.159241
H177	H	0.207676	0.631142	0.423360
H178	H	0.999586	0.195444	-0.067022
H179	H	0.496885	0.439027	0.067042
H180	H	0.999574	0.563984	-0.435645
O181	O	1.070258	0.631043	-0.439268
H182	H	1.086165	0.662954	-0.423259
H183	H	0.890091	0.563973	-0.326166
H184	H	0.262399	0.564062	0.301572
O185	O	0.379903	0.959028	0.174274
H186	H	0.348793	1.015850	0.179698
H187	H	0.371907	0.698182	0.326143
H188	H	0.262446	1.066756	0.301487
H189	H	0.207688	1.054361	-0.000066
O190	O	0.379857	0.959036	0.076814
H191	H	0.348719	1.015865	0.102511
H192	H	0.733728	0.134441	-0.112316
H193	H	0.277089	0.725900	0.094808
O194	O	0.151476	0.597216	-0.132601
H195	H	0.207362	0.543109	-0.167132
O196	O	0.116174	0.522444	-0.108635
H197	H	0.121386	0.486104	-0.144983
H198	H	0.167592	0.725907	0.094815
O199	O	0.191723	1.070457	0.439256
H200	H	0.175818	1.118265	0.423244
O201	O	1.007566	0.331228	-0.453380
H202	H	1.054595	0.277970	-0.494193
O203	O	0.254421	0.930936	0.453386
H204	H	0.285531	0.874120	0.447983
O205	O	1.007517	0.177657	-0.299693
H206	H	0.976368	0.183106	-0.242867
H207	H	1.054327	0.207653	-0.423299
H208	H	-0.204733	0.725943	0.094834
O209	O	0.784616	0.554275	-0.700235
H210	H	0.788150	0.591576	-0.674481
O211	O	0.363041	0.522407	-0.108638
H212	H	0.430504	0.486049	-0.144975
O213	O	0.488504	0.522395	-0.108645
H214	H	0.493717	0.486052	-0.144990
O215	O	0.513289	0.252674	0.128672
H216	H	0.521663	0.236915	0.170533
O217	O	0.477361	-0.040980	0.076796
H218	H	0.425965	0.015844	0.102482
H219	H	0.890092	0.438964	-0.326160
H220	H	0.890059	0.439082	0.067075
O221	O	0.784619	0.177684	-0.076815
H222	H	0.788154	0.148418	-0.039509
O223	O	0.784607	0.303155	-0.076807
H224	H	0.820072	0.273859	-0.055465
O225	O	0.784619	0.554186	-0.327939
H226	H	0.836012	0.528495	-0.384761
H227	H	0.999544	0.329624	0.067083
H228	H	0.765085	0.563986	-0.435644
O229	O	0.748675	0.642046	-0.496085
H230	H	0.811351	0.596888	-0.539012
O231	O	0.748686	0.642069	-0.621533
H232	H	0.715873	0.690034	-0.632603
O233	O	0.784611	0.554315	-0.825687
H234	H	0.836007	0.528597	-0.820261
H235	H	0.496884	0.698194	-0.673845
H236	H	0.496884	0.698168	-0.564351
O237	O	0.513193	0.620243	-0.503856
H238	H	0.473777	0.616623	-0.453034
O239	O	0.477363	0.707853	-0.174298
H240	H	0.441912	0.686502	-0.168162
O241	O	0.379903	0.805326	-0.076846
H242	H	0.348792	0.810744	-0.102558
