data_functionalizedCrystal
_audit_creation_method	'MofGen! by Chris Wilmer'
_symmetry_space_group_name_H-M	'P1'
_symmetry_Int_Tables_number	1
_symmetry_cell_setting	triclinic
loop_
_symmetry_equiv_pos_as_xyz
  x,y,z
_cell_length_a	10.654550
_cell_length_b	13.330367
_cell_length_c	10.654550
_cell_angle_alpha	89.995540
_cell_angle_beta	95.515069
_cell_angle_gamma	90.004309
loop_
_atom_site_label
_atom_site_type_symbol
_atom_site_fract_x
_atom_site_fract_y
_atom_site_fract_z
O1	O	1.667847	0.083348	-0.176398
O2	O	1.302368	0.083367	-0.193204
O3	O	1.493511	0.083351	-0.002062
O4	O	1.476705	0.083364	-0.367541
O5	O	1.493483	-0.083496	-0.002058
O6	O	1.302340	-0.083480	-0.193200
O7	O	1.667819	-0.083499	-0.176394
Cu8	Cu	1.485077	-0.098724	-0.184796
Cu9	Cu	1.485110	0.098592	-0.184802
O10	O	1.476677	-0.083483	-0.367536
C11	C	1.255556	-0.000055	-0.191968
C12	C	1.116113	-0.000048	-0.188276
N13	N	1.485063	-0.237506	-0.184792
C14	C	1.036628	-0.000046	-0.300818
C15	C	0.905607	-0.000064	-0.297341
C16	C	0.933570	-0.000080	-0.068772
C17	C	1.064588	-0.000069	-0.072250
C18	C	1.400468	-0.710121	-0.269406
C19	C	1.569786	-0.710103	-0.100188
C20	C	1.569771	-0.605085	-0.100184
C21	C	1.485106	-0.552580	-0.184793
C22	C	1.400454	-0.605093	-0.269407
C23	C	1.654430	-0.552564	-0.015581
C24	C	1.654420	-0.447539	-0.015574
C25	C	1.569747	-0.395032	-0.100179
C26	C	1.485091	-0.447552	-0.184795
C27	C	1.400426	-0.395047	-0.269404
C28	C	1.315763	-0.447565	-0.354015
C29	C	1.315781	-0.552586	-0.354012
C30	C	1.569729	-0.290011	-0.100182
C31	C	1.400411	-0.290019	-0.269405
C32	C	1.714631	-0.000075	-0.177630
C33	C	1.854074	-0.000076	-0.181322
C34	C	1.492263	-0.000072	0.044738
C35	C	1.488571	-0.000070	0.184181
N36	N	1.485134	0.237374	-0.184796
C37	C	1.477925	-0.000058	-0.414336
C38	C	1.481616	-0.000053	-0.553779
C39	C	1.601112	-0.000076	0.263667
C40	C	1.597636	-0.000063	0.394688
C41	C	1.369066	-0.000045	0.366725
C42	C	1.372544	-0.000050	0.235706
H43	H	1.078574	-0.000036	-0.395294
H44	H	1.246832	-0.404803	-0.422911
O45	O	0.883454	0.000086	0.043899
C46	C	0.808479	0.086480	0.052734
H47	H	0.840031	0.146883	-0.013167
H48	H	0.819357	0.115481	0.153849
H49	H	0.705427	0.066940	0.024664
H50	H	1.246853	-0.595353	-0.422900
H51	H	1.280893	-0.000042	0.170985
O52	O	0.828575	-0.000015	-0.406782
C53	C	0.902154	-0.000020	-0.509928
H54	H	0.999644	0.031575	-0.478899
H55	H	0.854519	0.048423	-0.588850
H56	H	0.911796	-0.080061	-0.545442
O57	O	1.141630	-0.000025	0.037198
C58	C	1.068061	-0.000063	0.140352
H59	H	0.970566	0.031522	0.109335
H60	H	1.115700	0.048373	0.219275
H61	H	1.058428	-0.080112	0.175859
O62	O	1.706926	0.000108	0.471950
C63	C	1.711762	0.086513	0.548577
H64	H	1.647970	0.146912	0.501150
H65	H	1.812807	0.115509	0.562418
H66	H	1.678424	0.066987	0.644123
H67	H	1.331461	-0.247275	-0.338301
H68	H	1.331533	-0.752884	-0.338292
O69	O	1.651960	-0.760998	-0.017826
C70	C	1.630427	-0.735370	0.106688
H71	H	1.582020	-0.659119	0.106982
H72	H	1.724282	-0.731779	0.167678
H73	H	1.567569	-0.794486	0.146091
H74	H	1.695588	-0.000090	0.221720
O75	O	1.736598	-0.603463	0.066783
C76	C	1.715068	-0.577827	0.191296
H77	H	1.666678	-0.501570	0.191585
H78	H	1.808923	-0.574246	0.252287
H79	H	1.652197	-0.636933	0.230701
O80	O	1.736357	-0.396523	0.066905
C81	C	1.668199	-0.335965	0.145012
H82	H	1.570477	-0.320142	0.095689
H83	H	1.720418	-0.262146	0.164772
H84	H	1.658589	-0.376635	0.237733
O85	O	1.256472	-0.000078	0.416987
C86	C	1.277531	-0.000053	0.549672
H87	H	1.375267	-0.031646	0.579586
H88	H	1.203215	-0.048489	0.590541
H89	H	1.271141	0.079993	0.586182
O90	O	1.651801	-0.238873	-0.017976
C91	C	1.583896	-0.178144	0.060163
H92	H	1.486037	-0.162434	0.011088
H93	H	1.636132	-0.104280	0.079499
H94	H	1.574607	-0.218608	0.153087
