data_functionalizedCrystal
_audit_creation_method	'MofGen! by Chris Wilmer'
_symmetry_space_group_name_H-M	'P1'
_symmetry_Int_Tables_number	1
_symmetry_cell_setting	triclinic
loop_
_symmetry_equiv_pos_as_xyz
  x,y,z
_cell_length_a	14.971506
_cell_length_b	13.262508
_cell_length_c	14.048226
_cell_angle_alpha	105.911903
_cell_angle_beta	89.993237
_cell_angle_gamma	84.044748
loop_
_atom_site_label
_atom_site_type_symbol
_atom_site_fract_x
_atom_site_fract_y
_atom_site_fract_z
O1	O	1.187318	0.136879	-0.043726
O2	O	0.926965	0.153237	-0.039491
O3	O	1.063695	-0.007720	-0.081160
O4	O	1.050588	0.297836	-0.002056
O5	O	1.063678	-0.007729	0.077159
O6	O	0.926949	0.153227	0.118828
O7	O	1.187301	0.136870	0.114593
Zn8	Zn	1.057122	0.145047	0.141847
Zn9	Zn	1.057144	0.145060	-0.066745
O10	O	1.050572	0.297827	0.156263
C11	C	0.893631	0.152497	0.039478
C12	C	0.794328	0.150293	0.038908
C13	C	0.356286	0.236443	0.061201
C14	C	0.449592	0.238505	0.061731
C15	C	0.506548	0.143937	0.037253
C16	C	0.470194	0.047300	0.012233
C17	C	0.376890	0.045239	0.011697
C18	C	0.664669	0.051603	0.013355
C19	C	0.757980	0.053664	0.013893
C20	C	0.737371	0.244869	0.063389
C21	C	0.644067	0.242808	0.062853
C22	C	0.607720	0.146171	0.037835
C23	C	1.062953	-0.046828	-0.012126
C24	C	1.060758	-0.163345	-0.042297
C25	C	1.054528	-0.491820	0.217867
C26	C	1.056584	-0.382346	0.246215
C27	C	1.057628	-0.327590	0.174089
C28	C	1.056615	-0.382320	0.073611
C29	C	1.054552	-0.491803	0.045261
C30	C	1.057651	-0.327574	0.001483
C31	C	1.056639	-0.382303	-0.098995
C32	C	1.054576	-0.491776	-0.127341
C33	C	1.053532	-0.546532	-0.055215
C34	C	1.059715	-0.218090	0.029834
C35	C	1.059738	-0.218073	-0.142773
C36	C	1.057683	-0.327548	-0.171121
C37	C	1.220636	0.137610	0.035622
C38	C	1.319938	0.139814	0.036187
C39	C	1.051313	0.336935	0.087227
C40	C	1.053509	0.453452	0.117391
N41	N	1.057114	0.145038	0.284206
N42	N	1.057159	0.145061	-0.209105
C43	C	1.117677	0.073796	0.315580
C44	C	1.117683	0.073795	0.415238
C45	C	1.057130	0.145043	0.483520
C46	C	0.996560	0.216288	0.452140
C47	C	0.996551	0.216283	0.352483
C48	C	0.996586	0.216296	0.659856
C49	C	0.996597	0.216303	0.759520
C50	C	1.117718	0.073808	0.722611
C51	C	1.117709	0.073803	0.622954
C52	C	1.057140	0.145050	0.591581
H53	H	0.309918	0.313452	0.081141
O54	O	1.060593	-0.164782	-0.212767
C55	C	0.984379	-0.089722	-0.198477
H56	H	0.958925	-0.069386	-0.118269
H57	H	0.929396	-0.123697	-0.249813
C58	C	1.041048	-0.014281	-0.320385
C59	C	1.009790	0.010703	-0.221868
H60	H	1.056720	0.047664	-0.334817
H61	H	1.092394	-0.064852	-0.330015
H62	H	0.995224	-0.042596	-0.363153
H63	H	1.055618	0.039004	-0.179102
H64	H	0.958452	0.061282	-0.212232
O65	O	1.053707	-0.545083	-0.224915
C66	C	1.129901	-0.620171	-0.249517
H67	H	1.155374	-0.640496	-0.179844
H68	H	1.184883	-0.586230	-0.283318
C69	C	1.073164	-0.695625	-0.410425
C70	C	1.104446	-0.720595	-0.324851
H71	H	1.057465	-0.757570	-0.456898
H72	H	1.021832	-0.645034	-0.393852
H73	H	1.118988	-0.667339	-0.438580
H74	H	1.058619	-0.748868	-0.296692
H75	H	1.155769	-0.771193	-0.341421
H76	H	0.516576	-0.029699	-0.007703
O77	O	0.772526	0.338835	0.087752
C78	C	0.702247	0.421860	0.109224
H79	H	0.638755	0.392361	0.131562
H80	H	0.689163	0.451041	0.040824
C81	C	0.806905	0.549216	0.167466
C82	C	0.728924	0.512986	0.194910
H83	H	0.823361	0.605429	0.220318
H84	H	0.854254	0.493281	0.152997
H85	H	0.795991	0.573525	0.110465
H86	H	0.739842	0.488665	0.251902
H87	H	0.681578	0.568919	0.209391
O88	O	1.056526	-0.380749	-0.268700
C89	C	0.977970	-0.432312	-0.287186
H90	H	0.924511	-0.391075	-0.227538
H91	H	0.993896	-0.517944	-0.286154
C92	C	1.008518	-0.479315	-0.462609
C93	C	0.942856	-0.428661	-0.389353
H94	H	0.986860	-0.477068	-0.525632
H95	H	1.061445	-0.444579	-0.450155
H96	H	1.021784	-0.550670	-0.461736
H97	H	0.929600	-0.357305	-0.390219
H98	H	0.889926	-0.463385	-0.401810
H99	H	1.166990	0.015782	0.259990
O100	O	0.341473	-0.048562	-0.012456
C101	C	0.288123	-0.055491	0.067754
H102	H	0.265197	0.027202	0.116498
H103	H	0.329156	-0.101878	0.113165
C104	C	0.233546	-0.213671	-0.031684
C105	C	0.205381	-0.112105	0.028180
H106	H	0.182509	-0.248597	-0.056093
H107	H	0.269491	-0.209006	-0.085722
H108	H	0.267741	-0.252313	0.006168
H109	H	0.171197	-0.073461	-0.009675
H110	H	0.169428	-0.116765	0.082211
H111	H	1.167035	0.015796	0.748160
O112	O	1.060576	-0.165027	0.127465
C113	C	0.982679	-0.179984	0.176076
H114	H	0.955393	-0.255543	0.131967
H115	H	0.929661	-0.110119	0.182196
C116	C	1.039577	-0.095831	0.334665
C117	C	1.006069	-0.188638	0.280495
H118	H	1.054003	-0.101164	0.399077
H119	H	1.092057	-0.085750	0.301916
H120	H	0.995390	-0.037619	0.339755
H121	H	1.050260	-0.246846	0.275395
H122	H	0.953597	-0.198729	0.313246
H123	H	0.947252	0.274296	0.507741
O124	O	1.057461	-0.329291	0.343847
C125	C	0.979572	-0.344246	0.392476
H126	H	0.952274	-0.419797	0.348368
H127	H	0.926558	-0.274373	0.398618
C128	C	1.036511	-0.260122	0.551052
C129	C	1.002986	-0.352919	0.496883
H130	H	1.050951	-0.265467	0.615457
H131	H	1.088984	-0.250042	0.518291
H132	H	0.992326	-0.201903	0.556161
H133	H	1.047174	-0.411133	0.491765
H134	H	0.950520	-0.363009	0.529646
H135	H	1.167020	0.015793	0.567358
O136	O	1.176610	0.004563	0.445560
C137	C	1.230047	-0.058330	0.363920
H138	H	1.231194	-0.015299	0.304015
H139	H	1.200736	-0.136370	0.333137
C140	C	1.325052	-0.132588	0.470820
C141	C	1.326468	-0.079733	0.397248
H142	H	1.384529	-0.145795	0.491378
H143	H	1.289050	-0.090219	0.525823
H144	H	1.300623	-0.197616	0.445158
H145	H	1.350887	-0.014701	0.422915
H146	H	1.362477	-0.122091	0.342250
O147	O	0.484752	0.332462	0.086100
C148	C	0.414474	0.415487	0.107574
H149	H	0.350981	0.385987	0.129909
H150	H	0.401390	0.444670	0.039175
C151	C	0.519131	0.542842	0.165821
C152	C	0.441150	0.506611	0.193262
H153	H	0.535586	0.599054	0.218675
H154	H	0.566480	0.486907	0.151351
H155	H	0.508218	0.567154	0.108821
H156	H	0.452067	0.482288	0.250254
H157	H	0.393803	0.562544	0.207744
O158	O	0.937677	0.285535	0.825711
C159	C	0.884221	0.348425	0.776654
H160	H	0.883057	0.305394	0.694477
H161	H	0.913524	0.426468	0.786252
C162	C	0.789245	0.422676	0.922043
C163	C	0.787809	0.369821	0.821112
H164	H	0.729774	0.435879	0.949469
H165	H	0.825261	0.380309	0.955095
H166	H	0.813668	0.487706	0.930028
H167	H	0.763396	0.304787	0.813130
H168	H	0.751786	0.412177	0.788060
H169	H	0.947262	0.274309	0.634316
H170	H	0.947233	0.274294	0.326940
H171	H	0.597695	0.319814	0.082791
H172	H	0.804352	-0.023342	-0.006047
H173	H	1.053672	-0.536411	0.276581
O174	O	0.629464	-0.042334	-0.011090
C175	C	0.658522	-0.099981	-0.108017
H176	H	0.723343	-0.071305	-0.127931
H177	H	0.604589	-0.087888	-0.162305
C178	C	0.595943	-0.253247	-0.089203
C179	C	0.675561	-0.218032	-0.113658
H180	H	0.606449	-0.326067	-0.092685
H181	H	0.576363	-0.214408	-0.023902
H182	H	0.551006	-0.243160	-0.134446
H183	H	0.720492	-0.228106	-0.068407
H184	H	0.695149	-0.256875	-0.178951
H185	H	1.059300	-0.238451	0.197177
H186	H	1.051863	-0.635676	-0.078291
