data_functionalizedCrystal
_audit_creation_method	'MofGen! by Chris Wilmer'
_symmetry_space_group_name_H-M	'P1'
_symmetry_Int_Tables_number	1
_symmetry_cell_setting	triclinic
loop_
_symmetry_equiv_pos_as_xyz
  x,y,z
_cell_length_a	21.395362
_cell_length_b	21.395361
_cell_length_c	21.395355
_cell_angle_alpha	89.978489
_cell_angle_beta	89.956060
_cell_angle_gamma	90.046585
loop_
_atom_site_label
_atom_site_type_symbol
_atom_site_fract_x
_atom_site_fract_y
_atom_site_fract_z
Zn1	Zn	-0.957859	0.249246	0.354573
Zn2	Zn	-0.457859	0.749246	0.854573
Zn3	Zn	-0.957762	0.354005	0.249790
Zn4	Zn	-0.457762	0.854005	0.749790
Zn5	Zn	-0.853074	0.249275	0.249774
Zn6	Zn	-0.353074	0.749275	0.749774
Zn7	Zn	-0.853044	0.354018	0.354494
Zn8	Zn	-0.353044	0.854018	0.854494
O9	O	-0.905435	0.301636	0.302158
O10	O	-0.405435	0.801636	0.802158
O11	O	-1.045524	0.263125	0.340712
O12	O	-0.545524	0.763125	0.840712
O13	O	-0.943847	0.340119	0.162110
O14	O	-0.443847	0.840119	0.662110
O15	O	-0.867028	0.161593	0.263702
O16	O	-0.367028	0.661593	0.763702
O17	O	-1.045453	0.340091	0.263729
O18	O	-0.545453	0.840091	0.763729
O19	O	-0.944013	0.161572	0.340697
O20	O	-0.444013	0.661572	0.840697
O21	O	-0.866934	0.263174	0.162098
O22	O	-0.366934	0.763174	0.662098
O23	O	-0.765392	0.263187	0.263626
O24	O	-0.265392	0.763187	0.763626
O25	O	-0.866976	0.340113	0.442183
O26	O	-0.366976	0.840113	0.942183
O27	O	-0.765370	0.340141	0.340564
O28	O	-0.265370	0.840141	0.840564
O29	O	-0.943983	0.263137	0.442240
O30	O	-0.443983	0.763137	0.942240
O31	O	-0.943817	0.441685	0.263653
O32	O	-0.443817	0.941685	0.763653
O33	O	-0.866881	0.441695	0.340579
O34	O	-0.366881	0.941695	0.840579
C35	C	-0.742647	0.301669	0.302085
C36	C	-0.242647	0.801669	0.802085
C37	C	-0.673006	0.301698	0.302069
C38	C	-0.173006	0.801698	0.802069
C39	C	-0.905487	0.301623	0.465581
C40	C	-0.405487	0.801623	0.965581
C41	C	-0.905509	0.301618	0.535222
C42	C	-0.405509	0.801618	1.035222
C43	C	-0.905352	0.464424	0.302123
C44	C	-0.405352	0.964424	0.802123
C45	C	-0.905374	0.534065	0.302129
C46	C	-0.405374	1.034065	0.802129
C47	C	-1.068858	0.301603	0.302231
C48	C	-0.568858	0.801603	0.802231
C49	C	-1.138499	0.301589	0.302262
C50	C	-0.638499	0.801589	0.802262
C51	C	-0.640297	0.341822	0.342070
C52	C	-0.140297	0.841822	0.842070
C53	C	-0.574862	0.341806	0.342098
C54	C	-0.074862	0.841806	0.842098
C55	C	-0.542138	0.301674	0.302113
C56	C	-0.042138	0.801674	0.802113
C57	C	-0.574854	0.261543	0.262109
C58	C	-0.074854	0.761543	0.762109
C59	C	-0.640288	0.261555	0.262087
C60	C	-0.140288	0.761555	0.762087
C61	C	-0.438413	0.296627	0.245708
C62	C	0.061587	0.796627	0.745708
C63	C	-0.372980	0.296619	0.245730
C64	C	0.127020	0.796619	0.745730
C65	C	-0.340317	0.301633	0.302182
C66	C	0.159683	0.801633	0.802182
C67	C	-0.373095	0.306668	0.358616
C68	C	0.126905	0.806668	0.858616
C69	C	-0.438529	0.306681	0.358594
C70	C	0.061471	0.806681	0.858594
C71	C	-0.471185	0.301656	0.302133
C72	C	0.028815	0.801656	0.802133
C73	C	-0.236656	0.341742	0.342218
C74	C	0.263344	0.841742	0.842218
C75	C	-0.171219	0.341723	0.342247
C76	C	0.328781	0.841723	0.842247
C77	C	-0.171213	0.261462	0.262252
C78	C	0.328787	0.761462	0.762252
C79	C	-0.236648	0.261479	0.262229
C80	C	0.263352	0.761479	0.762229
C81	C	-0.269366	0.301622	0.302211
C82	C	0.230634	0.801622	0.802211
C83	C	-0.905535	0.138213	0.302206
C84	C	-0.405535	0.638213	0.802206
C85	C	-0.905578	0.068571	0.302227
C86	C	-0.405578	0.568571	0.802227
C87	C	-0.945470	0.566752	0.262114
C88	C	-0.445470	1.066752	0.762114
C89	C	-0.945499	0.632188	0.262128
C90	C	-0.445499	1.132188	0.762128
C91	C	-0.905421	0.664933	0.302150
C92	C	-0.405421	1.164933	0.802150
C93	C	-0.865322	0.632238	0.342172
C94	C	-0.365322	1.132238	0.842172
C95	C	-0.865299	0.566804	0.342162
C96	C	-0.365299	1.066804	0.842162
C97	C	-0.849006	0.768664	0.307041
C98	C	-0.349006	1.268664	0.807041
C99	C	-0.849029	0.834097	0.307047
C100	C	-0.349029	1.334097	0.807047
C101	C	-0.905494	0.866754	0.302187
C102	C	-0.405494	1.366754	0.802187
C103	C	-0.961939	0.833970	0.297307
C104	C	-0.461939	1.333970	0.797307
C105	C	-0.961915	0.768536	0.297296
C106	C	-0.461915	1.268536	0.797296
C107	C	-0.905443	0.735886	0.302167
C108	C	-0.405443	1.235886	0.802167
C109	C	-0.945625	0.970394	0.262186
C110	C	-0.445625	1.470394	0.762186
C111	C	-0.945655	1.035830	0.262204
C112	C	-0.445655	1.535830	0.762204
C113	C	-0.865473	1.035879	0.342245
C114	C	-0.365473	1.535879	0.842245
C115	C	-0.865448	0.970444	0.342230
C116	C	-0.365448	1.470444	0.842230
C117	C	-0.905524	0.937705	0.302197
C118	C	-0.405524	1.437705	0.802197
C119	C	-0.905419	0.301603	0.139370
C120	C	-0.405419	0.801603	0.639370
C121	C	-0.905518	0.301432	0.069729
C122	C	-0.405518	0.801432	0.569729
C123	C	-0.945605	0.261535	0.567966
C124	C	-0.445605	0.761535	1.067966
C125	C	-0.945604	0.261508	0.633402
C126	C	-0.445604	0.761508	1.133402
C127	C	-0.905514	0.301575	0.666091
C128	C	-0.405514	0.801575	1.166091
C129	C	-0.865410	0.341661	0.633339
C130	C	-0.365410	0.841661	1.133339
C131	C	-0.865407	0.341682	0.567904
C132	C	-0.365407	0.841682	1.067904
C133	C	-0.900538	0.357992	0.769752
C134	C	-0.400538	0.857992	1.269752
C135	C	-0.900545	0.357972	0.835185
C136	C	-0.400545	0.857972	1.335185
C137	C	-0.905518	0.301509	0.867911
C138	C	-0.405518	0.801509	1.367911
C139	C	-0.910497	0.245065	0.835197
C140	C	-0.410497	0.745065	1.335197
C141	C	-0.910495	0.245086	0.769763
C142	C	-0.410495	0.745086	1.269763
C143	C	-0.905512	0.301556	0.737043
C144	C	-0.405512	0.801556	1.237043
C145	C	-0.945615	0.261393	0.971608
C146	C	-0.445615	0.761393	1.471608
C147	C	-0.945610	0.261365	1.037045
C148	C	-0.445610	0.761365	1.537045
C149	C	-0.865419	0.341524	1.036980
C150	C	-0.365419	0.841524	1.536980
C151	C	-0.865421	0.341547	0.971545
C152	C	-0.365421	0.841547	1.471545
C153	C	-0.905522	0.301482	0.938863
C154	C	-0.405522	0.801482	1.438863
H155	H	-0.548226	0.374479	0.374674
H156	H	-0.048226	0.874479	0.874674
H157	H	-0.896321	0.403959	0.743111
H158	H	-0.396321	0.903959	1.243111
O159	O	-0.988841	0.218259	0.668726
O160	O	-0.488841	0.718259	1.168726
H161	H	-0.982097	0.224968	0.719717
H162	H	-0.482097	0.724968	1.219717
H163	H	-0.978153	0.658807	0.229544
H164	H	-0.478153	1.158807	0.729544
O165	O	-0.822171	0.384736	1.072229
O166	O	-0.322171	0.884736	1.572229
H167	H	-0.832880	0.433913	1.059673
H168	H	-0.332880	0.933913	1.559673
O169	O	-0.822166	0.384877	0.668590
O170	O	-0.322166	0.884877	1.168590
H171	H	-0.828907	0.378132	0.719592
H172	H	-0.328907	0.878132	1.219592
O173	O	-0.473636	0.291217	0.184814
O174	O	0.026364	0.791217	0.684814
H175	H	-0.524643	0.292064	0.194278
H176	H	-0.024643	0.792064	0.694278
O177	O	-0.915844	0.184157	0.870484
O178	O	-0.415844	0.684157	1.370484
H179	H	-0.914996	0.193621	0.921480
H180	H	-0.414996	0.693621	1.421480
O181	O	-1.022841	0.869192	0.292059
O182	O	-0.522841	1.369192	0.792059
H183	H	-1.046226	0.856636	0.247502
H184	H	-0.546226	1.356636	0.747502
H185	H	-0.978258	0.228910	0.541360
H186	H	-0.478258	0.728910	1.041360
O187	O	-0.988857	0.218177	0.936350
O188	O	-0.488857	0.718177	1.436350
H189	H	-1.016732	0.190291	0.970116
H190	H	-0.516732	0.690291	1.470116
O191	O	-0.822037	0.531548	0.385313
O192	O	-0.322037	1.031548	0.885313
H193	H	-0.832755	0.544068	0.434505
H194	H	-0.332755	1.044068	0.934505
H195	H	-0.978259	0.943737	0.229590
H196	H	-0.478259	1.443737	0.729590
H197	H	-0.263280	0.228809	0.229652
H198	H	0.236720	0.728809	0.729652
H199	H	-0.548206	0.228866	0.229554
H200	H	-0.048206	0.728866	0.729554
H201	H	-0.914547	0.199128	0.743130
H202	H	-0.414547	0.699128	1.243130
H203	H	-0.978103	0.540098	0.229519
H204	H	-0.478103	1.040098	0.729519
H205	H	-0.832774	0.374190	0.944885
H206	H	-0.332774	0.874190	1.444885
O207	O	-0.988853	0.218125	1.072367
O208	O	-0.488853	0.718125	1.572367
H209	H	-1.020706	0.246151	1.102209
H210	H	-0.520706	0.746151	1.602209
O211	O	-0.822197	0.935179	0.385382
O212	O	-0.322197	1.435179	0.885382
H213	H	-0.790330	0.905417	0.357289
H214	H	-0.290330	1.405417	0.857289
O215	O	-0.675573	0.218290	0.218929
O216	O	-0.175573	0.718290	0.718929
H217	H	-0.641828	0.190384	0.191124
H218	H	-0.141828	0.690384	0.691124
O219	O	-1.022789	0.733173	0.292042
O220	O	-0.522789	1.233173	0.792042
H221	H	-1.062060	0.766869	0.288669
H222	H	-0.562060	1.266869	0.788669
H223	H	-0.465214	0.310778	0.404543
H224	H	0.034786	0.810778	0.904543
H225	H	-0.978310	1.062443	0.229621
H226	H	-0.478310	1.562443	0.729621
H227	H	-0.896494	0.403932	0.861815
H228	H	-0.396494	0.903932	1.361815
H229	H	-0.832843	1.062540	0.374834
H230	H	-0.332843	1.562540	0.874834
H231	H	-0.832753	0.374322	0.541245
H232	H	-0.332753	0.874322	1.041245
H233	H	-0.144589	0.374395	0.374824
H234	H	0.355411	0.874395	0.874824
O235	O	-0.675587	0.385108	0.385200
O236	O	-0.175587	0.885108	0.885200
H237	H	-0.641845	0.413001	0.413025
H238	H	-0.141845	0.913001	0.913025
H239	H	-0.346502	0.310751	0.404585
H240	H	0.153498	0.810751	0.904585
H241	H	-0.803022	0.742081	0.311001
H242	H	-0.303022	1.242081	0.811001
O243	O	-0.788154	0.869456	0.312310
O244	O	-0.288154	1.369456	0.812310
H245	H	-0.748887	0.835756	0.315701
H246	H	-0.248887	1.335756	0.815701
O247	O	-0.822089	0.667556	0.385331
O248	O	-0.322089	1.167556	0.885331
H249	H	-0.850123	0.697326	0.417244
H250	H	-0.350123	1.197326	0.917244
O251	O	-0.271958	0.385020	0.385349
O252	O	0.228042	0.885020	0.885349
H253	H	-0.259342	0.434180	0.374531
H254	H	0.240658	0.934180	0.874531
O255	O	-0.135922	0.218182	0.219120
O256	O	0.364078	0.718182	0.719120
H257	H	-0.106168	0.186344	0.247230
H258	H	0.393832	0.686344	0.747230
O259	O	-0.337627	0.291185	0.184867
O260	O	0.162373	0.791185	0.684867
H261	H	-0.371331	0.287686	0.145609
H262	H	0.128669	0.787686	0.645609
