data_functionalizedCrystal
_audit_creation_method	'MofGen! by Chris Wilmer'
_symmetry_space_group_name_H-M	'P1'
_symmetry_Int_Tables_number	1
_symmetry_cell_setting	triclinic
loop_
_symmetry_equiv_pos_as_xyz
  x,y,z
_cell_length_a	10.723024
_cell_length_b	14.853567
_cell_length_c	9.198806
_cell_angle_alpha	90.000611
_cell_angle_beta	89.996352
_cell_angle_gamma	84.051400
loop_
_atom_site_label
_atom_site_type_symbol
_atom_site_fract_x
_atom_site_fract_y
_atom_site_fract_z
O1	O	1.655909	0.126445	-0.120870
O2	O	1.292634	0.138549	-0.120873
O3	O	1.483975	0.001318	-0.120876
O4	O	1.464568	0.263675	-0.120867
O5	O	1.483960	0.001318	0.120909
O6	O	1.292619	0.138548	0.120912
O7	O	1.655894	0.126445	0.120915
Cu8	Cu	1.474255	0.132497	0.142991
Cu9	Cu	1.474273	0.132497	-0.142948
O10	O	1.464553	0.263675	0.120918
C11	C	1.246136	0.137668	0.000019
C12	C	1.107608	0.135032	0.000017
C13	C	1.483088	-0.032275	0.000013
C14	C	1.480453	-0.132373	-0.000000
C15	C	1.031849	0.211819	0.000018
C16	C	0.888673	0.209097	0.000016
C17	C	1.355653	-0.545565	0.000026
C18	C	1.582971	-0.565646	0.000029
C19	C	1.585448	-0.471599	0.000020
C20	C	1.473027	-0.414531	0.000017
C21	C	1.358127	-0.451510	0.000022
C22	C	1.700345	-0.434614	0.000029
C23	C	1.702828	-0.340562	0.000022
C24	C	1.590405	-0.283491	0.000009
C25	C	1.475501	-0.320475	0.000013
C26	C	1.363079	-0.263407	0.000009
C27	C	1.248174	-0.300389	0.000003
C28	C	1.245704	-0.394440	0.000009
C29	C	1.592874	-0.189441	0.000003
C30	C	1.365554	-0.169351	0.000005
C31	C	1.702392	0.127326	0.000020
C32	C	1.840919	0.129961	0.000013
C33	C	1.465439	0.297269	0.000026
C34	C	1.468075	0.397366	0.000030
N35	N	1.474251	0.132496	0.344104
N36	N	1.474286	0.132491	-0.344062
C37	C	1.554592	0.074623	0.416300
C38	C	1.554612	0.074619	0.583713
H39	H	0.823575	0.274833	0.000012
C40	C	1.770359	0.022706	0.630806
C41	C	1.647471	0.007726	0.667514
H42	H	1.827686	-0.018591	0.682551
H43	H	1.782519	0.013929	0.529309
H44	H	1.784219	0.082936	0.655688
H45	H	1.633609	-0.052502	0.642622
H46	H	1.635306	0.016495	0.769034
H47	H	1.791873	-0.481085	0.000045
H48	H	0.906010	0.064222	0.000002
H49	H	1.405478	0.182038	0.406233
H50	H	1.274005	-0.122892	-0.000004
C51	C	1.149517	-0.026921	0.000016
C52	C	1.052091	0.043559	0.000015
H53	H	1.115242	-0.083393	0.000023
H54	H	1.199686	-0.022591	-0.084296
H55	H	1.199683	-0.022584	0.084337
H56	H	1.001930	0.039226	-0.084312
H57	H	1.001901	0.039227	0.084334
C58	C	1.051195	-0.406298	-0.124290
C59	C	1.119412	-0.435096	0.000008
H60	H	0.973233	-0.431406	-0.124290
H61	H	1.036572	-0.342126	-0.124286
H62	H	1.097511	-0.425845	-0.208593
H63	H	1.073100	-0.415543	0.084311
H64	H	1.134031	-0.499282	0.000017
C65	C	1.119103	-0.182965	-0.124294
C66	C	1.124601	-0.237654	-0.000003
H67	H	1.042812	-0.144237	-0.124298
H68	H	1.187882	-0.147489	-0.124275
H69	H	1.122865	-0.220081	-0.208602
H70	H	1.120848	-0.200538	0.084305
H71	H	1.055803	-0.273133	-0.000008
C72	C	1.727522	-0.095324	0.124302
C73	C	1.719168	-0.148793	0.000013
H74	H	1.805499	-0.070237	0.124307
H75	H	1.660935	-0.047880	0.124280
H76	H	1.721818	-0.131601	0.208611
H77	H	1.724862	-0.112514	-0.084297
H78	H	1.785773	-0.196244	0.000022
C79	C	1.047078	0.352402	-0.124265
C80	C	1.087366	0.303292	0.000024
H81	H	1.081345	0.408877	-0.124254
H82	H	1.074418	0.319079	-0.208565
H83	H	0.958143	0.362568	-0.124253
H84	H	1.176301	0.293121	0.000006
H85	H	1.060033	0.336622	0.084346
C86	C	1.161115	-0.557388	0.124304
C87	C	1.229349	-0.586207	0.000017
H88	H	1.083137	-0.582475	0.124289
H89	H	1.207398	-0.576937	0.208605
H90	H	1.146517	-0.493207	0.124291
H91	H	1.243955	-0.650388	0.000034
H92	H	1.183056	-0.566663	-0.084307
C93	C	1.448000	0.254930	0.484614
C94	C	1.381424	0.199386	0.572143
H95	H	1.390669	0.296224	0.432870
H96	H	1.500080	0.287620	0.543986
H97	H	1.498388	0.218614	0.417605
H98	H	1.331043	0.235702	0.639159
H99	H	1.329322	0.166694	0.512766
H100	H	1.674499	-0.612116	0.000043
H101	H	1.796390	-0.310459	0.000026
C102	C	1.627007	-0.081033	0.369039
C103	C	1.647432	0.007754	0.332402
H104	H	1.684321	-0.122308	0.317227
H105	H	1.639228	-0.089825	0.470522
H106	H	1.543624	-0.091182	0.344191
H107	H	1.730813	0.017906	0.357260
H108	H	1.635221	0.016550	0.230897
