data_functionalizedCrystal
_audit_creation_method	'MofGen! by Chris Wilmer'
_symmetry_space_group_name_H-M	'P1'
_symmetry_Int_Tables_number	1
_symmetry_cell_setting	triclinic
loop_
_symmetry_equiv_pos_as_xyz
  x,y,z
_cell_length_a	10.540539
_cell_length_b	19.288859
_cell_length_c	17.766277
_cell_angle_alpha	89.989768
_cell_angle_beta	89.995823
_cell_angle_gamma	83.829609
loop_
_atom_site_label
_atom_site_type_symbol
_atom_site_fract_x
_atom_site_fract_y
_atom_site_fract_z
O1	O	0.158308	0.922412	-0.062606
O2	O	0.179676	0.720293	-0.062603
O3	O	-0.015817	0.825964	-0.062604
O4	O	0.353802	0.816742	-0.062605
O5	O	-0.015827	0.825945	0.062585
O6	O	0.179666	0.720275	0.062585
O7	O	0.158298	0.922393	0.062583
Cu8	Cu	0.168981	0.821332	0.074015
Cu9	Cu	0.168993	0.821354	-0.074035
O10	O	0.353792	0.816723	0.062583
C11	C	0.178985	0.694403	-0.000009
C12	C	0.176925	0.617285	-0.000008
C13	C	0.277696	0.053917	-0.000010
C14	C	0.279643	0.126377	-0.000014
C15	C	0.164936	0.170318	-0.000012
C16	C	0.048274	0.141794	-0.000025
C17	C	0.046330	0.069336	-0.000029
C18	C	0.079385	0.291011	0.043851
C19	C	0.081333	0.363467	0.043859
C20	C	0.170925	0.393804	-0.000004
C21	C	0.258591	0.351673	-0.043865
C22	C	0.256648	0.279215	-0.043869
C23	C	0.167030	0.248888	-0.000008
C24	C	0.289691	0.500888	-0.000000
C25	C	0.291633	0.573349	-0.000009
C26	C	0.060261	0.588766	-0.000013
C27	C	0.058322	0.516306	-0.000012
C28	C	0.173041	0.472371	-0.000002
C29	C	-0.063110	0.825263	-0.000011
C30	C	-0.204012	0.823194	-0.000015
C31	C	-0.385668	0.743905	-0.000295
C32	C	-0.239097	0.746002	-0.000013
C33	C	-0.266504	0.860331	0.071474
C34	C	-0.412990	0.857697	0.071534
C35	C	-0.413532	0.859288	-0.070829
C36	C	-0.266566	0.859999	-0.071774
C37	C	0.401084	0.817424	-0.000011
C38	C	0.541986	0.819493	-0.000012
C39	C	0.158989	0.948284	-0.000013
C40	C	0.161049	1.025401	-0.000019
N41	N	0.168972	0.821322	0.178145
N42	N	0.168992	0.821370	-0.178166
C43	C	0.082450	0.868128	0.217532
C44	C	0.082444	0.868132	0.296334
C45	C	0.168982	0.821336	0.335746
C46	C	0.255511	0.774521	0.296349
C47	C	0.255506	0.774514	0.217549
C48	C	0.284637	0.812809	0.460583
C49	C	0.284644	0.812821	0.539382
C50	C	0.168998	0.821355	0.578792
C51	C	0.053340	0.829891	0.539393
C52	C	0.053335	0.829884	0.460593
C53	C	0.168997	0.821339	0.421191
C54	C	0.082462	0.868168	0.703625
C55	C	0.082454	0.868167	0.782428
C56	C	0.255532	0.774560	0.782442
C57	C	0.255529	0.774557	0.703640
C58	C	0.168995	0.821365	0.664236
H59	H	-0.036665	0.493089	-0.000015
H60	H	-0.048661	0.046120	-0.000036
C61	C	0.350727	0.723084	0.825791
N62	N	0.422430	0.684311	0.858445
C63	C	-0.012728	0.919632	0.339668
N64	N	-0.084408	0.958424	0.372305
C65	C	0.350698	0.723043	0.339704
N66	N	0.422392	0.684265	0.372359
H67	H	-0.440581	0.830234	0.124974
C68	C	-0.479471	0.932692	0.075926
N69	N	-0.529539	0.989179	0.079239
H70	H	-0.245416	0.917018	0.074131
H71	H	-0.462003	0.915043	-0.071310
H72	H	-0.195837	0.716780	-0.051259
C73	C	-0.015098	0.409804	0.092108
N74	N	-0.087734	0.444703	0.128451
C75	C	-0.073886	0.839264	0.417258
N76	N	-0.169711	0.846325	0.384618
C77	C	-0.208193	0.825456	0.143346
N78	N	-0.164275	0.799183	0.197479
C79	C	-0.455393	0.825545	-0.144029
N80	N	-0.486920	0.800123	-0.199160
H81	H	-0.225097	0.832826	-0.124659
C82	C	-0.235552	0.936033	-0.077605
N83	N	-0.212198	0.993306	-0.081990
H84	H	0.371109	0.018149	-0.000005
C85	C	-0.012753	0.919612	0.174192
N86	N	-0.084464	0.958387	0.141547
H87	H	-0.413584	0.713420	-0.051560
H88	H	-0.040830	0.836840	0.571479
C89	C	-0.012754	0.919649	0.825753
N90	N	-0.084472	0.958423	0.858387
H91	H	-0.033136	0.624542	-0.000017
C92	C	-0.012738	0.919651	0.660278
N93	N	-0.084446	0.958427	0.627631
C94	C	-0.425526	0.702875	0.068591
N95	N	-0.455537	0.671976	0.120483
H96	H	0.325989	0.736446	0.671569
C97	C	0.407969	0.157751	0.000001
N98	N	0.504624	0.181380	0.000015
C99	C	-0.019183	0.257649	0.092104
N100	N	-0.093424	0.232522	0.128447
C101	C	-0.077904	0.190131	-0.000018
N102	N	-0.172945	0.226539	-0.000014
C103	C	0.411868	0.803425	0.582713
N104	N	0.507697	0.796343	0.615348
C105	C	0.411865	0.803421	0.417240
N106	N	0.507690	0.796351	0.384595
H107	H	-0.196688	0.716560	0.051319
C108	C	0.350747	0.723051	0.174222
N109	N	0.422505	0.684300	0.141587
C110	C	0.419961	0.604715	0.000004
N111	N	0.516620	0.628340	0.000017
H112	H	0.331549	0.376371	-0.079581
C113	C	0.353065	0.232875	-0.092124
N114	N	0.425684	0.197972	-0.128474
H115	H	0.383102	0.465114	0.000006
