data_functionalizedCrystal
_audit_creation_method	'MofGen! by Chris Wilmer'
_symmetry_space_group_name_H-M	'P1'
_symmetry_Int_Tables_number	1
_symmetry_cell_setting	triclinic
loop_
_symmetry_equiv_pos_as_xyz
  x,y,z
_cell_length_a	25.639239
_cell_length_b	16.959455
_cell_length_c	16.959447
_cell_angle_alpha	89.980956
_cell_angle_beta	90.033076
_cell_angle_gamma	89.963132
loop_
_atom_site_label
_atom_site_type_symbol
_atom_site_fract_x
_atom_site_fract_y
_atom_site_fract_z
Zn1	Zn	-0.208166	-1.208282	0.446993
Zn2	Zn	0.291834	-0.708282	0.946993
Zn3	Zn	-0.295606	-1.208161	0.314808
Zn4	Zn	0.204394	-0.708161	0.814808
Zn5	Zn	-0.208184	-1.076110	0.314820
Zn6	Zn	0.291816	-0.576110	0.814820
Zn7	Zn	-0.295569	-1.076032	0.446936
Zn8	Zn	0.204431	-0.576032	0.946936
O9	O	-0.251881	-1.142146	0.380889
O10	O	0.248119	-0.642146	0.880889
O11	O	-0.219773	-1.318876	0.429478
O12	O	0.280227	-0.818876	0.929478
O13	O	-0.284033	-1.190627	0.204199
O14	O	0.215967	-0.690627	0.704199
O15	O	-0.135016	-1.093726	0.332382
O16	O	0.364984	-0.593726	0.832382
O17	O	-0.284015	-1.318788	0.332362
O18	O	0.215985	-0.818788	0.832362
O19	O	-0.135003	-1.190832	0.429489
O20	O	0.364997	-0.690832	0.929489
O21	O	-0.219804	-1.093609	0.204207
O22	O	0.280196	-0.593609	0.704207
O23	O	-0.219768	-0.965489	0.332326
O24	O	0.280232	-0.465489	0.832326
O25	O	-0.283952	-1.093593	0.557554
O26	O	0.216048	-0.593593	1.057554
O27	O	-0.283970	-0.965431	0.429391
O28	O	0.216030	-0.465431	0.929391
O29	O	-0.219737	-1.190756	0.557596
O30	O	0.280263	-0.690756	1.057596
O31	O	-0.368767	-1.190551	0.332306
O32	O	0.131233	-0.690551	0.832306
O33	O	-0.368739	-1.093476	0.429380
O34	O	0.131261	-0.593476	0.929380
C35	C	-0.251867	-0.936780	0.380854
C36	C	0.248133	-0.436780	0.880854
C37	C	-0.251874	-0.848923	0.380858
C38	C	0.248126	-0.348923	0.880858
C39	C	-0.218399	-0.807656	0.330400
C40	C	0.281601	-0.307656	0.830400
C41	C	-0.285352	-0.807637	0.431324
C42	C	0.214648	-0.307637	0.931324
C43	C	-0.285357	-0.725091	0.431333
C44	C	0.214643	-0.225091	0.931333
C45	C	-0.251882	-0.683824	0.380875
C46	C	0.248118	-0.183824	0.880875
C47	C	-0.218402	-0.725102	0.330408
C48	C	0.281598	-0.225102	0.830408
C49	C	-0.318833	-0.683807	0.481804
C50	C	0.181167	-0.183807	0.981804
C51	C	-0.318839	-0.601256	0.481815
C52	C	0.181161	-0.101256	0.981815
C53	C	-0.285366	-0.559987	0.431352
C54	C	0.214634	-0.059987	0.931352
C55	C	-0.251885	-0.601270	0.380883
C56	C	0.248115	-0.101270	0.880883
C57	C	-0.218410	-0.560003	0.330425
C58	C	0.281590	-0.060003	0.830425
C59	C	-0.184931	-0.601285	0.279951
C60	C	0.315069	-0.101285	0.779951
C61	C	-0.184929	-0.683833	0.279946
C62	C	0.315071	-0.183833	0.779946
C63	C	-0.285368	-0.477438	0.431358
C64	C	0.214632	0.022562	0.931358
C65	C	-0.218413	-0.477449	0.330433
C66	C	0.281587	0.022551	0.830433
C67	C	-0.387724	-1.142013	0.380853
C68	C	0.112276	-0.642013	0.880853
C69	C	-0.445838	-1.142029	0.380864
C70	C	0.054162	-0.642029	0.880864
C71	C	-0.806203	-1.192825	0.330429
C72	C	-0.306203	-0.692825	0.830429
C73	C	-0.860807	-1.192856	0.330440
C74	C	-0.360807	-0.692856	0.830440
O75	O	-0.889045	-1.235906	0.287518
O76	O	-0.389045	-0.735906	0.787518
N77	N	-0.888120	-1.142285	0.380942
N78	N	-0.388120	-0.642285	0.880942
C79	C	-0.860827	-1.091686	0.431442
C80	C	-0.360827	-0.591686	0.931442
O81	O	-0.889073	-1.048675	0.474399
O82	O	-0.389073	-0.548675	0.974399
C83	C	-0.806223	-1.091660	0.431435
C84	C	-0.306223	-0.591660	0.931435
C85	C	-0.778913	-1.142228	0.380924
C86	C	-0.278913	-0.642228	0.880924
C87	C	-0.778892	-1.243390	0.279923
C88	C	-0.278892	-0.743390	0.779923
C89	C	-0.724292	-1.243358	0.279912
C90	C	-0.224292	-0.743358	0.779912
C91	C	-0.697002	-1.192761	0.330406
C92	C	-0.197002	-0.692761	0.830406
C93	C	-0.724312	-1.142196	0.380912
C94	C	-0.224312	-0.642196	0.880912
C95	C	-0.778931	-1.041066	0.481938
C96	C	-0.278931	-0.541066	0.981938
C97	C	-0.724324	-1.041045	0.481927
C98	C	-0.224324	-0.541045	0.981927
C99	C	-0.697013	-1.091613	0.431416
C100	C	-0.197013	-0.591613	0.931416
C101	C	-0.642422	-1.091568	0.431396
C102	C	-0.142422	-0.591568	0.931396
N103	N	-0.615108	-1.142139	0.380894
N104	N	-0.115108	-0.642139	0.880894
C105	C	-0.642398	-1.192735	0.330399
C106	C	-0.142398	-0.692735	0.830399
C107	C	-0.975497	-1.091746	0.431454
C108	C	-0.475497	-0.591746	0.931454
C109	C	-1.030100	-1.091767	0.431458
C110	C	-0.530100	-0.591767	0.931458
C111	C	-1.030076	-1.192938	0.330456
C112	C	-0.530076	-0.692938	0.830456
C113	C	-0.975473	-1.192912	0.330449
C114	C	-0.475473	-0.692912	0.830449
C115	C	-0.948184	-1.142316	0.380952
C116	C	-0.448184	-0.642316	0.880952
C117	C	-0.527733	-1.192664	0.330378
C118	C	-0.027733	-0.692664	0.830378
C119	C	-0.473128	-1.192625	0.330369
C120	C	0.026872	-0.692625	0.830369
C121	C	-0.473156	-1.091458	0.431373
C122	C	0.026844	-0.591458	0.931373
C123	C	-0.527757	-1.091493	0.431380
C124	C	-0.027757	-0.591493	0.931380
C125	C	-0.555044	-1.142103	0.380880
C126	C	-0.055044	-0.642103	0.880880
O127	O	-0.614149	-1.048541	0.474297
O128	O	-0.114149	-0.548541	0.974297
O129	O	-0.614145	-1.235746	0.287456
O130	O	-0.114145	-0.735746	0.787456
C131	C	-0.115508	-1.142301	0.380943
C132	C	0.384492	-0.642301	0.880943
C133	C	-0.057394	-1.142367	0.380966
C134	C	0.442606	-0.642367	0.880966
C135	C	-0.251838	-1.142179	0.587058
C136	C	0.248162	-0.642179	1.087058
C137	C	-0.251820	-1.142193	0.674914
C138	C	0.248180	-0.642193	1.174914
C139	C	-0.251894	-0.348314	0.380915
C140	C	0.248106	0.151686	0.880915
C141	C	-0.251894	-0.436171	0.380900
C142	C	0.248106	0.063829	0.880900
C143	C	-0.251887	-1.142159	0.175523
C144	C	0.248113	-0.642159	0.675523
C145	C	-0.251758	-1.142298	0.087667
C146	C	0.248242	-0.642298	0.587667
C147	C	-0.285198	-1.091699	1.046371
C148	C	0.214802	-0.591699	1.546371
C149	C	-0.218331	-1.192876	1.046409
C150	C	0.281669	-0.692876	1.546409
C151	C	-0.218342	-1.192855	0.963864
C152	C	0.281658	-0.692855	1.463864
C153	C	-0.251782	-1.142256	0.922567
C154	C	0.248218	-0.642256	1.422567
C155	C	-0.285212	-1.091678	0.963817
C156	C	0.214788	-0.591678	1.463817
C157	C	-0.184917	-1.243438	0.922608
C158	C	0.315083	-0.743438	1.422608
C159	C	-0.184927	-1.243419	0.840057
C160	C	0.315073	-0.743419	1.340057
C161	C	-0.218365	-1.192816	0.798759
C162	C	0.281635	-0.692816	1.298759
C163	C	-0.251795	-1.142235	0.840014
C164	C	0.248205	-0.642235	1.340014
C165	C	-0.285236	-1.091636	0.798717
C166	C	0.214764	-0.591636	1.298717
C167	C	-0.318664	-1.041051	0.839971
C168	C	0.181336	-0.541051	1.339971
C169	C	-0.318650	-1.041074	0.922519
C170	C	0.181350	-0.541074	1.422519
C171	C	-0.218379	-1.192792	0.716210
C172	C	0.281621	-0.692792	1.216210
C173	C	-0.285249	-1.091615	0.716164
C174	C	0.214751	-0.591615	1.216164
H175	H	-0.346084	-0.717413	0.522886
H176	H	0.153916	-0.217413	1.022886
N177	N	-0.696398	-1.294998	0.228302
N178	N	-0.196398	-0.794998	0.728302
N179	N	-0.665979	-1.267199	0.177892
N180	N	-0.165979	-0.767199	0.677892
H181	H	-0.646283	-1.303670	0.141434
H182	H	-0.146283	-0.803670	0.641434
H183	H	-0.450928	-1.050260	0.472483
H184	H	0.049072	-0.550260	0.972483
H185	H	-0.191155	-0.443855	0.289342
H186	H	0.308845	0.056145	0.789342
N187	N	-0.806754	-1.295086	0.228338
N188	N	-0.306754	-0.795086	0.728338
N189	N	-0.782353	-1.340227	0.183254
N190	N	-0.282353	-0.840227	0.683254
H191	H	-0.802027	-1.376739	0.146815
H192	H	-0.302027	-0.876739	0.646815
N193	N	-0.150739	-0.726014	0.228396
N194	N	0.349261	-0.226014	0.728396
N195	N	-0.150741	-0.799717	0.228399
N196	N	0.349259	-0.299717	0.728399
H197	H	-0.126593	-0.829511	0.191994
H198	H	0.373407	-0.329511	0.691994
H199	H	-0.312623	-0.443830	0.472457
H200	H	0.187377	0.056170	0.972457
N201	N	-0.947579	-1.244558	0.278845
N202	N	-0.447579	-0.744558	0.778845
N203	N	-0.953716	-1.239360	0.205905
N204	N	-0.453716	-0.739360	0.705905
H205	H	-0.934019	-1.275837	0.169457
H206	H	-0.434019	-0.775837	0.669457
H207	H	-1.052305	-1.234139	0.289344
H208	H	-0.552305	-0.734139	0.789344
N209	N	-0.150750	-1.295114	0.964777
N210	N	0.349250	-0.795114	1.464777
N211	N	-0.120905	-1.340267	0.927938
N212	N	0.379095	-0.840267	1.427938
H213	H	-0.096770	-1.376763	0.957722
H214	H	0.403230	-0.876763	1.457722
H215	H	-0.345867	-0.999893	0.956115
H216	H	0.154133	-0.499893	1.456115
H217	H	-0.312476	-1.050404	0.682546
H218	H	0.187524	-0.550404	1.182546
H219	H	-0.191143	-0.841271	0.289303
H220	H	0.308857	-0.341271	0.789303
H221	H	-1.052331	-1.050582	0.472582
H222	H	-0.552331	-0.550582	0.972582
N223	N	-0.150730	-0.559139	0.228413
N224	N	0.349270	-0.059139	0.728413
N225	N	-0.102489	-0.568405	0.233781
N226	N	0.397511	-0.068405	0.733781
H227	H	-0.078334	-0.538639	0.197384
H228	H	0.421666	-0.038639	0.697384
H229	H	-0.312603	-0.841242	0.472408
H230	H	0.187397	-0.341242	0.972408
H231	H	-0.345893	-0.999857	0.806337
H232	H	0.154107	-0.499857	1.306337
H233	H	-0.953281	-1.050538	0.472577
H234	H	-0.453281	-0.550538	0.972577
H235	H	-0.191164	-1.233980	0.682626
H236	H	0.308836	-0.733980	1.182626
N237	N	-0.319334	-1.040013	1.088499
N238	N	0.180666	-0.540013	1.588499
N239	N	-0.315852	-0.967080	1.079267
N240	N	0.184148	-0.467080	1.579267
H241	H	-0.339958	-0.930571	1.109022
H242	H	0.160042	-0.430571	1.609022
N243	N	-0.184183	-1.244562	1.088601
N244	N	0.315817	-0.744562	1.588601
N245	N	-0.184180	-1.244578	1.162305
N246	N	0.315820	-0.744578	1.662305
H247	H	-0.160062	-1.281083	1.192107
H248	H	0.339938	-0.781083	1.692107
H249	H	-0.346100	-0.567651	0.522912
H250	H	0.153900	-0.067651	1.022912
H251	H	-0.801158	-0.999884	0.523066
H252	H	-0.301158	-0.499884	1.023066
N253	N	-0.150781	-1.295095	0.797934
N254	N	0.349219	-0.795095	1.297934
N255	N	-0.120928	-1.340270	0.834816
N256	N	0.379072	-0.840270	1.334816
H257	H	-0.096812	-1.376766	0.805066
H258	H	0.403188	-0.876766	1.305066
H259	H	-0.549994	-1.050319	0.472512
H260	H	-0.049994	-0.550319	0.972512
N261	N	-0.445240	-1.244283	0.278762
N262	N	0.054760	-0.744283	0.778762
N263	N	-0.469616	-1.289453	0.233683
N264	N	0.030384	-0.789453	0.733683
H265	H	-0.449922	-1.325936	0.197235
H266	H	0.050078	-0.825936	0.697235
H267	H	-0.549944	-1.233877	0.289258
H268	H	-0.049944	-0.733877	0.789258
H269	H	-0.702108	-0.999845	0.523055
H270	H	-0.202108	-0.499845	1.023055
