data_functionalizedCrystal
_audit_creation_method	'MofGen! by Chris Wilmer'
_symmetry_space_group_name_H-M	'P1'
_symmetry_Int_Tables_number	1
_symmetry_cell_setting	triclinic
loop_
_symmetry_equiv_pos_as_xyz
  x,y,z
_cell_length_a	13.635800
_cell_length_b	29.101457
_cell_length_c	9.514088
_cell_angle_alpha	88.853581
_cell_angle_beta	118.843545
_cell_angle_gamma	108.595283
loop_
_atom_site_label
_atom_site_type_symbol
_atom_site_fract_x
_atom_site_fract_y
_atom_site_fract_z
V1	V	2.122316	0.067988	0.501778
O2	O	2.100205	-0.002382	0.491175
O3	O	2.110596	0.133958	0.499358
O4	O	2.139574	0.067331	0.720160
O5	O	2.071027	0.064706	0.268845
V6	V	2.357141	0.059525	0.473795
O7	O	2.268161	0.086552	0.563163
O8	O	2.436394	0.040961	0.412410
O9	O	2.257258	-0.006444	0.476215
O10	O	2.437950	0.129895	0.484398
O11	O	2.467129	0.062807	0.706728
O12	O	2.228280	0.060183	0.255413
V13	V	2.622316	0.067988	0.501778
O14	O	2.600205	-0.002382	0.491175
O15	O	2.610596	0.133958	0.499358
O16	O	2.639574	0.067331	0.720160
O17	O	2.571027	0.064706	0.268845
V18	V	2.857141	0.059525	0.473795
O19	O	2.768161	0.086552	0.563163
O20	O	2.936394	0.040961	0.412410
O21	O	2.757258	-0.006444	0.476215
O22	O	2.937950	0.129895	0.484398
O23	O	2.967129	0.062807	0.706728
O24	O	2.728280	0.060183	0.255413
C25	C	2.664734	-0.022512	0.483865
C26	C	2.623018	-0.076445	0.484399
C27	C	2.304869	-0.418077	0.340349
C28	C	2.148004	-0.620782	0.342266
O29	O	2.077254	-0.653101	0.217346
N30	N	2.187690	-0.638944	0.489692
C31	C	2.266591	-0.606425	0.636649
O32	O	2.296737	-0.626524	0.762089
C33	C	2.423448	-0.403721	0.634731
C34	C	2.383766	-0.385563	0.487295
C35	C	2.265191	-0.399918	0.192924
C36	C	2.304410	-0.349245	0.192446
C37	C	2.383308	-0.316731	0.339392
C38	C	2.422985	-0.334890	0.486816
C39	C	2.502341	-0.371204	0.781688
C40	C	2.541550	-0.320525	0.781195
C41	C	2.501869	-0.302367	0.633759
C42	C	2.541102	-0.251703	0.633284
N43	N	2.501417	-0.233541	0.485858
C44	C	2.422520	-0.266055	0.338912
C45	C	2.184237	-0.712849	0.637646
C46	C	2.145025	-0.763524	0.638126
C47	C	2.026439	-0.777877	0.343742
C48	C	2.065659	-0.727201	0.343263
C49	C	2.144552	-0.694687	0.490220
C50	C	2.504889	-0.159637	0.337918
C51	C	2.544121	-0.108959	0.337453
C52	C	2.662698	-0.094610	0.631836
C53	C	2.623475	-0.145284	0.632303
C54	C	2.544563	-0.177797	0.485331
O55	O	2.611839	-0.219355	0.758139
O56	O	2.392368	-0.245946	0.213493
C57	C	2.265649	-0.468750	0.340827
C58	C	2.305327	-0.486909	0.488251
C59	C	2.384224	-0.454395	0.635197
C60	C	2.266115	-0.537585	0.488731
C61	C	2.187218	-0.570099	0.341785
C62	C	2.147533	-0.551937	0.194359
C63	C	2.186752	-0.501264	0.193881
C64	C	2.423910	-0.472557	0.782623
C65	C	2.384686	-0.523231	0.783089
C66	C	2.305789	-0.555745	0.636143
C67	C	2.034791	0.150028	0.491703
C68	C	2.066128	0.203961	0.491180
C69	C	2.071754	0.065038	0.773355
C70	C	2.126588	0.064937	0.951890
C71	C	2.164734	-0.022512	0.483865
C72	C	2.123018	-0.076445	0.484399
C73	C	2.127770	0.062477	0.202209
C74	C	2.062554	0.062576	0.023673
C75	C	2.534791	0.150028	0.491703
C76	C	2.566128	0.203961	0.491180
C77	C	2.571754	0.065038	0.773355
C78	C	2.626588	0.064937	0.951890
C79	C	2.627770	0.062477	0.202209
C80	C	2.562554	0.062576	0.023673
C81	C	2.187705	-0.104260	0.476587
C82	C	2.148512	-0.154938	0.477062
C83	C	2.044635	-0.177798	0.485360
C84	C	1.979942	-0.149980	0.493168
C85	C	2.019131	-0.099304	0.492681
C86	C	2.673935	0.231777	0.498996
C87	C	2.703402	0.282455	0.498530
C88	C	2.625056	0.305316	0.490235
C89	C	2.517241	0.277497	0.482422
C90	C	2.487780	0.226820	0.482901
H91	H	2.511803	-0.094178	0.217387
O92	O	2.434366	0.060000	0.924150
H93	H	2.424485	0.092066	0.969958
H94	H	2.723369	0.066882	1.027027
O95	O	2.299737	-0.079614	0.467612
H96	H	2.277278	-0.062015	0.356948
O97	O	2.419780	-0.194701	0.179405
H98	H	2.398796	-0.173553	0.076824
H99	H	2.272089	-0.334465	0.072388
H100	H	2.726947	-0.068129	0.751475
O101	O	2.180083	-0.434983	0.034421
H102	H	2.159094	-0.413834	-0.068156
H103	H	2.655820	-0.160070	0.752354
H104	H	2.737739	0.213170	0.505741
H105	H	2.605788	-0.294054	0.900869
O106	O	2.143937	-0.481681	0.034862
H107	H	2.082475	-0.512809	-0.067223
O108	O	1.949368	-0.069304	0.501148
H109	H	1.857089	-0.083212	0.395068
O110	O	2.432743	0.302158	0.473465
H111	H	2.419516	0.296617	0.579751
O112	O	2.022841	-0.707616	0.184247
H113	H	2.049885	-0.722647	0.107727
O114	O	1.941318	-0.812949	0.185243
H115	H	1.983609	-0.838247	0.172384
O116	O	2.187830	-0.783109	0.797144
H117	H	2.249270	-0.751981	0.899236
H118	H	2.248479	-0.686379	0.757323
H119	H	1.965784	0.060637	0.948547
H120	H	2.534655	-0.385979	0.901747
H121	H	2.083290	-0.578419	0.074710
H122	H	2.417018	-0.538010	0.903158
O123	O	2.218317	-0.184934	0.468698
H124	H	2.297148	-0.160518	0.462892
H125	H	2.399989	0.204176	0.476527
O126	O	2.509022	-0.437491	0.941121
H127	H	2.530030	-0.458639	1.043701
H128	H	2.223369	0.066882	1.027027
H129	H	1.895362	-0.168601	0.499923
O130	O	2.002385	-0.232455	0.485919
H131	H	2.064836	-0.247951	0.479116
H132	H	2.791193	0.305098	0.504887
H133	H	2.649060	0.346580	0.489846
