data_functionalizedCrystal
_audit_creation_method	'MofGen! by Chris Wilmer'
_symmetry_space_group_name_H-M	'P1'
_symmetry_Int_Tables_number	1
_symmetry_cell_setting	triclinic
loop_
_symmetry_equiv_pos_as_xyz
  x,y,z
_cell_length_a	10.654545
_cell_length_b	16.109301
_cell_length_c	15.186229
_cell_angle_alpha	89.997109
_cell_angle_beta	89.997915
_cell_angle_gamma	96.026546
loop_
_atom_site_label
_atom_site_type_symbol
_atom_site_fract_x
_atom_site_fract_y
_atom_site_fract_z
O1	O	0.161412	-1.104094	0.073168
O2	O	0.661412	-0.604094	0.573168
O3	O	0.181500	-0.862152	0.073182
O4	O	0.681500	-0.362152	0.573182
O5	O	-0.011359	-0.988685	0.073174
O6	O	0.488641	-0.488685	0.573174
O7	O	0.354271	-0.977561	0.073176
O8	O	0.854271	-0.477561	0.573176
O9	O	-0.011348	-0.988670	-0.073283
O10	O	0.488652	-0.488670	0.426717
O11	O	0.181511	-0.862137	-0.073276
O12	O	0.681511	-0.362137	0.426724
O13	O	0.161423	-1.104079	-0.073289
O14	O	0.661423	-0.604079	0.426711
Zn15	Zn	0.171469	-0.983105	-0.096536
Zn16	Zn	0.671469	-0.483105	0.403464
Zn17	Zn	0.171454	-0.983125	0.096428
Zn18	Zn	0.671454	-0.483125	0.596428
O19	O	0.354282	-0.977546	-0.073281
O20	O	0.854282	-0.477546	0.426719
C21	C	0.180692	-0.831164	-0.000045
C22	C	0.680692	-0.331164	0.499955
C23	C	0.178253	-0.738855	-0.000040
C24	C	0.678253	-0.238855	0.499960
C25	C	-0.058140	-0.987860	-0.000053
C26	C	0.441860	-0.487860	0.499947
C27	C	-0.197550	-0.985416	-0.000048
C28	C	0.302450	-0.485416	0.499952
C29	C	0.162231	-1.135066	-0.000060
C30	C	0.662231	-0.635066	0.499940
C31	C	0.164671	-1.227376	-0.000060
C32	C	0.664671	-0.727376	0.499940
C33	C	-0.197571	-0.985442	0.159625
C34	C	0.302429	-0.485442	0.659625
C35	C	-0.263075	-0.984310	0.239460
C36	C	0.236925	-0.484310	0.739460
C37	C	-0.394063	-0.982014	0.239462
C38	C	0.105937	-0.482014	0.739462
C39	C	-0.459548	-0.980847	0.159618
C40	C	0.040452	-0.480847	0.659618
C41	C	-0.394044	-0.981979	0.079783
C42	C	0.105956	-0.481979	0.579783
C43	C	-0.263054	-0.984278	0.079790
C44	C	0.236946	-0.484278	0.579790
C45	C	-0.394022	-0.981947	-0.079888
C46	C	0.105978	-0.481947	0.420112
C47	C	-0.263035	-0.984249	-0.079891
C48	C	0.236965	-0.484249	0.420109
C49	C	-0.459507	-0.980780	-0.159731
C50	C	0.040493	-0.480780	0.340269
C51	C	-0.394004	-0.981918	-0.239569
C52	C	0.105996	-0.481918	0.260431
C53	C	-0.263008	-0.984215	-0.239567
C54	C	0.236992	-0.484215	0.260433
C55	C	-0.197531	-0.985381	-0.159727
C56	C	0.302469	-0.485381	0.340273
C57	C	0.401063	-0.978370	-0.000053
C58	C	0.901063	-0.478370	0.499947
C59	C	0.540473	-0.980815	-0.000052
C60	C	1.040473	-0.480815	0.499948
N61	N	0.171478	-0.983098	-0.228228
N62	N	0.671478	-0.483098	0.271772
C63	C	0.287019	-0.517229	-0.000050
C64	C	0.787019	-0.017229	0.499950
C65	C	0.284717	-0.430495	-0.000055
C66	C	0.784717	0.069505	0.499945
C67	C	0.055896	-0.449008	-0.000053
C68	C	0.555896	0.050992	0.499947
C69	C	0.058199	-0.535741	-0.000053
C70	C	0.558199	-0.035741	0.499947
C71	C	0.173764	-0.569849	-0.000047
C72	C	0.673764	-0.069849	0.499953
C73	C	0.169159	-0.396382	-0.000052
C74	C	0.669159	0.103618	0.499948
C75	C	0.166662	-0.302341	-0.000058
C76	C	0.666662	0.197659	0.499942
C77	C	0.176262	-0.663895	-0.000043
C78	C	0.676262	-0.163895	0.499957
C79	C	0.247649	-1.033975	-0.453954
C80	C	0.747649	-0.533975	0.046046
C81	C	0.247640	-1.033984	-0.546143
C82	C	0.747640	-0.533984	-0.046143
C83	C	0.095256	-0.932260	-0.546147
C84	C	0.595256	-0.432260	-0.046147
C85	C	0.095259	-0.932256	-0.453959
C86	C	0.595259	-0.432256	0.046041
C87	C	0.171463	-0.983112	-0.407865
C88	C	0.671463	-0.483112	0.092135
C89	C	0.171451	-0.983125	-0.592242
C90	C	0.671451	-0.483125	-0.092242
C91	C	0.171440	-0.983134	-0.692199
C92	C	0.671440	-0.483134	-0.192199
C93	C	0.171472	-0.983104	-0.307902
C94	C	0.671472	-0.483104	0.192098
N95	N	0.171435	-0.983139	0.228121
N96	N	0.671435	-0.483139	0.728121
H97	H	-0.090915	-0.987322	0.159632
H98	H	0.409085	-0.487322	0.659632
Br99	Br	0.351034	-1.103019	-0.608689
Br100	Br	0.851034	-0.603019	-0.108689
Br101	Br	-0.174118	-0.985743	-0.347922
Br102	Br	0.325882	-0.485743	0.152078
H103	H	0.033213	-0.890837	-0.416433
H104	H	0.533213	-0.390837	0.083567
H105	H	-0.034032	-0.578586	-0.000054
H106	H	0.465968	-0.078586	0.499946
H107	H	0.376940	-0.387655	-0.000059
H108	H	0.876940	0.112345	0.499941
Br109	Br	0.443855	-0.563516	-0.000044
Br110	Br	0.943855	-0.063516	0.499956
Br111	Br	-0.174203	-0.985916	0.347814
Br112	Br	0.325797	-0.485916	0.847814
H113	H	-0.038193	-0.421227	-0.000063
H114	H	0.461807	0.078773	0.499937
Br115	Br	-0.008150	-0.863239	-0.608710
Br116	Br	0.491850	-0.363239	-0.108710
H117	H	-0.090875	-0.987256	-0.159717
H118	H	0.409125	-0.487256	0.340283
H119	H	0.309698	-1.075385	-0.416426
H120	H	0.809698	-0.575385	0.083574
H121	H	-0.447395	-0.981084	0.304471
H122	H	0.052605	-0.481084	0.804471
H123	H	-0.566203	-0.978967	0.159626
H124	H	-0.066203	-0.478967	0.659626
Br125	Br	-0.482878	-0.980321	-0.347915
Br126	Br	0.017122	-0.480321	0.152085
Br127	Br	-0.637275	-0.977652	-0.159731
Br128	Br	-0.137275	-0.477652	0.340269
