data_functionalizedCrystal
_audit_creation_method	'MofGen! by Chris Wilmer'
_symmetry_space_group_name_H-M	'P1'
_symmetry_Int_Tables_number	1
_symmetry_cell_setting	triclinic
loop_
_symmetry_equiv_pos_as_xyz
  x,y,z
_cell_length_a	14.853567
_cell_length_b	8.559649
_cell_length_c	7.088929
_cell_angle_alpha	95.344185
_cell_angle_beta	96.214820
_cell_angle_gamma	103.293203
loop_
_atom_site_label
_atom_site_type_symbol
_atom_site_fract_x
_atom_site_fract_y
_atom_site_fract_z
O1	O	1.171393	-0.224973	-0.158876
O2	O	0.907194	-0.249822	-0.158902
O3	O	1.062570	-0.004847	-0.158884
O4	O	1.016017	-0.469948	-0.158893
O5	O	1.083339	0.027966	0.159093
O6	O	0.927963	-0.217010	0.159076
O7	O	1.192162	-0.192160	0.159102
Cu8	Cu	1.061959	-0.201589	0.188123
Cu9	Cu	1.037397	-0.240394	-0.187923
O10	O	1.036787	-0.437136	0.159085
C11	C	0.884068	-0.232291	0.000084
C12	C	0.784220	-0.228918	0.000074
C13	C	1.215287	-0.209692	0.000112
C14	C	1.315135	-0.213066	0.000110
C15	C	1.076482	0.071081	0.000101
C16	C	1.086982	0.248437	0.000091
C17	C	1.716491	-0.372851	0.000073
C18	C	1.758128	-0.081816	0.000079
C19	C	1.664317	-0.078643	0.000090
C20	C	1.596588	-0.222576	0.000089
C21	C	1.622670	-0.369683	0.000078
C22	C	1.638226	0.068459	0.000082
C23	C	1.544410	0.071638	0.000090
C24	C	1.476680	-0.072295	0.000103
C25	C	1.502767	-0.219408	0.000094
C26	C	1.435038	-0.363341	0.000093
C27	C	1.461124	-0.510454	0.000098
C28	C	1.554940	-0.513617	0.000091
C29	C	1.382864	-0.069133	0.000110
C30	C	1.341217	-0.360173	0.000098
C31	C	1.022874	-0.513064	0.000095
C32	C	1.012373	-0.690421	0.000092
N33	N	1.079242	-0.174295	0.452613
N34	N	1.020122	-0.267675	-0.452412
H35	H	1.286077	-0.477382	0.000110
C36	C	0.937344	-0.398401	0.437291
C37	C	0.868667	-0.506203	0.547139
C38	C	0.785887	-0.636931	0.436829
C39	C	0.771783	-0.659859	0.216671
C40	C	0.840462	-0.552054	0.106811
C41	C	0.923242	-0.421325	0.217121
H42	H	0.879106	-0.489233	0.710125
H43	H	0.735047	-0.716735	0.518157
H44	H	0.710504	-0.756632	0.135013
H45	H	0.830023	-0.569023	-0.056174
H46	H	0.974082	-0.341522	0.135794
C47	C	1.162025	-0.043562	0.562917
C48	C	1.176320	-0.021011	0.783076
C49	C	1.259101	0.109720	0.893380
C50	C	1.327587	0.217899	0.783524
C51	C	1.313294	0.195351	0.563353
C52	C	1.230513	0.064621	0.453049
H53	H	1.125620	-0.101094	0.864408
H54	H	1.269681	0.126411	1.056366
H55	H	1.388867	0.314673	0.865178
H56	H	1.363994	0.275434	0.482021
H57	H	1.219933	0.047930	0.290063
H58	H	1.405966	-0.627645	0.000086
H59	H	1.737735	-0.492626	0.000084
H60	H	1.813277	0.035366	0.000067
H61	H	1.576188	-0.633389	0.000092
H62	H	0.940462	0.226241	0.000091
H63	H	1.158899	0.331786	0.000114
H64	H	1.523180	0.191426	0.000089
H65	H	1.693376	0.185641	0.000072
H66	H	1.361628	0.050643	0.000094
