data_functionalizedCrystal
_audit_creation_method	'MofGen! by Chris Wilmer'
_symmetry_space_group_name_H-M	'P1'
_symmetry_Int_Tables_number	1
_symmetry_cell_setting	triclinic
loop_
_symmetry_equiv_pos_as_xyz
  x,y,z
_cell_length_a	15.297327
_cell_length_b	18.215407
_cell_length_c	18.215399
_cell_angle_alpha	90.017777
_cell_angle_beta	99.648308
_cell_angle_gamma	80.297711
loop_
_atom_site_label
_atom_site_type_symbol
_atom_site_fract_x
_atom_site_fract_y
_atom_site_fract_z
Zn1	Zn	-0.359277	-1.074344	-0.466771
Zn2	Zn	-0.510147	-1.052950	-0.364993
Zn3	Zn	-0.359294	-0.951274	-0.343725
Zn4	Zn	-0.510084	-0.929949	-0.488014
O5	O	-0.434700	-1.002129	-0.415876
O6	O	-0.379309	-1.174487	-0.453281
O7	O	-0.490169	-1.039434	-0.259193
O8	O	-0.233046	-0.985477	-0.342257
O9	O	-0.490153	-1.158770	-0.378505
O10	O	-0.233033	-1.075896	-0.432658
O11	O	-0.379338	-0.964733	-0.243567
O12	O	-0.379277	-0.845464	-0.362855
O13	O	-0.490046	-0.949132	-0.588176
O14	O	-0.490062	-0.829796	-0.468863
O15	O	-0.379248	-1.055218	-0.572569
O16	O	-0.636384	-1.018756	-0.399103
O17	O	-0.636338	-0.928388	-0.489486
C18	C	-0.434665	-0.810928	-0.415857
C19	C	-0.434672	-0.729128	-0.415869
C20	C	-0.377067	-0.549102	-0.454893
C21	C	-0.377072	-0.472242	-0.454896
C22	C	-0.492320	-0.455911	-0.376862
C23	C	-0.492310	-0.532769	-0.376856
C24	C	-0.434685	-0.579363	-0.415876
C25	C	-0.434700	-0.425645	-0.415885
C26	C	-0.434705	-0.342310	-0.415887
C27	C	-0.434678	-0.662703	-0.415872
C28	C	-0.669095	-0.968956	-0.448924
C29	C	-0.769371	-0.954832	-0.463086
C30	C	-1.052001	-1.103381	-0.314905
C31	C	-0.957787	-1.116651	-0.301595
C32	C	-0.910678	-1.076198	-0.341967
C33	C	-0.957792	-1.022471	-0.395651
C34	C	-1.052015	-1.009196	-0.408958
C35	C	-0.910693	-0.982013	-0.436020
C36	C	-0.957807	-0.928286	-0.489704
C37	C	-1.052020	-0.915014	-0.503009
C38	C	-1.099129	-0.955467	-0.462637
C39	C	-0.816470	-0.995288	-0.422712
C40	C	-0.816485	-0.901103	-0.516765
C41	C	-0.910698	-0.887833	-0.530075
C42	C	-0.199390	-1.035452	-0.382715
C43	C	-0.099115	-1.049652	-0.368584
C44	C	-0.434638	-1.002183	-0.607820
C45	C	-0.434612	-1.002206	-0.689615
C46	C	-0.434727	-0.194078	-0.415893
C47	C	-0.434713	-0.275879	-0.415892
C48	C	-0.376866	-1.057469	-0.869676
C49	C	-0.376839	-1.057482	-0.946532
C50	C	-0.492218	-0.947014	-0.962773
C51	C	-0.492239	-0.946999	-0.885918
C52	C	-0.434564	-1.002231	-0.839372
C53	C	-0.434517	-1.002258	-0.993082
C54	C	-0.434489	-1.002271	-1.076412
C55	C	-0.434591	-1.002217	-0.756037
C56	C	-0.434697	-1.002127	-0.224669
C57	C	-0.434470	-1.002283	-0.142839
H58	H	-0.539237	-0.417965	-0.345094
H59	H	-0.329854	-1.102462	-0.971201
H60	H	-0.330142	-0.587037	-0.486663
H61	H	-0.539224	-0.902012	-0.861244
O62	O	-0.548372	-0.893387	-1.007927
C63	C	-0.638295	-0.896750	-1.001830
H64	H	-0.640183	-0.924762	-0.946296
H65	H	-0.678742	-0.837910	-1.004893
H66	H	-0.668674	-0.930293	-1.049371
H67	H	-0.330152	-0.447608	-0.486667
H68	H	-0.778118	-1.039032	-0.379002
O69	O	-0.548370	-0.562044	-0.338941
C70	C	-0.599223	-0.504441	-0.304492
H71	H	-0.602404	-0.449215	-0.335082
H72	H	-0.670286	-0.516600	-0.306567
H73	H	-0.566100	-0.500930	-0.243974
H74	H	-0.833965	-1.087005	-0.331126
O75	O	-0.912163	-1.168890	-0.249452
C76	C	-0.973942	-1.201739	-0.216662
H77	H	-1.041078	-1.194809	-0.256289
H78	H	-0.946674	-1.263569	-0.205013
H79	H	-0.984029	-1.173401	-0.162169
H80	H	-0.949072	-0.844088	-0.573785
H81	H	-1.090365	-1.136308	-0.282036
O82	O	-1.190651	-0.942647	-0.475686
C83	C	-1.222047	-0.957067	-0.550676
H84	H	-1.167689	-0.996782	-0.573450
H85	H	-1.285043	-0.983493	-0.554339
H86	H	-1.238797	-0.902589	-0.584877
O87	O	-1.097746	-0.862905	-0.555252
C88	C	-1.074633	-0.882193	-0.625349
H89	H	-1.048679	-0.944640	-0.625449
H90	H	-1.136571	-0.867106	-0.670450
H91	H	-1.019963	-0.850430	-0.636830
H92	H	-0.329900	-1.102441	-0.831780
O93	O	-0.770693	-0.861915	-0.556061
C94	C	-0.716103	-0.911479	-0.595907
H95	H	-0.744444	-0.965445	-0.604506
H96	H	-0.715011	-0.884985	-0.652365
H97	H	-0.644714	-0.924088	-0.563072
