data_functionalizedCrystal
_audit_creation_method	'MofGen! by Chris Wilmer'
_symmetry_space_group_name_H-M	'P1'
_symmetry_Int_Tables_number	1
_symmetry_cell_setting	triclinic
loop_
_symmetry_equiv_pos_as_xyz
  x,y,z
_cell_length_a	19.121424
_cell_length_b	19.120786
_cell_length_c	12.759393
_cell_angle_alpha	92.476000
_cell_angle_beta	87.589103
_cell_angle_gamma	95.008527
loop_
_atom_site_label
_atom_site_type_symbol
_atom_site_fract_x
_atom_site_fract_y
_atom_site_fract_z
Zn1	Zn	1.063738	-0.234180	0.511437
Zn2	Zn	1.058623	-0.351873	0.328553
Zn3	Zn	0.946067	-0.239239	0.342927
Zn4	Zn	0.941023	-0.356842	0.511347
O5	O	1.002363	-0.295534	0.423566
O6	O	1.161522	-0.245596	0.481199
O7	O	1.043662	-0.336970	0.183438
O8	O	0.965929	-0.140095	0.371333
O9	O	1.157763	-0.332065	0.346836
O10	O	1.052381	-0.136379	0.495136
O11	O	0.960968	-0.254217	0.193998
O12	O	0.846936	-0.259035	0.371245
O13	O	0.957331	-0.340533	0.658380
O14	O	0.843230	-0.345438	0.494983
O15	O	1.047490	-0.250414	0.658446
O16	O	1.038771	-0.451005	0.346749
O17	O	0.952371	-0.454655	0.481046
C18	C	0.819553	-0.303325	0.434665
C19	C	0.741346	-0.306676	0.439437
C20	C	0.298924	-0.327861	0.469737
C21	C	0.372408	-0.324719	0.465233
C22	C	0.411060	-0.278090	0.398674
C23	C	0.376224	-0.234606	0.336606
C24	C	0.302741	-0.237752	0.341105
C25	C	0.633026	-0.266338	0.381868
C26	C	0.706514	-0.263193	0.377376
C27	C	0.702694	-0.353308	0.506002
C28	C	0.629210	-0.356447	0.510500
C29	C	0.594380	-0.312966	0.448428
C30	C	0.486173	-0.274875	0.394071
C31	C	0.519268	-0.316185	0.453026
C32	C	0.994487	-0.478362	0.412350
C33	C	0.991182	-0.556574	0.407582
C34	C	1.034608	-0.591324	0.469857
C35	C	1.031499	-0.664813	0.465380
C36	C	0.984969	-0.703550	0.398622
C37	C	0.941540	-0.668794	0.336344
C38	C	0.944645	-0.595307	0.340828
C39	C	0.973341	-0.925533	0.381862
C40	C	0.970241	-0.999025	0.377381
C41	C	1.060200	-0.995038	0.506418
C42	C	1.063304	-0.921550	0.510891
C43	C	1.019871	-0.886801	0.448618
C44	C	0.981793	-0.778667	0.394041
C45	C	1.023045	-0.811686	0.453205
C46	C	1.185886	-0.287712	0.412424
C47	C	1.264093	-0.284379	0.407676
C48	C	1.002418	-0.295464	0.697600
C49	C	1.002442	-0.295434	0.814377
C50	C	1.010288	-0.111991	0.434848
C51	C	1.013666	-0.033775	0.439656
C52	C	1.002350	-0.295551	0.150598
C53	C	1.002471	-0.295376	0.033826
C54	C	1.049391	-0.248502	0.869276
C55	C	1.049405	-0.248471	0.979001
C56	C	0.955517	-0.342311	0.978920
C57	C	0.955501	-0.342338	0.869197
H58	H	0.487795	-0.354152	0.507215
H59	H	0.943910	-0.810214	0.339683
H60	H	0.517651	-0.236908	0.339880
H61	H	1.095559	-1.023339	0.557119
H62	H	0.903651	-0.700340	0.281993
H63	H	0.917264	-0.380555	0.824498
H64	H	1.087634	-0.210253	1.023694
H65	H	0.400764	-0.360128	0.515767
H66	H	0.937978	-0.897246	0.331154
H67	H	0.274383	-0.202342	0.290572
H68	H	0.932347	-1.030563	0.323017
H69	H	1.087612	-0.210308	0.824645
H70	H	0.917301	-0.380500	1.023567
H71	H	1.066866	-0.693103	0.516082
H72	H	0.267459	-0.365828	0.523943
H73	H	1.060927	-0.780144	0.507564
H74	H	0.597744	-0.394419	0.564697
H75	H	0.731060	-0.388708	0.556536
H76	H	0.909282	-0.567015	0.290118
H77	H	0.737983	-0.225214	0.323184
H78	H	0.407700	-0.196642	0.282407
H79	H	1.072500	-0.559789	0.524214
H80	H	0.604677	-0.230935	0.331321
H81	H	1.101192	-0.890012	0.565251
