data_functionalizedCrystal
_audit_creation_method	'MofGen! by Chris Wilmer'
_symmetry_space_group_name_H-M	'P1'
_symmetry_Int_Tables_number	1
_symmetry_cell_setting	triclinic
loop_
_symmetry_equiv_pos_as_xyz
  x,y,z
_cell_length_a	10.540539
_cell_length_b	10.723024
_cell_length_c	9.798715
_cell_angle_alpha	90.001978
_cell_angle_beta	90.001636
_cell_angle_gamma	84.496681
loop_
_atom_site_label
_atom_site_type_symbol
_atom_site_fract_x
_atom_site_fract_y
_atom_site_fract_z
O1	O	-1.685796	-0.175862	-0.113423
O2	O	-1.185796	0.324138	0.386577
O3	O	-1.316374	-0.192431	-0.113439
O4	O	-0.816374	0.307569	0.386561
O5	O	-1.509606	-0.002575	-0.113426
O6	O	-1.009606	0.497425	0.386574
O7	O	-1.492564	-0.365719	-0.113437
O8	O	-0.992564	0.134281	0.386563
O9	O	-1.509592	-0.002574	0.113556
O10	O	-1.009592	0.497426	0.613556
O11	O	-1.316360	-0.192431	0.113543
O12	O	-0.816360	0.307569	0.613543
O13	O	-1.685781	-0.175861	0.113559
O14	O	-1.185781	0.324139	0.613559
Zn15	Zn	-1.501068	-0.184146	0.149589
Zn16	Zn	-1.001068	0.315854	0.649589
Zn17	Zn	-1.501087	-0.184147	-0.149469
Zn18	Zn	-1.001087	0.315853	0.350531
O19	O	-1.492549	-0.365718	0.113546
O20	O	-0.992549	0.134282	0.613546
C21	C	-1.508359	0.043926	0.000064
C22	C	-1.008359	0.543926	0.500064
C23	C	-1.504648	0.182482	0.000059
C24	C	-1.004648	0.682482	0.500059
C25	C	-1.269065	-0.191189	0.000050
C26	C	-0.769065	0.308811	0.500050
C27	C	-1.128118	-0.187471	0.000043
C28	C	-0.628118	0.312529	0.500043
C29	C	-1.733091	-0.177104	0.000067
C30	C	-1.233091	0.322896	0.500067
C31	C	-1.874037	-0.180822	0.000065
C32	C	-1.374037	0.319178	0.500065
C33	C	-0.944765	-0.045013	0.000577
C34	C	-0.444765	0.454987	0.500577
C35	C	-1.091381	-0.048782	0.000052
C36	C	-0.591381	0.451218	0.500052
C37	C	-1.066420	-0.254214	-0.129572
C38	C	-0.566420	0.245786	0.370428
C39	C	-0.919878	-0.249481	-0.129666
C40	C	-0.419878	0.250519	0.370334
C41	C	-0.919371	-0.252302	0.128455
C42	C	-0.419371	0.247698	0.628455
C43	C	-1.066353	-0.253579	0.130154
C44	C	-0.566353	0.246421	0.630154
C45	C	-1.493797	-0.412218	0.000053
C46	C	-0.993797	0.087782	0.500053
C47	C	-1.497507	-0.550775	0.000049
C48	C	-0.997507	-0.050775	0.500049
N49	N	-1.501064	-0.184145	0.353689
N50	N	-1.001064	0.315855	0.853689
C51	C	-1.612771	0.257411	0.000062
C52	C	-1.112771	0.757411	0.500062
C53	C	-1.608938	0.400616	0.000057
C54	C	-1.108938	0.900616	0.500057
N55	N	-1.501101	-0.184138	-0.353569
N56	N	-1.001101	0.315862	0.146431
C57	C	-1.582197	-0.104078	0.421472
C58	C	-1.082197	0.395922	0.921472
C59	C	-1.582218	-0.104073	0.578634
C60	C	-1.082218	0.395927	1.078634
H61	H	-1.134016	0.003735	0.092966
H62	H	-0.634016	0.503735	0.592966
H63	H	-1.090526	-0.354693	0.137977
H64	H	-0.590526	0.145307	0.637977
H65	H	-1.708175	0.215541	0.000074
H66	H	-1.208175	0.715541	0.500074
O67	O	-1.674241	-0.013279	0.655841
O68	O	-1.174241	0.486721	1.155841
H69	H	-1.733666	0.045359	0.582263
H70	H	-1.233666	0.545359	1.082263
O71	O	-0.906933	0.027569	0.123707
O72	O	-0.406933	0.527569	0.623707
H73	H	-0.802569	0.034561	0.121618
H74	H	-0.302569	0.534561	0.621618
H75	H	-1.701499	0.465003	0.000065
H76	H	-1.201499	0.965003	0.500065
H77	H	-1.404941	0.384846	0.000056
H78	H	-0.904941	0.884846	0.500056
O79	O	-1.378266	0.237930	0.000065
O80	O	-0.878266	0.737930	0.500065
H81	H	-1.371234	0.296601	-0.092444
H82	H	-0.871234	0.796601	0.407556
O83	O	-1.674158	-0.013237	0.344240
O84	O	-1.174158	0.486763	0.844240
H85	H	-1.659697	-0.027483	0.232917
H86	H	-1.159697	0.472517	0.732917
H87	H	-1.431641	-0.252695	0.588150
H88	H	-0.931641	0.247305	1.088150
O89	O	-1.409077	-0.274966	0.430912
O90	O	-0.909077	0.225034	0.930912
H91	H	-1.346819	-0.221993	0.496038
H92	H	-0.846819	0.278007	0.996038
H93	H	-0.914592	0.009545	-0.091856
H94	H	-0.414592	0.509545	0.408144
H95	H	-0.891699	-0.200152	-0.226552
H96	H	-0.391699	0.299848	0.273448
O97	O	-1.146738	0.021263	-0.123232
O98	O	-0.646738	0.521263	0.376768
H99	H	-1.105484	-0.023651	-0.217383
H100	H	-0.605484	0.476349	0.282617
O101	O	-0.856254	-0.381592	-0.137491
O102	O	-0.356254	0.118408	0.362509
H103	H	-0.930193	-0.448575	-0.141202
H104	H	-0.430193	0.051425	0.358798
H105	H	-1.088721	-0.356064	-0.134397
H106	H	-0.588721	0.143936	0.365603
H107	H	-0.887842	-0.207418	0.226702
H108	H	-0.387842	0.292582	0.726702
O109	O	-1.122847	-0.192794	-0.257351
O110	O	-0.622847	0.307206	0.242649
H111	H	-1.227206	-0.199869	-0.258846
H112	H	-0.727206	0.300131	0.241154
O113	O	-1.120636	-0.188995	0.257172
O114	O	-0.620636	0.311005	0.757172
H115	H	-1.099907	-0.089450	0.256131
H116	H	-0.599907	0.410550	0.756131
O117	O	-0.856737	-0.384989	0.129638
O118	O	-0.356737	0.115011	0.629638
H119	H	-0.793618	-0.400015	0.039280
H120	H	-0.293618	0.099985	0.539280
