data_functionalizedCrystal
_audit_creation_method	'MofGen! by Chris Wilmer'
_symmetry_space_group_name_H-M	'P1'
_symmetry_Int_Tables_number	1
_symmetry_cell_setting	triclinic
loop_
_symmetry_equiv_pos_as_xyz
  x,y,z
_cell_length_a	12.759401
_cell_length_b	16.959454
_cell_length_c	12.759393
_cell_angle_alpha	89.969082
_cell_angle_beta	89.982620
_cell_angle_gamma	90.020236
loop_
_atom_site_label
_atom_site_type_symbol
_atom_site_fract_x
_atom_site_fract_y
_atom_site_fract_z
Zn1	Zn	1.606205	-0.314630	-0.593988
Zn2	Zn	1.606086	-0.446832	-0.418310
Zn3	Zn	1.430510	-0.314672	-0.418327
Zn4	Zn	1.430479	-0.446771	-0.593952
O5	O	1.518320	-0.380726	-0.506144
O6	O	1.753210	-0.332175	-0.570692
O7	O	1.582759	-0.429344	-0.271291
O8	O	1.453879	-0.204055	-0.441651
O9	O	1.753123	-0.429303	-0.441622
O10	O	1.582961	-0.204025	-0.570708
O11	O	1.453764	-0.332246	-0.271304
O12	O	1.283485	-0.332187	-0.441616
O13	O	1.453826	-0.429199	-0.740978
O14	O	1.283462	-0.429239	-0.570647
O15	O	1.582931	-0.332116	-0.741004
O16	O	1.582728	-0.557435	-0.441588
O17	O	1.453711	-0.557390	-0.570631
C18	C	1.245352	-0.380712	-0.506130
C19	C	1.128576	-0.380724	-0.506149
C20	C	1.073729	-0.431341	-0.573224
C21	C	0.964005	-0.431351	-0.573235
C22	C	0.963984	-0.330126	-0.439087
C23	C	1.073706	-0.330113	-0.439082
C24	C	1.073741	-0.489784	-0.650670
C25	C	0.964017	-0.489794	-0.650681
C26	C	1.518232	-0.586092	-0.506126
C27	C	1.518290	-0.673949	-0.506154
C28	C	1.451238	-1.045431	-0.573330
C29	C	1.585695	-1.045418	-0.439066
C30	C	1.585658	-0.962872	-0.439056
C31	C	1.518409	-0.921602	-0.506183
C32	C	1.451197	-0.962878	-0.573320
C33	C	1.652861	-0.921590	-0.371913
C34	C	1.652826	-0.839039	-0.371900
C35	C	1.585582	-0.797768	-0.439033
C36	C	1.518368	-0.839048	-0.506173
C37	C	1.451119	-0.797778	-0.573300
C38	C	1.383909	-0.839057	-0.640447
C39	C	1.383952	-0.921606	-0.640453
C40	C	1.585539	-0.715219	-0.439027
C41	C	1.451078	-0.715225	-0.573291
C42	C	1.792353	-0.380741	-0.506159
C43	C	1.909130	-0.380748	-0.506165
C44	C	1.518388	-0.380646	-0.780178
C45	C	1.518417	-0.380611	-0.896954
C46	C	1.518437	-0.174558	-0.506185
C47	C	1.518487	-0.086701	-0.506203
C48	C	1.451278	-0.330043	-0.951829
C49	C	1.451310	-0.330020	-1.061553
C50	C	1.585629	-0.431135	-1.061518
C51	C	1.585591	-0.431161	-0.951796
C52	C	1.373733	-0.271663	-0.951850
C53	C	1.373765	-0.271639	-1.061574
C54	C	1.518312	-0.380749	-0.233177
C55	C	1.518487	-0.380561	-0.116401
H56	H	0.930020	-0.467943	-0.728033
O57	O	1.658007	-0.485709	-0.892621
H58	H	1.610943	-0.525938	-0.842629
O59	O	0.924523	-0.570856	-0.621615
H60	H	0.992206	-0.610531	-0.607366
O61	O	1.271379	-0.300663	-1.106661
H62	H	1.235962	-0.253587	-1.155634
O63	O	1.658022	-0.670694	-0.366618
H64	H	1.704793	-0.713260	-0.319945
O65	O	1.725322	-0.794522	-0.299489
H66	H	1.778724	-0.756862	-0.346562
H67	H	1.396520	-1.079044	-0.628001
O68	O	1.412380	-0.194655	-0.906779
H69	H	1.360896	-0.145948	-0.933688
H70	H	1.395590	-0.210412	-1.091370
H71	H	1.118358	-0.288891	-0.384470
O72	O	1.378529	-0.670719	-0.645685
H73	H	1.396499	-0.686515	-0.728161
O74	O	0.904805	-0.275558	-0.366726
H75	H	0.819293	-0.284078	-0.377986
H76	H	1.329150	-0.805446	-0.695097
O77	O	1.311445	-0.966125	-0.712851
H78	H	1.322759	-1.030459	-0.701563
O79	O	1.118795	-0.566771	-0.611888
H80	H	1.167714	-0.555669	-0.541505
O81	O	1.113242	-0.468149	-0.758492
H82	H	1.045563	-0.457560	-0.811282
H83	H	1.640439	-1.079025	-0.384408
O84	O	1.725429	-0.966099	-0.299551
H85	H	1.714188	-1.030434	-0.310864
H86	H	1.640320	-0.472290	-1.106184
H87	H	1.292342	-0.288056	-0.922072
