data_functionalizedCrystal
_audit_creation_method	'MofGen! by Chris Wilmer'
_symmetry_space_group_name_H-M	'P1'
_symmetry_Int_Tables_number	1
_symmetry_cell_setting	triclinic
loop_
_symmetry_equiv_pos_as_xyz
  x,y,z
_cell_length_a	10.654550
_cell_length_b	14.853567
_cell_length_c	9.130313
_cell_angle_alpha	90.002541
_cell_angle_beta	89.996220
_cell_angle_gamma	84.059917
loop_
_atom_site_label
_atom_site_type_symbol
_atom_site_fract_x
_atom_site_fract_y
_atom_site_fract_z
O1	O	1.666519	0.126622	-0.121906
O2	O	1.300915	0.138686	-0.121881
O3	O	1.493483	0.001476	-0.121899
O4	O	1.473951	0.263831	-0.121889
O5	O	1.493480	0.001480	0.121700
O6	O	1.300912	0.138690	0.121717
O7	O	1.666516	0.126626	0.121693
Cu8	Cu	1.483714	0.132658	0.143948
Cu9	Cu	1.483717	0.132654	-0.144136
O10	O	1.473948	0.263835	0.121710
C11	C	1.254125	0.137802	-0.000079
C12	C	1.114709	0.135152	-0.000070
C13	C	1.034384	0.215939	-0.000088
C14	C	0.903389	0.213443	-0.000114
C15	C	0.933057	0.049367	-0.000109
C16	C	1.064050	0.051863	-0.000073
C17	C	1.017254	0.310667	-0.000097
C18	C	0.886260	0.308171	-0.000123
C19	C	1.492596	-0.032115	-0.000104
C20	C	1.489944	-0.132213	-0.000116
C21	C	1.364344	-0.545419	-0.000080
C22	C	1.593119	-0.565475	-0.000095
C23	C	1.595613	-0.471428	-0.000104
C24	C	1.482470	-0.414372	-0.000099
C25	C	1.366834	-0.451363	-0.000084
C26	C	1.711247	-0.434430	-0.000104
C27	C	1.713745	-0.340378	-0.000111
C28	C	1.600601	-0.283320	-0.000116
C29	C	1.484961	-0.320316	-0.000103
C30	C	1.371818	-0.263260	-0.000097
C31	C	1.256176	-0.300254	-0.000095
C32	C	1.253691	-0.394305	-0.000089
C33	C	1.603087	-0.189269	-0.000122
C34	C	1.374308	-0.169204	-0.000102
C35	C	1.713306	0.127510	-0.000113
C36	C	1.852722	0.130160	-0.000131
C37	C	1.474835	0.297427	-0.000088
C38	C	1.477487	0.397525	-0.000085
N39	N	1.483721	0.132661	0.346570
N40	N	1.483720	0.132644	-0.346759
C41	C	1.569012	0.071925	0.423214
C42	C	1.569009	0.071914	0.576551
C43	C	1.398420	0.193382	0.576586
C44	C	1.398418	0.193388	0.423252
C45	C	1.667504	0.001799	0.423196
C46	C	1.667501	0.001788	0.576532
H47	H	1.129447	-0.013921	-0.000037
C48	C	0.917978	-0.091247	0.125112
C49	C	0.877366	-0.042181	-0.000121
H50	H	0.883591	-0.147763	0.125104
H51	H	1.007477	-0.101320	0.125121
H52	H	0.890388	-0.057936	0.210046
H53	H	0.904965	-0.075488	-0.085055
H54	H	0.787848	-0.032110	-0.000142
H55	H	1.758460	0.023756	0.375632
H56	H	1.328968	0.242825	0.639037
H57	H	1.046200	0.347716	0.101855
C58	C	0.962716	0.375587	-0.235337
C59	C	1.064979	0.351389	-0.142063
H60	H	0.992183	0.400730	-0.322977
H61	H	0.921969	0.323412	-0.258163
H62	H	0.904654	0.419043	-0.188132
H63	H	1.123037	0.307928	-0.189264
H64	H	1.105746	0.403571	-0.119240
C65	C	1.118178	-0.488456	-0.125282
C66	C	1.126589	-0.434976	-0.000070
H67	H	1.039715	-0.513571	-0.125259
H68	H	1.123889	-0.452188	-0.210221
H69	H	1.185217	-0.535888	-0.125267
H70	H	1.059555	-0.387540	-0.000090
H71	H	1.120865	-0.471246	0.084891
C72	C	0.873962	0.296152	0.261617
C73	C	0.824203	0.346817	0.141853
H74	H	0.835658	0.320012	0.349267
H75	H	0.857490	0.234899	0.250377
H76	H	0.962485	0.299199	0.266440
H77	H	0.735681	0.343764	0.137024
H78	H	0.840665	0.408085	0.153096
H79	H	0.844157	0.343862	-0.102075
C80	C	1.158430	-0.147171	-0.000090
C81	C	1.131812	-0.237532	-0.000091
H82	H	1.081654	-0.108448	-0.000097
H83	H	1.205827	-0.135887	0.084854
H84	H	1.205846	-0.135893	-0.085044
H85	H	1.084403	-0.248811	0.084868
H86	H	1.084395	-0.248820	-0.085044
C87	C	1.849266	-0.246261	-0.125363
C88	C	1.840853	-0.299716	-0.000130
H89	H	1.927735	-0.221154	-0.125371
H90	H	1.843541	-0.282543	-0.210288
H91	H	1.782236	-0.198823	-0.125346
H92	H	1.907879	-0.347159	-0.000153
H93	H	1.846591	-0.263432	0.084816
C94	C	1.505026	-0.098346	0.593336
C95	C	1.627267	-0.086626	0.640708
H96	H	1.480202	-0.152934	0.632945
H97	H	1.448316	-0.048737	0.625507
H98	H	1.503668	-0.101331	0.489426
H99	H	1.628623	-0.083634	0.744619
H100	H	1.683993	-0.136248	0.608546
H101	H	1.646781	-0.067496	0.381574
C102	C	1.937632	-0.444815	-0.000109
C103	C	1.835607	-0.497144	-0.000112
H104	H	2.014409	-0.483538	-0.000109
H105	H	1.933849	-0.407717	-0.085049
H106	H	1.933839	-0.407713	0.084849
H107	H	1.839395	-0.534242	-0.085076
H108	H	1.839392	-0.534259	0.084836
H109	H	1.697240	-0.159152	-0.000114
H110	H	1.282173	-0.122754	-0.000104
C111	C	1.890424	-0.043496	0.581569
C112	C	1.797565	0.022636	0.632724
H113	H	1.970716	-0.030622	0.616255
H114	H	1.873131	-0.101228	0.616228
H115	H	1.890413	-0.043477	0.477526
H116	H	1.797570	0.022612	0.736768
H117	H	1.814863	0.080383	0.598072
C118	C	1.229792	0.313446	0.438695
C119	C	1.304657	0.260145	0.339003
H120	H	1.171911	0.354662	0.386680
H121	H	1.184570	0.275609	0.498495
H122	H	1.282127	0.346226	0.498504
H123	H	1.252323	0.227360	0.279201
H124	H	1.349882	0.297987	0.279178
H125	H	1.270191	-0.575545	-0.000084
H126	H	1.685234	-0.611936	-0.000088
