data_functionalizedCrystal
_audit_creation_method	'MofGen! by Chris Wilmer'
_symmetry_space_group_name_H-M	'P1'
_symmetry_Int_Tables_number	1
_symmetry_cell_setting	triclinic
loop_
_symmetry_equiv_pos_as_xyz
  x,y,z
_cell_length_a	29.839134
_cell_length_b	29.839131
_cell_length_c	29.839125
_cell_angle_alpha	90.017709
_cell_angle_beta	89.978020
_cell_angle_gamma	89.963719
loop_
_atom_site_label
_atom_site_type_symbol
_atom_site_fract_x
_atom_site_fract_y
_atom_site_fract_z
Zn1	Zn	0.686720	0.178978	-0.254125
Zn2	Zn	1.186720	0.678978	0.245875
Zn3	Zn	0.686652	0.254090	-0.178995
Zn4	Zn	1.186652	0.754090	0.321005
Zn5	Zn	0.611602	0.178968	-0.178995
Zn6	Zn	1.111602	0.678968	0.321005
Zn7	Zn	0.611550	0.254075	-0.254083
Zn8	Zn	1.111550	0.754075	0.245917
O9	O	0.649131	0.216528	-0.216549
O10	O	1.149131	0.716528	0.283451
O11	O	0.749578	0.188952	-0.244176
O12	O	1.249578	0.688952	0.255824
O13	O	0.676690	0.244127	-0.116128
O14	O	1.176690	0.744127	0.383872
O15	O	0.621617	0.116102	-0.188978
O16	O	1.121617	0.616102	0.311022
O17	O	0.749528	0.244137	-0.188979
O18	O	1.249528	0.744137	0.311021
O19	O	0.676805	0.116109	-0.244176
O20	O	1.176805	0.616109	0.255824
O21	O	0.621551	0.188935	-0.116127
O22	O	1.121551	0.688935	0.383873
O23	O	0.548728	0.188921	-0.188938
O24	O	1.048728	0.688921	0.311062
O25	O	0.621528	0.244111	-0.316956
O26	O	1.121528	0.744111	0.183044
O27	O	0.548690	0.244101	-0.244105
O28	O	1.048690	0.744101	0.255895
O29	O	0.676755	0.188937	-0.316987
O30	O	1.176755	0.688937	0.183013
O31	O	0.676639	0.316955	-0.188938
O32	O	1.176639	0.816955	0.311062
O33	O	0.621462	0.316944	-0.244105
O34	O	1.121462	0.816944	0.255895
C35	C	0.532408	0.216509	-0.216517
C36	C	1.032408	0.716509	0.283483
C37	C	0.482474	0.216511	-0.216514
C38	C	0.982474	0.716511	0.283486
C39	C	0.649050	0.333250	-0.216527
C40	C	1.149050	0.833250	0.283473
C41	C	0.649056	0.383185	-0.216533
C42	C	1.149056	0.883185	0.283467
C43	C	0.649143	0.216524	-0.333728
C44	C	1.149143	0.716524	0.166272
C45	C	0.649148	0.216522	-0.383662
C46	C	1.149148	0.716522	0.116338
C47	C	0.172820	0.245303	-0.245240
C48	C	0.672820	0.745303	0.254760
C49	C	-0.014853	0.245315	-0.245260
C50	C	0.485147	0.745315	0.254740
O51	O	-0.039127	0.269774	-0.269665
O52	O	0.460873	0.769774	0.230335
N53	N	-0.038311	0.216544	-0.216583
N54	N	0.461689	0.716544	0.283417
C55	C	-0.014848	0.187766	-0.187902
C56	C	0.485152	0.687766	0.312098
O57	O	-0.039107	0.163291	-0.163514
O58	O	0.460893	0.663291	0.336486
C59	C	0.172824	0.187751	-0.187884
C60	C	0.672824	0.687751	0.312116
C61	C	0.196280	0.216527	-0.216560
C62	C	0.696280	0.716527	0.283440
C63	C	0.196276	0.274076	-0.273913
C64	C	0.696276	0.774076	0.226087
C65	C	0.243191	0.274075	-0.273906
C66	C	0.743191	0.774075	0.226094
C67	C	0.266651	0.245299	-0.245226
C68	C	0.766651	0.745299	0.254774
C69	C	0.243195	0.216526	-0.216553
C70	C	0.743195	0.716526	0.283447
C71	C	0.196286	0.158971	-0.159205
C72	C	0.696286	0.658971	0.340795
C73	C	0.243207	0.158969	-0.159204
C74	C	0.743207	0.658969	0.340796
C75	C	0.266663	0.187745	-0.187880
C76	C	0.766663	0.687745	0.312120
C77	C	0.313570	0.187749	-0.187865
C78	C	0.813570	0.687749	0.312135
N79	N	0.337029	0.216520	-0.216542
N80	N	0.837029	0.716520	0.283458
C81	C	0.313569	0.245295	-0.245222
C82	C	0.813569	0.745295	0.254778
C83	C	-0.113379	0.187776	-0.187912
C84	C	0.386621	0.687776	0.312088
C85	C	-0.160297	0.187780	-0.187916
C86	C	0.339703	0.687780	0.312084
C87	C	-0.160298	0.245329	-0.245275
C88	C	0.339702	0.745329	0.254725
C89	C	-0.113380	0.245327	-0.245269
C90	C	0.386620	0.745327	0.254731
C91	C	-0.089921	0.216547	-0.216589
C92	C	0.410079	0.716547	0.283411
C93	C	0.412095	0.245290	-0.245205
C94	C	0.912095	0.745290	0.254795
C95	C	0.459014	0.245287	-0.245194
C96	C	0.959014	0.745287	0.254806
C97	C	0.459012	0.187736	-0.187837
C98	C	0.959012	0.687736	0.312163
C99	C	0.412096	0.187740	-0.187846
C100	C	0.912096	0.687740	0.312154
C101	C	0.388639	0.216519	-0.216534
C102	C	0.888639	0.716519	0.283466
O103	O	0.337873	0.163299	-0.163477
O104	O	0.837873	0.663299	0.336523
O105	O	0.337836	0.269759	-0.269613
O106	O	0.837836	0.769759	0.230387
C107	C	0.125905	0.245304	-0.245247
C108	C	0.625905	0.745304	0.254753
C109	C	0.102449	0.216531	-0.216574
C110	C	0.602449	0.716531	0.283426
C111	C	0.125909	0.187755	-0.187893
C112	C	0.625909	0.687755	0.312107
C113	C	0.055531	0.216535	-0.216577
C114	C	0.555531	0.716535	0.283423
C115	C	0.032071	0.245310	-0.245258
C116	C	0.532071	0.745310	0.254742
C117	C	0.055529	0.274082	-0.273934
C118	C	0.555529	0.774082	0.226066
C119	C	0.102445	0.274080	-0.273927
C120	C	0.602445	0.774080	0.226073
C121	C	0.102451	0.158984	-0.159217
C122	C	0.602451	0.658984	0.340783
C123	C	0.055535	0.158989	-0.159226
C124	C	0.555535	0.658989	0.340774
C125	C	0.032075	0.187764	-0.187906
C126	C	0.532075	0.687764	0.312094
C127	C	0.766309	0.216547	-0.216582
C128	C	1.266309	0.716547	0.283418
C129	C	0.816244	0.216555	-0.216596
C130	C	1.316244	0.716555	0.283404
C131	C	0.649225	0.099349	-0.216582
C132	C	1.149225	0.599349	0.283418
C133	C	0.649265	0.049415	-0.216595
C134	C	1.149265	0.549415	0.283405
C135	C	0.677914	0.692821	-0.187866
C136	C	1.177914	1.192821	0.312134
C137	C	0.677969	0.880494	-0.187883
C138	C	1.177969	1.380494	0.312117
O139	O	0.702441	0.904753	-0.163493
O140	O	1.202441	1.404753	0.336507
N141	N	0.649224	0.903970	-0.216583
N142	N	1.149224	1.403970	0.283417
C143	C	0.620465	0.880524	-0.245283
C144	C	1.120465	1.380524	0.254717
O145	O	0.596020	0.904798	-0.269698
O146	O	1.096020	1.404798	0.230302
C147	C	0.620412	0.692852	-0.245268
C148	C	1.120412	1.192852	0.254732
C149	C	0.649156	0.669379	-0.216563
C150	C	1.149156	1.169379	0.283437
C151	C	0.706656	0.669348	-0.159164
C152	C	1.206656	1.169348	0.340836
C153	C	0.706640	0.622433	-0.159158
C154	C	1.206640	1.122433	0.340842
C155	C	0.677882	0.598990	-0.187854
C156	C	1.177882	1.098990	0.312146
C157	C	0.649140	0.622463	-0.216557
C158	C	1.149140	1.122463	0.283443
C159	C	0.591656	0.669407	-0.273969
C160	C	1.091656	1.169407	0.226031
C161	C	0.591646	0.622486	-0.273964
C162	C	1.091646	1.122486	0.226036
C163	C	0.620390	0.599013	-0.245259
C164	C	1.120390	1.099013	0.254741
C165	C	0.620367	0.552106	-0.245248
C166	C	1.120367	1.052106	0.254752
N167	N	0.649112	0.528630	-0.216548
N168	N	1.149112	1.028630	0.283452
C169	C	0.677869	0.552072	-0.187851
C170	C	1.177869	1.052072	0.312149
C171	C	0.620494	0.979055	-0.245289
C172	C	1.120494	1.479055	0.254711
C173	C	0.620507	1.025973	-0.245292
C174	C	1.120507	1.525973	0.254708
C175	C	0.678012	1.025939	-0.187893
C176	C	1.178012	1.525939	0.312107
C177	C	0.677996	0.979021	-0.187887
C178	C	1.177996	1.479021	0.312113
C179	C	0.649239	0.955579	-0.216589
C180	C	1.149239	1.455579	0.283411
C181	C	0.677834	0.453547	-0.187841
C182	C	1.177834	0.953547	0.312159
C183	C	0.677814	0.406627	-0.187836
C184	C	1.177814	0.906627	0.312164
C185	C	0.620311	0.406664	-0.245237
C186	C	1.120311	0.906664	0.254763
C187	C	0.620329	0.453580	-0.245240
C188	C	1.120329	0.953580	0.254760
C189	C	0.649094	0.477020	-0.216540
C190	C	1.149094	0.977020	0.283460
O191	O	0.595912	0.527818	-0.269629
O192	O	1.095912	1.027818	0.230371
O193	O	0.702318	0.527791	-0.163447
O194	O	1.202318	1.027791	0.336553
C195	C	0.677930	0.739737	-0.187872
C196	C	1.177930	1.239737	0.312128
C197	C	0.649188	0.763210	-0.216574
C198	C	1.149188	1.263210	0.283426
C199	C	0.620430	0.739767	-0.245271
C200	C	1.120430	1.239767	0.254729
C201	C	0.649200	0.810128	-0.216578
C202	C	1.149200	1.310128	0.283422
C203	C	0.677958	0.833570	-0.187881
C204	C	1.177958	1.333570	0.312119
C205	C	0.706703	0.810094	-0.159181
C206	C	1.206703	1.310094	0.340819
C207	C	0.706687	0.763179	-0.159175
C208	C	1.206687	1.263179	0.340825
C209	C	0.591685	0.763243	-0.273971
C210	C	1.091685	1.263243	0.226029
C211	C	0.591703	0.810158	-0.273974
C212	C	1.091703	1.310158	0.226026
C213	C	0.620461	0.833601	-0.245277
C214	C	1.120461	1.333601	0.254723
C215	C	0.677935	0.187718	-0.693325
C216	C	1.177935	0.687718	-0.193325
C217	C	0.677957	0.187680	-0.880998
C218	C	1.177957	0.687680	-0.380998
O219	O	0.702399	0.163232	-0.905279
O220	O	1.202399	0.663232	-0.405279
N221	N	0.649208	0.216402	-0.904448
N222	N	1.149208	0.716402	-0.404448
C223	C	0.620449	0.245133	-0.880976
C224	C	1.120449	0.745133	-0.380976
O225	O	0.595993	0.269559	-0.905228
O226	O	1.095993	0.769559	-0.405228
C227	C	0.620424	0.245169	-0.693304
C228	C	1.120424	0.745169	-0.193304
C229	C	0.649179	0.216448	-0.669857
C230	C	1.149179	0.716448	-0.169857
C231	C	0.706687	0.158999	-0.669877
C232	C	1.206687	0.658999	-0.169877
C233	C	0.706683	0.159011	-0.622962
C234	C	1.206683	0.659011	-0.122962
C235	C	0.677927	0.187741	-0.599494
C236	C	1.177927	0.687741	-0.099494
C237	C	0.649175	0.216460	-0.622941
C238	C	1.149175	0.716460	-0.122941
C239	C	0.591663	0.273898	-0.669833
C240	C	1.091663	0.773898	-0.169833
C241	C	0.591659	0.273903	-0.622912
C242	C	1.091659	0.773903	-0.122912
C243	C	0.620414	0.245183	-0.599465
C244	C	1.120414	0.745183	-0.099465
C245	C	0.620415	0.245202	-0.552558
C246	C	1.120415	0.745202	-0.052558
N247	N	0.649164	0.216480	-0.529108
N248	N	1.149164	0.716480	-0.029108
C249	C	0.677920	0.187749	-0.552576
C250	C	1.177920	0.687749	-0.052576
C251	C	0.620464	0.245113	-0.979507
C252	C	1.120464	0.745113	-0.479507
C253	C	0.620471	0.245105	-1.026425
C254	C	1.120471	0.745105	-0.526425
C255	C	0.677979	0.187650	-1.026443
C256	C	1.177979	0.687650	-0.526443
C257	C	0.677974	0.187661	-0.979524
C258	C	1.177974	0.687661	-0.479524
C259	C	0.649214	0.216391	-0.956057
C260	C	1.149214	0.716391	-0.456057
C261	C	0.677910	0.187776	-0.454050
C262	C	1.177910	0.687776	0.045950
C263	C	0.677904	0.187792	-0.407130
C264	C	1.177904	0.687792	0.092870
C265	C	0.620395	0.245244	-0.407116
C266	C	1.120395	0.745244	0.092884
C267	C	0.620401	0.245230	-0.454032
C268	C	1.120401	0.745230	0.045968
C269	C	0.649161	0.216493	-0.477497
C270	C	1.149161	0.716493	0.022503
O271	O	0.595982	0.269633	-0.528248
O272	O	1.095982	0.769633	-0.028248
O273	O	0.702366	0.163320	-0.528316
O274	O	1.202366	0.663320	-0.028316
C275	C	0.677939	0.187706	-0.740240
C276	C	1.177939	0.687706	-0.240240
C277	C	0.649187	0.216425	-0.763688
C278	C	1.149187	0.716425	-0.263688
C279	C	0.620431	0.245155	-0.740219
C280	C	1.120431	0.745155	-0.240219
C281	C	0.649194	0.216417	-0.810605
C282	C	1.149194	0.716417	-0.310605
C283	C	0.677950	0.187686	-0.834074
C284	C	1.177950	0.687686	-0.334074
C285	C	0.706699	0.158964	-0.810624
C286	C	1.206699	0.658964	-0.310624
C287	C	0.706695	0.158976	-0.763708
C288	C	1.206695	0.658976	-0.263708
C289	C	0.591682	0.273877	-0.763669
C290	C	1.091682	0.773877	-0.263669
C291	C	0.591689	0.273864	-0.810585
C292	C	1.091689	0.773864	-0.310585
C293	C	0.620445	0.245133	-0.834053
C294	C	1.120445	0.745133	-0.334053
C295	C	0.649145	0.216499	-0.099827
C296	C	1.149145	0.716499	0.400173
C297	C	0.649227	0.216374	-0.049893
C298	C	1.149227	0.716374	0.450107
H299	H	0.478110	0.268721	-0.268545
H300	H	0.978110	0.768721	0.231455
H301	H	0.597097	1.045080	-0.268662
H302	H	1.097097	1.545080	0.231338
Br303	Br	0.552665	0.312850	-0.842400
Br304	Br	1.052665	0.812850	-0.342400
H305	H	0.568292	0.829266	-0.297349
H306	H	1.068292	1.329266	0.202651
H307	H	0.393001	0.268723	-0.268566
H308	H	0.893001	0.768723	0.231434
H309	H	0.121547	0.135551	-0.135861
H310	H	0.621547	0.635551	0.364139
H311	H	0.596984	0.268637	-0.388000
H312	H	1.096984	0.768637	0.112000
H313	H	0.568265	0.297274	-0.744566
H314	H	1.068265	0.797274	-0.244566
Br315	Br	0.552623	0.312894	-0.591066
Br316	Br	1.052623	0.812894	-0.091066
Br317	Br	0.581381	0.284212	-0.485854
Br318	Br	1.081381	0.784212	0.014146
Br319	Br	0.716937	0.148772	-0.485889
Br320	Br	1.216937	0.648772	0.014111
H321	H	-0.094283	0.164339	-0.164556
H322	H	0.405717	0.664339	0.335444
H323	H	0.701402	0.959912	-0.164514
H324	H	1.201402	1.459912	0.335486
Br325	Br	0.745658	0.590584	-0.120205
Br326	Br	1.245658	1.090584	0.379795
H327	H	0.262285	0.297506	-0.297258
H328	H	0.762285	0.797506	0.202742
H329	H	0.596895	0.387570	-0.268600
H330	H	1.096895	0.887570	0.231400
Br331	Br	0.275042	0.119906	-0.120281
Br332	Br	0.775042	0.619906	0.379719
H333	H	0.177180	0.297509	-0.297271
H334	H	0.677180	0.797509	0.202729
Br335	Br	0.745706	0.120028	-0.591148
Br336	Br	1.245706	0.620028	-0.091148
Br337	Br	0.552639	0.312881	-0.701643
Br338	Br	1.052639	0.812881	-0.201643
H339	H	-0.094285	0.268759	-0.268619
H340	H	0.405715	0.768759	0.231381
H341	H	0.730110	0.135588	-0.744622
H342	H	1.230110	0.635588	-0.244622
Br343	Br	0.490859	0.148686	-0.148915
Br344	Br	0.990859	0.648686	0.351085
Br345	Br	0.581463	0.947248	-0.284244
Br346	Br	1.081463	1.447248	0.215756
H347	H	0.597044	0.268511	-0.960404
H348	H	1.097044	0.768511	-0.460404
H349	H	0.392998	0.164309	-0.164496
H350	H	0.892998	0.664309	0.335504
H351	H	0.121538	0.297512	-0.297278
H352	H	0.621538	0.797512	0.202722
Br353	Br	0.745727	0.119976	-0.842483
Br354	Br	1.245727	0.619976	-0.342483
Br355	Br	0.716825	0.374773	-0.148876
Br356	Br	1.216825	0.874773	0.351124
Br357	Br	0.745690	0.701154	-0.120214
Br358	Br	1.245690	1.201154	0.379786
H359	H	-0.179407	0.268759	-0.268628
H360	H	0.320593	0.768759	0.231372
H361	H	0.701427	1.045034	-0.164527
H362	H	1.201427	1.545034	0.335473
Br363	Br	-0.192123	0.148732	-0.148991
Br364	Br	0.307877	0.648732	0.351009
H365	H	0.036420	0.297513	-0.297286
H366	H	0.536420	0.797513	0.202714
Br367	Br	0.164465	0.119912	-0.120289
Br368	Br	0.664465	0.619912	0.379711
Br369	Br	0.023708	0.119933	-0.120303
Br370	Br	0.523708	0.619933	0.379697
H371	H	0.701258	0.472626	-0.164472
H372	H	1.201258	0.972626	0.335528
Br373	Br	0.581453	0.284093	-1.058240
Br374	Br	1.081453	0.784093	-0.558240
H375	H	0.568248	0.688511	-0.297342
H376	H	1.068248	1.188511	0.202658
Br377	Br	0.552654	0.731436	-0.312921
Br378	Br	1.052654	1.231436	0.187079
H379	H	0.568229	0.603402	-0.297337
H380	H	1.068229	1.103402	0.202663
H381	H	0.701321	0.164403	-0.388042
H382	H	1.201321	0.664403	0.111958
H383	H	0.596925	0.472692	-0.268615
H384	H	1.096925	0.972692	0.231385
H385	H	0.730093	0.744071	-0.135801
H386	H	1.230093	1.244071	0.364199
H387	H	0.730117	0.829189	-0.135814
H388	H	1.230117	1.329189	0.364186
Br389	Br	0.745724	0.120008	-0.701718
Br390	Br	1.245724	0.620008	-0.201718
H391	H	0.701393	0.164257	-1.045559
H392	H	1.201393	0.664257	-0.545559
Br393	Br	0.716999	0.148682	-0.947708
Br394	Br	1.216999	0.648682	-0.447708
