data_functionalizedCrystal
_audit_creation_method	'MofGen! by Chris Wilmer'
_symmetry_space_group_name_H-M	'P1'
_symmetry_Int_Tables_number	1
_symmetry_cell_setting	triclinic
loop_
_symmetry_equiv_pos_as_xyz
  x,y,z
_cell_length_a	14.519731
_cell_length_b	10.489716
_cell_length_c	12.996460
_cell_angle_alpha	90.002092
_cell_angle_beta	90.005673
_cell_angle_gamma	84.108994
loop_
_atom_site_label
_atom_site_type_symbol
_atom_site_fract_x
_atom_site_fract_y
_atom_site_fract_z
O1	O	1.224758	0.167335	0.085560
O2	O	1.724758	0.667335	0.585560
O3	O	0.956389	0.186997	0.085560
O4	O	1.456389	0.686997	0.585560
O5	O	1.096692	-0.008497	0.085564
O6	O	1.596692	0.491503	0.585564
O7	O	1.084455	0.362829	0.085556
O8	O	1.584455	0.862829	0.585556
O9	O	1.096677	-0.008508	-0.085570
O10	O	1.596677	0.491492	0.414430
O11	O	0.956375	0.186986	-0.085574
O12	O	1.456375	0.686986	0.414426
O13	O	1.224743	0.167324	-0.085574
O14	O	1.724743	0.667324	0.414426
Cu15	Cu	1.090557	0.177154	-0.101200
Cu16	Cu	1.590557	0.677154	0.398800
Cu17	Cu	1.090575	0.177167	0.101186
Cu18	Cu	1.590575	0.677167	0.601186
O19	O	1.084440	0.362818	-0.085578
O20	O	1.584440	0.862818	0.414422
C21	C	0.922018	0.186070	-0.000007
C22	C	1.422018	0.686070	0.499993
C23	C	0.819623	0.183310	-0.000006
C24	C	1.319623	0.683310	0.499994
C25	C	0.736466	0.181066	-0.000002
C26	C	1.236466	0.681066	0.499998
C27	C	0.632142	0.178264	-0.000001
C28	C	1.132142	0.678264	0.499999
C29	C	0.548991	0.176039	-0.000001
C30	C	1.048991	0.676039	0.499999
C31	C	0.444661	0.173236	0.000001
C32	C	0.944661	0.673236	0.500001
C33	C	1.095765	-0.056025	-0.000000
C34	C	1.595765	0.443975	0.500000
C35	C	1.093014	-0.197628	0.000009
C36	C	1.593014	0.302372	0.500009
C37	C	1.179052	-0.296189	-0.000000
C38	C	1.679052	0.203811	0.500000
C39	C	1.133595	-0.373075	0.084375
C40	C	1.633595	0.126925	0.584375
C41	C	1.133561	-0.373050	-0.084350
C42	C	1.633561	0.126950	0.415650
C43	C	1.047593	-0.272649	0.084454
C44	C	1.547593	0.227351	0.584454
C45	C	1.047571	-0.272618	-0.084346
C46	C	1.547571	0.227382	0.415654
C47	C	1.002051	-0.349454	0.000050
C48	C	1.502051	0.150546	0.500050
C49	C	1.259115	0.168251	-0.000005
C50	C	1.759115	0.668251	0.499995
C51	C	1.361510	0.171012	0.000001
C52	C	1.861510	0.671012	0.500001
C53	C	1.085367	0.410346	-0.000012
C54	C	1.585367	0.910346	0.499988
C55	C	1.088118	0.551949	-0.000014
C56	C	1.588118	1.051949	0.499986
N57	N	1.090552	0.177144	-0.243547
N58	N	1.590552	0.677144	0.256453
C59	C	1.090574	0.177168	-0.663361
C60	C	1.590574	0.677168	-0.163361
C61	C	1.090565	0.177166	-0.546556
C62	C	1.590565	0.677166	-0.046556
C63	C	1.090563	0.177157	-0.453458
C64	C	1.590563	0.677157	0.046542
C65	C	1.090554	0.177153	-0.336645
C66	C	1.590554	0.677153	0.163355
N67	N	1.090588	0.177167	0.243533
N68	N	1.590588	0.677167	0.743533
H69	H	1.253891	-0.272285	0.000085
H70	H	1.753891	0.227715	0.500085
H71	H	1.169921	-0.416941	0.155710
H72	H	1.669921	0.083059	0.655710
H73	H	1.011277	-0.228730	-0.155683
H74	H	1.511277	0.271270	0.344317
H75	H	1.011299	-0.228966	0.155866
H76	H	1.511299	0.271034	0.655866
H77	H	1.169893	-0.416902	-0.155681
H78	H	1.669893	0.083098	0.344319
H79	H	0.927156	-0.373112	0.000095
H80	H	1.427156	0.126888	0.500095
