data_functionalizedCrystal
_audit_creation_method	'MofGen! by Chris Wilmer'
_symmetry_space_group_name_H-M	'P1'
_symmetry_Int_Tables_number	1
_symmetry_cell_setting	triclinic
loop_
_symmetry_equiv_pos_as_xyz
  x,y,z
_cell_length_a	25.639239
_cell_length_b	25.639242
_cell_length_c	12.759393
_cell_angle_alpha	89.967370
_cell_angle_beta	90.035978
_cell_angle_gamma	89.966656
loop_
_atom_site_label
_atom_site_type_symbol
_atom_site_fract_x
_atom_site_fract_y
_atom_site_fract_z
Zn1	Zn	-0.208200	-0.799273	0.594308
Zn2	Zn	-0.295645	-0.799183	0.418611
Zn3	Zn	-0.208217	-0.711835	0.418607
Zn4	Zn	-0.295598	-0.711795	0.594212
O5	O	-0.251915	-0.755522	0.506434
O6	O	-0.219812	-0.872426	0.571043
O7	O	-0.284074	-0.787575	0.271589
O8	O	-0.135050	-0.723489	0.441952
O9	O	-0.284058	-0.872360	0.441959
O10	O	-0.135037	-0.787730	0.571039
O11	O	-0.219842	-0.723401	0.271586
O12	O	-0.219796	-0.638665	0.441860
O13	O	-0.283978	-0.723420	0.741246
O14	O	-0.283994	-0.638635	0.570876
O15	O	-0.219767	-0.787690	0.741316
O16	O	-0.368804	-0.787535	0.441867
O17	O	-0.368769	-0.723332	0.570880
C18	C	-0.251892	-0.619679	0.506358
C19	C	-0.251895	-0.561565	0.506350
C20	C	-0.218429	-0.310378	0.439345
C21	C	-0.218425	-0.364983	0.439335
O22	O	-0.189941	-0.393225	0.382320
N23	N	-0.251901	-0.392291	0.506393
C24	C	-0.285380	-0.364992	0.573473
O25	O	-0.313854	-0.393234	0.630510
C26	C	-0.285382	-0.310389	0.573487
C27	C	-0.251907	-0.283083	0.506418
C28	C	-0.184957	-0.283073	0.372282
C29	C	-0.184962	-0.228472	0.372291
C30	C	-0.218440	-0.201177	0.439363
C31	C	-0.251913	-0.228483	0.506427
C32	C	-0.318858	-0.283091	0.640572
C33	C	-0.318857	-0.228484	0.640581
C34	C	-0.285382	-0.201179	0.573511
C35	C	-0.285396	-0.146587	0.573508
N36	N	-0.251920	-0.119279	0.506450
C37	C	-0.218442	-0.146574	0.439378
C38	C	-0.285374	-0.479663	0.573438
C39	C	-0.285375	-0.534265	0.573419
C40	C	-0.218419	-0.534252	0.439283
C41	C	-0.218420	-0.479648	0.439297
C42	C	-0.251898	-0.452355	0.506380
C43	C	-0.218456	-0.031909	0.439401
C44	C	-0.218466	0.022697	0.439413
C45	C	-0.285420	0.022678	0.573553
C46	C	-0.285413	-0.031922	0.573538
C47	C	-0.251926	-0.059214	0.506458
O48	O	-0.313864	-0.118310	0.630497
O49	O	-0.189968	-0.118325	0.382359
C50	C	-0.387758	-0.755434	0.506386
C51	C	-0.445872	-0.755444	0.506401
C52	C	-0.806240	-0.789039	0.439372
C53	C	-0.860844	-0.789060	0.439386
O54	O	-0.889086	-0.817533	0.382342
N55	N	-0.888154	-0.755613	0.506504
C56	C	-0.860857	-0.722148	0.573620
O57	O	-0.889100	-0.693702	0.630712
C58	C	-0.806253	-0.722131	0.573611
C59	C	-0.778946	-0.755576	0.506481
C60	C	-0.778933	-0.822482	0.372248
C61	C	-0.724333	-0.822461	0.372232
C62	C	-0.697039	-0.788997	0.439341
C63	C	-0.724346	-0.755555	0.506465
C64	C	-0.778957	-0.688669	0.640732
C65	C	-0.724350	-0.688655	0.640717
C66	C	-0.697043	-0.722100	0.573587
C67	C	-0.642452	-0.722070	0.573559
N68	N	-0.615142	-0.755517	0.506441
C69	C	-0.642436	-0.788980	0.439332
C70	C	-0.975527	-0.722188	0.573637
C71	C	-1.030130	-0.722202	0.573642
C72	C	-1.030114	-0.789114	0.439408
C73	C	-0.975510	-0.789097	0.439398
C74	C	-0.948218	-0.755634	0.506518
C75	C	-0.527771	-0.788933	0.439304
C76	C	-0.473165	-0.788907	0.439292
C77	C	-0.473186	-0.721997	0.573529
C78	C	-0.527787	-0.722021	0.573538
C79	C	-0.555078	-0.755493	0.506422
O80	O	-0.614176	-0.693613	0.630576
O81	O	-0.614186	-0.817427	0.382260
C82	C	-0.115542	-0.755624	0.506506
C83	C	-0.057428	-0.755668	0.506536
C84	C	-0.251865	-0.755561	0.780468
C85	C	-0.251843	-0.755577	0.897245
C86	C	-0.251937	0.108106	0.506497
C87	C	-0.251944	0.049991	0.506485
C88	C	-0.251927	-0.755513	0.233467
C89	C	-0.251801	-0.755597	0.116691
C90	C	-0.218403	-0.789045	0.952145
C91	C	-0.218381	-0.789054	1.061869
C92	C	-0.285243	-0.722126	1.061783
C93	C	-0.285262	-0.722115	0.952061
H94	H	-0.157704	-0.206245	0.317676
O95	O	-0.351404	-0.201916	0.705603
C96	C	-0.385154	-0.170304	0.645680
H97	H	-0.366672	-0.162102	0.566128
H98	H	-0.392191	-0.131920	0.688464
H99	H	-0.423891	-0.191328	0.633993
O100	O	-0.185928	0.049283	0.374397
C101	C	-0.152187	0.080828	0.434326
H102	H	-0.170668	0.088990	0.513887
H103	H	-0.145169	0.119236	0.391557
H104	H	-0.113441	0.059768	0.445992
O105	O	-0.185840	-0.821490	1.115243
C106	C	-0.152060	-0.791755	1.178719
H107	H	-0.148831	-0.750576	1.145623
H108	H	-0.111826	-0.810696	1.179991
H109	H	-0.168206	-0.789951	1.261868
H110	H	-1.052358	-0.694963	0.628296
H111	H	-0.550021	-0.694789	0.628204
H112	H	-0.312453	-0.694883	1.106428
O113	O	-0.186012	-0.821600	0.898846
C114	C	-0.215792	-0.855333	0.835365
H115	H	-0.256966	-0.858539	0.868408
H116	H	-0.196886	-0.895583	0.834158
H117	H	-0.217606	-0.839157	0.752196
H118	H	-0.953308	-0.694934	0.628290
O119	O	-0.446723	-0.689523	0.638868
C120	C	-0.460004	-0.700944	0.743607
H121	H	-0.499635	-0.721048	0.745836
H122	H	-0.461880	-0.663203	0.790651
H123	H	-0.429239	-0.727816	0.779028
O124	O	-0.185915	-0.058334	0.374135
C125	C	-0.156369	-0.022516	0.314968
H126	H	-0.177789	0.016418	0.311279
H127	H	-0.150746	-0.038261	0.232201
H128	H	-0.116681	-0.016741	0.353578
O129	O	-0.805530	-0.656257	0.706005
C130	C	-0.837048	-0.686020	0.773956
H131	H	-0.845214	-0.725651	0.736978
H132	H	-0.875455	-0.664730	0.788025
H133	H	-0.815961	-0.691748	0.851809
O134	O	-0.554338	-0.821377	0.374070
C135	C	-0.585972	-0.791647	0.306132
H136	H	-0.594178	-0.752015	0.343090
H137	H	-0.624352	-0.812966	0.292120
H138	H	-0.564966	-0.785919	0.228251
H139	H	-0.953280	-0.816331	0.384736
O140	O	-0.152418	-0.309501	0.307020
C141	C	-0.122870	-0.273680	0.247862
H142	H	-0.144289	-0.234746	0.244176
H143	H	-0.117245	-0.289422	0.165093
H144	H	-0.083183	-0.267908	0.286476
O145	O	-0.317798	-0.689586	0.898886
C146	C	-0.347285	-0.660048	0.970794
H147	H	-0.349088	-0.681468	1.049024
H148	H	-0.388483	-0.654435	0.939061
H149	H	-0.328129	-0.620354	0.982444
H150	H	-0.191160	-0.457420	0.384687
O151	O	-0.446721	-0.821447	0.374047
C152	C	-0.482524	-0.850978	0.314804
H153	H	-0.521428	-0.852790	0.357856
H154	H	-0.466715	-0.892170	0.303682
H155	H	-0.488382	-0.831855	0.234971
O156	O	-0.185967	-0.560829	0.374080
C157	C	-0.215692	-0.592367	0.306092
H158	H	-0.255338	-0.600534	0.342996
H159	H	-0.194387	-0.630772	0.292093
H160	H	-0.221388	-0.571297	0.228212
H161	H	-0.312640	-0.556493	0.628023
H162	H	-0.702131	-0.661406	0.695377
H163	H	-0.346117	-0.305314	0.695187
O164	O	-0.317950	-0.453232	0.638632
C165	C	-0.347484	-0.489050	0.697827
H166	H	-0.349262	-0.527955	0.654769
H167	H	-0.388687	-0.473260	0.708889
H168	H	-0.328385	-0.494897	0.777688
H169	H	-0.801150	-0.849735	0.317599
H170	H	-0.312679	0.044912	0.628158
H171	H	-0.702103	-0.849696	0.317572
O172	O	-0.317948	-0.058369	0.638782
C173	C	-0.347508	-0.022566	0.697961
H174	H	-0.326101	0.016347	0.701672
H175	H	-0.353129	-0.038363	0.780719
H176	H	-0.387196	-0.016732	0.659346
O177	O	-1.056637	-0.821714	0.374410
C178	C	-1.088151	-0.855464	0.434379
H179	H	-1.071657	-0.858612	0.517134
H180	H	-1.088717	-0.895731	0.396552
H181	H	-1.129559	-0.839341	0.437943
