data_functionalizedCrystal
_audit_creation_method	'MofGen! by Chris Wilmer'
_symmetry_space_group_name_H-M	'P1'
_symmetry_Int_Tables_number	1
_symmetry_cell_setting	triclinic
loop_
_symmetry_equiv_pos_as_xyz
  x,y,z
_cell_length_a	13.330367
_cell_length_b	16.109301
_cell_length_c	16.109301
_cell_angle_alpha	96.538519
_cell_angle_beta	90.006067
_cell_angle_gamma	89.995166
loop_
_atom_site_label
_atom_site_type_symbol
_atom_site_fract_x
_atom_site_fract_y
_atom_site_fract_z
O1	O	0.083363	-1.103136	0.106867
O2	O	0.416697	-0.769802	0.440200
O3	O	0.750030	-0.436469	0.773533
O4	O	0.083380	-0.861074	0.120166
O5	O	0.416713	-0.527740	0.453499
O6	O	0.750046	-0.194407	0.786833
O7	O	0.083361	-0.988754	-0.007515
O8	O	0.416694	-0.655421	0.325819
O9	O	0.750027	-0.322088	0.659152
O10	O	0.083382	-0.975455	0.234547
O11	O	0.416715	-0.642122	0.567881
O12	O	0.750049	-0.308788	0.901214
O13	O	-0.083486	-0.988736	-0.007518
O14	O	0.249847	-0.655402	0.325816
O15	O	0.583180	-0.322069	0.659149
O16	O	-0.083468	-0.861055	0.120163
O17	O	0.249866	-0.527722	0.453496
O18	O	0.583199	-0.194388	0.786830
O19	O	-0.083484	-1.103117	0.106864
O20	O	0.249849	-0.769784	0.440197
O21	O	0.583183	-0.436450	0.773530
Cu22	Cu	-0.098710	-0.982084	0.113513
Cu23	Cu	0.234623	-0.648751	0.446846
Cu24	Cu	0.567957	-0.315418	0.780180
Cu25	Cu	0.098606	-0.982106	0.113516
Cu26	Cu	0.431939	-0.648773	0.446850
Cu27	Cu	0.765273	-0.315440	0.780183
O28	O	-0.083465	-0.975436	0.234544
O29	O	0.249868	-0.642103	0.567878
O30	O	0.583202	-0.308770	0.901211
C31	C	-0.000042	-0.830090	0.119626
C32	C	0.333291	-0.496756	0.452959
C33	C	0.666625	-0.163423	0.786292
C34	C	-0.000036	-0.737794	0.118011
C35	C	0.333297	-0.404461	0.451344
C36	C	0.666631	-0.071128	0.784677
N37	N	-0.237492	-0.982075	0.113510
N38	N	0.095842	-0.648742	0.446844
N39	N	0.429175	-0.315408	0.780177
C40	C	-0.000063	-0.988206	-0.038491
C41	C	0.333270	-0.654873	0.294842
C42	C	0.666603	-0.321540	0.628176
C43	C	-0.000065	-0.986591	-0.130786
C44	C	0.333269	-0.653258	0.202547
C45	C	0.666602	-0.319925	0.535880
C46	C	-0.710106	-0.925567	0.170031
C47	C	-0.376773	-0.592234	0.503365
C48	C	-0.043440	-0.258900	0.836698
C49	C	-0.710091	-1.038668	0.056995
C50	C	-0.376758	-0.705335	0.390329
C51	C	-0.043424	-0.372001	0.723662
C52	C	-0.605073	-1.038659	0.056993
C53	C	-0.271739	-0.705325	0.390326
C54	C	0.061594	-0.371992	0.723659
C55	C	-0.552566	-0.982103	0.113511
C56	C	-0.219233	-0.648770	0.446844
C57	C	0.114101	-0.315437	0.780178
C58	C	-0.605078	-0.925557	0.170032
C59	C	-0.271745	-0.592224	0.503365
C60	C	0.061589	-0.258891	0.836699
C61	C	-0.552553	-1.095209	0.000478
C62	C	-0.219219	-0.761876	0.333812
C63	C	0.114114	-0.428543	0.667145
C64	C	-0.447528	-1.095203	0.000474
C65	C	-0.114195	-0.761869	0.333807
C66	C	0.219139	-0.428536	0.667141
C67	C	-0.395020	-1.038643	0.056989
C68	C	-0.061686	-0.705309	0.390323
C69	C	0.271647	-0.371976	0.723656
C70	C	-0.447538	-0.982094	0.113512
C71	C	-0.114205	-0.648761	0.446845
C72	C	0.219129	-0.315427	0.780179
C73	C	-0.395032	-0.925539	0.170030
C74	C	-0.061698	-0.592205	0.503364
C75	C	0.271635	-0.258872	0.836697
C76	C	-0.447548	-0.868985	0.226550
C77	C	-0.114215	-0.535652	0.559883
C78	C	0.219118	-0.202318	0.893216
C79	C	-0.552570	-0.868997	0.226547
C80	C	-0.219237	-0.535664	0.559881
C81	C	0.114097	-0.202331	0.893214
C82	C	-0.289998	-1.038630	0.056992
C83	C	0.043335	-0.705297	0.390325
C84	C	0.376669	-0.371964	0.723658
C85	C	-0.290004	-0.925529	0.170031
C86	C	0.043330	-0.592196	0.503365
C87	C	0.376663	-0.258862	0.836698
N88	N	0.237387	-0.982122	0.113513
N89	N	0.570721	-0.648789	0.446846
N90	N	0.904054	-0.315456	0.780179
C91	C	-0.000060	-1.134101	0.107404
C92	C	0.333273	-0.800768	0.440737
C93	C	0.666607	-0.467435	0.774071
C94	C	-0.000059	-1.226397	0.109019
C95	C	0.333274	-0.893063	0.442352
C96	C	0.666607	-0.559730	0.775686
C97	C	-0.000041	-0.515522	0.190018
C98	C	0.333292	-0.182188	0.523352
C99	C	0.666625	0.151145	0.856685
C100	C	-0.000048	-0.428801	0.188494
C101	C	0.333285	-0.095468	0.521828
C102	C	0.666619	0.237865	0.855161
C103	C	-0.000057	-0.448676	0.037006
C104	C	0.333276	-0.115342	0.370339
C105	C	0.666610	0.217991	0.703672
C106	C	-0.000058	-0.535394	0.038530
C107	C	0.333276	-0.202061	0.371864
C108	C	0.666609	0.131272	0.705197
C109	C	-0.000045	-0.568815	0.115039
C110	C	0.333289	-0.235482	0.448373
C111	C	0.666622	0.097852	0.781706
C112	C	-0.000051	-0.395376	0.111990
C113	C	0.333283	-0.062042	0.445324
C114	C	0.666616	0.271291	0.778657
C115	C	-0.000058	-0.301350	0.110337
C116	C	0.333276	0.031984	0.443671
C117	C	0.666609	0.365317	0.777004
C118	C	-0.000039	-0.662847	0.116693
C119	C	0.333294	-0.329514	0.450026
C120	C	0.666627	0.003820	0.783359
C121	C	-0.000054	-1.058599	-0.353059
C122	C	0.333280	-0.725266	-0.019725
C123	C	0.666613	-0.391932	0.313608
C124	C	-0.000045	-1.057075	-0.439779
C125	C	0.333288	-0.723742	-0.106446
C126	C	0.666621	-0.390408	0.226888
C127	C	-0.000039	-0.905586	-0.419905
C128	C	0.333294	-0.572253	-0.086571
C129	C	0.666628	-0.238919	0.246762
C130	C	-0.000040	-0.907111	-0.333186
C131	C	0.333293	-0.573778	0.000147
C132	C	0.666627	-0.240444	0.333481
C133	C	-0.000052	-0.983620	-0.299766
C134	C	0.333281	-0.650287	0.033568
C135	C	0.666614	-0.316953	0.366901
C136	C	-0.000043	-0.980571	-0.473205
C137	C	0.333290	-0.647238	-0.139871
C138	C	0.666624	-0.313904	0.193462
C139	C	-0.000034	-0.978918	-0.567231
C140	C	0.333299	-0.645585	-0.233897
C141	C	0.666633	-0.312251	0.099436
C142	C	-0.000060	-0.985273	-0.205734
C143	C	0.333274	-0.651940	0.127600
C144	C	0.666607	-0.318607	0.460933
C145	C	-0.000039	-0.975984	0.265521
C146	C	0.333295	-0.642651	0.598854
C147	C	0.666628	-0.309318	0.932187
C148	C	-0.000031	-0.977600	0.357816
C149	C	0.333302	-0.644266	0.691149
C150	C	0.666636	-0.310933	1.024483
H151	H	-0.247259	-0.879472	0.216053
H152	H	0.086074	-0.546138	0.549386
H153	H	0.419407	-0.212805	0.882719
H154	H	-0.000038	-0.542730	0.252317
H155	H	0.333295	-0.209396	0.585650
H156	H	0.666628	0.123937	0.918983
F157	F	-0.765996	-0.865378	0.230178
F158	F	-0.432662	-0.532045	0.563511
F159	F	-0.099329	-0.198711	0.896845
H160	H	-0.000047	-0.385413	0.249550
H161	H	0.333286	-0.052080	0.582883
H162	H	0.666619	0.281254	0.916217
H163	H	-0.000036	-0.846050	-0.289792
H164	H	0.333297	-0.512717	0.043541
H165	H	0.666630	-0.179384	0.376874
F166	F	-0.000066	-1.140026	-0.317493
F167	F	0.333268	-0.806693	0.015840
F168	F	0.666601	-0.473360	0.349173
H169	H	-0.000063	-0.578788	-0.022530
H170	H	0.333270	-0.245455	0.310803
H171	H	0.666603	0.087878	0.644136
F172	F	-0.391643	-1.155389	-0.059679
F173	F	-0.058310	-0.822055	0.273655
F174	F	0.275023	-0.488722	0.606988
H175	H	-0.000044	-1.118130	-0.483168
H176	H	0.333289	-0.784797	-0.149834
H177	H	0.666623	-0.451464	0.183499
H178	H	-0.595307	-1.141259	-0.045534
H179	H	-0.261973	-0.807926	0.287800
H180	H	0.071360	-0.474592	0.621133
H181	H	-0.000074	-0.421454	-0.025285
H182	H	0.333260	-0.088121	0.308048
H183	H	0.666593	0.245213	0.641381
F184	F	-0.000025	-0.824164	-0.455481
F185	F	0.333308	-0.490831	-0.122148
F186	F	0.666641	-0.157498	0.211186
H187	H	-0.752845	-1.084718	0.010983
H188	H	-0.419512	-0.751385	0.344317
H189	H	-0.086178	-0.418051	0.677650
H190	H	-0.595335	-0.822954	0.272564
H191	H	-0.262002	-0.489621	0.605897
H192	H	0.071331	-0.156288	0.939231
H193	H	-0.404785	-0.822941	0.272571
H194	H	-0.071452	-0.489607	0.605905
H195	H	0.261881	-0.156274	0.939238
H196	H	-0.247244	-1.084679	0.010978
H197	H	0.086089	-0.751346	0.344312
H198	H	0.419423	-0.418012	0.677645
