data_functionalizedCrystal
_audit_creation_method	'MofGen! by Chris Wilmer'
_symmetry_space_group_name_H-M	'P1'
_symmetry_Int_Tables_number	1
_symmetry_cell_setting	triclinic
loop_
_symmetry_equiv_pos_as_xyz
  x,y,z
_cell_length_a	10.654550
_cell_length_b	15.944551
_cell_length_c	9.730223
_cell_angle_alpha	89.997716
_cell_angle_beta	89.996251
_cell_angle_gamma	83.991820
loop_
_atom_site_label
_atom_site_type_symbol
_atom_site_fract_x
_atom_site_fract_y
_atom_site_fract_z
O1	O	1.666308	0.117973	-0.114406
O2	O	1.300684	0.129213	-0.114384
O3	O	1.493480	0.001376	-0.114384
O4	O	1.473511	0.245810	-0.114407
O5	O	1.493478	0.001379	0.114196
O6	O	1.300681	0.129216	0.114196
O7	O	1.666305	0.117976	0.114174
Zn8	Zn	1.483493	0.123597	0.150477
Zn9	Zn	1.483496	0.123592	-0.150687
O10	O	1.473509	0.245813	0.114173
C11	C	1.253895	0.128389	-0.000092
C12	C	1.114484	0.125920	-0.000083
C13	C	1.034024	0.201188	-0.000110
C14	C	0.903034	0.198863	-0.000134
C15	C	0.932975	0.045995	-0.000108
C16	C	1.063963	0.048321	-0.000075
C17	C	1.016737	0.289446	-0.000131
C18	C	0.885746	0.287121	-0.000154
C19	C	1.492650	-0.029921	-0.000093
C20	C	1.490165	-0.123182	-0.000092
C21	C	1.364720	-0.338765	-0.000104
C22	C	1.422971	-0.399443	0.112596
C23	C	1.485668	-0.293934	-0.000103
C24	C	1.423002	-0.399430	-0.112765
C25	C	1.481317	-0.458872	-0.000119
C26	C	1.543953	-0.353384	0.112691
C27	C	1.543967	-0.353364	-0.112772
C28	C	1.602306	-0.414024	-0.000045
C29	C	1.488172	-0.198917	-0.000092
C30	C	1.478822	-0.553887	-0.000119
C31	C	1.713094	0.118800	-0.000122
C32	C	1.852505	0.121269	-0.000140
C33	C	1.474339	0.277110	-0.000120
C34	C	1.476824	0.370371	-0.000130
N35	N	1.483500	0.123599	0.356013
N36	N	1.483499	0.123583	-0.356224
C37	C	1.568892	0.067012	0.427939
C38	C	1.568889	0.067002	0.571822
C39	C	1.398098	0.180173	0.571840
C40	C	1.398096	0.180178	0.427959
C41	C	1.667501	0.001676	0.427931
C42	C	1.667498	0.001666	0.571814
H43	H	1.129470	-0.012970	-0.000033
H44	H	1.264327	-0.306038	0.000015
H45	H	1.702787	-0.446602	0.000013
H46	H	1.371831	-0.419804	-0.208051
O47	O	1.315262	0.235260	0.358156
C48	C	1.241598	0.380857	0.314223
C49	C	1.335502	0.318568	0.393332
H50	H	1.257911	0.448224	0.342655
H51	H	1.256255	0.371220	0.199011
H52	H	1.141035	0.369231	0.342509
H53	H	1.436101	0.330156	0.365161
H54	H	1.320734	0.328219	0.508525
O55	O	1.604762	-0.329013	-0.226588
C56	C	1.609783	-0.324648	-0.474056
C57	C	1.540807	-0.352256	-0.345262
H58	H	1.558119	-0.343444	-0.570037
H59	H	1.611846	-0.253311	-0.472507
H60	H	1.710516	-0.356803	-0.474966
H61	H	1.440044	-0.320161	-0.344268
H62	H	1.538846	-0.423600	-0.346861
H63	H	1.758420	0.022134	0.383297
H64	H	0.839729	0.313795	0.098527
H65	H	1.045621	0.323965	0.095532
O66	O	0.883835	-0.029360	-0.000353
C67	C	0.753289	-0.120686	-0.118750
C68	C	0.808875	-0.035325	-0.118657
H69	H	0.692650	-0.125529	-0.214374
H70	H	0.833250	-0.174118	-0.118815
H71	H	0.692742	-0.125582	-0.023058
H72	H	0.869406	-0.030347	-0.214333
H73	H	0.728854	0.018066	-0.118520
O74	O	1.314970	0.235048	0.641672
C75	C	1.096615	0.282931	0.685646
C76	C	1.190619	0.220723	0.606505
H77	H	0.996057	0.271383	0.657221
H78	H	1.111171	0.273205	0.800853
H79	H	1.113038	0.350307	0.657382
H80	H	1.174254	0.153323	0.634654
H81	H	1.176041	0.230523	0.491317
O82	O	0.835558	0.326905	-0.114241
C83	C	0.806148	0.456455	-0.243310
C84	C	0.863078	0.411498	-0.114078
H85	H	0.828354	0.524861	-0.243207
H86	H	0.848360	0.423276	-0.339025
H87	H	0.699491	0.454518	-0.243323
H88	H	0.969732	0.413422	-0.113932
H89	H	0.820768	0.444690	-0.018421
O90	O	1.361745	-0.423734	0.226169
C91	C	1.167353	-0.412590	0.354638
C92	C	1.236539	-0.385033	0.225952
H93	H	1.066119	-0.381298	0.354521
H94	H	1.166760	-0.484047	0.354065
H95	H	1.218000	-0.392780	0.450658
H96	H	1.185946	-0.404785	0.129865
H97	H	1.237143	-0.313578	0.226647
H98	H	1.763823	0.016057	0.610857
H99	H	1.595065	-0.333096	0.208074
O100	O	1.642682	-0.075309	0.381411
C101	C	1.495648	-0.180287	0.377132
C102	C	1.523586	-0.093084	0.429877
H103	H	1.399371	-0.194693	0.416319
H104	H	1.495551	-0.180322	0.259967
H105	H	1.571395	-0.230434	0.416142
H106	H	1.447870	-0.042889	0.390968
H107	H	1.523729	-0.093120	0.547040
H108	H	1.637774	-0.059344	0.616437
H109	H	1.052030	0.317547	-0.098821
