data_functionalizedCrystal
_audit_creation_method	'MofGen! by Chris Wilmer'
_symmetry_space_group_name_H-M	'P1'
_symmetry_Int_Tables_number	1
_symmetry_cell_setting	triclinic
loop_
_symmetry_equiv_pos_as_xyz
  x,y,z
_cell_length_a	19.188933
_cell_length_b	14.971493
_cell_length_c	14.048226
_cell_angle_alpha	90.002683
_cell_angle_beta	89.996571
_cell_angle_gamma	96.618624
loop_
_atom_site_label
_atom_site_type_symbol
_atom_site_fract_x
_atom_site_fract_y
_atom_site_fract_z
O1	O	0.926506	-0.111675	-0.079127
O2	O	0.723244	-0.126705	-0.079136
O3	O	0.830320	0.011038	-0.079127
O4	O	0.819430	-0.249418	-0.079136
O5	O	0.830310	0.011039	0.079194
O6	O	0.723234	-0.126704	0.079186
O7	O	0.926496	-0.111674	0.079194
Zn8	Zn	0.824863	-0.119189	0.104327
Zn9	Zn	0.824877	-0.119190	-0.104268
O10	O	0.819419	-0.249417	0.079186
C11	C	0.697226	-0.126218	0.000024
C12	C	0.619717	-0.124756	0.000021
C13	C	0.066433	-0.114322	-0.086270
C14	C	0.139262	-0.115690	-0.086273
C15	C	0.175676	-0.116378	0.000027
C16	C	0.139257	-0.115674	0.086338
C17	C	0.066430	-0.114297	0.086339
N18	N	0.284863	-0.169438	0.064263
N19	N	0.354045	-0.170748	0.064256
C20	C	0.395098	-0.120526	0.000029
N21	N	0.364354	-0.068955	-0.064206
N22	N	0.295165	-0.067649	-0.064201
C23	C	0.254644	-0.117871	0.000035
C24	C	0.510478	-0.122707	-0.086281
C25	C	0.583308	-0.124070	-0.086281
C26	C	0.583301	-0.124063	0.086333
C27	C	0.510472	-0.122691	0.086331
C28	C	0.474065	-0.122017	0.000021
C29	C	0.829827	0.044361	0.000033
C30	C	0.828365	0.143650	0.000030
C31	C	0.952514	-0.112161	0.000033
C32	C	1.030023	-0.113623	0.000030
C33	C	0.827685	0.190290	-0.086272
C34	C	0.826306	0.283582	-0.086272
C35	C	0.825613	0.330233	0.000031
C36	C	0.826291	0.283585	0.086339
C37	C	0.827664	0.190294	0.086338
C38	C	0.823430	0.478033	0.086335
C39	C	0.822057	0.571331	0.086337
C40	C	0.822072	0.571321	-0.086274
C41	C	0.823445	0.478030	-0.086275
C42	C	0.824124	0.431390	0.000033
N43	N	0.824859	-0.119187	0.246688
C44	C	0.819913	0.717260	0.000028
C45	C	0.821377	0.617971	0.000035
N46	N	0.824886	-0.119185	-0.246629
C47	C	0.867247	-0.173305	0.296502
C48	C	0.867256	-0.173301	0.396159
C49	C	0.824873	-0.119184	0.446001
C50	C	0.782483	-0.065060	0.396180
C51	C	0.782478	-0.065060	0.296524
C52	C	0.782494	-0.065066	0.603894
C53	C	0.782498	-0.065067	0.703557
C54	C	0.867273	-0.173307	0.703529
C55	C	0.867268	-0.173307	0.603873
C56	C	0.824877	-0.119184	0.554059
H57	H	0.480833	-0.122156	-0.156559
O58	O	0.178530	-0.116424	0.179418
H59	H	0.158371	-0.177105	0.220801
H60	H	0.036785	-0.113731	0.156617
O61	O	0.736812	-0.006661	0.550136
H62	H	0.699328	-0.049634	0.504705
O63	O	0.912960	-0.231683	0.242752
H64	H	0.905831	-0.222601	0.165085
O65	O	0.622585	-0.124823	-0.179365
H66	H	0.585030	-0.124132	-0.239376
O67	O	0.828405	0.139983	0.179419
H68	H	0.827700	0.188095	0.239432
O69	O	0.471183	-0.122103	0.179415
H70	H	0.414420	-0.121079	0.164918
H71	H	0.612948	-0.124619	0.156601
O72	O	0.825538	0.333885	-0.179353
H73	H	0.826247	0.285772	-0.239364
O74	O	0.824186	0.427714	-0.179359
H75	H	0.871471	0.453776	-0.220750
O76	O	0.027168	-0.113545	-0.179356
H77	H	0.064729	-0.114239	-0.239367
O78	O	0.178546	-0.116454	-0.179356
H79	H	0.140994	-0.115761	-0.239371
O80	O	0.828434	0.139978	-0.179358
H81	H	0.781512	0.089314	-0.183483
O82	O	0.912977	-0.231671	0.449886
H83	H	0.879548	-0.279842	0.495301
O84	O	0.821332	0.621617	-0.179368
H85	H	0.820250	0.694323	-0.164872
H86	H	0.821487	0.609310	0.156612
H87	H	0.823967	0.440059	0.156617
H88	H	0.825722	0.321575	0.156608
O89	O	0.912976	-0.231679	0.550109
H90	H	0.942458	-0.269310	0.601488
O91	O	0.913003	-0.231677	0.757248
H92	H	0.905896	-0.222578	0.834918
O93	O	0.736787	-0.006699	0.757322
H94	H	0.707316	0.030946	0.705943
H95	H	0.747976	-0.020992	0.436769
H96	H	0.747961	-0.020992	0.255967
