data_functionalizedCrystal
_audit_creation_method	'MofGen! by Chris Wilmer'
_symmetry_space_group_name_H-M	'P1'
_symmetry_Int_Tables_number	1
_symmetry_cell_setting	triclinic
loop_
_symmetry_equiv_pos_as_xyz
  x,y,z
_cell_length_a	14.395555
_cell_length_b	14.395555
_cell_length_c	20.016444
_cell_angle_alpha	59.995751
_cell_angle_beta	90.003415
_cell_angle_gamma	60.000146
loop_
_atom_site_label
_atom_site_type_symbol
_atom_site_fract_x
_atom_site_fract_y
_atom_site_fract_z
Zr1	Zr	0.894894	1.016811	-0.087697
O2	O	0.746554	1.210631	-0.194391
O3	O	0.940371	0.823001	-0.054982
O4	O	0.940358	1.016816	-0.194373
O5	O	0.746574	1.016808	0.054944
O6	O	1.093232	1.016809	-0.194367
O7	O	0.746566	1.016816	-0.055001
O8	O	1.093255	0.670109	0.054977
O9	O	0.746551	1.363508	-0.194400
O10	O	1.073852	0.902709	-0.041035
O11	O	0.959769	0.902709	0.041012
O12	O	0.959754	1.130901	-0.123103
O13	O	0.845672	1.130901	-0.041056
Zr14	Zr	1.138724	1.016788	0.087662
Zr15	Zr	1.138711	1.016800	-0.087688
Zr16	Zr	0.894907	1.016799	0.087652
Zr17	Zr	0.894891	1.260633	-0.087711
Zr18	Zr	1.138727	0.772966	0.087675
O19	O	1.093248	1.210599	0.054947
O20	O	1.093229	1.210615	-0.194378
O21	O	0.746572	1.210614	0.054934
O22	O	1.287065	0.822969	0.194356
O23	O	1.287046	0.822985	-0.054969
O24	O	0.940389	0.822984	0.194342
O25	O	1.287044	1.016791	-0.054980
O26	O	1.093260	1.016783	0.194337
O27	O	0.940386	1.016790	0.194332
O28	O	1.287052	1.016784	0.054965
O29	O	0.940353	1.363500	-0.194392
O30	O	1.093265	0.670100	0.194357
O31	O	1.287067	0.670091	0.194364
O32	O	1.287056	0.670100	0.054984
O33	O	0.746562	1.363499	-0.055020
O34	O	0.940363	1.363490	-0.055013
O35	O	1.073864	0.902698	0.123067
O36	O	1.187946	0.902698	0.041021
O37	O	1.073849	1.130891	-0.041047
O38	O	0.959766	1.130890	0.040999
C39	C	1.016813	0.711815	-0.000001
C40	C	1.016814	0.608307	0.000005
C41	C	0.711832	1.016814	-0.000029
C42	C	0.608325	1.016818	-0.000033
C43	C	0.954596	0.485835	0.044712
C44	C	1.061877	0.471549	0.077167
C45	C	0.909553	0.623931	-0.032412
C46	C	1.124148	0.409581	0.032459
C47	C	0.971747	0.562027	-0.077163
C48	C	1.079092	0.547694	-0.044728
C49	C	0.485526	1.141239	-0.044773
C50	C	0.454688	1.079044	-0.077188
C51	C	0.454739	1.079008	0.032376
C52	C	0.578852	0.954623	-0.032494
C53	C	0.578899	0.954604	0.077113
C54	C	0.548135	0.892319	0.044718
C55	C	1.321786	1.016786	-0.000006
C56	C	1.425293	1.016781	-0.000002
C57	C	1.016793	1.016814	-0.219354
C58	C	1.016787	1.016819	-0.293794
C59	C	1.016805	1.321784	-0.000035
C60	C	1.016804	1.425293	-0.000041
C61	C	0.957250	1.135918	-0.507889
C62	C	0.957259	1.135913	-0.577830
C63	C	1.076376	0.897672	-0.492138
C64	C	1.076373	0.897679	-0.422199
C65	C	1.016803	1.016806	-0.430077
C66	C	1.016815	1.016794	-0.569958
C67	C	1.016826	1.016787	-0.645791
C68	C	1.016794	1.016813	-0.354240
C69	C	1.016825	1.016785	0.219318
C70	C	1.016831	1.016780	0.293759
C71	C	1.321790	0.711802	0.000011
C72	C	1.425298	0.608288	0.000021
C73	C	1.016829	0.711801	0.219335
C74	C	1.016836	0.608287	0.293781
C75	C	1.321807	0.711787	0.219347
C76	C	1.425320	0.608269	0.293797
C77	C	0.711812	1.321812	-0.219382
C78	C	0.608298	1.425331	-0.293833
C79	C	0.711828	1.321798	-0.000046
C80	C	0.608320	1.425311	-0.000056
C81	C	1.016789	1.321799	-0.219371
C82	C	1.016782	1.425312	-0.293817
C83	C	1.076395	0.559670	0.371582
C84	C	1.076397	0.462422	0.441538
C85	C	1.016846	0.413785	0.433694
C86	C	0.957280	0.462411	0.355885
C87	C	0.957272	0.559665	0.285930
C88	C	1.533491	0.559655	0.285932
C89	C	1.630762	0.462402	0.355880
C90	C	1.619860	0.413758	0.433691
C91	C	1.511677	0.462380	0.441554
C92	C	1.414409	0.559638	0.371607
C93	C	0.500127	1.473956	-0.285968
C94	C	0.402856	1.571239	-0.355915
C95	C	0.413758	1.619889	-0.433726
C96	C	0.521941	1.571260	-0.441589
C97	C	0.619209	1.473985	-0.371643
C98	C	1.076345	1.473918	-0.285946
C99	C	1.076361	1.571168	-0.355889
C100	C	1.016806	1.619816	-0.433703
C101	C	0.957242	1.571200	-0.441573
C102	C	0.957233	1.473946	-0.371630
C103	C	1.548097	0.547720	0.044742
C104	C	1.578963	0.409601	0.077153
C105	C	1.578858	0.562021	-0.032419
C106	C	1.454800	0.471469	0.032477
C107	C	1.454699	0.623963	-0.077138
C108	C	1.485492	0.485854	-0.044746
H109	H	0.902072	0.458577	0.082584
H110	H	1.401465	0.434050	0.059959
H111	H	0.314779	1.610816	-0.349497
H112	H	0.401235	1.131614	0.059772
N113	N	1.545271	0.612121	0.202014
H114	H	1.467245	0.681114	0.158888
H115	H	1.588287	0.537845	0.195540
H116	H	1.016862	0.334595	0.490662
H117	H	1.699071	0.334564	0.490639
H118	H	1.131777	0.574662	-0.082546
N119	N	0.893068	0.409932	0.347429
H120	H	0.809748	0.484119	0.316527
H121	H	0.902215	0.340922	0.403582
H122	H	1.718840	0.422823	0.349463
H123	H	1.124863	1.610740	-0.349466
N124	N	0.649508	0.885027	-0.068890
H125	H	0.727488	0.807311	-0.027051
H126	H	0.657140	0.947769	-0.118678
H127	H	0.530804	1.610883	-0.504952
H128	H	1.214895	0.318007	0.059934
N129	N	0.383796	1.148689	-0.163589
H130	H	0.359293	1.242681	-0.197356
H131	H	0.314334	1.147313	-0.162822
N132	N	1.649682	0.611357	-0.068735
H133	H	1.656827	0.610973	-0.118806
H134	H	1.727837	0.552287	-0.026968
N135	N	1.140585	1.421447	-0.202021
H136	H	1.109359	1.495646	-0.195470
H137	H	1.223884	1.381066	-0.195517
N138	N	1.581780	0.583600	0.094926
H139	H	1.628998	0.617079	0.071041
H140	H	1.627725	0.503388	0.153180
H141	H	1.016822	1.699007	-0.490648
N142	N	0.582120	0.752848	0.094846
H143	H	0.628175	0.706033	0.070283
H144	H	0.511543	0.753697	0.094963
H145	H	0.908775	0.599236	0.222584
H146	H	1.502817	0.422760	0.504917
H147	H	0.632419	0.902061	0.142329
H148	H	0.933601	0.599244	-0.142391
H149	H	0.460078	1.246448	-0.082666
H150	H	1.124908	0.422842	0.504886
H151	H	0.908744	1.232919	-0.514309
H152	H	0.908766	1.232906	-0.641186
H153	H	1.124873	0.800678	-0.358837
H154	H	1.401157	0.715637	-0.142349
N155	N	1.649903	0.288192	0.163546
H156	H	1.657083	0.211433	0.168370
H157	H	1.612025	0.303884	0.202797
H158	H	0.334547	1.699096	-0.490675
H159	H	1.326335	0.599207	0.378023
H160	H	0.818847	0.715544	-0.059810
N161	N	0.488352	1.421490	-0.202049
H162	H	0.405059	1.467071	-0.207692
H163	H	0.526118	1.438403	-0.171159
N164	N	0.735878	1.421539	-0.380132
H165	H	0.728014	1.467123	-0.440040
H166	H	0.778821	1.323908	-0.352980
H167	H	0.908754	1.610825	-0.504938
H168	H	0.908725	1.434382	-0.378050
N169	N	1.140622	0.769191	-0.483643
H170	H	1.131587	0.787258	-0.539756
H171	H	1.109352	0.717179	-0.452711
N172	N	1.451460	0.450138	-0.094898
H173	H	1.405409	0.415214	-0.070333
H174	H	1.522009	0.380599	-0.095054
H175	H	1.124889	0.599260	0.377985
H176	H	1.100019	0.434271	0.142416
