data_functionalizedCrystal
_audit_creation_method	'MofGen! by Chris Wilmer'
_symmetry_space_group_name_H-M	'P1'
_symmetry_Int_Tables_number	1
_symmetry_cell_setting	triclinic
loop_
_symmetry_equiv_pos_as_xyz
  x,y,z
_cell_length_a	27.732064
_cell_length_b	26.809956
_cell_length_c	23.532407
_cell_angle_alpha	89.999665
_cell_angle_beta	97.250949
_cell_angle_gamma	90.001122
loop_
_atom_site_label
_atom_site_type_symbol
_atom_site_fract_x
_atom_site_fract_y
_atom_site_fract_z
O1	O	0.641030	0.041396	-0.067803
O2	O	0.974363	0.374729	0.265530
O3	O	1.307697	0.708062	0.598864
O4	O	0.500254	0.041417	-0.078097
O5	O	0.833587	0.374750	0.255236
O6	O	1.166920	0.708084	0.588570
O7	O	0.574887	0.041396	0.009991
O8	O	0.908220	0.374730	0.343324
O9	O	1.241554	0.708063	0.676657
O10	O	0.566397	0.041416	-0.155890
O11	O	0.899730	0.374749	0.177443
O12	O	1.233063	0.708083	0.510776
O13	O	0.574873	-0.041563	0.009977
O14	O	0.908206	0.291771	0.343310
O15	O	1.241539	0.625104	0.676644
O16	O	0.500239	-0.041542	-0.078110
O17	O	0.833573	0.291791	0.255223
O18	O	1.166906	0.625124	0.588556
O19	O	0.641016	-0.041564	-0.067816
O20	O	0.974349	0.291770	0.265517
O21	O	1.307683	0.625103	0.598850
Zn22	Zn	0.570625	-0.054725	-0.072965
Zn23	Zn	0.903959	0.278609	0.260368
Zn24	Zn	1.237292	0.611942	0.593701
Zn25	Zn	0.570644	0.054578	-0.072948
Zn26	Zn	0.903977	0.387911	0.260386
Zn27	Zn	1.237311	0.721244	0.593719
O28	O	0.566383	-0.041543	-0.155904
O29	O	0.899716	0.291790	0.177430
O30	O	1.233049	0.625123	0.510763
C31	C	0.482239	-0.000060	-0.077886
C32	C	0.815573	0.333273	0.255447
C33	C	1.148906	0.666606	0.588781
C34	C	0.428584	-0.000053	-0.077231
C35	C	0.761917	0.333281	0.256102
C36	C	1.095251	0.666614	0.589436
C37	C	0.051424	-0.000088	-0.020717
C38	C	0.384758	0.333246	0.312617
C39	C	0.718091	0.666579	0.645950
C40	C	0.253088	-0.000074	-0.023127
C41	C	0.586422	0.333259	0.310206
C42	C	0.919755	0.666592	0.643539
O43	O	0.284273	-0.000098	0.020726
O44	O	0.617607	0.333235	0.354059
O45	O	0.950940	0.666569	0.687393
N46	N	0.272296	-0.000066	-0.075362
N47	N	0.605629	0.333267	0.257972
N48	N	0.938963	0.666601	0.591305
C49	C	0.241084	-0.000064	-0.126997
C50	C	0.574418	0.333269	0.206336
C51	C	0.907751	0.666603	0.539670
O52	O	0.262049	-0.000062	-0.171481
O53	O	0.595382	0.333271	0.161853
O54	O	0.928716	0.666605	0.495186
C55	C	0.039421	-0.000081	-0.124585
C56	C	0.372755	0.333252	0.208748
C57	C	0.706088	0.666586	0.542081
C58	C	0.020217	-0.000084	-0.072348
C59	C	0.353550	0.333249	0.260986
C60	C	0.686883	0.666582	0.594319
C61	C	0.032219	-0.000091	0.031517
C62	C	0.365552	0.333242	0.364850
C63	C	0.698886	0.666575	0.698183
C64	C	-0.018194	-0.000092	0.032119
C65	C	0.315139	0.333241	0.365452
C66	C	0.648473	0.666575	0.698786
C67	C	-0.049402	-0.000089	-0.019512
C68	C	0.283932	0.333245	0.313821
C69	C	0.617265	0.666578	0.647154
C70	C	-0.030196	-0.000085	-0.071746
C71	C	0.303137	0.333248	0.261588
C72	C	0.636470	0.666582	0.594921
C73	C	0.008211	-0.000083	-0.176220
C74	C	0.341544	0.333251	0.157113
C75	C	0.674877	0.666584	0.490447
C76	C	-0.042208	-0.000088	-0.175612
C77	C	0.291126	0.333245	0.157721
C78	C	0.624459	0.666578	0.491054
C79	C	-0.061413	-0.000092	-0.123375
C80	C	0.271921	0.333242	0.209958
C81	C	0.605254	0.666575	0.543292
C82	C	-0.111817	-0.000082	-0.122775
C83	C	0.221516	0.333251	0.210559
C84	C	0.554849	0.666584	0.543892
N85	N	-0.131025	-0.000091	-0.070540
N86	N	0.202308	0.333243	0.262793
N87	N	0.535642	0.666576	0.596126
C88	C	-0.099817	-0.000094	-0.018909
C89	C	0.233516	0.333239	0.314424
C90	C	0.566849	0.666573	0.647757
C91	C	0.346961	-0.000054	-0.128259
C92	C	0.680294	0.333279	0.205074
C93	C	1.013627	0.666612	0.538407
C94	C	0.397376	-0.000049	-0.128862
C95	C	0.730710	0.333284	0.204471
C96	C	1.064043	0.666617	0.537804
C97	C	0.409377	-0.000060	-0.024993
C98	C	0.742710	0.333273	0.308341
C99	C	1.076043	0.666606	0.641674
C100	C	0.358960	-0.000062	-0.024390
C101	C	0.692294	0.333271	0.308943
C102	C	1.025627	0.666605	0.642277
C103	C	0.327753	-0.000063	-0.076025
C104	C	0.661086	0.333271	0.257308
C105	C	0.994420	0.666604	0.590642
C106	C	-0.205689	-0.000095	-0.017649
C107	C	0.127645	0.333239	0.315685
C108	C	0.460978	0.666572	0.649018
C109	C	-0.256107	-0.000093	-0.017051
C110	C	0.077227	0.333240	0.316282
C111	C	0.410560	0.666573	0.649616
C112	C	-0.268103	-0.000085	-0.120920
C113	C	0.065231	0.333249	0.212413
C114	C	0.398564	0.666582	0.545746
C115	C	-0.217689	-0.000084	-0.121518
C116	C	0.115644	0.333250	0.211815
C117	C	0.448977	0.666583	0.545148
C118	C	-0.186483	-0.000090	-0.069878
C119	C	0.146850	0.333243	0.263456
C120	C	0.480184	0.666576	0.596789
O121	O	-0.143031	-0.000064	-0.166605
O122	O	0.190303	0.333269	0.166729
O123	O	0.523636	0.666603	0.500062
O124	O	-0.120792	-0.000107	0.025568
O125	O	0.212542	0.333226	0.358901
O126	O	0.545875	0.666559	0.692235
C127	C	0.101837	-0.000087	-0.021319
C128	C	0.435171	0.333246	0.312015
C129	C	0.768504	0.666580	0.645348
C130	C	0.121043	-0.000083	-0.073552
C131	C	0.454376	0.333250	0.259781
C132	C	0.787709	0.666584	0.593115
C133	C	0.089835	-0.000080	-0.125183
C134	C	0.423168	0.333254	0.208150
C135	C	0.756502	0.666587	0.541483
C136	C	0.171458	-0.000078	-0.074155
C137	C	0.504791	0.333255	0.259178
C138	C	0.838125	0.666589	0.592512
C139	C	0.202666	-0.000081	-0.022524
C140	C	0.535999	0.333252	0.310809
C141	C	0.869332	0.666585	0.644143
C142	C	0.183458	-0.000090	0.029710
C143	C	0.516791	0.333244	0.363044
C144	C	0.850125	0.666577	0.696377
C145	C	0.133045	-0.000090	0.030313
C146	C	0.466378	0.333243	0.363646
C147	C	0.799712	0.666576	0.696979
C148	C	0.109043	-0.000071	-0.177418
C149	C	0.442376	0.333262	0.155916
C150	C	0.775709	0.666595	0.489249
C151	C	0.159456	-0.000070	-0.178015
C152	C	0.492790	0.333263	0.155318
C153	C	0.826123	0.666596	0.488651
C154	C	0.190664	-0.000074	-0.126384
C155	C	0.523997	0.333260	0.206949
C156	C	0.857331	0.666593	0.540282
N157	N	0.570616	-0.129321	-0.072977
N158	N	0.903950	0.204013	0.260356
N159	N	1.237283	0.537346	0.593689
C160	C	0.603687	-0.473956	-0.033952
C161	C	0.937021	-0.140622	0.299381
C162	C	1.270354	0.192711	0.632714
C163	C	0.603699	-0.682833	-0.033943
C164	C	0.937032	-0.349500	0.299390
C165	C	1.270366	-0.016167	0.632723
O166	O	0.631797	-0.709845	-0.000767
O167	O	0.965131	-0.376512	0.332567
O168	O	1.298464	-0.043178	0.665900
N169	N	0.570647	-0.708948	-0.072935
N170	N	0.903980	-0.375614	0.260398
N171	N	1.237313	-0.042281	0.593731
C172	C	0.537587	-0.682839	-0.111929
C173	C	0.870920	-0.349506	0.221404
C174	C	1.204254	-0.016173	0.554737
O175	O	0.509471	-0.709844	-0.145090
O176	O	0.842804	-0.376511	0.188243
O177	O	1.176138	-0.043177	0.521577
C178	C	0.537574	-0.473963	-0.111935
C179	C	0.870907	-0.140629	0.221398
C180	C	1.204240	0.192704	0.554732
C181	C	0.570631	-0.447851	-0.072945
C182	C	0.903965	-0.114518	0.260389
C183	C	1.237298	0.218816	0.593722
C184	C	0.636742	-0.447844	0.005035
C185	C	0.970075	-0.114511	0.338369
C186	C	1.303409	0.218823	0.671702
C187	C	0.636741	-0.395628	0.005031
C188	C	0.970074	-0.062294	0.338364
C189	C	1.303407	0.271039	0.671697
C190	C	0.603685	-0.369523	-0.033962
C191	C	0.937018	-0.036190	0.299372
C192	C	1.270351	0.297144	0.632705
C193	C	0.570630	-0.395635	-0.072949
C194	C	0.903963	-0.062301	0.260384
C195	C	1.237297	0.271032	0.593717
C196	C	0.504512	-0.447855	-0.150926
C197	C	0.837846	-0.114522	0.182407
C198	C	1.171179	0.218811	0.515741
C199	C	0.504511	-0.395633	-0.150923
C200	C	0.837844	-0.062299	0.182410
C201	C	1.171178	0.271034	0.515744
C202	C	0.537569	-0.369521	-0.111933
C203	C	0.870902	-0.036188	0.221401
C204	C	1.204235	0.297145	0.554734
C205	C	0.537572	-0.317314	-0.111946
C206	C	0.870906	0.016020	0.221387
C207	C	1.204239	0.349353	0.554721
N208	N	0.570625	-0.291199	-0.072954
N209	N	0.903958	0.042134	0.260379
N210	N	1.237291	0.375467	0.593712
C211	C	0.603681	-0.317304	-0.033962
C212	C	0.937014	0.016029	0.299371
C213	C	1.270347	0.349363	0.632705
C214	C	0.537597	-0.792503	-0.111924
C215	C	0.870930	-0.459169	0.221409
C216	C	1.204264	-0.125836	0.554742
C217	C	0.537601	-0.844722	-0.111924
C218	C	0.870934	-0.511388	0.221410
C219	C	1.204268	-0.178055	0.554743
C220	C	0.603712	-0.844712	-0.033937
C221	C	0.937046	-0.511379	0.299396
C222	C	1.270379	-0.178045	0.632730
C223	C	0.603710	-0.792492	-0.033941
C224	C	0.937044	-0.459159	0.299393
C225	C	1.270377	-0.125825	0.632726
C226	C	0.570649	-0.766388	-0.072933
C227	C	0.903983	-0.433055	0.260401
C228	C	1.237316	-0.099722	0.593734
C229	C	0.603675	-0.207646	-0.033975
C230	C	0.937009	0.125687	0.299358
C231	C	1.270342	0.459021	0.632692
C232	C	0.603672	-0.155425	-0.033985
C233	C	0.937006	0.177908	0.299348
C234	C	1.270339	0.511241	0.632682
C235	C	0.537560	-0.155439	-0.111969
C236	C	0.870893	0.177894	0.221364
C237	C	1.204226	0.511227	0.554697
C238	C	0.537564	-0.207656	-0.111962
C239	C	0.870897	0.125678	0.221371
C240	C	1.204231	0.459011	0.554705
C241	C	0.570624	-0.233758	-0.072960
C242	C	0.903957	0.099576	0.260373
C243	C	1.237291	0.432909	0.593707
O244	O	0.509485	-0.290270	-0.145101
O245	O	0.842818	0.043063	0.188232
O246	O	1.176152	0.376397	0.521565
O247	O	0.631785	-0.290290	-0.000798
O248	O	0.965119	0.043043	0.332535
O249	O	1.298452	0.376376	0.665869
C250	C	0.603689	-0.526172	-0.033948
C251	C	0.937022	-0.192839	0.299386
C252	C	1.270356	0.140495	0.632719
C253	C	0.570634	-0.552284	-0.072935
C254	C	0.903968	-0.218950	0.260398
C255	C	1.237301	0.114383	0.593731
C256	C	0.537578	-0.526179	-0.111928
C257	C	0.870912	-0.192846	0.221406
C258	C	1.204245	0.140488	0.554739
C259	C	0.570638	-0.604503	-0.072935
C260	C	0.903971	-0.271169	0.260399
C261	C	1.237305	0.062164	0.593732
C262	C	0.603694	-0.630607	-0.033942
C263	C	0.937027	-0.297274	0.299391
C264	C	1.270361	0.036059	0.632724
C265	C	0.636746	-0.604493	0.005049
C266	C	0.970080	-0.271160	0.338383
C267	C	1.303413	0.062174	0.671716
C268	C	0.636745	-0.552277	0.005045
C269	C	0.970078	-0.218943	0.338378
C270	C	1.303412	0.114390	0.671711
C271	C	0.504526	-0.552293	-0.150919
C272	C	0.837859	-0.218960	0.182414
C273	C	1.171193	0.114373	0.515747
C274	C	0.504531	-0.604510	-0.150912
C275	C	0.837864	-0.271176	0.182421
C276	C	1.171197	0.062157	0.515755
C277	C	0.537587	-0.630614	-0.111920
C278	C	0.870920	-0.297281	0.221414
C279	C	1.204253	0.036052	0.554747
C280	C	0.659030	-0.000086	-0.068027
C281	C	0.992363	0.333248	0.265306
C282	C	1.325697	0.666581	0.598639
C283	C	0.712686	-0.000090	-0.068682
C284	C	1.046019	0.333243	0.264651
C285	C	1.379352	0.666577	0.597984
C286	C	0.574664	-0.000084	0.031199
C287	C	0.907997	0.333249	0.364533
C288	C	1.241330	0.666582	0.697866
C289	C	0.574014	-0.000088	0.094415
C290	C	0.907347	0.333245	0.427748
C291	C	1.240680	0.666579	0.761082
N292	N	0.570657	0.129174	-0.072931
N293	N	0.903990	0.462507	0.260402
N294	N	1.237324	0.795840	0.593735
C295	C	0.566606	-0.000061	-0.177113
C296	C	0.899939	0.333272	0.156221
C297	C	1.233272	0.666605	0.489554
C298	C	0.567256	-0.000054	-0.240328
C299	C	0.900589	0.333279	0.093005
C300	C	1.233923	0.666612	0.426338
C301	C	0.614103	-0.000067	0.493601
C302	C	0.947436	0.333266	0.826934
C303	C	1.280770	0.666600	1.160268
C304	C	0.613499	-0.000063	0.553000
C305	C	0.946832	0.333270	0.886333
C306	C	1.280166	0.666604	1.219667
O307	O	0.650662	-0.000050	0.589821
O308	O	0.983996	0.333283	0.923155
O309	O	1.317329	0.666616	1.256488
N310	N	0.569130	-0.000057	0.575535
N311	N	0.902463	0.333277	0.908868
N312	N	1.235796	0.666610	1.242201
C313	C	0.525361	-0.000049	0.538667
C314	C	0.858694	0.333284	0.872000
C315	C	1.192028	0.666618	1.205333
O316	O	0.487566	-0.000043	0.563288
O317	O	0.820899	0.333290	0.896621
O318	O	1.154233	0.666624	1.229955
C319	C	0.525966	-0.000049	0.479269
C320	C	0.859299	0.333284	0.812602
C321	C	1.192632	0.666617	1.145935
C322	C	0.570338	-0.000061	0.456738
C323	C	0.903671	0.333272	0.790071
C324	C	1.237005	0.666606	1.123404
C325	C	0.658472	-0.000078	0.471069
C326	C	0.991805	0.333256	0.804403
C327	C	1.325138	0.666589	1.137736
C328	C	0.659075	-0.000083	0.411674
C329	C	0.992409	0.333251	0.745008
C330	C	1.325742	0.666584	1.078341
C331	C	0.615310	-0.000076	0.374811
C332	C	0.948644	0.333257	0.708145
C333	C	1.281977	0.666590	1.041478
C334	C	0.570942	-0.000066	0.397343
C335	C	0.904275	0.333268	0.730676
C336	C	1.237608	0.666601	1.064009
C337	C	0.482198	-0.000038	0.442402
C338	C	0.815531	0.333295	0.775735
C339	C	1.148864	0.666628	1.109069
C340	C	0.482806	-0.000038	0.383001
C341	C	0.816139	0.333295	0.716334
C342	C	1.149472	0.666628	1.049667
C343	C	0.527178	-0.000050	0.360470
C344	C	0.860511	0.333284	0.693803
C345	C	1.193845	0.666617	1.027136
C346	C	0.527780	-0.000064	0.301085
C347	C	0.861113	0.333269	0.634418
C348	C	1.194447	0.666602	0.967751
N349	N	0.572150	-0.000071	0.278550
N350	N	0.905483	0.333263	0.611883
N351	N	1.238816	0.666596	0.945217
C352	C	0.615915	-0.000077	0.315413
C353	C	0.949248	0.333257	0.648747
C354	C	1.282581	0.666590	0.982080
C355	C	0.524095	-0.000048	0.663406
C356	C	0.857429	0.333286	0.996740
C357	C	1.190762	0.666619	1.330073
C358	C	0.523490	-0.000051	0.722803
C359	C	0.856824	0.333282	1.056136
C360	C	1.190157	0.666616	1.389470
C361	C	0.611629	-0.000064	0.737133
C362	C	0.944962	0.333270	1.070466
C363	C	1.278295	0.666603	1.403799
C364	C	0.612233	-0.000064	0.677735
C365	C	0.945566	0.333269	1.011068
C366	C	1.278900	0.666603	1.344401
C367	C	0.568465	-0.000054	0.640872
C368	C	0.901798	0.333279	0.974205
C369	C	1.235131	0.666613	1.307539
C370	C	0.617179	-0.000087	0.190679
C371	C	0.950512	0.333246	0.524013
C372	C	1.283846	0.666579	0.857346
C373	C	0.617779	-0.000094	0.131278
C374	C	0.951112	0.333239	0.464612
C375	C	1.284445	0.666572	0.797945
C376	C	0.529641	-0.000079	0.116954
C377	C	0.862974	0.333255	0.450288
C378	C	1.196307	0.666588	0.783621
C379	C	0.529041	-0.000074	0.176350
C380	C	0.862374	0.333259	0.509683
C381	C	1.195707	0.666592	0.843016
C382	C	0.572814	-0.000077	0.213211
C383	C	0.906147	0.333256	0.546545
C384	C	1.239480	0.666590	0.879878
O385	O	0.490636	-0.000075	0.264229
O386	O	0.823970	0.333258	0.597562
O387	O	1.157303	0.666591	0.930895
O388	O	0.653704	-0.000076	0.290784
O389	O	0.987037	0.333257	0.624117
O390	O	1.320370	0.666590	0.957450
H391	H	0.057624	-0.000096	0.073564
H392	H	0.390957	0.333238	0.406897
H393	H	0.724291	0.666571	0.740230
C394	C	0.111927	-0.000101	0.087778
C395	C	0.445260	0.333233	0.421112
C396	C	0.778593	0.666566	0.754445
N397	N	0.096024	-0.000111	0.131065
N398	N	0.429357	0.333222	0.464398
N399	N	0.762691	0.666555	0.797732
C400	C	0.673107	-0.633218	0.047942
C401	C	1.006440	-0.299885	0.381276
C402	C	1.339774	0.033449	0.714609
N403	N	0.700490	-0.654856	0.080250
N404	N	1.033823	-0.321523	0.413583
N405	N	1.367157	0.011810	0.746917
C406	C	0.706621	-0.000090	0.511611
C407	C	1.039955	0.333244	0.844944
C408	C	1.373288	0.666577	1.178278
N409	N	0.742891	-0.000104	0.542143
N410	N	1.076224	0.333229	0.875477
N411	N	1.409558	0.666563	1.208810
C412	C	0.029324	-0.000087	-0.233686
C413	C	0.362658	0.333246	0.099647
C414	C	0.695991	0.666579	0.432980
N415	N	0.045226	-0.000094	-0.276974
N416	N	0.378559	0.333239	0.056360
N417	N	0.711892	0.666573	0.389693
H418	H	0.492909	-0.000079	0.194695
H419	H	0.826243	0.333254	0.528029
H420	H	1.159576	0.666588	0.861362
C421	C	0.217796	-0.000096	0.086505
C422	C	0.551130	0.333237	0.419838
C423	C	0.884463	0.666571	0.753171
N424	N	0.243662	-0.000105	0.129280
N425	N	0.576995	0.333228	0.462613
N426	N	0.910329	0.666562	0.795946
H427	H	0.477612	-0.625766	-0.182668
H428	H	0.810945	-0.292433	0.150666
H429	H	1.144279	0.040900	0.483999
C430	C	0.312638	-0.000057	-0.185066
C431	C	0.645972	0.333276	0.148268
C432	C	0.979305	0.666610	0.481601
N433	N	0.286789	-0.000058	-0.227853
N434	N	0.620122	0.333275	0.105481
N435	N	0.953455	0.666608	0.438814
H436	H	0.083638	-0.000069	-0.219463
H437	H	0.416971	0.333264	0.113870
H438	H	0.750304	0.666597	0.447204
H439	H	0.652823	-0.000088	0.220686
H440	H	0.986157	0.333246	0.554019
H441	H	1.319490	0.666579	0.887352
H442	H	0.494008	-0.000075	0.086930
H443	H	0.827342	0.333258	0.420263
H444	H	1.160675	0.666591	0.753596
H445	H	-0.067615	-0.000091	-0.217661
H446	H	0.265718	0.333242	0.115672
H447	H	0.599052	0.666575	0.449006
H448	H	0.477607	-0.531043	-0.182671
H449	H	0.810941	-0.197710	0.150662
H450	H	1.144274	0.135624	0.483996
C451	C	-0.277228	-0.000101	0.040417
C452	C	0.056105	0.333232	0.373750
C453	C	0.389438	0.666565	0.707083
N454	N	-0.293136	-0.000110	0.083700
N455	N	0.040198	0.333223	0.417034
N456	N	0.373531	0.666557	0.750367
H457	H	-0.180286	-0.000100	0.024402
H458	H	0.153047	0.333233	0.357735
H459	H	0.486381	0.666567	0.691069
H460	H	0.630629	-0.865975	-0.002189
H461	H	0.963962	-0.532642	0.331145
H462	H	1.297295	-0.199308	0.664478
C463	C	0.501238	-0.873439	-0.154820
C464	C	0.834572	-0.540105	0.178513
C465	C	1.167905	-0.206772	0.511846
N466	N	0.473846	-0.895066	-0.187129
N467	N	0.807180	-0.561733	0.146205
N468	N	1.140513	-0.228400	0.479538
C469	C	0.640073	-0.763774	0.008955
C470	C	0.973406	-0.430441	0.342288
C471	C	1.306739	-0.097108	0.675622
N472	N	0.667461	-0.742146	0.041268
N473	N	1.000795	-0.408813	0.374601
N474	N	1.334128	-0.075480	0.707934
H475	H	0.488452	-0.000044	0.633395
H476	H	0.821785	0.333290	0.966729
H477	H	1.155118	0.666623	1.300062
C478	C	-0.039312	-0.000108	0.089585
C479	C	0.294021	0.333225	0.422918
C480	C	0.627354	0.666559	0.756252
N481	N	-0.055215	-0.000124	0.132871
N482	N	0.278118	0.333209	0.466205
N483	N	0.611452	0.666542	0.799538
H484	H	-0.202052	-0.000080	-0.164054
H485	H	0.131281	0.333253	0.169279
H486	H	0.464615	0.666586	0.502612
C487	C	0.501261	-0.763795	-0.154864
C488	C	0.834595	-0.430462	0.178469
C489	C	1.167928	-0.097129	0.511802
N490	N	0.473907	-0.742175	-0.187224
N491	N	0.807240	-0.408842	0.146110
N492	N	1.140574	-0.075508	0.479443
C493	C	0.707889	-0.000090	0.386899
C494	C	1.041222	0.333244	0.720232
C495	C	1.374556	0.666577	1.053565
N496	N	0.744658	-0.000093	0.368242
N497	N	1.077991	0.333240	0.701575
N498	N	1.411324	0.666574	1.034909
H499	H	-0.293521	-0.000080	-0.162957
H500	H	0.039812	0.333254	0.170376
H501	H	0.373146	0.666587	0.503710
H502	H	0.630594	-0.134167	-0.002234
H503	H	0.963927	0.199167	0.331099
H504	H	1.297260	0.532500	0.664433
C505	C	0.474677	-0.000045	0.747580
C506	C	0.808011	0.333289	1.080913
C507	C	1.141344	0.666622	1.414247
N508	N	0.437910	-0.000037	0.766240
N509	N	0.771243	0.333297	1.099573
N510	N	1.104576	0.666630	1.432906
H511	H	0.647265	-0.000067	0.767158
H512	H	0.980598	0.333267	1.100491
H513	H	1.313931	0.666600	1.433824
C514	C	0.661045	-0.000072	0.652957
C515	C	0.994379	0.333261	0.986290
C516	C	1.327712	0.666594	1.319623
N517	N	0.697813	-0.000077	0.634297
N518	N	1.031147	0.333257	0.967630
N519	N	1.364480	0.666590	1.300964
H520	H	0.653914	-0.000105	0.112937
H521	H	0.987247	0.333229	0.446271
H522	H	1.320580	0.666562	0.779604
H523	H	0.175088	-0.000064	-0.220557
H524	H	0.508421	0.333269	0.112777
H525	H	0.841754	0.666603	0.446110
C526	C	0.640044	-0.236351	0.008927
C527	C	0.973377	0.096983	0.342261
C528	C	1.306711	0.430316	0.675594
N529	N	0.667439	-0.257971	0.041239
N530	N	1.000772	0.075362	0.374573
N531	N	1.334106	0.408696	0.707906
H532	H	0.446065	-0.000026	0.460736
H533	H	0.779398	0.333307	0.794069
H534	H	1.112732	0.666641	1.127402
H535	H	0.663657	-0.374371	0.036782
H536	H	0.996991	-0.041037	0.370115
H537	H	1.330324	0.292296	0.703448
C538	C	0.434656	-0.000029	0.342455
C539	C	0.767989	0.333304	0.675788
C540	C	1.101322	0.666638	1.009121
N541	N	0.398389	-0.000024	0.311916
N542	N	0.731723	0.333310	0.645250
N543	N	1.065056	0.666643	0.978583
C544	C	0.337840	-0.000071	0.033075
C545	C	0.671173	0.333262	0.366408
C546	C	1.004507	0.666595	0.699741
N547	N	0.321935	-0.000081	0.076360
N548	N	0.655268	0.333253	0.409693
N549	N	0.988602	0.666586	0.743026
C550	C	0.673106	-0.476551	0.047938
C551	C	1.006439	-0.143218	0.381272
C552	C	1.339773	0.190116	0.714605
N553	N	0.700499	-0.498169	0.080254
N554	N	1.033832	-0.164836	0.413588
N555	N	1.367165	0.168497	0.746921
C556	C	0.468145	-0.366922	-0.193824
C557	C	0.801479	-0.033589	0.139509
C558	C	1.134812	0.299745	0.472842
N559	N	0.440757	-0.345298	-0.226140
N560	N	0.774091	-0.011965	0.107193
N561	N	1.107424	0.321369	0.440526
C562	C	0.468142	-0.476566	-0.193815
C563	C	0.801475	-0.143233	0.139518
C564	C	1.134809	0.190100	0.472852
N565	N	0.440744	-0.498191	-0.226120
N566	N	0.774077	-0.164857	0.107214
N567	N	1.107410	0.168476	0.440547
H568	H	0.510650	-0.228916	-0.143717
H569	H	0.843984	0.104417	0.189616
H570	H	1.177317	0.437750	0.522950
H571	H	0.434795	-0.000061	0.017048
H572	H	0.768128	0.333272	0.350381
H573	H	1.101461	0.666606	0.683714
H574	H	0.510647	-0.134177	-0.143718
H575	H	0.843980	0.199156	0.189615
H576	H	1.177314	0.532490	0.522949
H577	H	0.413008	-0.000040	-0.171399
H578	H	0.746341	0.333294	0.161934
H579	H	1.079675	0.666627	0.495267
H580	H	0.663663	-0.531020	0.036794
H581	H	0.996997	-0.197687	0.370128
H582	H	1.330330	0.135646	0.703461
