data_functionalizedCrystal
_audit_creation_method	'MofGen! by Chris Wilmer'
_symmetry_space_group_name_H-M	'P1'
_symmetry_Int_Tables_number	1
_symmetry_cell_setting	triclinic
loop_
_symmetry_equiv_pos_as_xyz
  x,y,z
_cell_length_a	15.995350
_cell_length_b	17.699083
_cell_length_c	16.776229
_cell_angle_alpha	90.001114
_cell_angle_beta	89.995580
_cell_angle_gamma	96.612305
loop_
_atom_site_label
_atom_site_type_symbol
_atom_site_fract_x
_atom_site_fract_y
_atom_site_fract_z
O1	O	0.105885	-1.004255	-0.066173
O2	O	0.605885	-0.504255	0.433827
O3	O	0.119661	-0.783899	-0.066198
O4	O	0.619661	-0.283899	0.433802
O5	O	-0.009127	-0.900100	-0.066184
O6	O	0.490873	-0.400100	0.433816
O7	O	0.234673	-0.888053	-0.066187
O8	O	0.734673	-0.388053	0.433813
O9	O	-0.009135	-0.900085	0.066393
O10	O	0.490865	-0.400085	0.566393
O11	O	0.119653	-0.783884	0.066378
O12	O	0.619653	-0.283884	0.566378
O13	O	0.105877	-1.004239	0.066404
O14	O	0.605877	-0.504239	0.566404
Zn15	Zn	0.112764	-0.894059	0.087441
Zn16	Zn	0.612764	-0.394059	0.587441
Zn17	Zn	0.112774	-0.894079	-0.087235
Zn18	Zn	0.612774	-0.394079	0.412765
O19	O	0.234665	-0.888038	0.066390
O20	O	0.734665	-0.388038	0.566390
C21	C	0.119163	-0.755694	0.000087
C22	C	0.619163	-0.255694	0.500087
C23	C	0.117683	-0.671673	0.000077
C24	C	0.617683	-0.171673	0.500077
C25	C	-0.040324	-0.899595	0.000103
C26	C	0.459676	-0.399595	0.500103
C27	C	-0.133272	-0.898101	0.000098
C28	C	0.366728	-0.398101	0.500098
C29	C	0.106375	-1.032445	0.000117
C30	C	0.606375	-0.532445	0.500117
C31	C	0.107856	-1.116465	0.000122
C32	C	0.607856	-0.616465	0.500122
C33	C	-0.471008	-0.892739	0.000100
C34	C	0.028992	-0.392739	0.500100
C35	C	-0.423406	-0.809983	-0.000207
C36	C	0.076594	-0.309983	0.499793
C37	C	-0.326719	-0.811476	0.000092
C38	C	0.173281	-0.311476	0.500092
C39	C	-0.303453	-0.895399	0.000099
C40	C	0.196547	-0.395399	0.500099
C41	C	-0.344618	-0.936209	0.075810
C42	C	0.155382	-0.436209	0.575810
C43	C	-0.441250	-0.934130	0.075873
C44	C	0.058750	-0.434130	0.575873
C45	C	-0.441602	-0.935857	-0.074891
C46	C	0.058398	-0.435857	0.425109
C47	C	-0.344657	-0.935837	-0.075892
C48	C	0.155343	-0.435837	0.424108
C49	C	-0.208759	-0.896907	0.000101
C50	C	0.291241	-0.396907	0.500101
C51	C	-0.565703	-0.891234	0.000104
C52	C	-0.065703	-0.391234	0.500104
C53	C	0.265863	-0.888544	0.000101
C54	C	0.765863	-0.388544	0.500101
C55	C	0.358810	-0.890037	0.000101
C56	C	0.858810	-0.390037	0.500101
N57	N	0.112756	-0.894051	0.206652
N58	N	0.612756	-0.394051	0.706652
C59	C	0.193278	-0.623178	0.000076
C60	C	0.693278	-0.123178	0.500076
C61	C	0.191882	-0.544232	0.000087
C62	C	0.691882	-0.044232	0.500087
C63	C	0.114889	-0.513783	0.000092
C64	C	0.614889	-0.013783	0.500092
C65	C	0.039287	-0.562285	0.000095
C66	C	0.539287	-0.062285	0.500095
C67	C	0.040685	-0.641229	0.000090
C68	C	0.540685	-0.141229	0.500090
C69	C	0.033651	-0.243912	0.000115
C70	C	0.533651	0.256088	0.500115
C71	C	0.032259	-0.164962	0.000117
C72	C	0.532259	0.335038	0.500117
C73	C	0.184848	-0.146916	0.000111
C74	C	0.684848	0.353084	0.500111
C75	C	0.186245	-0.225860	0.000106
C76	C	0.686245	0.274140	0.500106
C77	C	0.110644	-0.274354	0.000114
C78	C	0.610644	0.225646	0.500114
C79	C	0.112159	-0.359956	0.000104
C80	C	0.612159	0.140044	0.500104
C81	C	0.113373	-0.428183	0.000096
C82	C	0.613373	0.071817	0.500096
N83	N	0.112775	-0.894094	-0.206446
N84	N	0.612775	-0.394094	0.293554
C85	C	0.055752	-0.945520	0.248375
C86	C	0.555752	-0.445520	0.748375
C87	C	0.055752	-0.945524	0.331827
C88	C	0.555752	-0.445524	0.831827
C89	C	0.112760	-0.894062	0.373555
C90	C	0.612760	-0.394062	0.873555
C91	C	0.169766	-0.842587	0.331825
C92	C	0.669766	-0.342587	0.831825
C93	C	0.169762	-0.842580	0.248375
C94	C	0.669762	-0.342580	0.748375
C95	C	0.169783	-0.842614	0.668373
C96	C	0.669783	-0.342614	1.168373
C97	C	0.169784	-0.842627	0.751829
C98	C	0.669784	-0.342627	1.251829
C99	C	0.055772	-0.945559	0.751825
C100	C	0.555772	-0.445559	1.251825
C101	C	0.055768	-0.945552	0.668375
C102	C	0.555768	-0.445552	1.168375
C103	C	0.112771	-0.894074	0.626653
C104	C	0.612771	-0.394074	1.126653
C105	C	0.112770	-0.894069	0.536164
C106	C	0.612770	-0.394069	1.036164
C107	C	0.112765	-0.894070	0.464041
C108	C	0.612765	-0.394070	0.964041
H109	H	-0.298228	-0.779397	-0.054181
H110	H	0.201772	-0.279397	0.445819
C111	C	-0.469267	-0.899310	-0.152415
C112	C	0.030733	-0.399310	0.347585
N113	N	-0.490103	-0.871775	-0.210802
N114	N	0.009897	-0.371775	0.289198
H115	H	-0.030442	-0.140174	0.000122
H116	H	0.469558	0.359826	0.500122
C117	C	-0.325689	-1.019498	0.079633
C118	C	0.174311	-0.519498	0.579633
N119	N	-0.311423	-1.082230	0.082514
N120	N	0.188577	-0.582230	0.582514
C121	C	-0.288987	-0.767832	0.073530
C122	C	0.211013	-0.267832	0.573530
N123	N	-0.260568	-0.734959	0.128847
N124	N	0.239432	-0.234959	0.628847
C125	C	-0.049513	-0.297246	0.000117
C126	C	0.450487	0.202754	0.500117
N127	N	-0.112156	-0.337421	0.000118
N128	N	0.387844	0.162579	0.500118
C129	C	-0.465898	-0.893901	0.152319
C130	C	0.034102	-0.393901	0.652319
N131	N	-0.484458	-0.863597	0.209899
N132	N	0.015542	-0.363597	0.709899
H133	H	-0.317344	-0.906000	-0.131901
H134	H	0.182656	-0.406000	0.368099
H135	H	0.253440	-0.504750	0.000085
H136	H	0.753440	-0.004750	0.500085
C137	C	0.277978	-0.656663	0.000072
C138	C	0.777978	-0.156663	0.500072
N139	N	0.341777	-0.681882	0.000072
N140	N	0.841777	-0.181882	0.500072
C141	C	-0.484682	-1.018285	-0.075576
C142	C	0.015318	-0.518285	0.424424
N143	N	-0.517135	-1.080366	-0.076087
N144	N	-0.017135	-0.580366	0.423913
C145	C	-0.306210	-0.897896	0.151920
C146	C	0.193790	-0.397896	0.651920
N147	N	-0.277283	-0.869034	0.209245
N148	N	0.222717	-0.369034	0.709245
C149	C	-0.045406	-0.528788	0.000102
C150	C	0.454594	-0.028788	0.500102
N151	N	-0.109199	-0.503560	0.000105
N152	N	0.390801	-0.003560	0.500105
H153	H	0.248941	-0.250646	0.000098
H154	H	0.748941	0.249354	0.500098
H155	H	0.009334	-0.987430	0.214406
H156	H	0.509334	-0.487430	0.714406
H157	H	0.246406	-0.107421	0.000109
H158	H	0.746406	0.392579	0.500109
H159	H	0.216208	-0.800717	0.785802
H160	H	0.716208	-0.300717	1.285802
C161	C	-0.042477	-0.694574	0.000089
C162	C	0.457523	-0.194574	0.500089
N163	N	-0.105117	-0.734753	0.000089
N164	N	0.394883	-0.234753	0.500089
H165	H	0.009354	-0.987473	0.785804
H166	H	0.509354	-0.487473	1.285804
C167	C	0.232478	-0.785965	0.202479
C168	C	0.732478	-0.285965	0.702479
N169	N	0.279717	-0.743322	0.167912
N170	N	0.779717	-0.243322	0.667912
H171	H	0.009334	-0.987434	0.365798
H172	H	0.509334	-0.487434	0.865798
C173	C	-0.006947	-1.002163	0.622479
C174	C	0.493053	-0.502163	1.122479
N175	N	-0.054188	-1.044800	0.587912
N176	N	0.445812	-0.544800	1.087912
C177	C	0.232468	-0.785971	0.377728
C178	C	0.732468	-0.285971	0.877728
N179	N	0.279696	-0.743326	0.412302
N180	N	0.779696	-0.243326	0.912302
C181	C	-0.324079	-1.018520	-0.082059
C182	C	0.175921	-0.518520	0.417941
N183	N	-0.308583	-1.080801	-0.086696
N184	N	0.191417	-0.580801	0.413304
H185	H	-0.441867	-0.776912	-0.054501
H186	H	0.058133	-0.276912	0.445499
C187	C	-0.449764	-0.765495	0.072740
C188	C	0.050236	-0.265495	0.572740
N189	N	-0.469610	-0.731991	0.127691
N190	N	0.030390	-0.231991	0.627691
H191	H	0.216198	-0.800701	0.634409
H192	H	0.716198	-0.300701	1.134409
H193	H	-0.473622	-0.994888	0.079313
H194	H	0.026378	-0.494888	0.579313
