data_functionalizedCrystal
_audit_creation_method	'MofGen! by Chris Wilmer'
_symmetry_space_group_name_H-M	'P1'
_symmetry_Int_Tables_number	1
_symmetry_cell_setting	triclinic
loop_
_symmetry_equiv_pos_as_xyz
  x,y,z
_cell_length_a	14.971491
_cell_length_b	19.188930
_cell_length_c	14.048226
_cell_angle_alpha	89.988446
_cell_angle_beta	89.991693
_cell_angle_gamma	83.380508
loop_
_atom_site_label
_atom_site_type_symbol
_atom_site_fract_x
_atom_site_fract_y
_atom_site_fract_z
O1	O	1.186463	0.091005	-0.079212
O2	O	1.519797	0.424338	0.254121
O3	O	1.853130	0.757672	0.587454
O4	O	0.926006	0.101897	-0.079207
O5	O	1.259340	0.435231	0.254127
O6	O	1.592673	0.768564	0.587460
O7	O	1.063751	-0.005180	-0.079191
O8	O	1.397084	0.328153	0.254142
O9	O	1.730418	0.661486	0.587476
O10	O	1.048719	0.198082	-0.079228
O11	O	1.382052	0.531416	0.254105
O12	O	1.715385	0.864749	0.587439
O13	O	1.063735	-0.005187	0.079130
O14	O	1.397068	0.328147	0.412463
O15	O	1.730401	0.661480	0.745797
O16	O	0.925990	0.101891	0.079115
O17	O	1.259323	0.435224	0.412448
O18	O	1.592657	0.768558	0.745781
O19	O	1.186447	0.090999	0.079109
O20	O	1.519780	0.424332	0.412442
O21	O	1.853114	0.757665	0.745776
Zn22	Zn	1.056216	0.096444	0.104249
Zn23	Zn	1.389549	0.429777	0.437582
Zn24	Zn	1.722882	0.763110	0.770915
Zn25	Zn	1.056238	0.096452	-0.104347
Zn26	Zn	1.389571	0.429785	0.228987
Zn27	Zn	1.722904	0.763119	0.562320
O28	O	1.048702	0.198076	0.079093
O29	O	1.382036	0.531409	0.412427
O30	O	1.715369	0.864743	0.745760
C31	C	0.892676	0.101406	-0.000045
C32	C	1.226009	0.434740	0.333288
C33	C	1.559343	0.768073	0.666622
C34	C	0.793387	0.099945	-0.000042
C35	C	1.126720	0.433278	0.333291
C36	C	1.460054	0.766611	0.666625
C37	C	0.365724	0.093641	-0.086364
C38	C	0.699057	0.426974	0.246969
C39	C	1.032390	0.760307	0.580303
C40	C	0.459017	0.095012	-0.086361
C41	C	0.792350	0.428345	0.246973
C42	C	1.125683	0.761679	0.580306
C43	C	0.505650	0.095699	-0.000056
C44	C	0.838983	0.429032	0.333277
C45	C	1.172317	0.762366	0.666610
C46	C	0.458986	0.095007	0.086250
C47	C	0.792320	0.428340	0.419583
C48	C	1.125653	0.761674	0.752917
C49	C	0.365696	0.093631	0.086246
C50	C	0.699029	0.426964	0.419579
C51	C	1.032363	0.760298	0.752912
C52	C	0.653433	0.097877	0.086253
C53	C	0.986766	0.431211	0.419586
C54	C	1.320100	0.764544	0.752920
C55	C	0.746730	0.099255	0.086258
C56	C	1.080063	0.432588	0.419591
C57	C	1.413396	0.765922	0.752924
C58	C	0.746754	0.099259	-0.086353
C59	C	1.080087	0.432592	0.246980
C60	C	1.413420	0.765925	0.580313
C61	C	0.653463	0.097882	-0.086358
C62	C	0.986797	0.431216	0.246976
C63	C	1.320130	0.764549	0.580309
C64	C	0.606806	0.097192	-0.000051
C65	C	0.940139	0.430525	0.333283
C66	C	1.273473	0.763859	0.666616
C67	C	1.063256	-0.031196	-0.000028
C68	C	1.396589	0.302137	0.333306
C69	C	1.729923	0.635471	0.666639
C70	C	1.061795	-0.108705	-0.000020
C71	C	1.395128	0.224628	0.333314
C72	C	1.728461	0.557961	0.666647
C73	C	1.142619	-0.153368	-0.000017
C74	C	1.475952	0.179966	0.333317
C75	C	1.809286	0.513299	0.666650
C76	C	1.141246	-0.226196	-0.000032
C77	C	1.474579	0.107137	0.333301
C78	C	1.807913	0.440471	0.666635
C79	C	1.059044	-0.254358	-0.000031
C80	C	1.392378	0.078975	0.333302
C81	C	1.725711	0.412308	0.666636
C82	C	0.978210	-0.209686	-0.000039
C83	C	1.311543	0.123647	0.333294
C84	C	1.644876	0.456981	0.666628
C85	C	0.979585	-0.136859	-0.000033
C86	C	1.312918	0.196474	0.333300
C87	C	1.646252	0.529807	0.666633
N88	N	0.996205	-0.362569	0.053850
N89	N	1.329539	-0.029235	0.387184
N90	N	1.662872	0.304098	0.720517
N91	N	0.994905	-0.431752	0.053847
N92	N	1.328238	-0.098418	0.387180
N93	N	1.661571	0.234915	0.720514
C94	C	1.054896	-0.473780	-0.000050
C95	C	1.388229	-0.140447	0.333283
C96	C	1.721563	0.192886	0.666617
N97	N	1.116251	-0.444014	-0.053932
N98	N	1.449585	-0.110681	0.279402
N99	N	1.782918	0.222652	0.612735
N100	N	1.117555	-0.374826	-0.053924
N101	N	1.450888	-0.041492	0.279409
N102	N	1.784221	0.291841	0.612743
C103	C	1.057544	-0.333326	-0.000038
C104	C	1.390877	0.000008	0.333296
C105	C	1.724211	0.333341	0.666629
C106	C	1.134237	-0.597412	-0.000065
C107	C	1.467571	-0.264079	0.333268
C108	C	1.800904	0.069254	0.666602
C109	C	1.132861	-0.670242	-0.000086
C110	C	1.466194	-0.336908	0.333247
C111	C	1.799528	-0.003575	0.666580
C112	C	0.969822	-0.653730	-0.000084
C113	C	1.303156	-0.320397	0.333250
C114	C	1.636489	0.012937	0.666583
C115	C	0.971201	-0.580902	-0.000072
C116	C	1.304534	-0.247569	0.333261
C117	C	1.637868	0.085764	0.666595
C118	C	1.053411	-0.552748	-0.000058
C119	C	1.386744	-0.219415	0.333275
C120	C	1.720077	0.113919	0.666608
C121	C	1.219777	0.091490	-0.000055
C122	C	1.553111	0.424823	0.333278
C123	C	1.886444	0.758156	0.666612
C124	C	1.319066	0.092951	-0.000064
C125	C	1.652400	0.426285	0.333269
C126	C	1.985733	0.759618	0.666603
C127	C	1.049197	0.224092	-0.000072
C128	C	1.382531	0.557425	0.333261
C129	C	1.715864	0.890759	0.666594
C130	C	1.050659	0.301601	-0.000087
C131	C	1.383992	0.634934	0.333247
C132	C	1.717325	0.968268	0.666580
N133	N	1.056208	0.096438	0.246609
N134	N	1.389541	0.429771	0.579943
N135	N	1.722874	0.763104	0.913276
N136	N	1.056253	0.096453	-0.246707
N137	N	1.389586	0.429786	0.086626
N138	N	1.722920	0.763119	0.419959
C139	C	1.117220	0.049043	0.296434
C140	C	1.450553	0.382377	0.629768
C141	C	1.783887	0.715710	0.963101
C142	C	1.117226	0.049043	0.396092
C143	C	1.450559	0.382376	0.729425
C144	C	1.783893	0.715710	1.062759
C145	C	1.056223	0.096441	0.445923
C146	C	1.389557	0.429774	0.779256
C147	C	1.722890	0.763107	1.112589
C148	C	0.995204	0.143837	0.396091
C149	C	1.328538	0.477171	0.729424
C150	C	1.661871	0.810504	1.062758
C151	C	0.995195	0.143834	0.296435
C152	C	1.328528	0.477167	0.629768
C153	C	1.661861	0.810500	0.963102
C154	C	0.995230	0.143842	0.603805
C155	C	1.328563	0.477176	0.937138
C156	C	1.661897	0.810509	1.270472
C157	C	0.995241	0.143847	0.703468
C158	C	1.328574	0.477180	1.036801
C159	C	1.661907	0.810514	1.370135
C160	C	1.117261	0.049052	0.703462
C161	C	1.450595	0.382385	1.036795
C162	C	1.783928	0.715718	1.370129
C163	C	1.117252	0.049048	0.603806
C164	C	1.450585	0.382381	0.937140
C165	C	1.783918	0.715715	1.270473
C166	C	1.056234	0.096446	0.553981
C167	C	1.389567	0.429779	0.887314
C168	C	1.722900	0.763112	1.220648
H169	H	0.615496	0.097328	-0.156634
H170	H	0.948830	0.430661	0.176699
H171	H	1.282163	0.763995	0.510033
H172	H	0.784746	0.099822	-0.156627
H173	H	1.118080	0.433155	0.176706
H174	H	1.451413	0.766488	0.510039
H175	H	1.201177	-0.574488	-0.000058
H176	H	1.534511	-0.241155	0.333275
H177	H	1.867844	0.092179	0.666608
H178	H	1.166906	0.010451	0.436659
H179	H	1.500240	0.343784	0.769992
H180	H	1.833573	0.677117	1.103326
Br181	Br	0.810018	0.100183	0.203386
Br182	Br	1.143352	0.433517	0.536719
Br183	Br	1.476685	0.766850	0.870053
Br184	Br	0.590115	0.096930	0.203385
Br185	Br	0.923448	0.430263	0.536718
Br186	Br	1.256781	0.763596	0.870051
H187	H	0.496963	0.095562	0.156520
H188	H	0.830297	0.428895	0.489854
H189	H	1.163630	0.762229	0.823187
H190	H	0.945540	0.182436	0.563241
H191	H	1.278873	0.515770	0.896574
H192	H	1.612206	0.849103	1.229908
Br193	Br	0.912406	0.208160	0.463715
Br194	Br	1.245739	0.541493	0.797048
Br195	Br	1.579073	0.874826	1.130381
Br196	Br	0.912383	0.208153	0.228815
Br197	Br	1.245716	0.541486	0.562149
Br198	Br	1.579049	0.874820	0.895482
Br199	Br	0.302376	0.092685	0.203371
Br200	Br	0.635709	0.426019	0.536705
Br201	Br	0.969042	0.759352	0.870038
Br202	Br	1.254189	-0.115162	-0.000025
Br203	Br	1.587522	0.218172	0.333309
Br204	Br	1.920855	0.551505	0.666642
Br205	Br	1.250944	-0.286822	-0.000032
Br206	Br	1.584277	0.046512	0.333301
Br207	Br	1.917610	0.379845	0.666634
Br208	Br	0.522336	0.095941	-0.203487
Br209	Br	0.855669	0.429275	0.129846
Br210	Br	1.189002	0.762608	0.463180
H211	H	0.911280	-0.232620	-0.000040
H212	H	1.244614	0.100713	0.333293
H213	H	1.577947	0.434046	0.666626
Br214	Br	1.242561	-0.730858	-0.000093
Br215	Br	1.575894	-0.397525	0.333241
Br216	Br	1.909228	-0.064191	0.666574
Br217	Br	0.302444	0.092717	-0.203498
Br218	Br	0.635777	0.426050	0.129836
Br219	Br	0.969110	0.759383	0.463169
Br220	Br	1.200021	-0.015281	0.228817
Br221	Br	1.533354	0.318052	0.562150
Br222	Br	1.866688	0.651386	0.895484
Br223	Br	1.200048	-0.015271	0.536175
Br224	Br	1.533382	0.318062	0.869508
Br225	Br	1.866715	0.651396	1.202842
H226	H	0.913766	-0.100494	-0.000035
H227	H	1.247099	0.232839	0.333298
H228	H	1.580433	0.566172	0.666631
Br229	Br	1.200074	-0.015270	0.771084
Br230	Br	1.533407	0.318064	1.104418
Br231	Br	1.866740	0.651397	1.437751
Br232	Br	0.912447	0.208175	0.771088
Br233	Br	1.245781	0.541509	1.104422
Br234	Br	1.579114	0.874842	1.437755
Br235	Br	0.858261	-0.691942	-0.000092
Br236	Br	1.191594	-0.358609	0.333242
Br237	Br	1.524927	-0.025275	0.666575
Br238	Br	0.861505	-0.520284	-0.000075
Br239	Br	1.194838	-0.186951	0.333258
Br240	Br	1.528171	0.146382	0.666592
