data_functionalizedCrystal
_audit_creation_method	'MofGen! by Chris Wilmer'
_symmetry_space_group_name_H-M	'P1'
_symmetry_Int_Tables_number	1
_symmetry_cell_setting	triclinic
loop_
_symmetry_equiv_pos_as_xyz
  x,y,z
_cell_length_a	10.654555
_cell_length_b	7.540329
_cell_length_c	10.654550
_cell_angle_alpha	90.003446
_cell_angle_beta	95.514047
_cell_angle_gamma	89.999681
loop_
_atom_site_label
_atom_site_type_symbol
_atom_site_fract_x
_atom_site_fract_y
_atom_site_fract_z
O1	O	-1.667835	0.147374	0.176427
O2	O	-1.302357	0.147401	0.193227
O3	O	-1.493499	0.147376	0.002088
O4	O	-1.476693	0.147400	0.367566
O5	O	-1.493488	-0.147589	0.002085
O6	O	-1.302346	-0.147564	0.193224
O7	O	-1.667823	-0.147591	0.176425
Cu8	Cu	-1.485084	-0.174510	0.184824
Cu9	Cu	-1.485097	0.174320	0.184827
O10	O	-1.476682	-0.147566	0.367564
C11	C	-1.255554	-0.000078	0.191991
C12	C	-1.116111	-0.000068	0.188296
N13	N	-1.485083	-0.419858	0.184821
C14	C	-0.919571	0.160709	0.183096
C15	C	-1.050594	0.160717	0.186559
C16	C	-1.050600	-0.160871	0.186556
C17	C	-0.919581	-0.160877	0.183084
C18	C	-0.714627	-0.000102	0.177662
C19	C	-0.854069	-0.000082	0.181360
C20	C	-1.492259	-0.000105	-0.044711
C21	C	-1.488567	-0.000102	-0.184155
N22	N	-1.485107	0.419669	0.184820
C23	C	-1.601109	-0.000110	-0.263638
C24	C	-1.597632	-0.000088	-0.394659
C25	C	-1.369063	-0.000058	-0.366700
C26	C	-1.372541	-0.000068	-0.235682
C27	C	-1.477921	-0.000080	0.414363
C28	C	-1.481613	-0.000071	0.553806
H29	H	-0.866236	0.291638	0.181691
H30	H	-1.689275	-0.000091	-0.459370
H31	H	-1.695585	-0.000135	-0.221690
C32	C	-1.248730	-0.000051	-0.148244
N33	N	-1.155480	-0.000031	-0.082386
C34	C	-1.122641	0.337599	0.188465
N35	N	-1.176906	0.470835	0.189897
C36	C	-0.847523	-0.337768	0.181185
N37	N	-0.793249	-0.470997	0.179755
H38	H	-1.103955	-0.291784	0.187963
C39	C	-1.241441	-0.000055	-0.423393
N40	N	-1.145313	-0.000065	-0.466092
