data_functionalizedCrystal
_audit_creation_method	'MofGen! by Chris Wilmer'
_symmetry_space_group_name_H-M	'P1'
_symmetry_Int_Tables_number	1
_symmetry_cell_setting	triclinic
loop_
_symmetry_equiv_pos_as_xyz
  x,y,z
_cell_length_a	21.395362
_cell_length_b	18.050590
_cell_length_c	21.395355
_cell_angle_alpha	90.018036
_cell_angle_beta	90.043940
_cell_angle_gamma	90.034430
loop_
_atom_site_label
_atom_site_type_symbol
_atom_site_fract_x
_atom_site_fract_y
_atom_site_fract_z
Zn1	Zn	0.957912	-0.295431	0.354588
Zn2	Zn	0.957837	-0.419603	0.249811
Zn3	Zn	0.853127	-0.295465	0.249789
Zn4	Zn	0.853119	-0.419618	0.354516
O5	O	0.905499	-0.357529	0.302176
O6	O	1.045580	-0.311881	0.340728
O7	O	0.943919	-0.403143	0.162130
O8	O	0.867062	-0.191536	0.263712
O9	O	1.045525	-0.403110	0.263749
O10	O	0.944048	-0.191511	0.340707
O11	O	0.866989	-0.311940	0.162114
O12	O	0.765448	-0.311955	0.263642
O13	O	0.867048	-0.403136	0.442203
O14	O	0.765442	-0.403170	0.340584
O15	O	0.944039	-0.311896	0.442256
O16	O	0.943911	-0.523529	0.263680
O17	O	0.866975	-0.523540	0.340606
C18	C	0.742711	-0.357568	0.302103
C19	C	0.673070	-0.357603	0.302087
C20	C	0.640370	-0.405161	0.342091
C21	C	0.574935	-0.405143	0.342119
C22	C	0.542202	-0.357574	0.302132
C23	C	0.574910	-0.310007	0.262125
C24	C	0.640344	-0.310021	0.262103
C25	C	0.438476	-0.351592	0.245726
C26	C	0.373043	-0.351583	0.245748
C27	C	0.340381	-0.357526	0.302201
C28	C	0.373160	-0.363494	0.358634
C29	C	0.438594	-0.363508	0.358612
C30	C	0.471249	-0.357553	0.302152
C31	C	0.236728	-0.405067	0.342238
C32	C	0.171292	-0.405044	0.342267
C33	C	0.171268	-0.309911	0.262268
C34	C	0.236703	-0.309931	0.262245
C35	C	0.269430	-0.357513	0.302229
C36	C	0.905451	-0.550481	0.302151
C37	C	0.905487	-0.633027	0.302161
C38	C	0.947412	-0.832444	0.260387
C39	C	0.962722	-0.881784	0.317576
C40	C	0.905523	-0.784157	0.302186
C41	C	0.890277	-0.881899	0.245023
C42	C	0.905559	-0.930142	0.302205
C43	C	0.920862	-0.832410	0.359405
C44	C	0.848390	-0.832520	0.286813
C45	C	0.863678	-0.881838	0.344042
C46	C	0.905504	-0.700059	0.302174
C47	C	0.905577	-1.014239	0.302224
C48	C	1.068922	-0.357490	0.302249
C49	C	1.138563	-0.357474	0.302281
C50	C	0.905551	-0.357514	0.465599
C51	C	0.905573	-0.357508	0.535241
C52	C	0.905564	-0.163823	0.302215
C53	C	0.905592	-0.081278	0.302231
C54	C	0.905483	-0.357490	0.139388
C55	C	0.905582	-0.357288	0.069747
C56	C	0.945661	-0.309997	0.567982
C57	C	0.945660	-0.309965	0.633418
C58	C	0.905578	-0.357457	0.666109
C59	C	0.865482	-0.404971	0.633359
C60	C	0.865480	-0.404996	0.567925
C61	C	0.900614	-0.424328	0.769773
C62	C	0.900621	-0.424304	0.835206
C63	C	0.905582	-0.357379	0.867930
C64	C	0.910549	-0.290475	0.835212
C65	C	0.910547	-0.290501	0.769778
C66	C	0.905576	-0.357434	0.737061
C67	C	0.945671	-0.309829	0.971624
C68	C	0.945665	-0.309796	1.037061
C69	C	0.865491	-0.404808	1.037001
C70	C	0.865493	-0.404835	0.971566
C71	C	0.905586	-0.357346	0.938881
H72	H	0.346568	-0.368332	0.404604
H73	H	0.828269	-0.903388	0.379439
F74	F	0.873402	-0.910313	0.181826
H75	H	0.896580	-0.478780	0.861840
F76	F	0.271560	-0.455703	0.384795
F77	F	1.025896	-0.910059	0.334597
H78	H	0.465280	-0.368366	0.404562
F79	F	0.785233	-0.804215	0.269782
H80	H	0.263328	-0.271207	0.229666
F81	F	0.338163	-0.345231	0.185687
F82	F	0.915832	-0.219243	0.870034
F83	F	0.988318	-0.259384	0.668271
H84	H	0.548305	-0.443870	0.374697
F85	F	0.915830	-0.219300	0.734960
H86	H	0.978307	-0.271327	0.541374
F87	F	0.993728	-0.804095	0.214232
F88	F	0.895348	-0.495565	0.734953
H89	H	0.144669	-0.443770	0.374847
H90	H	0.978313	-0.271157	0.945011
H91	H	0.144618	-0.271177	0.229712
F92	F	0.473231	-0.345267	0.185637
F93	F	0.675146	-0.259401	0.219523
H94	H	0.978309	-0.271103	1.063718
F95	F	0.822822	-0.455513	0.668153
H96	H	0.832849	-0.443470	1.063618
H97	H	0.933724	-0.810764	0.407797
H98	H	0.832833	-0.443684	0.541267
F99	F	0.675196	-0.455800	0.384648
F100	F	0.540072	-0.259378	0.219570
F101	F	0.822828	-0.455406	0.936718
