data_functionalizedCrystal
_audit_creation_method	'MofGen! by Chris Wilmer'
_symmetry_space_group_name_H-M	'P1'
_symmetry_Int_Tables_number	1
_symmetry_cell_setting	triclinic
loop_
_symmetry_equiv_pos_as_xyz
  x,y,z
_cell_length_a	12.594516
_cell_length_b	12.594517
_cell_length_c	12.594509
_cell_angle_alpha	89.978673
_cell_angle_beta	90.027875
_cell_angle_gamma	89.988384
loop_
_atom_site_label
_atom_site_type_symbol
_atom_site_fract_x
_atom_site_fract_y
_atom_site_fract_z
Zn1	Zn	-0.423716	-1.627298	0.601863
Zn2	Zn	-0.601726	-1.627202	0.423885
Zn3	Zn	-0.423761	-1.449302	0.423892
Zn4	Zn	-0.601652	-1.449298	0.601815
O5	O	-0.512714	-1.538275	0.512864
O6	O	-0.447341	-1.776231	0.578271
O7	O	-0.578169	-1.603565	0.274940
O8	O	-0.274809	-1.472956	0.447522
O9	O	-0.578124	-1.776161	0.447512
O10	O	-0.274776	-1.603729	0.578277
O11	O	-0.447419	-1.472863	0.274945
O12	O	-0.447347	-1.300356	0.447476
O13	O	-0.577998	-1.472948	0.750767
O14	O	-0.578042	-1.300352	0.578196
O15	O	-0.447269	-1.603724	0.750802
O16	O	-0.750662	-1.603561	0.447466
O17	O	-0.750608	-1.472855	0.578190
C18	C	-0.789255	-1.538226	0.512845
C19	C	-0.907560	-1.538302	0.512873
C20	C	-0.512692	-1.261734	0.512832
C21	C	-0.512709	-1.143429	0.512844
C22	C	-0.512620	-1.538346	0.790485
C23	C	-0.512581	-1.538377	0.908790
C24	C	-0.976804	-1.609475	0.441848
C25	C	-1.047501	-1.635486	0.538997
C26	C	-1.047662	-1.512425	0.415785
C27	C	-0.976698	-1.564362	0.610073
C28	C	-0.976854	-1.441256	0.486796
C29	C	-1.047519	-1.467229	0.584012
C30	C	-0.235093	-1.538354	0.512906
C31	C	-0.116787	-1.538387	0.512923
C32	C	-0.512736	-1.815896	0.512896
C33	C	-0.512745	-1.934201	0.512909
C34	C	-0.441526	-1.074146	0.441881
C35	C	-0.538615	-1.003343	0.415702
C36	C	-0.415668	-1.003433	0.539042
C37	C	-0.609849	-1.074183	0.486614
C38	C	-0.486836	-1.074280	0.609999
C39	C	-0.583991	-1.003508	0.583857
C40	C	-0.512730	-1.538265	0.236323
C41	C	-0.512470	-1.538441	0.118018
C42	C	-0.583644	-1.467270	0.978025
C43	C	-0.609650	-1.564392	1.048815
C44	C	-0.486510	-1.441330	1.048799
C45	C	-0.538638	-1.635550	0.978023
C46	C	-0.415453	-1.512422	0.978000
C47	C	-0.441422	-1.609612	1.048759
H48	H	-0.945753	-1.669674	0.381838
H49	H	-1.078372	-1.407077	0.644167
H50	H	-0.691742	-1.586380	1.079921
N51	N	-0.457344	-1.332591	1.089985
H52	H	-0.517122	-1.304198	1.135245
H53	H	-0.444805	-1.283099	1.028138
H54	H	-1.078536	-1.717593	0.561082
H55	H	-1.078832	-1.490502	0.333659
N56	N	-0.935588	-1.593534	0.718888
H57	H	-0.961912	-1.666629	0.738761
H58	H	-0.961920	-1.540103	0.772547
H59	H	-0.381389	-1.105163	0.381796
H60	H	-0.560736	-1.717672	0.947064
N61	N	-0.935708	-1.332527	0.457513
H62	H	-0.961477	-1.313009	0.384102
H63	H	-0.855525	-1.333215	0.458460
H64	H	-0.560522	-0.972185	0.333568
H65	H	-0.381279	-1.669841	1.079621
H66	H	-0.691955	-1.105131	0.464392
H67	H	-0.644273	-0.972687	0.643895
H68	H	-0.464899	-1.105463	0.692108
H69	H	-0.333597	-0.972301	0.561136
N70	N	-0.663361	-1.387679	0.936873
H71	H	-0.736671	-1.407454	0.962633
H72	H	-0.662268	-1.387775	0.856691
N73	N	-0.306750	-1.483263	0.936749
H74	H	-0.287163	-1.409876	0.962443
H75	H	-0.307526	-1.484205	0.856567
