data_functionalizedCrystal
_audit_creation_method	'MofGen! by Chris Wilmer'
_symmetry_space_group_name_H-M	'P1'
_symmetry_Int_Tables_number	1
_symmetry_cell_setting	triclinic
loop_
_symmetry_equiv_pos_as_xyz
  x,y,z
_cell_length_a	16.959455
_cell_length_b	16.959453
_cell_length_c	16.959447
_cell_angle_alpha	90.031064
_cell_angle_beta	90.020374
_cell_angle_gamma	90.017008
loop_
_atom_site_label
_atom_site_type_symbol
_atom_site_fract_x
_atom_site_fract_y
_atom_site_fract_z
Zn1	Zn	1.208384	-0.314729	0.447032
Zn2	Zn	1.208307	-0.446921	0.314852
Zn3	Zn	1.076213	-0.314754	0.314856
Zn4	Zn	1.076178	-0.446862	0.446977
O5	O	1.142270	-0.380816	0.380929
O6	O	1.318985	-0.332279	0.429520
O7	O	1.190767	-0.429424	0.204242
O8	O	1.093793	-0.204140	0.332414
O9	O	1.318928	-0.429400	0.332408
O10	O	1.190899	-0.204121	0.429524
O11	O	1.093718	-0.332321	0.204244
O12	O	0.965597	-0.332264	0.332360
O13	O	1.093733	-0.429299	0.557595
O14	O	0.965571	-0.429324	0.429429
O15	O	1.190864	-0.332221	0.557636
O16	O	1.190733	-0.557524	0.332354
O17	O	1.093658	-0.557481	0.429425
C18	C	0.936904	-0.380791	0.380889
C19	C	0.849048	-0.380799	0.380891
C20	C	0.477532	-0.431337	0.330337
C21	C	0.477612	-0.330361	0.431617
C22	C	0.560158	-0.330348	0.431598
C23	C	0.601395	-0.380831	0.380948
C24	C	0.560085	-0.431328	0.330318
C25	C	0.601474	-0.279859	0.482234
C26	C	0.684025	-0.279844	0.482217
C27	C	0.725263	-0.330324	0.431563
C28	C	0.683948	-0.380822	0.380929
C29	C	0.725185	-0.431305	0.330280
C30	C	0.683872	-0.481799	0.279642
C31	C	0.601323	-0.481807	0.279663
C32	C	0.807811	-0.330315	0.431541
C33	C	0.807738	-0.431295	0.330260
C34	C	1.142205	-0.586183	0.380900
C35	C	1.142249	-0.674039	0.380914
C36	C	1.192898	-1.045447	0.431589
C37	C	1.091863	-1.045583	0.330386
C38	C	1.091834	-0.963037	0.330368
C39	C	1.142337	-0.921692	0.380962
C40	C	1.192869	-0.962893	0.431575
C41	C	1.041297	-0.921830	0.279762
C42	C	1.041265	-0.839279	0.279743
C43	C	1.091773	-0.797933	0.330334
C44	C	1.142307	-0.839139	0.380947
C45	C	1.192810	-0.797794	0.431541
C46	C	1.243349	-0.838999	0.482152
C47	C	1.243376	-0.921547	0.482165
C48	C	1.091746	-0.715384	0.330320
C49	C	1.192781	-0.715240	0.431527
C50	C	1.348439	-0.380843	0.380970
C51	C	1.436295	-0.380854	0.380987
C52	C	1.142303	-0.380751	0.587097
C53	C	1.142317	-0.380723	0.674954
C54	C	1.142358	-0.174648	0.380976
C55	C	1.142395	-0.086792	0.380995
C56	C	1.142283	-0.380825	0.175563
C57	C	1.142422	-0.380630	0.087707
C58	C	1.091840	-0.431184	1.046411
C59	C	1.192984	-0.330096	1.046449
C60	C	1.192963	-0.330113	0.963903
C61	C	1.142380	-0.380667	0.922607
C62	C	1.091819	-0.431204	0.963858
C63	C	1.243529	-0.279582	0.922646
C64	C	1.243511	-0.279597	0.840095
C65	C	1.192923	-0.330148	0.798798
C66	C	1.142359	-0.380686	0.840054
C67	C	1.091777	-0.431240	0.798758
C68	C	1.041208	-0.481776	0.840012
C69	C	1.041232	-0.481754	0.922560
C70	C	1.192900	-0.330169	0.716250
C71	C	1.091756	-0.431260	0.716204
H72	H	0.717655	-0.238728	0.523449
C73	C	1.282103	-0.145741	0.948111
C74	C	1.299128	-0.224019	0.968041
H75	H	1.316432	-0.111439	0.976136
H76	H	1.229009	-0.134166	0.961635
H77	H	1.289336	-0.138528	0.893043
H78	H	1.291889	-0.231233	1.023107
H79	H	1.352235	-0.235597	0.954521
H80	H	1.050558	-0.472421	0.682587
H81	H	1.000027	-0.522940	0.806378
C82	C	1.237600	-0.588638	0.476444
C83	C	1.248297	-0.669796	0.487141
H84	H	1.271878	-0.560585	0.510776
H85	H	1.184486	-0.575143	0.487961
H86	H	1.249197	-0.575146	0.423343
H87	H	1.236694	-0.683289	0.540242
H88	H	1.301423	-0.683297	0.475630
H89	H	1.000115	-0.805735	0.238533
H90	H	1.000064	-0.522900	0.956157
H91	H	1.050594	-0.681839	0.289118
H92	H	1.050666	-0.472326	1.080004
H93	H	1.234048	-1.078999	0.472793
C94	C	1.237928	-0.285189	1.173006
C95	C	1.248585	-0.274532	1.091839
H96	H	1.272252	-0.250880	1.201029
H97	H	1.249478	-0.338290	1.186511
H98	H	1.184826	-0.273609	1.186527
H99	H	1.301686	-0.286117	1.078317
H100	H	1.237040	-0.221418	1.078329
H101	H	1.284686	-0.238448	0.806513
C102	C	0.799595	-0.230517	0.531664
C103	C	0.853222	-0.274821	0.487199
H104	H	0.827631	-0.196252	0.566023
H105	H	0.767412	-0.265001	0.561839
H106	H	0.767381	-0.200241	0.497282
H107	H	0.885432	-0.305102	0.521580
H108	H	0.885418	-0.240332	0.457021
H109	H	1.284465	-0.805326	0.523350
C110	C	1.047054	-1.172184	0.285473
C111	C	1.036356	-1.091027	0.274772
H112	H	1.012789	-1.200240	0.251132
H113	H	1.035449	-1.185676	0.338565
H114	H	1.100179	-1.185677	0.273965
H115	H	0.983232	-1.077533	0.286285
H116	H	1.047956	-1.077530	0.221668
C117	C	1.231460	-0.196341	0.690874
C118	C	1.248478	-0.274628	0.670901
H119	H	1.265770	-0.162051	0.662873
H120	H	1.238718	-0.189100	0.745940
H121	H	1.178351	-0.184775	0.677342
H122	H	1.301585	-0.286195	0.684438
H123	H	1.241226	-0.281872	0.615823
C124	C	0.799366	-0.531111	0.230150
C125	C	0.853062	-0.486792	0.274586
H126	H	0.827349	-0.565376	0.195784
H127	H	0.767164	-0.496637	0.199983
H128	H	0.767179	-0.561388	0.264550
H129	H	0.885247	-0.456510	0.240186
H130	H	0.885279	-0.521270	0.304755
H131	H	0.443891	-0.472446	0.289107
H132	H	1.000179	-0.955499	0.238574
C133	C	0.474748	-0.526664	0.234733
C134	C	0.555911	-0.537313	0.224012
H135	H	0.446712	-0.560936	0.200380
H136	H	0.461225	-0.473550	0.223259
H137	H	0.461262	-0.538299	0.287828
H138	H	0.569398	-0.525673	0.170918
H139	H	0.569439	-0.590439	0.235480
C140	C	0.384842	-0.319528	0.537976
C141	C	0.432283	-0.274874	0.487289
H142	H	0.356852	-0.285269	0.572342
H143	H	0.417060	-0.353988	0.568143
H144	H	0.348430	-0.349602	0.507817
H145	H	0.468699	-0.244805	0.517448
H146	H	0.400063	-0.240401	0.457119
C147	C	0.508692	-0.269027	0.588582
C148	C	0.556141	-0.224372	0.537903
H149	H	0.480699	-0.234768	0.622946
H150	H	0.540904	-0.303489	0.618751
H151	H	0.472283	-0.299098	0.558417
H152	H	0.592555	-0.194306	0.568068
H153	H	0.523926	-0.189896	0.507731
H154	H	0.717457	-0.522907	0.238407
H155	H	1.284522	-0.955103	0.523370
