data_functionalizedCrystal
_audit_creation_method	'MofGen! by Chris Wilmer'
_symmetry_space_group_name_H-M	'P1'
_symmetry_Int_Tables_number	1
_symmetry_cell_setting	triclinic
loop_
_symmetry_equiv_pos_as_xyz
  x,y,z
_cell_length_a	16.956995
_cell_length_b	12.996460
_cell_length_c	16.974755
_cell_angle_alpha	86.336968
_cell_angle_beta	100.271738
_cell_angle_gamma	90.008872
loop_
_atom_site_label
_atom_site_type_symbol
_atom_site_fract_x
_atom_site_fract_y
_atom_site_fract_z
O1	O	1.058000	0.088368	-0.032775
O2	O	0.825810	0.090667	-0.060536
O3	O	0.948386	0.079887	0.068873
O4	O	0.935424	0.099148	-0.162184
O5	O	0.948373	-0.091247	0.068879
O6	O	0.825798	-0.080467	-0.060530
O7	O	1.057987	-0.082766	-0.032769
Cu8	Cu	0.941891	-0.097243	-0.046649
Cu9	Cu	0.941906	0.105143	-0.046656
O10	O	0.935411	-0.071986	-0.162179
C11	C	0.796094	0.005217	-0.061955
C12	C	0.707569	0.005563	-0.066180
C13	C	0.208232	0.008237	-0.097794
C14	C	0.291411	0.007905	-0.093818
C15	C	0.342587	0.001674	-0.019170
C16	C	0.310579	-0.004214	0.051504
C17	C	0.227400	-0.003874	0.047527
C18	C	0.592382	0.000015	0.000517
C19	C	0.675566	-0.000327	0.004489
C20	C	0.656393	0.011793	-0.140833
C21	C	0.573214	0.012126	-0.144804
C22	C	0.541213	0.006243	-0.074130
N23	N	0.427610	0.001331	-0.015104
N24	N	0.456191	0.006594	-0.078197
N25	N	0.941886	-0.239590	-0.046643
C26	C	0.941905	-0.659403	-0.046657
C27	C	0.941898	-0.542598	-0.046656
C28	C	0.941896	-0.449501	-0.046651
C29	C	0.941888	-0.332688	-0.046649
C30	C	1.087703	0.002686	-0.031351
C31	C	1.176229	0.002346	-0.027125
C32	C	0.947889	-0.008131	0.098303
C33	C	0.946418	-0.015434	0.185985
N34	N	0.941917	0.247490	-0.046655
C35	C	0.935908	0.016034	-0.191608
C36	C	0.937379	0.023344	-0.279291
C37	C	0.938066	-0.066514	0.679530
C38	C	0.939456	-0.059657	0.597145
C39	C	0.940164	0.037059	0.555942
C40	C	0.939474	0.126924	0.597126
C41	C	0.938079	0.120066	0.679509
C42	C	0.944333	0.067573	0.309552
C43	C	0.945731	0.074424	0.227164
C44	C	0.945711	-0.112158	0.227189
C45	C	0.944321	-0.119007	0.309574
C46	C	0.943627	-0.029143	0.350750
N47	N	0.941587	0.044070	0.471731
N48	N	0.942198	-0.036155	0.434958
H49	H	0.682457	0.016584	-0.198373
H50	H	0.943775	0.140747	0.343070
H51	H	0.940046	0.205672	0.563571
C52	C	0.937342	0.218909	0.724810
H53	H	0.937976	0.277493	0.688476
H54	H	0.890323	0.220883	0.747880
H55	H	0.983291	0.219341	0.766017
H56	H	0.946307	0.153186	0.193619
H57	H	0.946275	-0.185321	0.193653
H58	H	0.566338	-0.004778	0.058065
H59	H	0.940028	-0.132830	0.563623
H60	H	0.317464	0.012711	-0.151364
C61	C	0.151946	0.015096	-0.179907
H62	H	0.182922	0.018568	-0.221425
H63	H	0.119086	-0.044194	-0.184486
H64	H	0.119114	0.075169	-0.184474
C65	C	0.366869	-0.011070	0.133615
H66	H	0.420991	-0.010440	0.125863
H67	H	0.357188	0.046171	0.162821
H68	H	0.357161	-0.073192	0.162813
C69	C	0.516926	0.018981	-0.226916
H70	H	0.547900	0.022449	-0.268436
H71	H	0.484070	-0.040313	-0.231487
H72	H	0.484091	0.079051	-0.231488
C73	C	0.731858	-0.007162	0.086604
H74	H	0.700887	-0.010603	0.128127
H75	H	0.764697	-0.067222	0.091184
H76	H	0.764710	0.052144	0.091163
H77	H	0.937493	-0.145271	0.713073
C78	C	0.192197	-0.010357	0.125263
H79	H	0.234586	-0.014125	0.170290
H80	H	0.160158	0.049202	0.126732
H81	H	0.160137	-0.070161	0.126731
C82	C	0.943538	-0.225395	0.354891
H83	H	0.944140	-0.277931	0.318565
H84	H	0.989474	-0.232705	0.396104
H85	H	0.896506	-0.231189	0.377952
