data_functionalizedCrystal
_audit_creation_method	'MofGen! by Chris Wilmer'
_symmetry_space_group_name_H-M	'P1'
_symmetry_Int_Tables_number	1
_symmetry_cell_setting	triclinic
loop_
_symmetry_equiv_pos_as_xyz
  x,y,z
_cell_length_a	6.817900
_cell_length_b	17.110486
_cell_length_c	11.102188
_cell_angle_alpha	95.184548
_cell_angle_beta	108.603875
_cell_angle_gamma	99.060439
loop_
_atom_site_label
_atom_site_type_symbol
_atom_site_fract_x
_atom_site_fract_y
_atom_site_fract_z
V1	V	-4.002954	-0.246720	-0.175460
O2	O	-3.964064	-0.242024	0.008821
O3	O	-3.980464	-0.245033	-0.348283
O4	O	-3.932386	-0.354323	-0.172591
O5	O	-4.012475	-0.131977	-0.168088
V6	V	-4.486097	-0.232996	-0.153438
O7	O	-4.265046	-0.276826	-0.223767
O8	O	-4.674203	-0.202891	-0.105131
O9	O	-4.285381	-0.234683	0.019384
O10	O	-4.642385	-0.237693	-0.337720
O11	O	-4.593974	-0.347740	-0.160811
O12	O	-4.333459	-0.125393	-0.156308
C13	C	-3.832486	-0.241141	-0.390419
C14	C	-3.895237	-0.240478	-0.531702
C15	C	-3.896436	-0.167703	-0.580040
C16	C	-3.955419	-0.167084	-0.712792
C17	C	-4.011994	-0.312022	-0.748859
C18	C	-3.953026	-0.312640	-0.616110
C19	C	-4.119180	-0.081714	-0.876700
C20	C	-4.120345	-0.008934	-0.925040
C21	C	-3.959060	0.057385	-0.861880
C22	C	-3.796562	0.050927	-0.750380
C23	C	-3.795383	-0.021853	-0.702047
C24	C	-3.956712	-0.088170	-0.765206
C25	C	-3.789245	-0.398005	-0.452197
C26	C	-3.788051	-0.470786	-0.403861
C27	C	-3.949325	-0.537111	-0.467020
C28	C	-4.111798	-0.530661	-0.578525
C29	C	-4.112992	-0.457880	-0.626861
C30	C	-3.951718	-0.391555	-0.563693
C31	C	-3.771156	-0.380551	-0.166304
C32	C	-3.794913	-0.468517	-0.165101
C33	C	-3.988312	-0.513875	-0.170879
C34	C	-4.010623	-0.596528	-0.169748
C35	C	-3.839536	-0.633823	-0.162848
C36	C	-3.646120	-0.588458	-0.157066
C37	C	-3.623807	-0.505806	-0.158188
C38	C	-3.897784	-0.883178	-0.159135
C39	C	-3.920114	-0.965837	-0.158018
C40	C	-4.284615	-0.973900	-0.170697
C41	C	-4.262289	-0.891246	-0.171826
C42	C	-4.068873	-0.845889	-0.166037
C43	C	-3.862339	-0.718308	-0.161696
C44	C	-4.046068	-0.761404	-0.167180
C45	C	-4.096703	-0.238573	0.061513
C46	C	-4.013189	-0.239241	0.202796
C47	C	-4.158033	-0.099161	-0.162599
C48	C	-4.113513	-0.011194	-0.163795
H49	H	-4.243114	-0.584670	-0.629956
H50	H	-3.740317	-0.846261	-0.154467
H51	H	-3.506816	-0.618829	-0.151441
H52	H	-4.252666	-0.003682	-1.015825
Cl53	Cl	-4.253772	-0.653548	-0.177029
H54	H	-3.960014	0.116643	-0.901248
Cl55	Cl	-4.321976	-0.165082	-0.956099
Cl56	Cl	-3.823800	-0.076986	-0.473932
Cl57	Cl	-3.647278	-0.765202	-0.153042
H58	H	-4.442088	-1.010839	-0.175408
H59	H	-3.665223	0.104931	-0.698970
H60	H	-3.466308	-0.468873	-0.153452
Cl61	Cl	-4.203413	-0.466999	-0.179562
Cl62	Cl	-3.705015	-1.012720	-0.149343
H63	H	-4.185363	-0.731035	-0.172794
H64	H	-3.657914	-0.344000	-0.400759
Cl65	Cl	-3.591122	-0.029975	-0.561886
Cl66	Cl	-4.084633	-0.402734	-0.854979
Cl67	Cl	-4.317246	-0.449772	-0.767043
Cl68	Cl	-4.477385	-0.844368	-0.180505
H69	H	-3.948325	-0.596375	-0.427659
Cl70	Cl	-3.583785	-0.478896	-0.263687
