data_functionalizedCrystal
_audit_creation_method	'MofGen! by Chris Wilmer'
_symmetry_space_group_name_H-M	'P1'
_symmetry_Int_Tables_number	1
_symmetry_cell_setting	triclinic
loop_
_symmetry_equiv_pos_as_xyz
  x,y,z
_cell_length_a	16.625546
_cell_length_b	12.759401
_cell_length_c	12.759393
_cell_angle_alpha	90.021157
_cell_angle_beta	89.964881
_cell_angle_gamma	89.981929
loop_
_atom_site_label
_atom_site_type_symbol
_atom_site_fract_x
_atom_site_fract_y
_atom_site_fract_z
Zn1	Zn	-0.321057	-1.606210	-0.593992
Zn2	Zn	-0.455911	-1.606077	-0.418298
Zn3	Zn	-0.321086	-1.430508	-0.418327
Zn4	Zn	-0.455841	-1.430476	-0.593935
O5	O	-0.388474	-1.518318	-0.506138
O6	O	-0.338963	-1.753213	-0.570698
O7	O	-0.438068	-1.582745	-0.271281
O8	O	-0.208250	-1.453884	-0.441665
O9	O	-0.438040	-1.753115	-0.441617
O10	O	-0.208229	-1.582971	-0.570726
O11	O	-0.339013	-1.453756	-0.271302
O12	O	-0.338944	-1.283483	-0.441610
O13	O	-0.437920	-1.453830	-0.740964
O14	O	-0.437948	-1.283460	-0.570628
O15	O	-0.338895	-1.582940	-0.741006
O16	O	-0.568735	-1.582714	-0.441561
O17	O	-0.568683	-1.453701	-0.570600
C18	C	-0.388443	-1.245350	-0.506116
C19	C	-0.388448	-1.128574	-0.506132
C20	C	-0.336963	-0.964026	-0.573452
C21	C	-0.336953	-1.073750	-0.573447
C22	C	-0.439964	-1.073668	-0.438824
C23	C	-0.439978	-0.963946	-0.438834
C24	C	-0.597965	-1.518218	-0.506094
C25	C	-0.687586	-1.518272	-0.506110
C26	C	-1.015762	-1.518455	-0.506220
C27	C	-0.924453	-1.518401	-0.506192
C28	C	-0.851677	-1.518363	-0.506165
C29	C	-0.760362	-1.518310	-0.506138
C30	C	-0.178165	-1.518446	-0.506205
C31	C	-0.088544	-1.518501	-0.506234
C32	C	-0.388397	-1.518396	-0.780172
C33	C	-0.388364	-1.518430	-0.896948
C34	C	-0.388495	-0.792351	-0.506155
C35	C	-0.388473	-0.909128	-0.506147
C36	C	-0.336793	-1.585663	-0.951834
C37	C	-0.336758	-1.585681	-1.061558
C38	C	-0.439872	-1.451230	-1.061501
C39	C	-0.439902	-1.451208	-0.951779
C40	C	-0.388493	-1.518300	-0.233171
C41	C	-0.388299	-1.518470	-0.116395
H42	H	-0.294825	-1.640397	-0.907194
O43	O	-0.281141	-1.658201	-1.120761
H44	H	-0.245315	-1.704944	-1.064196
O45	O	-0.281413	-0.904904	-0.646054
H46	H	-0.290068	-0.819384	-0.634747
H47	H	-0.481896	-1.396451	-0.907090
O48	O	-0.281385	-1.132959	-0.646031
H49	H	-0.295280	-1.111926	-0.728458
H50	H	-0.481896	-1.118314	-0.384018
H51	H	-0.481928	-0.919246	-0.384026
H52	H	-0.481834	-1.396502	-1.106158
