data_functionalizedCrystal
_audit_creation_method	'MofGen! by Chris Wilmer'
_symmetry_space_group_name_H-M	'P1'
_symmetry_Int_Tables_number	1
_symmetry_cell_setting	triclinic
loop_
_symmetry_equiv_pos_as_xyz
  x,y,z
_cell_length_a	8.965430
_cell_length_b	11.026607
_cell_length_c	11.026607
_cell_angle_alpha	71.413983
_cell_angle_beta	89.997511
_cell_angle_gamma	89.995808
loop_
_atom_site_label
_atom_site_type_symbol
_atom_site_fract_x
_atom_site_fract_y
_atom_site_fract_z
O1	O	0.124036	-1.726731	0.533614
O2	O	0.124038	-1.360151	0.472850
O3	O	0.124032	-1.513059	0.319942
O4	O	0.124042	-1.573823	0.686522
O5	O	-0.124047	-1.513046	0.319952
O6	O	-0.124041	-1.360137	0.472860
O7	O	-0.124043	-1.726717	0.533623
Cu8	Cu	-0.146694	-1.543426	0.503242
Cu9	Cu	0.146688	-1.543442	0.503231
O10	O	-0.124037	-1.573809	0.686532
C11	C	-0.000001	-1.312485	0.461645
C12	C	-0.000000	-1.170471	0.428228
N13	N	-0.353043	-1.543424	0.503252
C14	C	-0.000006	-1.501843	0.272287
C15	C	-0.000000	-1.468426	0.130273
C16	C	-0.450346	-1.472675	0.573931
C17	C	-0.549759	-1.593231	0.623813
C18	C	-0.549756	-1.422919	0.453390
C19	C	-0.450268	-1.664050	0.553204
C20	C	-0.450256	-1.493652	0.382715
C21	C	-0.549625	-1.614280	0.432566
N22	N	0.353038	-1.543452	0.503214
C23	C	-0.000001	-1.774384	0.544828
C24	C	0.000008	-1.916398	0.578245
C25	C	0.000003	-1.116821	0.520498
C26	C	0.000004	-0.970043	0.485962
C27	C	0.000001	-1.560695	0.076624
C28	C	0.000007	-1.526160	-0.070155
C29	C	0.000004	-1.585026	0.734187
C30	C	0.000008	-1.618443	0.876200
H31	H	-0.406754	-1.412930	0.633787
H32	H	0.000040	-0.907314	0.381393
H33	H	-0.593461	-1.320998	0.411237
C34	C	-0.608826	-1.650118	0.761491
H35	H	-0.574847	-1.599742	0.811614
H36	H	-0.573305	-1.735248	0.797393
H37	H	-0.714778	-1.650428	0.760402
H38	H	0.000001	-0.979125	0.682816
H39	H	-0.000002	-1.179555	0.625061
H40	H	0.000035	-1.107738	0.323666
H41	H	-0.000009	-1.665258	0.139357
C42	C	0.000018	-1.384893	-0.154880
H43	H	0.000028	-1.331483	-0.102187
H44	H	-0.086486	-1.368010	-0.207363
H45	H	0.086546	-1.368033	-0.207348
H46	H	0.000120	-1.723013	-0.061072
C47	C	0.000011	-1.327166	0.045544
H48	H	0.000021	-1.273755	0.098237
H49	H	-0.086493	-1.310283	-0.006939
H50	H	0.086539	-1.310306	-0.006924
H51	H	-0.592942	-1.674205	0.372793
C52	C	-0.391492	-1.801799	0.610327
H53	H	-0.285530	-1.800943	0.610036
H54	H	-0.426275	-1.852179	0.560498
H55	H	-0.426391	-1.837246	0.695712
H56	H	-0.406515	-1.451507	0.280816
