data_functionalizedCrystal
_audit_creation_method	'MofGen! by Chris Wilmer'
_symmetry_space_group_name_H-M	'P1'
_symmetry_Int_Tables_number	1
_symmetry_cell_setting	triclinic
loop_
_symmetry_equiv_pos_as_xyz
  x,y,z
_cell_length_a	13.596369
_cell_length_b	13.339070
_cell_length_c	13.262508
_cell_angle_alpha	80.569504
_cell_angle_beta	74.082056
_cell_angle_gamma	89.992667
loop_
_atom_site_label
_atom_site_type_symbol
_atom_site_fract_x
_atom_site_fract_y
_atom_site_fract_z
O1	O	-0.059116	-1.344490	0.526826
O2	O	-0.040622	-1.049673	0.457676
O3	O	-0.009577	-1.204502	0.341621
O4	O	-0.090161	-1.189660	0.642882
O5	O	-0.173160	-1.204483	0.341625
O6	O	-0.204205	-1.049654	0.457680
O7	O	-0.222699	-1.344471	0.526830
Zn8	Zn	-0.239425	-1.197059	0.492255
Zn9	Zn	-0.023896	-1.197084	0.492251
O10	O	-0.253744	-1.189641	0.642885
C11	C	-0.119289	-1.011926	0.445997
C12	C	-0.109977	-0.899478	0.411180
N13	N	-0.386518	-1.197050	0.492260
C14	C	-0.080842	-1.203663	0.302277
C15	C	-0.049475	-1.201176	0.185036
C16	C	-0.475517	-1.197055	0.492264
C17	C	-0.587167	-1.197064	0.492259
C18	C	-0.676155	-1.197078	0.492251
C19	C	-0.787813	-1.197089	0.492248
N20	N	0.123198	-1.197102	0.492240
C21	C	-0.144030	-1.382218	0.538509
C22	C	-0.153336	-1.494666	0.573326
C23	C	-0.182377	-0.535818	0.681903
C24	C	-0.191124	-0.641467	0.714619
C25	C	-0.170839	-0.705975	0.638762
C26	C	-0.141803	-0.664823	0.530183
C27	C	-0.133048	-0.559163	0.497464
C28	C	-0.121509	-0.729321	0.454323
C29	C	-0.092474	-0.688169	0.345744
C30	C	-0.083720	-0.582519	0.313030
C31	C	-0.104006	-0.518011	0.388887
C32	C	-0.130265	-0.834981	0.487042
C33	C	-0.080935	-0.858326	0.302603
C34	C	-0.072188	-0.752676	0.269887
C35	C	-0.317745	-1.194121	-0.145455
C36	C	-0.347217	-1.196449	-0.035302
C37	C	-0.272784	-1.197632	0.019788
C38	C	-0.168874	-1.196485	-0.035286
C39	C	-0.139400	-1.194149	-0.145451
C40	C	-0.094438	-1.197659	0.019792
C41	C	0.009471	-1.196512	-0.035282
C42	C	0.038941	-1.194177	-0.145436
C43	C	-0.035492	-1.192995	-0.200526
C44	C	-0.123913	-1.199995	0.129957
C45	C	0.054433	-1.200022	0.129961
C46	C	0.083904	-1.197694	0.019808
C47	C	-0.182477	-1.190481	0.682229
C48	C	-0.213838	-1.192967	0.799470
H49	H	-0.177960	-0.791999	0.665406
O50	O	-0.224818	-1.201251	0.183582
C51	C	-0.365273	-1.291541	0.321525
C52	C	-0.250972	-1.290234	0.260900
H53	H	-0.386459	-1.363487	0.384034
H54	H	-0.380622	-1.221885	0.362163
H55	H	-0.413377	-1.290245	0.263196
H56	H	-0.202794	-1.291565	0.319158
H57	H	-0.235705	-1.359883	0.220245
O58	O	-0.044007	-0.712863	0.164374
C59	C	0.004066	-0.747160	-0.015115
C60	C	-0.027865	-0.792383	0.104341
H61	H	0.017147	-0.811430	-0.063686
H62	H	-0.059062	-0.698304	-0.035101
H63	H	0.077827	-0.698255	-0.034992
H64	H	-0.101603	-0.841335	0.124303
H65	H	0.035325	-0.841181	0.124264
H66	H	0.168509	-1.196760	-0.025048
H67	H	-0.011501	-1.191104	-0.290220
H68	H	-0.296786	-1.199525	0.109479
O69	O	-0.448193	-1.197625	0.018040
C70	C	-0.621975	-1.197328	0.006400
C71	C	-0.507649	-1.196005	-0.054140
H72	H	-0.670077	-1.195997	-0.051934
H73	H	-0.643223	-1.269240	0.068954
H74	H	-0.637255	-1.127646	0.047000
H75	H	-0.492286	-1.265637	-0.094804
H76	H	-0.486458	-1.124047	-0.116634
O77	O	-0.055472	-0.542374	0.207601
C78	C	-0.020171	-0.389955	0.075460
C79	C	-0.052150	-0.435281	0.194890
H80	H	-0.017496	-0.303365	0.065145
H81	H	0.058757	-0.416425	0.036381
H82	H	-0.078175	-0.416532	0.036434
H83	H	0.005783	-0.408725	0.234008
H84	H	-0.131103	-0.408816	0.233890
H85	H	0.123551	-1.193234	-0.190275
H86	H	-0.153909	-0.868476	0.575448
O87	O	-0.219250	-0.681608	0.820041
C88	C	-0.254593	-0.834025	0.952184
C89	C	-0.222723	-0.788701	0.832754
H90	H	-0.257432	-0.920615	0.962501
H91	H	-0.196549	-0.807567	0.991231
H92	H	-0.333470	-0.807436	0.991242
H93	H	-0.143868	-0.815270	0.793605
H94	H	-0.280834	-0.815155	0.793786
O95	O	0.126812	-1.200975	0.183360
C96	C	0.273926	-1.114059	0.203315
C97	C	0.191995	-1.112856	0.142784
H98	H	0.326661	-1.042834	0.170518
H99	H	0.235103	-1.115858	0.291517
H100	H	0.320711	-1.184429	0.192676
H101	H	0.145184	-1.042497	0.153336
H102	H	0.230881	-1.111111	0.054605
O103	O	-0.201919	-0.473053	0.755479
C104	C	-0.135883	-0.340267	0.825600
C105	C	-0.113622	-0.411275	0.742197
H106	H	-0.064503	-0.290316	0.814905
H107	H	-0.201425	-0.290134	0.814886
H108	H	-0.158189	-0.387842	0.908815
H109	H	-0.091271	-0.363780	0.658947
H110	H	-0.048110	-0.461412	0.753004
H111	H	-0.064413	-0.910849	0.240834
H112	H	-0.096886	-0.431981	0.362255
O113	O	-0.389937	-1.192839	-0.199109
C114	C	-0.456539	-1.102520	-0.337091
C115	C	-0.374703	-1.103854	-0.276428
H116	H	-0.444264	-1.030573	-0.399602
H117	H	-0.450129	-1.172175	-0.377730
H118	H	-0.535862	-1.103799	-0.278787
H119	H	-0.295343	-1.102541	-0.334662
H120	H	-0.381204	-1.034206	-0.235772
