data_functionalizedCrystal
_audit_creation_method	'MofGen! by Chris Wilmer'
_symmetry_space_group_name_H-M	'P1'
_symmetry_Int_Tables_number	1
_symmetry_cell_setting	triclinic
loop_
_symmetry_equiv_pos_as_xyz
  x,y,z
_cell_length_a	13.448316
_cell_length_b	14.971486
_cell_length_c	14.971494
_cell_angle_alpha	96.384157
_cell_angle_beta	89.995115
_cell_angle_gamma	90.001801
loop_
_atom_site_label
_atom_site_type_symbol
_atom_site_fract_x
_atom_site_fract_y
_atom_site_fract_z
O1	O	-0.082574	-1.186951	0.116564
O2	O	0.417426	-0.686951	0.616564
O3	O	-0.082600	-0.926551	0.130523
O4	O	0.417400	-0.426551	0.630523
O5	O	-0.082584	-1.063726	-0.006656
O6	O	0.417416	-0.563726	0.493344
O7	O	-0.082590	-1.049776	0.253743
O8	O	0.417410	-0.549776	0.753743
O9	O	0.082800	-1.063709	-0.006664
O10	O	0.582800	-0.563709	0.493336
O11	O	0.082784	-0.926534	0.130515
O12	O	0.582784	-0.426534	0.630515
O13	O	0.082810	-1.186934	0.116556
O14	O	0.582810	-0.686934	0.616556
Cu15	Cu	0.097898	-1.056732	0.123534
Cu16	Cu	0.597898	-0.556732	0.623534
Cu17	Cu	-0.097688	-1.056753	0.123544
Cu18	Cu	0.402312	-0.556753	0.623544
O19	O	0.082794	-1.049758	0.253735
O20	O	0.582794	-0.549758	0.753735
C21	C	0.000088	-0.893218	0.129895
C22	C	0.500088	-0.393218	0.629895
C23	C	0.000078	-0.793921	0.128024
C24	C	0.500078	-0.293921	0.628024
N25	N	0.235462	-1.056724	0.123527
N26	N	0.735462	-0.556724	0.623527
C27	C	0.000106	-1.063093	-0.039985
C28	C	0.500106	-0.563093	0.460015
C29	C	0.000102	-1.061219	-0.139281
C30	C	0.500102	-0.561219	0.360719
N31	N	-0.235252	-1.056768	0.123545
N32	N	0.264748	-0.556768	0.623545
C33	C	0.287510	-1.117484	0.062809
C34	C	0.787510	-0.617484	0.562809
C35	C	0.391613	-1.117490	0.062808
C36	C	0.891613	-0.617490	0.562808
C37	C	0.443667	-1.056739	0.123530
C38	C	0.943667	-0.556739	0.623530
C39	C	0.391612	-0.995973	0.184251
C40	C	0.891612	-0.495973	0.684251
C41	C	0.287510	-0.995963	0.184247
C42	C	0.787510	-0.495963	0.684247
C43	C	0.608592	-0.995997	0.184257
C44	C	1.108592	-0.495997	0.684257
C45	C	0.712700	-0.996007	0.184263
C46	C	1.212700	-0.496007	0.684263
C47	C	0.712694	-1.117524	0.062819
C48	C	1.212694	-0.617524	0.562819
C49	C	0.608593	-1.117515	0.062814
C50	C	1.108593	-0.617515	0.562814
C51	C	0.556545	-1.056749	0.123536
C52	C	1.056545	-0.556749	0.623536
C53	C	0.000120	-1.220267	0.117184
C54	C	0.500120	-0.720267	0.617184
C55	C	0.000123	-1.319564	0.119055
C56	C	0.500123	-0.819564	0.619055
C57	C	0.000078	-0.736698	0.208613
C58	C	0.500078	-0.236698	0.708613
C59	C	0.000092	-0.643398	0.206850
C60	C	0.500092	-0.143398	0.706850
C61	C	0.000101	-0.607323	0.124497
C62	C	0.500101	-0.107323	0.624497
C63	C	0.000104	-0.664554	0.043902
C64	C	0.500104	-0.164554	0.543902
C65	C	0.000096	-0.757851	0.045666
C66	C	0.500096	-0.257851	0.545666
C67	C	0.000118	-0.470091	0.040231
C68	C	0.500118	0.029909	0.540231
C69	C	0.000124	-0.376787	0.038466
C70	C	0.500124	0.123213	0.538466
C71	C	0.000114	-0.355638	0.201415
C72	C	0.500114	0.144362	0.701415
C73	C	0.000106	-0.448936	0.203179
C74	C	0.500106	0.051064	0.703179
C75	C	0.000108	-0.506160	0.122583
C76	C	0.500108	-0.006160	0.622583
C77	C	-0.090050	-1.060350	-0.185921
C78	C	0.409950	-0.560350	0.314079
C79	C	-0.090052	-1.058584	-0.279221
C80	C	0.409948	-0.558584	0.220779
C81	C	0.000100	-1.057693	-0.325879
C82	C	0.500100	-0.557693	0.174121
C83	C	0.090259	-1.058559	-0.279232
C84	C	0.590259	-0.558559	0.220768
C85	C	0.090259	-1.060319	-0.185933
C86	C	0.590259	-0.560319	0.314067
C87	C	0.090252	-1.054893	-0.473695
C88	C	0.590252	-0.554893	0.026305
C89	C	0.090252	-1.053135	-0.567000
C90	C	0.590252	-0.553135	-0.067000
C91	C	-0.090059	-1.053158	-0.566982
C92	C	0.409941	-0.553158	-0.066982
C93	C	-0.090059	-1.054918	-0.473684
C94	C	0.409941	-0.554918	0.026316
C95	C	0.000100	-1.055786	-0.427043
C96	C	0.500100	-0.555786	0.072957
C97	C	0.000101	-1.050392	0.287064
C98	C	0.500101	-0.550392	0.787064
C99	C	0.000100	-1.052266	0.386360
C100	C	0.500100	-0.552266	0.886360
H101	H	0.245134	-1.166959	0.013366
H102	H	0.745134	-0.666959	0.513366
H103	H	0.000096	-0.804442	-0.019958
H104	H	0.500096	-0.304442	0.480042
H105	H	0.000090	-0.478304	0.270238
H106	H	0.500090	0.021696	0.770238
H107	H	0.163662	-1.057828	-0.317227
H108	H	0.663662	-0.557828	0.182773
H109	H	0.434000	-0.946503	0.233689
H110	H	0.934000	-0.446503	0.733689
H111	H	0.245134	-0.946485	0.233688
H112	H	0.745134	-0.446485	0.733688
H113	H	0.755077	-0.946537	0.233708
H114	H	1.255077	-0.446537	0.733708
H115	H	0.000117	-0.309041	0.267038
H116	H	0.500117	0.190959	0.767038
H117	H	0.755078	-1.167001	0.013377
H118	H	1.255078	-0.667001	0.513377
H119	H	-0.163463	-1.061080	-0.147940
H120	H	0.336537	-0.561080	0.352060
H121	H	-0.163463	-1.057880	-0.317191
H122	H	0.336537	-0.557880	0.182809
H123	H	0.000125	-0.635174	-0.023152
H124	H	0.500125	-0.135174	0.476848
H125	H	0.163669	-1.055580	-0.435721
H126	H	0.663669	-0.555580	0.064279
H127	H	-0.163468	-1.055650	-0.435698
H128	H	0.336532	-0.555650	0.064302
H129	H	-0.163470	-1.052449	-0.604961
H130	H	0.336530	-0.552449	-0.104961
H131	H	0.000132	-0.347418	-0.028593
H132	H	0.500132	0.152582	0.471407
H133	H	0.163661	-1.052402	-0.604985
H134	H	0.663661	-0.552402	-0.104985
H135	H	0.163670	-1.061014	-0.147959
H136	H	0.663670	-0.561014	0.352041
H137	H	0.000091	-0.596810	0.272473
H138	H	0.500091	-0.096810	0.772473
H139	H	0.433990	-1.166965	0.013367
H140	H	0.933990	-0.666965	0.513367
H141	H	0.566211	-1.166987	0.013374
H142	H	1.066211	-0.666987	0.513374
H143	H	0.566218	-0.946512	0.233701
H144	H	1.066218	-0.446512	0.733701
H145	H	0.000070	-0.766062	0.275674
H146	H	0.500070	-0.266062	0.775674
H147	H	0.000121	-0.516681	-0.025399
H148	H	0.500121	-0.016681	0.474601
