data_functionalizedCrystal
_audit_creation_method	'MofGen! by Chris Wilmer'
_symmetry_space_group_name_H-M	'P1'
_symmetry_Int_Tables_number	1
_symmetry_cell_setting	triclinic
loop_
_symmetry_equiv_pos_as_xyz
  x,y,z
_cell_length_a	19.188905
_cell_length_b	14.044220
_cell_length_c	17.666332
_cell_angle_alpha	90.010611
_cell_angle_beta	89.998485
_cell_angle_gamma	88.161716
loop_
_atom_site_label
_atom_site_type_symbol
_atom_site_fract_x
_atom_site_fract_y
_atom_site_fract_z
O1	O	0.933770	0.118202	0.063076
O2	O	1.433770	0.618202	0.563076
O3	O	0.731485	0.134153	0.063051
O4	O	1.231485	0.634153	0.563051
O5	O	0.829591	-0.011794	0.063056
O6	O	1.329591	0.488206	0.563056
O7	O	0.835664	0.264149	0.063071
O8	O	1.335664	0.764149	0.563071
O9	O	0.829609	-0.011814	-0.062841
O10	O	1.329609	0.488186	0.437159
O11	O	0.731503	0.134133	-0.062846
O12	O	1.231503	0.634133	0.437154
O13	O	0.933787	0.118182	-0.062821
O14	O	1.433787	0.618182	0.437179
Cu15	Cu	0.832646	0.126156	-0.074329
Cu16	Cu	1.332646	0.626156	0.425671
Cu17	Cu	0.832626	0.126179	0.074559
Cu18	Cu	1.332626	0.626179	0.574559
O19	O	0.835681	0.264130	-0.062825
O20	O	1.335681	0.764130	0.437175
C21	C	0.705450	0.133630	0.000099
C22	C	1.205450	0.633630	0.500099
C23	C	0.627845	0.132092	0.000089
C24	C	1.127845	0.632092	0.500089
C25	C	0.826942	-0.047107	0.000107
C26	C	1.326942	0.452893	0.500107
C27	C	0.819013	-0.152299	0.000105
C28	C	1.319013	0.347701	0.500105
C29	C	0.804517	-0.344899	0.000114
C30	C	1.304517	0.155101	0.500114
C31	C	0.860752	-0.402772	0.000123
C32	C	1.360752	0.097228	0.500123
C33	C	0.852686	-0.509941	0.000128
C34	C	1.352686	-0.009941	0.500128
C35	C	0.812582	-0.237720	0.000109
C36	C	1.312582	0.262280	0.500109
C37	C	0.591396	0.131363	0.068717
C38	C	1.091396	0.631363	0.568717
C39	C	0.518478	0.129907	0.068727
C40	C	1.018478	0.629907	0.568727
C41	C	0.482013	0.129160	0.000104
C42	C	0.982013	0.629160	0.500104
C43	C	0.518471	0.129894	-0.068534
C44	C	1.018471	0.629894	0.431466
C45	C	0.591387	0.131360	-0.068541
C46	C	1.091387	0.631360	0.431459
N47	N	0.369371	0.072924	-0.050969
N48	N	0.869371	0.572924	0.449031
N49	N	0.300104	0.071529	-0.050957
N50	N	0.800104	0.571529	0.449043
C51	C	0.262322	0.124745	0.000122
C52	C	0.762322	0.624745	0.500122
N53	N	0.296423	0.179397	0.051200
N54	N	0.796423	0.679397	0.551200
N55	N	0.365696	0.180787	0.051191
N56	N	0.865696	0.680787	0.551191
C57	C	0.402948	0.127571	0.000104
C58	C	0.902948	0.627571	0.500104
C59	C	0.146807	0.122439	0.068765
C60	C	0.646807	0.622439	0.568765
C61	C	0.073888	0.120989	0.068771
C62	C	0.573888	0.620989	0.568771
C63	C	0.073882	0.120966	-0.068491
C64	C	0.573882	0.620966	0.431509
C65	C	0.146799	0.122426	-0.068495
C66	C	0.646799	0.622426	0.431505
C67	C	0.183258	0.123158	0.000135
C68	C	0.683258	0.623158	0.500135
C69	C	0.959823	0.118705	0.000133
C70	C	1.459823	0.618705	0.500133
C71	C	1.037428	0.120243	0.000148
C72	C	1.537428	0.620243	0.500148
C73	C	0.838331	0.299442	0.000125
C74	C	1.338331	0.799442	0.500125
C75	C	0.846259	0.404634	0.000132
C76	C	1.346259	0.904634	0.500132
N77	N	0.832611	0.126188	0.179278
N78	N	1.332611	0.626188	0.679278
N79	N	0.832666	0.126139	-0.179048
N80	N	1.332666	0.626139	0.320952
C81	C	0.878447	0.183626	0.218901
C82	C	1.378447	0.683626	0.718901
C83	C	0.878452	0.183627	0.298149
C84	C	1.378452	0.683627	0.798149
C85	C	0.832628	0.126172	0.337770
C86	C	1.332628	0.626172	0.837770
C87	C	0.786783	0.068730	0.298138
C88	C	1.286783	0.568730	0.798138
C89	C	0.786775	0.068738	0.218892
C90	C	1.286775	0.568738	0.718892
N91	N	0.825715	0.043126	0.462178
N92	N	1.325715	0.543126	0.962178
N93	N	0.825727	0.043121	0.537458
N94	N	1.325727	0.543121	1.037458
C95	C	0.832648	0.126147	0.576534
C96	C	1.332648	0.626147	1.076534
N97	N	0.839571	0.209178	0.537486
N98	N	1.339571	0.709178	1.037486
N99	N	0.839563	0.209182	0.462199
N100	N	1.339563	0.709182	0.962199
C101	C	0.832631	0.126158	0.423700
C102	C	1.332631	0.626158	0.923700
C103	C	0.878492	0.183591	0.702087
C104	C	1.378492	0.683591	1.202087
C105	C	0.878491	0.183594	0.781336
C106	C	1.378491	0.683594	1.281336
C107	C	0.786826	0.068688	0.781323
C108	C	1.286826	0.568688	1.281323
C109	C	0.786823	0.068694	0.702076
C110	C	1.286823	0.568694	1.202076
C111	C	0.832659	0.126144	0.662462
C112	C	1.332659	0.626144	1.162462
H113	H	0.914954	-0.371832	0.000181
H114	H	1.414954	0.128168	0.500181
H115	H	0.488796	0.129315	0.124614
H116	H	0.988796	0.629315	0.624614
F117	F	0.927246	0.244752	0.340327
F118	F	1.427246	0.744752	0.840327
H119	H	0.750320	-0.375837	0.000109
H120	H	1.250320	0.124163	0.500109
H121	H	0.176477	0.123013	-0.124380
H122	H	0.676477	0.623013	0.375620
H123	H	0.749512	0.021913	0.813582
H124	H	1.249512	0.521913	1.313582
H125	H	0.621076	0.131959	0.124601
H126	H	1.121076	0.631959	0.624601
F127	F	0.479661	0.129104	-0.141567
F128	F	0.979661	0.629104	0.358433
H129	H	0.621063	0.131954	-0.124428
H130	H	1.121063	0.631954	0.375572
F131	F	0.738012	0.007587	0.340307
F132	F	1.238012	0.507587	0.840307
H133	H	0.915769	0.230408	0.186653
H134	H	1.415769	0.730408	0.686653
H135	H	0.176492	0.123045	0.124647
H136	H	0.676492	0.623045	0.624647
F137	F	0.738040	0.007556	0.659904
F138	F	1.238040	0.507556	1.159904
F139	F	0.035077	0.120179	-0.141525
F140	F	0.535077	0.620179	0.358475
F141	F	0.035096	0.120221	0.141819
F142	F	0.535096	0.620221	0.641819
F143	F	0.737988	0.007602	0.176721
F144	F	1.237988	0.507602	0.676721
F145	F	0.927272	0.244736	0.659924
F146	F	1.427272	0.744736	1.159924
F147	F	0.927267	0.244749	0.823505
F148	F	1.427267	0.744749	1.323505
