data_functionalizedCrystal
_audit_creation_method	'MofGen! by Chris Wilmer'
_symmetry_space_group_name_H-M	'P1'
_symmetry_Int_Tables_number	1
_symmetry_cell_setting	triclinic
loop_
_symmetry_equiv_pos_as_xyz
  x,y,z
_cell_length_a	15.712078
_cell_length_b	10.654550
_cell_length_c	9.130313
_cell_angle_alpha	90.003780
_cell_angle_beta	89.999543
_cell_angle_gamma	77.966974
loop_
_atom_site_label
_atom_site_type_symbol
_atom_site_fract_x
_atom_site_fract_y
_atom_site_fract_z
O1	O	0.121735	-1.722213	-0.121921
O2	O	0.133334	-1.361915	-0.121898
O3	O	0.001420	-1.494132	-0.121899
O4	O	0.253650	-1.589996	-0.121920
O5	O	0.001423	-1.494131	0.121700
O6	O	0.133337	-1.361914	0.121701
O7	O	0.121739	-1.722212	0.121678
Cu8	Cu	0.127538	-1.542063	0.143932
Cu9	Cu	0.127534	-1.542064	-0.144152
O10	O	0.253653	-1.589995	0.121679
C11	C	0.132484	-1.314736	-0.000095
C12	C	0.129936	-1.174155	-0.000086
C13	C	-0.030876	-1.478471	-0.000100
C14	C	-0.127111	-1.431791	-0.000100
C15	C	0.122589	-1.769391	-0.000128
C16	C	0.125137	-1.909972	-0.000147
C17	C	-0.491831	-1.828112	-0.000141
C18	C	-0.582256	-1.784220	-0.000137
C19	C	-0.562958	-1.564291	-0.000124
C20	C	-0.472530	-1.608164	-0.000120
C21	C	-0.436974	-1.740076	-0.000130
C22	C	-0.417673	-1.520128	-0.000109
C23	C	-0.327253	-1.563998	-0.000113
C24	C	-0.291689	-1.695905	-0.000128
C25	C	-0.346554	-1.783946	-0.000134
C26	C	-0.453231	-1.388217	-0.000110
C27	C	-0.398374	-1.300181	-0.000099
C28	C	-0.307951	-1.344051	-0.000093
C29	C	-0.272388	-1.475957	-0.000107
C30	C	-0.253087	-1.256009	-0.000086
C31	C	-0.162667	-1.299880	-0.000090
C32	C	-0.181968	-1.519827	-0.000111
C33	C	0.285949	-1.605656	-0.000124
C34	C	0.382183	-1.652336	-0.000133
N35	N	0.127541	-1.542071	0.346554
C36	C	0.207605	-1.129364	-0.000114
C37	C	0.205206	-0.997271	-0.000139
C38	C	0.047462	-0.954771	-0.000115
C39	C	0.049862	-1.086861	-0.000079
C40	C	0.298678	-1.153900	-0.000135
C41	C	0.296278	-1.021807	-0.000160
N42	N	0.127525	-1.542062	-0.346775
C43	C	0.069149	-1.600648	0.423206
C44	C	0.069139	-1.600640	0.576543
C45	C	0.185919	-1.483478	0.576563
C46	C	0.185925	-1.483479	0.423229
C47	C	0.001729	-1.668295	0.423195
C48	C	0.001719	-1.668287	0.576532
H49	H	-0.153017	-1.627243	-0.000104
H50	H	0.016570	-1.771432	0.618141
C51	C	-0.083325	-1.589062	0.640784
N52	N	-0.147377	-1.529383	0.689180
H53	H	-0.427336	-1.192777	-0.000097
C54	C	0.030242	-1.804219	0.358928
N55	N	0.051718	-1.906598	0.310521
C56	C	0.333481	-0.976714	0.141897
N57	N	0.361507	-0.942750	0.248888
C58	C	-0.602081	-1.419191	-0.000096
N59	N	-0.631547	-1.309899	-0.000064
H60	H	-0.218063	-1.731622	-0.000131
H61	H	-0.526857	-1.352502	-0.000115
H62	H	-0.317602	-1.891361	-0.000127
C63	C	0.337836	-1.219571	-0.142230
N64	N	0.367322	-1.269033	-0.249264
C65	C	0.250227	-1.419167	0.338918
N66	N	0.298689	-1.370775	0.275415
C67	C	-0.452715	-1.973222	-0.000145
N68	N	-0.423252	-2.082515	-0.000153
H69	H	-0.626919	-1.855920	-0.000155
C70	C	0.342625	-0.986128	-0.137902
N71	N	0.377531	-0.959254	-0.241647
H72	H	-0.282051	-1.148606	-0.000093
H73	H	-0.118000	-1.228191	-0.000080
C74	C	-0.040616	-0.858737	-0.000115
N75	N	-0.106957	-0.786405	-0.000118
C76	C	0.346796	-1.215024	0.137592
N77	N	0.383035	-1.261062	0.241328
H78	H	0.233454	-1.435773	0.639008
H79	H	-0.064891	-1.617093	0.381582
H80	H	-0.013384	-1.123323	-0.000035
