data_functionalizedCrystal
_audit_creation_method	'MofGen! by Chris Wilmer'
_symmetry_space_group_name_H-M	'P1'
_symmetry_Int_Tables_number	1
_symmetry_cell_setting	triclinic
loop_
_symmetry_equiv_pos_as_xyz
  x,y,z
_cell_length_a	14.908520
_cell_length_b	10.685980
_cell_length_c	10.685986
_cell_angle_alpha	89.692713
_cell_angle_beta	91.369077
_cell_angle_gamma	97.923910
loop_
_atom_site_label
_atom_site_type_symbol
_atom_site_fract_x
_atom_site_fract_y
_atom_site_fract_z
Zn1	Zn	-0.210139	1.845435	0.872092
Zn2	Zn	0.289861	2.345435	1.372092
Zn3	Zn	-0.371775	1.847389	0.674270
Zn4	Zn	0.128225	2.347389	1.174270
Zn5	Zn	-0.233210	1.649714	0.647940
Zn6	Zn	0.266790	2.149714	1.147940
Zn7	Zn	-0.373449	1.621494	0.868009
Zn8	Zn	0.126551	2.121494	1.368009
O9	O	-0.297143	1.741008	0.765578
O10	O	0.202857	2.241008	1.265578
O11	O	-0.221225	2.022142	0.858578
O12	O	0.278775	2.522142	1.358578
O13	O	-0.362348	1.833795	0.495889
O14	O	0.137652	2.333795	0.995889
O15	O	-0.103814	1.686670	0.668364
O16	O	0.396186	2.186670	1.168364
O17	O	-0.339977	2.023578	0.713240
O18	O	0.160023	2.523578	1.213240
O19	O	-0.086864	1.830466	0.833047
O20	O	0.413136	2.330466	1.333047
O21	O	-0.260546	1.688564	0.476544
O22	O	0.239454	2.188564	0.976544
O23	O	-0.262169	1.469523	0.664405
O24	O	0.237831	1.969523	1.164405
O25	O	-0.342831	1.638572	1.043439
O26	O	0.157169	2.138572	1.543439
O27	O	-0.365202	1.448789	0.826089
O28	O	0.134798	1.948789	1.326089
O29	O	-0.222848	1.803101	1.046439
O30	O	0.277152	2.303101	1.546439
O31	O	-0.498332	1.806430	0.709281
O32	O	0.001668	2.306430	1.209281
O33	O	-0.499562	1.640466	0.851620
O34	O	0.000438	2.140466	1.351620
C35	C	-0.316371	1.413405	0.741947
C36	C	0.183629	1.913405	1.241947
C37	C	-0.324617	1.273251	0.731869
C38	C	0.175383	1.773251	1.231869
C39	C	-0.531701	1.720630	0.782894
C40	C	-0.031701	2.220630	1.282894
C41	C	-0.632037	1.712025	0.790352
C42	C	-0.132037	2.212025	1.290352
C43	C	-0.819221	1.868829	0.656289
C44	C	-0.319221	2.368829	1.156289
C45	C	-0.913496	1.860748	0.663293
C46	C	-0.413496	2.360748	1.163293
C47	C	-0.914862	1.687788	0.811369
C48	C	-0.414862	2.187788	1.311369
C49	C	-0.820587	1.695869	0.804365
C50	C	-0.320587	2.195869	1.304365
C51	C	-0.772770	1.786392	0.726821
C52	C	-0.272770	2.286392	1.226821
C53	C	-0.678495	1.794466	0.719812
C54	C	-0.178495	2.294466	1.219812
C55	C	-0.679862	1.621513	0.867894
C56	C	-0.179862	2.121513	1.367894
C57	C	-0.774137	1.613432	0.874897
C58	C	-0.274137	2.113432	1.374897
C59	C	-0.061666	1.761498	0.748224
C60	C	0.438334	2.261498	1.248224
C61	C	0.038681	1.770230	0.740829
C62	C	0.538681	2.270230	1.240829
C63	C	-0.280452	1.717471	1.091554
C64	C	0.219548	2.217471	1.591554
C65	C	-0.273340	1.707440	1.230465
C66	C	0.226660	2.207440	1.730465
C67	C	-0.277841	2.069890	0.789301
C68	C	0.222159	2.569890	1.289301
C69	C	-0.269615	2.210040	0.799411
C70	C	0.230385	2.710040	1.299411
C71	C	-0.313699	1.764532	0.440871
C72	C	0.186301	2.264532	0.940871
C73	C	-0.320543	1.774829	0.301959
C74	C	0.179457	2.274829	0.801959
H75	H	-0.639563	1.868170	0.656668
H76	H	-0.139563	2.368170	1.156668
Cl77	Cl	-0.202540	1.606518	1.300040
Cl78	Cl	0.297460	2.106518	1.800040
H79	H	-0.366389	1.840201	1.256895
H80	H	0.133611	2.340201	1.756895
H81	H	-0.953810	1.614097	0.874510
H82	H	-0.453810	2.114097	1.374510
Cl83	Cl	-0.407064	1.191262	0.630667
Cl84	Cl	0.092936	1.691262	1.130667
H85	H	-0.813082	1.539734	0.938035
H86	H	-0.313082	2.039734	1.438035
Cl87	Cl	-0.187163	1.292027	0.900594
Cl88	Cl	0.312837	1.792027	1.400594
H89	H	-0.780289	1.942528	0.593141
H90	H	-0.280289	2.442528	1.093141
H91	H	-0.951312	1.927880	0.605861
H92	H	-0.451312	2.427880	1.105861
H93	H	-0.642032	1.554383	0.925322
H94	H	-0.142032	2.054383	1.425322
