data_functionalizedCrystal
_audit_creation_method	'MofGen! by Chris Wilmer'
_symmetry_space_group_name_H-M	'P1'
_symmetry_Int_Tables_number	1
_symmetry_cell_setting	triclinic
loop_
_symmetry_equiv_pos_as_xyz
  x,y,z
_cell_length_a	23.532407
_cell_length_b	14.519709
_cell_length_c	13.596369
_cell_angle_alpha	89.993066
_cell_angle_beta	90.002653
_cell_angle_gamma	96.735555
loop_
_atom_site_label
_atom_site_type_symbol
_atom_site_fract_x
_atom_site_fract_y
_atom_site_fract_z
O1	O	0.755765	-0.111952	0.081732
O2	O	0.589975	-0.128150	0.081747
O3	O	0.677266	0.014240	0.081730
O4	O	0.668474	-0.254341	0.081749
O5	O	0.677257	0.014247	-0.081853
O6	O	0.589966	-0.128142	-0.081836
O7	O	0.755756	-0.111944	-0.081851
Zn8	Zn	0.672860	-0.120042	-0.107816
Zn9	Zn	0.672871	-0.120052	0.107712
O10	O	0.668466	-0.254334	-0.081834
C11	C	0.568753	-0.127733	-0.000042
C12	C	0.505530	-0.126493	-0.000036
C13	C	0.238959	-0.037116	-0.000069
C14	C	0.298365	-0.038268	-0.000069
O15	O	0.334789	0.032634	-0.000108
N16	N	0.321373	-0.122918	-0.000056
C17	C	0.284972	-0.206422	-0.000054
O18	O	0.309997	-0.278530	-0.000044
C19	C	0.225568	-0.205269	-0.000062
C20	C	0.202563	-0.120613	-0.000064
C21	C	0.215954	0.047533	-0.000073
C22	C	0.156553	0.048685	-0.000071
C23	C	0.120157	-0.034812	-0.000066
C24	C	0.143162	-0.119462	-0.000063
C25	C	0.189168	-0.288772	-0.000066
C26	C	0.129760	-0.287612	-0.000075
C27	C	0.106756	-0.202956	-0.000077
C28	C	0.047364	-0.201807	-0.000056
N29	N	0.024356	-0.117157	-0.000069
C30	C	0.060752	-0.033659	-0.000074
C31	C	0.409726	-0.208837	-0.000040
C32	C	0.469129	-0.209991	-0.000026
C33	C	0.482517	-0.041836	-0.000043
C34	C	0.423113	-0.040683	-0.000050
C35	C	0.386717	-0.124187	-0.000053
C36	C	-0.063995	-0.031247	-0.000070
C37	C	-0.123403	-0.030103	-0.000064
C38	C	-0.136786	-0.198257	-0.000053
C39	C	-0.077384	-0.199402	-0.000053
C40	C	-0.040990	-0.115890	-0.000065
O41	O	0.010905	-0.272672	-0.000021
O42	O	0.035719	0.038436	-0.000096
C43	C	0.676852	0.048599	-0.000061
C44	C	0.675624	0.150965	-0.000062
C45	C	0.776979	-0.112360	-0.000060
C46	C	0.840201	-0.113601	-0.000059
C47	C	0.668880	-0.288692	-0.000040
C48	C	0.670107	-0.391059	-0.000034
N49	N	0.672856	-0.120035	-0.254908
C50	C	0.671104	0.525808	-0.000036
C51	C	0.672359	0.421515	-0.000043
C52	C	0.673364	0.338390	-0.000050
C53	C	0.674619	0.234090	-0.000055
C54	C	0.672871	-0.120053	-0.656199
C55	C	0.672865	-0.120051	-0.544547
C56	C	0.672864	-0.120044	-0.455557
C57	C	0.672857	-0.120041	-0.343898
N58	N	0.672880	-0.120052	0.254804
H59	H	-0.034369	0.036757	-0.000079
C60	C	-0.148706	0.063024	-0.000070
C61	C	-0.135015	0.132228	-0.085022
C62	C	-0.160316	0.225352	-0.085030
C63	C	-0.199308	0.249272	-0.000086
C64	C	-0.213001	0.180067	0.084873
C65	C	-0.187700	0.086943	0.084880
H66	H	-0.106149	0.114523	-0.147909
H67	H	-0.150179	0.276582	-0.147922
H68	H	-0.218037	0.318208	-0.000091
H69	H	-0.241867	0.197772	0.147759
H70	H	-0.197837	0.035712	0.147772
C71	C	-0.052071	-0.292519	-0.000039
C72	C	-0.065765	-0.361721	-0.084976
C73	C	-0.040455	-0.454837	-0.084970
C74	C	-0.001451	-0.478751	-0.000028
C75	C	0.012245	-0.409547	0.084915
C76	C	-0.013065	-0.316431	0.084910
H77	H	-0.094640	-0.344020	-0.147860
H78	H	-0.050594	-0.506066	-0.147851
H79	H	0.017285	-0.547681	-0.000025
H80	H	0.041120	-0.427248	0.147799
H81	H	-0.002926	-0.265202	0.147791
H82	H	0.487853	-0.278926	-0.000010
C83	C	0.255983	0.139391	-0.000072
C84	C	0.253333	0.208922	-0.085014
C85	C	0.293358	0.300787	-0.085003
C86	C	0.336032	0.323122	-0.000050
C87	C	0.338684	0.253590	0.084898
C88	C	0.298659	0.161725	0.084887
H89	H	0.221742	0.192390	-0.147907
H90	H	0.291395	0.352259	-0.147888
H91	H	0.365661	0.391126	-0.000042
H92	H	0.370276	0.270122	0.147791
H93	H	0.300623	0.110252	0.147772
H94	H	0.512162	0.026152	-0.000047
H95	H	0.137828	0.117621	-0.000078
C96	C	0.369693	-0.300699	-0.000027
C97	C	0.372343	-0.370214	0.084929
C98	C	0.332314	-0.462075	0.084941
C99	C	0.289635	-0.484420	-0.000003
C100	C	0.286983	-0.414903	-0.084966
C101	C	0.327012	-0.323043	-0.084978
H102	H	0.403938	-0.353675	0.147816
H103	H	0.334277	-0.513536	0.147836
H104	H	0.260003	-0.552421	0.000005
H105	H	0.255388	-0.431443	-0.147853
H106	H	0.325049	-0.271581	-0.147873
H107	H	0.207888	-0.357708	-0.000060
C108	C	-0.176830	-0.290100	-0.000052
C109	C	-0.219515	-0.312432	0.084885
C110	C	-0.259561	-0.404275	0.084877
C111	C	-0.256923	-0.473785	-0.000069
C112	C	-0.214236	-0.451455	-0.085012
C113	C	-0.174190	-0.359612	-0.085004
H114	H	-0.221470	-0.260975	0.147773
H115	H	-0.291161	-0.420805	0.147759
H116	H	-0.286567	-0.541773	-0.000075
H117	H	-0.212281	-0.502912	-0.147900
H118	H	-0.142590	-0.343082	-0.147885
H119	H	0.404387	0.028251	-0.000053
H120	H	0.100129	-0.355612	-0.000082
