data_functionalizedCrystal
_audit_creation_method	'MofGen! by Chris Wilmer'
_symmetry_space_group_name_H-M	'P1'
_symmetry_Int_Tables_number	1
_symmetry_cell_setting	triclinic
loop_
_symmetry_equiv_pos_as_xyz
  x,y,z
_cell_length_a	6.817900
_cell_length_b	13.212940
_cell_length_c	10.992410
_cell_angle_alpha	87.811876
_cell_angle_beta	108.764651
_cell_angle_gamma	106.299459
loop_
_atom_site_label
_atom_site_type_symbol
_atom_site_fract_x
_atom_site_fract_y
_atom_site_fract_z
V1	V	-4.091929	-0.144453	-0.383813
O2	O	-4.073449	0.006942	-0.393774
O3	O	-4.047571	-0.286427	-0.364581
O4	O	-4.069864	-0.142231	-0.558783
O5	O	-4.051001	-0.138252	-0.198227
V6	V	-4.571620	-0.126345	-0.363633
O7	O	-4.361592	-0.184176	-0.428080
O8	O	-4.752155	-0.086622	-0.319366
O9	O	-4.392771	0.015629	-0.382865
O10	O	-4.707498	-0.277740	-0.353672
O11	O	-4.729945	-0.132546	-0.549219
O12	O	-4.370478	-0.128567	-0.188662
C13	C	-3.892704	-0.321037	-0.354241
C14	C	-3.937899	-0.437102	-0.339683
C15	C	-4.139814	-0.685023	-0.544205
C16	C	-4.182282	-0.794077	-0.530533
C17	C	-4.065288	-0.764266	-0.298665
C18	C	-4.022820	-0.655212	-0.312338
C19	C	-4.060090	-0.615595	-0.435112
C20	C	-4.017636	-0.506539	-0.448784
C21	C	-3.900629	-0.476729	-0.216918
C22	C	-3.943097	-0.585783	-0.203245
C23	C	-3.921139	-0.137100	-0.601964
C24	C	-3.984409	-0.136223	-0.744894
C25	C	-3.852767	-0.128229	-0.940946
C26	C	-3.787009	-0.129574	-0.792307
C27	C	-4.166519	-0.239166	-0.810040
C28	C	-4.230974	-0.238256	-0.958712
C29	C	-4.139539	-0.038920	-0.943836
C30	C	-4.068905	-0.038431	-0.794880
C31	C	-4.210981	0.050233	-0.393200
C32	C	-4.145025	0.166297	-0.407767
C33	C	-4.182545	-0.133702	-0.145474
C34	C	-4.098513	-0.134574	-0.002543
H35	H	-3.649991	-0.055553	-0.747565
H36	H	-3.747079	-0.053699	-0.968433
H37	H	-4.034941	-0.796541	-0.198708
C38	C	-4.016814	0.066690	-0.983602
N39	N	-3.924358	0.146231	-1.013553
C40	C	-4.269989	-0.870446	-0.650545
N41	N	-4.336053	-0.927967	-0.740943
H42	H	-3.835713	-0.420188	-0.128086
H43	H	-3.912753	-0.618055	-0.103285
C44	C	-3.804721	-0.221073	-0.995001
N45	N	-3.768539	-0.291003	-1.035721
H46	H	-3.719062	-0.199257	-0.759397
H47	H	-4.204221	-0.310683	-0.996569
H48	H	-4.411592	-0.247208	-1.000304
H49	H	-4.315569	-0.247749	-0.780240
H50	H	-4.211205	-0.037223	-0.762509
H51	H	-4.109539	-0.311772	-0.776001
H52	H	-4.317945	-0.042661	-0.984242
H53	H	-4.048007	-0.474286	-0.548754
C54	C	-4.180824	-0.641442	-0.679257
N55	N	-4.211712	-0.608619	-0.780980
H56	H	-3.937418	0.037722	-0.751368
