data_functionalizedCrystal
_audit_creation_method	'MofGen! by Chris Wilmer'
_symmetry_space_group_name_H-M	'P1'
_symmetry_Int_Tables_number	1
_symmetry_cell_setting	triclinic
loop_
_symmetry_equiv_pos_as_xyz
  x,y,z
_cell_length_a	12.759401
_cell_length_b	19.121111
_cell_length_c	12.759393
_cell_angle_alpha	92.406076
_cell_angle_beta	90.019676
_cell_angle_gamma	87.529375
loop_
_atom_site_label
_atom_site_type_symbol
_atom_site_fract_x
_atom_site_fract_y
_atom_site_fract_z
Zn1	Zn	1.588323	0.279571	0.611790
Zn2	Zn	2.088323	0.779571	1.111790
Zn3	Zn	1.580674	0.397038	0.443591
Zn4	Zn	2.080674	0.897038	0.943591
Zn5	Zn	1.412619	0.279606	0.436131
Zn6	Zn	1.912619	0.779606	0.936131
Zn7	Zn	1.405077	0.396986	0.619229
Zn8	Zn	1.905077	0.896986	1.119229
O9	O	1.496673	0.338300	0.527685
O10	O	1.996673	0.838300	1.027685
O11	O	1.734329	0.295160	0.589487
O12	O	2.234329	0.795160	1.089487
O13	O	1.558337	0.381496	0.295583
O14	O	2.058337	0.881496	0.795583
O15	O	1.442284	0.181317	0.453197
O16	O	1.942284	0.681317	0.953197
O17	O	1.728709	0.381462	0.465912
O18	O	2.228709	0.881462	0.965912
O19	O	1.571372	0.181291	0.582253
O20	O	2.071372	0.681291	1.082253
O21	O	1.434867	0.295220	0.290102
O22	O	1.934867	0.795220	0.790102
O23	O	1.264598	0.295170	0.460411
O24	O	1.764598	0.795170	0.960411
O25	O	1.429430	0.381375	0.765261
O26	O	1.929430	0.881375	1.265261
O27	O	1.259057	0.381409	0.594932
O28	O	1.759057	0.881409	1.094932
O29	O	1.564059	0.295110	0.759796
O30	O	2.064059	0.795110	1.259796
O31	O	1.551024	0.495315	0.473125
O32	O	2.051024	0.995315	0.973125
O33	O	1.422013	0.495277	0.602166
O34	O	1.922013	0.995277	1.102166
C35	C	1.223707	0.338288	0.527670
C36	C	1.723707	0.838288	1.027670
C37	C	1.106929	0.338300	0.527689
C38	C	1.606929	0.838300	1.027689
C39	C	1.054989	0.293444	0.592143
C40	C	1.554989	0.793444	1.092143
C41	C	0.945264	0.293451	0.592151
C42	C	1.445264	0.793451	1.092151
C43	C	0.939430	0.383177	0.463247
C44	C	1.439430	0.883177	0.963247
C45	C	1.049153	0.383165	0.463235
C46	C	1.549153	0.883165	0.963235
C47	C	1.484899	0.520780	0.539285
C48	C	1.984899	1.020780	1.039285
C49	C	1.479958	0.598846	0.544283
C50	C	1.979958	1.098846	1.044283
C51	C	1.544857	0.635518	0.479502
C52	C	2.044857	1.135518	0.979502
C53	C	1.540217	0.708869	0.484208
C54	C	2.040217	1.208869	0.984208
C55	C	1.470670	0.745547	0.553691
C56	C	1.970670	1.245547	1.053691
C57	C	1.405767	0.708870	0.618479
C58	C	1.905767	1.208870	1.118479
C59	C	1.410414	0.635520	0.613777
C60	C	1.910414	1.135520	1.113777
C61	C	1.453281	0.967015	0.571250
C62	C	1.953281	1.467015	1.071250
C63	C	1.448637	1.040370	0.575945
C64	C	1.948637	1.540370	1.075945
C65	C	1.583088	1.040364	0.441675
C66	C	2.083088	1.540364	0.941675
C67	C	1.587724	0.967013	0.436975
C68	C	2.087724	1.467013	0.936975
C69	C	1.522826	0.930343	0.501767
C70	C	2.022826	1.430343	1.001767
C71	C	1.465922	0.820523	0.558501
C72	C	1.965922	1.320523	1.058501
C73	C	1.527579	0.855367	0.496962
C74	C	2.027579	1.355367	0.996962
C75	C	1.770706	0.338313	0.527702
C76	C	2.270706	0.838313	1.027702
C77	C	1.887482	0.338318	0.527709
C78	C	2.387482	0.838318	1.027709
C79	C	1.496756	0.338233	0.801714
C80	C	1.996756	0.838233	1.301714
C81	C	1.496792	0.338204	0.918489
C82	C	1.996792	0.838204	1.418489
C83	C	1.508514	1.155108	0.516077
C84	C	2.008514	1.655108	1.016077
C85	C	1.513537	1.077042	0.511164
C86	C	2.013537	1.577042	1.011164
C87	C	1.496654	0.338317	0.254719
C88	C	1.996654	0.838317	0.754719
C89	C	1.496835	0.338148	0.137932
C90	C	1.996835	0.838148	0.637932
C91	C	1.566899	0.293279	0.970507
C92	C	2.066899	0.793279	1.470507
C93	C	1.566918	0.293249	1.080229
C94	C	2.066918	0.793249	1.580229
C95	C	1.426721	0.383075	1.085907
C96	C	1.926721	0.883075	1.585907
C97	C	1.426697	0.383101	0.976187
C98	C	1.926697	0.883101	1.476187
H99	H	1.091444	0.419694	0.410743
H100	H	1.591444	0.919694	0.910743
Br101	Br	1.639237	0.585748	0.385189
Br102	Br	2.139237	1.085748	0.885189
H103	H	0.892375	0.419705	0.410772
H104	H	1.392375	0.919705	0.910772
H105	H	1.369600	0.419684	0.933833
H106	H	1.869600	0.919684	1.433833
H107	H	1.349146	0.738739	0.675058
H108	H	1.849146	1.238739	1.175058
Br109	Br	1.365205	0.917257	0.659183
Br110	Br	1.865205	1.417257	1.159183
H111	H	1.369654	0.419630	1.132898
H112	H	1.869654	0.919630	1.632898
H113	H	1.357567	0.605663	0.666530
H114	H	1.857567	1.105663	1.166530
Br115	Br	1.628305	0.758635	0.396293
Br116	Br	2.128305	1.258635	0.896293
H117	H	1.584208	0.825502	0.440393
H118	H	2.084208	1.325502	0.940393
Br119	Br	1.662025	0.232347	0.892206
Br120	Br	2.162025	0.732347	1.392206
H121	H	1.102027	0.256909	0.644623
H122	H	1.602027	0.756909	1.144623
H123	H	1.644355	0.937151	0.380397
H124	H	2.144355	1.437151	0.880397
Br125	Br	1.671165	1.090135	0.353754
Br126	Br	2.171165	1.590135	0.853754
H127	H	1.409295	0.850394	0.615072
H128	H	1.909295	1.350394	1.115072
H129	H	1.624005	0.256665	1.122576
H130	H	2.124005	0.756665	1.622576
H131	H	1.392016	1.070231	0.632544
H132	H	1.892016	1.570231	1.132544
H133	H	0.902979	0.256923	0.644634
H134	H	1.402979	0.756923	1.144634
