data_functionalizedCrystal
_audit_creation_method	'MofGen! by Chris Wilmer'
_symmetry_space_group_name_H-M	'P1'
_symmetry_Int_Tables_number	1
_symmetry_cell_setting	triclinic
loop_
_symmetry_equiv_pos_as_xyz
  x,y,z
_cell_length_a	14.044220
_cell_length_b	15.021413
_cell_length_c	14.044220
_cell_angle_alpha	89.996608
_cell_angle_beta	93.188878
_cell_angle_gamma	90.003106
loop_
_atom_site_label
_atom_site_type_symbol
_atom_site_fract_x
_atom_site_fract_y
_atom_site_fract_z
O1	O	1.277172	0.073941	0.230155
O2	O	1.000501	0.073963	0.221850
O3	O	1.134684	0.073944	0.087667
O4	O	1.142989	0.073961	0.364338
O5	O	1.134662	-0.074121	0.087686
O6	O	1.000479	-0.074101	0.221869
O7	O	1.277151	-0.074123	0.230174
Zn8	Zn	1.138811	-0.097620	0.226024
Zn9	Zn	1.138840	0.097460	0.225999
O10	O	1.142968	-0.074104	0.364357
C11	C	0.964868	-0.000066	0.218223
C12	C	0.858725	-0.000058	0.207379
C13	C	0.664388	-0.000077	0.187553
C14	C	0.613258	-0.000076	0.264467
C15	C	0.505122	-0.000086	0.253435
C16	C	0.772534	-0.000066	0.198583
N17	N	1.138799	-0.230758	0.226041
C18	C	1.076740	-0.470432	0.288055
C19	C	1.164574	-0.529772	0.313879
C20	C	1.138821	-0.412365	0.226020
C21	C	1.051012	-0.529767	0.200219
C22	C	1.138836	-0.587789	0.226000
C23	C	1.226703	-0.470399	0.251890
C24	C	1.113081	-0.470388	0.138188
C25	C	1.200975	-0.529701	0.163981
C26	C	1.138812	-0.311308	0.226033
C27	C	1.138855	-0.688844	0.225987
C28	C	1.312783	-0.000092	0.233800
C29	C	1.418926	-0.000094	0.244645
C30	C	1.131037	-0.000089	0.052054
C31	C	1.120193	-0.000089	-0.054088
N32	N	1.138859	0.230598	0.225975
C33	C	1.100366	-0.000074	-0.248426
C34	C	1.177281	-0.000078	-0.299556
C35	C	1.166249	-0.000070	-0.407692
C36	C	1.111397	-0.000082	-0.140280
C37	C	1.146614	-0.000069	0.399969
C38	C	1.157459	-0.000063	0.506112
H39	H	1.024301	-0.444409	0.340567
H40	H	0.626951	-0.000086	0.113425
O41	O	0.662838	-0.000052	0.362670
H42	H	0.741224	-0.000035	0.356040
O43	O	1.193401	-0.564381	0.412240
H44	H	1.141746	-0.540668	0.463611
O45	O	1.325109	-0.436014	0.280908
H46	H	1.324321	-0.362127	0.280725
O47	O	1.002170	-0.000080	-0.298006
H48	H	1.008808	-0.000088	-0.376391
O49	O	1.270605	-0.563973	0.094488
H50	H	1.305587	-0.506844	0.060476
O51	O	1.084200	-0.435796	0.039840
H52	H	1.011243	-0.459529	0.018588
O53	O	0.952645	-0.564312	0.171312
H54	H	0.901247	-0.540565	0.222925
H55	H	1.251414	-0.000024	-0.262117
