data_functionalizedCrystal
_audit_creation_method	'MofGen! by Chris Wilmer'
_symmetry_space_group_name_H-M	'P1'
_symmetry_Int_Tables_number	1
_symmetry_cell_setting	triclinic
loop_
_symmetry_equiv_pos_as_xyz
  x,y,z
_cell_length_a	12.759401
_cell_length_b	18.101395
_cell_length_c	12.759393
_cell_angle_alpha	89.967630
_cell_angle_beta	89.979062
_cell_angle_gamma	90.032629
loop_
_atom_site_label
_atom_site_type_symbol
_atom_site_fract_x
_atom_site_fract_y
_atom_site_fract_z
Zn1	Zn	1.606147	-0.294764	-0.594006
Zn2	Zn	1.605987	-0.418623	-0.418321
Zn3	Zn	1.430445	-0.294803	-0.418342
Zn4	Zn	1.430387	-0.418571	-0.593958
O5	O	1.518242	-0.356690	-0.506157
O6	O	1.753147	-0.311199	-0.570713
O7	O	1.582659	-0.402236	-0.271302
O8	O	1.453844	-0.191165	-0.441673
O9	O	1.753030	-0.402198	-0.441637
O10	O	1.582931	-0.191136	-0.570733
O11	O	1.453689	-0.311266	-0.271318
O12	O	1.283417	-0.311216	-0.441626
O13	O	1.453744	-0.402110	-0.740986
O14	O	1.283374	-0.402148	-0.570651
O15	O	1.582874	-0.311149	-0.741021
O16	O	1.582603	-0.522249	-0.441590
O17	O	1.453590	-0.522211	-0.570630
C18	C	1.245274	-0.356681	-0.506136
C19	C	1.128498	-0.356695	-0.506152
C20	C	1.518101	-0.549101	-0.506126
C21	C	1.518137	-0.631415	-0.506148
C22	C	1.073641	-0.404115	-0.573229
C23	C	0.963917	-0.404118	-0.573250
C24	C	0.963916	-0.309278	-0.439107
C25	C	1.073638	-0.309272	-0.439092
C26	C	0.814010	-0.430691	-0.697109
C27	C	0.759149	-0.478123	-0.764177
C28	C	0.794718	-0.550396	-0.780122
C29	C	0.885145	-0.575251	-0.728983
C30	C	0.940000	-0.527823	-0.661907
C31	C	0.904433	-0.455540	-0.645982
C32	C	1.223547	-0.282707	-0.315232
C33	C	1.278404	-0.235282	-0.248150
C34	C	1.242837	-0.163008	-0.232194
C35	C	1.152407	-0.138156	-0.283315
C36	C	1.097550	-0.185581	-0.350397
C37	C	1.133124	-0.257854	-0.366354
C38	C	1.518368	-0.930506	-0.506204
C39	C	1.437384	-0.899187	-0.587594
C40	C	1.436999	-0.813570	-0.587340
C41	C	1.518253	-0.782123	-0.506177
C42	C	1.488271	-0.813282	-0.395451
C43	C	1.487748	-0.898927	-0.395938
C44	C	1.629511	-0.898846	-0.534565
C45	C	1.628857	-0.813194	-0.536994
C46	C	1.518190	-0.698264	-0.506155
C47	C	1.518428	-1.014365	-0.506219
C48	C	1.792275	-0.356700	-0.506178
C49	C	1.909051	-0.356704	-0.506187
C50	C	1.518320	-0.356619	-0.780190
C51	C	1.518354	-0.356589	-0.896967
C52	C	1.518411	-0.163528	-0.506211
C53	C	1.518484	-0.081214	-0.506234
C54	C	1.585597	-0.309218	-0.951849
C55	C	1.585614	-0.309186	-1.061573
C56	C	1.451143	-0.403902	-1.061523
C57	C	1.451121	-0.403930	-0.951801
C58	C	1.623262	-0.221811	-1.211555
C59	C	1.690521	-0.174447	-1.266441
C60	C	1.793039	-0.163090	-1.230850
C61	C	1.828318	-0.199110	-1.140375
C62	C	1.761064	-0.246479	-1.085495
C63	C	1.658532	-0.257821	-1.121084
C64	C	1.413484	-0.491306	-0.801817
C65	C	1.346235	-0.538680	-0.746935
C66	C	1.243716	-0.550044	-0.782523
C67	C	1.208441	-0.514038	-0.873002
C68	C	1.275690	-0.466664	-0.927884
C69	C	1.378208	-0.455299	-0.892288
C70	C	1.518224	-0.356708	-0.233189
C71	C	1.518394	-0.356529	-0.116413
H72	H	1.118304	-0.442728	-0.627836
N73	N	1.380136	-0.925488	-0.364112
H74	H	1.333483	-0.881561	-0.349900
H75	H	1.349093	-0.956112	-0.422520
N76	N	1.799097	-0.285316	-0.987908
H77	H	1.740931	-0.317041	-0.958538
H78	H	1.861225	-0.317443	-1.005932
N79	N	0.923489	-0.653211	-0.746170
H80	H	0.939547	-0.660778	-0.822933
H81	H	0.989064	-0.661711	-0.703539
H82	H	0.750043	-0.589015	-0.834732
N83	N	1.461969	-0.926403	-0.696702
H84	H	1.476206	-0.882820	-0.744084
H85	H	1.525821	-0.959309	-0.694341
N86	N	1.328920	-0.927779	-0.563032
H87	H	1.332013	-0.960930	-0.499413
H88	H	1.280686	-0.884774	-0.548440
H89	H	1.692386	-0.791784	-0.482034
N90	N	1.171184	-0.601148	-0.723339
H91	H	1.209084	-0.622241	-0.660625
H92	H	1.107657	-0.572663	-0.698972
N93	N	1.037521	-0.554622	-0.606745
H94	H	1.051729	-0.607607	-0.627016
H95	H	1.099034	-0.522783	-0.627874
N96	N	1.562452	-0.926392	-0.312854
H97	H	1.618961	-0.957348	-0.346631
H98	H	1.595510	-0.882825	-0.276093
N99	N	1.524061	-0.479043	-0.763427
H100	H	1.536205	-0.509046	-0.697787
H101	H	1.575257	-0.494938	-0.819420
N102	N	1.652481	-0.135591	-1.364017
H103	H	1.630932	-0.173455	-1.417992
H104	H	1.590410	-0.103418	-1.345962
H105	H	0.685524	-0.457879	-0.805816
N106	N	0.904736	-0.258148	-0.366766
H107	H	0.923862	-0.205244	-0.383203
H108	H	0.826925	-0.265420	-0.376988
N109	N	0.775646	-0.352737	-0.679913
H110	H	0.774556	-0.325482	-0.748996
H111	H	0.702573	-0.354108	-0.649520
H112	H	1.023921	-0.165337	-0.392029
N113	N	1.865587	-0.112009	-1.290048
H114	H	1.827685	-0.090917	-1.352762
H115	H	1.888535	-0.070464	-1.242481
H116	H	1.354618	-0.793149	-0.568554
H117	H	1.455759	-0.792500	-0.669442
H118	H	1.123436	-0.079309	-0.270307
H119	H	1.287507	-0.124398	-0.177561
H120	H	1.545399	-0.792915	-0.333156
H121	H	1.651467	-0.792826	-0.618482
H122	H	1.911802	-0.189865	-1.111410
N123	N	1.375938	-0.262085	-0.193006
H124	H	1.390154	-0.315066	-0.213297
H125	H	1.437444	-0.230237	-0.214129
H126	H	1.246960	-0.437346	-1.001557
N127	N	1.261894	-0.360667	-0.332440
H128	H	1.277952	-0.368228	-0.409204
H129	H	1.327469	-0.369172	-0.289809
H130	H	1.124963	-0.523293	-0.901982
H131	H	1.689846	-0.919098	-0.475286
N132	N	1.381792	-0.784961	-0.363057
H133	H	1.327583	-0.801377	-0.415809
H134	H	1.363288	-0.805323	-0.291696
N135	N	1.665727	-0.927378	-0.639690
H136	H	1.610447	-0.961122	-0.669997
H137	H	1.677693	-0.884387	-0.688752
H138	H	1.640339	-0.270668	-0.907206
N139	N	1.378616	-0.454950	-1.120666
H140	H	1.388828	-0.447743	-1.198503
H141	H	1.394897	-0.507850	-1.101482
H142	H	1.539782	-0.231047	-1.240537
H143	H	1.374969	-0.568005	-0.673269
