data_functionalizedCrystal
_audit_creation_method	'MofGen! by Chris Wilmer'
_symmetry_space_group_name_H-M	'P1'
_symmetry_Int_Tables_number	1
_symmetry_cell_setting	triclinic
loop_
_symmetry_equiv_pos_as_xyz
  x,y,z
_cell_length_a	14.908571
_cell_length_b	19.121063
_cell_length_c	19.120915
_cell_angle_alpha	94.738654
_cell_angle_beta	89.271765
_cell_angle_gamma	89.303906
loop_
_atom_site_label
_atom_site_type_symbol
_atom_site_fract_x
_atom_site_fract_y
_atom_site_fract_z
Zn1	Zn	1.333519	-0.359754	-0.472234
Zn2	Zn	1.833519	0.140246	0.027766
Zn3	Zn	1.333413	-0.472402	-0.359580
Zn4	Zn	1.833413	0.027598	0.140420
Zn5	Zn	1.190127	-0.348023	-0.347870
Zn6	Zn	1.690127	0.151977	0.152130
Zn7	Zn	1.176695	-0.470012	-0.469859
Zn8	Zn	1.676695	0.029988	0.030141
O9	O	1.258438	-0.412548	-0.412386
O10	O	1.758438	0.087452	0.087614
O11	O	1.459101	-0.380607	-0.463185
O12	O	1.959101	0.119393	0.036815
O13	O	1.319983	-0.451993	-0.259828
O14	O	1.819983	0.048007	0.240172
O15	O	1.214814	-0.251383	-0.360461
O16	O	1.714814	0.248617	0.139539
O17	O	1.459024	-0.463369	-0.380418
O18	O	1.959024	0.036631	0.119582
O19	O	1.320163	-0.260002	-0.451830
O20	O	1.820163	0.239998	0.048170
O21	O	1.214712	-0.360612	-0.251225
O22	O	1.714712	0.139388	0.248775
O23	O	1.062749	-0.358295	-0.358158
O24	O	1.562749	0.141705	0.141842
O25	O	1.191921	-0.459295	-0.568373
O26	O	1.691921	0.040705	-0.068373
O27	O	1.052880	-0.447920	-0.447783
O28	O	1.552880	0.052080	0.052217
O29	O	1.307138	-0.378289	-0.570118
O30	O	1.807138	0.121711	-0.070118
O31	O	1.306958	-0.570281	-0.378116
O32	O	1.806958	-0.070281	0.121884
O33	O	1.191818	-0.568525	-0.459137
O34	O	1.691818	-0.068525	0.040863
C35	C	1.025248	-0.401575	-0.401442
C36	C	1.525248	0.098425	0.098558
C37	C	0.925487	-0.396899	-0.396778
C38	C	1.425487	0.103101	0.103222
C39	C	0.727795	-0.481572	-0.481225
C40	C	1.227795	0.018428	0.018775
C41	C	0.634060	-0.477181	-0.476845
C42	C	1.134060	0.022819	0.023155
C43	C	0.644279	-0.383721	-0.383642
C44	C	1.144279	0.116279	0.116358
C45	C	0.738015	-0.388113	-0.388022
C46	C	1.238015	0.111887	0.111978
C47	C	0.779769	-0.437041	-0.436814
C48	C	1.279769	0.062959	0.063186
C49	C	0.873506	-0.441435	-0.441190
C50	C	1.373506	0.058565	0.058810
C51	C	0.883724	-0.347973	-0.347992
C52	C	1.383724	0.152027	0.152008
C53	C	0.789988	-0.343581	-0.343612
C54	C	1.289988	0.156419	0.156388
C55	C	1.247942	-0.594866	-0.419656
C56	C	1.747942	-0.094866	0.080344
C57	C	1.243533	-0.672867	-0.422793
C58	C	1.743533	-0.172867	0.077207
C59	C	1.301451	-0.710407	-0.382123
C60	C	1.801451	-0.210407	0.117877
C61	C	1.297309	-0.783698	-0.385078
C62	C	1.797309	-0.283698	0.114922
C63	C	1.235244	-0.819447	-0.428700
C64	C	1.735244	-0.319447	0.071300
C65	C	1.177323	-0.781903	-0.469375
C66	C	1.677323	-0.281903	0.030625
C67	C	1.181470	-0.708613	-0.466423
C68	C	1.681470	-0.208613	0.033577
C69	C	1.219725	-1.040689	-0.439724
C70	C	1.719725	-0.540689	0.060276
C71	C	1.215581	-1.113983	-0.442671
C72	C	1.715581	-0.613983	0.057329
C73	C	1.335568	-1.115774	-0.358375
C74	C	1.835568	-0.615774	0.141625
C75	C	1.339706	-1.042483	-0.355424
C76	C	1.839706	-0.542483	0.144576
C77	C	1.281789	-1.004945	-0.396102
C78	C	1.781789	-0.504945	0.103898
C79	C	1.231007	-0.894362	-0.431720
C80	C	1.731007	-0.394362	0.068280
C81	C	1.286031	-0.930031	-0.393085
C82	C	1.786031	-0.430031	0.106915
C83	C	1.492539	-0.423563	-0.423372
C84	C	1.992539	0.076437	0.076628
C85	C	1.592299	-0.428257	-0.428054
C86	C	2.092299	0.071743	0.071946
C87	C	1.248043	-0.419834	-0.595419
C88	C	1.748043	0.080166	-0.095419
C89	C	1.243613	-0.422939	-0.673417
C90	C	1.743613	0.077061	-0.173417
C91	C	1.268999	-0.229519	-0.405104
C92	C	1.768999	0.270481	0.094896
C93	C	1.273499	-0.151523	-0.402001
C94	C	1.773499	0.348477	0.097999
C95	C	1.215556	-0.442657	-1.114514
C96	C	1.715556	0.057343	-0.614514
C97	C	1.219715	-0.439729	-1.041226
C98	C	1.719715	0.060271	-0.541226
C99	C	1.281787	-0.396093	-1.005494
C100	C	1.781787	0.103907	-0.505494
C101	C	1.339697	-0.355378	-1.043054
C102	C	1.839697	0.144622	-0.543054
C103	C	1.335532	-0.358303	-1.116340
C104	C	1.835532	0.141697	-0.616340
C105	C	1.297358	-0.385149	-0.784263
C106	C	1.797358	0.114851	-0.284263
C107	C	1.301520	-0.382229	-0.710971
C108	C	1.801520	0.117771	-0.210971
C109	C	1.181537	-0.466579	-0.709149
C110	C	1.681537	0.033421	-0.209149
C111	C	1.177382	-0.469503	-0.782436
C112	C	1.677382	0.030497	-0.282436
C113	C	1.235288	-0.428785	-0.819989
C114	C	1.735288	0.071215	-0.319989
C115	C	1.286042	-0.393101	-0.930582
C116	C	1.786042	0.106899	-0.430582
C117	C	1.231028	-0.431774	-0.894899
C118	C	1.731028	0.068226	-0.394899
C119	C	1.268848	-0.405241	-0.230065
C120	C	1.768848	0.094759	0.269935
C121	C	1.273463	-0.401946	-0.152068
C122	C	1.773463	0.098054	0.347932
H123	H	0.761792	-0.521415	-0.520949
H124	H	1.261792	-0.021415	-0.020949
Cl125	Cl	0.925996	-0.502945	-0.502527
Cl126	Cl	1.425996	-0.002945	-0.002527
H127	H	1.126837	-0.505036	-0.811524
H128	H	1.626837	-0.005036	-0.311524
Cl129	Cl	1.408322	-0.307113	-1.163550
Cl130	Cl	1.908322	0.192887	-0.663550
Cl131	Cl	1.408380	-1.162969	-0.307246
Cl132	Cl	1.908380	-0.662969	0.192754
Cl133	Cl	1.108658	-0.661420	-0.517556
Cl134	Cl	1.608658	-0.161420	-0.017556
Cl135	Cl	0.737488	-0.282073	-0.282279
Cl136	Cl	1.237488	0.217927	0.217721
H137	H	0.926051	-0.311713	-0.311828
H138	H	1.426051	0.188287	0.188172
H139	H	1.165014	-0.478192	-1.143601
H140	H	1.665014	0.021808	-0.643601
H141	H	0.591746	-0.513441	-0.513009
H142	H	1.091746	-0.013441	-0.013009
Cl143	Cl	1.108741	-0.517759	-0.661935
Cl144	Cl	1.608741	-0.017759	-0.161935
Cl145	Cl	1.379474	-0.665472	-0.327276
Cl146	Cl	1.879474	-0.165472	0.172724
Cl147	Cl	1.379561	-0.327371	-0.666053
Cl148	Cl	1.879561	0.172629	-0.166053
Cl149	Cl	1.417710	-0.300505	-0.998132
Cl150	Cl	1.917710	0.199495	-0.498132
H151	H	1.336568	-0.900922	-0.357570
H152	H	1.836568	-0.400922	0.142430
H153	H	1.344514	-0.351998	-0.814830
H154	H	1.844514	0.148002	-0.314830
Cl155	Cl	1.152984	-0.939311	-0.486557
Cl156	Cl	1.652984	-0.439311	0.013443
Cl157	Cl	0.591772	-0.322207	-0.322319
Cl158	Cl	1.091772	0.177793	0.177681
H159	H	1.336583	-0.357575	-0.901482
H160	H	1.836583	0.142425	-0.401482
H161	H	1.344472	-0.814260	-0.351959
H162	H	1.844472	-0.314260	0.148041
H163	H	1.180485	-0.467298	-0.923995
H164	H	1.680485	0.032702	-0.423995
Cl165	Cl	1.417746	-0.997547	-0.300593
Cl166	Cl	1.917746	-0.497547	0.199407
Cl167	Cl	1.137539	-1.158924	-0.497505
Cl168	Cl	1.637539	-0.658924	0.002495
H169	H	1.172565	-1.010131	-0.472844
H170	H	1.672565	-0.510131	0.027156
H171	H	1.126792	-0.811016	-0.504896
H172	H	1.626792	-0.311016	-0.004896
H173	H	1.172570	-0.472887	-1.010653
H174	H	1.672570	0.027113	-0.510653
