data_functionalizedCrystal
_audit_creation_method	'MofGen! by Chris Wilmer'
_symmetry_space_group_name_H-M	'P1'
_symmetry_Int_Tables_number	1
_symmetry_cell_setting	triclinic
loop_
_symmetry_equiv_pos_as_xyz
  x,y,z
_cell_length_a	18.101398
_cell_length_b	10.686285
_cell_length_c	10.685880
_cell_angle_alpha	89.638885
_cell_angle_beta	85.613058
_cell_angle_gamma	85.627855
loop_
_atom_site_label
_atom_site_type_symbol
_atom_site_fract_x
_atom_site_fract_y
_atom_site_fract_z
Zn1	Zn	1.187402	-0.553838	-0.670769
Zn2	Zn	1.687402	-0.053838	-0.170769
Zn3	Zn	1.185898	-0.747575	-0.444941
Zn4	Zn	1.685898	-0.247575	0.055059
Zn5	Zn	1.053390	-0.537813	-0.461047
Zn6	Zn	1.553390	-0.037813	0.038953
Zn7	Zn	1.072281	-0.763536	-0.654689
Zn8	Zn	1.572281	-0.263536	-0.154689
O9	O	1.124743	-0.650690	-0.557862
O10	O	1.624743	-0.150690	-0.057862
O11	O	1.290836	-0.579564	-0.640801
O12	O	1.790836	-0.079564	-0.140801
O13	O	1.159786	-0.706364	-0.271528
O14	O	1.659786	-0.206364	0.228472
O15	O	1.063891	-0.364394	-0.502337
O16	O	1.563891	0.135606	-0.002337
O17	O	1.289731	-0.721902	-0.474887
O18	O	1.789731	-0.221902	0.025113
O19	O	1.162349	-0.376166	-0.656419
O20	O	1.662349	0.123834	-0.156419
O21	O	1.062433	-0.552253	-0.283362
O22	O	1.562433	-0.052253	0.216638
O23	O	0.952263	-0.567730	-0.486746
O24	O	1.452263	-0.067730	0.013254
O25	O	1.096086	-0.749105	-0.832371
O26	O	1.596086	-0.249105	-0.332371
O27	O	0.966141	-0.733567	-0.629013
O28	O	1.466141	-0.233567	-0.129013
O29	O	1.180665	-0.595041	-0.844185
O30	O	1.680665	-0.095041	-0.344185
O31	O	1.178103	-0.925238	-0.459295
O32	O	1.678103	-0.425238	0.040705
O33	O	1.094628	-0.936964	-0.613395
O34	O	1.594628	-0.436964	-0.113395
C35	C	1.138274	-0.976620	-0.532880
C36	C	1.638274	-0.476620	-0.032880
C37	C	1.144132	-1.116057	-0.522234
C38	C	1.644132	-0.616057	-0.022234
C39	C	0.932331	-0.650643	-0.557883
C40	C	1.432331	-0.150643	-0.057883
C41	C	0.850019	-0.650654	-0.557919
C42	C	1.350019	-0.150654	-0.057919
C43	C	0.550929	-0.650724	-0.557861
C44	C	1.050929	-0.150724	-0.057861
C45	C	0.591007	-0.755497	-0.646858
C46	C	1.091007	-0.255497	-0.146858
C47	C	0.676632	-0.755222	-0.647278
C48	C	1.176632	-0.255222	-0.147278
C49	C	0.699311	-0.650691	-0.557890
C50	C	1.199311	-0.150691	-0.057890
C51	C	0.664482	-0.521324	-0.604126
C52	C	1.164482	-0.021324	-0.104126
C53	C	0.578895	-0.521961	-0.604768
C54	C	1.078895	-0.021961	-0.104768
C55	C	0.577439	-0.674136	-0.422485
C56	C	1.077439	-0.174136	0.077515
C57	C	0.663245	-0.677090	-0.422973
C58	C	1.163245	-0.177090	0.077027
C59	C	0.783170	-0.650664	-0.557905
C60	C	1.283170	-0.150664	-0.057905
C61	C	0.467069	-0.650743	-0.557850
C62	C	0.967069	-0.150743	-0.057850
C63	C	1.317906	-0.650740	-0.557841
C64	C	1.817906	-0.150740	-0.057841
C65	C	1.400220	-0.650761	-0.557832
C66	C	1.900220	-0.150761	-0.057832
C67	C	1.140651	-0.675641	-0.885069
C68	C	1.640651	-0.175641	-0.385069
C69	C	1.147430	-0.686273	-1.024505
C70	C	1.647430	-0.186273	-0.524505
C71	C	1.111180	-0.323490	-0.582968
C72	C	1.611180	0.176510	-0.082968
C73	C	1.105401	-0.184057	-0.593667
C74	C	1.605401	0.315943	-0.093667
C75	C	1.108935	-0.625747	-0.231934
C76	C	1.608935	-0.125747	0.268066
C77	C	1.102285	-0.614761	-0.092526
C78	C	1.602285	-0.114761	0.407474
H79	H	1.067760	-1.135602	-0.662970
H80	H	1.567760	-0.635602	-0.162970
Cl81	Cl	0.702936	-0.487905	-0.755821
Cl82	Cl	1.202936	0.012095	-0.255821
Cl83	Cl	0.686016	-0.398206	-0.507865
Cl84	Cl	1.186016	0.101794	-0.007865
H85	H	1.191273	-0.755639	-1.072948
H86	H	1.691273	-0.255639	-0.572948
H87	H	0.558194	-0.766326	-0.382408
H88	H	1.058194	-0.266326	0.117592
H89	H	1.181770	-1.164519	-0.452919
H90	H	1.681770	-0.664519	0.047081
Cl91	Cl	0.698819	-0.823996	-0.369424
Cl92	Cl	1.198819	-0.323996	0.130576
H93	H	0.678221	-0.605510	-0.352285
H94	H	1.178221	-0.105510	0.147715
Cl95	Cl	0.553504	-0.489470	-0.758028
Cl96	Cl	1.053504	0.010530	-0.258028
Cl97	Cl	0.713685	-0.903842	-0.600798
Cl98	Cl	1.213685	-0.403842	-0.100798
Cl99	Cl	0.563845	-0.904629	-0.600692
Cl100	Cl	1.063845	-0.404629	-0.100692
H101	H	1.058442	-0.545405	-1.044088
H102	H	1.558442	-0.045405	-0.544088
H103	H	0.573324	-0.741051	-0.746369
H104	H	1.073324	-0.241051	-0.246369
Cl105	Cl	0.714225	-0.732548	-0.801827
Cl106	Cl	1.214225	-0.232548	-0.301827
Cl107	Cl	0.536198	-0.556126	-0.319912
Cl108	Cl	1.036198	-0.056126	0.180088
H109	H	0.551779	-0.441667	-0.543491
H110	H	1.051779	0.058333	-0.043491
