data_functionalizedCrystal
_audit_creation_method	'MofGen! by Chris Wilmer'
_symmetry_space_group_name_H-M	'P1'
_symmetry_Int_Tables_number	1
_symmetry_cell_setting	triclinic
loop_
_symmetry_equiv_pos_as_xyz
  x,y,z
_cell_length_a	14.044191
_cell_length_b	14.044220
_cell_length_c	13.930277
_cell_angle_alpha	89.994760
_cell_angle_beta	89.995225
_cell_angle_gamma	93.190327
loop_
_atom_site_label
_atom_site_type_symbol
_atom_site_fract_x
_atom_site_fract_y
_atom_site_fract_z
O1	O	1.277176	0.230199	-0.079789
O2	O	1.777176	0.730199	0.420211
O3	O	1.000504	0.221887	-0.079801
O4	O	1.500504	0.721887	0.420199
O5	O	1.134687	0.087707	-0.079785
O6	O	1.634687	0.587707	0.420215
O7	O	1.142993	0.364379	-0.079804
O8	O	1.642993	0.864379	0.420196
O9	O	1.134667	0.087702	0.079876
O10	O	1.634667	0.587702	0.579876
O11	O	1.000483	0.221882	0.079861
O12	O	1.500483	0.721882	0.579861
O13	O	1.277156	0.230195	0.079873
O14	O	1.777156	0.730195	0.579873
Zn15	Zn	1.138816	0.226038	0.105217
Zn16	Zn	1.638816	0.726038	0.605217
Zn17	Zn	1.138843	0.226044	-0.105144
Zn18	Zn	1.638843	0.726044	0.394856
O19	O	1.142972	0.364374	0.079858
O20	O	1.642972	0.864374	0.579858
C21	C	0.964872	0.218248	0.000029
C22	C	1.464872	0.718248	0.500029
C23	C	0.858728	0.207401	0.000024
C24	C	1.358728	0.707401	0.500024
C25	C	0.613270	0.264501	0.000030
C26	C	1.113270	0.764501	0.500030
C27	C	0.664395	0.187585	0.000034
C28	C	1.164395	0.687585	0.500034
C29	C	0.772532	0.198613	0.000029
C30	C	1.272532	0.698613	0.500029
C31	C	0.505123	0.253474	0.000035
C32	C	1.005123	0.753474	0.500035
C33	C	1.131041	0.052083	0.000046
C34	C	1.631041	0.552083	0.500046
C35	C	1.120197	-0.054060	0.000046
C36	C	1.620197	0.445940	0.500046
C37	C	1.100370	-0.248398	0.000032
C38	C	1.600370	0.251602	0.500032
C39	C	1.177285	-0.299526	0.000032
C40	C	1.677285	0.200474	0.500032
C41	C	1.166253	-0.407663	0.000024
C42	C	1.666253	0.092337	0.500024
C43	C	1.111400	-0.140252	0.000040
C44	C	1.611400	0.359748	0.500040
C45	C	1.312788	0.233834	0.000042
C46	C	1.812788	0.733834	0.500042
C47	C	1.418931	0.244681	0.000039
C48	C	1.918931	0.744681	0.500039
C49	C	1.146618	0.399998	0.000025
C50	C	1.646618	0.899998	0.500025
C51	C	1.157463	0.506142	0.000018
C52	C	1.657463	1.006142	0.500018
N53	N	1.138805	0.226033	0.248783
N54	N	1.638805	0.726033	0.748783
N55	N	1.138862	0.226041	-0.248711
N56	N	1.638862	0.726041	0.251289
C57	C	1.079422	0.285433	0.701045
C58	C	1.579422	0.785433	1.201045
C59	C	1.198290	0.166650	0.701028
C60	C	1.698290	0.666650	1.201028
C61	C	1.198278	0.166646	0.600533
C62	C	1.698278	0.666646	1.100533
C63	C	1.138839	0.226037	0.550289
C64	C	1.638839	0.726037	1.050289
C65	C	1.079411	0.285433	0.600540
C66	C	1.579411	0.785433	1.100540
C67	C	1.257712	0.107258	0.550273
C68	C	1.757712	0.607258	1.050273
C69	C	1.257704	0.107253	0.449772
C70	C	1.757704	0.607253	0.949772
C71	C	1.198259	0.166640	0.399526
C72	C	1.698259	0.666640	0.899526
C73	C	1.138828	0.226037	0.449784
C74	C	1.638828	0.726037	0.949784
C75	C	1.079388	0.285429	0.399540
C76	C	1.579388	0.785429	0.899540
C77	C	1.019951	0.344822	0.449796
C78	C	1.519951	0.844822	0.949796
C79	C	1.019966	0.344820	0.550295
C80	C	1.519966	0.844820	1.050295
C81	C	1.198244	0.166642	0.299027
C82	C	1.698244	0.666642	0.799027
C83	C	1.079377	0.285429	0.299035
C84	C	1.579377	0.785429	0.799035
H85	H	0.650711	0.338628	0.000022
H86	H	1.150711	0.838628	0.500022
F87	F	0.956699	0.408035	0.396312
F88	F	1.456699	0.908035	0.896312
F89	F	1.274184	-0.250591	0.000044
F90	F	1.774184	0.249409	0.500044
F91	F	0.956716	0.408028	0.603784
F92	F	1.456716	0.908028	1.103784
F93	F	1.003478	-0.297333	0.000023
F94	F	1.503478	0.202667	0.500023
F95	F	1.016106	0.348638	0.245569
F96	F	1.516106	0.848638	0.745569
H97	H	1.031027	0.333787	0.741966
H98	H	1.531027	0.833787	1.241966
H99	H	1.246689	0.118300	0.741940
H100	H	1.746689	0.618300	1.241940
F101	F	1.320976	0.044059	0.603746
F102	F	1.820976	0.544059	1.103746
F103	F	1.261503	0.103441	0.245547
F104	F	1.761503	0.603441	0.745547
F105	F	0.615457	0.090687	0.000041
F106	F	1.115457	0.590687	0.500041
F107	F	1.320958	0.044041	0.396292
F108	F	1.820958	0.544041	0.896292
