data_functionalizedCrystal
_audit_creation_method	'MofGen! by Chris Wilmer'
_symmetry_space_group_name_H-M	'P1'
_symmetry_Int_Tables_number	1
_symmetry_cell_setting	triclinic
loop_
_symmetry_equiv_pos_as_xyz
  x,y,z
_cell_length_a	14.971491
_cell_length_b	9.065215
_cell_length_c	13.448316
_cell_angle_alpha	89.994392
_cell_angle_beta	89.991393
_cell_angle_gamma	84.315466
loop_
_atom_site_label
_atom_site_type_symbol
_atom_site_fract_x
_atom_site_fract_y
_atom_site_fract_z
O1	O	1.188376	0.192298	-0.082732
O2	O	0.928148	0.215314	-0.082725
O3	O	1.063643	-0.010946	-0.082725
O4	O	1.052882	0.418557	-0.082733
O5	O	1.063625	-0.010960	0.082659
O6	O	0.928131	0.215300	0.082659
O7	O	1.188359	0.192284	0.082651
Cu8	Cu	1.058243	0.203791	0.097756
Cu9	Cu	1.058264	0.203807	-0.097829
O10	O	1.052865	0.418544	0.082651
C11	C	0.894807	0.214276	-0.000032
C12	C	0.795488	0.211187	-0.000029
C13	C	0.367692	0.197868	-0.090203
C14	C	0.461014	0.200765	-0.090199
C15	C	0.507661	0.202216	-0.000045
C16	C	0.460983	0.200754	0.090112
C17	C	0.367663	0.197846	0.090107
C18	C	0.655490	0.206819	0.090115
C19	C	0.748815	0.209730	0.090120
C20	C	0.748840	0.209738	-0.090191
C21	C	0.655521	0.206830	-0.090195
C22	C	0.608849	0.205371	-0.000039
C23	C	1.062600	-0.065918	-0.000034
C24	C	1.059510	-0.229699	-0.000037
C25	C	1.221700	0.193322	-0.000044
C26	C	1.321020	0.196410	-0.000053
C27	C	1.053907	0.473516	-0.000042
C28	C	1.056997	0.637297	-0.000046
N29	N	1.058236	0.203778	0.235320
N30	N	1.058279	0.203808	-0.235394
C31	C	1.118252	0.103632	0.287361
C32	C	1.118257	0.103630	0.391464
C33	C	1.058250	0.203784	0.443525
C34	C	0.998228	0.303935	0.391477
C35	C	0.998219	0.303928	0.287376
C36	C	0.998253	0.303945	0.608457
C37	C	0.998263	0.303954	0.712566
C38	C	1.118291	0.103647	0.712545
C39	C	1.118282	0.103640	0.608444
C40	C	1.058260	0.203794	0.556404
H41	H	0.786845	0.210928	-0.163599
H42	H	0.617491	0.205649	0.163530
Br43	Br	0.592213	0.204880	-0.212549
Br44	Br	0.812123	0.211691	0.212474
Br45	Br	0.524289	0.202715	0.212466
Br46	Br	1.199705	-0.032290	0.462094
Br47	Br	1.199701	-0.032289	0.216718
Br48	Br	0.304323	0.195847	0.212457
Br49	Br	1.199752	-0.032266	0.783175
H50	H	0.949365	0.385477	0.433871
Br51	Br	0.524353	0.202729	-0.212550
H52	H	1.167148	0.022095	0.566056
H53	H	0.949374	0.385496	0.566089
H54	H	0.949398	0.385508	0.754948
H55	H	0.329718	0.196697	-0.163617
Br56	Br	0.916759	0.439838	0.216749
