data_functionalizedCrystal
_audit_creation_method	'MofGen! by Chris Wilmer'
_symmetry_space_group_name_H-M	'P1'
_symmetry_Int_Tables_number	1
_symmetry_cell_setting	triclinic
loop_
_symmetry_equiv_pos_as_xyz
  x,y,z
_cell_length_a	23.532357
_cell_length_b	23.532407
_cell_length_c	22.610064
_cell_angle_alpha	89.999018
_cell_angle_beta	89.994951
_cell_angle_gamma	82.838519
loop_
_atom_site_label
_atom_site_type_symbol
_atom_site_fract_x
_atom_site_fract_y
_atom_site_fract_z
O1	O	0.069124	0.755246	0.049154
O2	O	0.569124	1.255246	0.549154
O3	O	0.079128	0.589381	0.049165
O4	O	0.579128	1.089381	0.549165
O5	O	-0.008808	0.677330	0.049147
O6	O	0.491192	1.177330	0.549147
O7	O	0.157060	0.667297	0.049172
O8	O	0.657060	1.167297	0.549172
O9	O	-0.008785	0.677324	-0.049222
O10	O	0.491215	1.177324	0.450778
O11	O	0.079150	0.589375	-0.049205
O12	O	0.579150	1.089375	0.450795
O13	O	0.069147	0.755240	-0.049215
O14	O	0.569147	1.255240	0.450785
Zn15	Zn	0.074152	0.672307	-0.064828
Zn16	Zn	0.574152	1.172307	0.435172
Zn17	Zn	0.074123	0.672315	0.064778
Zn18	Zn	0.574123	1.172315	0.564778
O19	O	0.157082	0.667291	-0.049197
O20	O	0.657082	1.167291	0.450803
C21	C	0.078884	0.568162	-0.000019
C22	C	0.578884	1.068162	0.499981
C23	C	0.078118	0.504945	-0.000015
C24	C	0.578118	1.004945	0.499985
C25	C	0.022922	0.238788	-0.000040
C26	C	0.522922	0.738788	0.499960
C27	C	0.023633	0.298188	-0.000040
C28	C	0.523633	0.798188	0.499960
O29	O	-0.020154	0.334940	-0.000067
O30	O	0.479846	0.834940	0.499933
N31	N	0.075911	0.320805	-0.000028
N32	N	0.575911	0.820805	0.499972
C33	C	0.127480	0.284018	-0.000022
C34	C	0.627480	0.784018	0.499978
O35	O	0.172012	0.308710	-0.000012
O36	O	0.672012	0.808710	0.499988
C37	C	0.126768	0.224619	-0.000027
C38	C	0.626768	0.724619	0.499973
C39	C	0.074487	0.202006	-0.000032
C40	C	0.574487	0.702006	0.499968
C41	C	-0.029355	0.216174	-0.000046
C42	C	0.470645	0.716174	0.499954
C43	C	-0.030066	0.156778	-0.000045
C44	C	0.469934	0.656778	0.499955
C45	C	0.021499	0.119996	-0.000038
C46	C	0.521499	0.619996	0.499962
C47	C	0.073776	0.142610	-0.000032
C48	C	0.573776	0.642610	0.499968
C49	C	0.178337	0.187833	-0.000025
C50	C	0.678337	0.687833	0.499975
C51	C	0.177620	0.128431	-0.000030
C52	C	0.677620	0.628431	0.499970
C53	C	0.125339	0.105818	-0.000036
C54	C	0.625339	0.605818	0.499964
C55	C	0.124630	0.046431	-0.000023
C56	C	0.624630	0.546431	0.499977
N57	N	0.072353	0.023815	-0.000035
N58	N	0.572353	0.523815	0.499965
C59	C	0.020787	0.060597	-0.000043
C60	C	0.520787	0.560597	0.499957
C61	C	0.128971	0.408760	-0.000014
C62	C	0.628971	0.908760	0.499986
C63	C	0.129684	0.468158	-0.000005
C64	C	0.629684	0.968158	0.499995
C65	C	0.025837	0.482324	-0.000023
C66	C	0.525837	0.982324	0.499977
C67	C	0.025125	0.422925	-0.000028
C68	C	0.525125	0.922925	0.499972
C69	C	0.076694	0.386143	-0.000026
C70	C	0.576694	0.886143	0.499974
C71	C	0.019297	-0.064140	-0.000040
C72	C	0.519297	0.435860	0.499960
C73	C	0.018591	-0.123542	-0.000037
C74	C	0.518591	0.376458	0.499963
C75	C	0.122438	-0.137702	-0.000022
C76	C	0.622438	0.362298	0.499978
C77	C	0.123145	-0.078306	-0.000022
C78	C	0.623145	0.421694	0.499978
C79	C	0.071570	-0.041525	-0.000033
C80	C	0.571570	0.458475	0.499967
O81	O	0.168394	0.009644	0.000001
O82	O	0.668394	0.509644	0.500001
O83	O	-0.023737	0.035897	-0.000060
O84	O	0.476263	0.535897	0.499940
C85	C	-0.030013	0.677076	-0.000039
C86	C	0.469987	1.177076	0.499961
C87	C	-0.093232	0.676322	-0.000045
C88	C	0.406768	1.176322	0.499955
C89	C	-0.485255	0.671588	0.053608
C90	C	0.014745	1.171588	0.553608
C91	C	-0.544655	0.670871	0.053612
C92	C	-0.044655	1.170871	0.553612
O93	O	-0.575381	0.670484	0.099214
O94	O	-0.075381	1.170484	0.599214
N95	N	-0.574354	0.670512	-0.000009
N96	N	-0.074354	1.170512	0.499991
C97	C	-0.544649	0.670865	-0.053636
C98	C	-0.044649	1.170865	0.446364
O99	O	-0.575365	0.670493	-0.099244
O100	O	-0.075365	1.170493	0.400756
C101	C	-0.485250	0.671578	-0.053639
C102	C	0.014750	1.171578	0.446361
C103	C	-0.455555	0.671942	-0.000015
C104	C	0.044445	1.171942	0.499985
C105	C	-0.455560	0.671952	0.107228
C106	C	0.044440	1.171952	0.607228
C107	C	-0.396165	0.672671	0.107224
C108	C	0.103835	1.172671	0.607224
C109	C	-0.366465	0.673025	0.053601
C110	C	0.133535	1.173025	0.553601
C111	C	-0.396160	0.672661	-0.000018
C112	C	0.103840	1.172661	0.499982
C113	C	-0.455546	0.671926	-0.107265
C114	C	0.044454	1.171926	0.392735
C115	C	-0.396143	0.672639	-0.107263
C116	C	0.103857	1.172639	0.392737
C117	C	-0.366448	0.673004	-0.053640
C118	C	0.133552	1.173004	0.446360
C119	C	-0.307065	0.673733	-0.053645
C120	C	0.192935	1.173733	0.446355
N121	N	-0.277366	0.674092	-0.000025
N122	N	0.222634	1.174092	0.499975
C123	C	-0.307066	0.673738	0.053598
C124	C	0.192934	1.173738	0.553598
C125	C	-0.669391	0.669366	-0.053626
C126	C	-0.169391	1.169366	0.446374
C127	C	-0.728789	0.668657	-0.053624
C128	C	-0.228789	1.168657	0.446376
C129	C	-0.728790	0.668662	0.053624
C130	C	-0.228790	1.168662	0.553624
C131	C	-0.669391	0.669375	0.053621
C132	C	-0.169391	1.169375	0.553621
C133	C	-0.639692	0.669725	-0.000005
C134	C	-0.139692	1.169725	0.499995
C135	C	-0.182332	0.675247	0.053587
C136	C	0.317668	1.175247	0.553587
C137	C	-0.122932	0.675968	0.053578
C138	C	0.377068	1.175968	0.553578
C139	C	-0.122935	0.675959	-0.053669
C140	C	0.377065	1.175959	0.446331
C141	C	-0.182330	0.675241	-0.053661
C142	C	0.317670	1.175241	0.446339
C143	C	-0.212027	0.674883	-0.000028
C144	C	0.287973	1.174883	0.499972
O145	O	-0.276300	0.674119	-0.099224
O146	O	0.223700	1.174119	0.400776
O147	O	-0.276342	0.674102	0.099199
O148	O	0.223658	1.174102	0.599199
C149	C	0.178288	0.667545	-0.000010
C150	C	0.678288	1.167545	0.499990
C151	C	0.241506	0.668300	-0.000000
C152	C	0.741506	1.168300	0.500000
C153	C	0.069390	0.776459	-0.000030
C154	C	0.569390	1.276459	0.499970
C155	C	0.070156	0.839676	-0.000030
C156	C	0.570156	1.339676	0.499970
N157	N	0.074172	0.672305	-0.153280
N158	N	0.574172	1.172305	0.346720
C159	C	0.113063	0.633349	-0.438121
C160	C	0.613063	1.133349	0.061879
C161	C	0.113068	0.633347	-0.376201
C162	C	0.613068	1.133347	0.123799
O163	O	0.146160	0.600208	-0.344175
O164	O	0.646160	1.100208	0.155825
N165	N	0.074149	0.672301	-0.345233
N166	N	0.574149	1.172301	0.154767
C167	C	0.035218	0.711256	-0.376188
C168	C	0.535218	1.211256	0.123812
O169	O	0.002115	0.744389	-0.344161
O170	O	0.502115	1.244389	0.155839
C171	C	0.035210	0.711254	-0.438107
C172	C	0.535210	1.211254	0.061893
C173	C	0.074136	0.672301	-0.469071
C174	C	0.574136	1.172301	0.030929
C175	C	0.151984	0.594399	-0.469086
C176	C	0.651984	1.094399	0.030914
C177	C	0.151980	0.594401	-0.531001
C178	C	0.651980	1.094401	-0.031001
C179	C	0.113053	0.633354	-0.561952
C180	C	0.613053	1.133354	-0.061952
C181	C	0.074131	0.672304	-0.530987
C182	C	0.574131	1.172304	-0.030987
C183	C	-0.003723	0.750205	-0.469060
C184	C	0.496277	1.250205	0.030940
C185	C	-0.003728	0.750200	-0.530983
C186	C	0.496272	1.250200	-0.030983
C187	C	0.035198	0.711247	-0.561948
C188	C	0.535198	1.211247	-0.061948
C189	C	0.035199	0.711259	-0.623853
C190	C	0.535199	1.211259	-0.123853
N191	N	0.074118	0.672305	-0.654821
N192	N	0.574118	1.172305	-0.154821
C193	C	0.113045	0.633352	-0.623871
C194	C	0.613045	1.133352	-0.123871
C195	C	0.035237	0.711255	-0.246154
C196	C	0.535237	1.211255	0.253846
C197	C	0.035247	0.711260	-0.184236
C198	C	0.535247	1.211260	0.315764
C199	C	0.113096	0.633351	-0.184254
C200	C	0.613096	1.133351	0.315746
C201	C	0.113088	0.633349	-0.246173
C202	C	0.613088	1.133349	0.253827
C203	C	0.074156	0.672301	-0.277122
C204	C	0.574156	1.172301	0.222878
C205	C	0.113032	0.633361	-0.753898
C206	C	0.613032	1.133361	-0.253898
C207	C	0.113025	0.633368	-0.815819
C208	C	0.613025	1.133368	-0.315819
C209	C	0.035174	0.711275	-0.815796
C210	C	0.535174	1.211275	-0.315796
C211	C	0.035182	0.711270	-0.753881
C212	C	0.535182	1.211270	-0.253881
C213	C	0.074114	0.672308	-0.722933
C214	C	0.574114	1.172308	-0.222933
O215	O	0.002123	0.744380	-0.655918
O216	O	0.502123	1.244380	-0.155918
O217	O	0.146138	0.600220	-0.655905
O218	O	0.646138	1.100220	-0.155905
N219	N	0.074098	0.672320	0.153230
N220	N	0.574098	1.172320	0.653230
H221	H	-0.072639	0.138372	-0.000053
H222	H	0.427361	0.638372	0.499947
O223	O	-0.364143	0.673058	0.165064
O224	O	0.135857	1.173058	0.665064
H225	H	-0.317848	0.673619	0.156063
H226	H	0.182152	1.173619	0.656063
H227	H	-0.371964	0.672915	-0.150934
H228	H	0.128036	1.172915	0.349066
O229	O	-0.084977	0.255842	-0.000053
O230	O	0.415023	0.755842	0.499947
H231	H	-0.121442	0.230128	-0.000055
H232	H	0.378558	0.730128	0.499945
H233	H	0.003556	0.742985	-0.159029
H234	H	0.503556	1.242985	0.340971
H235	H	-0.098743	0.676250	-0.097328
H236	H	0.401257	1.176250	0.402672
O237	O	-0.006752	0.753282	-0.279528
O238	O	0.493248	1.253282	0.220472
H239	H	-0.034325	0.729481	-0.307728
H240	H	0.465675	1.229481	0.192272
O241	O	-0.029783	0.522003	-0.000043
O242	O	0.470217	1.022003	0.499957
H243	H	-0.031952	0.549410	0.040046
H244	H	0.468048	1.049410	0.540046
O245	O	0.193962	0.552383	-0.564391
O246	O	0.693962	1.052383	-0.064391
H247	H	0.187427	0.558923	-0.612649
H248	H	0.687427	1.058923	-0.112649
O249	O	0.179532	-0.053911	-0.000015
O250	O	0.679532	0.446089	0.499985
H251	H	0.204288	-0.068708	0.040080
H252	H	0.704288	0.431292	0.540080
H253	H	-0.035433	0.781919	-0.556180
H254	H	0.464567	1.281919	-0.056180
H255	H	0.164421	-0.167661	-0.000013
H256	H	0.664421	0.332339	0.499987
H257	H	0.003491	0.742994	-0.728669
H258	H	0.503491	1.242994	-0.228669
H259	H	0.220910	0.206234	-0.000018
H260	H	0.720910	0.706234	0.499982
O261	O	-0.031263	0.398535	-0.000044
O262	O	0.468737	0.898535	0.499956
H263	H	-0.066996	0.434097	-0.000053
H264	H	0.433004	0.934097	0.499947
O265	O	-0.006810	0.753284	-0.849189
O266	O	0.493190	1.253284	-0.349189
H267	H	0.000222	0.797638	-0.837316
H268	H	0.500222	1.297638	-0.337316
H269	H	0.172256	0.486564	0.000008
H270	H	0.672256	0.986564	0.500008
O271	O	-0.487581	0.671558	0.165072
O272	O	0.012419	1.171558	0.665072
H273	H	-0.481478	0.710518	0.190783
H274	H	0.018522	1.210518	0.690783
O275	O	-0.037800	-0.147933	-0.000051
O276	O	0.462200	0.352067	0.499949
H277	H	-0.073535	-0.112373	-0.000065
H278	H	0.426465	0.387627	0.499935
O279	O	0.233243	0.088759	-0.000032
O280	O	0.733243	0.588759	0.499968
H281	H	0.235397	0.061353	0.040058
H282	H	0.735397	0.561353	0.540058
O283	O	-0.036328	-0.024473	-0.000048
O284	O	0.463672	0.475527	0.499952
H285	H	-0.072794	-0.050186	-0.000047
H286	H	0.427206	0.449814	0.499953
O287	O	0.184596	0.369088	-0.000001
O288	O	0.684596	0.869088	0.499999
H289	H	0.221063	0.394799	0.000013
H290	H	0.721063	0.894799	0.500013
O291	O	-0.214357	0.674863	0.111432
O292	O	0.285643	1.174863	0.611432
H293	H	-0.236113	0.635711	0.114008
H294	H	0.263887	1.135711	0.614008
H295	H	-0.645217	0.669672	0.097287
H296	H	-0.145217	1.169672	0.597287
O297	O	-0.090901	0.676353	0.111417
O298	O	0.409099	1.176353	0.611417
H299	H	-0.121535	0.675978	0.148703
H300	H	0.378465	1.175978	0.648703
O301	O	-0.760827	0.668272	0.111464
O302	O	-0.260827	1.168272	0.611464
H303	H	-0.807118	0.667707	0.102452
H304	H	-0.307118	1.167707	0.602452
H305	H	0.144785	0.601631	-0.271381
H306	H	0.644785	1.101631	0.228619
O307	O	0.155023	0.591333	-0.720532
O308	O	0.655023	1.091333	-0.220532
H309	H	0.131192	0.563786	-0.692326
H310	H	0.631192	1.063786	-0.192326
O311	O	-0.045713	0.792213	-0.435671
O312	O	0.454287	1.292213	0.064329
H313	H	-0.072785	0.819288	-0.467605
H314	H	0.427215	1.319288	0.032395
H315	H	-0.752963	0.668369	-0.097289
H316	H	-0.252963	1.168369	0.402711
O317	O	-0.637360	0.669758	-0.111469
O318	O	-0.137360	1.169758	0.388531
H319	H	-0.667996	0.669396	-0.148750
H320	H	-0.167996	1.169396	0.351250
H321	H	-0.479714	0.671630	-0.150931
H322	H	0.020286	1.171630	0.349069
O323	O	-0.214365	0.674850	-0.111496
O324	O	0.285635	1.174850	0.388504
H325	H	-0.183731	0.675214	-0.148783
H326	H	0.316269	1.175214	0.351217
O327	O	0.155011	0.591357	-0.849222
O328	O	0.655011	1.091357	-0.349222
H329	H	0.182568	0.615174	-0.877430
H330	H	0.682568	1.115174	-0.377430
O331	O	0.193977	0.552386	-0.435707
O332	O	0.693977	1.052386	0.064293
H333	H	0.221039	0.525309	-0.467651
H334	H	0.721039	1.025309	0.032349
O335	O	0.155075	0.591326	-0.150866
O336	O	0.655075	1.091326	0.349134
H337	H	0.148531	0.597869	-0.102609
H338	H	0.648531	1.097869	0.397391
