data_functionalizedCrystal
_audit_creation_method	'MofGen! by Chris Wilmer'
_symmetry_space_group_name_H-M	'P1'
_symmetry_Int_Tables_number	1
_symmetry_cell_setting	triclinic
loop_
_symmetry_equiv_pos_as_xyz
  x,y,z
_cell_length_a	14.853567
_cell_length_b	14.853567
_cell_length_c	13.930277
_cell_angle_alpha	90.001389
_cell_angle_beta	89.995623
_cell_angle_gamma	83.634930
loop_
_atom_site_label
_atom_site_type_symbol
_atom_site_fract_x
_atom_site_fract_y
_atom_site_fract_z
O1	O	-1.196369	-0.117701	0.079756
O2	O	-0.933909	-0.131722	0.079772
O3	O	-1.072150	0.006518	0.079767
O4	O	-1.058128	-0.255941	0.079762
O5	O	-1.072130	0.006516	-0.079895
O6	O	-0.933889	-0.131725	-0.079890
O7	O	-1.196349	-0.117703	-0.079905
Zn8	Zn	-1.065116	-0.124715	-0.105247
Zn9	Zn	-1.065142	-0.124711	0.105114
O10	O	-1.058108	-0.255944	-0.079900
C11	C	-0.900311	-0.131088	-0.000057
C12	C	-0.800227	-0.129184	-0.000051
C13	C	-1.071504	0.040106	-0.000061
C14	C	-1.069601	0.140189	-0.000053
C15	C	-1.229947	-0.118337	-0.000075
C16	C	-1.330031	-0.120241	-0.000075
N17	N	-1.065104	-0.124716	-0.248814
C18	C	-0.387693	-0.039019	-0.000070
C19	C	-0.366412	-0.203251	-0.000073
C20	C	-0.460446	-0.205042	-0.000070
C21	C	-0.518108	-0.123819	-0.000066
C22	C	-0.481736	-0.040806	-0.000065
C23	C	-0.496825	-0.288053	-0.000061
C24	C	-0.590864	-0.289846	-0.000057
C25	C	-0.648528	-0.208623	-0.000060
C26	C	-0.612150	-0.125607	-0.000060
C27	C	-0.669812	-0.044384	-0.000056
C28	C	-0.633437	0.038633	-0.000063
C29	C	-0.539399	0.040417	-0.000067
C30	C	-0.742565	-0.210407	-0.000055
C31	C	-0.763855	-0.046172	-0.000050
C32	C	-1.058754	-0.289531	-0.000070
C33	C	-1.060657	-0.389615	-0.000072
C34	C	-0.979435	0.552723	-0.000066
C35	C	-1.143668	0.574004	-0.000076
C36	C	-1.145458	0.479971	-0.000070
C37	C	-1.064235	0.422309	-0.000064
C38	C	-0.981223	0.458680	-0.000063
C39	C	-1.228469	0.443591	-0.000080
C40	C	-1.230262	0.349552	-0.000076
C41	C	-1.149039	0.291889	-0.000063
C42	C	-1.066023	0.328266	-0.000061
C43	C	-0.984800	0.270604	-0.000055
C44	C	-0.901783	0.306979	-0.000047
C45	C	-0.899999	0.401017	-0.000050
C46	C	-1.150823	0.197851	-0.000059
C47	C	-0.986588	0.176561	-0.000052
C48	C	-1.010364	-0.069937	-0.299072
C49	C	-1.119856	-0.179492	-0.299060
C50	C	-1.119867	-0.179491	-0.399556
C51	C	-1.065127	-0.124711	-0.449814
C52	C	-1.010376	-0.069932	-0.399577
C53	C	-1.174624	-0.234262	-0.449800
C54	C	-1.174638	-0.234263	-0.550302
C55	C	-1.119893	-0.179487	-0.600563
C56	C	-1.065138	-0.124707	-0.550319
C57	C	-1.010398	-0.069927	-0.600578
C58	C	-0.955638	-0.015151	-0.550336
C59	C	-0.955630	-0.015157	-0.449838
C60	C	-1.119901	-0.179481	-0.701061
C61	C	-1.010410	-0.069923	-0.701083
N62	N	-1.065161	-0.124702	0.248680
H63	H	-0.680397	0.104764	-0.000053
O64	O	-0.630085	-0.379386	-0.000064
H65	H	-0.672419	-0.384140	0.065014
O66	O	-0.434631	-0.375650	-0.000057
H67	H	-0.475721	-0.433675	-0.000039
O68	O	-0.814183	0.244778	-0.000049
H69	H	-0.756155	0.285864	-0.000052
H70	H	-0.911049	0.029440	-0.408922
O71	O	-0.500169	0.129952	-0.000070
H72	H	-0.425092	0.117547	-0.000064
O73	O	-0.348470	0.050520	-0.000079
H74	H	-0.273392	0.038124	-0.000081
H75	H	-1.297860	0.319944	-0.000082
O76	O	-0.951380	-0.010816	-0.755276
H77	H	-0.879347	-0.030290	-0.736002
O78	O	-1.240352	0.158617	-0.000060
H79	H	-1.279379	0.181767	-0.065136
O80	O	-1.178965	-0.238552	-0.755241
H81	H	-1.227368	-0.195408	-0.801008
O82	O	-1.231270	0.636189	-0.000092
H83	H	-1.216081	0.707690	-0.000092
H84	H	-0.965777	-0.025342	-0.258161
O85	O	-0.304220	-0.290849	-0.000071
H86	H	-0.345312	-0.348873	-0.000064
O87	O	-1.178890	-0.238579	-0.244860
H88	H	-1.169679	-0.229385	-0.166536
O89	O	-0.781804	-0.299934	-0.000054
H90	H	-0.725909	-0.356112	-0.000061
O91	O	-1.316066	0.505785	-0.000093
H92	H	-1.374091	0.464695	-0.000109
H93	H	-1.219197	-0.278854	-0.408872
H94	H	-0.911073	0.029454	-0.591270
H95	H	-0.920445	0.129618	-0.000043
O96	O	-1.233689	-0.293346	-0.604490
H97	H	-1.271745	-0.331442	-0.552657
H98	H	-0.832411	0.430643	-0.000044
H99	H	-0.810798	0.019971	-0.000050
H100	H	-0.911844	0.582344	-0.000055
