data_functionalizedCrystal
_audit_creation_method	'MofGen! by Chris Wilmer'
_symmetry_space_group_name_H-M	'P1'
_symmetry_Int_Tables_number	1
_symmetry_cell_setting	triclinic
loop_
_symmetry_equiv_pos_as_xyz
  x,y,z
_cell_length_a	12.759401
_cell_length_b	12.759393
_cell_length_c	12.759400
_cell_angle_alpha	89.969821
_cell_angle_beta	89.987641
_cell_angle_gamma	90.019322
loop_
_atom_site_label
_atom_site_type_symbol
_atom_site_fract_x
_atom_site_fract_y
_atom_site_fract_z
Zn1	Zn	-1.606257	-0.594015	-0.418263
Zn2	Zn	-1.606152	-0.418339	-0.593982
Zn3	Zn	-1.430559	-0.418351	-0.418311
Zn4	Zn	-1.430549	-0.593978	-0.593894
O5	O	-1.518379	-0.506171	-0.506112
O6	O	-1.753264	-0.570721	-0.441589
O7	O	-1.582820	-0.271319	-0.570735
O8	O	-1.453914	-0.441674	-0.271284
O9	O	-1.753187	-0.441653	-0.570689
O10	O	-1.582999	-0.570733	-0.271248
O11	O	-1.453813	-0.271329	-0.441671
O12	O	-1.283537	-0.441639	-0.441586
O13	O	-1.453896	-0.741004	-0.570539
O14	O	-1.283529	-0.570671	-0.570586
O15	O	-1.582989	-0.741031	-0.441504
O16	O	-1.582810	-0.441617	-0.740991
O17	O	-1.453795	-0.570658	-0.740927
C18	C	-1.245412	-0.506153	-0.506082
C19	C	-1.128635	-0.506170	-0.506095
C20	C	-1.073797	-0.573245	-0.573370
C21	C	-0.964073	-0.573255	-0.573379
C22	C	-0.964035	-0.439105	-0.438834
C23	C	-1.073758	-0.439102	-0.438821
C24	C	-1.128675	-0.640313	-0.640645
C25	C	-1.073836	-0.707393	-0.707927
C26	C	-0.964112	-0.707402	-0.707936
C27	C	-0.909226	-0.640333	-0.640663
C28	C	-0.792413	-0.506186	-0.506133
C29	C	-0.909189	-0.506183	-0.506117
C30	C	-1.518318	-0.506155	-0.779080
C31	C	-1.518388	-0.506184	-0.895856
C32	C	-1.518453	-0.780204	-0.506006
C33	C	-1.518484	-0.896981	-0.505961
C34	C	-1.585712	-0.951859	-0.438766
C35	C	-1.585737	-1.061583	-0.438728
C36	C	-1.451304	-1.061542	-0.573089
C37	C	-1.451274	-0.951820	-0.573121
C38	C	-1.652922	-0.897020	-0.371606
C39	C	-1.720156	-0.951898	-0.304406
C40	C	-1.720181	-1.061622	-0.304368
C41	C	-1.652972	-1.116468	-0.371530
C42	C	-1.518367	-0.233203	-0.506142
C43	C	-1.518539	-0.116427	-0.505891
C44	C	-1.451250	-0.573342	-1.060448
C45	C	-1.451193	-0.573324	-0.950724
C46	C	-1.585653	-0.439064	-0.950719
C47	C	-1.585715	-0.439088	-1.060441
C48	C	-1.384043	-0.640479	-1.115310
C49	C	-1.316779	-0.707600	-1.060455
C50	C	-1.316721	-0.707583	-0.950731
C51	C	-1.383928	-0.640444	-0.895862
C52	C	-1.518469	-0.506209	-0.232079
C53	C	-1.518508	-0.506225	-0.115302
H54	H	-0.919465	-0.762029	-0.762712
H55	H	-1.652986	-1.205813	-0.371481
H56	H	-1.118531	-0.762005	-0.762691
H57	H	-1.118408	-0.384491	-0.384031
H58	H	-1.652912	-0.807677	-0.371632
H59	H	-1.383882	-0.640442	-0.806517
O60	O	-0.904837	-0.366767	-0.366286
H61	H	-0.961404	-0.320130	-0.319494
H62	H	-1.396585	-1.106206	-0.627769
O63	O	-1.658146	-0.366661	-0.891546
H64	H	-1.646801	-0.377920	-0.806033
H65	H	-1.640485	-0.384439	-1.105104
O66	O	-1.244163	-0.779966	-0.891572
H67	H	-1.262128	-0.862446	-0.912565
H68	H	-1.774918	-1.106301	-0.249643
H69	H	-1.774868	-0.907235	-0.249719
H70	H	-1.396515	-0.907137	-0.627821
H71	H	-1.262069	-0.762269	-1.105137
O72	O	-1.247019	-0.640294	-0.640638
H73	H	-1.275969	-0.698200	-0.698715
H74	H	-1.384081	-0.640500	-1.204652
H75	H	-0.819882	-0.640355	-0.640666
