data_functionalizedCrystal
_audit_creation_method	'MofGen! by Chris Wilmer'
_symmetry_space_group_name_H-M	'P1'
_symmetry_Int_Tables_number	1
_symmetry_cell_setting	triclinic
loop_
_symmetry_equiv_pos_as_xyz
  x,y,z
_cell_length_a	12.645331
_cell_length_b	19.121063
_cell_length_c	12.645323
_cell_angle_alpha	92.408124
_cell_angle_beta	89.981990
_cell_angle_gamma	92.469212
loop_
_atom_site_label
_atom_site_type_symbol
_atom_site_fract_x
_atom_site_fract_y
_atom_site_fract_z
Zn1	Zn	1.602656	-0.279601	-0.617256
Zn2	Zn	1.594944	-0.397059	-0.447533
Zn3	Zn	1.425368	-0.279627	-0.440017
Zn4	Zn	1.417761	-0.397016	-0.624761
O5	O	1.510182	-0.338326	-0.532392
O6	O	1.749979	-0.295189	-0.594747
O7	O	1.572405	-0.381511	-0.298191
O8	O	1.455297	-0.181339	-0.457241
O9	O	1.744313	-0.381485	-0.470053
O10	O	1.585549	-0.181320	-0.587458
O11	O	1.447819	-0.295234	-0.292668
O12	O	1.276012	-0.295192	-0.464518
O13	O	1.442332	-0.381412	-0.772111
O14	O	1.270423	-0.381438	-0.600249
O15	O	1.578173	-0.295147	-0.766597
O16	O	1.565029	-0.495338	-0.477329
O17	O	1.434854	-0.495306	-0.607537
C18	C	1.234753	-0.338314	-0.532383
C19	C	1.116922	-0.338325	-0.532405
C20	C	1.068554	-0.392675	-0.617679
C21	C	0.945980	-0.392898	-0.617451
C22	C	0.947691	-0.358094	-0.421817
C23	C	1.070264	-0.358478	-0.422315
C24	C	1.076575	-0.264092	-0.556734
C25	C	0.953943	-0.264502	-0.559223
C26	C	1.498308	-0.520806	-0.544087
C27	C	1.493325	-0.598872	-0.549125
C28	C	1.558812	-0.635541	-0.483756
C29	C	1.554132	-0.708892	-0.488501
C30	C	1.483958	-0.745573	-0.558610
C31	C	1.418469	-0.708900	-0.623987
C32	C	1.423155	-0.635550	-0.619246
C33	C	1.466421	-0.967043	-0.576317
C34	C	1.461737	-1.040398	-0.581050
C35	C	1.597402	-1.040386	-0.445565
C36	C	1.602077	-0.967034	-0.440827
C37	C	1.536592	-0.930367	-0.506207
C38	C	1.479171	-0.820550	-0.563460
C39	C	1.541386	-0.855391	-0.501362
C40	C	1.786687	-0.338339	-0.532401
C41	C	1.904516	-0.338344	-0.532405
C42	C	1.510264	-0.338272	-0.808894
C43	C	1.510299	-0.338248	-0.926722
C44	C	1.522132	-0.155133	-0.520674
C45	C	1.527224	-0.077067	-0.515681
C46	C	1.424605	-0.392262	-1.097739
C47	C	1.424803	-0.392529	-0.975196
C48	C	1.620700	-0.358335	-0.972522
C49	C	1.620227	-0.358674	-1.095142
C50	C	1.486667	-0.263847	-1.089148
C51	C	1.484146	-0.264292	-0.966570
C52	C	1.510165	-0.338329	-0.256962
C53	C	1.510349	-0.338155	-0.139121
H54	H	1.108697	-0.246045	-0.635767
C55	C	1.341280	-0.749248	-0.701111
C56	C	1.254848	-0.799741	-0.658369
C57	C	1.177657	-0.840089	-0.735493
C58	C	1.186898	-0.829944	-0.855359
C59	C	1.273334	-0.779449	-0.898106
C60	C	1.350525	-0.739101	-0.820982
H61	H	1.248004	-0.807253	-0.569632
H62	H	1.113671	-0.877469	-0.703848
H63	H	1.129757	-0.859812	-0.912451
H64	H	1.280178	-0.771937	-0.986843
H65	H	1.414511	-0.701721	-0.852627
H66	H	1.095796	-0.447370	-0.602122
H67	H	1.549177	-0.223534	-1.115570
C68	C	1.618574	-0.815044	-0.424243
C69	C	1.575888	-0.764681	-0.337731
C70	C	1.653073	-0.724326	-0.260609
C71	C	1.772945	-0.734334	-0.269999
C72	C	1.815637	-0.784700	-0.356515
C73	C	1.738452	-0.825055	-0.433637
H74	H	1.487146	-0.757271	-0.330777
H75	H	1.621469	-0.687042	-0.196564
H76	H	1.830082	-0.704461	-0.212909
H77	H	1.904379	-0.792110	-0.363469
H78	H	1.770056	-0.862338	-0.497681
H79	H	1.407818	-0.245537	-1.118884
H80	H	1.342786	-0.379960	-0.944294
C81	C	1.709049	-0.306787	-0.929851
C82	C	1.776496	-0.263567	-1.007108
C83	C	1.864845	-0.212019	-0.964437
C84	C	1.885747	-0.203692	-0.844510
C85	C	1.818298	-0.246913	-0.767245
C86	C	1.729949	-0.298461	-0.809916
H87	H	1.761025	-0.269730	-1.095892
H88	H	1.914775	-0.180024	-1.021634
H89	H	1.951148	-0.165533	-0.812922
H90	H	1.833769	-0.240750	-0.678461
H91	H	1.680019	-0.330456	-0.752719
C92	C	1.669440	-1.080722	-0.373660
C93	C	1.620328	-1.131215	-0.293655
C94	C	1.692372	-1.171551	-0.221749
C95	C	1.813530	-1.161393	-0.229848
C96	C	1.862648	-1.110898	-0.309856
C97	C	1.790604	-1.070562	-0.381762
H98	H	1.530634	-1.138736	-0.287657
H99	H	1.656011	-1.208931	-0.162522
H100	H	1.866861	-1.191252	-0.176618
H101	H	1.952342	-1.103376	-0.315854
H102	H	1.826965	-1.033181	-0.440989
H103	H	1.440046	-0.447617	-0.949415
H104	H	1.422033	-0.850424	-0.620541
C105	C	1.109487	-0.376226	-0.729006
C106	C	1.187335	-0.313243	-0.743853
C107	C	1.228275	-0.296793	-0.855183
C108	C	1.191367	-0.343325	-0.951666
C109	C	1.113514	-0.406312	-0.936823
C110	C	1.072574	-0.422762	-0.825493
H111	H	1.214661	-0.278794	-0.672427
H112	H	1.285907	-0.250165	-0.866170
H113	H	1.221674	-0.331147	-1.034080
H114	H	1.086189	-0.440761	-1.008249
H115	H	1.014942	-0.469389	-0.814505
H116	H	1.413098	-0.937194	-0.629550
C117	C	1.679267	-0.926693	-0.363697
C118	C	1.636581	-0.876340	-0.277171
C119	C	1.713766	-0.836000	-0.200031
C120	C	1.833637	-0.846014	-0.209417
C121	C	1.876329	-0.896369	-0.295946
C122	C	1.799144	-0.936708	-0.373086
H123	H	1.547841	-0.868925	-0.270219
H124	H	1.682162	-0.798724	-0.135976
H125	H	1.890773	-0.816152	-0.152313
H126	H	1.965069	-0.903783	-0.302898
H127	H	1.830748	-0.973984	-0.437141
C128	C	0.901496	-0.430591	-0.392676
C129	C	0.824654	-0.471930	-0.469025
C130	C	0.778461	-0.544428	-0.439891
C131	C	0.809112	-0.575588	-0.334409
C132	C	0.885958	-0.534248	-0.258053
C133	C	0.932150	-0.461750	-0.287187
H134	H	0.801961	-0.448864	-0.547116
H135	H	0.721574	-0.575030	-0.496416
H136	H	0.774917	-0.629255	-0.312842
H137	H	0.908651	-0.557314	-0.179962
H138	H	0.989037	-0.431148	-0.230663
H139	H	1.369830	-0.605695	-0.672478
H140	H	1.342335	-0.379813	-1.126420
H141	H	1.640860	-0.412994	-1.127237
H142	H	1.404606	-1.070262	-0.638160
C143	C	0.901507	-0.467215	-0.596141
C144	C	0.929387	-0.501804	-0.492534
C145	C	0.884917	-0.576125	-0.471220
C146	C	0.812565	-0.615856	-0.553513
C147	C	0.784681	-0.581268	-0.657127
C148	C	0.829151	-0.506947	-0.678441
H149	H	0.982950	-0.472392	-0.431609
H150	H	0.905559	-0.601729	-0.394518
H151	H	0.779646	-0.670873	-0.537736
H152	H	0.731119	-0.610680	-0.718052
H153	H	0.808509	-0.481342	-0.755143
H154	H	1.095321	-0.412732	-0.401207
H155	H	1.108201	-0.223602	-0.494573
C156	C	1.444971	-0.466219	-1.144111
C157	C	1.539042	-0.477647	-1.219316
C158	C	1.559412	-0.551604	-1.265690
C159	C	1.485711	-0.614133	-1.236858
C160	C	1.391635	-0.602707	-1.161650
C161	C	1.371265	-0.528750	-1.115276
H162	H	1.593605	-0.431358	-1.240662
H163	H	1.629054	-0.560062	-1.321364
H164	H	1.500791	-0.668880	-1.271187
H165	H	1.337072	-0.648996	-1.140304
H166	H	1.301622	-0.520293	-1.059601
C167	C	1.562873	-0.206951	-0.921528
C168	C	1.573040	-0.193476	-0.800966
C169	C	1.651779	-0.136139	-0.755925
C170	C	1.720351	-0.092277	-0.831445
C171	C	1.710186	-0.105751	-0.952013
C172	C	1.631447	-0.163088	-0.997055
H173	H	1.522277	-0.225947	-0.745055
H174	H	1.659304	-0.126165	-0.666672
H175	H	1.778639	-0.049832	-0.798103
H176	H	1.760949	-0.073280	-1.007924
H177	H	1.623922	-0.173062	-1.086308
C178	C	1.649187	-0.430951	-0.935734
C179	C	1.572474	-0.472085	-0.864199
C180	C	1.600953	-0.544703	-0.827414
C181	C	1.706147	-0.576189	-0.862164
C182	C	1.782867	-0.535055	-0.933703
C183	C	1.754387	-0.462437	-0.970488
H184	H	1.494597	-0.448777	-0.838471
H185	H	1.544160	-0.575153	-0.774455
H186	H	1.727229	-0.629945	-0.834933
H187	H	1.860743	-0.558362	-0.959430
H188	H	1.811181	-0.431987	-1.023446
C189	C	1.374423	-0.243824	-0.925952
C190	C	1.352938	-0.237558	-0.806127
C191	C	1.243215	-0.217094	-0.765501
C192	C	1.154977	-0.202895	-0.844700
C193	C	1.176459	-0.209160	-0.964533
C194	C	1.286183	-0.229625	-1.005159
H195	H	1.418260	-0.248070	-0.747492
H196	H	1.227313	-0.212456	-0.676792
H197	H	1.073753	-0.187746	-0.814626
H198	H	1.111138	-0.198649	-1.023168
H199	H	1.302085	-0.234262	-1.093868
H200	H	1.102385	-0.320584	-0.356856
C201	C	0.906447	-0.376255	-0.728408
C202	C	0.986452	-0.362667	-0.817844
C203	C	0.946926	-0.346027	-0.928807
C204	C	0.827394	-0.342975	-0.950335
C205	C	0.747381	-0.356564	-0.860896
C206	C	0.786908	-0.373204	-0.749933
H207	H	1.074943	-0.364926	-0.801910
H208	H	1.006157	-0.335968	-0.995015
H209	H	0.798134	-0.330657	-1.032476
H210	H	0.658890	-0.354305	-0.876830
H211	H	0.727676	-0.383263	-0.683725
H212	H	0.925858	-0.249603	-0.640587
H213	H	0.921028	-0.319724	-0.356744
H214	H	0.926075	-0.221872	-0.501308
H215	H	1.615950	-0.605680	-0.426661
H216	H	1.607457	-0.738745	-0.435270
H217	H	1.686021	-0.320975	-1.122396
