data_functionalizedCrystal
_audit_creation_method	'MofGen! by Chris Wilmer'
_symmetry_space_group_name_H-M	'P1'
_symmetry_Int_Tables_number	1
_symmetry_cell_setting	triclinic
loop_
_symmetry_equiv_pos_as_xyz
  x,y,z
_cell_length_a	10.654550
_cell_length_b	11.026607
_cell_length_c	9.730223
_cell_angle_alpha	89.999947
_cell_angle_beta	89.996251
_cell_angle_gamma	96.535460
loop_
_atom_site_label
_atom_site_type_symbol
_atom_site_fract_x
_atom_site_fract_y
_atom_site_fract_z
O1	O	1.704901	0.170762	-0.114401
O2	O	1.342954	0.187032	-0.114379
O3	O	1.493930	0.001991	-0.114383
O4	O	1.553926	0.355802	-0.114397
O5	O	1.493929	0.001996	0.114196
O6	O	1.342953	0.187036	0.114201
O7	O	1.704900	0.170767	0.114179
Zn8	Zn	1.523926	0.178902	0.150482
Zn9	Zn	1.523928	0.178896	-0.150682
O10	O	1.553924	0.355807	0.114183
C11	C	1.295897	0.185839	-0.000086
C12	C	1.155677	0.182265	-0.000078
C13	C	1.099841	0.291214	-0.000102
C14	C	0.968090	0.287849	-0.000126
C15	C	0.948022	0.066576	-0.000107
C16	C	1.079771	0.069943	-0.000073
C17	C	1.111426	0.418964	-0.000119
C18	C	0.979675	0.415599	-0.000143
C19	C	1.482861	-0.043310	-0.000094
C20	C	1.449867	-0.178302	-0.000097
C21	C	1.540970	-0.251341	-0.000105
C22	C	1.506871	-0.390862	-0.000108
C23	C	1.751958	0.171959	-0.000117
C24	C	1.892177	0.175533	-0.000135
C25	C	1.564993	0.401109	-0.000109
C26	C	1.597988	0.536100	-0.000115
N27	N	1.523934	0.178906	0.356018
N28	N	1.523928	0.178883	-0.356219
C29	C	1.590814	0.096998	0.427942
C30	C	1.590808	0.096983	0.571825
C31	C	1.457040	0.260795	0.571847
C32	C	1.457040	0.260803	0.427967
C33	C	1.668049	0.002426	0.427931
C34	C	1.668043	0.002411	0.571814
H35	H	1.151603	0.468929	0.095545
O36	O	1.164309	0.467572	-0.117906
C37	C	1.128703	0.555294	-0.339365
C38	C	1.068650	0.500302	-0.206026
H39	H	1.051389	0.581748	-0.410658
H40	H	1.196560	0.639796	-0.313751
H41	H	1.182626	0.484959	-0.392439
H42	H	1.014662	0.570546	-0.152886
H43	H	1.000863	0.415776	-0.231729
H44	H	1.403623	-0.431617	-0.000111
O45	O	0.935390	0.461747	0.117638
C46	C	0.987121	0.551745	0.339072
C47	C	1.037449	0.499547	0.205745
H48	H	1.069607	0.582297	0.410355
H49	H	0.934311	0.633158	0.313437
H50	H	0.920162	0.478332	0.392167
H51	H	1.104456	0.572873	0.152585
H52	H	1.090184	0.418106	0.231469
O53	O	1.326679	-0.226858	-0.000337
C54	C	1.126831	-0.242727	-0.118707
C55	C	1.266325	-0.187685	-0.118622
H56	H	1.077988	-0.211056	-0.214315
H57	H	1.121199	-0.346595	-0.118801
H58	H	1.078014	-0.211210	-0.022999
H59	H	1.315229	-0.219108	-0.214313
H60	H	1.271866	-0.083824	-0.118456
H61	H	0.948391	0.463731	-0.095812
O62	O	1.788500	0.027411	0.618566
C63	C	1.934858	0.162639	0.751793
C64	C	1.798396	0.134454	0.698970
H65	H	1.942910	0.249198	0.816787
H66	H	1.960518	0.083144	0.816955
H67	H	2.002200	0.176482	0.660646
H68	H	1.730962	0.120636	0.790034
H69	H	1.772841	0.213964	0.633766
H70	H	1.644212	-0.210581	-0.000103
O71	O	1.721101	-0.415092	-0.000063
C72	C	1.867336	-0.231531	-0.000159
C73	C	1.727865	-0.286643	-0.000184
H74	H	1.872851	-0.127672	-0.000286
H75	H	1.916239	-0.262986	0.095520
H76	H	1.916179	-0.263148	-0.095801
H77	H	1.678914	-0.255051	0.095393
H78	H	1.679057	-0.255192	-0.095926
O79	O	1.618045	-0.109008	0.381408
C80	C	1.436668	-0.260960	0.377125
C81	C	1.493134	-0.134737	0.429873
H82	H	1.335679	-0.281812	0.416311
H83	H	1.436560	-0.261010	0.259960
H84	H	1.496010	-0.333546	0.416133
H85	H	1.433840	-0.062080	0.390966
H86	H	1.493265	-0.134789	0.547037
H87	H	1.125227	-0.018774	-0.000034
O88	O	1.392153	0.340515	0.641588
C89	C	1.366230	0.551258	0.685694
C90	C	1.439798	0.461109	0.606610
H91	H	1.404740	0.648778	0.657466
H92	H	1.261864	0.534605	0.657376
H93	H	1.377679	0.537121	0.800878
H94	H	1.428453	0.475193	0.491408
H95	H	1.544135	0.477784	0.635042
O96	O	1.784590	0.037720	0.374898
C97	C	2.003549	0.104209	0.422635
C98	C	1.871643	0.064229	0.482878
H99	H	2.073962	0.125677	0.509908
H100	H	2.034590	0.027499	0.356734
H101	H	1.999722	0.189140	0.356648
H102	H	1.875367	-0.020675	0.548928
H103	H	1.840653	0.141012	0.548702
O104	O	1.608967	-0.102946	0.625239
C105	C	1.627757	-0.279111	0.767072
C106	C	1.694799	-0.159819	0.706671
H107	H	1.697130	-0.325140	0.832899
H108	H	1.544673	-0.257726	0.833120
H109	H	1.591848	-0.342828	0.679819
H110	H	1.730788	-0.096046	0.793836
H111	H	1.777824	-0.181296	0.640586
H112	H	0.886203	-0.024874	-0.000124
H113	H	1.402568	0.327488	0.369407
