data_functionalizedCrystal
_audit_creation_method	'MofGen! by Chris Wilmer'
_symmetry_space_group_name_H-M	'P1'
_symmetry_Int_Tables_number	1
_symmetry_cell_setting	triclinic
loop_
_symmetry_equiv_pos_as_xyz
  x,y,z
_cell_length_a	14.519709
_cell_length_b	13.339070
_cell_length_c	11.804783
_cell_angle_alpha	99.452288
_cell_angle_beta	103.266644
_cell_angle_gamma	99.654720
loop_
_atom_site_label
_atom_site_type_symbol
_atom_site_fract_x
_atom_site_fract_y
_atom_site_fract_z
O1	O	-1.236361	-0.114420	0.098859
O2	O	-0.971851	-0.130037	0.098895
O3	O	-1.073749	0.025090	0.098878
O4	O	-1.134462	-0.269547	0.098876
O5	O	-1.116316	-0.011467	-0.099168
O6	O	-1.014418	-0.166594	-0.099151
O7	O	-1.278928	-0.150977	-0.099186
Cu8	Cu	-1.150560	-0.162124	-0.117252
Cu9	Cu	-1.100219	-0.118890	0.116960
O10	O	-1.177029	-0.306104	-0.099169
C11	C	-0.958588	-0.147587	-0.000123
C12	C	-0.855649	-0.145402	-0.000110
C13	C	-1.084777	0.044520	-0.000142
C14	C	-1.054205	0.156879	-0.000133
C15	C	-1.292190	-0.133427	-0.000166
C16	C	-1.395127	-0.135610	-0.000172
C17	C	-0.478722	-0.137379	-0.000164
C18	C	-0.583594	-0.139607	-0.000148
C19	C	-0.667182	-0.141390	-0.000136
C20	C	-0.772061	-0.143619	-0.000122
C21	C	-1.166002	-0.325533	-0.000147
C22	C	-1.196571	-0.437891	-0.000148
N23	N	-1.185973	-0.192531	-0.281984
C24	C	-1.291904	0.521235	-0.000166
C25	C	-1.320631	0.415668	-0.000181
C26	C	-1.254027	0.350966	-0.000169
C27	C	-1.158691	0.391841	-0.000142
C28	C	-1.129962	0.497417	-0.000136
C29	C	-1.092086	0.327147	-0.000139
C30	C	-0.996749	0.368022	-0.000113
C31	C	-0.968026	0.473588	-0.000106
C32	C	-1.034630	0.538291	-0.000118
C33	C	-1.120814	0.221571	-0.000145
C34	C	-0.958873	0.197752	-0.000115
C35	C	-0.930145	0.303320	-0.000100
C36	C	-0.979736	-0.015448	-0.655982
C37	C	-0.952927	0.007562	-0.531327
C38	C	-1.011186	-0.042460	-0.468985
C39	C	-1.096259	-0.115494	-0.531311
C40	C	-1.123075	-0.138500	-0.655978
C41	C	-1.154525	-0.165512	-0.468981
C42	C	-1.239598	-0.238546	-0.531306
C43	C	-1.266410	-0.261549	-0.655961
C44	C	-1.208150	-0.211527	-0.718303
C45	C	-1.127709	-0.142506	-0.344314
C46	C	-1.271048	-0.265558	-0.344309
C47	C	-1.297858	-0.288568	-0.468964
N48	N	-1.064811	-0.088475	0.281692
H49	H	-1.198438	0.188301	-0.000167
C50	C	-0.859321	0.087838	-0.462772
H51	H	-0.851689	0.094367	-0.379602
H52	H	-0.805420	0.065371	-0.483240
H53	H	-0.863102	0.153298	-0.483169
C54	C	-1.034126	-0.062193	-0.275764
H55	H	-1.026497	-0.055650	-0.192592
H56	H	-0.980205	-0.084623	-0.296214
H57	H	-1.037946	0.003253	-0.296183
H58	H	-1.277423	0.265008	-0.000181
C59	C	-0.885600	0.126595	-0.000101
H60	H	-0.824711	0.166055	-0.000102
H61	H	-0.878597	0.097662	0.068959
H62	H	-0.908287	0.072171	-0.069175
H63	H	-1.398254	0.382395	-0.000204
H64	H	-0.989352	-0.023722	-0.367485
H65	H	-1.367126	-0.348034	-0.519727
H66	H	-0.932315	0.025278	-0.706753
H67	H	-1.346124	0.573923	-0.000186
C68	C	-1.359990	-0.341878	-0.724517
H69	H	-1.390844	-0.368382	-0.669539
H70	H	-1.402307	-0.309483	-0.773140
H71	H	-1.344546	-0.397342	-0.773153
H72	H	-1.229972	-0.230263	-0.819808
C73	C	-1.003033	0.654415	-0.000109
H74	H	-1.056356	0.687090	-0.000123
H75	H	-0.951786	0.686646	0.068958
H76	H	-0.981480	0.661149	-0.069177
C77	C	-0.863161	0.518547	-0.000086
H78	H	-0.827605	0.464899	-0.000070
H79	H	-0.863430	0.546490	-0.069145
H80	H	-0.833748	0.571982	0.068989
C81	C	-0.825280	0.348285	-0.000073
H82	H	-0.789721	0.294640	-0.000056
H83	H	-0.825546	0.376232	-0.069128
H84	H	-0.795873	0.401717	0.069006
H85	H	-1.318489	-0.306290	-0.293551
