data_functionalizedCrystal
_audit_creation_method	'MofGen! by Chris Wilmer'
_symmetry_space_group_name_H-M	'P1'
_symmetry_Int_Tables_number	1
_symmetry_cell_setting	triclinic
loop_
_symmetry_equiv_pos_as_xyz
  x,y,z
_cell_length_a	13.262522
_cell_length_b	12.376457
_cell_length_c	16.109304
_cell_angle_alpha	78.724106
_cell_angle_beta	83.966799
_cell_angle_gamma	116.829903
loop_
_atom_site_label
_atom_site_type_symbol
_atom_site_fract_x
_atom_site_fract_y
_atom_site_fract_z
O1	O	1.512360	0.558954	0.017634
O2	O	1.185230	0.458384	0.046787
O3	O	1.357780	0.511432	-0.089256
O4	O	1.339810	0.505906	0.153677
O5	O	1.314658	0.310162	-0.055289
O6	O	1.142108	0.257114	0.080753
O7	O	1.469237	0.357684	0.051601
Zn8	Zn	1.298826	0.275443	0.071570
Zn9	Zn	1.355641	0.540624	0.026818
O10	O	1.296688	0.304636	0.187643
C11	C	1.121809	0.344880	0.065260
C12	C	0.997078	0.306534	0.069690
C13	C	0.914980	0.178800	0.090288
C14	C	0.797788	0.142763	0.094444
C15	C	0.762683	0.234455	0.078007
C16	C	0.844781	0.362191	0.057414
C17	C	0.961985	0.398232	0.053252
C18	C	0.809689	0.453887	0.040971
C19	C	0.891787	0.581623	0.020378
C20	C	1.008978	0.617658	0.016217
C21	C	1.044084	0.525966	0.032653
C22	C	0.692485	0.417846	0.045134
C23	C	0.739490	0.637278	0.008097
C24	C	0.856681	0.673316	0.003942
N25	N	1.260060	0.094467	0.102111
C26	C	1.484407	-0.191546	-0.074643
C27	C	1.511533	-0.064866	-0.096019
C28	C	1.448667	-0.025027	-0.046489
C29	C	1.358670	-0.111879	0.024422
C30	C	1.331547	-0.238569	0.045804
C31	C	1.295807	-0.072050	0.073959
C32	C	1.205810	-0.158903	0.144869
C33	C	1.178690	-0.285580	0.166247
C34	C	1.241557	-0.325420	0.116716
C35	C	1.322930	0.054640	0.052577
C36	C	1.170070	0.007616	0.173024
C37	C	1.142943	-0.119063	0.194400
C38	C	1.532659	0.471191	0.033127
C39	C	1.657392	0.509545	0.028696
C40	C	1.335491	0.410576	-0.103213
C41	C	1.333309	0.409912	-0.195403
N42	N	1.394417	0.721604	-0.003731
C43	C	1.351768	0.518069	-0.426011
C44	C	1.349705	0.517434	-0.512631
C45	C	1.302697	0.298000	-0.475596
C46	C	1.304752	0.298634	-0.388976
C47	C	1.329294	0.408674	-0.364188
C48	C	1.325176	0.407405	-0.537427
C49	C	1.322940	0.406715	-0.631344
C50	C	1.331528	0.409363	-0.270264
C51	C	1.318977	0.405495	0.201600
C52	C	1.321161	0.406166	0.293789
H53	H	0.923542	0.777320	-0.012825
O54	O	1.280509	0.180633	-0.322291
H55	H	1.286048	0.199560	-0.257893
O56	O	1.212302	-0.462057	0.139782
H57	H	1.271142	-0.475160	0.093428
H58	H	1.118880	0.040052	0.213358
H59	H	1.069666	-0.189794	0.252137
O60	O	1.081644	-0.379272	0.242736
H61	H	1.116597	-0.422419	0.290592
H62	H	1.396206	0.125345	-0.005159
H63	H	1.535590	-0.223992	-0.114961
H64	H	0.625650	0.313842	0.061908
H65	H	1.584809	0.005845	-0.153753
O66	O	1.373921	0.635422	-0.579303
H67	H	1.462121	0.711696	-0.582705
H68	H	1.470757	0.078123	-0.063896
H69	H	1.371748	0.607669	-0.405831
H70	H	0.667259	0.205106	0.081393
H71	H	0.730954	0.038761	0.111199
O72	O	1.276260	0.179334	-0.502346
H73	H	1.197675	0.150263	-0.529802
O74	O	0.952839	0.079911	0.108017
H75	H	1.048125	0.126435	0.101667
O76	O	0.701646	0.736190	-0.009627
H77	H	0.606357	0.689670	-0.003263
H78	H	1.139508	0.555301	0.029274
H79	H	1.075824	0.721670	-0.000562
