data_functionalizedCrystal
_audit_creation_method	'MofGen! by Chris Wilmer'
_symmetry_space_group_name_H-M	'P1'
_symmetry_Int_Tables_number	1
_symmetry_cell_setting	triclinic
loop_
_symmetry_equiv_pos_as_xyz
  x,y,z
_cell_length_a	16.625546
_cell_length_b	12.759401
_cell_length_c	12.759393
_cell_angle_alpha	90.019322
_cell_angle_beta	89.963806
_cell_angle_gamma	89.979618
loop_
_atom_site_label
_atom_site_type_symbol
_atom_site_fract_x
_atom_site_fract_y
_atom_site_fract_z
Zn1	Zn	-0.320999	-1.606199	-0.593971
Zn2	Zn	-0.455856	-1.606069	-0.418277
Zn3	Zn	-0.321036	-1.430501	-0.418308
Zn4	Zn	-0.455788	-1.430465	-0.593916
O5	O	-0.388420	-1.518308	-0.506118
O6	O	-0.338901	-1.753202	-0.570675
O7	O	-0.438015	-1.582740	-0.271260
O8	O	-0.208199	-1.453876	-0.441646
O9	O	-0.437979	-1.753107	-0.441593
O10	O	-0.208171	-1.582961	-0.570705
O11	O	-0.338964	-1.453751	-0.271282
O12	O	-0.338898	-1.283475	-0.441592
O13	O	-0.437865	-1.453816	-0.740944
O14	O	-0.437900	-1.283449	-0.570611
O15	O	-0.338835	-1.582927	-0.740984
O16	O	-0.568679	-1.582706	-0.441539
O17	O	-0.568630	-1.453691	-0.570581
C18	C	-0.388397	-1.245341	-0.506099
C19	C	-0.388406	-1.128564	-0.506117
C20	C	-0.440037	-1.073716	-0.573184
C21	C	-0.440044	-0.963992	-0.573194
C22	C	-0.336787	-0.963974	-0.439059
C23	C	-0.336776	-1.073696	-0.439055
C24	C	-0.491668	-1.128585	-0.640246
C25	C	-0.543304	-1.073737	-0.707318
C26	C	-0.543311	-0.964013	-0.707328
C27	C	-0.491681	-0.909137	-0.640265
C28	C	-0.597911	-1.518209	-0.506074
C29	C	-0.687532	-1.518263	-0.506090
C30	C	-1.015707	-1.518446	-0.506199
C31	C	-0.924399	-1.518392	-0.506172
C32	C	-0.851622	-1.518353	-0.506144
C33	C	-0.760308	-1.518301	-0.506118
C34	C	-0.178111	-1.518437	-0.506185
C35	C	-0.088490	-1.518492	-0.506213
C36	C	-0.388338	-1.518382	-0.780151
C37	C	-0.388304	-1.518413	-0.896928
C38	C	-0.388436	-0.792342	-0.506133
C39	C	-0.388423	-0.909118	-0.506130
C40	C	-0.336734	-1.585650	-0.951813
C41	C	-0.336705	-1.585675	-1.061537
C42	C	-0.439822	-1.451223	-1.061482
C43	C	-0.439846	-1.451194	-0.951759
C44	C	-0.285192	-1.652870	-0.896981
C45	C	-0.233619	-1.720113	-0.951866
C46	C	-0.233590	-1.720138	-1.061590
C47	C	-0.285133	-1.652920	-1.116429
C48	C	-0.388443	-1.518296	-0.233150
C49	C	-0.388250	-1.518468	-0.116374
H50	H	-0.585349	-0.919358	-0.761949
O51	O	-0.491809	-1.235169	-0.640233
C52	C	-0.569052	-1.271787	-0.613031
H53	H	-0.615517	-1.208548	-0.630873
H54	H	-0.583425	-1.345209	-0.660376
H55	H	-0.570674	-1.291216	-0.525851
H56	H	-0.294727	-1.118354	-0.384451
O57	O	-0.490006	-1.385990	-1.114633
C58	C	-0.570376	-1.408913	-1.087805
H59	H	-0.572067	-1.449276	-1.008140
H60	H	-0.606526	-1.333067	-1.084032
H61	H	-0.597524	-1.462932	-1.149548
H62	H	-0.285096	-1.652933	-1.205774
O63	O	-0.183589	-1.785547	-0.898714
C64	C	-0.201226	-1.890256	-0.925508
H65	H	-0.232201	-1.892435	-1.005163
H66	H	-0.143037	-1.937403	-0.929288
H67	H	-0.242700	-1.925601	-0.863743
H68	H	-0.481826	-1.396427	-0.907071
H69	H	-0.491684	-0.819792	-0.640288
O70	O	-0.593339	-1.127154	-0.772514
C71	C	-0.547490	-1.190646	-0.840493
H72	H	-0.486351	-1.207091	-0.803581
H73	H	-0.580340	-1.267797	-0.854489
H74	H	-0.538704	-1.148396	-0.918375
O75	O	-0.286722	-0.910508	-0.373942
C76	C	-0.297792	-0.801903	-0.388342
H77	H	-0.360048	-0.786916	-0.422612
H78	H	-0.292264	-0.760177	-0.309658
H79	H	-0.250016	-0.770795	-0.444396
H80	H	-0.191591	-1.774883	-1.106274
O81	O	-0.285091	-1.652945	-0.790396
C82	C	-0.228558	-1.726710	-0.753767
H83	H	-0.181434	-1.741473	-0.817015
H84	H	-0.197976	-1.695013	-0.680369
H85	H	-0.260547	-1.803290	-0.734295
