data_functionalizedCrystal
_audit_creation_method	'MofGen! by Chris Wilmer'
_symmetry_space_group_name_H-M	'P1'
_symmetry_Int_Tables_number	1
_symmetry_cell_setting	triclinic
loop_
_symmetry_equiv_pos_as_xyz
  x,y,z
_cell_length_a	11.792254
_cell_length_b	19.288840
_cell_length_c	18.366186
_cell_angle_alpha	89.983729
_cell_angle_beta	90.001772
_cell_angle_gamma	96.337693
loop_
_atom_site_label
_atom_site_type_symbol
_atom_site_fract_x
_atom_site_fract_y
_atom_site_fract_z
O1	O	-0.141446	0.922171	-0.060664
O2	O	0.358554	1.422171	0.439336
O3	O	-0.160575	0.720017	-0.060638
O4	O	0.339425	1.220017	0.439362
O5	O	0.014234	0.825995	-0.060655
O6	O	0.514234	1.325995	0.439345
O7	O	-0.316255	0.816193	-0.060647
O8	O	0.183745	1.316193	0.439353
O9	O	0.014243	0.825977	0.060444
O10	O	0.514243	1.325977	0.560444
O11	O	-0.160566	0.719999	0.060461
O12	O	0.339434	1.219999	0.560461
O13	O	-0.141437	0.922153	0.060435
O14	O	0.358563	1.422153	0.560435
Zn15	Zn	-0.151000	0.821073	0.079675
Zn16	Zn	0.349000	1.321073	0.579675
Zn17	Zn	-0.151012	0.821097	-0.079878
Zn18	Zn	0.348988	1.321097	0.420122
O19	O	-0.316246	0.816175	0.060452
O20	O	0.183754	1.316175	0.560452
C21	C	-0.159960	0.694128	-0.000085
C22	C	0.340040	1.194128	0.499915
C23	C	-0.158126	0.617013	-0.000076
C24	C	0.341874	1.117013	0.499924
C25	C	-0.157250	0.580814	-0.066089
C26	C	0.342750	1.080814	0.433911
C27	C	-0.155515	0.508358	-0.066098
C28	C	0.344485	1.008358	0.433902
C29	C	-0.154633	0.472104	-0.000090
C30	C	0.345367	0.972104	0.499910
C31	C	-0.155515	0.508311	0.065932
C32	C	0.344485	1.008311	0.565932
C33	C	-0.157262	0.580765	0.065939
C34	C	0.342738	1.080765	0.565939
C35	C	-0.085385	0.362373	0.050470
C36	C	0.414615	0.862373	0.550470
C37	C	-0.083631	0.289921	0.050460
C38	C	0.416369	0.789921	0.550460
C39	C	-0.149250	0.248630	-0.000109
C40	C	0.350750	0.748630	0.499891
C41	C	-0.216608	0.279801	-0.050680
C42	C	0.283392	0.779801	0.449320
C43	C	-0.218355	0.352256	-0.050673
C44	C	0.281645	0.852256	0.449327
C45	C	-0.152739	0.393539	-0.000090
C46	C	0.347261	0.893539	0.499910
C47	C	-0.146494	0.133865	-0.066136
C48	C	0.353506	0.633865	0.433864
C49	C	-0.144766	0.061406	-0.066143
C50	C	0.355234	0.561406	0.433857
C51	C	-0.144755	0.061362	0.065889
C52	C	0.355245	0.561362	0.565889
C53	C	-0.146495	0.133818	0.065893
C54	C	0.353505	0.633818	0.565893
C55	C	-0.147359	0.170066	-0.000121
C56	C	0.352641	0.670066	0.499879
C57	C	-0.358532	0.816802	-0.000097
C58	C	0.141468	1.316802	0.499903
C59	C	-0.484517	0.818650	-0.000095
C60	C	0.015483	1.318650	0.499905
C61	C	-0.586830	0.820151	-0.000099
C62	C	-0.086830	1.320151	0.499901
C63	C	-0.715188	0.822029	-0.000108
C64	C	-0.215188	1.322029	0.499892
C65	C	0.056520	0.825369	-0.000108
C66	C	0.556520	1.325369	0.499892
C67	C	0.182505	0.823521	-0.000115
C68	C	0.682505	1.323521	0.499885
C69	C	-0.142052	0.948042	-0.000120
C70	C	0.357948	1.448042	0.499880
C71	C	-0.143886	1.025157	-0.000134
C72	C	0.356114	1.525157	0.499866
N73	N	-0.150992	0.821062	0.188566
N74	N	0.349008	1.321062	0.688566
N75	N	-0.151011	0.821114	-0.188770
N76	N	0.348989	1.321114	0.311230
C77	C	-0.073624	0.868005	0.226659
C78	C	0.426376	1.368005	0.726659
C79	C	-0.073619	0.868009	0.302887
C80	C	0.426381	1.368009	0.802887
C81	C	-0.151001	0.821077	0.341019
C82	C	0.348999	1.321077	0.841019
C83	C	-0.228375	0.774126	0.302917
C84	C	0.271625	1.274126	0.802917
C85	C	-0.228370	0.774118	0.226691
C86	C	0.271630	1.274118	0.726691
C87	C	-0.254413	0.812370	0.461783
C88	C	0.245587	1.312370	0.961783
C89	C	-0.254419	0.812382	0.538008
C90	C	0.245581	1.312382	1.038008
C91	C	-0.151015	0.821097	0.576127
C92	C	0.348985	1.321097	1.076127
C93	C	-0.047601	0.829815	0.538011
C94	C	0.452399	1.329815	1.038011
C95	C	-0.047596	0.829807	0.461785
C96	C	0.452404	1.329807	0.961785
C97	C	-0.151014	0.821080	0.423674
C98	C	0.348986	1.321080	0.923674
C99	C	-0.073636	0.868047	0.696874
C100	C	0.426364	1.368047	1.196874
C101	C	-0.073629	0.868047	0.773104
C102	C	0.426371	1.368047	1.273104
C103	C	-0.228395	0.774167	0.773132
C104	C	0.271605	1.274167	1.273132
C105	C	-0.228391	0.774164	0.696904
C106	C	0.271609	1.274164	1.196904
C107	C	-0.151013	0.821108	0.658780
C108	C	0.348987	1.321108	1.158780
H109	H	-0.154803	0.478879	-0.119855
H110	H	0.345197	0.978879	0.380145
Br111	Br	-0.309768	0.394559	-0.119300
Br112	Br	0.190232	0.894559	0.380700
Br113	Br	0.092744	0.841630	0.410059
Br114	Br	0.592744	1.341630	0.910059
H115	H	-0.338625	0.805288	0.569035
H116	H	0.161375	1.305288	1.069035
H117	H	-0.147210	0.163378	-0.119890
H118	H	0.352790	0.663378	0.380110
H119	H	-0.010621	0.906271	0.804119
H120	H	0.489379	1.406271	1.304119
Br121	Br	-0.394763	0.800611	0.410057
Br122	Br	0.105237	1.300611	0.910057
H123	H	-0.291373	0.735891	0.195675
H124	H	0.208627	1.235891	0.695675
H125	H	-0.144059	0.031934	-0.119901
H126	H	0.355941	0.531934	0.380099
Br127	Br	-0.333402	0.710466	0.824876
Br128	Br	0.166598	1.210466	1.324876
H129	H	-0.291379	0.735912	0.333968
H130	H	0.208621	1.235912	0.833968
H131	H	-0.270046	0.246183	-0.091856
H132	H	0.229954	0.746183	0.408144
H133	H	0.036600	0.836911	0.569046
H134	H	0.536600	1.336911	1.069046
Br135	Br	-0.333398	0.710455	0.645201
Br136	Br	0.166602	1.210455	1.145201
Br137	Br	-0.143575	0.012167	0.155473
Br138	Br	0.356425	0.512167	0.655473
Br139	Br	-0.158425	0.630004	-0.155680
Br140	Br	0.341575	1.130004	0.344320
H141	H	-0.147201	0.163292	0.119649
H142	H	0.352799	0.663292	0.619649
Br143	Br	0.007754	0.247621	0.119106
Br144	Br	0.507754	0.747621	0.619106
H145	H	-0.031947	0.395987	0.091653
H146	H	0.468053	0.895987	0.591653
H147	H	-0.010615	0.906237	0.333908
H148	H	0.489385	1.406237	0.833908
H149	H	-0.154800	0.478788	0.119676
H150	H	0.345200	0.978788	0.619676
H151	H	-0.157977	0.610238	0.119697
H152	H	0.342023	1.110238	0.619697
H153	H	-0.010616	0.906227	0.195621
H154	H	0.489384	1.406227	0.695621
Br155	Br	0.031380	0.931754	0.645132
Br156	Br	0.531380	1.431754	1.145132
