data_functionalizedCrystal
_audit_creation_method	'MofGen! by Chris Wilmer'
_symmetry_space_group_name_H-M	'P1'
_symmetry_Int_Tables_number	1
_symmetry_cell_setting	triclinic
loop_
_symmetry_equiv_pos_as_xyz
  x,y,z
_cell_length_a	17.699104
_cell_length_b	17.038272
_cell_length_c	16.776229
_cell_angle_alpha	89.993292
_cell_angle_beta	89.991971
_cell_angle_gamma	87.201537
loop_
_atom_site_label
_atom_site_type_symbol
_atom_site_fract_x
_atom_site_fract_y
_atom_site_fract_z
O1	O	1.010615	0.098939	-0.066305
O2	O	0.791089	0.111784	-0.066304
O3	O	0.899547	-0.008452	-0.066298
O4	O	0.902157	0.219175	-0.066311
O5	O	0.899531	-0.008459	0.066278
O6	O	0.791073	0.111777	0.066273
O7	O	1.010599	0.098932	0.066271
Zn8	Zn	0.900834	0.105353	0.087321
Zn9	Zn	0.900855	0.105363	-0.087354
O10	O	0.902141	0.219167	0.066266
C11	C	0.762854	0.111317	-0.000015
C12	C	0.678744	0.109928	-0.000014
C13	C	0.158025	0.172670	-0.000026
C14	C	0.237055	0.173971	-0.000028
C15	C	0.281002	0.103388	-0.000024
C16	C	0.245915	0.031499	-0.000026
C17	C	0.166887	0.030200	-0.000029
C18	C	0.564628	0.036739	-0.000013
C19	C	0.643662	0.038045	-0.000008
C20	C	0.634796	0.180510	-0.000013
C21	C	0.555768	0.179211	-0.000016
C22	C	0.520688	0.107323	-0.000022
C23	C	0.434995	0.105914	-0.000021
C24	C	0.366694	0.104796	-0.000020
C25	C	0.897166	-0.037580	-0.000010
C26	C	0.890085	-0.124362	-0.000010
C27	C	0.955095	-0.174577	-0.000010
C28	C	0.948438	-0.256117	-0.000017
C29	C	0.876769	-0.287441	-0.000019
C30	C	0.811754	-0.237219	-0.000022
C31	C	0.818413	-0.155681	-0.000020
C32	C	0.853246	-0.533162	-0.000030
C33	C	0.846593	-0.614707	-0.000030
C34	C	0.983277	-0.633600	-0.000026
C35	C	0.989929	-0.552059	-0.000020
C36	C	0.924914	-0.501844	-0.000027
C37	C	0.869962	-0.370788	-0.000025
C38	C	0.931722	-0.418499	-0.000027
C39	C	1.038835	0.099398	-0.000019
C40	C	1.122944	0.100787	-0.000025
C41	C	0.904522	0.248296	-0.000024
C42	C	0.911603	0.335078	-0.000029
N43	N	0.900825	0.105346	0.206533
N44	N	0.900869	0.105364	-0.206565
C45	C	0.948867	0.052127	0.248252
C46	C	0.948871	0.052126	0.331704
C47	C	0.900836	0.105349	0.373436
C48	C	0.852789	0.158570	0.331710
C49	C	0.852781	0.158566	0.248260
C50	C	0.852817	0.158585	0.668257
C51	C	0.852830	0.158587	0.751714
C52	C	0.948907	0.052146	0.751702
C53	C	0.948900	0.052142	0.668252
C54	C	0.900850	0.105360	0.626534
C55	C	0.900845	0.105359	0.536045
C56	C	0.900845	0.105354	0.463922
H57	H	0.663367	0.239045	-0.000011
H58	H	0.536076	-0.021796	-0.000016
H59	H	0.122248	0.230147	-0.000023
H60	H	0.788229	-0.640207	-0.000018
O61	O	0.806123	0.210178	0.792341
C62	C	0.756744	0.168360	0.840619
H63	H	0.782958	0.107152	0.853120
H64	H	0.746878	0.201004	0.899302
H65	H	0.700468	0.163109	0.808478
H66	H	0.519989	0.236687	-0.000015
O67	O	0.755207	-0.106978	-0.000126
C68	C	0.712026	-0.121134	-0.068800
H69	H	0.726626	-0.183021	-0.091689
H70	H	0.649276	-0.115280	-0.053360
H71	H	0.725256	-0.076549	-0.116880
O72	O	0.806016	0.210190	0.372212
C73	C	0.730286	0.197580	0.351828
H74	H	0.725890	0.134989	0.328897
H75	H	0.692891	0.206617	0.406718
H76	H	0.710838	0.240937	0.303388
H77	H	0.987991	0.008791	0.365672
H78	H	0.679442	-0.019436	-0.000006
O79	O	1.001354	-0.388112	-0.000167
C80	C	1.041326	-0.413788	-0.068817
H81	H	0.999520	-0.430676	-0.116811
H82	H	1.076701	-0.364443	-0.091863
H83	H	1.080077	-0.467005	-0.053290
O84	O	0.806197	0.210373	0.207766
C85	C	0.823465	0.287749	0.228154
H86	H	0.884080	0.288060	0.251078
H87	H	0.817278	0.326990	0.173267
H88	H	0.783001	0.310764	0.276599
H89	H	0.281704	-0.025971	-0.000027
O90	O	0.790150	-0.484309	0.000074
C91	C	0.789892	-0.436598	0.068745
H92	H	0.850222	-0.432587	0.091637
H93	H	0.765652	-0.375260	0.053300
H94	H	0.753595	-0.463364	0.116826
O95	O	0.742094	-0.267551	0.000080
C96	C	0.702142	-0.241900	0.068751
H97	H	0.726406	-0.185388	0.091644
H98	H	0.639853	-0.230463	0.053305
H99	H	0.707859	-0.289107	0.116831
O100	O	0.995646	0.000408	0.792105
C101	C	1.038027	-0.046579	0.737376
H102	H	1.040942	-0.014524	0.677886
H103	H	1.097696	-0.058583	0.761475
H104	H	1.009715	-0.104622	0.728510
O105	O	0.132928	-0.039696	0.000007
C106	C	0.188661	-0.101716	-0.000008
H107	H	0.243692	-0.079910	0.025096
H108	H	0.168917	-0.151917	0.038479
H109	H	0.198441	-0.123474	-0.063612
H110	H	0.811609	-0.396301	-0.000025
H111	H	0.265614	0.232505	-0.000036
H112	H	1.013455	-0.149080	-0.000003
O113	O	1.011666	-0.304785	0.000024
C114	C	1.076349	-0.259653	0.000013
H115	H	1.061053	-0.198763	0.025113
H116	H	1.122214	-0.289824	0.038508
H117	H	1.098085	-0.253877	-0.063588
H118	H	1.036208	-0.674492	-0.000022
H119	H	1.048289	-0.526562	-0.000018
O120	O	0.995553	0.000351	0.207842
C121	C	1.037970	-0.046609	0.262564
H122	H	1.006891	-0.047450	0.322058
H123	H	1.045496	-0.109057	0.238462
H124	H	1.095820	-0.021293	0.271421
O125	O	0.995391	0.000295	0.627693
C126	C	0.951650	-0.047886	0.579551
H127	H	0.894498	-0.016572	0.566997
H128	H	0.982416	-0.060478	0.520888
H129	H	0.942665	-0.105568	0.611839
O130	O	0.806124	0.210359	0.627863
C131	C	0.763720	0.257321	0.682594
H132	H	0.794813	0.258167	0.742070
H133	H	0.756187	0.319768	0.658477
H134	H	0.705871	0.232005	0.691492
