data_functionalizedCrystal
_audit_creation_method	'MofGen! by Chris Wilmer'
_symmetry_space_group_name_H-M	'P1'
_symmetry_Int_Tables_number	1
_symmetry_cell_setting	triclinic
loop_
_symmetry_equiv_pos_as_xyz
  x,y,z
_cell_length_a	17.077404
_cell_length_b	17.077402
_cell_length_c	17.077396
_cell_angle_alpha	89.972568
_cell_angle_beta	90.018362
_cell_angle_gamma	89.977697
loop_
_atom_site_label
_atom_site_type_symbol
_atom_site_fract_x
_atom_site_fract_y
_atom_site_fract_z
Zn1	Zn	1.200047	0.312551	0.443825
Zn2	Zn	1.700047	0.812551	0.943825
Zn3	Zn	1.199950	0.443826	0.312561
Zn4	Zn	1.699950	0.943826	0.812561
Zn5	Zn	1.068779	0.312573	0.312575
Zn6	Zn	1.568779	0.812573	0.812575
Zn7	Zn	1.068743	0.443774	0.443787
Zn8	Zn	1.568743	0.943774	0.943787
O9	O	1.134380	0.378181	0.378187
O10	O	1.634380	0.878181	0.878187
O11	O	1.309881	0.329977	0.426422
O12	O	1.809881	0.829977	0.926422
O13	O	1.182525	0.426446	0.202716
O14	O	1.682525	0.926446	0.702716
O15	O	1.086247	0.202723	0.330007
O16	O	1.586247	0.702723	0.830007
O17	O	1.309810	0.426424	0.329983
O18	O	1.809810	0.926424	0.829983
O19	O	1.182689	0.202707	0.426436
O20	O	1.682689	0.702707	0.926436
O21	O	1.086153	0.330015	0.202726
O22	O	1.586153	0.830015	0.702726
O23	O	0.958927	0.329965	0.329971
O24	O	1.458927	0.829965	0.829971
O25	O	1.086186	0.426336	0.553639
O26	O	1.586186	0.926336	1.053639
O27	O	0.958901	0.426357	0.426372
O28	O	1.458901	0.926357	0.926372
O29	O	1.182654	0.329927	0.553667
O30	O	1.682654	0.829927	1.053667
O31	O	1.182490	0.553666	0.329947
O32	O	1.682490	1.053666	0.829947
O33	O	1.086093	0.553628	0.426358
O34	O	1.586093	1.053628	0.926358
C35	C	0.930432	0.378159	0.378169
C36	C	1.430432	0.878159	0.878169
C37	C	0.843182	0.378168	0.378180
C38	C	1.343182	0.878168	0.878180
C39	C	0.802229	0.328037	0.428473
C40	C	1.302229	0.828037	0.928473
C41	C	0.720249	0.328042	0.428476
C42	C	1.220249	0.828042	0.928476
C43	C	0.679223	0.378183	0.378191
C44	C	1.179223	0.878183	0.878191
C45	C	0.720181	0.428315	0.327893
C46	C	1.220181	0.928315	0.827893
C47	C	0.802160	0.428306	0.327886
C48	C	1.302160	0.928306	0.827886
C49	C	0.549311	0.428333	0.327913
C50	C	1.049311	0.928333	0.827913
C51	C	0.467326	0.428344	0.327920
C52	C	0.967326	0.928344	0.827920
C53	C	0.467400	0.328070	0.428503
C54	C	0.967400	0.828070	0.928503
C55	C	0.549379	0.328060	0.428496
C56	C	1.049379	0.828060	0.928496
C57	C	0.590332	0.378194	0.378199
C58	C	1.090332	0.878194	0.878199
C59	C	1.134299	0.582129	0.378164
C60	C	1.634299	1.082129	0.878164
C61	C	1.134336	0.669378	0.378180
C62	C	1.634336	1.169378	0.878180
C63	C	1.134427	0.378123	0.582931
C64	C	1.634427	0.878123	1.082931
C65	C	1.134447	0.378098	0.670181
C66	C	1.634447	0.878098	1.170181
C67	C	1.339124	0.378204	0.378205
C68	C	1.839124	0.878204	0.878205
C69	C	1.426374	0.378213	0.378213
C70	C	1.926374	0.878213	0.878213
C71	C	1.184580	0.710362	0.328035
C72	C	1.684580	1.210362	0.828035
C73	C	1.184617	0.792343	0.328058
C74	C	1.684617	1.292343	0.828058
C75	C	1.134404	0.833338	0.378224
C76	C	1.634404	1.333338	0.878224
C77	C	1.084157	0.792348	0.428375
C78	C	1.584157	1.292348	0.928375
C79	C	1.084126	0.710369	0.428355
C80	C	1.584126	1.210369	0.928355
C81	C	1.084226	0.963218	0.428412
C82	C	1.584226	1.463218	0.928412
C83	C	1.084256	1.045203	0.428431
C84	C	1.584256	1.545203	0.928431
C85	C	1.184717	1.045192	0.328115
C86	C	1.684717	1.545192	0.828115
C87	C	1.184685	0.963213	0.328095
C88	C	1.684685	1.463213	0.828095
C89	C	1.134437	0.922229	0.378245
C90	C	1.634437	1.422229	0.878245
C91	C	1.134476	1.173436	0.378237
C92	C	1.634476	1.673436	0.878237
C93	C	1.134501	1.086187	0.378285
C94	C	1.634501	1.586187	0.878285
C95	C	1.134378	0.378182	0.174239
C96	C	1.634378	0.878182	0.674239
C97	C	1.134509	0.377985	0.086990
C98	C	1.634509	0.877985	0.586990
C99	C	1.184680	0.327894	0.711187
C100	C	1.684680	0.827894	1.211187
C101	C	1.184690	0.327868	0.793167
C102	C	1.684690	0.827868	1.293167
C103	C	1.134470	0.378051	0.834141
C104	C	1.634470	0.878051	1.334141
C105	C	1.084231	0.428257	0.793129
C106	C	1.584231	0.928257	1.293129
C107	C	1.084219	0.428279	0.711150
C108	C	1.584219	0.928279	1.211150
C109	C	1.084263	0.428210	0.963999
C110	C	1.584263	0.928210	1.463999
C111	C	1.084277	0.428190	1.045984
C112	C	1.584277	0.928190	1.545984
C113	C	1.184734	0.327799	1.046017
C114	C	1.684734	0.827799	1.546017
C115	C	1.184721	0.327821	0.964038
C116	C	1.684721	0.827821	1.464038
C117	C	1.134484	0.378028	0.923032
C118	C	1.634484	0.878028	1.423032
H119	H	0.433925	0.469173	0.286974
H120	H	0.933925	0.969173	0.786974
Cl121	Cl	1.247822	0.264807	0.659686
Cl122	Cl	1.747822	0.764807	1.159686
Cl123	Cl	1.021122	1.096739	0.491489
Cl124	Cl	1.521122	1.596739	0.991489
H125	H	1.043213	0.677001	0.469190
H126	H	1.543213	1.177001	0.969190
H127	H	0.686771	0.469137	0.286946
H128	H	1.186771	0.969137	0.786946
H129	H	0.582780	0.287236	0.469447
H130	H	1.082780	0.787236	0.969447
H131	H	1.043306	0.469152	0.677764
H132	H	1.543306	0.969152	1.177764
H133	H	1.043342	0.469082	0.930615
H134	H	1.543342	0.969082	1.430615
Cl135	Cl	0.600793	0.491366	0.264686
Cl136	Cl	1.100793	0.991366	0.764686
Cl137	Cl	1.021057	0.911697	0.491461
Cl138	Cl	1.521057	1.411697	0.991461
Cl139	Cl	1.247877	0.264785	0.844714
Cl140	Cl	1.747877	0.764785	1.344714
H141	H	1.043277	0.825733	0.469224
H142	H	1.543277	1.325733	0.969224
H143	H	0.835503	0.469127	0.286932
H144	H	1.335503	0.969127	0.786932
H145	H	1.043381	0.469051	1.079342
H146	H	1.543381	0.969051	1.579342
Cl147	Cl	1.247861	0.264737	0.912529
Cl148	Cl	1.747861	0.764737	1.412529
Cl149	Cl	1.247704	0.658834	0.264960
Cl150	Cl	1.747704	1.158834	0.764960
H151	H	1.225530	0.825708	0.287224
H152	H	1.725530	1.325708	0.787224
H153	H	1.225633	1.078565	0.287283
H154	H	1.725633	1.578565	0.787283
Cl155	Cl	1.247810	0.911677	0.265028
Cl156	Cl	1.747810	1.411677	0.765028
Cl157	Cl	1.247891	0.264682	1.097566
Cl158	Cl	1.747891	0.764682	1.597566
H159	H	1.043339	0.469114	0.826496
H160	H	1.543339	0.969114	1.326496
Cl161	Cl	0.853797	0.265003	0.491696
Cl162	Cl	1.353797	0.765003	0.991696
H163	H	0.686909	0.287222	0.469431
H164	H	1.186909	0.787222	0.969431
Cl165	Cl	0.415917	0.265042	0.491731
Cl166	Cl	0.915917	0.765042	0.991731
