data_functionalizedCrystal
_audit_creation_method	'MofGen! by Chris Wilmer'
_symmetry_space_group_name_H-M	'P1'
_symmetry_Int_Tables_number	1
_symmetry_cell_setting	triclinic
loop_
_symmetry_equiv_pos_as_xyz
  x,y,z
_cell_length_a	14.971506
_cell_length_b	10.540539
_cell_length_c	14.048226
_cell_angle_alpha	89.995726
_cell_angle_beta	89.993237
_cell_angle_gamma	84.073940
loop_
_atom_site_label
_atom_site_type_symbol
_atom_site_fract_x
_atom_site_fract_y
_atom_site_fract_z
O1	O	1.187869	0.165545	-0.079163
O2	O	0.927582	0.185328	-0.079163
O3	O	1.063664	-0.009337	-0.079162
O4	O	1.051787	0.360210	-0.079164
O5	O	1.063647	-0.009348	0.079160
O6	O	0.927566	0.185317	0.079159
O7	O	1.187852	0.165534	0.079159
Zn8	Zn	1.057706	0.175423	0.104296
Zn9	Zn	1.057728	0.175439	-0.104300
O10	O	1.051771	0.360199	0.079157
C11	C	0.894245	0.184433	-0.000002
C12	C	0.794933	0.181768	-0.000002
C13	C	0.357238	0.285960	-0.000013
C14	C	0.450552	0.288454	-0.000017
C15	C	0.507128	0.174081	-0.000012
C16	C	0.470385	0.057206	-0.000012
C17	C	0.377072	0.054713	-0.000015
C18	C	0.664877	0.062410	-0.000004
C19	C	0.758196	0.064902	0.000000
C20	C	0.738357	0.296150	-0.000006
C21	C	0.645045	0.293658	-0.000009
C22	C	0.608308	0.176783	-0.000008
C23	C	1.062765	-0.056635	-0.000003
C24	C	1.060100	-0.197553	-0.000008
C25	C	0.957992	-0.379832	-0.000363
C26	C	0.960694	-0.233244	-0.000007
C27	C	1.107929	-0.259756	0.090402
C28	C	1.104537	-0.406262	0.090478
C29	C	1.106577	-0.406790	-0.089563
C30	C	1.107493	-0.259818	-0.090759
C31	C	1.221190	0.166429	-0.000004
C32	C	1.320501	0.169094	-0.000010
C33	C	1.052670	0.407497	-0.000004
C34	C	1.055334	0.548415	-0.000005
N35	N	1.057698	0.175412	0.246656
N36	N	1.057743	0.175440	-0.246660
C37	C	1.117974	0.089250	0.296475
C38	C	1.117980	0.089250	0.396132
C39	C	1.057714	0.175418	0.445970
C40	C	0.997431	0.261584	0.396144
C41	C	0.997421	0.261578	0.296488
C42	C	0.997457	0.261593	0.603858
C43	C	0.997467	0.261602	0.703521
C44	C	1.118016	0.089265	0.703503
C45	C	1.118006	0.089259	0.603847
C46	C	1.057724	0.175427	0.554028
H47	H	0.347163	-0.040451	-0.000015
H48	H	0.923058	-0.190213	-0.064816
N49	N	0.777963	0.422219	-0.000012
H50	H	0.816232	0.428409	0.058676
H51	H	0.816195	0.428343	-0.058742
H52	H	1.178378	-0.454823	-0.090171
H53	H	0.634970	-0.032762	-0.000008
H54	H	1.176028	-0.455035	0.094579
N55	N	1.061218	-0.205071	-0.179366
H56	H	1.037403	-0.275841	-0.217133
H57	H	1.009802	-0.140188	-0.160740
N58	N	0.905973	-0.417123	-0.086235
H59	H	0.937985	-0.394315	-0.146170
H60	H	0.901381	-0.512030	-0.084897
H61	H	0.480459	0.383617	-0.000027
N62	N	0.531397	-0.066160	-0.000006
H63	H	0.570566	-0.070282	-0.058692
H64	H	0.570485	-0.070206	0.058727
N65	N	0.906173	-0.419256	0.085033
H66	H	0.945478	-0.483393	0.123951
H67	H	0.887159	-0.341806	0.125332
N68	N	1.183003	-0.003678	0.550087
H69	H	1.222906	0.044930	0.508726
H70	H	1.221131	-0.058245	0.596826
N71	N	0.910485	-0.177357	0.085985
H72	H	0.846077	-0.197702	0.083205
H73	H	0.939779	-0.215162	0.145751
H74	H	1.167054	0.019088	0.255904
N75	N	0.584021	0.417013	0.000064
H76	H	0.621451	0.491431	0.000085
H77	H	0.544848	0.421077	-0.058605
N78	N	0.819220	-0.058453	0.000001
H79	H	0.781790	-0.132871	-0.000007
H80	H	0.858376	-0.062438	-0.058689
H81	H	1.167061	0.019089	0.436694
H82	H	1.069175	-0.434069	0.158060
H83	H	1.074691	-0.216787	0.157681
H84	H	0.948391	0.331767	0.744094
N85	N	1.183037	-0.003672	0.757228
H86	H	1.173898	0.009399	0.827922
H87	H	1.172138	-0.093752	0.739817
H88	H	1.180930	-0.238223	0.093763
N89	N	1.063976	-0.448101	-0.180333
H90	H	0.999439	-0.409440	-0.183321
H91	H	1.097962	-0.418369	-0.236838
N92	N	0.296210	0.409311	-0.000019
H93	H	0.257047	0.413422	0.058672
H94	H	0.333698	0.483662	-0.000058
H95	H	1.179969	-0.236411	-0.096218
H96	H	0.948366	0.331756	0.563299
H97	H	0.948356	0.331740	0.436727
N98	N	0.932405	0.354502	0.242750
H99	H	0.894228	0.409092	0.289442
H100	H	0.966994	0.410704	0.201385
