data_functionalizedCrystal
_audit_creation_method	'MofGen! by Chris Wilmer'
_symmetry_space_group_name_H-M	'P1'
_symmetry_Int_Tables_number	1
_symmetry_cell_setting	triclinic
loop_
_symmetry_equiv_pos_as_xyz
  x,y,z
_cell_length_a	16.994747
_cell_length_b	12.827893
_cell_length_c	12.827885
_cell_angle_alpha	90.019272
_cell_angle_beta	89.989521
_cell_angle_gamma	89.988972
loop_
_atom_site_label
_atom_site_type_symbol
_atom_site_fract_x
_atom_site_fract_y
_atom_site_fract_z
Zn1	Zn	0.313990	1.597701	0.590989
Zn2	Zn	0.445915	1.597608	0.416308
Zn3	Zn	0.314029	1.422943	0.416263
Zn4	Zn	0.445856	1.422941	0.591008
O5	O	0.379948	1.510298	0.503642
O6	O	0.331499	1.743925	0.567828
O7	O	0.428461	1.574400	0.270066
O8	O	0.203643	1.446164	0.439413
O9	O	0.428423	1.743857	0.439491
O10	O	0.203614	1.574558	0.567784
O11	O	0.331564	1.446074	0.270032
O12	O	0.331508	1.276706	0.439432
O13	O	0.428323	1.446161	0.737242
O14	O	0.428361	1.276705	0.567817
O15	O	0.331442	1.574557	0.737227
O16	O	0.556288	1.574399	0.439509
O17	O	0.556245	1.446072	0.567861
C18	C	0.379932	1.238788	0.503622
C19	C	0.379945	1.122635	0.503638
C20	C	0.427946	1.070878	0.567069
C21	C	0.427960	0.950827	0.567087
C22	C	0.584888	1.510238	0.503689
C23	C	0.674210	1.510245	0.503686
C24	C	0.174207	1.510364	0.503589
C25	C	0.084885	1.510397	0.503566
Zn26	Zn	0.945115	1.422972	0.416233
Zn27	Zn	0.945055	1.597748	0.590943
Zn28	Zn	0.813249	1.422977	0.590990
Zn29	Zn	0.813170	1.597627	0.416274
O30	O	0.879147	1.510331	0.503610
O31	O	1.055489	1.446205	0.439372
O32	O	0.927579	1.574616	0.737185
O33	O	0.830799	1.276740	0.567811
O34	O	1.055445	1.574612	0.567730
O35	O	0.927681	1.276737	0.439418
O36	O	0.830741	1.446212	0.737220
O37	O	0.702857	1.446096	0.567851
O38	O	0.830665	1.574407	0.270032
O39	O	0.702799	1.574411	0.439487
O40	O	0.927605	1.446089	0.270002
O41	O	0.927503	1.743968	0.567770
O42	O	0.830607	1.743879	0.439441
C43	C	0.379872	1.510369	0.776212
C44	C	0.379840	1.510400	0.892365
C45	C	0.379963	1.782868	0.503662
C46	C	0.379970	1.899022	0.503671
C47	C	0.379966	1.510288	0.232132
C48	C	0.379776	1.510460	0.115979
C49	C	0.331890	1.573941	0.944143
C50	C	0.331856	1.573974	1.064194
C51	C	0.879042	1.781841	0.503608
C52	C	0.879020	1.897994	0.503637
C53	C	0.879133	1.510234	0.231040
C54	C	0.879127	1.510193	0.114887
C55	C	0.879255	1.237761	0.503615
C56	C	0.879301	1.121608	0.503618
C57	C	0.879206	1.510353	0.775120
C58	C	0.879363	1.510103	0.891273
C59	C	0.926991	1.949788	0.567093
C60	C	0.926969	2.069838	0.567124
C61	C	0.927088	1.446685	0.063087
C62	C	0.927083	1.446641	-0.056963
H63	H	0.338857	1.078070	0.449351
H64	H	0.290862	1.628312	0.899595
C65	C	0.823490	2.061444	0.430297
N66	N	0.781696	2.016121	0.375013
H67	H	0.420832	1.456061	1.071458
H68	H	0.968147	1.392273	-0.101510
C69	C	0.823638	1.583568	-0.048557
N70	N	0.781850	1.638893	-0.003229
C71	C	0.982559	1.373262	0.123239
N72	N	1.024340	1.317956	0.168544
H73	H	0.420860	1.456017	0.936913
H74	H	0.469028	1.115443	0.621365
H75	H	0.838058	1.564527	0.070357
C76	C	0.982499	1.889629	0.640456
N77	N	1.024309	1.844319	0.695716
C78	C	0.483480	0.890699	0.640455
N79	N	0.525299	0.845407	0.695719
C80	C	0.276393	1.647466	1.124345
N81	N	0.234615	1.702820	1.169654
H82	H	0.338876	0.943525	0.449359
C83	C	0.982456	2.130009	0.640519
N84	N	1.024251	2.175332	0.695801
H85	H	0.837937	1.942528	0.449330
