data_functionalizedCrystal
_audit_creation_method	'MofGen! by Chris Wilmer'
_symmetry_space_group_name_H-M	'P1'
_symmetry_Int_Tables_number	1
_symmetry_cell_setting	triclinic
loop_
_symmetry_equiv_pos_as_xyz
  x,y,z
_cell_length_a	18.050582
_cell_length_b	10.685904
_cell_length_c	10.686203
_cell_angle_alpha	90.331100
_cell_angle_beta	94.382110
_cell_angle_gamma	85.610131
loop_
_atom_site_label
_atom_site_type_symbol
_atom_site_fract_x
_atom_site_fract_y
_atom_site_fract_z
Zn1	Zn	-0.492430	1.956247	0.352544
Zn2	Zn	-0.359526	1.972257	0.562312
Zn3	Zn	-0.358053	1.746479	0.368635
Zn4	Zn	-0.473479	1.762547	0.578327
O5	O	-0.420872	1.859383	0.465455
O6	O	-0.483347	2.133924	0.366934
O7	O	-0.255403	1.942283	0.536652
O8	O	-0.383193	1.760881	0.190956
O9	O	-0.385703	2.145686	0.521050
O10	O	-0.481919	1.914996	0.179134
O11	O	-0.254321	1.776405	0.394359
O12	O	-0.364818	1.573058	0.409888
O13	O	-0.579920	1.788266	0.548345
O14	O	-0.449621	1.584863	0.563948
O15	O	-0.593843	1.930576	0.382463
O16	O	-0.367327	1.957863	0.739982
O17	O	-0.451048	1.803790	0.751748
C18	C	-0.405003	1.533441	0.490403
C19	C	-0.398231	1.394004	0.501106
C20	C	-0.614582	1.859427	0.465395
C21	C	-0.697130	1.859447	0.465370
C22	C	-0.889018	1.782113	0.555457
C23	C	-0.942701	1.898930	0.577351
C24	C	-0.848268	1.859501	0.465270
C25	C	-0.941670	1.742745	0.443336
C26	C	-0.994259	1.859544	0.465176
C27	C	-0.900865	1.976382	0.487219
C28	C	-0.899827	1.820116	0.353157
C29	C	-0.953495	1.937008	0.375001
C30	C	-0.764166	1.859475	0.465327
C31	C	-1.078360	1.859583	0.465117
C32	C	-0.227922	1.859403	0.465418
C33	C	-0.145402	1.859600	0.465071
C34	C	-0.407309	1.884342	0.791379
C35	C	-0.401537	1.895134	0.930802
C36	C	-0.436803	2.186597	0.440410
C37	C	-0.443592	2.326036	0.429738
C38	C	-0.434513	1.834348	1.138256
C39	C	-0.440345	1.823648	0.998826
H40	H	-0.487606	1.374524	0.360442
H41	H	-0.860956	1.716743	0.631813
C42	C	-0.490557	1.730921	0.934501
C43	C	-0.525188	1.667116	1.025193
C44	C	-0.571443	1.581676	0.965977
H45	H	-0.527426	1.774825	0.879655
H46	H	-0.461566	1.672322	0.887673
H47	H	-0.554178	1.725706	1.072000
H48	H	-0.488337	1.623187	1.080043
H49	H	-0.542452	1.523076	0.919148
H50	H	-0.608308	1.625589	0.911132
H51	H	-0.594940	1.538365	1.027502
C52	C	-0.339426	1.329421	0.593336
C53	C	-0.268639	1.359025	0.563428
C54	C	-0.214449	1.299533	0.648354
H55	H	-0.347631	1.357254	0.676071
H56	H	-0.342472	1.241139	0.588480
H57	H	-0.265594	1.447289	0.568296
H58	H	-0.260409	1.331191	0.480707
H59	H	-0.217495	1.211251	0.643497
H60	H	-0.222661	1.327370	0.731083
H61	H	-0.166413	1.319601	0.628066
H62	H	-0.961643	1.932268	0.672122
C63	C	-0.874653	1.775785	0.226709
C64	C	-0.908626	1.855761	0.132257
C65	C	-0.885459	1.814937	0.015758
H66	H	-0.822058	1.776845	0.227249
H67	H	-0.888502	1.692779	0.211205
H68	H	-0.894773	1.938745	0.147757
H69	H	-0.961221	1.854710	0.131677
H70	H	-0.899308	1.731931	0.000253
H71	H	-0.832864	1.815998	0.016310
H72	H	-0.908511	1.869187	-0.048343
C73	C	-0.351483	1.987952	0.995395
C74	C	-0.394430	2.074070	1.064308
C75	C	-0.348357	2.159619	1.123800
H76	H	-0.314646	1.944112	1.050350
H77	H	-0.327941	2.031426	0.934039
H78	H	-0.417960	2.030601	1.125656
H79	H	-0.431265	2.117941	1.009381
H80	H	-0.324815	2.203093	1.062444
H81	H	-0.311522	2.115767	1.178749
H82	H	-0.377491	2.218067	1.170555
H83	H	-0.981425	2.002552	0.298686
C84	C	-0.876749	2.108014	0.512109
C85	C	-0.799124	2.106438	0.511953
C86	C	-0.776880	2.227666	0.534900
H87	H	-0.899323	2.163189	0.448424
H88	H	-0.891733	2.136134	0.591485
H89	H	-0.784148	2.078335	0.432588
H90	H	-0.776531	2.051289	0.575638
H91	H	-0.791863	2.255786	0.614276
H92	H	-0.799458	2.282831	0.471212
H93	H	-0.724209	2.226611	0.534809
C94	C	-0.965645	1.610968	0.418823
C95	C	-0.932714	1.530338	0.513560
C96	C	-0.954772	1.408933	0.491024
H97	H	-1.018333	1.611892	0.418238
H98	H	-0.950244	1.582374	0.339855
H99	H	-0.948119	1.558925	0.592507
H100	H	-0.880026	1.529376	0.514161
H101	H	-0.939371	1.380339	0.412056
H102	H	-1.007460	1.409871	0.490438
H103	H	-0.932426	1.354209	0.555292
