data_functionalizedCrystal
_audit_creation_method	'MofGen! by Chris Wilmer'
_symmetry_space_group_name_H-M	'P1'
_symmetry_Int_Tables_number	1
_symmetry_cell_setting	triclinic
loop_
_symmetry_equiv_pos_as_xyz
  x,y,z
_cell_length_a	16.974897
_cell_length_b	15.995350
_cell_length_c	16.053802
_cell_angle_alpha	92.572097
_cell_angle_beta	91.071702
_cell_angle_gamma	83.446790
loop_
_atom_site_label
_atom_site_type_symbol
_atom_site_fract_x
_atom_site_fract_y
_atom_site_fract_z
O1	O	1.042404	0.113883	0.139784
O2	O	1.375738	0.447216	0.473118
O3	O	1.709071	0.780549	0.806451
O4	O	0.812946	0.126675	0.124298
O5	O	1.146280	0.460009	0.457631
O6	O	1.479613	0.793342	0.790964
O7	O	0.933948	-0.001594	0.132463
O8	O	1.267281	0.331739	0.465797
O9	O	1.600614	0.665073	0.799130
O10	O	0.921403	0.242152	0.131618
O11	O	1.254736	0.575485	0.464952
O12	O	1.588070	0.908819	0.798285
O13	O	0.940601	-0.008633	-0.005946
O14	O	1.273934	0.324700	0.327387
O15	O	1.607267	0.658034	0.660720
O16	O	0.819599	0.119636	-0.014112
O17	O	1.152933	0.452970	0.319221
O18	O	1.486266	0.786303	0.652554
O19	O	1.049057	0.106844	0.001374
O20	O	1.382391	0.440177	0.334708
O21	O	1.715724	0.773511	0.668041
Zn22	Zn	0.935385	0.112123	-0.028345
Zn23	Zn	1.268718	0.445456	0.304989
Zn24	Zn	1.602051	0.778789	0.638322
Zn25	Zn	0.926619	0.121397	0.154016
Zn26	Zn	1.259952	0.454730	0.487350
Zn27	Zn	1.593286	0.788063	0.820683
O28	O	0.928056	0.235113	-0.006792
O29	O	1.261389	0.568446	0.326542
O30	O	1.594722	0.901780	0.659875
C31	C	0.786910	0.122536	0.053111
C32	C	1.120243	0.455870	0.386444
C33	C	1.453577	0.789203	0.719778
C34	C	0.699419	0.120680	0.047206
C35	C	1.032752	0.454014	0.380540
C36	C	1.366085	0.787347	0.713873
C37	C	0.654682	0.123647	0.119873
C38	C	0.988015	0.456981	0.453207
C39	C	1.321348	0.790314	0.786540
C40	C	0.572473	0.121916	0.114313
C41	C	0.905806	0.455250	0.447646
C42	C	1.239140	0.788583	0.780979
C43	C	0.535004	0.117212	0.036084
C44	C	0.868337	0.450546	0.369418
C45	C	1.201671	0.783879	0.702751
C46	C	0.579747	0.114248	-0.036588
C47	C	0.913080	0.447581	0.296745
C48	C	1.246414	0.780915	0.630079
C49	C	0.661953	0.115985	-0.031027
C50	C	0.995287	0.449318	0.302307
C51	C	1.328620	0.782652	0.635640
C52	C	0.289533	0.111612	0.011362
C53	C	0.622867	0.444945	0.344695
C54	C	0.956200	0.778278	0.678028
C55	C	0.207322	0.109872	0.005806
C56	C	0.540655	0.443206	0.339139
C57	C	0.873988	0.776539	0.672473
C58	C	0.200053	0.117542	0.156707
C59	C	0.533386	0.450876	0.490041
C60	C	0.866720	0.784209	0.823374
C61	C	0.282262	0.119274	0.162262
C62	C	0.615595	0.452607	0.495595
C63	C	0.948929	0.785940	0.828928
C64	C	0.326997	0.116314	0.089589
C65	C	0.660330	0.449647	0.422923
C66	C	0.993664	0.782980	0.756256
N67	N	0.450974	0.115440	0.030399
N68	N	0.784308	0.448774	0.363732
N69	N	1.117641	0.782107	0.697066
N70	N	0.411025	0.118092	0.095276
N71	N	0.744358	0.451425	0.428609
N72	N	1.077691	0.784759	0.761942
C73	C	0.936755	-0.036309	0.063225
C74	C	1.270089	0.297024	0.396558
C75	C	1.603422	0.630357	0.729892
C76	C	0.935200	-0.129263	0.063125
C77	C	1.268534	0.204070	0.396458
C78	C	1.601867	0.537404	0.729792
C79	C	0.929617	-0.467024	0.062745
C80	C	1.262950	-0.133690	0.396079
C81	C	1.596283	0.199643	0.729412
C82	C	0.843427	-0.419775	0.057240
C83	C	1.176760	-0.086442	0.390573
C84	C	1.510094	0.246892	0.723906
C85	C	0.844997	-0.323097	0.057033
C86	C	1.178330	0.010236	0.390366
C87	C	1.511664	0.343570	0.723699
C88	C	0.932386	-0.299457	0.062934
C89	C	1.265720	0.033877	0.396267
C90	C	1.599053	0.367210	0.729601
C91	C	0.978690	-0.344455	-0.013235
C92	C	1.312023	-0.011121	0.320099
C93	C	1.645357	0.322212	0.653432
C94	C	0.976528	-0.441099	-0.013447
C95	C	1.309862	-0.107765	0.319886
C96	C	1.643195	0.225568	0.653220
C97	C	0.970743	-0.433448	0.144071
C98	C	1.304076	-0.100115	0.477405
C99	C	1.637410	0.233219	0.810738
C100	C	0.970672	-0.336450	0.145114
C101	C	1.304006	-0.003116	0.478448
C102	C	1.637339	0.330217	0.811781
C103	C	0.933956	-0.204756	0.063038
C104	C	1.267290	0.128578	0.396372
C105	C	1.600623	0.461911	0.729705
C106	C	0.928050	-0.561725	0.062636
C107	C	1.261383	-0.228392	0.395969
C108	C	1.594716	0.104941	0.729302
C109	C	1.075093	0.110983	0.072563
C110	C	1.408427	0.444316	0.405896
C111	C	1.741760	0.777650	0.739229
C112	C	1.162584	0.112839	0.078473
C113	C	1.495918	0.446172	0.411806
C114	C	1.829251	0.779506	0.745140
C115	C	0.925248	0.269829	0.062449
C116	C	1.258581	0.603162	0.395782
C117	C	1.591915	0.936495	0.729115
C118	C	0.926803	0.362783	0.062554
C119	C	1.260136	0.696116	0.395888
C120	C	1.593469	1.029449	0.729221
N121	N	0.920637	0.127720	0.278473
N122	N	1.253971	0.461053	0.611806
N123	N	1.587304	0.794386	0.945140
N124	N	0.941372	0.105793	-0.152801
N125	N	1.274706	0.439126	0.180533
N126	N	1.608039	0.772459	0.513866
C127	C	0.972222	0.073246	0.325648
C128	C	1.305556	0.406579	0.658982
C129	C	1.638889	0.739913	0.992315
C130	C	0.968036	0.077667	0.412773
C131	C	1.301370	0.411001	0.746106
C132	C	1.634703	0.744334	1.079439
C133	C	0.912261	0.136559	0.452720
C134	C	1.245594	0.469893	0.786053
C135	C	1.578927	0.803226	1.119386
C136	C	0.860674	0.191039	0.405538
C137	C	1.194007	0.524372	0.738872
C138	C	1.527340	0.857706	1.072205
C139	C	0.864864	0.186621	0.318416
C140	C	1.198197	0.519954	0.651749
C141	C	1.531531	0.853288	0.985083
C142	C	0.893976	0.155854	0.712895
C143	C	1.227309	0.489188	1.046229
C144	C	1.560642	0.822521	1.379562
C145	C	0.889787	0.160267	0.800024
C146	C	1.223121	0.493600	1.133357
C147	C	1.556454	0.826933	1.466691
C148	C	0.997152	0.046896	0.807252
C149	C	1.330485	0.380229	1.140586
C150	C	1.663818	0.713562	1.473919
C151	C	1.001334	0.042479	0.720128
C152	C	1.334667	0.375813	1.053461
C153	C	1.668001	0.709146	1.386794
C154	C	0.949749	0.096962	0.672954
C155	C	1.283083	0.430295	1.006287
C156	C	1.616416	0.763629	1.339621
N157	N	0.907979	0.141078	0.541775
N158	N	1.241312	0.474412	0.875108
N159	N	1.574646	0.807745	1.208441
N160	N	0.954036	0.092446	0.583901
N161	N	1.287369	0.425780	0.917235
N162	N	1.620702	0.759113	1.250568
H163	H	0.325948	0.109196	-0.047813
H164	H	0.659281	0.442529	0.285520
H165	H	0.992614	0.775862	0.618853
H166	H	1.010041	0.033311	0.451182
H167	H	1.343375	0.366644	0.784516
H168	H	1.676708	0.699978	1.117849
H169	H	0.536051	0.124332	0.173486
H170	H	0.869385	0.457665	0.506819
H171	H	1.202718	0.790999	0.840153
H172	H	0.951996	-0.319133	-0.074046
H173	H	1.285329	0.014200	0.259287
H174	H	1.618662	0.347533	0.592620
H175	H	0.814089	-0.298197	-0.001991
H176	H	1.147422	0.035136	0.331342
H177	H	1.480756	0.368470	0.664675
H178	H	0.312764	0.123098	0.225964
H179	H	0.646097	0.456431	0.559297
H180	H	0.979431	0.789765	0.892630
H181	H	0.163621	0.119954	0.215873
H182	H	0.496954	0.453287	0.549206
H183	H	0.830288	0.786621	0.882540
F184	F	0.709565	0.112830	-0.108369
F185	F	1.042899	0.446164	0.224964
F186	F	1.376232	0.779497	0.558297
F187	F	0.809962	0.244603	0.268210
F188	F	1.143295	0.577936	0.601543
F189	F	1.476629	0.911269	0.934876
H190	H	0.808862	-0.291872	0.111435
H191	H	1.142196	0.041462	0.444768
H192	H	1.475529	0.374795	0.778101
H193	H	1.046751	-0.005475	0.687605
H194	H	1.380084	0.327858	1.020938
H195	H	1.713417	0.661192	1.354271
F196	F	1.052175	-0.010948	0.857472
F197	F	1.385508	0.322386	1.190806
F198	F	1.718842	0.655719	1.524139
H199	H	0.811846	-0.442315	-0.001438
H200	H	1.145179	-0.108982	0.331895
H201	H	1.478512	0.224351	0.665228
F202	F	0.930148	-0.456389	0.219887
F203	F	1.263481	-0.123056	0.553221
F204	F	1.596814	0.210277	0.886554
F205	F	0.794843	-0.440332	0.128286
F206	F	1.128176	-0.106999	0.461619
F207	F	1.461510	0.226335	0.794952
F208	F	0.167448	0.104852	-0.077459
F209	F	0.500781	0.438185	0.255874
F210	F	0.834115	0.771519	0.589208
H211	H	1.043034	-0.330328	-0.011838
H212	H	1.376367	0.003005	0.321495
H213	H	1.709701	0.336338	0.654828
H214	H	0.549233	0.110423	-0.100283
H215	H	0.882566	0.443757	0.233050
H216	H	1.215899	0.777090	0.566383
H217	H	1.034254	-0.465034	0.148893
H218	H	1.367587	-0.131700	0.482226
H219	H	1.700920	0.201633	0.815560
H220	H	0.948374	-0.462477	-0.074623
H221	H	1.281707	-0.129144	0.258710
H222	H	1.615041	0.204189	0.592044
H223	H	1.039969	-0.473382	-0.012761
H224	H	1.373302	-0.140048	0.320573
H225	H	1.706636	0.193285	0.653906
F226	F	0.926692	-0.296652	0.218830
F227	F	1.260025	0.036682	0.552163
F228	F	1.593358	0.370015	0.885496
H229	H	1.034171	-0.320696	0.154190
H230	H	1.367504	0.012637	0.487523
H231	H	1.700838	0.345970	0.820857
F232	F	1.031583	0.010560	0.283142
F233	F	1.364916	0.343894	0.616475
F234	F	1.698250	0.677227	0.949808
H235	H	0.844365	0.208226	0.832544
H236	H	1.177698	0.541559	1.165878
H237	H	1.511032	0.874893	1.499211
F238	F	0.839074	0.213836	0.662696
F239	F	1.172407	0.547169	0.996030
F240	F	1.505741	0.880503	1.329363
H241	H	0.685183	0.127475	0.183575
H242	H	1.018516	0.460808	0.516909
H243	H	1.351850	0.794142	0.850242
F244	F	0.801316	0.253721	0.448054
F245	F	1.134649	0.587055	0.781387
F246	F	1.467983	0.920388	1.114721
