data_functionalizedCrystal
_audit_creation_method	'MofGen! by Chris Wilmer'
_symmetry_space_group_name_H-M	'P1'
_symmetry_Int_Tables_number	1
_symmetry_cell_setting	triclinic
loop_
_symmetry_equiv_pos_as_xyz
  x,y,z
_cell_length_a	16.109301
_cell_length_b	17.000371
_cell_length_c	15.186229
_cell_angle_alpha	89.995847
_cell_angle_beta	89.999362
_cell_angle_gamma	79.530364
loop_
_atom_site_label
_atom_site_type_symbol
_atom_site_fract_x
_atom_site_fract_y
_atom_site_fract_z
O1	O	1.095680	0.102309	-0.073174
O2	O	0.852691	0.115042	-0.073188
O3	O	0.989273	-0.007195	-0.073174
O4	O	0.959098	0.224546	-0.073188
O5	O	0.989265	-0.007197	0.073284
O6	O	0.852683	0.115040	0.073269
O7	O	1.095672	0.102308	0.073284
Zn8	Zn	0.974176	0.108673	0.096530
Zn9	Zn	0.974187	0.108676	-0.096434
O10	O	0.959089	0.224544	0.073269
C11	C	0.821749	0.114525	0.000039
C12	C	0.729567	0.112979	0.000034
C13	C	0.502274	0.181916	0.000040
C14	C	0.415660	0.180457	0.000046
C15	C	0.446096	0.035428	0.000051
C16	C	0.532708	0.036888	0.000051
C17	C	0.560795	0.110134	0.000041
C18	C	0.387568	0.107215	0.000047
C19	C	0.293657	0.105633	0.000053
C20	C	0.654711	0.111717	0.000037
C21	C	0.990890	-0.036850	0.000055
C22	C	0.995709	-0.125210	0.000054
C23	C	0.921543	-0.157216	0.000046
C24	C	0.926076	-0.240240	0.000049
C25	C	1.004777	-0.291257	0.000053
C26	C	1.078949	-0.259245	0.000064
C27	C	1.074415	-0.176222	0.000068
C28	C	1.022291	-0.542407	0.000048
C29	C	1.026820	-0.625435	0.000042
C30	C	0.873946	-0.606424	0.000028
C31	C	0.869419	-0.523401	0.000027
C32	C	0.943591	-0.491396	0.000042
C33	C	1.009413	-0.376121	0.000053
C34	C	0.938955	-0.406534	0.000048
C35	C	1.126613	0.102824	0.000055
C36	C	1.218796	0.104370	0.000054
C37	C	0.957473	0.254199	0.000039
C38	C	0.952653	0.342559	0.000034
N39	N	0.974174	0.108671	0.228222
N40	N	0.974195	0.108671	-0.228127
C41	C	1.034671	0.054563	0.453952
C42	C	1.034674	0.054561	0.546141
C43	C	0.913693	0.162782	0.546138
C44	C	0.913687	0.162780	0.453950
C45	C	0.974181	0.108671	0.407859
C46	C	0.974189	0.108672	0.592237
C47	C	0.974192	0.108670	0.692193
C48	C	0.974177	0.108671	0.307897
H49	H	0.423217	-0.024207	0.000064
H50	H	0.864441	0.206837	0.583674
C51	C	0.794103	0.269762	0.463199
C52	C	0.847193	0.222262	0.403278
H53	H	0.753058	0.306483	0.431914
H54	H	0.766624	0.236624	0.499161
H55	H	0.826625	0.298403	0.499151
H56	H	0.814671	0.193616	0.367330
H57	H	0.874674	0.255404	0.367301
C58	C	1.149080	0.037322	0.649811
C59	C	1.101167	-0.004913	0.596809
H60	H	1.190127	0.000601	0.681094
H61	H	1.176558	0.070456	0.613843
H62	H	1.113047	0.069543	0.690453
H63	H	1.137199	-0.037130	0.556163
H64	H	1.073688	-0.038061	0.632780
C65	C	0.463487	0.325123	0.000046
C66	C	0.533148	0.262427	0.000041
H67	H	0.482547	0.374828	0.000054
H68	H	0.430341	0.321542	-0.051024
H69	H	0.430338	0.321526	0.051122
H70	H	0.566294	0.266022	-0.051039
H71	H	0.566308	0.266010	0.051117
H72	H	1.073491	-0.417668	0.000055
C73	C	0.269377	0.242617	0.000046
C74	C	0.351333	0.259362	0.000039
H75	H	0.229666	0.291333	0.000048
H76	H	0.261438	0.212589	-0.051020
H77	H	0.261444	0.212584	0.051126
H78	H	0.359268	0.289390	-0.051044
H79	H	0.359275	0.289403	0.051111
C80	C	0.554101	-0.106621	0.000046
C81	C	0.597042	-0.042022	0.000049
H82	H	0.593819	-0.155332	0.000042
H83	H	0.519688	-0.104179	0.051116
H84	H	0.519684	-0.104167	-0.051031
H85	H	0.631454	-0.044472	0.051130
H86	H	0.631470	-0.044465	-0.051025
H87	H	0.857456	-0.115683	0.000038
H88	H	1.134809	-0.150165	0.000076
C89	C	0.774514	-0.213110	0.000025
C90	C	0.844549	-0.275421	0.000037
H91	H	0.724182	-0.234831	0.000014
H92	H	0.775921	-0.181128	0.051095
H93	H	0.775938	-0.181121	-0.051052
H94	H	0.843129	-0.307407	0.051117
H95	H	0.843142	-0.307417	-0.051038
C96	C	0.745048	-0.615780	-0.075274
C97	C	0.792421	-0.641607	0.000017
H98	H	0.694719	-0.637506	-0.075280
H99	H	0.731087	-0.559042	-0.075265
H100	H	0.777209	-0.633292	-0.126339
H101	H	0.760262	-0.624091	0.051083
H102	H	0.806380	-0.698358	0.000016
H103	H	0.805332	-0.481868	0.000020
C104	C	1.120614	-0.729822	-0.075241
C105	C	1.113333	-0.681517	0.000052
H106	H	1.174022	-0.764441	-0.075237
H107	H	1.077092	-0.760758	-0.075245
H108	H	1.115678	-0.697024	-0.126305
H109	H	1.118263	-0.714315	0.051116
H110	H	1.156868	-0.650578	0.000064
C111	C	1.105888	-0.460071	-0.075229
C112	C	1.103821	-0.507236	0.000054
H113	H	1.156223	-0.438354	-0.075222
H114	H	1.104480	-0.492059	-0.126294
H115	H	1.058369	-0.417805	-0.075218
H116	H	1.151338	-0.549507	0.000040
H117	H	1.105238	-0.475247	0.051133
C118	C	1.229602	-0.269691	0.000080
C119	C	1.165460	-0.315320	0.000069
H120	H	1.283010	-0.304310	0.000086
H121	H	1.224656	-0.236909	-0.050987
H122	H	1.224645	-0.236918	0.051159
H123	H	1.170413	-0.348089	-0.051014
H124	H	1.170408	-0.348116	0.051141
C125	C	1.154248	-0.052414	0.463218
C126	C	1.101157	-0.004919	0.403288
H127	H	1.195290	-0.089141	0.431940
H128	H	1.181732	-0.019274	0.499165
H129	H	1.121726	-0.081049	0.499184
H130	H	1.133678	0.023720	0.367326
H131	H	1.073671	-0.038064	0.367326
H132	H	0.874877	-0.364993	0.000050
