data_functionalizedCrystal
_audit_creation_method	'MofGen! by Chris Wilmer'
_symmetry_space_group_name_H-M	'P1'
_symmetry_Int_Tables_number	1
_symmetry_cell_setting	triclinic
loop_
_symmetry_equiv_pos_as_xyz
  x,y,z
_cell_length_a	17.019282
_cell_length_b	23.532407
_cell_length_c	15.500227
_cell_angle_alpha	92.805592
_cell_angle_beta	91.034464
_cell_angle_gamma	83.119776
loop_
_atom_site_label
_atom_site_type_symbol
_atom_site_fract_x
_atom_site_fract_y
_atom_site_fract_z
O1	O	1.045805	0.072736	0.005989
O2	O	1.545805	0.572736	0.505989
O3	O	0.816942	0.081369	-0.011071
O4	O	1.316942	0.581369	0.488929
O5	O	0.938274	-0.005838	-0.002011
O6	O	1.438274	0.494162	0.497989
O7	O	0.924473	0.159942	-0.003071
O8	O	1.424473	0.659942	0.496929
O9	O	0.930912	-0.000566	0.141328
O10	O	1.430912	0.499434	0.641328
O11	O	0.809580	0.086640	0.132268
O12	O	1.309580	0.586640	0.632268
O13	O	1.038443	0.078007	0.149328
O14	O	1.538443	0.578007	0.649328
Cu15	Cu	0.923339	0.082805	0.153886
Cu16	Cu	1.423339	0.582805	0.653886
Cu17	Cu	0.932046	0.076571	-0.015629
Cu18	Cu	1.432046	0.576571	0.484371
O19	O	0.917111	0.165213	0.140268
O20	O	1.417111	0.665213	0.640268
C21	C	0.783987	0.083574	0.058417
C22	C	1.283987	0.583574	0.558417
C23	C	0.696758	0.082286	0.051916
C24	C	1.196758	0.582286	0.551916
C25	C	0.651769	0.084553	0.126997
C26	C	1.151769	0.584553	0.626997
C27	C	0.569810	0.083334	0.120891
C28	C	1.069810	0.583334	0.620891
C29	C	0.532841	0.079852	0.039702
C30	C	1.032841	0.579852	0.539702
C31	C	0.577836	0.077583	-0.035385
C32	C	1.077836	0.577583	0.464615
C33	C	0.659794	0.078798	-0.029278
C34	C	1.159794	0.578798	0.470722
C35	C	0.285581	0.076035	0.017354
C36	C	0.785581	0.576035	0.517354
C37	C	0.203617	0.074822	0.011252
C38	C	0.703617	0.574822	0.511252
C39	C	0.195597	0.080572	0.167529
C40	C	0.695597	0.580572	0.667529
C41	C	0.277556	0.081790	0.173629
C42	C	0.777556	0.581790	0.673629
C43	C	0.322545	0.079518	0.098542
C44	C	0.822545	0.579518	0.598542
C45	C	0.449065	0.078607	0.033459
C46	C	0.949065	0.578607	0.533459
C47	C	0.406319	0.080759	0.104786
C48	C	0.906319	0.580759	0.604786
C49	C	0.934242	-0.024420	0.069635
C50	C	1.434242	0.475580	0.569635
C51	C	0.933185	-0.087643	0.069563
C52	C	1.433185	0.412357	0.569563
C53	C	0.998361	-0.486358	0.074374
C54	C	1.498361	0.013642	0.574374
C55	C	0.997380	-0.545764	0.074294
C56	C	1.497380	-0.045764	0.574294
O57	O	1.057798	-0.582148	0.078766
O58	O	1.557798	-0.082148	0.578766
N59	N	0.925247	-0.568822	0.068918
N60	N	1.425247	-0.068822	0.568918
C61	C	0.854092	-0.532471	0.063612
C62	C	1.354092	-0.032471	0.563612
O63	O	0.792648	-0.557538	0.059031
O64	O	1.292648	-0.057538	0.559031
C65	C	0.855075	-0.473066	0.063686
C66	C	1.355075	0.026934	0.563686
C67	C	0.927211	-0.450011	0.069071
C68	C	1.427211	0.049989	0.569071
C69	C	1.070492	-0.463303	0.079757
C70	C	1.570492	0.036697	0.579757
C71	C	1.071473	-0.403900	0.079839
C72	C	1.571473	0.096100	0.579839
C73	C	1.000323	-0.367553	0.074536
C74	C	1.500323	0.132447	0.574536
C75	C	0.928192	-0.390608	0.069152
C76	C	1.428192	0.109392	0.569152
C77	C	0.783921	-0.436715	0.058374
C78	C	1.283921	0.063285	0.558374
C79	C	0.784909	-0.377307	0.058448
C80	C	1.284909	0.122693	0.558448
C81	C	0.857046	-0.354252	0.063833
C82	C	1.357046	0.145748	0.563833
C83	C	0.858023	-0.294859	0.063931
C84	C	1.358023	0.205141	0.563931
N85	N	0.930155	-0.271801	0.069307
N86	N	1.430155	0.228199	0.569307
C87	C	1.001305	-0.308148	0.074610
C88	C	1.501305	0.191852	0.574610
C89	C	0.852034	-0.657226	0.063457
C90	C	1.352034	-0.157226	0.563457
C91	C	0.851051	-0.716629	0.063389
C92	C	1.351051	-0.216629	0.563389
C93	C	0.994339	-0.729919	0.074069
C94	C	1.494339	-0.229919	0.574069
C95	C	0.995321	-0.670514	0.074143
C96	C	1.495321	-0.170514	0.574143
C97	C	0.924167	-0.634168	0.068833
C98	C	1.424167	-0.134168	0.568833
C99	C	1.003360	-0.183398	0.074781
C100	C	1.503360	0.316602	0.574781
C101	C	1.004334	-0.123990	0.074865
C102	C	1.504334	0.376010	0.574865
C103	C	0.861047	-0.110706	0.064181
C104	C	1.361047	0.389294	0.564181
C105	C	0.860072	-0.170109	0.064101
C106	C	1.360072	0.329891	0.564101
C107	C	0.931235	-0.206454	0.069398
C108	C	1.431235	0.293546	0.569398
O109	O	0.797636	-0.258440	0.059458
O110	O	1.297636	0.241560	0.559458
O111	O	1.062740	-0.283073	0.079179
O112	O	1.562740	0.216927	0.579179
C113	C	1.071399	0.075801	0.079838
C114	C	1.571399	0.575801	0.579838
C115	C	1.158628	0.077089	0.086334
C116	C	1.658628	0.577089	0.586334
C117	C	0.921144	0.183796	0.068621
C118	C	1.421144	0.683796	0.568621
C119	C	0.922201	0.247018	0.068687
C120	C	1.422201	0.747018	0.568687
N121	N	0.917221	0.087189	0.273114
N122	N	1.417221	0.587189	0.773114
N123	N	0.938171	0.072182	-0.134856
N124	N	1.438171	0.572182	0.365144
C125	C	0.968651	0.050250	0.322231
C126	C	1.468651	0.550250	0.822231
C127	C	0.964031	0.053571	0.412459
C128	C	1.464031	0.553571	0.912459
C129	C	0.907984	0.093834	0.453568
C130	C	1.407984	0.593834	0.953568
C131	C	0.856548	0.130774	0.404445
C132	C	1.356548	0.630774	0.904445
C133	C	0.861165	0.127450	0.314218
C134	C	1.361165	0.627450	0.814218
C135	C	0.891352	0.105799	0.725793
C136	C	1.391352	0.605799	1.225793
C137	C	0.886741	0.109121	0.816027
C138	C	1.386741	0.609121	1.316027
C139	C	0.994223	0.031917	0.824035
C140	C	1.494223	0.531917	1.324035
C141	C	0.998838	0.028599	0.733806
C142	C	1.498838	0.528599	1.233806
C143	C	0.947400	0.065537	0.684690
C144	C	1.447400	0.565537	1.184690
C145	C	0.903262	0.097230	0.545796
C146	C	1.403262	0.597230	1.045796
C147	C	0.952118	0.062137	0.592464
C148	C	1.452118	0.562137	1.092464
H149	H	0.158958	0.082420	0.228661
H150	H	0.658958	0.582420	0.728661
H151	H	0.792309	-0.735394	0.059019
H152	H	1.292309	-0.235394	0.559019
Br153	Br	0.821546	0.155929	0.659141
Br154	Br	1.321546	0.655929	1.159141
Br155	Br	0.508754	0.086420	0.222793
Br156	Br	1.008754	0.586420	0.722793
Br157	Br	0.762171	-0.201398	0.056812
Br158	Br	1.262171	0.298602	0.556812
Br159	Br	1.044725	-0.004391	0.266450
Br160	Br	1.544725	0.495609	0.766450
H161	H	0.841098	0.141910	0.849493
H162	H	1.341098	0.641910	1.349493
Br163	Br	1.099939	-0.232715	0.081970
Br164	Br	1.599939	0.267285	0.581970
Br165	Br	1.074905	-0.026042	0.678014
Br166	Br	1.574905	0.473958	1.178014
H167	H	0.819284	0.157529	0.274228
H168	H	1.319284	0.657529	0.774228
H169	H	0.810909	0.163555	0.437921
H170	H	1.310909	0.663555	0.937921
H171	H	0.681862	0.087393	0.193110
H172	H	1.181862	0.587393	0.693110
H173	H	0.794088	-0.627635	0.059140
H174	H	1.294088	-0.127635	0.559140
H175	H	1.036101	0.001843	0.864033
H176	H	1.536101	0.501843	1.364033
Br177	Br	0.398892	0.073852	-0.076723
Br178	Br	0.898892	0.573852	0.423277
Br179	Br	1.090900	-0.779258	0.081262
Br180	Br	1.590900	-0.279258	0.581262
H181	H	0.997749	0.029353	0.558990
H182	H	1.497749	0.529353	1.058990
H183	H	0.307651	0.084623	0.239742
H184	H	0.807651	0.584623	0.739742
H185	H	0.857628	0.130014	0.579275
H186	H	1.357628	0.630014	1.079275
H187	H	0.696423	0.076954	-0.090418
H188	H	1.196423	0.576954	0.409582
H189	H	0.726965	-0.347716	0.054122
H190	H	1.226965	0.152284	0.554122
H191	H	1.005909	0.023492	0.452450
H192	H	1.505909	0.523492	0.952450
Br193	Br	0.153443	0.070100	-0.098940
Br194	Br	0.653443	0.570100	0.401060
H195	H	0.436424	0.083591	0.170890
H196	H	0.936424	0.583591	0.670890
Br197	Br	0.764491	-0.061367	0.056985
Br198	Br	1.264491	0.438633	0.556985
Br199	Br	0.527669	0.072833	-0.145571
Br200	Br	1.027669	0.572833	0.354429
Br201	Br	1.102240	-0.092706	0.082175
Br202	Br	1.602240	0.407294	0.582175
Br203	Br	1.167066	-0.512621	0.086954
Br204	Br	1.667066	-0.012621	0.586954
Br205	Br	1.169379	-0.372622	0.087123
Br206	Br	1.669379	0.127378	0.587123
Br207	Br	1.093224	-0.639232	0.081453
Br208	Br	1.593224	-0.139232	0.581453
H209	H	0.725180	-0.455476	0.053984
H210	H	1.225180	0.044524	0.553984
H211	H	0.322202	0.074184	-0.043788
H212	H	0.822202	0.574184	0.456212
