data_functionalizedCrystal
_audit_creation_method	'MofGen! by Chris Wilmer'
_symmetry_space_group_name_H-M	'P1'
_symmetry_Int_Tables_number	1
_symmetry_cell_setting	triclinic
loop_
_symmetry_equiv_pos_as_xyz
  x,y,z
_cell_length_a	11.792241
_cell_length_b	14.519731
_cell_length_c	10.268362
_cell_angle_alpha	89.993732
_cell_angle_beta	89.999626
_cell_angle_gamma	83.941135
loop_
_atom_site_label
_atom_site_type_symbol
_atom_site_fract_x
_atom_site_fract_y
_atom_site_fract_z
O1	O	1.506220	0.126403	-0.108177
O2	O	1.839553	0.459737	0.225156
O3	O	2.172887	0.793070	0.558490
O4	O	1.175808	0.139431	-0.108208
O5	O	1.509141	0.472764	0.225126
O6	O	1.842475	0.806097	0.558459
O7	O	1.349762	-0.001288	-0.108180
O8	O	1.683095	0.332045	0.225154
O9	O	2.016428	0.665379	0.558487
O10	O	1.332266	0.267122	-0.108205
O11	O	1.665599	0.600455	0.225128
O12	O	1.998933	0.933789	0.558462
O13	O	1.349747	-0.001294	0.108421
O14	O	1.683080	0.332039	0.441754
O15	O	2.016413	0.665373	0.775088
O16	O	1.175793	0.139425	0.108393
O17	O	1.509126	0.472758	0.441726
O18	O	1.842459	0.806091	0.775060
O19	O	1.506205	0.126398	0.108424
O20	O	1.839538	0.459731	0.441757
O21	O	2.172871	0.793064	0.775090
Cu22	Cu	1.340997	0.132911	0.128186
Cu23	Cu	1.674331	0.466244	0.461519
Cu24	Cu	2.007664	0.799577	0.794852
Cu25	Cu	1.341015	0.132917	-0.127970
Cu26	Cu	1.674349	0.466251	0.205364
Cu27	Cu	2.007682	0.799584	0.538697
O28	O	1.332251	0.267116	0.108396
O29	O	1.665584	0.600450	0.441729
O30	O	1.998918	0.933783	0.775062
C31	C	1.133514	0.138609	0.000089
C32	C	1.466847	0.471943	0.333422
C33	C	1.800181	0.805276	0.666756
C34	C	1.007513	0.136160	0.000078
C35	C	1.340847	0.469493	0.333411
C36	C	1.674180	0.802827	0.666744
C37	C	1.348934	-0.035654	0.000121
C38	C	1.682268	0.297680	0.333454
C39	C	2.015601	0.631013	0.666788
C40	C	1.346478	-0.138043	0.000121
C41	C	1.679811	0.195291	0.333455
C42	C	2.013145	0.528624	0.666788
C43	C	0.776826	0.131656	0.000115
C44	C	1.110159	0.464990	0.333449
C45	C	1.443493	0.798323	0.666782
C46	C	0.905197	0.134159	0.000095
C47	C	1.238531	0.467492	0.333428
C48	C	1.571864	0.800825	0.666761
C49	C	1.344482	-0.221194	0.000118
C50	C	1.677815	0.112139	0.333452
C51	C	2.011148	0.445472	0.666785
C52	C	1.341988	-0.325512	0.000108
C53	C	1.675321	0.007821	0.333441
C54	C	2.008654	0.341155	0.666775
C55	C	1.340008	-0.408658	0.000100
C56	C	1.673342	-0.075325	0.333433
C57	C	2.006675	0.258008	0.666766
C58	C	1.337514	-0.512983	0.000092
C59	C	1.670848	-0.179650	0.333425
C60	C	2.004181	0.153684	0.666758
C61	C	1.548499	0.127219	0.000124
C62	C	1.881832	0.460552	0.333458
C63	C	2.215166	0.793885	0.666791
C64	C	1.674499	0.129668	0.000127
C65	C	2.007833	0.463001	0.333460
C66	C	2.341166	0.796335	0.666794
C67	C	1.333078	0.301482	0.000092
C68	C	1.666412	0.634815	0.333426
C69	C	1.999745	0.968148	0.666759
C70	C	1.335535	0.403871	0.000083
C71	C	1.668868	0.737204	0.333417
C72	C	2.002202	1.070537	0.666750
N73	N	1.340993	0.132905	0.308352
N74	N	1.674326	0.466238	0.641685
N75	N	2.007660	0.799572	0.975018
N76	N	1.341029	0.132916	-0.308135
N77	N	1.674362	0.466249	0.025198
N78	N	2.007695	0.799582	0.358531
C79	C	1.341010	0.132916	0.574022
C80	C	1.674343	0.466249	0.907356
C81	C	2.007676	0.799582	1.240689
C82	C	1.340997	0.132912	0.426184
C83	C	1.674330	0.466246	0.759518
C84	C	2.007663	0.799579	1.092851
