data_functionalizedCrystal
_audit_creation_method	'MofGen! by Chris Wilmer'
_symmetry_space_group_name_H-M	'P1'
_symmetry_Int_Tables_number	1
_symmetry_cell_setting	triclinic
loop_
_symmetry_equiv_pos_as_xyz
  x,y,z
_cell_length_a	14.853566
_cell_length_b	13.330367
_cell_length_c	12.837942
_cell_angle_alpha	89.996286
_cell_angle_beta	90.768323
_cell_angle_gamma	90.004705
loop_
_atom_site_label
_atom_site_type_symbol
_atom_site_fract_x
_atom_site_fract_y
_atom_site_fract_z
O1	O	1.207850	0.083356	-0.135350
O2	O	1.707850	0.583356	0.364650
O3	O	0.946758	0.083373	-0.151476
O4	O	1.446758	0.583373	0.348524
O5	O	1.071514	0.083359	0.007498
O6	O	1.571514	0.583359	0.507498
O7	O	1.083093	0.083370	-0.294324
O8	O	1.583093	0.583370	0.205676
O9	O	1.071494	-0.083489	0.007502
O10	O	1.571494	0.416511	0.507502
O11	O	0.946737	-0.083475	-0.151472
O12	O	1.446737	0.416525	0.348528
O13	O	1.207829	-0.083491	-0.135346
O14	O	1.707829	0.416509	0.364654
Cu15	Cu	1.077282	-0.098717	-0.143409
Cu16	Cu	1.577282	0.401283	0.356591
Cu17	Cu	1.077306	0.098599	-0.143413
Cu18	Cu	1.577306	0.598599	0.356587
O19	O	1.083073	-0.083477	-0.294320
O20	O	1.583073	0.416523	0.205680
C21	C	0.913097	-0.000049	-0.150743
C22	C	1.413097	0.499951	0.349257
C23	C	0.812828	-0.000043	-0.148555
C24	C	1.312828	0.499957	0.351445
C25	C	0.388869	0.090888	-0.139299
C26	C	0.888869	0.590888	0.360701
C27	C	0.388868	-0.091016	-0.139295
C28	C	0.888868	0.408984	0.360705
C29	C	0.483076	-0.091012	-0.141351
C30	C	0.983076	0.408988	0.358649
C31	C	0.530185	-0.000058	-0.142382
C32	C	1.030185	0.499942	0.357618
C33	C	0.483086	0.090894	-0.141357
C34	C	0.983086	0.590894	0.358643
C35	C	0.530182	-0.181962	-0.142386
C36	C	1.030182	0.318038	0.357614
C37	C	0.624397	-0.181963	-0.144443
C38	C	1.124397	0.318037	0.355557
C39	C	0.671507	-0.091007	-0.145466
C40	C	1.171507	0.408993	0.354534
C41	C	0.624402	-0.000052	-0.144440
C42	C	1.124402	0.499948	0.355560
C43	C	0.671511	0.090903	-0.145471
C44	C	1.171511	0.590903	0.354529
C45	C	0.624408	0.181859	-0.144438
C46	C	1.124408	0.681859	0.355562
C47	C	0.530196	0.181849	-0.142381
C48	C	1.030196	0.681849	0.357619
C49	C	0.765719	-0.090997	-0.147524
C50	C	1.265719	0.409003	0.352476
C51	C	0.765728	0.090909	-0.147530
C52	C	1.265728	0.590909	0.352470
N53	N	1.077271	-0.237499	-0.143405
N54	N	1.577271	0.262501	0.356595
C55	C	1.022058	-0.710115	-0.213779
C56	C	1.522058	-0.210115	0.286221
C57	C	1.132576	-0.710096	-0.073039
C58	C	1.632576	-0.210096	0.426961
C59	C	1.132566	-0.605078	-0.073036
C60	C	1.632566	-0.105078	0.426964
C61	C	1.077302	-0.552573	-0.143406
C62	C	1.577302	-0.052573	0.356594
C63	C	1.022048	-0.605087	-0.213780
C64	C	1.522048	-0.105087	0.286220
C65	C	1.187825	-0.552556	-0.002671
C66	C	1.687825	-0.052556	0.497329
C67	C	1.187818	-0.447531	-0.002665
C68	C	1.687818	0.052469	0.497335
C69	C	1.132548	-0.395025	-0.073032
C70	C	1.632548	0.104975	0.426968
C71	C	1.077292	-0.447545	-0.143408
C72	C	1.577292	0.052455	0.356592
C73	C	1.022028	-0.395041	-0.213778
C74	C	1.522028	0.104959	0.286222
C75	C	0.966766	-0.447560	-0.284150
C76	C	1.466766	0.052440	0.215850
C77	C	0.966779	-0.552581	-0.284147
C78	C	1.466779	-0.052581	0.215853
C79	C	1.132535	-0.290003	-0.073035
C80	C	1.632535	0.209997	0.426965
C81	C	1.022017	-0.290013	-0.213779
C82	C	1.522017	0.209987	0.286221
C83	C	1.241490	-0.000067	-0.136079
C84	C	1.741490	0.499933	0.363921
C85	C	1.341760	-0.000067	-0.138268
C86	C	1.841760	0.499933	0.361732
C87	C	1.067593	-0.000064	0.046126
C88	C	1.567593	0.499936	0.546126
C89	C	1.055927	-0.000062	0.161220
C90	C	1.555927	0.499938	0.661220
N91	N	1.077323	0.237380	-0.143409
N92	N	1.577323	0.737380	0.356591
C93	C	1.086995	-0.000052	-0.332948
C94	C	1.586995	0.499948	0.167052
C95	C	1.098661	-0.000048	-0.448042
C96	C	1.598661	0.499952	0.051958
C97	C	1.196173	-0.000050	0.401977
C98	C	1.696173	0.499950	0.901977
C99	C	1.185216	-0.000047	0.510119
C100	C	1.685216	0.499953	1.010119
C101	C	1.023056	-0.000048	0.485647
C102	C	1.523056	0.499952	0.985647
C103	C	1.034013	-0.000050	0.377505
C104	C	1.534013	0.499950	0.877505
C105	C	1.120575	-0.000053	0.335675
C106	C	1.620575	0.499947	0.835675
C107	C	1.131531	-0.000062	0.227531
C108	C	1.631531	0.499938	0.727531
C109	C	0.969372	-0.000055	0.203061
C110	C	1.469372	0.499945	0.703061
C111	C	0.958415	-0.000053	0.311203
C112	C	1.458415	0.499947	0.811203
H113	H	0.662776	0.255914	-0.145285
H114	H	1.162776	0.755914	0.354715
H115	H	0.491819	-0.256012	-0.141553
H116	H	0.991819	0.243988	0.358447
H117	H	1.232814	-0.404777	0.054635
H118	H	1.732814	0.095223	0.554635
N119	N	0.479394	0.279944	-0.141264
N120	N	0.979394	0.779944	0.358736
H121	H	0.412564	0.266137	-0.139807
H122	H	0.912564	0.766137	0.360193
H123	H	0.494071	0.319668	-0.205841
H124	H	0.994071	0.819668	0.294159
H125	H	0.907814	-0.000065	0.149065
H126	H	1.407814	0.499935	0.649065
N127	N	0.338063	0.188981	-0.138188
N128	N	0.838063	0.688981	0.361812
H129	H	0.352666	0.228748	-0.202764
H130	H	0.852666	0.728748	0.297236
H131	H	0.356276	0.228661	-0.074288
H132	H	0.856276	0.728661	0.425712
H133	H	1.202013	-0.000068	0.193475
H134	H	1.702013	0.499932	0.693475
H135	H	0.977011	-0.247270	-0.271080
H136	H	1.477011	0.252730	0.228920
N137	N	0.675198	-0.280059	-0.145560
N138	N	1.175198	0.219941	0.354440
H139	H	0.631057	-0.337677	-0.144597
H140	H	1.131057	0.162323	0.355403
H141	H	0.716077	-0.284024	-0.082193
H142	H	1.216077	0.215976	0.417807
H143	H	0.804078	0.164976	-0.148366
H144	H	1.304078	0.664976	0.351634
H145	H	1.266655	-0.000062	0.367918
H146	H	1.766655	0.499938	0.867918
N147	N	0.907155	-0.390930	-0.360045
N148	N	1.407155	0.109070	0.139955
H149	H	0.923853	-0.409198	-0.433652
H150	H	1.423853	0.090802	0.066348
H151	H	0.915564	-0.316449	-0.349276
H152	H	1.415564	0.183551	0.150724
H153	H	0.952582	-0.000035	0.519725
H154	H	1.452582	0.499965	1.019725
N155	N	0.865057	-0.000047	0.356323
N156	N	1.365057	0.499953	0.856323
H157	H	0.869585	-0.000044	0.434891
H158	H	1.369585	0.499956	0.934891
H159	H	0.831565	-0.061902	0.332084
H160	H	1.331565	0.438098	0.832084
H161	H	0.804066	-0.165052	-0.148375
H162	H	1.304066	0.334948	0.351625
H163	H	0.350506	-0.165067	-0.138463
H164	H	0.850506	0.334933	0.361537
H165	H	0.977062	-0.752879	-0.271072
H166	H	1.477062	-0.252879	0.228928
N167	N	0.907179	-0.609224	-0.360041
N168	N	1.407179	-0.109224	0.139959
H169	H	0.915576	-0.683721	-0.349364
H170	H	1.415576	-0.183721	0.150636
H171	H	0.923907	-0.590858	-0.433613
H172	H	1.423907	-0.090858	0.066387
N173	N	1.266750	-0.000049	0.581638
N174	N	1.766750	0.499951	1.081638
H175	H	1.304109	0.061800	0.568164
H176	H	1.804109	0.561800	1.068164
H177	H	1.304029	-0.061941	0.568140
H178	H	1.804029	0.438059	1.068140
N179	N	1.192188	-0.766719	0.002849
N180	N	1.692188	-0.266719	0.502849
H181	H	1.183813	-0.841219	-0.007832
H182	H	1.683813	-0.341219	0.492168
H183	H	1.175456	-0.748375	0.076421
H184	H	1.675456	-0.248375	0.576421
H185	H	1.232825	-0.595308	0.054618
H186	H	1.732825	-0.095308	0.554618
N187	N	1.192138	-0.233357	0.002848
N188	N	1.692138	0.266643	0.502848
H189	H	1.227152	-0.282554	0.047423
H190	H	1.727152	0.217446	0.547423
H191	H	1.153683	-0.189794	0.048760
H192	H	1.653683	0.310206	0.548760
