data_functionalizedCrystal
_audit_creation_method	'MofGen! by Chris Wilmer'
_symmetry_space_group_name_H-M	'P1'
_symmetry_Int_Tables_number	1
_symmetry_cell_setting	triclinic
loop_
_symmetry_equiv_pos_as_xyz
  x,y,z
_cell_length_a	18.215407
_cell_length_b	19.077114
_cell_length_c	18.215399
_cell_angle_alpha	87.729790
_cell_angle_beta	89.982632
_cell_angle_gamma	87.674258
loop_
_atom_site_label
_atom_site_type_symbol
_atom_site_fract_x
_atom_site_fract_y
_atom_site_fract_z
Zn1	Zn	1.113279	0.280256	-0.427834
Zn2	Zn	1.108234	0.397958	-0.309709
Zn3	Zn	0.990211	0.280273	-0.304787
Zn4	Zn	0.985226	0.397912	-0.432737
O5	O	1.049237	0.339100	-0.368767
O6	O	1.215593	0.295881	-0.412172
O7	O	1.092553	0.382373	-0.206073
O8	O	1.010733	0.181780	-0.316997
O9	O	1.211887	0.382356	-0.325386
O10	O	1.101151	0.181768	-0.407399
O11	O	1.005841	0.295910	-0.202457
O12	O	0.886566	0.295866	-0.321752
O13	O	1.002238	0.382279	-0.535070
O14	O	0.882904	0.382295	-0.415757
O15	O	1.096317	0.295838	-0.531467
O16	O	1.087720	0.496443	-0.330141
O17	O	0.997346	0.496409	-0.420529
C18	C	0.858032	0.339078	-0.368753
C19	C	0.776233	0.339086	-0.368765
C20	C	0.589964	0.294151	-0.414033
C21	C	0.513105	0.294157	-0.414035
C22	C	0.509262	0.384068	-0.323514
C23	C	0.586120	0.384058	-0.323508
C24	C	0.626469	0.339101	-0.368772
C25	C	0.472752	0.339117	-0.368780
C26	C	0.389418	0.339124	-0.368783
C27	C	0.709808	0.339093	-0.368768
C28	C	1.041465	0.521964	-0.376417
C29	C	1.038207	0.600193	-0.379715
C30	C	1.083765	0.636940	-0.334243
C31	C	1.080706	0.710445	-0.337348
C32	C	1.032083	0.747203	-0.385923
C33	C	0.986523	0.710451	-0.431400
C34	C	0.989587	0.636947	-0.428298
C35	C	1.017873	0.967037	-0.400248
C36	C	1.014811	1.040546	-0.403346
C37	C	1.108995	1.040535	-0.309295
C38	C	1.112052	0.967030	-0.306193
C39	C	1.066494	0.930284	-0.351673
N40	N	1.028953	0.822337	-0.389097
N41	N	1.069629	0.855151	-0.348502
C42	C	1.241189	0.339122	-0.368781
C43	C	1.322988	0.339132	-0.368787
C44	C	1.049284	0.339051	-0.560718
C45	C	1.049304	0.339031	-0.642516
C46	C	1.057054	1.155522	-0.361112
C47	C	1.060370	1.077292	-0.357874
C48	C	1.098310	0.293978	-0.828833
C49	C	1.098320	0.293958	-0.905691
C50	C	1.000355	0.383974	-0.909431
C51	C	1.000342	0.383990	-0.832575
C52	C	1.049324	0.338994	-0.792278
C53	C	1.049346	0.338957	-0.945992
C54	C	1.049356	0.338935	-1.029325
C55	C	1.049313	0.339014	-0.708940
C56	C	1.049235	0.339097	-0.177560
C57	C	1.049366	0.338920	-0.095754
H58	H	0.615843	0.420662	-0.286647
H59	H	0.980777	0.937124	-0.437278
H60	H	0.975225	1.070471	-0.442914
H61	H	0.476401	0.420672	-0.286663
Cl62	Cl	1.173191	0.920826	-0.245135
Cl63	Cl	1.144890	0.590738	-0.273169
H64	H	0.483386	0.257554	-0.450890
H65	H	1.146087	1.070461	-0.272269
H66	H	1.138192	0.257337	-0.796025
Cl67	Cl	1.137985	0.756638	-0.280183
H68	H	0.946936	0.740385	-0.470954
Cl69	Cl	0.932313	0.590751	-0.485468
H70	H	1.138208	0.257301	-0.935451
Cl71	Cl	0.938785	0.440542	-0.960096
H72	H	0.960447	0.420647	-0.802811
Cl73	Cl	0.640685	0.237630	-0.470932
