data_functionalizedCrystal
_audit_creation_method	'MofGen! by Chris Wilmer'
_symmetry_space_group_name_H-M	'P1'
_symmetry_Int_Tables_number	1
_symmetry_cell_setting	triclinic
loop_
_symmetry_equiv_pos_as_xyz
  x,y,z
_cell_length_a	19.288864
_cell_length_b	15.072220
_cell_length_c	19.288859
_cell_angle_alpha	89.998528
_cell_angle_beta	83.134987
_cell_angle_gamma	90.026328
loop_
_atom_site_label
_atom_site_type_symbol
_atom_site_fract_x
_atom_site_fract_y
_atom_site_fract_z
O1	O	0.921355	0.074062	0.086643
O2	O	1.254688	0.407395	0.419977
O3	O	1.588022	0.740729	0.753310
O4	O	0.719094	0.074001	0.098332
O5	O	1.052427	0.407334	0.431665
O6	O	1.385761	0.740667	0.764999
O7	O	0.826071	0.074033	-0.008643
O8	O	1.159404	0.407366	0.324690
O9	O	1.492738	0.740700	0.658024
O10	O	0.814378	0.074029	0.193618
O11	O	1.147711	0.407363	0.526952
O12	O	1.481045	0.740696	0.860285
O13	O	0.826045	-0.073532	-0.008637
O14	O	1.159378	0.259801	0.324696
O15	O	1.492711	0.593135	0.658030
O16	O	0.719068	-0.073565	0.098338
O17	O	1.052401	0.259769	0.431671
O18	O	1.385734	0.593102	0.765005
O19	O	0.921329	-0.073503	0.086649
O20	O	1.254662	0.259830	0.419983
O21	O	1.587995	0.593163	0.753316
Zn22	Zn	0.820194	-0.096963	0.092495
Zn23	Zn	1.153527	0.236370	0.425828
Zn24	Zn	1.486861	0.569704	0.759161
Zn25	Zn	0.820229	0.097460	0.092487
Zn26	Zn	1.153562	0.430794	0.425820
Zn27	Zn	1.486895	0.764127	0.759153
O28	O	0.814352	-0.073536	0.193624
O29	O	1.147685	0.259798	0.526958
O30	O	1.481018	0.593131	0.860291
C31	C	0.693204	0.000210	0.097959
C32	C	1.026538	0.333544	0.431292
C33	C	1.359871	0.666877	0.764626
C34	C	0.616101	0.000187	0.096830
C35	C	0.949434	0.333520	0.430163
C36	C	1.282768	0.666854	0.763497
N37	N	0.820175	-0.229652	0.092500
N38	N	1.153509	0.103681	0.425833
N39	N	1.486842	0.437015	0.759166
C40	C	0.571403	0.000200	0.159598
C41	C	0.904737	0.333533	0.492931
C42	C	1.238070	0.666866	0.826265
C43	C	0.498956	0.000210	0.158537
C44	C	0.832289	0.333543	0.491871
C45	C	1.165623	0.666876	0.825204
C46	C	0.471210	0.000224	0.094705
C47	C	0.804543	0.333558	0.428038
C48	C	1.137877	0.666891	0.761372
C49	C	0.515918	0.000207	0.031929
C50	C	0.849251	0.333540	0.365262
C51	C	1.182584	0.666873	0.698595
C52	C	0.588363	0.000188	0.032991
C53	C	0.921696	0.333521	0.366324
C54	C	1.255030	0.666855	0.699658
C55	C	0.362958	0.051954	0.044524
C56	C	0.696292	0.385287	0.377857
C57	C	1.029625	0.718620	0.711190
C58	C	0.290514	0.051978	0.043464
C59	C	0.623847	0.385311	0.376797
C60	C	0.957181	0.718645	0.710130
C61	C	0.247765	0.000278	0.091425
C62	C	0.581098	0.333612	0.424759
C63	C	0.914431	0.666945	0.758092
C64	C	0.277467	-0.051434	0.140459
C65	C	0.610800	0.281899	0.473792
C66	C	0.944134	0.615232	0.807125
C67	C	0.349912	-0.051453	0.141521
C68	C	0.683246	0.281880	0.474854
C69	C	1.016579	0.615214	0.808188
C70	C	0.392656	0.000244	0.093546
C71	C	0.725989	0.333578	0.426879
C72	C	1.059323	0.666911	0.760213
C73	C	0.124511	0.000300	0.153048
C74	C	0.457844	0.333634	0.486381
C75	C	0.791178	0.666967	0.819714
C76	C	0.052063	0.000305	0.151984
C77	C	0.385396	0.333638	0.485318
C78	C	0.718730	0.666971	0.818651
C79	C	0.069026	0.000311	0.025374
C80	C	0.402359	0.333644	0.358707
C81	C	0.735693	0.666977	0.692040
C82	C	0.141472	0.000297	0.026439
C83	C	0.474806	0.333631	0.359772
C84	C	0.808139	0.666964	0.693106
C85	C	0.169210	0.000297	0.090278
C86	C	0.502544	0.333630	0.423611
C87	C	0.835877	0.666963	0.756944
C88	C	0.820227	-0.588853	0.092484
C89	C	1.153561	-0.255520	0.425817
C90	C	1.486894	0.077813	0.759151
C91	C	0.762795	-0.551264	0.149533
C92	C	1.096128	-0.217931	0.482867
C93	C	1.429462	0.115403	0.816200
C94	C	0.762926	-0.448438	0.149741
C95	C	1.096259	-0.115105	0.483074
C96	C	1.429592	0.218229	0.816407
C97	C	0.820201	-0.410649	0.092492
C98	C	1.153534	-0.077316	0.425825
C99	C	1.486868	0.256017	0.759158
C100	C	0.892625	-0.447919	0.108094
C101	C	1.225959	-0.114585	0.441428
C102	C	1.559292	0.218748	0.774761
C103	C	0.892303	-0.550777	0.108500
C104	C	1.225637	-0.217443	0.441833
C105	C	1.558970	0.115890	0.775166
C106	C	0.805882	-0.550958	0.019661
C107	C	1.139215	-0.217625	0.352995
C108	C	1.472549	0.115709	0.686328
C109	C	0.804218	-0.448095	0.020153
C110	C	1.137551	-0.114762	0.353486
C111	C	1.470884	0.218572	0.686819
C112	C	0.820191	-0.309936	0.092495
C113	C	1.153524	0.023397	0.425828
C114	C	1.486857	0.356731	0.759161
C115	C	0.820242	-0.689567	0.092482
C116	C	1.153576	-0.356233	0.425816
C117	C	1.486909	-0.022900	0.759149
C118	C	0.947218	0.000289	0.087022
C119	C	1.280552	0.333622	0.420356
C120	C	1.613885	0.666956	0.753689
C121	C	1.024322	0.000318	0.088151
C122	C	1.357655	0.333651	0.421485
C123	C	1.690988	0.666985	0.754818
C124	C	0.825682	0.000252	-0.034516
C125	C	1.159016	0.333586	0.298817
C126	C	1.492349	0.666919	0.632150
C127	C	0.824555	0.000258	-0.111620
C128	C	1.157888	0.333591	0.221713
C129	C	1.491222	0.666924	0.555046
N130	N	0.820253	0.230149	0.092476
N131	N	1.153586	0.563483	0.425810
N132	N	1.486920	0.896816	0.759143
C133	C	0.814740	0.000247	0.219498
C134	C	1.148074	0.333580	0.552831
C135	C	1.481407	0.666914	0.886164
C136	C	0.815868	0.000247	0.296602
C137	C	1.149201	0.333581	0.629935
C138	C	1.482534	0.666914	0.963268
C139	C	0.760724	0.000249	0.860642
C140	C	1.094058	0.333582	1.193976
C141	C	1.427391	0.666915	1.527309
C142	C	0.759659	0.000241	0.788196
C143	C	1.092992	0.333574	1.121529
C144	C	1.426326	0.666908	1.454862
C145	C	0.822428	0.000261	0.743489
C146	C	1.155762	0.333594	1.076822
C147	C	1.489095	0.666927	1.410156
C148	C	0.886268	0.000265	0.771234
C149	C	1.219601	0.333598	1.104567
C150	C	1.552934	0.666931	1.437901
C151	C	0.887331	0.000263	0.843679
C152	C	1.220664	0.333597	1.177013
C153	C	1.553998	0.666930	1.510346
C154	C	0.869250	0.051973	0.622215
C155	C	1.202584	0.385306	0.955548
C156	C	1.535917	0.718639	1.288882
C157	C	0.868184	0.051980	0.549771
C158	C	1.201518	0.385313	0.883105
C159	C	1.534851	0.718646	1.216438
C160	C	0.819151	0.000261	0.520043
C161	C	1.152484	0.333594	0.853377
C162	C	1.485817	0.666928	1.186710
C163	C	0.771171	-0.051453	0.562769
C164	C	1.104505	0.281880	0.896102
C165	C	1.437838	0.615213	1.229436
C166	C	0.772235	-0.051455	0.635214
C167	C	1.105568	0.281879	0.968548
C168	C	1.438902	0.615212	1.301881
C169	C	0.821282	0.000262	0.664933
C170	C	1.154615	0.333595	0.998267
C171	C	1.487949	0.666928	1.331600
C172	C	0.754160	0.000242	0.413752
C173	C	1.087494	0.333576	0.747085
C174	C	1.420827	0.666909	1.080418
C175	C	0.753098	0.000229	0.341303
C176	C	1.086431	0.333563	0.674637
C177	C	1.419764	0.666896	1.007970
C178	C	0.879708	0.000262	0.324343
C179	C	1.213041	0.333595	0.657676
C180	C	1.546375	0.666929	0.991010
C181	C	0.880769	0.000266	0.396790
C182	C	1.214102	0.333599	0.730123
C183	C	1.547436	0.666933	1.063457
C184	C	0.817993	0.000260	0.441490
C185	C	1.151326	0.333594	0.774824
C186	C	1.484660	0.666927	1.108157
H187	H	0.593982	0.000201	0.211581
H188	H	0.927316	0.333534	0.544914
H189	H	1.260649	0.666867	0.878247
Br190	Br	0.973966	0.000279	0.881326
Br191	Br	1.307299	0.333612	1.214659
Br192	Br	1.640632	0.666945	1.547992
Br193	Br	0.715421	-0.407504	0.000405
Br194	Br	1.048754	-0.074171	0.333738
Br195	Br	1.382088	0.259163	0.667072
Br196	Br	0.777817	-0.594304	0.239110
Br197	Br	1.111150	-0.260971	0.572444
Br198	Br	1.444484	0.072363	0.905777
H199	H	0.754230	-0.576964	0.004602
H200	H	1.087563	-0.243631	0.337935
H201	H	1.420896	0.089703	0.671268
H202	H	0.708779	-0.576042	0.140426
H203	H	1.042112	-0.242708	0.473760
H204	H	1.375445	0.090625	0.807093
H205	H	0.936374	-0.423436	0.067638
H206	H	1.269707	-0.090103	0.400972
H207	H	1.603041	0.243230	0.734305
Br208	Br	-0.008601	0.000314	0.237177
Br209	Br	0.324732	0.333648	0.570511
Br210	Br	0.658066	0.666981	0.903844
H211	H	0.772062	-0.423821	0.203786
H212	H	1.105396	-0.090488	0.537119
H213	H	1.438729	0.242845	0.870453
Br214	Br	0.971455	0.000280	0.710563
Br215	Br	1.304789	0.333614	1.043896
Br216	Br	1.638122	0.666947	1.377229
H217	H	0.707679	0.000225	0.765608
H218	H	1.041012	0.333558	1.098941
H219	H	1.374345	0.666891	1.432274
Br220	Br	0.869445	-0.405240	-0.053895
Br221	Br	1.202779	-0.071907	0.279438
Br222	Br	1.536112	0.261426	0.612772
Br223	Br	0.219459	-0.121601	0.205557
Br224	Br	0.552792	0.211733	0.538890
Br225	Br	0.886125	0.545066	0.872223
Br226	Br	0.666462	0.000207	0.303659
Br227	Br	0.999795	0.333540	0.636992
Br228	Br	1.333129	0.666874	0.970326
Br229	Br	0.914272	-0.404964	0.195589
Br230	Br	1.247606	-0.071631	0.528923
Br231	Br	1.580939	0.261703	0.862256
Br232	Br	0.162160	0.000293	0.239683
Br233	Br	0.495493	0.333626	0.573017
Br234	Br	0.828826	0.666959	0.906350
H235	H	0.847767	-0.575263	-0.022790
H236	H	1.181101	-0.241930	0.310543
H237	H	1.514434	0.091403	0.643876
Br238	Br	0.935809	0.122158	0.662551
Br239	Br	1.269142	0.455492	0.995885
Br240	Br	1.602476	0.788825	1.329218
H241	H	0.462556	0.000218	0.209652
H242	H	0.795890	0.333551	0.542986
H243	H	1.129223	0.666884	0.876319
Br244	Br	0.031379	0.000316	-0.061258
Br245	Br	0.364712	0.333649	0.272076
Br246	Br	0.698045	0.666983	0.605409
Br247	Br	0.913431	-0.590746	0.197006
Br248	Br	1.246765	-0.257413	0.530339
Br249	Br	1.580098	0.075920	0.863672
Br250	Br	0.675529	0.000242	0.921304
Br251	Br	1.008862	0.333576	1.254637
Br252	Br	1.342196	0.666909	1.587971
H253	H	0.266336	0.094089	0.003541
H254	H	0.599669	0.427422	0.336874
H255	H	0.933003	0.760756	0.670207
Br256	Br	0.202138	0.000282	-0.058751
Br257	Br	0.535471	0.333616	0.274582
Br258	Br	0.868804	0.666949	0.607915
Br259	Br	0.707125	-0.121635	0.693197
Br260	Br	1.040458	0.211698	1.026531
Br261	Br	1.373792	0.545032	1.359864
H262	H	0.907250	0.094090	0.514990
H263	H	1.240584	0.427424	0.848323
H264	H	1.573917	0.760757	1.181656
Br265	Br	0.390222	-0.121633	0.208061
Br266	Br	0.723555	0.211701	0.541394
Br267	Br	1.056889	0.545034	0.874727
Br268	Br	0.673172	-0.406440	0.134351
Br269	Br	1.006505	-0.073107	0.467684
Br270	Br	1.339838	0.260226	0.801018
Br271	Br	0.704622	-0.121650	0.522434
Br272	Br	1.037955	0.211683	0.855767
Br273	Br	1.371289	0.545016	1.189100
H274	H	0.397760	0.094059	0.005466
H275	H	0.731093	0.427393	0.338799
H276	H	1.064427	0.760726	0.672133
H277	H	0.493322	0.000231	-0.020044
H278	H	0.826655	0.333564	0.313289
H279	H	1.159989	0.666898	0.646623
Br280	Br	0.965583	-0.592220	0.041782
Br281	Br	1.298916	-0.258887	0.375116
Br282	Br	1.632249	0.074447	0.708449
H283	H	0.703044	0.000231	0.450149
H284	H	1.036378	0.333565	0.783482
H285	H	1.369711	0.666898	1.116815
Br286	Br	0.967402	0.000294	0.434437
Br287	Br	1.300735	0.333628	0.767770
Br288	Br	1.634068	0.666961	1.101103
H289	H	0.930816	0.000275	0.287943
H290	H	1.264149	0.333608	0.621277
H291	H	1.597483	0.666941	0.954610
H292	H	0.624757	0.000178	-0.018124
H293	H	0.958090	0.333511	0.315209
H294	H	1.291423	0.666845	0.648543
