data_functionalizedCrystal
_audit_creation_method	'MofGen! by Chris Wilmer'
_symmetry_space_group_name_H-M	'P1'
_symmetry_Int_Tables_number	1
_symmetry_cell_setting	triclinic
loop_
_symmetry_equiv_pos_as_xyz
  x,y,z
_cell_length_a	14.971482
_cell_length_b	14.971486
_cell_length_c	8.140239
_cell_angle_alpha	89.996272
_cell_angle_beta	90.002167
_cell_angle_gamma	96.386632
loop_
_atom_site_label
_atom_site_type_symbol
_atom_site_fract_x
_atom_site_fract_y
_atom_site_fract_z
O1	O	1.186945	-0.116545	0.136593
O2	O	0.926544	-0.130508	0.136601
O3	O	1.063724	0.006674	0.136585
O4	O	1.049765	-0.253727	0.136609
O5	O	1.063716	0.006675	-0.136642
O6	O	0.926536	-0.130506	-0.136626
O7	O	1.186937	-0.116544	-0.136634
Zn8	Zn	1.056736	-0.123525	-0.180011
Zn9	Zn	1.056745	-0.123527	0.179978
O10	O	1.049757	-0.253725	-0.136618
C11	C	0.893215	-0.129883	-0.000012
C12	C	0.793918	-0.128014	-0.000009
C13	C	0.747269	-0.127132	-0.148947
C14	C	0.653971	-0.125362	-0.148949
C15	C	0.607322	-0.124479	-0.000011
C16	C	0.653978	-0.125357	0.148939
C17	C	0.747275	-0.127122	0.148939
C18	C	0.459516	-0.121682	0.148928
C19	C	0.366212	-0.119919	0.148928
C20	C	0.366211	-0.119922	-0.148960
C21	C	0.459509	-0.121686	-0.148960
C22	C	0.506158	-0.122567	-0.000009
C23	C	1.063096	0.039999	-0.000028
C24	C	1.061225	0.139296	-0.000026
C25	C	1.220266	-0.117168	-0.000018
C26	C	1.319563	-0.119038	-0.000010
N27	N	1.056735	-0.123523	-0.425693
C28	C	1.050385	-0.287051	-0.000001
C29	C	1.052256	-0.386348	0.000008
C30	C	1.141814	0.196522	-0.000030
C31	C	1.140051	0.289822	-0.000013
C32	C	1.057698	0.325893	-0.000005
C33	C	0.977102	0.268659	0.000004
C34	C	0.978866	0.175362	-0.000001
C35	C	0.973431	0.463122	0.000010
C36	C	0.971667	0.556426	0.000011
C37	C	1.134616	0.577582	-0.000003
C38	C	1.136380	0.484284	-0.000007
C39	C	1.055784	0.427057	-0.000002
N40	N	1.056753	-0.123522	0.425660
H41	H	0.785243	-0.127859	-0.270229
H42	H	0.907801	0.416529	0.000018
C43	C	0.890212	0.112412	-0.000001
N44	N	0.823434	0.065000	0.000003
H45	H	1.208876	0.167161	-0.000047
H46	H	0.910049	0.298036	0.000021
C47	C	0.602659	-0.124413	-0.312792
N48	N	0.564010	-0.123705	-0.436207
H49	H	0.497487	-0.122411	-0.270238
H50	H	0.328225	-0.119205	-0.270240
C51	C	1.223273	0.640534	0.000004
N52	N	1.290046	0.687953	0.000006
C53	C	1.226973	0.444608	-0.000025
N54	N	1.295209	0.414725	-0.000033
H55	H	0.328232	-0.119201	0.270206
C56	C	0.881074	0.596102	0.000042
N57	N	0.812838	0.625986	0.000070
C58	C	0.510827	-0.122655	0.312781
N59	N	0.549474	-0.123395	0.436194
C60	C	0.798588	-0.128093	0.312782
N61	N	0.837236	-0.128822	0.436194
H62	H	0.615990	-0.124632	0.270206
H63	H	1.205675	0.336413	-0.000020
