data_functionalizedCrystal
_audit_creation_method	'MofGen! by Chris Wilmer'
_symmetry_space_group_name_H-M	'P1'
_symmetry_Int_Tables_number	1
_symmetry_cell_setting	triclinic
loop_
_symmetry_equiv_pos_as_xyz
  x,y,z
_cell_length_a	17.699083
_cell_length_b	17.699103
_cell_length_c	16.176319
_cell_angle_alpha	89.988235
_cell_angle_beta	89.998611
_cell_angle_gamma	83.287038
loop_
_atom_site_label
_atom_site_type_symbol
_atom_site_fract_x
_atom_site_fract_y
_atom_site_fract_z
O1	O	-1.004086	-0.095712	0.068640
O2	O	-0.783708	-0.108165	0.068668
O3	O	-0.900115	0.008250	0.068637
O4	O	-0.887678	-0.212127	0.068670
O5	O	-0.900099	0.008257	-0.068856
O6	O	-0.783692	-0.108157	-0.068825
O7	O	-1.004070	-0.095705	-0.068853
Cu8	Cu	-0.893879	-0.101930	-0.081394
Cu9	Cu	-0.893898	-0.101939	0.081208
O10	O	-0.887662	-0.212119	-0.068823
C11	C	-0.755503	-0.107715	-0.000075
C12	C	-0.671485	-0.106376	-0.000065
C13	C	-0.899659	0.036450	-0.000112
C14	C	-0.898315	0.120468	-0.000118
C15	C	-1.032275	-0.096155	-0.000108
C16	C	-1.116293	-0.097493	-0.000113
C17	C	-0.622869	-0.174709	-0.000055
C18	C	-0.543925	-0.173447	-0.000066
C19	C	-0.513600	-0.103851	-0.000081
C20	C	-0.562222	-0.035513	-0.000094
C21	C	-0.641164	-0.036776	-0.000089
C22	C	-0.243859	-0.030418	-0.000115
C23	C	-0.164910	-0.029160	-0.000117
C24	C	-0.146620	-0.167088	-0.000092
C25	C	-0.225562	-0.168351	-0.000087
C26	C	-0.274177	-0.100014	-0.000104
C27	C	-0.359777	-0.101383	-0.000094
C28	C	-0.428002	-0.102480	-0.000085
C29	C	-0.888119	-0.240320	-0.000072
C30	C	-0.889463	-0.324337	-0.000060
C31	C	-0.890099	0.636175	0.074884
C32	C	-0.891361	0.557232	0.074877
C33	C	-0.891982	0.517777	-0.000076
C34	C	-0.891349	0.557271	-0.075026
C35	C	-0.890092	0.636214	-0.075017
C36	C	-0.896418	0.238905	-0.075061
C37	C	-0.897673	0.159956	-0.075063
C38	C	-0.897688	0.159923	0.074833
C39	C	-0.896431	0.238865	0.074842
C40	C	-0.895802	0.278353	-0.000108
C41	C	-0.894434	0.363952	-0.000099
C42	C	-0.893344	0.432178	-0.000086
N43	N	-0.893872	-0.101924	-0.195759
C44	C	-0.945432	-0.050396	-0.239037
C45	C	-0.945436	-0.050396	-0.325584
C46	C	-0.893882	-0.101926	-0.368851
C47	C	-0.842316	-0.153456	-0.325567
C48	C	-0.842309	-0.153453	-0.239022
C49	C	-0.842342	-0.153470	-0.674596
C50	C	-0.842354	-0.153471	-0.761147
C51	C	-0.945469	-0.050413	-0.761157
C52	C	-0.945462	-0.050410	-0.674612
C53	C	-0.893894	-0.101936	-0.631336
C54	C	-0.893889	-0.101936	-0.537491
C55	C	-0.893890	-0.101931	-0.462694
N56	N	-0.893912	-0.101940	0.195573
H57	H	-0.647553	-0.231382	-0.000042
O58	O	-0.099501	-0.233544	-0.000047
C59	C	-0.089694	-0.370488	-0.000065
C60	C	-0.143138	-0.295287	-0.000101
H61	H	-0.124953	-0.420427	-0.000126
H62	H	-0.052289	-0.373400	0.057486
H63	H	-0.052265	-0.373306	-0.057595
H64	H	-0.180614	-0.292420	0.057390
H65	H	-0.180492	-0.292407	-0.057690
H66	H	-0.800355	-0.195426	-0.639367
H67	H	-0.680747	0.018868	-0.000096
O68	O	-0.496592	-0.239755	-0.000082
C69	C	-0.366870	-0.298944	-0.000013
C70	C	-0.420388	-0.223791	-0.000018
H71	H	-0.305248	-0.286063	0.000056
H72	H	-0.377823	-0.333218	-0.057555
H73	H	-0.377928	-0.333194	0.057527
H74	H	-0.409362	-0.189479	-0.057519
H75	H	-0.409424	-0.189574	0.057561
O76	O	-0.995451	-0.000372	-0.367751
C77	C	-1.041194	0.045272	-0.501084
C78	C	-0.984499	-0.011411	-0.453434
H79	H	-1.032370	0.036356	-0.570367
H80	H	-1.031446	0.105899	-0.484145
H81	H	-1.101783	0.035489	-0.484009
H82	H	-0.923887	-0.001698	-0.470483
H83	H	-0.994313	-0.072019	-0.470377
H84	H	-0.895922	0.270985	0.135876
H85	H	-0.987444	-0.008451	-0.639386
H86	H	-0.889586	0.668292	0.135920
O87	O	-0.792300	-0.203612	-0.197016
C88	C	-0.747677	-0.335271	-0.170539
C89	C	-0.804370	-0.278550	-0.218146
H90	H	-0.757405	-0.395870	-0.187619
H91	H	-0.756524	-0.326482	-0.101242
H92	H	-0.687086	-0.325444	-0.187558
H93	H	-0.864983	-0.288343	-0.201197
H94	H	-0.795456	-0.287353	-0.287432
O95	O	-0.291043	0.035985	0.000021
C96	C	-0.330786	0.153510	0.071208
C97	C	-0.277316	0.078326	0.071166
H98	H	-0.319696	0.187772	0.128714
H99	H	-0.392434	0.140709	0.071263
H100	H	-0.319775	0.187736	0.013635
H101	H	-0.288259	0.044063	0.128729
H102	H	-0.215685	0.091181	0.071068
O103	O	-0.532729	0.032074	0.000038
C104	C	-0.454181	0.113526	0.071228
C105	C	-0.487543	0.036965	0.071189
H106	H	-0.417628	0.117498	0.128738
H107	H	-0.502460	0.162180	0.071273
H108	H	-0.417711	0.117556	0.013660
H109	H	-0.524003	0.032860	0.128747
H110	H	-0.439228	-0.011653	0.071100
O111	O	-0.891940	0.518985	0.147752
C112	C	-0.891860	0.527287	0.296435
C113	C	-0.891184	0.570692	0.213961
H114	H	-0.891266	0.569075	0.349987
H115	H	-0.839491	0.483326	0.300240
H116	H	-0.945385	0.497326	0.300131
H117	H	-0.837695	0.600698	0.210209
H118	H	-0.943589	0.614611	0.210191
O119	O	-0.792131	-0.203435	-0.367560
C120	C	-0.660454	-0.247974	-0.394012
C121	C	-0.717206	-0.191317	-0.346420
H122	H	-0.599865	-0.238206	-0.376925
H123	H	-0.669252	-0.239126	-0.463312
H124	H	-0.670240	-0.308577	-0.376988
H125	H	-0.707455	-0.130691	-0.363375
H126	H	-0.708394	-0.200231	-0.277132
H127	H	-0.987456	-0.008455	-0.796402
O128	O	-0.135415	0.038431	0.000009
C129	C	-0.056863	0.119884	0.071192
C130	C	-0.090231	0.043325	0.071160
H131	H	-0.020311	0.123859	0.128703
H132	H	-0.105139	0.168541	0.071232
H133	H	-0.020392	0.123907	0.013624
H134	H	-0.126693	0.039228	0.128718
H135	H	-0.041918	-0.005295	0.071077
H136	H	-0.898203	0.127763	0.135861
O137	O	-0.898309	0.121751	-0.147951
C138	C	-0.898117	0.130104	-0.296634
C139	C	-0.897417	0.173469	-0.214155
H140	H	-0.897380	0.171897	-0.350181
H141	H	-0.951660	0.100182	-0.300444
H142	H	-0.845767	0.086112	-0.300330
H143	H	-0.949730	0.217497	-0.210404
H144	H	-0.843840	0.203339	-0.210379
O145	O	-0.792163	-0.203451	-0.803143
C146	C	-0.660486	-0.247979	-0.829603
C147	C	-0.717239	-0.191327	-0.782007
H148	H	-0.599898	-0.238207	-0.812519
H149	H	-0.669288	-0.239130	-0.898903
H150	H	-0.670266	-0.308584	-0.812580
H151	H	-0.707493	-0.130700	-0.798960
H152	H	-0.708423	-0.200243	-0.712719
O153	O	-0.895794	0.277372	-0.147790
C154	C	-0.893716	0.398982	-0.214223
C155	C	-0.894466	0.355514	-0.131795
H156	H	-0.892627	0.462165	-0.201320
H157	H	-0.946898	0.390561	-0.251243
H158	H	-0.841008	0.376383	-0.251136
H159	H	-0.947139	0.378085	-0.094816
H160	H	-0.841249	0.363934	-0.094838
O161	O	-0.891969	0.519067	-0.147909
C162	C	-0.891738	0.527428	-0.296591
C163	C	-0.891065	0.570789	-0.214109
H164	H	-0.890991	0.569225	-0.350135
H165	H	-0.945276	0.497501	-0.300423
H166	H	-0.839384	0.483441	-0.300275
H167	H	-0.943382	0.614813	-0.210370
H168	H	-0.837492	0.600665	-0.210312
O169	O	-0.889604	0.674627	-0.147797
C170	C	-0.953695	0.772500	-0.234769
C171	C	-0.954347	0.729045	-0.152325
H172	H	-1.006025	0.816518	-0.238450
H173	H	-0.954400	0.730783	-0.288376
H174	H	-0.900136	0.802404	-0.238493
H175	H	-1.007897	0.699138	-0.148520
H176	H	-0.953601	0.770797	-0.098757
O177	O	-0.995541	-0.000266	-0.197138
C178	C	-1.097848	0.101930	-0.206293
C179	C	-1.041130	0.045206	-0.253842
H180	H	-1.134732	0.138698	-0.252117
H181	H	-1.065279	0.139754	-0.165812
H182	H	-1.135561	0.069287	-0.165738
H183	H	-1.003403	0.077786	-0.294442
H184	H	-1.073747	0.007383	-0.294271
H185	H	-0.250248	-0.225023	-0.000071
