data_functionalizedCrystal
_audit_creation_method	'MofGen! by Chris Wilmer'
_symmetry_space_group_name_H-M	'P1'
_symmetry_Int_Tables_number	1
_symmetry_cell_setting	triclinic
loop_
_symmetry_equiv_pos_as_xyz
  x,y,z
_cell_length_a	14.519709
_cell_length_b	10.654541
_cell_length_c	9.130307
_cell_angle_alpha	89.997370
_cell_angle_beta	89.993782
_cell_angle_gamma	84.082037
loop_
_atom_site_label
_atom_site_type_symbol
_atom_site_fract_x
_atom_site_fract_y
_atom_site_fract_z
O1	O	-0.129523	-1.666597	0.121758
O2	O	-0.141866	-1.301000	0.121771
O3	O	-0.001506	-1.493492	0.121751
O4	O	-0.269882	-1.474105	0.121778
O5	O	-0.001500	-1.493477	-0.121848
O6	O	-0.141860	-1.300985	-0.121828
O7	O	-0.129516	-1.666583	-0.121841
Cu8	Cu	-0.135688	-1.483783	-0.144077
Cu9	Cu	-0.135695	-1.483800	0.144007
O10	O	-0.269876	-1.474091	-0.121821
C11	C	-0.140957	-1.254203	-0.000027
C12	C	-0.138247	-1.114786	-0.000022
C13	C	0.032862	-1.492581	-0.000049
C14	C	0.135257	-1.489874	-0.000049
C15	C	-0.304244	-1.475002	-0.000018
C16	C	-0.406639	-1.477709	-0.000008
C17	C	0.510204	-1.479906	-0.000011
C18	C	0.405882	-1.482674	-0.000022
C19	C	0.322734	-1.484890	-0.000032
C20	C	0.218405	-1.487658	-0.000040
C21	C	-0.130425	-1.713380	-0.000040
C22	C	-0.133135	-1.852797	-0.000035
N23	N	-0.135682	-1.483780	-0.346700
C24	C	-0.306085	-1.085201	0.000013
C25	C	-0.388727	-1.004912	0.000036
C26	C	-0.386175	-0.873919	0.000038
C27	C	-0.300972	-0.823213	0.000011
C28	C	-0.218330	-0.903502	-0.000012
C29	C	-0.220891	-1.034496	-0.000009
C30	C	-0.050493	-0.933086	-0.000058
C31	C	-0.053043	-1.064080	-0.000049
C32	C	0.034710	-0.882380	-0.000085
C33	C	0.117354	-0.962669	-0.000098
C34	C	0.114798	-1.093670	-0.000097
C35	C	0.029599	-1.144369	-0.000072
C36	C	-0.022763	-1.331221	-0.346766
C37	C	0.033698	-1.254955	-0.423465
C38	C	0.033699	-1.254973	-0.576799
C39	C	-0.022770	-1.331262	-0.653436
C40	C	-0.079232	-1.407529	-0.576736
C41	C	-0.079224	-1.407505	-0.423399
C42	C	-0.192154	-1.560079	-0.576670
C43	C	-0.192151	-1.560069	-0.423337
C44	C	-0.248624	-1.636369	-0.653308
C45	C	-0.305082	-1.712643	-0.576608
C46	C	-0.305079	-1.712623	-0.423265
C47	C	-0.248613	-1.636336	-0.346637
N48	N	-0.135693	-1.483813	0.346630
H49	H	-0.308172	-1.191861	0.000044
C50	C	0.211069	-0.906892	-0.000127
C51	C	0.213878	-0.762804	-0.000140
C52	C	0.307595	-0.707022	-0.000166
C53	C	0.398502	-0.795328	-0.000181
C54	C	0.395696	-0.939425	-0.000168
C55	C	0.301979	-0.995207	-0.000142
H56	H	0.146580	-0.697427	-0.000129
H57	H	0.309671	-0.600352	-0.000176
H58	H	0.467876	-0.754035	-0.000201
H59	H	0.462994	-1.004802	-0.000179
H60	H	0.299903	-1.101877	-0.000133
C61	C	0.095814	-1.171042	-0.339161
C62	C	0.170524	-1.231275	-0.233754
C63	C	0.232637	-1.147361	-0.149454
C64	C	0.220039	-1.003214	-0.170561
C65	C	0.145326	-0.942973	-0.275973
C66	C	0.083213	-1.026887	-0.360272
H67	H	0.179852	-1.337988	-0.218125
H68	H	0.287944	-1.191956	-0.071422
H69	H	0.266019	-0.941096	-0.108158
H70	H	0.135998	-0.836260	-0.291601
H71	H	0.027905	-0.982293	-0.438305
H72	H	0.182096	-1.159035	-0.000122
C73	C	0.095800	-1.171077	-0.661182
C74	C	0.170501	-1.231334	-0.766609
C75	C	0.232599	-1.147437	-0.850995
C76	C	0.219997	-1.003284	-0.829954
C77	C	0.145293	-0.943020	-0.724523
C78	C	0.083194	-1.026917	-0.640137
H79	H	0.179833	-1.338051	-0.782188
H80	H	0.287900	-1.192049	-0.929042
H81	H	0.265966	-0.941179	-0.892422
H82	H	0.135960	-0.836303	-0.708944
H83	H	0.027893	-0.982305	-0.562090
H84	H	-0.022774	-1.331259	-0.778288
H85	H	-0.458098	-1.046212	0.000054
H86	H	-0.453470	-0.808546	0.000046
H87	H	-0.298901	-0.716550	-0.000006
H88	H	-0.351062	-1.774722	-0.360825
H89	H	0.036782	-0.775717	-0.000092
H90	H	0.027510	-1.251028	-0.000055
H91	H	-0.022751	-1.331208	-0.221913
H92	H	-0.248624	-1.636372	-0.778160
H93	H	-0.351059	-1.774746	-0.639018
H94	H	-0.248603	-1.636315	-0.221785
