data_functionalizedCrystal
_audit_creation_method	'MofGen! by Chris Wilmer'
_symmetry_space_group_name_H-M	'P1'
_symmetry_Int_Tables_number	1
_symmetry_cell_setting	triclinic
loop_
_symmetry_equiv_pos_as_xyz
  x,y,z
_cell_length_a	14.853566
_cell_length_b	11.792254
_cell_length_c	13.930277
_cell_angle_alpha	89.995290
_cell_angle_beta	89.995631
_cell_angle_gamma	83.916506
loop_
_atom_site_label
_atom_site_type_symbol
_atom_site_fract_x
_atom_site_fract_y
_atom_site_fract_z
O1	O	1.196951	0.148173	-0.079768
O2	O	1.530285	0.481507	0.253566
O3	O	1.863618	0.814840	0.586899
O4	O	0.934561	0.165827	-0.079784
O5	O	1.267894	0.499160	0.253550
O6	O	1.601228	0.832494	0.586883
O7	O	1.072118	-0.008209	-0.079769
O8	O	1.405451	0.325125	0.253565
O9	O	1.738784	0.658458	0.586898
O10	O	1.059395	0.322209	-0.079783
O11	O	1.392728	0.655542	0.253550
O12	O	1.726061	0.988876	0.586884
O13	O	1.072098	-0.008212	0.079893
O14	O	1.405432	0.325121	0.413227
O15	O	1.738765	0.658454	0.746560
O16	O	0.934542	0.165823	0.079878
O17	O	1.267875	0.499156	0.413211
O18	O	1.601208	0.832490	0.746545
O19	O	1.196932	0.148170	0.079894
O20	O	1.530265	0.481503	0.413227
O21	O	1.863599	0.814836	0.746561
Zn22	Zn	1.065734	0.156996	0.105236
Zn23	Zn	1.399067	0.490329	0.438569
Zn24	Zn	1.732401	0.823662	0.771902
Zn25	Zn	1.065759	0.157001	-0.105126
Zn26	Zn	1.399093	0.490334	0.228208
Zn27	Zn	1.732426	0.823667	0.561541
O28	O	1.059375	0.322205	0.079879
O29	O	1.392709	0.655539	0.413212
O30	O	1.726042	0.988872	0.746546
C31	C	0.900960	0.165025	0.000045
C32	C	1.234293	0.498359	0.333379
C33	C	1.567626	0.831692	0.666712
C34	C	0.800866	0.162629	0.000039
C35	C	1.134200	0.495963	0.333373
C36	C	1.467533	0.829296	0.666706
C37	C	0.377652	0.152496	-0.086975
C38	C	0.710985	0.485829	0.246358
C39	C	1.044319	0.819163	0.579692
C40	C	0.377653	0.152493	0.087094
C41	C	0.710986	0.485826	0.420428
C42	C	1.044319	0.819159	0.753761
C43	C	0.471695	0.154743	0.087091
C44	C	0.805029	0.488076	0.420425
C45	C	1.138362	0.821409	0.753758
C46	C	0.518721	0.155871	0.000054
C47	C	0.852054	0.489205	0.333387
C48	C	1.185388	0.822538	0.666720
C49	C	0.471703	0.154750	-0.086981
C50	C	0.805037	0.488083	0.246353
C51	C	1.138370	0.821416	0.579686
C52	C	0.518719	0.155876	0.174124
C53	C	0.852052	0.489210	0.507458
C54	C	1.185386	0.822543	0.840791
C55	C	0.612767	0.158128	0.174125
C56	C	0.946101	0.491461	0.507458
C57	C	1.279434	0.824794	0.840791
C58	C	0.659795	0.159248	0.087086
C59	C	0.993129	0.492582	0.420419
C60	C	1.326462	0.825915	0.753753
C61	C	0.612772	0.158125	0.000048
C62	C	0.946106	0.491459	0.333381
C63	C	1.279439	0.824792	0.666715
C64	C	0.659798	0.159254	-0.086990
C65	C	0.993131	0.492587	0.246344
C66	C	1.326464	0.825920	0.579677
C67	C	0.612777	0.158123	-0.174029
C68	C	0.946110	0.491456	0.159305
C69	C	1.279444	0.824789	0.492638
C70	C	0.518731	0.155870	-0.174019
C71	C	0.852065	0.489204	0.159314
C72	C	1.185398	0.822537	0.492647
C73	C	0.753841	0.161501	0.087077
C74	C	1.087174	0.494834	0.420410
C75	C	1.420508	0.828167	0.753744
C76	C	0.753849	0.161508	-0.086995
C77	C	1.087182	0.494841	0.246338
C78	C	1.420516	0.828174	0.579671
C79	C	1.071307	-0.050496	0.000062
C80	C	1.404640	0.282837	0.333395
C81	C	1.737973	0.616170	0.666729
C82	C	1.068908	-0.176495	0.000061
C83	C	1.402241	0.156839	0.333394
C84	C	1.735574	0.490172	0.666728
C85	C	1.066959	-0.278819	0.000057
C86	C	1.400292	0.054514	0.333391
C87	C	1.733625	0.387848	0.666724
C88	C	1.064521	-0.407191	0.000048
C89	C	1.397855	-0.073857	0.333382
C90	C	1.731188	0.259476	0.666715
C91	C	1.230534	0.148971	0.000063
C92	C	1.563867	0.482305	0.333396
C93	C	1.897200	0.815638	0.666730
C94	C	1.330627	0.151367	0.000063
C95	C	1.663960	0.484701	0.333396
C96	C	1.997293	0.818034	0.666729
C97	C	1.060186	0.364493	0.000046
C98	C	1.393520	0.697826	0.333380
C99	C	1.726853	1.031160	0.666713
C100	C	1.062585	0.490491	0.000041
C101	C	1.395919	0.823824	0.333374
C102	C	1.729252	1.157158	0.666708
N103	N	1.065723	0.156992	0.248802
N104	N	1.399057	0.490325	0.582135
N105	N	1.732390	0.823658	0.915469
N106	N	1.065777	0.156996	-0.248692
N107	N	1.399110	0.490329	0.084642
N108	N	1.732444	0.823663	0.417975
C109	C	1.004847	0.234033	0.701065
C110	C	1.338180	0.567367	1.034398
C111	C	1.671513	0.900700	1.367731
C112	C	1.126697	0.079959	0.701047
C113	C	1.460030	0.413293	1.034381
C114	C	1.793363	0.746626	1.367714
C115	C	1.126686	0.079956	0.600552
C116	C	1.460019	0.413289	0.933885
C117	C	1.793353	0.746622	1.267218
C118	C	1.065756	0.156993	0.550308
C119	C	1.399089	0.490327	0.883641
C120	C	1.732422	0.823660	1.216974
C121	C	1.004836	0.234034	0.600559
C122	C	1.338169	0.567368	0.933893
C123	C	1.671502	0.900701	1.267226
C124	C	1.187611	0.002924	0.550292
C125	C	1.520944	0.336257	0.883626
C126	C	1.854277	0.669590	1.216959
C127	C	1.187603	0.002918	0.449790
C128	C	1.520936	0.336251	0.783124
C129	C	1.854270	0.669584	1.116457
C130	C	1.126667	0.079951	0.399545
C131	C	1.460001	0.413284	0.732878
C132	C	1.793334	0.746618	1.066211
C133	C	1.065745	0.156994	0.449803
C134	C	1.399078	0.490328	0.783136
C135	C	1.732411	0.823661	1.116469
C136	C	1.004814	0.234032	0.399559
C137	C	1.338148	0.567365	0.732892
C138	C	1.671481	0.900699	1.066225
C139	C	0.943886	0.311071	0.449815
C140	C	1.277220	0.644404	0.783148
C141	C	1.610553	0.977738	1.116482
C142	C	0.943900	0.311068	0.550314
C143	C	1.277234	0.644401	0.883647
C144	C	1.610567	0.977734	1.216980
C145	C	1.126654	0.079954	0.299046
C146	C	1.459987	0.413288	0.632379
C147	C	1.793320	0.746621	0.965712
C148	C	1.004803	0.234033	0.299054
C149	C	1.338137	0.567366	0.632387
C150	C	1.671470	0.900700	0.965720
H151	H	0.792131	0.162423	-0.157873
H152	H	1.125464	0.495756	0.175460
H153	H	1.458797	0.829089	0.508794
H154	H	0.651077	0.159049	-0.244895
H155	H	0.984410	0.492383	0.088439
H156	H	1.317743	0.825716	0.421772
H157	H	0.894280	0.373800	0.408895
H158	H	1.227614	0.707134	0.742228
H159	H	1.560947	1.040467	1.075561
H160	H	1.237212	-0.059812	0.408878
H161	H	1.570546	0.273521	0.742211
H162	H	1.903879	0.606855	1.075545
H163	H	0.339358	0.151582	0.157956
H164	H	0.672691	0.484915	0.491290
H165	H	1.006025	0.818248	0.824623
H166	H	0.955237	0.296755	0.741986
H167	H	1.288571	0.630088	1.075319
H168	H	1.621904	0.963421	1.408652
H169	H	0.955183	0.296763	0.258151
H170	H	1.288516	0.630096	0.591484
H171	H	1.621850	0.963429	0.924818
H172	H	0.480423	0.154965	0.244986
H173	H	0.813756	0.488298	0.578319
H174	H	1.147090	0.821632	0.911652
H175	H	0.480439	0.154948	-0.244882
H176	H	0.813772	0.488281	0.088451
H177	H	1.147106	0.821615	0.421785
H178	H	1.176309	0.017243	0.741959
H179	H	1.509642	0.350576	1.075292
H180	H	1.842976	0.683910	1.408626
H181	H	1.237223	-0.059793	0.591204
H182	H	1.570556	0.273541	0.924537
H183	H	1.903889	0.606874	1.257871
H184	H	0.894296	0.373791	0.591239
H185	H	1.227629	0.707124	0.924572
H186	H	1.560963	1.040458	1.257905
H187	H	0.792120	0.162433	0.157943
H188	H	1.125453	0.495766	0.491276
H189	H	1.458786	0.829099	0.824609
H190	H	1.176264	0.017235	0.258132
H191	H	1.509597	0.350569	0.591465
H192	H	1.842931	0.683902	0.924798
H193	H	0.651044	0.159046	0.244997
H194	H	0.984377	0.492380	0.578331
H195	H	1.317711	0.825713	0.911664
H196	H	0.339364	0.151570	-0.157840
H197	H	0.672698	0.484904	0.175493
H198	H	1.006031	0.818237	0.508827
