data_functionalizedCrystal
_audit_creation_method	'MofGen! by Chris Wilmer'
_symmetry_space_group_name_H-M	'P1'
_symmetry_Int_Tables_number	1
_symmetry_cell_setting	triclinic
loop_
_symmetry_equiv_pos_as_xyz
  x,y,z
_cell_length_a	19.188923
_cell_length_b	26.809956
_cell_length_c	19.188930
_cell_angle_alpha	90.000789
_cell_angle_beta	96.856820
_cell_angle_gamma	89.989124
loop_
_atom_site_label
_atom_site_type_symbol
_atom_site_fract_x
_atom_site_fract_y
_atom_site_fract_z
O1	O	-0.926154	0.041509	0.087132
O2	O	-0.426154	0.541509	0.587132
O3	O	-0.722842	0.041505	0.098872
O4	O	-0.222842	0.541505	0.598872
O5	O	-0.830365	0.041498	-0.008654
O6	O	-0.330365	0.541498	0.491346
O7	O	-0.818631	0.041517	0.194658
O8	O	-0.318631	0.541517	0.694658
O9	O	-0.830345	-0.041462	-0.008638
O10	O	-0.330345	0.458538	0.491362
O11	O	-0.722821	-0.041454	0.098888
O12	O	-0.222821	0.458546	0.598888
O13	O	-0.926133	-0.041450	0.087148
O14	O	-0.426133	0.458550	0.587148
Zn15	Zn	-0.824474	-0.054624	0.093021
Zn16	Zn	-0.324474	0.445376	0.593021
Zn17	Zn	-0.824501	0.054679	0.092999
Zn18	Zn	-0.324501	0.554679	0.592999
O19	O	-0.818610	-0.041442	0.194674
O20	O	-0.318610	0.458558	0.694674
C21	C	-0.696820	0.000025	0.098501
C22	C	-0.196820	0.500025	0.598501
C23	C	-0.619316	0.000024	0.097362
C24	C	-0.119316	0.500024	0.597362
C25	C	-0.057545	0.000022	0.152831
C26	C	0.442455	0.500022	0.652831
C27	C	-0.130368	0.000026	0.153907
C28	C	0.369632	0.500026	0.653907
C29	C	-0.175303	0.000020	0.090814
C30	C	0.324697	0.500020	0.590814
C31	C	-0.147409	0.000022	0.026641
C32	C	0.352591	0.500022	0.526641
C33	C	-0.074586	0.000023	0.025567
C34	C	0.425414	0.500023	0.525567
N35	N	-0.295973	-0.028223	0.045143
N36	N	0.204027	0.471777	0.545143
N37	N	-0.365150	-0.028225	0.046167
N38	N	0.134850	0.471775	0.546167
C39	C	-0.394712	0.000017	0.094046
C40	C	0.105288	0.500017	0.594046
N41	N	-0.352482	0.028255	0.140873
N42	N	0.147518	0.528255	0.640873
N43	N	-0.283298	0.028255	0.139850
N44	N	0.216702	0.528255	0.639850
C45	C	-0.254267	0.000019	0.091972
C46	C	0.245733	0.500019	0.591972
C47	C	-0.501561	0.000022	0.159382
C48	C	-0.001561	0.500022	0.659382
C49	C	-0.574386	0.000029	0.160455
C50	C	-0.074386	0.500029	0.660455
C51	C	-0.591425	0.000020	0.033188
C52	C	-0.091425	0.500020	0.533188
C53	C	-0.518602	0.000018	0.032116
C54	C	-0.018602	0.500018	0.532116
C55	C	-0.473674	0.000017	0.095216
C56	C	0.026326	0.500017	0.595216
N57	N	-0.824461	-0.129220	0.093035
N58	N	-0.324461	0.370780	0.593035
C59	C	-0.872106	-0.473849	0.045398
C60	C	-0.372106	0.026151	0.545398
C61	C	-0.872123	-0.682727	0.045388
C62	C	-0.372123	-0.182727	0.545388
O63	O	-0.912604	-0.709734	0.004890
O64	O	-0.412604	-0.209734	0.504890
N65	N	-0.824505	-0.708847	0.092984
N66	N	-0.324505	-0.208847	0.592984
C67	C	-0.776876	-0.682744	0.140583
C68	C	-0.276876	-0.182744	0.640583
O69	O	-0.736370	-0.709753	0.181061
O70	O	-0.236370	-0.209753	0.681061
C71	C	-0.776857	-0.473867	0.140589
C72	C	-0.276857	0.026133	0.640589
C73	C	-0.824483	-0.447750	0.092995
C74	C	-0.324483	0.052250	0.592995
C75	C	-0.919727	-0.447732	-0.002193
C76	C	-0.419727	0.052268	0.497807
C77	C	-0.919725	-0.395516	-0.002187
C78	C	-0.419725	0.104484	0.497813
C79	C	-0.872102	-0.369417	0.045410
C80	C	-0.372102	0.130583	0.545410
C81	C	-0.824481	-0.395534	0.093001
C82	C	-0.324481	0.104466	0.593001
C83	C	-0.729226	-0.447765	0.188185
C84	C	-0.229226	0.052235	0.688185
C85	C	-0.729224	-0.395543	0.188181
C86	C	-0.229224	0.104457	0.688181
C87	C	-0.776850	-0.369426	0.140586
C88	C	-0.276850	0.130574	0.640586
C89	C	-0.776855	-0.317218	0.140603
C90	C	-0.276855	0.182782	0.640603
N91	N	-0.824473	-0.291098	0.093007
N92	N	-0.324473	0.208902	0.593007
C93	C	-0.872096	-0.317198	0.045411
C94	C	-0.372096	0.182802	0.545411
C95	C	-0.776891	-0.792407	0.140577
C96	C	-0.276891	-0.292407	0.640577
C97	C	-0.776896	-0.844626	0.140576
C98	C	-0.276896	-0.344626	0.640576
C99	C	-0.872142	-0.844605	0.045380
C100	C	-0.372142	-0.344605	0.545380
C101	C	-0.872139	-0.792386	0.045385
C102	C	-0.372139	-0.292386	0.545385
C103	C	-0.824509	-0.766287	0.092981
C104	C	-0.324509	-0.266287	0.592981
C105	C	-0.872089	-0.207540	0.045426
C106	C	-0.372089	0.292460	0.545426
C107	C	-0.872084	-0.155319	0.045438
C108	C	-0.372084	0.344681	0.545438
C109	C	-0.776837	-0.155344	0.140631
C110	C	-0.276837	0.344656	0.640631
C111	C	-0.776843	-0.207560	0.140622
C112	C	-0.276843	0.292440	0.640622
C113	C	-0.824472	-0.233657	0.093014
C114	C	-0.324472	0.266343	0.593014
O115	O	-0.736390	-0.290179	0.181075
O116	O	-0.236390	0.209821	0.681075
O117	O	-0.912586	-0.290179	0.004928
O118	O	-0.412586	0.209821	0.504928
C119	C	-0.872108	-0.526065	0.045393
C120	C	-0.372108	-0.026065	0.545393
C121	C	-0.824487	-0.552183	0.092984
C122	C	-0.324487	-0.052183	0.592984
C123	C	-0.776863	-0.526084	0.140580
C124	C	-0.276863	-0.026084	0.640580
C125	C	-0.824492	-0.604402	0.092983
C126	C	-0.324492	-0.104402	0.592983
C127	C	-0.872116	-0.630501	0.045386
C128	C	-0.372116	-0.130501	0.545386
C129	C	-0.919734	-0.604381	-0.002210
C130	C	-0.419734	-0.104381	0.497790
C131	C	-0.919732	-0.552165	-0.002204
C132	C	-0.419732	-0.052165	0.497796
C133	C	-0.729246	-0.552203	0.188176
C134	C	-0.229246	-0.052203	0.688176
C135	C	-0.729252	-0.604420	0.188167
C136	C	-0.229252	-0.104420	0.688167
C137	C	-0.776875	-0.630519	0.140571
C138	C	-0.276875	-0.130519	0.640571
C139	C	0.047846	0.000027	0.087521
C140	C	0.547846	0.500027	0.587521
C141	C	-0.029658	0.000022	0.088666
C142	C	0.470342	0.500022	0.588666
C143	C	-0.829975	0.000017	-0.034657
C144	C	-0.329975	0.500017	0.465343
C145	C	-0.828834	0.000012	-0.112161
C146	C	-0.328834	0.500012	0.387839
N147	N	-0.824520	0.129275	0.092979
N148	N	-0.324520	0.629275	0.592979
C149	C	-0.891925	0.000011	-0.157087
C150	C	-0.391925	0.500011	0.342913
C151	C	-0.890853	0.000019	-0.229911
C152	C	-0.390853	0.500019	0.270089
C153	C	-0.826687	0.000018	-0.257806
C154	C	-0.326687	0.500018	0.242194
C155	C	-0.763588	0.000022	-0.212870
C156	C	-0.263588	0.500022	0.287130
C157	C	-0.764661	0.000019	-0.140048
C158	C	-0.264661	0.500019	0.359952
N159	N	-0.777633	-0.028215	-0.365804
N160	N	-0.277633	0.471785	0.134196
N161	N	-0.776617	-0.028214	-0.434982
N162	N	-0.276617	0.471786	0.065018
C163	C	-0.823449	0.000028	-0.477214
C164	C	-0.323449	0.500028	0.022786
N165	N	-0.871345	0.028262	-0.447656
N166	N	-0.371345	0.528262	0.052344
N167	N	-0.872363	0.028258	-0.378471
N168	N	-0.372363	0.528258	0.121529
C169	C	-0.825516	0.000022	-0.336768
C170	C	-0.325516	0.500022	0.163232
C171	C	-0.885382	0.000036	-0.601104
C172	C	-0.385382	0.500036	-0.101104
C173	C	-0.884308	0.000047	-0.673929
C174	C	-0.384308	0.500047	-0.173929
C175	C	-0.757041	0.000046	-0.656887
C176	C	-0.257041	0.500046	-0.156887
C177	C	-0.758117	0.000040	-0.584064
C178	C	-0.258117	0.500040	-0.084064
C179	C	-0.822290	0.000033	-0.556177
C180	C	-0.322290	0.500033	-0.056177
C181	C	-0.819000	0.000040	0.220677
C182	C	-0.319000	0.500040	0.720677
C183	C	-0.820141	0.000047	0.298181
C184	C	-0.320141	0.500047	0.798181
H185	H	-0.464979	0.000022	0.210761
H186	H	0.035021	0.500022	0.710761
H187	H	-0.937636	0.000033	-0.578398
H188	H	-0.437636	0.500033	-0.078398
H189	H	-0.495897	0.000015	-0.020133
H190	H	0.004103	0.500015	0.479867
H191	H	-0.910920	-0.771124	0.006629
H192	H	-0.410920	-0.271124	0.506629
N193	N	-0.920750	-0.234192	-0.003192
N194	N	-0.420750	0.265808	0.496808
N195	N	-0.964024	-0.263322	0.018849
N196	N	-0.464024	0.236678	0.518849
H197	H	-0.998393	-0.282146	-0.015485
H198	H	-0.498393	0.217854	0.484515
H199	H	-0.958504	-0.374254	-0.040944
H200	H	-0.458504	0.125746	0.459056
H201	H	-0.942231	0.000020	-0.266496
H202	H	-0.442231	0.500020	0.233504
N203	N	-0.698049	0.000026	-0.241372
N204	N	-0.198049	0.500026	0.258628
N205	N	-0.697099	0.000028	-0.306392
N206	N	-0.197099	0.500028	0.193608
H207	H	-0.650810	0.000033	-0.326522
H208	H	-0.150810	0.500033	0.173478
N209	N	-0.968385	-0.525498	-0.050826
N210	N	-0.468385	-0.025498	0.449174
N211	N	-1.010898	-0.548816	-0.093316
N212	N	-0.510898	-0.048816	0.406684
H213	H	-1.045262	-0.529986	-0.127659
H214	H	-0.545262	-0.029986	0.372341
H215	H	-0.713283	0.000020	-0.103469
H216	H	-0.213283	0.500020	0.396531
N217	N	-0.948764	0.000053	-0.719813
N218	N	-0.448764	0.500053	-0.219813
N219	N	-1.006052	0.000048	-0.694901
N220	N	-0.506052	0.500048	-0.194901
H221	H	-1.051576	0.000053	-0.727306
H222	H	-0.551576	0.500053	-0.227306
N223	N	-0.046111	0.000014	-0.039986
N224	N	0.453889	0.500014	0.460014
N225	N	-0.059943	-0.034958	-0.082466
N226	N	0.440057	0.465042	0.417534
H227	H	-0.039833	-0.034966	-0.128764
H228	H	0.460167	0.465034	0.371236
H229	H	-0.910920	-0.865864	0.006626
H230	H	-0.410920	-0.365864	0.506626
N231	N	-0.693670	0.000044	-0.538169
N232	N	-0.193670	0.500044	-0.038169
N233	N	-0.650953	0.035015	-0.540594
N234	N	-0.150953	0.535015	-0.040594
H235	H	-0.605434	0.035020	-0.508180
H236	H	-0.105434	0.535020	-0.008180
H237	H	-0.597089	0.000033	0.212708
H238	H	-0.097089	0.500033	0.712708
N239	N	-0.968377	-0.474391	-0.050811
N240	N	-0.468377	0.025609	0.449189
N241	N	-1.011652	-0.503523	-0.028777
N242	N	-0.511652	-0.003523	0.471223
H243	H	-1.046013	-0.522351	-0.063115
H244	H	-0.546013	-0.022351	0.436885
H245	H	-0.020968	0.000023	0.204211
H246	H	0.479032	0.500023	0.704211
H247	H	-0.738069	-0.228825	0.179385
H248	H	-0.238069	0.271175	0.679385
N249	N	-0.637306	0.000009	-0.031267
N250	N	-0.137306	0.500009	0.468733
N251	N	-0.612394	0.000005	-0.088555
N252	N	-0.112394	0.500005	0.411445
H253	H	-0.644799	-0.000002	-0.134079
H254	H	-0.144799	0.499998	0.365921
N255	N	-0.158852	0.000026	0.219459
N256	N	0.341148	0.500026	0.719459
N257	N	-0.118730	0.000025	0.275790
N258	N	0.381270	0.500025	0.775790
H259	H	-0.138844	0.000024	0.322086
H260	H	0.361156	0.500024	0.822086
N261	N	-0.968375	-0.631054	-0.050825
N262	N	-0.468375	-0.131054	0.449175
N263	N	-0.968361	-0.677677	-0.050818
N264	N	-0.468361	-0.177677	0.449182
H265	H	-1.002708	-0.696518	-0.085153
H266	H	-0.502708	-0.196518	0.414847
H267	H	-0.704795	0.000048	-0.679598
H268	H	-0.204795	0.500048	-0.179598
N269	N	-0.680610	-0.525550	0.236813
N270	N	-0.180610	-0.025550	0.736813
N271	N	-0.702629	-0.496415	0.280106
N272	N	-0.202629	0.003585	0.780106
H273	H	-0.668280	-0.477593	0.314463
H274	H	-0.168280	0.022407	0.814463
H275	H	-0.183999	0.000019	-0.024729
H276	H	0.316001	0.500019	0.475271
N277	N	-0.920733	-0.128649	-0.003192
N278	N	-0.420733	0.371351	0.496808
N279	N	-0.963242	-0.151962	-0.045692
N280	N	-0.463242	0.348038	0.454308
H281	H	-0.997596	-0.133129	-0.080041
H282	H	-0.497596	0.366871	0.419959
H283	H	-0.738122	-0.865887	0.179339
H284	H	-0.238122	-0.365887	0.679339
H285	H	-0.690435	-0.374296	0.226939
H286	H	-0.190435	0.125704	0.726939
H287	H	-0.738103	-0.771162	0.179337
H288	H	-0.238103	-0.271162	0.679337
N289	N	-0.680576	-0.474427	0.236811
N290	N	-0.180576	0.025573	0.736811
N291	N	-0.638062	-0.451108	0.279299
N292	N	-0.138062	0.048892	0.779299
H293	H	-0.603701	-0.469936	0.313646
H294	H	-0.103701	0.030064	0.813646
N295	N	-0.728200	-0.128671	0.189247
N296	N	-0.228200	0.371329	0.689247
N297	N	-0.728209	-0.082048	0.189236
N298	N	-0.228209	0.417952	0.689236
H299	H	-0.693857	-0.063208	0.223568
H300	H	-0.193857	0.436792	0.723568
H301	H	-0.944180	0.000007	-0.134387
H302	H	-0.444180	0.500007	0.365613
N303	N	-0.680601	-0.631087	0.236798
N304	N	-0.180601	-0.131087	0.736798
N305	N	-0.638085	-0.607771	0.279289
N306	N	-0.138085	-0.107771	0.779289
H307	H	-0.603723	-0.626603	0.313631
H308	H	-0.103723	-0.126603	0.813631
