data_functionalizedCrystal
_audit_creation_method	'MofGen! by Chris Wilmer'
_symmetry_space_group_name_H-M	'P1'
_symmetry_Int_Tables_number	1
_symmetry_cell_setting	triclinic
loop_
_symmetry_equiv_pos_as_xyz
  x,y,z
_cell_length_a	13.897449
_cell_length_b	16.625546
_cell_length_c	13.897441
_cell_angle_alpha	89.967525
_cell_angle_beta	89.981404
_cell_angle_gamma	90.023748
loop_
_atom_site_label
_atom_site_type_symbol
_atom_site_fract_x
_atom_site_fract_y
_atom_site_fract_z
Zn1	Zn	1.474650	-0.320956	-0.545362
Zn2	Zn	1.807984	0.012377	-0.212029
Zn3	Zn	2.141317	0.345711	0.121305
Zn4	Zn	1.474537	-0.455804	-0.384055
Zn5	Zn	1.807870	-0.122471	-0.050722
Zn6	Zn	2.141203	0.210863	0.282611
Zn7	Zn	1.313345	-0.320992	-0.384080
Zn8	Zn	1.646679	0.012341	-0.050747
Zn9	Zn	1.980012	0.345674	0.282586
Zn10	Zn	1.313308	-0.455753	-0.545308
Zn11	Zn	1.646641	-0.122420	-0.211975
Zn12	Zn	1.979974	0.210913	0.121359
O13	O	1.393960	-0.388376	-0.464702
O14	O	1.727293	-0.055043	-0.131368
O15	O	2.060627	0.278290	0.201965
O16	O	1.609617	-0.338850	-0.523977
O17	O	1.942950	-0.005517	-0.190643
O18	O	2.276283	0.327817	0.142690
O19	O	1.453123	-0.437957	-0.249077
O20	O	1.786456	-0.104624	0.084256
O21	O	2.119789	0.228709	0.417590
O22	O	1.334806	-0.208155	-0.405508
O23	O	1.668139	0.125178	-0.072175
O24	O	2.001473	0.458512	0.261159
O25	O	1.609533	-0.437922	-0.405465
O26	O	1.942867	-0.104589	-0.072132
O27	O	2.276200	0.228744	0.261201
O28	O	1.453316	-0.208129	-0.524001
O29	O	1.786649	0.125205	-0.190667
O30	O	2.119983	0.458538	0.142666
O31	O	1.334696	-0.338912	-0.249095
O32	O	1.668029	-0.005578	0.084238
O33	O	2.001363	0.327755	0.417571
O34	O	1.178359	-0.338862	-0.405455
O35	O	1.511692	-0.005529	-0.072122
O36	O	1.845025	0.327804	0.261211
O37	O	1.334742	-0.437836	-0.680297
O38	O	1.668075	-0.104503	-0.346964
O39	O	2.001408	0.228831	-0.013630
O40	O	1.178331	-0.437871	-0.523909
O41	O	1.511664	-0.104538	-0.190575
O42	O	1.844998	0.228796	0.142758
O43	O	1.453279	-0.338801	-0.680337
O44	O	1.786613	-0.005468	-0.347003
O45	O	2.119946	0.327866	-0.013670
O46	O	1.453086	-0.568630	-0.405413
O47	O	1.786419	-0.235297	-0.072080
O48	O	2.119753	0.098037	0.261254
O49	O	1.334632	-0.568593	-0.523884
O50	O	1.667965	-0.235259	-0.190551
O51	O	2.001298	0.098074	0.142782
C52	C	1.143346	-0.388366	-0.464680
C53	C	1.476679	-0.055032	-0.131346
C54	C	1.810012	0.278301	0.201987
C55	C	1.036132	-0.388381	-0.464693
C56	C	1.369465	-0.055047	-0.131360
C57	C	1.702798	0.278286	0.201974
C58	C	0.839837	-0.388383	-0.464718
C59	C	1.173170	-0.055050	-0.131385
C60	C	1.506503	0.278283	0.201948
C61	C	0.949069	-0.388379	-0.464702
C62	C	1.282402	-0.055046	-0.131368
C63	C	1.615736	0.278287	0.201965
C64	C	1.393869	-0.597867	-0.464661
C65	C	1.727202	-0.264534	-0.131328
C66	C	2.060535	0.068799	0.202006
C67	C	1.393918	-0.687488	-0.464676
C68	C	1.727251	-0.354155	-0.131343
C69	C	2.060585	-0.020822	0.201991
C70	C	1.394086	-1.015664	-0.464777
C71	C	1.727420	-0.682331	-0.131443
C72	C	2.060753	-0.348997	0.201890
C73	C	1.394036	-0.924356	-0.464751
C74	C	1.727370	-0.591022	-0.131418
C75	C	2.060703	-0.257689	0.201915
C76	C	1.394001	-0.851579	-0.464726
C77	C	1.727335	-0.518246	-0.131393
C78	C	2.060668	-0.184912	0.201941
C79	C	1.393953	-0.760265	-0.464702
C80	C	1.727286	-0.426932	-0.131368
C81	C	2.060620	-0.093598	0.201965
C82	C	1.645553	-0.388388	-0.464724
C83	C	1.978886	-0.055055	-0.131391
C84	C	2.312220	0.278279	0.201943
C85	C	1.752767	-0.388393	-0.464734
C86	C	2.086100	-0.055059	-0.131400
C87	C	2.419434	0.278274	0.201933
C88	C	1.394019	-0.388309	-0.716295
C89	C	1.727352	-0.054975	-0.382961
C90	C	2.060686	0.278358	-0.049628
C91	C	1.394044	-0.388280	-0.823509
C92	C	1.727378	-0.054947	-0.490175
C93	C	2.060711	0.278387	-0.156842
C94	C	1.394078	-0.178068	-0.464763
C95	C	1.727411	0.155266	-0.131430
C96	C	2.060745	0.488599	0.201904
C97	C	1.394128	-0.088446	-0.464789
C98	C	1.727462	0.244887	-0.131456
C99	C	2.060795	0.578220	0.201877
C100	C	1.394064	-0.388257	-0.910578
C101	C	1.727397	-0.054924	-0.577245
C102	C	2.060731	0.278410	-0.243912
C103	C	1.394092	-0.388221	-1.019811
C104	C	1.727425	-0.054887	-0.686478
C105	C	2.060758	0.278446	-0.353144
C106	C	1.393957	-0.388386	-0.214087
C107	C	1.727290	-0.055052	0.119246
C108	C	2.060623	0.278281	0.452579
C109	C	1.394118	-0.388187	-0.106874
C110	C	1.727452	-0.054854	0.226460
C111	C	2.060785	0.278479	0.559793
