data_functionalizedCrystal
_audit_creation_method	'MofGen! by Chris Wilmer'
_symmetry_space_group_name_H-M	'P1'
_symmetry_Int_Tables_number	1
_symmetry_cell_setting	triclinic
loop_
_symmetry_equiv_pos_as_xyz
  x,y,z
_cell_length_a	20.875641
_cell_length_b	21.606444
_cell_length_c	21.606444
_cell_angle_alpha	60.001331
_cell_angle_beta	90.000582
_cell_angle_gamma	57.588303
loop_
_atom_site_label
_atom_site_type_symbol
_atom_site_fract_x
_atom_site_fract_y
_atom_site_fract_z
Zr1	Zr	0.641466	0.632027	-0.058501
O2	O	0.535135	0.768679	-0.161086
O3	O	0.674063	0.500599	-0.027056
O4	O	0.674054	0.629723	-0.156174
O5	O	0.535149	0.639550	0.069887
O6	O	0.783635	0.621963	-0.152296
O7	O	0.535144	0.639554	-0.031967
O8	O	0.783650	0.390983	0.078673
O9	O	0.535134	0.870530	-0.161083
O10	O	0.769743	0.546931	-0.010747
O11	O	0.687968	0.552718	0.062372
O12	O	0.687958	0.704746	-0.089649
O13	O	0.606183	0.710533	-0.016530
Zr14	Zr	0.816243	0.619643	0.110130
Zr15	Zr	0.816234	0.619651	-0.052316
Zr16	Zr	0.641475	0.632019	0.103945
Zr17	Zr	0.641464	0.794467	-0.058495
Zr18	Zr	0.816245	0.457203	0.110125
O19	O	0.783646	0.751071	0.078685
O20	O	0.783634	0.751082	-0.152292
O21	O	0.535148	0.768668	0.069891
O22	O	0.922574	0.482991	0.212715
O23	O	0.922561	0.483001	-0.018262
O24	O	0.674075	0.500588	0.203922
O25	O	0.922560	0.612120	-0.018258
O26	O	0.783655	0.621946	0.207804
O27	O	0.674074	0.629706	0.203926
O28	O	0.922565	0.612115	0.083597
O29	O	0.674052	0.860692	-0.156167
O30	O	0.783657	0.390977	0.207796
O31	O	0.922575	0.381140	0.212712
O32	O	0.922568	0.381146	0.083589
O33	O	0.535141	0.870524	-0.031960
O34	O	0.674059	0.860686	-0.027044
O35	O	0.769751	0.546924	0.141278
O36	O	0.851526	0.541136	0.068160
O37	O	0.769741	0.698951	-0.010742
O38	O	0.687966	0.704739	0.062376
C39	C	0.728857	0.422647	0.025808
C40	C	0.728858	0.353686	0.025806
C41	C	0.771541	0.318268	-0.012362
C42	C	0.771544	0.253468	-0.012357
C43	C	0.728858	0.224092	0.025812
C44	C	0.686173	0.259513	0.063986
C45	C	0.686175	0.324307	0.063984
C46	C	0.686163	-0.001795	0.063991
C47	C	0.686162	-0.066592	0.063988
C48	C	0.771532	-0.072635	-0.012350
C49	C	0.771535	-0.007841	-0.012351
C50	C	0.728853	0.027571	0.025825
C51	C	0.728852	0.097834	0.025820
C52	C	0.728854	0.153835	0.025813
C53	C	0.510246	0.641315	0.018079
C54	C	0.436052	0.646569	0.015453
C55	C	0.443884	0.566662	0.055401
C56	C	0.374168	0.571604	0.052933
C57	C	0.296621	0.656454	0.010511
C58	C	0.288790	0.736367	-0.029439
C59	C	0.358505	0.731425	-0.026965
C60	C	0.083542	0.680071	-0.001300
C61	C	0.013825	0.685008	-0.003772
C62	C	0.099208	0.520243	0.078601
C63	C	0.168920	0.515308	0.081067
C64	C	0.161084	0.595221	0.041121
N65	N	0.225359	0.661508	0.007984
N66	N	0.232345	0.590167	0.043652
C67	C	0.947463	0.610354	0.033551
C68	C	1.021657	0.605100	0.036176
C69	C	0.728843	0.625844	-0.177380
C70	C	0.728840	0.625847	-0.246343
C71	C	0.728852	0.829023	0.025821
C72	C	0.728851	0.897983	0.025823
C73	C	0.686148	0.708225	-0.319927
C74	C	0.686155	0.708222	-0.384722
C75	C	0.728849	0.625841	-0.375931
C76	C	0.771546	0.543457	-0.302338
C77	C	0.771543	0.543461	-0.237545
C78	C	0.771559	0.543441	-0.563641
C79	C	0.771556	0.543444	-0.628442
C80	C	0.686171	0.708202	-0.710818
C81	C	0.686168	0.708206	-0.646025
C82	C	0.728868	0.625822	-0.572438
C83	C	0.728861	0.625826	-0.502181
C84	C	0.728852	0.625836	-0.446186
C85	C	0.728866	0.625825	0.229010
C86	C	0.728869	0.625822	0.297972
C87	C	0.947466	0.407166	0.033544
C88	C	1.021660	0.332952	0.036168
C89	C	0.728868	0.422637	0.229003
C90	C	0.728872	0.353674	0.297963
C91	C	0.947477	0.407157	0.236739
C92	C	1.021675	0.332939	0.308325
C93	C	0.510232	0.844513	-0.185110
C94	C	0.436034	0.918730	-0.256696
C95	C	0.510243	0.844503	0.018085
C96	C	0.436049	0.918718	0.015462
C97	C	0.728841	0.829032	-0.177374
C98	C	0.728837	0.897996	-0.246334
C99	C	1.013813	0.301125	-0.003796
C100	C	1.083520	0.231402	-0.001346
C101	C	1.161074	0.193503	0.041072
C102	C	1.168919	0.225337	0.081036
C103	C	1.099213	0.295063	0.078582
C104	C	0.771564	0.318263	0.371543
C105	C	0.771566	0.253474	0.436345
C106	C	0.728879	0.224092	0.427565
C107	C	0.686182	0.259509	0.353978
C108	C	0.686176	0.324302	0.289178
C109	C	1.099212	0.295064	0.303776
C110	C	1.168936	0.225338	0.371032
C111	C	1.161121	0.193483	0.442838
C112	C	1.083576	0.231365	0.447385
C113	C	1.013854	0.301094	0.380129
C114	C	0.358497	0.956613	-0.252146
C115	C	0.288773	1.026360	-0.319403
C116	C	0.296588	1.058218	-0.391208
C117	C	0.374133	1.020332	-0.395756
C118	C	0.443855	0.950591	-0.328500
C119	C	0.443896	0.950551	0.055418
C120	C	0.374189	1.020292	0.052951
C121	C	0.296635	1.058193	0.010531
C122	C	0.288790	1.026356	-0.029431
C123	C	0.358496	0.956621	-0.026967
C124	C	0.771531	0.927357	-0.237530
C125	C	0.771543	0.992146	-0.302319
C126	C	0.728855	1.027577	-0.375911
C127	C	0.686158	0.998210	-0.384714
C128	C	0.686152	0.933417	-0.319926
H129	H	0.651422	0.235586	0.095068
H130	H	0.806307	0.476381	-0.177629
C131	C	0.074920	0.767967	-0.044885
H132	H	0.127543	0.752877	-0.037223
H133	H	0.045922	0.802955	-0.098165
H134	H	0.045985	0.802293	-0.026038
C135	C	0.639234	0.227182	0.344326
H136	H	0.613799	0.257551	0.291224
H137	H	0.676090	0.163397	0.369266
H138	H	0.598837	0.240668	0.366527
C139	C	1.107821	0.330098	0.224797
H140	H	1.055196	0.377048	0.185386
H141	H	1.136782	0.353328	0.220141
H142	H	1.136790	0.281527	0.220138
C143	C	0.818500	1.024448	-0.292622
H144	H	0.843907	0.994077	-0.239514
H145	H	0.858905	1.010966	-0.314809
H146	H	0.781646	1.088236	-0.317553
H147	H	1.217900	0.136704	0.497596
C148	C	0.203482	1.068020	-0.314391
H149	H	0.163071	1.114127	-0.364726
H150	H	0.197373	1.021932	-0.287689
H151	H	0.197380	1.093719	-0.287672
C152	C	0.639206	0.798826	-0.791763
H153	H	0.613771	0.847888	-0.787717
H154	H	0.676048	0.799522	-0.817387
H155	H	0.598808	0.804980	-0.820116
C156	C	0.529198	0.908873	0.102079
H157	H	0.569596	0.862775	0.097834
H158	H	0.535309	0.954958	0.082697
H159	H	0.535315	0.883160	0.154499
H160	H	1.217826	0.136728	0.043064
H161	H	0.651394	0.775301	-0.444636
C162	C	0.529144	0.908893	-0.333510
H163	H	0.569555	0.862790	-0.283175
H164	H	0.535220	0.883200	-0.360224
H165	H	0.535277	0.954965	-0.360216
C166	C	0.818465	0.452830	-0.482706
H167	H	0.812343	0.464625	-0.445374
H168	H	0.797346	0.421765	-0.477812
H169	H	0.874640	0.416203	-0.474995
H170	H	0.352118	0.930679	-0.193685
H171	H	0.806325	0.342178	0.378707
C172	C	0.928513	0.342806	-0.050463
H173	H	0.933835	0.313864	-0.073916
H174	H	0.899541	0.334236	-0.017246
H175	H	0.899546	0.406036	-0.089035
C176	C	0.382834	1.055291	0.096919
H177	H	0.439006	1.022716	0.122545
H178	H	0.357424	1.118263	0.061782
H179	H	0.357415	1.046466	0.133570
H180	H	0.225645	0.805454	-0.063976
H181	H	1.077225	0.205418	0.505858
C182	C	0.818507	0.214495	-0.054330
H183	H	0.812406	0.171687	-0.048852
H184	H	0.797431	0.262495	-0.107278
H185	H	0.874671	0.185238	-0.032737
C186	C	-0.071478	0.778347	-0.050430
H187	H	-0.066161	0.825233	-0.073859
H188	H	-0.100453	0.783709	-0.089007
H189	H	-0.100440	0.783684	-0.017197
C190	C	0.349858	0.921599	-0.070912
H191	H	0.402475	0.874641	-0.063377
H192	H	0.320887	0.898383	-0.052338
H193	H	0.320888	0.970173	-0.124140
C194	C	0.818492	0.024466	-0.054334
H195	H	0.843921	-0.005916	-0.077059
H196	H	0.781648	0.088250	-0.093185
H197	H	0.858895	0.010974	-0.018649
H198	H	1.077116	0.205492	-0.033890
H199	H	0.239809	1.115006	-0.445966
C200	C	1.254225	0.183672	0.366016
H201	H	1.248888	0.212623	0.313618
H202	H	1.283204	0.192242	0.390657
H203	H	1.283197	0.120442	0.390668
H204	H	0.380487	1.046280	-0.454228
H205	H	0.806338	0.224644	0.496257
H206	H	0.651381	0.909520	-0.327105
H207	H	1.232073	0.194470	0.115571
H208	H	0.651414	0.353125	0.229268
H209	H	0.950722	0.331924	0.383844
C210	C	1.107855	0.330055	0.122555
H211	H	1.164028	0.297486	0.148173
H212	H	1.082437	0.393030	0.087423
H213	H	1.082446	0.321215	0.159212
H214	H	0.651377	0.775309	-0.327095
H215	H	0.239883	1.114975	0.008531
H216	H	0.507023	0.497567	0.089949
H217	H	0.651399	0.775289	-0.653190
C218	C	0.203479	1.068047	-0.076083
H219	H	0.163095	1.114129	-0.071814
H220	H	0.197344	1.093766	-0.128503
H221	H	0.197361	1.021962	-0.056695
H222	H	0.806293	0.898518	-0.177613
H223	H	0.728890	0.171333	0.480336
H224	H	0.728866	1.080335	-0.428659
C225	C	0.639197	1.037198	-0.465668
H226	H	0.645313	1.079998	-0.502986
H227	H	0.660266	0.989204	-0.470624
H228	H	0.583030	1.066468	-0.473341
H229	H	0.806313	0.476381	-0.295184
C230	C	0.818495	0.350579	-0.054349
H231	H	0.812378	0.394248	-0.048890
H232	H	0.874657	0.300085	-0.032769
H233	H	0.797404	0.377355	-0.107299
H234	H	0.352123	0.796494	-0.059486
H235	H	0.651401	-0.090508	0.095072
C236	C	0.639207	0.037159	0.105975
H237	H	0.613778	0.010390	0.128698
H238	H	0.676053	0.023929	0.144827
H239	H	0.598806	0.101198	0.070292
C240	C	0.818493	-0.111602	-0.054333
H241	H	0.812389	-0.154407	-0.048860
H242	H	0.797410	-0.063594	-0.107280
H243	H	0.874659	-0.140860	-0.032746
H244	H	0.651416	0.353147	0.095063
H245	H	0.232059	0.446214	0.115597
C246	C	0.382786	0.483706	0.096869
H247	H	0.438955	0.432465	0.122479
H248	H	0.357369	0.482198	0.133518
H249	H	0.357363	0.482218	0.061710
H250	H	0.105579	0.455183	0.111124
C251	C	0.818523	0.452821	-0.618768
H252	H	0.843959	0.403756	-0.565663
H253	H	0.781677	0.452130	-0.643698
H254	H	0.858920	0.446667	-0.640968
