data_functionalizedCrystal
_audit_creation_method	'MofGen! by Chris Wilmer'
_symmetry_space_group_name_H-M	'P1'
_symmetry_Int_Tables_number	1
_symmetry_cell_setting	triclinic
loop_
_symmetry_equiv_pos_as_xyz
  x,y,z
_cell_length_a	18.215407
_cell_length_b	12.759394
_cell_length_c	18.215399
_cell_angle_alpha	90.025695
_cell_angle_beta	90.019350
_cell_angle_gamma	90.015285
loop_
_atom_site_label
_atom_site_type_symbol
_atom_site_fract_x
_atom_site_fract_y
_atom_site_fract_z
Zn1	Zn	1.125120	-0.418260	0.416130
Zn2	Zn	1.125051	-0.593959	0.293069
Zn3	Zn	1.002053	-0.418296	0.293077
Zn4	Zn	1.002040	-0.593899	0.416094
O5	O	1.063566	-0.506104	0.354592
O6	O	1.228095	-0.441577	0.399817
O7	O	1.108712	-0.570697	0.190086
O8	O	1.018413	-0.271270	0.309418
O9	O	1.228044	-0.570662	0.309405
O10	O	1.108829	-0.271244	0.399825
O11	O	1.018346	-0.441638	0.190092
O12	O	0.899067	-0.441580	0.309384
O13	O	1.018390	-0.570560	0.519083
O14	O	0.899057	-0.570595	0.399764
O15	O	1.108816	-0.441519	0.519109
O16	O	1.108699	-0.740972	0.309370
O17	O	1.018323	-0.740928	0.399756
C18	C	0.872360	-0.506086	0.354571
C19	C	0.790561	-0.506103	0.354580
C20	C	0.602381	-0.573387	0.401582
C21	C	0.525522	-0.573390	0.401591
C22	C	0.525503	-0.438839	0.307619
C23	C	0.602360	-0.438832	0.307614
C24	C	0.640797	-0.506111	0.354594
C25	C	0.487081	-0.506122	0.354608
C26	C	0.403748	-0.506126	0.354618
C27	C	0.724136	-0.506107	0.354586
C28	C	1.063522	-0.779071	0.354575
C29	C	1.063570	-0.895848	0.354592
C30	C	1.157749	-0.895840	0.260543
C31	C	1.204858	-0.950697	0.213528
C32	C	1.204901	-1.060419	0.213548
C33	C	1.157832	-1.115286	0.260590
C34	C	1.110723	-1.060429	0.307605
C35	C	1.110684	-0.950705	0.307579
C36	C	1.016549	-1.060437	0.401656
C37	C	1.016501	-0.950715	0.401634
C38	C	0.969480	-1.115304	0.448698
C39	C	0.922367	-1.060447	0.495711
C40	C	0.922325	-0.950718	0.495689
C41	C	0.969393	-0.895858	0.448649
C42	C	1.255519	-0.506122	0.354614
C43	C	1.337318	-0.506131	0.354623
C44	C	1.063609	-0.506029	0.546545
C45	C	1.063628	-0.505998	0.628344
C46	C	1.063630	-0.232070	0.354626
C47	C	1.063658	-0.115294	0.354641
C48	C	1.063565	-0.506102	0.163386
C49	C	1.063689	-0.505838	0.081588
C50	C	1.110740	-0.438715	0.893417
C51	C	1.110731	-0.438744	0.816558
C52	C	1.016575	-0.573128	0.816520
C53	C	1.016588	-0.573104	0.893378
C54	C	1.063669	-0.505892	0.931824
C55	C	1.063648	-0.505944	0.778108
C56	C	1.063638	-0.505975	0.694774
C57	C	1.063680	-0.505861	1.015163
H58	H	0.494247	-0.628171	0.439853
H59	H	0.969522	-1.204645	0.448714
H60	H	0.969358	-0.806517	0.448621
H61	H	0.494198	-0.384064	0.269369
N62	N	0.643808	-0.366274	0.256933
H63	H	0.675713	-0.317640	0.286901
H64	H	0.607755	-0.323725	0.227175
N65	N	0.871608	-1.119621	0.546448
H66	H	0.878788	-1.197452	0.539330
H67	H	0.819046	-1.100523	0.534944
N68	N	1.157692	-0.777499	0.260512
H69	H	1.194654	-0.751065	0.223577
H70	H	1.171163	-0.751076	0.311026
N71	N	1.255628	-0.891521	0.162796
H72	H	1.248454	-0.813689	0.169914
H73	H	1.244207	-0.910769	0.110230
H74	H	0.978257	-0.627812	0.924650
N75	N	0.965795	-0.645616	0.775053
H76	H	0.972927	-0.635437	0.720536
H77	H	0.913242	-0.629259	0.788483
N78	N	0.871518	-0.891554	0.546403
H79	H	0.841711	-0.942964	0.576204
H80	H	0.837455	-0.846102	0.516411
H81	H	1.157877	-1.204627	0.260608
N82	N	0.643840	-0.645948	0.452251
H83	H	0.607837	-0.688566	0.482019
H84	H	0.675749	-0.603240	0.486356
H85	H	1.149076	-0.383986	0.924717
N86	N	1.255713	-1.119594	0.162845
H87	H	1.285526	-1.068192	0.133042
H88	H	1.225789	-1.165188	0.128773
H89	H	1.149061	-0.384043	0.785290
