data_functionalizedCrystal
_audit_creation_method	'MofGen! by Chris Wilmer'
_symmetry_space_group_name_H-M	'P1'
_symmetry_Int_Tables_number	1
_symmetry_cell_setting	triclinic
loop_
_symmetry_equiv_pos_as_xyz
  x,y,z
_cell_length_a	19.077236
_cell_length_b	16.625545
_cell_length_c	19.076919
_cell_angle_alpha	92.272080
_cell_angle_beta	89.887323
_cell_angle_gamma	92.318364
loop_
_atom_site_label
_atom_site_type_symbol
_atom_site_fract_x
_atom_site_fract_y
_atom_site_fract_z
Zn1	Zn	1.058286	-0.292691	-0.440544
Zn2	Zn	1.062924	-0.421908	-0.323038
Zn3	Zn	0.945502	-0.292269	-0.318324
Zn4	Zn	0.940743	-0.432665	-0.435777
O5	O	1.001864	-0.359883	-0.379421
O6	O	1.157235	-0.305507	-0.428925
O7	O	1.051280	-0.400032	-0.224082
O8	O	0.960514	-0.179491	-0.334559
O9	O	1.160643	-0.400442	-0.342594
O10	O	1.043376	-0.179802	-0.424354
O11	O	0.965011	-0.304787	-0.220619
O12	O	0.846537	-0.315217	-0.329936
O13	O	0.952403	-0.418776	-0.534740
O14	O	0.843041	-0.418366	-0.416228
O15	O	1.038762	-0.315938	-0.538242
O16	O	1.046666	-0.536168	-0.337971
O17	O	0.956900	-0.544071	-0.420799
C18	C	0.819292	-0.367914	-0.372054
C19	C	0.741186	-0.371369	-0.368919
C20	C	0.702716	-0.323651	-0.412462
C21	C	0.629327	-0.326893	-0.409511
C22	C	0.594410	-0.377860	-0.363018
C23	C	0.632886	-0.425580	-0.319470
C24	C	0.706273	-0.422333	-0.322419
C25	C	0.375117	-0.392860	-0.349369
C26	C	0.301724	-0.396105	-0.346425
C27	C	0.298171	-0.297417	-0.436465
C28	C	0.371559	-0.294177	-0.439413
C29	C	0.410029	-0.341895	-0.395862
N30	N	0.519396	-0.381177	-0.360002
N31	N	0.485042	-0.338572	-0.398876
C32	C	1.001788	-0.569376	-0.379396
C33	C	1.001820	-0.658997	-0.379411
C34	C	1.001846	-0.731779	-0.379426
C35	C	1.001887	-0.823086	-0.379443
C36	C	1.001923	-0.895861	-0.379453
C37	C	1.001962	-0.987174	-0.379470
C38	C	1.185149	-0.351822	-0.386817
C39	C	1.263254	-0.348387	-0.389969
C40	C	0.994534	-0.368604	-0.562700
C41	C	0.991411	-0.372320	-0.640803
C42	C	1.001958	-0.149572	-0.379462
C43	C	1.001998	-0.059950	-0.379480
C44	C	1.034903	-0.320526	-0.679320
C45	C	1.031960	-0.324016	-0.752706
C46	C	0.985527	-0.379303	-0.787573
C47	C	0.942030	-0.431099	-0.749050
C48	C	0.944970	-0.427605	-0.675665
C49	C	0.971908	-0.395489	-1.006852
C50	C	0.968973	-0.398981	-1.080242
C51	C	1.058902	-0.291896	-1.083893
C52	C	1.061841	-0.288410	-1.010507
C53	C	1.018342	-0.340203	-0.971990
N54	N	0.982519	-0.382873	-0.862584
N55	N	1.021347	-0.336629	-0.896980
C56	C	1.009206	-0.351136	-0.196856
C57	C	1.012465	-0.347187	-0.118759
H58	H	0.731139	-0.282150	-0.450323
N59	N	0.924985	-0.451361	-0.965334
H60	H	0.954733	-0.486031	-0.936030
H61	H	0.893654	-0.418526	-0.933623
H62	H	1.094316	-0.249728	-1.115261
N63	N	0.409218	-0.239210	-0.489560
H64	H	0.373711	-0.209471	-0.516698
H65	H	0.440815	-0.199139	-0.462240
N66	N	0.264072	-0.451074	-0.296267
H67	H	0.234925	-0.418044	-0.262536
H68	H	0.232519	-0.491191	-0.323589
N69	N	0.898059	-0.483474	-0.634126
H70	H	0.927816	-0.518136	-0.604824
H71	H	0.866735	-0.450633	-0.602413
N72	N	0.256680	-0.245951	-0.483434
H73	H	0.204891	-0.255739	-0.474514
H74	H	0.269956	-0.187262	-0.473100
H75	H	1.099654	-0.243392	-0.982124
N76	N	1.084993	-0.260900	-0.641721
H77	H	1.118762	-0.290793	-0.612589
H78	H	1.112048	-0.228639	-0.677306
H79	H	0.604451	-0.467074	-0.281611
N80	N	0.416604	-0.444321	-0.302397
H81	H	0.383346	-0.477101	-0.272499
H82	H	0.445910	-0.481699	-0.332160
H83	H	1.067378	-0.281841	-0.784064
N84	N	0.918875	-0.458587	-1.117863
H85	H	0.946186	-0.496150	-1.149462
H86	H	0.891762	-0.490813	-1.082295
N87	N	0.587834	-0.275409	-0.456462
H88	H	0.621089	-0.242629	-0.486360
H89	H	0.556075	-0.311167	-0.487708
N90	N	0.747770	-0.473796	-0.275451
H91	H	0.714516	-0.506577	-0.245550
H92	H	0.777076	-0.511172	-0.305217
N93	N	0.891932	-0.490714	-0.786651
H94	H	0.896665	-0.485066	-0.838985
H95	H	0.903343	-0.547214	-0.774259
