data_functionalizedCrystal
_audit_creation_method	'MofGen! by Chris Wilmer'
_symmetry_space_group_name_H-M	'P1'
_symmetry_Int_Tables_number	1
_symmetry_cell_setting	triclinic
loop_
_symmetry_equiv_pos_as_xyz
  x,y,z
_cell_length_a	8.559649
_cell_length_b	6.394989
_cell_length_c	7.681481
_cell_angle_alpha	95.906187
_cell_angle_beta	94.912730
_cell_angle_gamma	101.861812
loop_
_atom_site_label
_atom_site_type_symbol
_atom_site_fract_x
_atom_site_fract_y
_atom_site_fract_z
O1	O	2.104044	0.048505	-0.146423
O2	O	1.641005	-0.059019	-0.146424
O3	O	1.879097	0.299861	-0.146425
O4	O	1.865952	-0.310375	-0.146423
O5	O	1.908400	0.344123	0.146433
O6	O	1.670309	-0.014758	0.146433
O7	O	2.133347	0.092767	0.146434
Zn8	Zn	1.906480	0.046032	0.192931
Zn9	Zn	1.867872	-0.012285	-0.192921
O10	O	1.895256	-0.266114	0.146435
C11	C	1.596291	-0.045037	0.000004
C12	C	1.419399	-0.069293	0.000004
C13	C	2.178061	0.078784	0.000002
C14	C	2.354952	0.103037	-0.000009
C15	C	1.891149	0.399395	-0.000003
C16	C	1.883206	0.634356	-0.000005
N17	N	1.932841	0.085834	0.456265
N18	N	1.841523	-0.052068	-0.456255
H19	H	1.435112	0.269145	-0.000010
H20	H	1.748306	-0.192827	0.468548
F21	F	2.054707	0.269812	0.554559
H22	H	1.339246	-0.235392	-0.000013
