data_functionalizedCrystal
_audit_creation_method	'MofGen! by Chris Wilmer'
_symmetry_space_group_name_H-M	'P1'
_symmetry_Int_Tables_number	1
_symmetry_cell_setting	triclinic
loop_
_symmetry_equiv_pos_as_xyz
  x,y,z
_cell_length_a	8.597226
_cell_length_b	7.681481
_cell_length_c	8.559649
_cell_angle_alpha	85.068589
_cell_angle_beta	77.625969
_cell_angle_gamma	88.165343
loop_
_atom_site_label
_atom_site_type_symbol
_atom_site_fract_x
_atom_site_fract_y
_atom_site_fract_z
O1	O	-2.002628	0.450310	-0.283815
O2	O	-1.551266	0.381821	-0.295110
O3	O	-1.816713	0.422095	-0.058106
O4	O	-1.737181	0.410036	-0.520819
O5	O	-1.849393	0.134196	-0.028866
O6	O	-1.583946	0.093922	-0.265871
O7	O	-2.035308	0.162410	-0.254575
Zn8	Zn	-1.814816	0.082456	-0.255581
Zn9	Zn	-1.771759	0.461776	-0.294105
O10	O	-1.769862	0.122136	-0.491580
C11	C	-1.510357	0.229184	-0.277646
C12	C	-1.339774	0.203301	-0.269151
N13	N	-1.844213	-0.176418	-0.229288
C14	C	-1.076219	0.315043	-0.272035
C15	C	-1.246806	0.340913	-0.280517
C16	C	-1.839080	0.279063	0.015855
C17	C	-1.857019	0.281793	0.192672
N18	N	-1.742375	0.720652	-0.320385
C19	C	-1.747494	0.265173	-0.565541
C20	C	-1.729554	0.262454	-0.742359
H21	H	-1.288862	0.065693	-0.252939
Br22	Br	-2.061795	0.312847	0.325422
Br23	Br	-1.331653	0.570288	-0.307573
Br24	Br	-1.569107	-0.180308	-0.475370
H25	H	-1.948185	-0.235849	-0.136312
H26	H	-1.606693	0.243798	0.177985
