data_functionalizedCrystal
_audit_creation_method	'MofGen! by Chris Wilmer'
_symmetry_space_group_name_H-M	'P1'
_symmetry_Int_Tables_number	1
_symmetry_cell_setting	triclinic
loop_
_symmetry_equiv_pos_as_xyz
  x,y,z
_cell_length_a	12.827893
_cell_length_b	14.908520
_cell_length_c	12.827885
_cell_angle_alpha	93.263516
_cell_angle_beta	89.980728
_cell_angle_gamma	93.320575
loop_
_atom_site_label
_atom_site_type_symbol
_atom_site_fract_x
_atom_site_fract_y
_atom_site_fract_z
Zn1	Zn	1.573615	-0.359115	-0.614817
Zn2	Zn	1.563402	-0.509998	-0.450147
Zn3	Zn	1.398853	-0.359159	-0.440093
Zn4	Zn	1.388739	-0.509931	-0.624843
O5	O	1.481152	-0.434551	-0.532475
O6	O	1.718495	-0.379139	-0.592984
O7	O	1.541533	-0.490036	-0.302580
O8	O	1.430542	-0.232908	-0.454867
O9	O	1.710992	-0.489993	-0.472002
O10	O	1.558939	-0.232876	-0.583236
O11	O	1.420640	-0.379214	-0.295194
O12	O	1.251276	-0.379149	-0.464589
O13	O	1.413304	-0.489879	-0.769746
O14	O	1.243845	-0.489921	-0.600323
O15	O	1.549132	-0.379074	-0.762380
O16	O	1.531726	-0.636234	-0.481724
O17	O	1.403401	-0.636184	-0.610072
C18	C	1.209643	-0.434533	-0.532454
C19	C	1.093489	-0.434548	-0.532471
C20	C	1.038049	-0.489447	-0.599545
C21	C	0.917998	-0.489463	-0.599564
C22	C	1.465386	-0.668943	-0.548100
C23	C	1.458737	-0.769217	-0.554820
C24	C	1.580004	-0.957632	-0.433905
C25	C	1.573760	-1.051849	-0.440215
C26	C	1.440011	-1.051867	-0.573755
C27	C	1.446255	-0.957651	-0.567444
C28	C	1.516253	-0.910537	-0.497516
C29	C	1.522491	-0.816319	-0.491201
C30	C	1.388748	-0.816339	-0.624745
C31	C	1.382504	-0.910555	-0.631056
C32	C	1.753721	-0.434569	-0.532497
C33	C	1.869874	-0.434576	-0.532506
C34	C	1.481229	-0.434464	-0.805039
C35	C	1.481262	-0.434427	-0.921190
C36	C	1.497008	-0.199243	-0.516811
C37	C	1.503765	-0.098969	-0.510137
C38	C	1.548481	-0.379587	-0.969329
C39	C	1.548517	-0.379547	-1.089377
C40	C	1.481140	-0.434572	-0.260966
C41	C	1.481327	-0.434355	-0.144799
H42	H	0.870335	-0.536467	-0.656985
H43	H	1.383030	-1.090244	-0.630693
H44	H	1.423778	-0.481311	-1.103394
O45	O	1.326966	-0.770551	-0.686652
C46	C	1.390030	-0.715944	-0.750531
H47	H	1.470457	-0.744264	-0.758965
H48	H	1.352254	-0.714855	-0.830843
H49	H	1.398375	-0.644556	-0.713442
H50	H	1.325517	-0.948929	-0.687992
O51	O	1.617073	-0.323559	-1.138935
C52	C	1.601857	-0.335993	-1.247764
H53	H	1.519211	-0.365545	-1.264528
H54	H	1.613466	-0.268437	-1.284821
H55	H	1.660587	-0.384050	-1.281945
H56	H	0.917530	-0.387576	-0.475075
H57	H	1.423733	-0.481343	-0.968851
O58	O	1.635828	-1.097622	-0.378590
C59	C	1.699662	-1.152027	-0.441822
H60	H	1.707900	-1.123579	-0.522232
H61	H	1.780059	-1.153028	-0.404207
H62	H	1.662647	-1.223466	-0.450156
O63	O	1.617006	-0.323479	-0.912516
C64	C	1.600282	-0.233534	-0.933138
H65	H	1.517145	-0.228937	-0.962902
H66	H	1.612196	-0.189046	-0.858348
H67	H	1.657980	-0.209886	-0.994838
H68	H	1.052076	-0.387555	-0.475065
O69	O	1.087570	-0.545382	-0.668080
C70	C	1.154164	-0.494029	-0.732201
H71	H	1.174980	-0.425608	-0.690897
H72	H	1.228506	-0.530718	-0.748499
H73	H	1.112859	-0.484237	-0.809054
H74	H	1.636991	-0.919271	-0.376960
O75	O	1.590425	-0.770648	-0.423139
C76	C	1.566107	-0.793738	-0.320509
H77	H	1.521401	-0.862177	-0.322889
H78	H	1.641345	-0.796933	-0.273939
H79	H	1.515912	-0.740775	-0.281711
