data_functionalizedCrystal
_audit_creation_method	'MofGen! by Chris Wilmer'
_symmetry_space_group_name_H-M	'P1'
_symmetry_Int_Tables_number	1
_symmetry_cell_setting	triclinic
loop_
_symmetry_equiv_pos_as_xyz
  x,y,z
_cell_length_a	18.215407
_cell_length_b	15.297327
_cell_length_c	18.215399
_cell_angle_alpha	80.351692
_cell_angle_beta	90.019833
_cell_angle_gamma	99.707397
loop_
_atom_site_label
_atom_site_type_symbol
_atom_site_fract_x
_atom_site_fract_y
_atom_site_fract_z
Zn1	Zn	1.074360	-0.359166	0.466794
Zn2	Zn	1.052966	-0.510038	0.365016
Zn3	Zn	0.951288	-0.359195	0.343746
Zn4	Zn	0.929963	-0.509988	0.488034
O5	O	1.002144	-0.434597	0.415897
O6	O	1.174505	-0.379188	0.453306
O7	O	1.039449	-0.490062	0.259215
O8	O	0.985492	-0.232944	0.342278
O9	O	1.158787	-0.490033	0.378530
O10	O	1.075912	-0.232922	0.432681
O11	O	0.964747	-0.379238	0.243588
O12	O	0.845476	-0.379190	0.362873
O13	O	0.949146	-0.489948	0.588196
O14	O	0.829808	-0.489976	0.468881
O15	O	1.055234	-0.379139	0.572591
O16	O	1.018771	-0.636279	0.399125
O17	O	0.928401	-0.636242	0.489506
C18	C	0.810940	-0.434581	0.415874
C19	C	0.729139	-0.434597	0.415885
C20	C	0.968970	-0.668995	0.448944
C21	C	0.954846	-0.769272	0.463106
C22	C	0.532793	-0.492374	0.471037
C23	C	0.455934	-0.492377	0.471046
C24	C	0.472244	-0.376836	0.360776
C25	C	0.549103	-0.376830	0.360771
C26	C	0.579374	-0.434603	0.415900
C27	C	0.425657	-0.434613	0.415916
C28	C	0.342323	-0.434616	0.415926
C29	C	0.662714	-0.434600	0.415891
C30	C	1.103397	-1.051887	0.314929
C31	C	1.116667	-0.957672	0.301619
C32	C	1.076213	-0.910567	0.341990
C33	C	1.022486	-0.957687	0.395673
C34	C	1.009211	-1.051911	0.408980
C35	C	0.982027	-0.910591	0.436041
C36	C	0.928300	-0.957711	0.489723
C37	C	0.915027	-1.051926	0.503028
C38	C	0.955481	-1.099031	0.462658
C39	C	0.995303	-0.816367	0.422734
C40	C	0.901116	-0.816392	0.516784
C41	C	0.887846	-0.910606	0.530094
C42	C	1.194095	-0.434613	0.415921
C43	C	1.275892	-0.434620	0.415931
C44	C	1.002198	-0.434535	0.607842
C45	C	1.002220	-0.434508	0.689637
C46	C	1.035467	-0.199283	0.382738
C47	C	1.049667	-0.099006	0.368607
C48	C	1.002142	-0.434594	0.224691
C49	C	1.002298	-0.434366	0.142860
C50	C	1.057485	-0.376756	0.869699
C51	C	1.057497	-0.376730	0.946554
C52	C	0.947028	-0.492120	0.962793
C53	C	0.947013	-0.492141	0.885938
C54	C	1.002245	-0.434461	0.839394
C55	C	1.002273	-0.434413	0.993103
C56	C	1.002286	-0.434385	1.076433
C57	C	1.002232	-0.434487	0.756058
H58	H	0.557438	-0.539415	0.515928
F59	F	1.052481	-0.766230	0.365602
F60	F	1.090496	-0.810295	0.327981
H61	H	1.102457	-0.329786	0.831804
F62	F	0.598682	-0.315334	0.302087
F63	F	1.173850	-0.907531	0.244494
H64	H	0.418010	-0.539418	0.515945
H65	H	0.902061	-0.539084	1.000699
F66	F	0.440020	-0.315354	0.302106
H67	H	1.136324	-1.090248	0.282060
H68	H	0.944681	-1.175748	0.473493
H69	H	0.871270	-1.090288	0.546732
F70	F	0.830667	-0.960766	0.587226
F71	F	0.858055	-0.766264	0.559749
H72	H	0.902025	-0.539131	0.861264
H73	H	1.102478	-0.329740	0.971224
