data_functionalizedCrystal
_audit_creation_method	'MofGen! by Chris Wilmer'
_symmetry_space_group_name_H-M	'P1'
_symmetry_Int_Tables_number	1
_symmetry_cell_setting	triclinic
loop_
_symmetry_equiv_pos_as_xyz
  x,y,z
_cell_length_a	13.897448
_cell_length_b	21.395362
_cell_length_c	21.395364
_cell_angle_alpha	90.027061
_cell_angle_beta	90.009246
_cell_angle_gamma	90.033571
loop_
_atom_site_label
_atom_site_type_symbol
_atom_site_fract_x
_atom_site_fract_y
_atom_site_fract_z
Zn1	Zn	-0.383779	0.957812	0.354598
Zn2	Zn	-0.545040	0.957769	0.249826
Zn3	Zn	-0.383806	0.853057	0.249799
Zn4	Zn	-0.545078	0.853020	0.354531
O5	O	-0.464426	0.905414	0.302188
O6	O	-0.405143	1.045484	0.340739
O7	O	-0.523648	0.943877	0.162144
O8	O	-0.248820	0.866987	0.263718
O9	O	-0.523621	1.045452	0.263763
O10	O	-0.248801	0.943950	0.340713
O11	O	-0.405189	0.866946	0.162125
O12	O	-0.405226	0.765375	0.263653
O13	O	-0.523686	0.866923	0.442217
O14	O	-0.523712	0.765347	0.340598
O15	O	-0.405180	0.943913	0.442267
O16	O	-0.680027	0.943840	0.263698
O17	O	-0.680055	0.866881	0.340624
C18	C	-0.464477	0.742627	0.302116
C19	C	-0.464522	0.672985	0.302099
C20	C	-0.715040	0.905369	0.302170
C21	C	-0.822254	0.905406	0.302183
C22	C	-0.526299	0.640274	0.342105
C23	C	-0.526276	0.574839	0.342133
C24	C	-0.464485	0.542117	0.302144
C25	C	-0.402695	0.574836	0.262136
C26	C	-0.402714	0.640270	0.262113
C27	C	-0.456704	0.438408	0.245739
C28	C	-0.456692	0.372975	0.245760
C29	C	-0.464422	0.340296	0.302213
C30	C	-0.472183	0.373059	0.358647
C31	C	-0.472202	0.438493	0.358625
C32	C	-0.464457	0.471165	0.302164
C33	C	-0.526177	0.236633	0.342253
C34	C	-0.526146	0.171196	0.342281
C35	C	-0.402571	0.171195	0.262279
C36	C	-0.402596	0.236630	0.262255
C37	C	-0.464404	0.269345	0.302241
C38	C	-1.018549	0.905472	0.302223
C39	C	-0.909317	0.905434	0.302203
C40	C	-0.212833	0.905477	0.302220
C41	C	-0.105619	0.905504	0.302234
C42	C	-0.464375	1.068838	0.302262
C43	C	-0.464354	1.138479	0.302293
C44	C	-0.464434	0.905418	0.465612
C45	C	-0.464438	0.905420	0.535253
C46	C	-0.526099	0.945472	1.037060
C47	C	-0.526106	0.945470	0.971624
C48	C	-0.464431	0.905418	0.938891
C49	C	-0.402763	0.865353	0.971599
C50	C	-0.402764	0.865351	1.037033
C51	C	-0.377525	0.900496	0.835232
C52	C	-0.377522	0.900502	0.769799
C53	C	-0.464426	0.905421	0.737070
C54	C	-0.551337	0.910346	0.769783
C55	C	-0.551339	0.910344	0.835218
C56	C	-0.464423	0.905416	0.867939
C57	C	-0.526103	0.945479	0.633418
C58	C	-0.526112	0.945473	0.567981
C59	C	-0.402760	0.865359	0.567957
C60	C	-0.402760	0.865361	0.633393
C61	C	-0.464430	0.905425	0.666119
C62	C	-0.464439	0.905408	1.139401
C63	C	-0.464435	0.905414	1.069760
H64	H	-0.576582	0.548200	0.374713
H65	H	-0.352546	0.832746	0.541307
H66	H	-0.576451	0.144564	0.374863
H67	H	-0.576627	0.666907	0.374666
N68	N	-0.480554	0.473829	0.419489
H69	H	-0.479391	0.520238	0.410906
H70	H	-0.543025	0.462380	0.440717
H71	H	-0.576335	0.978090	0.541358
N72	N	-0.335968	0.271907	0.219097
H73	H	-0.375101	0.299013	0.190006
H74	H	-0.291346	0.299062	0.244643
H75	H	-0.622103	0.914353	0.743138
H76	H	-0.576500	0.263271	0.374815
N77	N	-0.336080	0.675548	0.218956
H78	H	-0.375216	0.702652	0.189865
H79	H	-0.291462	0.702706	0.244503
N80	N	-0.448325	0.337639	0.184897
H81	H	-0.504030	0.348979	0.156787
H82	H	-0.385814	0.349053	0.163700
H83	H	-0.478475	0.346454	0.404617
N84	N	-0.336240	0.822159	0.936292
H85	H	-0.267318	0.831905	0.947694
H86	H	-0.351318	0.777404	0.947664
N87	N	-0.448363	0.473651	0.184846
H88	H	-0.443452	0.442969	0.149100
H89	H	-0.507128	0.500766	0.178954
N90	N	-0.336254	0.822143	1.072307
H91	H	-0.297185	0.796767	1.041644
H92	H	-0.291604	0.847657	1.099472
N93	N	-0.592617	0.988686	0.668722
H94	H	-0.631689	1.014059	0.638075
H95	H	-0.637263	0.963172	0.695856
H96	H	-0.622104	0.914353	0.861850
H97	H	-0.352255	0.144553	0.229722
N98	N	-0.283786	0.895188	0.870527
H99	H	-0.285099	0.856576	0.897653
H100	H	-0.228785	0.892099	0.839836
H101	H	-0.306754	0.896495	0.743169
N102	N	-0.336060	0.539548	0.218997
H103	H	-0.345429	0.493132	0.225076
H104	H	-0.350981	0.550949	0.174232
N105	N	-0.592619	0.988675	1.072359
H106	H	-0.577621	1.033445	1.060996
H107	H	-0.661514	0.978874	1.060943
N108	N	-0.592620	0.988677	0.936347
H109	H	-0.631686	1.014054	0.967011
H110	H	-0.553338	1.017680	0.909218
H111	H	-0.352543	0.832744	0.660017
