data_functionalizedCrystal
_audit_creation_method	'MofGen! by Chris Wilmer'
_symmetry_space_group_name_H-M	'P1'
_symmetry_Int_Tables_number	1
_symmetry_cell_setting	triclinic
loop_
_symmetry_equiv_pos_as_xyz
  x,y,z
_cell_length_a	14.519709
_cell_length_b	17.699083
_cell_length_c	16.776229
_cell_angle_alpha	89.992455
_cell_angle_beta	89.998478
_cell_angle_gamma	83.481580
loop_
_atom_site_label
_atom_site_type_symbol
_atom_site_fract_x
_atom_site_fract_y
_atom_site_fract_z
O1	O	1.223449	0.099215	-0.066186
O2	O	1.723449	0.599215	0.433814
O3	O	0.954923	0.110899	-0.066211
O4	O	1.454923	0.610899	0.433789
O5	O	1.096772	-0.005110	-0.066191
O6	O	1.596772	0.494890	0.433809
O7	O	1.081599	0.215225	-0.066206
O8	O	1.581599	0.715225	0.433794
O9	O	1.096754	-0.005117	0.066386
O10	O	1.596754	0.494883	0.566386
O11	O	0.954904	0.110892	0.066366
O12	O	1.454904	0.610892	0.566366
O13	O	1.223430	0.099208	0.066390
O14	O	1.723430	0.599208	0.566390
Zn15	Zn	1.089164	0.105049	0.087428
Zn16	Zn	1.589164	0.605049	0.587428
Zn17	Zn	1.089189	0.105058	-0.087248
Zn18	Zn	1.589189	0.605058	0.412752
O19	O	1.081580	0.215218	0.066370
O20	O	1.581580	0.715218	0.566370
C21	C	0.920556	0.110351	0.000075
C22	C	1.420556	0.610351	0.500075
C23	C	0.818181	0.108719	0.000065
C24	C	1.318181	0.608719	0.500065
C25	C	1.096219	-0.033312	0.000098
C26	C	1.596219	0.466688	0.500098
C27	C	1.094588	-0.117335	0.000098
C28	C	1.594588	0.382665	0.500098
C29	C	1.177851	-0.165718	0.000107
C30	C	1.677851	0.334282	0.500107
C31	C	1.176313	-0.244665	0.000099
C32	C	1.676313	0.255335	0.500099
C33	C	1.091511	-0.275229	0.000089
C34	C	1.591511	0.224771	0.500089
C35	C	1.008242	-0.226840	0.000078
C36	C	1.508242	0.273160	0.500078
C37	C	1.009781	-0.147894	0.000080
C38	C	1.509781	0.352106	0.500080
C39	C	1.002033	-0.545221	0.000071
C40	C	1.502033	-0.045221	0.500071
C41	C	1.000501	-0.624173	0.000072
C42	C	1.500501	-0.124173	0.500072
C43	C	1.168566	-0.641992	0.000091
C44	C	1.668566	-0.141992	0.500091
C45	C	1.170105	-0.563046	0.000092
C46	C	1.670105	-0.063046	0.500092
C47	C	1.086836	-0.514664	0.000077
C48	C	1.586836	-0.014664	0.500077
C49	C	1.088505	-0.429060	0.000083
C50	C	1.588505	0.070940	0.500083
C51	C	1.089841	-0.360831	0.000089
C52	C	1.589841	0.139169	0.500089
C53	C	0.443311	0.102712	0.000102
C54	C	0.943311	0.602712	0.500102
C55	C	0.547612	0.104380	0.000092
C56	C	1.047612	0.604380	0.500092
C57	C	0.630743	0.105716	0.000083
C58	C	1.130743	0.605716	0.500083
C59	C	0.735050	0.107384	0.000074
C60	C	1.235050	0.607384	0.500074
C61	C	1.257797	0.099756	0.000104
C62	C	1.757797	0.599756	0.500104
C63	C	1.360171	0.101388	0.000107
C64	C	1.860171	0.601388	0.500107
C65	C	1.082134	0.243420	0.000080
C66	C	1.582134	0.743420	0.500080
C67	C	1.083765	0.327442	0.000075
C68	C	1.583765	0.827442	0.500075
N69	N	1.089154	0.105042	0.206639
N70	N	1.589154	0.605042	0.706639
N71	N	1.089206	0.105059	-0.206459
N72	N	1.589206	0.605059	0.293541
C73	C	1.151984	0.053694	0.248365
C74	C	1.651984	0.553694	0.748365
C75	C	1.151989	0.053694	0.331817
C76	C	1.651989	0.553694	0.831817
C77	C	1.089168	0.105045	0.373542
C78	C	1.589168	0.605045	0.873542
C79	C	1.026331	0.156395	0.331810
C80	C	1.526331	0.656395	0.831810
C81	C	1.026322	0.156392	0.248359
C82	C	1.526322	0.656392	0.748359
C83	C	1.026364	0.156410	0.668357
C84	C	1.526364	0.656410	1.168357
C85	C	1.026380	0.156411	0.751814
C86	C	1.526380	0.656411	1.251814
C87	C	1.152031	0.053712	0.751815
C88	C	1.652031	0.553712	1.251815
C89	C	1.152022	0.053709	0.668364
C90	C	1.652022	0.553709	1.168364
C91	C	1.089183	0.105056	0.626640
C92	C	1.589183	0.605056	1.126640
C93	C	1.089177	0.105055	0.536151
C94	C	1.589177	0.605055	1.036151
C95	C	1.089177	0.105050	0.464028
C96	C	1.589177	0.605050	0.964028
H97	H	1.246907	-0.140840	0.000120
H98	H	1.746907	0.359160	0.500120
C99	C	0.916263	-0.260167	0.000108
C100	C	1.416263	0.239833	0.500108
C101	C	0.932734	-0.339661	0.000132
C102	C	1.432734	0.160339	0.500132
C103	C	0.848024	-0.370385	0.000173
C104	C	1.348024	0.129615	0.500173
H105	H	0.881923	-0.243647	-0.046115
H106	H	1.381923	0.256353	0.453885
H107	H	0.881973	-0.243614	0.046355
H108	H	1.381973	0.256386	0.546355
H109	H	0.967010	-0.356208	-0.046111
H110	H	1.467010	0.143792	0.453889
H111	H	0.967060	-0.356202	0.046352
H112	H	1.467060	0.143798	0.546352
H113	H	0.813733	-0.353832	0.046421
H114	H	1.313733	0.146168	0.546421
H115	H	0.813690	-0.353860	-0.046051
H116	H	1.313690	0.146140	0.453949
H117	H	0.859187	-0.424324	0.000197
H118	H	1.359187	0.075676	0.500197
C119	C	0.919281	-0.095487	0.000110
C120	C	1.419281	0.404513	0.500110
C121	C	0.844684	-0.139148	0.000122
C122	C	1.344684	0.360852	0.500122
C123	C	0.761299	-0.090898	0.000155
C124	C	1.261299	0.409102	0.500155
H125	H	0.916266	-0.064299	-0.046111
H126	H	1.416266	0.435701	0.453889
H127	H	0.916327	-0.064334	0.046360
H128	H	1.416327	0.435666	0.546360
H129	H	0.847636	-0.170288	-0.046123
H130	H	1.347636	0.329712	0.453877
H131	H	0.847668	-0.170335	0.046339
H132	H	1.347668	0.329665	0.546339
H133	H	0.758346	-0.059746	0.046405
H134	H	1.258346	0.440254	0.546405
H135	H	0.758294	-0.059713	-0.046066
H136	H	1.258294	0.440287	0.453934
H137	H	0.710676	-0.120515	0.000170
H138	H	1.210676	0.379485	0.500170
H139	H	0.975176	0.198204	0.365787
H140	H	1.475176	0.698204	0.865787
H141	H	1.203144	0.011881	0.214398
H142	H	1.703144	0.511881	0.714398
H143	H	1.203180	0.011896	0.634394
H144	H	1.703180	0.511896	1.134394
H145	H	1.236367	-0.681395	0.000099
H146	H	1.736367	-0.181395	0.500099
H147	H	0.975158	0.198203	0.214387
H148	H	1.475158	0.698203	0.714387
H149	H	1.203150	0.011882	0.365790
H150	H	1.703150	0.511882	0.865790
C151	C	1.266814	-0.297069	0.000156
C152	C	1.766814	0.202931	0.500156
C153	C	1.341408	-0.253406	0.000193
C154	C	1.841408	0.246594	0.500193
C155	C	1.424795	-0.301654	0.000256
C156	C	1.924795	0.198346	0.500256
H157	H	1.269853	-0.328248	-0.046064
H158	H	1.769853	0.171752	0.453936
H159	H	1.269745	-0.328231	0.046407
H160	H	1.769745	0.171769	0.546407
H161	H	1.338478	-0.222257	-0.046053
H162	H	1.838478	0.277743	0.453947
H163	H	1.338400	-0.222229	0.046410
H164	H	1.838400	0.277771	0.546410
H165	H	1.427726	-0.332816	0.046507
H166	H	1.927726	0.167184	0.546507
H167	H	1.427824	-0.332830	-0.045965
H168	H	1.927824	0.167170	0.454035
H169	H	1.475417	-0.272035	0.000289
H170	H	1.975417	0.227965	0.500289
H171	H	1.203196	0.011900	0.785796
H172	H	1.703196	0.511900	1.285796
H173	H	0.975220	0.198229	0.785785
H174	H	1.475220	0.698229	1.285785
H175	H	1.239159	-0.538166	0.000105
H176	H	1.739159	-0.038166	0.500105
H177	H	0.975200	0.198220	0.634392
H178	H	1.475200	0.698220	1.134392
C179	C	0.908330	-0.657212	0.000013
C180	C	1.408330	-0.157212	0.500013
C181	C	0.835735	-0.597944	-0.000024
C182	C	1.335735	-0.097944	0.499976
C183	C	0.750821	-0.628351	-0.000089
C184	C	1.250821	-0.128351	0.499911
H185	H	0.904094	-0.687632	0.046232
H186	H	1.404094	-0.187632	0.546232
H187	H	0.904204	-0.687613	-0.046239
H188	H	1.404204	-0.187613	0.453761
H189	H	0.839860	-0.567556	0.046223
H190	H	1.339860	-0.067556	0.546223
H191	H	0.839941	-0.567520	-0.046240
H192	H	1.339941	-0.067520	0.453760
H193	H	0.746694	-0.658752	-0.046341
H194	H	1.246694	-0.158752	0.453659
H195	H	0.746594	-0.658771	0.046131
H196	H	1.246594	-0.158771	0.546131
H197	H	0.701555	-0.588143	-0.000122
H198	H	1.201555	-0.088143	0.499878
H199	H	0.934231	-0.505837	0.000059
H200	H	1.434231	-0.005837	0.500059
