data_functionalizedCrystal
_audit_creation_method	'MofGen! by Chris Wilmer'
_symmetry_space_group_name_H-M	'P1'
_symmetry_Int_Tables_number	1
_symmetry_cell_setting	triclinic
loop_
_symmetry_equiv_pos_as_xyz
  x,y,z
_cell_length_a	6.817900
_cell_length_b	15.300992
_cell_length_c	11.102291
_cell_angle_alpha	93.598082
_cell_angle_beta	108.605752
_cell_angle_gamma	104.175078
loop_
_atom_site_label
_atom_site_type_symbol
_atom_site_fract_x
_atom_site_fract_y
_atom_site_fract_z
V1	V	-4.088944	-0.124769	-0.396642
O2	O	-4.071655	0.005984	-0.388697
O3	O	-4.043515	-0.247386	-0.394308
O4	O	-4.066075	-0.122855	-0.569458
O5	O	-4.048939	-0.119408	-0.212335
V6	V	-4.568878	-0.109129	-0.374551
O7	O	-4.358073	-0.159078	-0.445099
O8	O	-4.749946	-0.074821	-0.326093
O9	O	-4.391100	0.013487	-0.376885
O10	O	-4.703564	-0.239883	-0.382495
O11	O	-4.726280	-0.114490	-0.558858
O12	O	-4.368540	-0.111043	-0.201735
C13	C	-3.888413	-0.277277	-0.388148
C14	C	-3.932727	-0.377517	-0.387392
C15	C	-3.895704	-0.411729	-0.270612
C16	C	-3.937363	-0.505917	-0.269905
C17	C	-4.016029	-0.565890	-0.385980
C18	C	-4.053059	-0.531672	-0.502770
C19	C	-4.011415	-0.437486	-0.503475
C20	C	-4.139849	-0.727983	-0.501291
C21	C	-4.181492	-0.822175	-0.500586
C22	C	-4.065796	-0.796413	-0.267721
C23	C	-4.024152	-0.702228	-0.268427
C24	C	-4.061182	-0.668016	-0.385216
C25	C	-3.917189	-0.118425	-0.611568
C26	C	-3.979794	-0.117671	-0.752849
C27	C	-4.192399	-0.121814	-0.825710
C28	C	-4.251201	-0.121088	-0.958454
C29	C	-3.884776	-0.112080	-0.945465
C30	C	-3.825973	-0.112799	-0.812722
C31	C	-4.403954	-0.127019	-0.833211
C32	C	-4.462757	-0.126293	-0.965955
C33	C	-4.209544	0.043373	-0.383041
C34	C	-4.144469	0.143613	-0.383806
C35	C	-4.180768	-0.115477	-0.159618
C36	C	-4.097400	-0.116226	-0.018336
H37	H	-3.907218	-0.533767	-0.174811
C38	C	-4.640911	-0.214369	-1.037631
H39	H	-4.680818	-0.213868	-1.127709
H40	H	-4.588875	-0.265699	-1.017004
H41	H	-4.762967	-0.217864	-1.012413
C42	C	-4.516365	-0.217854	-0.800423
H43	H	-4.471828	-0.215257	-0.709682
H44	H	-4.668158	-0.228027	-0.834602
H45	H	-4.478413	-0.266321	-0.836742
C46	C	-3.809199	-0.345768	-0.142928
H47	H	-3.793144	-0.379637	-0.073279
H48	H	-3.673361	-0.305548	-0.134283
H49	H	-3.907769	-0.311435	-0.142442
H50	H	-3.960086	-0.653399	-0.173908
C51	C	-4.025108	-0.834043	-0.139256
H52	H	-4.061208	-0.898726	-0.155458
H53	H	-3.877334	-0.810386	-0.087456
H54	H	-4.111728	-0.816246	-0.095613
C55	C	-4.445224	-0.044346	-0.769319
H56	H	-4.405342	-0.044846	-0.679242
H57	H	-4.361944	0.010317	-0.785148
H58	H	-4.593877	-0.047520	-0.804139
H59	H	-4.245543	-0.871003	-0.595104
H60	H	-4.510813	-0.062270	-0.994860
C61	C	-4.180570	-0.690351	-0.629757
H62	H	-4.233361	-0.739556	-0.698786
H63	H	-4.283914	-0.657079	-0.638945
H64	H	-4.049519	-0.651211	-0.630798
H65	H	-4.041586	-0.409634	-0.598571
H66	H	-4.117127	-0.580510	-0.597280
H67	H	-3.652856	-0.109426	-0.753403
H68	H	-3.759548	-0.108112	-0.994229
