data_functionalizedCrystal
_audit_creation_method	'MofGen! by Chris Wilmer'
_symmetry_space_group_name_H-M	'P1'
_symmetry_Int_Tables_number	1
_symmetry_cell_setting	triclinic
loop_
_symmetry_equiv_pos_as_xyz
  x,y,z
_cell_length_a	25.639242
_cell_length_b	25.639239
_cell_length_c	12.759393
_cell_angle_alpha	89.964022
_cell_angle_beta	89.976304
_cell_angle_gamma	90.030990
loop_
_atom_site_label
_atom_site_type_symbol
_atom_site_fract_x
_atom_site_fract_y
_atom_site_fract_z
Zn1	Zn	0.799273	-0.208233	-0.594057
Zn2	Zn	1.299273	0.291767	-0.094057
Zn3	Zn	0.799182	-0.295678	-0.418360
Zn4	Zn	1.299182	0.204322	0.081640
Zn5	Zn	0.711835	-0.208247	-0.418384
Zn6	Zn	1.211835	0.291753	0.081616
Zn7	Zn	0.711795	-0.295627	-0.593989
Zn8	Zn	1.211795	0.204373	-0.093989
O9	O	0.755521	-0.251946	-0.506198
O10	O	1.255521	0.248054	-0.006198
O11	O	0.872426	-0.219848	-0.570769
O12	O	1.372426	0.280152	-0.070769
O13	O	0.787575	-0.284107	-0.271342
O14	O	1.287575	0.215893	0.228658
O15	O	0.723489	-0.135080	-0.441726
O16	O	1.223489	0.364920	0.058274
O17	O	0.872360	-0.284094	-0.441686
O18	O	1.372360	0.215906	0.058314
O19	O	0.787729	-0.135069	-0.570792
O20	O	1.287729	0.364931	-0.070792
O21	O	0.723401	-0.219871	-0.271360
O22	O	1.223401	0.280129	0.228640
O23	O	0.638665	-0.219822	-0.441660
O24	O	1.138665	0.280178	0.058340
O25	O	0.723420	-0.284007	-0.741019
O26	O	1.223420	0.215993	-0.241019
O27	O	0.638635	-0.284021	-0.570676
O28	O	1.138635	0.215979	-0.070676
O29	O	0.787690	-0.219799	-0.741069
O30	O	1.287690	0.280201	-0.241069
O31	O	0.787535	-0.368836	-0.441620
O32	O	1.287535	0.131164	0.058380
O33	O	0.723332	-0.368799	-0.570653
O34	O	1.223332	0.131201	-0.070653
C35	C	0.619679	-0.251918	-0.506164
C36	C	1.119679	0.248082	-0.006164
C37	C	0.561565	-0.251918	-0.506174
C38	C	1.061565	0.248082	-0.006174
C39	C	0.755433	-0.387789	-0.506150
C40	C	1.255433	0.112211	-0.006150
C41	C	0.755444	-0.445903	-0.506164
C42	C	1.255444	0.054097	-0.006164
C43	C	0.310414	-0.218553	-0.573534
C44	C	0.810414	0.281447	-0.073534
C45	C	0.365018	-0.218548	-0.573528
C46	C	0.865018	0.281452	-0.073528
O47	O	0.393292	-0.190156	-0.630793
O48	O	0.893292	0.309844	-0.130793
N49	N	0.392291	-0.251940	-0.506210
N50	N	0.892291	0.248060	-0.006210
C51	C	0.364956	-0.285344	-0.438900
C52	C	0.864956	0.214656	0.061100
O53	O	0.393168	-0.313746	-0.381641
O54	O	0.893168	0.186254	0.118359
C55	C	0.310353	-0.285351	-0.438912
C56	C	0.810353	0.214649	0.061088
C57	C	0.283083	-0.251953	-0.506228
C58	C	0.783083	0.248047	-0.006228
C59	C	0.283144	-0.185158	-0.640845
C60	C	0.783144	0.314842	-0.140845
C61	C	0.228544	-0.185162	-0.640849
C62	C	0.728544	0.314838	-0.140849
C63	C	0.201213	-0.218562	-0.573543
C64	C	0.701213	0.281438	-0.073543
C65	C	0.228483	-0.251957	-0.506232
C66	C	0.728483	0.248043	-0.006232
C67	C	0.283019	-0.318757	-0.371609
C68	C	0.783019	0.181243	0.128391
C69	C	0.228412	-0.318761	-0.371628
C70	C	0.728412	0.181239	0.128372
C71	C	0.201143	-0.285363	-0.438943
C72	C	0.701143	0.214637	0.061057
C73	C	0.146551	-0.285362	-0.438930
C74	C	0.646551	0.214638	0.061070
N75	N	0.119279	-0.251969	-0.506249
N76	N	0.619279	0.248031	-0.006249
C77	C	0.146610	-0.218570	-0.573555
C78	C	0.646610	0.281430	-0.073555
C79	C	0.479627	-0.285326	-0.438882
C80	C	0.979627	0.214674	0.061118
C81	C	0.534229	-0.285316	-0.438863
C82	C	1.034229	0.214684	0.061137
C83	C	0.534288	-0.218521	-0.573493
C84	C	1.034288	0.281479	-0.073493
C85	C	0.479684	-0.218529	-0.573505
C86	C	0.979684	0.281471	-0.073505
C87	C	0.452354	-0.251934	-0.506200
C88	C	0.952354	0.248066	-0.006200
C89	C	0.031945	-0.218581	-0.573558
C90	C	0.531945	0.281419	-0.073558
C91	C	-0.022661	-0.218587	-0.573554
C92	C	0.477339	0.281413	-0.073554
C93	C	-0.022714	-0.285384	-0.438929
C94	C	0.477286	0.214616	0.061071
C95	C	0.031886	-0.285377	-0.438929
C96	C	0.531886	0.214623	0.061071
C97	C	0.059214	-0.251973	-0.506252
C98	C	0.559214	0.248027	-0.006252
O99	O	0.118244	-0.313740	-0.381698
O100	O	0.618244	0.186260	0.118302
O101	O	0.118392	-0.190176	-0.630814
O102	O	0.618392	0.309824	-0.130814
C103	C	0.789039	-0.806273	-0.439124
C104	C	1.289039	-0.306273	0.060876
C105	C	0.789060	-0.860877	-0.439138
C106	C	1.289060	-0.360877	0.060862
O107	O	0.817533	-0.889119	-0.382086
O108	O	1.317533	-0.389119	0.117914
N109	N	0.755613	-0.888185	-0.506267
N110	N	1.255613	-0.388185	-0.006267
C111	C	0.722148	-0.860886	-0.573394
C112	C	1.222148	-0.360886	-0.073394
O113	O	0.693702	-0.889128	-0.630494
O114	O	1.193702	-0.389128	-0.130494
C115	C	0.722131	-0.806283	-0.573385
C116	C	1.222131	-0.306283	-0.073385
C117	C	0.755576	-0.778978	-0.506244
C118	C	1.255576	-0.278978	-0.006244
C119	C	0.822482	-0.778967	-0.371990
C120	C	1.322482	-0.278967	0.128010
C121	C	0.822461	-0.724367	-0.371975
C122	C	1.322461	-0.224367	0.128025
C123	C	0.788997	-0.697072	-0.439094
C124	C	1.288997	-0.197072	0.060906
C125	C	0.755555	-0.724377	-0.506229
C126	C	1.255555	-0.224377	-0.006229
C127	C	0.688669	-0.778985	-0.640516
C128	C	1.188669	-0.278985	-0.140516
C129	C	0.688655	-0.724378	-0.640501
C130	C	1.188655	-0.224378	-0.140501
C131	C	0.722100	-0.697073	-0.573360
C132	C	1.222100	-0.197073	-0.073360
C133	C	0.722070	-0.642482	-0.573333
C134	C	1.222070	-0.142482	-0.073333
N135	N	0.755516	-0.615173	-0.506204
N136	N	1.255516	-0.115173	-0.006204
C137	C	0.788980	-0.642468	-0.439084
C138	C	1.288980	-0.142468	0.060916
C139	C	0.722188	-0.975557	-0.573410
C140	C	1.222188	-0.475557	-0.073410
C141	C	0.722202	-1.030159	-0.573415
C142	C	1.222202	-0.530159	-0.073415
C143	C	0.789114	-1.030146	-0.439161
C144	C	1.289114	-0.530146	0.060839
C145	C	0.789097	-0.975543	-0.439151
C146	C	1.289097	-0.475543	0.060849
C147	C	0.755634	-0.948249	-0.506281
C148	C	1.255634	-0.448249	-0.006281
C149	C	0.788933	-0.527803	-0.439057
C150	C	1.288933	-0.027803	0.060943
C151	C	0.788907	-0.473198	-0.439045
C152	C	1.288907	0.026802	0.060955
C153	C	0.721997	-0.473216	-0.573303
C154	C	1.221997	0.026784	-0.073303
C155	C	0.722021	-0.527816	-0.573312
C156	C	1.222021	-0.027816	-0.073312
C157	C	0.755493	-0.555109	-0.506185
C158	C	1.255493	-0.055109	-0.006185
O159	O	0.693613	-0.614204	-0.630359
O160	O	1.193613	-0.114204	-0.130359
O161	O	0.817427	-0.614220	-0.382003
O162	O	1.317427	-0.114220	0.117997
C163	C	0.891894	-0.251975	-0.506232
C164	C	1.391894	0.248025	-0.006232
C165	C	0.950008	-0.251987	-0.506247
C166	C	1.450008	0.248013	-0.006247
C167	C	0.755561	-0.251896	-0.780231
C168	C	1.255561	0.248104	-0.280231
C169	C	0.755577	-0.251875	-0.897008
C170	C	1.255577	0.248125	-0.397008
C171	C	0.755624	-0.115573	-0.506269
C172	C	1.255624	0.384427	-0.006269
C173	C	0.755668	-0.057459	-0.506299
C174	C	1.255668	0.442541	-0.006299
C175	C	0.789045	-0.218436	-0.951898
C176	C	1.289045	0.281564	-0.451898
C177	C	0.789054	-0.218413	-1.061622
C178	C	1.289054	0.281587	-0.561622
C179	C	0.722126	-0.285273	-1.061557
C180	C	1.222126	0.214727	-0.561557
C181	C	0.722114	-0.285292	-0.951835
C182	C	1.222114	0.214708	-0.451835
C183	C	0.755513	-0.251958	-0.233230
C184	C	1.255513	0.248042	0.266770
C185	C	0.755597	-0.251833	-0.116454
C186	C	1.255597	0.248167	0.383546
H187	H	-0.044861	-0.191388	-0.628370
H188	H	0.455139	0.308612	-0.128370
F189	F	0.686600	-1.059214	-0.644864
F190	F	1.186600	-0.559214	-0.144864
H191	H	0.694789	-0.550050	-0.627986
H192	H	1.194789	-0.050050	-0.127986
F193	F	0.686516	-0.320838	-1.119917
F194	F	1.186516	0.179162	-0.619917
H195	H	0.661406	-0.702158	-0.695170
H196	H	1.161406	-0.202158	-0.195170
F197	F	0.686489	-0.320882	-0.893414
F198	F	1.186489	0.179118	-0.393414
F199	F	0.312030	-0.354298	-0.299949
F200	F	0.812030	0.145702	0.200051
F201	F	0.824679	-0.182827	-1.120035
F202	F	1.324679	0.317173	-0.620035
H203	H	0.054189	-0.191381	-0.628379
H204	H	0.554189	0.308619	-0.128379
F205	F	0.824505	-0.444140	-0.367581
F206	F	1.324505	0.055860	0.132419
F207	F	0.858064	-0.695313	-0.300526
F208	F	1.358064	-0.195313	0.199474
F209	F	0.199528	-0.149619	-0.712504
F210	F	0.699528	0.350381	-0.212504
F211	F	0.312224	-0.149607	-0.712490
F212	F	0.812224	0.350393	-0.212490
F213	F	0.199329	-0.354320	-0.299996
F214	F	0.699329	0.145680	0.200004
F215	F	0.824693	-0.946487	-0.367692
F216	F	1.324693	-0.446487	0.132308
F217	F	0.563385	-0.182974	-0.645127
F218	F	1.063385	0.317026	-0.145127
F219	F	0.450667	-0.182983	-0.645151
F220	F	0.950667	0.317017	-0.145151
H221	H	0.054090	-0.312568	-0.384106
H222	H	0.554090	0.187432	0.115894
H223	H	0.849735	-0.801185	-0.317333
H224	H	1.349735	-0.301185	0.182667
F225	F	0.563246	-0.320855	-0.367200
F226	F	1.063246	0.179145	0.132800
H227	H	0.457378	-0.312527	-0.384065
H228	H	0.957378	0.187473	0.115935
H229	H	-0.044977	-0.312576	-0.384125
H230	H	0.455023	0.187424	0.115875
F231	F	0.686386	-0.444157	-0.644735
F232	F	1.186386	0.055843	-0.144735
F233	F	0.824557	-0.556842	-0.367613
F234	F	1.324557	-0.056842	0.132387
F235	F	0.824729	-1.059205	-0.367724
F236	F	1.324729	-0.559205	0.132276
H237	H	0.694934	-0.953337	-0.628073
H238	H	1.194934	-0.453337	-0.128073
H239	H	0.661432	-0.801208	-0.695184
H240	H	1.161432	-0.301208	-0.195184
H241	H	0.816291	-0.191224	-0.907261
H242	H	1.316291	0.308776	-0.407261
