data_functionalizedCrystal
_audit_creation_method	'MofGen! by Chris Wilmer'
_symmetry_space_group_name_H-M	'P1'
_symmetry_Int_Tables_number	1
_symmetry_cell_setting	triclinic
loop_
_symmetry_equiv_pos_as_xyz
  x,y,z
_cell_length_a	22.610064
_cell_length_b	10.654541
_cell_length_c	23.532407
_cell_angle_alpha	96.333697
_cell_angle_beta	89.984707
_cell_angle_gamma	89.991306
loop_
_atom_site_label
_atom_site_type_symbol
_atom_site_fract_x
_atom_site_fract_y
_atom_site_fract_z
O1	O	-0.049173	-1.665287	0.079984
O2	O	-0.049179	-1.299566	0.087606
O3	O	-0.049165	-1.493455	0.000935
O4	O	-0.049187	-1.471398	0.166655
O5	O	0.049204	-1.493484	0.000921
O6	O	0.049190	-1.299596	0.087591
O7	O	0.049196	-1.665316	0.079970
Zn8	Zn	0.064811	-1.482461	0.083778
Zn9	Zn	-0.064794	-1.482422	0.083798
O10	O	0.049182	-1.471428	0.166640
C11	C	0.000005	-1.252801	0.087039
C12	C	0.000003	-1.113410	0.085366
N13	N	-0.153247	-1.482396	0.083807
C14	C	0.000021	-1.492908	-0.020292
C15	C	0.000026	-1.491219	-0.083520
C16	C	-0.561882	-1.568492	0.045486
C17	C	-0.623802	-1.568501	0.045484
O18	O	-0.655815	-1.641683	0.012926
N19	N	-0.654784	-1.482487	0.083779
C20	C	-0.623843	-1.396466	0.122083
O21	O	-0.655881	-1.323305	0.154656
C22	C	-0.561924	-1.396463	0.122088
C23	C	-0.530945	-1.482475	0.083786
C24	C	-0.530903	-1.654498	0.007188
C25	C	-0.468988	-1.654486	0.007190
C26	C	-0.438051	-1.568469	0.045491
C27	C	-0.469030	-1.482464	0.083789
C28	C	-0.530984	-1.310449	0.160395
C29	C	-0.469061	-1.310455	0.160397
C30	C	-0.438082	-1.396466	0.122095
C31	C	-0.376177	-1.396435	0.122091
N32	N	-0.345195	-1.482450	0.083796
C33	C	-0.376132	-1.568467	0.045496
C34	C	-0.753876	-1.396479	0.122070
C35	C	-0.815794	-1.396474	0.122063
C36	C	-0.815749	-1.568512	0.045464
C37	C	-0.753830	-1.568510	0.045469
C38	C	-0.722894	-1.482493	0.083775
C39	C	-0.246105	-1.568436	0.045503
C40	C	-0.184184	-1.568413	0.045507
C41	C	-0.184234	-1.396381	0.122107
C42	C	-0.246150	-1.396398	0.122102
C43	C	-0.277084	-1.482436	0.083797
O44	O	-0.344124	-1.323295	0.154634
O45	O	-0.344086	-1.641626	0.012933
N46	N	0.153264	-1.482496	0.083765
C47	C	0.000011	-1.712082	0.080536
C48	C	0.000009	-1.851472	0.082210
C49	C	-0.000018	-1.082156	0.189004
C50	C	-0.000031	-1.001045	0.240035
C51	C	-0.000031	-0.870077	0.238459
C52	C	-0.000017	-0.820218	0.185847
C53	C	-0.000004	-0.901329	0.134816
C54	C	-0.000005	-1.032299	0.136398
C55	C	0.000021	-0.932584	0.031179
C56	C	0.000018	-1.063552	0.032754
C57	C	0.000036	-0.882725	-0.021433
C58	C	0.000044	-0.963837	-0.072465
C59	C	0.000044	-1.094812	-0.070887
C60	C	0.000030	-1.144663	-0.018277
C61	C	-0.000005	-1.595367	-0.481945
C62	C	-0.000010	-1.593798	-0.541355
O63	O	-0.000030	-1.690344	-0.577471
N64	N	-0.000011	-1.478531	-0.564732
C65	C	-0.000014	-1.364826	-0.528695
O66	O	-0.000016	-1.266639	-0.554034
C67	C	-0.000014	-1.366396	-0.469285
C68	C	-0.000006	-1.481670	-0.445912
C69	C	0.000001	-1.710632	-0.458571
C70	C	0.000007	-1.712200	-0.399164
C71	C	0.000006	-1.598503	-0.363132
C72	C	-0.000001	-1.483238	-0.386506
C73	C	-0.000021	-1.252692	-0.433249
C74	C	-0.000021	-1.254272	-0.373836
C75	C	-0.000014	-1.369546	-0.350463
C76	C	0.000004	-1.371110	-0.291067
N77	N	0.000005	-1.486377	-0.267690
C78	C	0.000006	-1.600073	-0.303723
C79	C	-0.000016	-1.361537	-0.653459
C80	C	-0.000012	-1.359966	-0.712867
C81	C	-0.000009	-1.588939	-0.725523
C82	C	-0.000008	-1.590509	-0.666114
C83	C	-0.000014	-1.476804	-0.630082
C84	C	0.000019	-1.603358	-0.178964
C85	C	0.000027	-1.604916	-0.119552
C86	C	0.000020	-1.375944	-0.106901
C87	C	0.000015	-1.374385	-0.166308
C88	C	0.000013	-1.488102	-0.202339
O89	O	0.000022	-1.274615	-0.254916
O90	O	0.000001	-1.698244	-0.278375
C91	C	-0.000005	-1.471975	0.187867
C92	C	-0.000014	-1.473663	0.251096
H93	H	-0.158963	-1.638455	0.014315
Br94	Br	-0.000004	-0.642474	0.183709
H95	H	-0.000031	-1.158824	-0.452269
H96	H	-0.159036	-1.326343	0.153289
H97	H	-0.840949	-1.638554	0.014279
H98	H	-0.000008	-1.266098	-0.731892
H99	H	-0.000016	-1.268939	-0.624124
H100	H	0.000014	-1.695957	-0.208294
Br101	Br	-0.711898	-1.279724	0.174058
H102	H	-0.841013	-1.326423	0.153246
H103	H	0.000026	-1.280520	-0.185339
H104	H	-0.271284	-1.638497	0.014312
H105	H	-0.443876	-1.240411	0.191592
H106	H	-0.443768	-1.724528	-0.023996
H107	H	0.000039	-0.776083	-0.022713
H108	H	-0.000041	-1.041654	0.282871
H109	H	0.000011	-1.806068	-0.380140
H110	H	-0.000027	-1.161677	-0.344501
H111	H	0.000057	-1.160847	-0.112443
H112	H	0.000055	-0.923230	-0.115298
Br113	Br	0.000025	-1.322405	-0.016131
Br114	Br	-0.288191	-1.279648	0.174076
H115	H	-0.000037	-0.804035	0.280013
Br116	Br	-0.572878	-1.771252	-0.044796
H117	H	0.000022	-1.283375	-0.077553
Br118	Br	-0.000032	-1.259898	0.191147
H119	H	-0.728611	-1.638548	0.014281
H120	H	-0.556198	-1.240411	0.191583
Br121	Br	0.000037	-1.761370	-0.087836
Br122	Br	0.000003	-1.864956	-0.507462
H123	H	-0.000003	-1.684375	-0.647088
H124	H	-0.000010	-1.681517	-0.754872
