data_functionalizedCrystal
_audit_creation_method	'MofGen! by Chris Wilmer'
_symmetry_space_group_name_H-M	'P1'
_symmetry_Int_Tables_number	1
_symmetry_cell_setting	triclinic
loop_
_symmetry_equiv_pos_as_xyz
  x,y,z
_cell_length_a	18.050589
_cell_length_b	12.645331
_cell_length_c	18.050582
_cell_angle_alpha	90.018808
_cell_angle_beta	89.981795
_cell_angle_gamma	89.977525
loop_
_atom_site_label
_atom_site_type_symbol
_atom_site_fract_x
_atom_site_fract_y
_atom_site_fract_z
Zn1	Zn	-0.295820	-1.620574	-0.420012
Zn2	Zn	-0.420004	-1.620447	-0.295831
Zn3	Zn	-0.295820	-1.443312	-0.295828
Zn4	Zn	-0.419961	-1.443238	-0.419972
O5	O	-0.357901	-1.531893	-0.357911
O6	O	-0.312312	-1.768905	-0.403558
O7	O	-0.403548	-1.596927	-0.191906
O8	O	-0.191895	-1.466911	-0.312316
O9	O	-0.403549	-1.768811	-0.312323
O10	O	-0.191896	-1.597145	-0.403554
O11	O	-0.312311	-1.466787	-0.191904
O12	O	-0.312269	-1.294955	-0.312277
O13	O	-0.403476	-1.466785	-0.523902
O14	O	-0.403475	-1.294901	-0.403485
O15	O	-0.312270	-1.597073	-0.523931
O16	O	-0.523923	-1.596855	-0.312284
O17	O	-0.523891	-1.466661	-0.403489
C18	C	-0.357868	-1.256463	-0.357877
C19	C	-0.357871	-1.138633	-0.357880
C20	C	-0.300220	-0.971068	-0.300810
C21	C	-0.300376	-1.093628	-0.300564
C22	C	-0.436099	-1.094096	-0.336500
C23	C	-0.435777	-0.971498	-0.336105
C24	C	-0.338017	-0.971474	-0.436533
C25	C	-0.336276	-1.094081	-0.436102
C26	C	-0.550853	-1.531765	-0.357898
C27	C	-0.633399	-1.531807	-0.357918
C28	C	-0.832859	-1.461077	-0.407498
C29	C	-0.882292	-1.435243	-0.339729
C30	C	-0.784529	-1.531911	-0.357928
C31	C	-0.882179	-1.557797	-0.425704
C32	C	-0.930514	-1.532010	-0.357943
C33	C	-0.832874	-1.506027	-0.290123
C34	C	-0.832757	-1.628626	-0.376143
C35	C	-0.882167	-1.602829	-0.308328
C36	C	-0.700431	-1.531852	-0.357920
C37	C	-1.014611	-1.532070	-0.357943
C38	C	-0.164196	-1.532050	-0.357939
C39	C	-0.081650	-1.532117	-0.357952
C40	C	-0.357868	-1.531935	-0.551616
C41	C	-0.357854	-1.531952	-0.634162
C42	C	-0.357921	-0.808398	-0.357934
C43	C	-0.357892	-0.926228	-0.357915
C44	C	-0.407384	-1.461156	-0.833597
C45	C	-0.425544	-1.557873	-0.882994
C46	C	-0.357798	-1.532005	-0.785293
C47	C	-0.339617	-1.435340	-0.882977
C48	C	-0.357744	-1.532047	-0.931278
C49	C	-0.375993	-1.628773	-0.833603
C50	C	-0.290034	-1.506175	-0.833581
C51	C	-0.308169	-1.602959	-0.882956
C52	C	-0.357830	-1.531979	-0.701194
C53	C	-0.357711	-1.532083	-1.015374
C54	C	-0.357880	-1.531913	-0.164959
C55	C	-0.357685	-1.532100	-0.082413
H56	H	-0.313210	-0.940228	-0.242893
H57	H	-0.375222	-1.124720	-0.480927
H58	H	-0.449372	-1.401298	-0.811925
F59	F	-0.493845	-0.932722	-0.388094
H60	H	-0.482827	-1.579746	-0.904699
H61	H	-0.242032	-0.941617	-0.314064
F62	F	-0.804297	-1.735445	-0.396305
F63	F	-0.215182	-1.477550	-0.805189
H64	H	-0.278709	-1.123197	-0.452223
F65	F	-0.910490	-1.586363	-0.500613
F66	F	-0.396155	-1.735675	-0.805376
H67	H	-0.453249	-1.124758	-0.279646
H68	H	-0.904066	-1.353501	-0.324336
H69	H	-0.811306	-1.484077	-0.232796
H70	H	-0.266212	-1.662960	-0.904492
F71	F	-0.224553	-1.132991	-0.318079
F72	F	-0.317546	-1.131911	-0.224418
F73	F	-0.319545	-1.328469	-0.911327
H74	H	-0.452634	-0.942859	-0.278631
F75	F	-0.493770	-1.132186	-0.389165
H76	H	-0.281966	-0.940589	-0.455974
H77	H	-0.380023	-0.942476	-0.479081
H78	H	-0.903681	-1.662773	-0.266366
H79	H	-0.811208	-1.401087	-0.449359
