data_functionalizedCrystal
_audit_creation_method	'MofGen! by Chris Wilmer'
_symmetry_space_group_name_H-M	'P1'
_symmetry_Int_Tables_number	1
_symmetry_cell_setting	triclinic
loop_
_symmetry_equiv_pos_as_xyz
  x,y,z
_cell_length_a	13.897449
_cell_length_b	12.827892
_cell_length_c	12.827885
_cell_angle_alpha	89.970024
_cell_angle_beta	89.977049
_cell_angle_gamma	90.016218
loop_
_atom_site_label
_atom_site_type_symbol
_atom_site_fract_x
_atom_site_fract_y
_atom_site_fract_z
Zn1	Zn	1.474714	-0.415959	-0.590945
Zn2	Zn	1.974714	0.084041	-0.090945
Zn3	Zn	1.474616	-0.590737	-0.416204
Zn4	Zn	1.974616	-0.090737	0.083796
Zn5	Zn	1.313404	-0.416013	-0.416208
Zn6	Zn	1.813404	0.083987	0.083792
Zn7	Zn	1.313391	-0.590662	-0.590894
Zn8	Zn	1.813391	-0.090662	-0.090894
O9	O	1.394031	-0.503343	-0.503563
O10	O	1.894031	-0.003343	-0.003563
O11	O	1.609682	-0.439153	-0.567785
O12	O	2.109682	0.060847	-0.067785
O13	O	1.453195	-0.567613	-0.269969
O14	O	1.953195	-0.067613	0.230031
O15	O	1.334849	-0.269770	-0.439410
O16	O	1.834849	0.230230	0.060590
O17	O	1.609610	-0.567561	-0.439404
O18	O	2.109610	-0.067561	0.060596
O19	O	1.453362	-0.269730	-0.567788
O20	O	1.953362	0.230270	-0.067788
O21	O	1.334754	-0.439244	-0.269971
O22	O	1.834754	0.060756	0.230029
O23	O	1.178421	-0.439171	-0.439360
O24	O	1.678421	0.060829	0.060640
O25	O	1.334827	-0.567433	-0.737137
O26	O	1.834827	-0.067433	-0.237137
O27	O	1.178411	-0.567485	-0.567701
O28	O	1.678411	-0.067485	-0.067701
O29	O	1.453350	-0.439080	-0.737174
O30	O	1.953350	0.060920	-0.237174
O31	O	1.453182	-0.736963	-0.439355
O32	O	1.953182	-0.236963	0.060645
O33	O	1.334731	-0.736908	-0.567698
O34	O	1.834731	-0.236908	-0.067698
C35	C	1.143417	-0.503327	-0.503526
C36	C	1.643417	-0.003327	-0.003526
C37	C	1.036203	-0.503345	-0.503535
C38	C	1.536203	-0.003345	-0.003535
C39	C	1.393971	-0.774853	-0.503543
C40	C	1.893971	-0.274853	-0.003543
C41	C	1.394033	-0.891006	-0.503570
C42	C	1.894033	-0.391006	-0.003570
C43	C	1.452651	-0.942688	-0.567153
C44	C	1.952651	-0.442688	-0.067153
C45	C	1.452717	-1.062738	-0.567182
C46	C	1.952717	-0.562738	-0.067182
C47	C	0.949133	-0.503348	-0.503553
C48	C	1.449133	-0.003348	-0.003553
C49	C	0.839901	-0.503356	-0.503584
C50	C	1.339901	-0.003356	-0.003584
C51	C	1.645624	-0.503359	-0.503600
C52	C	2.145624	-0.003359	-0.003600
C53	C	1.752838	-0.503367	-0.503616
C54	C	2.252838	-0.003367	-0.003616
C55	C	1.394098	-0.503242	-0.776133
C56	C	1.894098	-0.003242	-0.276133
C57	C	1.394126	-0.503200	-0.892286
C58	C	1.894126	-0.003200	-0.392286
C59	C	1.394118	-0.230772	-0.503605
C60	C	1.894118	0.269228	-0.003605
C61	C	1.394155	-0.114619	-0.503623
C62	C	1.894155	0.385381	-0.003623
C63	C	1.335536	-0.439666	-0.944072
C64	C	1.835536	0.060334	-0.444072
C65	C	1.335564	-0.439620	-1.064122
C66	C	1.835564	0.060380	-0.564122
C67	C	1.394020	-0.503367	-0.232053
C68	C	1.894020	-0.003367	0.267947
C69	C	1.394179	-0.503116	-0.115900
C70	C	1.894179	-0.003116	0.384100
H71	H	1.502906	-1.107183	-0.621614
H72	H	2.002906	-0.607183	-0.121614
H73	H	1.444346	-0.557508	-1.071372
H74	H	1.944346	-0.057508	-0.571372
O75	O	1.327676	-1.055756	-0.431509
O76	O	1.827676	-0.555756	0.068491
H77	H	1.344264	-1.076686	-0.349496
H78	H	1.844264	-0.576686	0.150504
O79	O	1.460601	-0.575218	-0.951265
O80	O	1.960601	-0.075218	-0.451265
H81	H	1.509670	-0.528390	-1.001003
H82	H	2.009670	-0.028390	-0.501003
H83	H	1.343892	-0.935636	-0.449161
H84	H	1.843892	-0.435636	0.050839
O85	O	1.519073	-0.883586	-0.639232
O86	O	2.019073	-0.383586	-0.139232
H87	H	1.508605	-0.798568	-0.627891
H88	H	2.008605	-0.298568	-0.127891
H89	H	1.285351	-0.385311	-0.899531
H90	H	1.785351	0.114689	-0.399531
O91	O	1.269127	-0.367550	-1.123100
O92	O	1.769127	0.132450	-0.623100
H93	H	1.279577	-0.378821	-1.208136
H94	H	1.779577	0.121179	-0.708136
