data_functionalizedCrystal
_audit_creation_method	'MofGen! by Chris Wilmer'
_symmetry_space_group_name_H-M	'P1'
_symmetry_Int_Tables_number	1
_symmetry_cell_setting	triclinic
loop_
_symmetry_equiv_pos_as_xyz
  x,y,z
_cell_length_a	10.654549
_cell_length_b	10.654550
_cell_length_c	9.730223
_cell_angle_alpha	89.999854
_cell_angle_beta	89.997731
_cell_angle_gamma	84.484854
loop_
_atom_site_label
_atom_site_type_symbol
_atom_site_fract_x
_atom_site_fract_y
_atom_site_fract_z
O1	O	1.667839	0.176396	-0.114244
O2	O	1.302361	0.193203	-0.114252
O3	O	1.493503	0.002060	-0.114254
O4	O	1.476697	0.367539	-0.114243
O5	O	1.493491	0.002055	0.114326
O6	O	1.302348	0.193198	0.114328
O7	O	1.667827	0.176391	0.114336
Zn8	Zn	1.485086	0.184794	0.150624
Zn9	Zn	1.485102	0.184801	-0.150540
O10	O	1.476685	0.367534	0.114337
C11	C	1.255557	0.191966	0.000036
C12	C	1.116113	0.188275	0.000033
C13	C	0.905599	0.297338	0.000041
C14	C	1.036619	0.300816	0.000033
C15	C	1.064581	0.072247	0.000026
C16	C	0.933563	0.068770	0.000024
C17	C	1.492263	-0.044740	0.000032
C18	C	1.488571	-0.184183	0.000019
C19	C	1.714631	0.177628	0.000044
C20	C	1.854074	0.181319	0.000039
C21	C	1.477925	0.414334	0.000049
C22	C	1.481617	0.553777	0.000053
N23	N	1.485084	0.184788	0.356160
C24	C	1.369075	0.633263	0.000047
C25	C	1.372552	0.764284	0.000025
C26	C	1.601121	0.736321	0.000020
C27	C	1.597643	0.605302	0.000033
N28	N	1.485114	0.184796	-0.356077
C29	C	1.569751	0.100186	0.428085
C30	C	1.569763	0.100187	0.571968
C31	C	1.400438	0.269402	0.571988
C32	C	1.400420	0.269394	0.428108
H33	H	0.891613	-0.025712	0.000018
O34	O	1.652132	0.017961	0.641623
C35	C	1.820030	-0.149926	0.626410
C36	C	1.726833	-0.056847	0.547357
H37	H	1.880431	-0.210450	0.550230
H38	H	1.883327	-0.095178	0.693721
H39	H	1.765254	-0.213119	0.693820
H40	H	1.781506	0.006369	0.479873
H41	H	1.663535	-0.111672	0.480132
H42	H	1.695586	0.778289	0.000018
H43	H	0.840882	0.388983	0.000052
O44	O	1.707091	0.528261	0.000100
C45	C	1.934168	0.514340	0.000008
C46	C	1.810323	0.601732	-0.000028
H47	H	2.017663	0.573706	-0.000125
H48	H	1.938338	0.452330	0.095695
H49	H	1.938180	0.452271	-0.095626
H50	H	1.806228	0.663880	0.095541
H51	H	1.806205	0.663657	-0.095778
O52	O	1.318032	0.351461	0.641823
C53	C	1.100304	0.423064	0.685829
C54	C	1.193489	0.330040	0.606683
H55	H	0.999591	0.405795	0.657425
H56	H	1.114754	0.408538	0.801035
H57	H	1.117595	0.523801	0.657546
H58	H	1.176255	0.229267	0.634850
H59	H	1.179017	0.344676	0.491496
O60	O	1.318297	0.351759	0.358294
C61	C	1.246535	0.569453	0.314322
C62	C	1.339628	0.476325	0.393445
H63	H	1.263731	0.670183	0.342735
H64	H	1.261061	0.555021	0.199112
H65	H	1.145820	0.552085	0.342617
H66	H	1.440379	0.493636	0.365266
H67	H	1.324992	0.490778	0.508636
H68	H	1.078563	0.395290	0.000034
H69	H	1.129316	-0.019386	0.000017
O70	O	1.263111	0.841316	0.000085
C71	C	1.036034	0.855216	0.000014
C72	C	1.159886	0.767834	-0.000018
H73	H	0.952545	0.795842	-0.000098
H74	H	1.031859	0.917242	0.095688
H75	H	1.032016	0.917270	-0.095632
H76	H	1.163987	0.705702	0.095564
H77	H	1.164010	0.705894	-0.095755
H78	H	1.274599	0.591317	0.000068
H79	H	1.638687	0.031293	0.369509
