data_functionalizedCrystal
_audit_creation_method	'MofGen! by Chris Wilmer'
_symmetry_space_group_name_H-M	'P1'
_symmetry_Int_Tables_number	1
_symmetry_cell_setting	triclinic
loop_
_symmetry_equiv_pos_as_xyz
  x,y,z
_cell_length_a	17.077404
_cell_length_b	12.759400
_cell_length_c	17.077395
_cell_angle_alpha	89.975675
_cell_angle_beta	89.984359
_cell_angle_gamma	90.014910
loop_
_atom_site_label
_atom_site_type_symbol
_atom_site_fract_x
_atom_site_fract_y
_atom_site_fract_z
Zn1	Zn	1.200069	-0.418273	-0.443859
Zn2	Zn	1.533403	-0.084940	-0.110525
Zn3	Zn	1.866736	0.248394	0.222808
Zn4	Zn	1.200004	-0.593970	-0.312599
Zn5	Zn	1.533338	-0.260636	0.020734
Zn6	Zn	1.866671	0.072697	0.354068
Zn7	Zn	1.068810	-0.418306	-0.312606
Zn8	Zn	1.402143	-0.084973	0.020727
Zn9	Zn	1.735477	0.248361	0.354060
Zn10	Zn	1.068788	-0.593911	-0.443823
Zn11	Zn	1.402121	-0.260578	-0.110489
Zn12	Zn	1.735455	0.072755	0.222844
O13	O	1.134418	-0.506115	-0.378222
O14	O	1.467751	-0.172782	-0.044888
O15	O	1.801085	0.160552	0.288445
O16	O	1.309908	-0.441590	-0.426459
O17	O	1.643241	-0.108257	-0.093125
O18	O	1.976574	0.225076	0.240208
O19	O	1.182583	-0.570706	-0.202753
O20	O	1.515916	-0.237373	0.130580
O21	O	1.849250	0.095961	0.463914
O22	O	1.086259	-0.271281	-0.330035
O23	O	1.419592	0.062053	0.003298
O24	O	1.752925	0.395386	0.336631
O25	O	1.309860	-0.570674	-0.330023
O26	O	1.643193	-0.237341	0.003310
O27	O	1.976526	0.095993	0.336644
O28	O	1.182694	-0.271256	-0.426466
O29	O	1.516028	0.062077	-0.093132
O30	O	1.849361	0.395410	0.240201
O31	O	1.086195	-0.441647	-0.202759
O32	O	1.419529	-0.108313	0.130575
O33	O	1.752862	0.225020	0.463908
O34	O	0.958960	-0.441590	-0.330001
O35	O	1.292294	-0.108256	0.003333
O36	O	1.625627	0.225077	0.336666
O37	O	1.086221	-0.570574	-0.553674
O38	O	1.419554	-0.237241	-0.220341
O39	O	1.752888	0.096093	0.112992
O40	O	0.958944	-0.570606	-0.426405
O41	O	1.292277	-0.237273	-0.093071
O42	O	1.625611	0.096060	0.240262
O43	O	1.182673	-0.441534	-0.553701
O44	O	1.516006	-0.108200	-0.220367
O45	O	1.849339	0.225133	0.112966
O46	O	1.182562	-0.740983	-0.329988
O47	O	1.515895	-0.407650	0.003345
O48	O	1.849228	-0.074316	0.336678
O49	O	1.086158	-0.740940	-0.426398
O50	O	1.419491	-0.407607	-0.093064
O51	O	1.752824	-0.074273	0.240269
C52	C	0.930470	-0.506096	-0.378200
C53	C	1.263803	-0.172763	-0.044867
C54	C	1.597137	0.160571	0.288467
C55	C	0.843220	-0.506113	-0.378209
C56	C	1.176554	-0.172780	-0.044876
C57	C	1.509887	0.160554	0.288457
C58	C	0.802242	-0.573393	-0.428326
C59	C	1.135576	-0.240060	-0.094993
C60	C	1.468909	0.093273	0.238340
C61	C	0.720262	-0.573396	-0.428339
C62	C	1.053595	-0.240062	-0.095006
C63	C	1.386928	0.093271	0.238328
C64	C	0.679261	-0.506122	-0.378230
C65	C	1.012594	-0.172789	-0.044897
C66	C	1.345928	0.160544	0.288437
C67	C	0.720245	-0.438835	-0.328111
C68	C	1.053578	-0.105501	0.005223
C69	C	1.386911	0.227832	0.338556
C70	C	0.802224	-0.438828	-0.328103
C71	C	1.135557	-0.105494	0.005231
C72	C	1.468890	0.227839	0.338564
C73	C	0.549375	-0.438855	-0.328130
C74	C	0.882708	-0.105522	0.005204
C75	C	1.216041	0.227811	0.338537
C76	C	0.467390	-0.438863	-0.328136
C77	C	0.800723	-0.105530	0.005197
C78	C	1.134057	0.227803	0.338530
C79	C	0.467413	-0.573423	-0.428366
C80	C	0.800746	-0.240090	-0.095033
C81	C	1.134079	0.093244	0.238301
C82	C	0.549392	-0.573416	-0.428358
C83	C	0.882725	-0.240083	-0.095025
C84	C	1.216058	0.093250	0.238309
C85	C	0.590370	-0.506130	-0.378237
C86	C	0.923703	-0.172796	-0.044904
C87	C	1.257037	0.160537	0.288429
C88	C	1.134371	-0.779082	-0.378205
C89	C	1.467705	-0.445749	-0.044872
C90	C	1.801038	-0.112416	0.288461
C91	C	1.134423	-0.895859	-0.378225
C92	C	1.467757	-0.562526	-0.044891
C93	C	1.801090	-0.229192	0.288442
C94	C	1.184676	-0.950709	-0.328080
C95	C	1.518010	-0.617375	0.005254
C96	C	1.851343	-0.284042	0.338587
C97	C	1.184725	-1.060433	-0.328104
C98	C	1.518058	-0.727099	0.005229
C99	C	1.851391	-0.393766	0.338563
C100	C	1.084260	-1.060448	-0.428420
C101	C	1.417593	-0.727115	-0.095087
C102	C	1.750926	-0.393781	0.238247
C103	C	1.084216	-0.950726	-0.428399
C104	C	1.417549	-0.617393	-0.095066
C105	C	1.750883	-0.284059	0.238267
C106	C	1.234884	-0.895842	-0.277905
C107	C	1.568217	-0.562508	0.055428
C108	C	1.901550	-0.229175	0.388762
C109	C	1.285140	-0.950691	-0.227755
C110	C	1.618474	-0.617358	0.105578
C111	C	1.951807	-0.284025	0.438911
C112	C	1.285189	-1.060415	-0.227780
C113	C	1.618522	-0.727082	0.105554
C114	C	1.951855	-0.393749	0.438887
C115	C	1.234980	-1.115290	-0.277954
C116	C	1.568313	-0.781956	0.055380
C117	C	1.901647	-0.448623	0.388713
C118	C	1.339162	-0.506135	-0.378244
C119	C	1.672496	-0.172802	-0.044911
C120	C	2.005829	0.160532	0.288423
C121	C	1.426412	-0.506143	-0.378253
C122	C	1.759745	-0.172810	-0.044920
C123	C	2.093079	0.160523	0.288413
C124	C	1.134452	-0.506044	-0.582966
C125	C	1.467785	-0.172710	-0.249633
C126	C	1.801118	0.160623	0.083701
C127	C	1.134466	-0.506013	-0.670216
C128	C	1.467799	-0.172680	-0.336883
C129	C	1.801133	0.160653	-0.003549
C130	C	1.134486	-0.232082	-0.378255
C131	C	1.467819	0.101252	-0.044922
C132	C	1.801153	0.434585	0.288411
C133	C	1.134515	-0.115305	-0.378270
C134	C	1.467848	0.218028	-0.044936
C135	C	1.801182	0.551362	0.288397
C136	C	1.184776	-0.438679	-1.046045
C137	C	1.518109	-0.105346	-0.712712
C138	C	1.851442	0.227987	-0.379379
C139	C	1.184760	-0.438716	-0.964065
C140	C	1.518093	-0.105383	-0.630732
C141	C	1.851426	0.227951	-0.297398
C142	C	1.134531	-0.505914	-0.923065
C143	C	1.467864	-0.172581	-0.589732
C144	C	1.801197	0.160753	-0.256398
C145	C	1.084320	-0.573087	-0.964050
C146	C	1.417654	-0.239753	-0.630716
C147	C	1.750987	0.093580	-0.297383
C148	C	1.084341	-0.573055	-1.046029
C149	C	1.417674	-0.239721	-0.712695
C150	C	1.751007	0.093612	-0.379362
C151	C	1.084280	-0.573148	-0.793180
C152	C	1.417613	-0.239814	-0.459846
C153	C	1.750946	0.093519	-0.126513
C154	C	1.084258	-0.573179	-0.711195
C155	C	1.417591	-0.239845	-0.377862
C156	C	1.750924	0.093488	-0.044528
C157	C	1.184698	-0.438809	-0.711216
C158	C	1.518032	-0.105476	-0.377882
C159	C	1.851365	0.227858	-0.044549
C160	C	1.184719	-0.438777	-0.793195
C161	C	1.518052	-0.105443	-0.459862
C162	C	1.851386	0.227890	-0.126528
C163	C	1.134507	-0.505949	-0.834174
C164	C	1.467840	-0.172615	-0.500841
C165	C	1.801174	0.160718	-0.167507
C166	C	1.134430	-0.506110	-0.174274
C167	C	1.467763	-0.172777	0.159059
C168	C	1.801096	0.160556	0.492393
C169	C	1.134567	-0.505845	-0.087025
C170	C	1.467901	-0.172511	0.246309
C171	C	1.801234	0.160822	0.579642
H172	H	0.686901	-0.628183	-0.469149
H173	H	1.020234	-0.294850	-0.135815
H174	H	1.353568	0.038484	0.197518
Br175	Br	1.353401	-1.134852	-0.159731
Br176	Br	1.686735	-0.801519	0.173603
Br177	Br	2.020068	-0.468186	0.506936
Br178	Br	1.353287	-0.876223	-0.159676
Br179	Br	1.686620	-0.542889	0.173657
Br180	Br	2.019953	-0.209556	0.506991
H181	H	1.234848	-0.806499	-0.277878
H182	H	1.568181	-0.473166	0.055456
H183	H	1.901515	-0.139832	0.388789
H184	H	1.225646	-0.384026	-0.930703
H185	H	1.558980	-0.050693	-0.597370
H186	H	1.892313	0.282641	-0.264037
Br187	Br	1.016093	-0.664381	-0.655552
Br188	Br	1.349426	-0.331048	-0.322219
Br189	Br	1.682759	0.002286	0.011115
Br190	Br	1.016136	-0.664312	-0.848794
Br191	Br	1.349469	-0.330978	-0.515460
Br192	Br	1.682802	0.002355	-0.182127
Br193	Br	0.857878	-0.664706	-0.496330
Br194	Br	1.191212	-0.331373	-0.162996
Br195	Br	1.524545	0.001961	0.170337
H196	H	0.582773	-0.628202	-0.469157
H197	H	0.916106	-0.294869	-0.135823
H198	H	1.249439	0.038465	0.197510
H199	H	1.043426	-0.627805	-0.930661
H200	H	1.376760	-0.294472	-0.597328
H201	H	1.710093	0.038862	-0.263994
Br202	Br	1.016202	-0.664217	-1.101644
Br203	Br	1.349536	-0.330883	-0.768311
Br204	Br	1.682869	0.002450	-0.434978
Br205	Br	0.411801	-0.664727	-0.496397
Br206	Br	0.745134	-0.331394	-0.163064
Br207	Br	1.078468	0.001939	0.170270
H208	H	0.434009	-0.384071	-0.287342
H209	H	0.767343	-0.050737	0.045991
H210	H	1.100676	0.282596	0.379324
Br211	Br	0.604988	-0.347535	-0.260110
Br212	Br	0.938321	-0.014201	0.073223
Br213	Br	1.271654	0.319132	0.406557
H214	H	1.235030	-1.204634	-0.277975
H215	H	1.568363	-0.871301	0.055358
H216	H	1.901696	-0.537968	0.388691
Br217	Br	0.664602	-0.347524	-0.260112
Br218	Br	0.997935	-0.014190	0.073221
Br219	Br	1.331268	0.319143	0.406555
Br220	Br	1.252900	-0.347596	-0.848838
Br221	Br	1.586234	-0.014263	-0.515504
Br222	Br	1.919567	0.319070	-0.182171
H223	H	1.043382	-1.105135	-0.469268
H224	H	1.376715	-0.771802	-0.135935
H225	H	1.710048	-0.438469	0.197398
H226	H	0.835587	-0.384036	-0.287296
H227	H	1.168920	-0.050703	0.046037
H228	H	1.502254	0.282631	0.379370
Br229	Br	1.016018	-0.876280	-0.496458
Br230	Br	1.349351	-0.542947	-0.163125
Br231	Br	1.682685	-0.209613	0.170209
Br232	Br	1.252936	-0.347462	-1.101680
Br233	Br	1.586270	-0.014129	-0.768347
Br234	Br	1.919603	0.319204	-0.435014
H235	H	1.225581	-0.384113	-0.677847
H236	H	1.558914	-0.050780	-0.344513
H237	H	1.892248	0.282553	-0.011180
