data_functionalizedCrystal
_audit_creation_method	'MofGen! by Chris Wilmer'
_symmetry_space_group_name_H-M	'P1'
_symmetry_Int_Tables_number	1
_symmetry_cell_setting	triclinic
loop_
_symmetry_equiv_pos_as_xyz
  x,y,z
_cell_length_a	21.295418
_cell_length_b	21.295411
_cell_length_c	19.121063
_cell_angle_alpha	92.420548
_cell_angle_beta	92.485609
_cell_angle_gamma	89.956262
loop_
_atom_site_label
_atom_site_type_symbol
_atom_site_fract_x
_atom_site_fract_y
_atom_site_fract_z
Zn1	Zn	0.951686	-0.366916	-0.279403
Zn2	Zn	1.451686	0.133084	0.220597
Zn3	Zn	0.947104	-0.266131	-0.396839
Zn4	Zn	1.447104	0.233869	0.103161
Zn5	Zn	0.846408	-0.261627	-0.279436
Zn6	Zn	1.346408	0.238373	0.220564
Zn7	Zn	0.841894	-0.371328	-0.396853
Zn8	Zn	1.341894	0.128672	0.103147
O9	O	0.896773	-0.316500	-0.338133
O10	O	1.396773	0.183500	0.161867
O11	O	1.039169	-0.353585	-0.294962
O12	O	1.539169	0.146415	0.205038
O13	O	0.933718	-0.177444	-0.381273
O14	O	1.433718	0.322556	0.118727
O15	O	0.864180	-0.271862	-0.181145
O16	O	1.364180	0.228138	0.318855
O17	O	1.035802	-0.279538	-0.381241
O18	O	1.535802	0.220462	0.118759
O19	O	0.941528	-0.349217	-0.181121
O20	O	1.441528	0.150783	0.318879
O21	O	0.859737	-0.174135	-0.295018
O22	O	1.359737	0.325865	0.204982
O23	O	0.757719	-0.276140	-0.295031
O24	O	1.257719	0.223860	0.204969
O25	O	0.856486	-0.458831	-0.381265
O26	O	1.356486	0.041169	0.118735
O27	O	0.754403	-0.356737	-0.381297
O28	O	1.254403	0.143263	0.118703
O29	O	0.937150	-0.455590	-0.294975
O30	O	1.437150	0.044410	0.205025
O31	O	0.929341	-0.283817	-0.495127
O32	O	1.429341	0.216183	0.004873
O33	O	0.852043	-0.361104	-0.495138
O34	O	1.352043	0.138896	0.004862
C35	C	0.733220	-0.316429	-0.338170
C36	C	1.233220	0.183571	0.161830
C37	C	0.663251	-0.316414	-0.338202
C38	C	1.163251	0.183586	0.161798
C39	C	0.628671	-0.358323	-0.383180
C40	C	1.128671	0.141677	0.116820
C41	C	0.562929	-0.358351	-0.383163
C42	C	1.062929	0.141649	0.116837
C43	C	0.531769	-0.316458	-0.338175
C44	C	1.031769	0.183542	0.161825
C45	C	0.566357	-0.274546	-0.293188
C46	C	1.066357	0.225454	0.206812
C47	C	0.632098	-0.274524	-0.293202
C48	C	1.132098	0.225476	0.206798
N49	N	0.428703	-0.261191	-0.332678
N50	N	0.928703	0.238809	0.167322
N51	N	0.366252	-0.261214	-0.332669
N52	N	0.866252	0.238786	0.167331
C53	C	0.333696	-0.316523	-0.338130
C54	C	0.833696	0.183477	0.161870
N55	N	0.365950	-0.371811	-0.343615
N56	N	0.865950	0.128189	0.156385
N57	N	0.428407	-0.371788	-0.343627
N58	N	0.928407	0.128212	0.156373
C59	C	0.460485	-0.316478	-0.338155
C60	C	0.960485	0.183522	0.161845
C61	C	0.227832	-0.358466	-0.383092
C62	C	0.727832	0.141534	0.116908
C63	C	0.162089	-0.358494	-0.383070
C64	C	0.662089	0.141506	0.116930
C65	C	0.165518	-0.274685	-0.293099
C66	C	0.665518	0.225315	0.206901
C67	C	0.231260	-0.274662	-0.293117
C68	C	0.731260	0.225338	0.206883
C69	C	0.262413	-0.316551	-0.338118
C70	C	0.762413	0.183449	0.161882
C71	C	0.889722	-0.323442	-0.520617
C72	C	1.389722	0.176558	-0.020617
C73	C	0.886763	-0.326433	-0.598685
C74	C	1.386763	0.173567	-0.098685
C75	C	0.896826	-0.480690	-0.338118
C76	C	1.396826	0.019310	0.161882
C77	C	0.896849	-0.550658	-0.338112
C78	C	1.396849	-0.050658	0.161888
C79	C	1.060965	-0.316572	-0.338096
C80	C	1.560965	0.183428	0.161904
C81	C	1.130934	-0.316602	-0.338081
C82	C	1.630934	0.183398	0.161919
C83	C	0.938849	-0.581837	-0.293178
C84	C	1.438849	-0.081837	0.206822
C85	C	0.938849	-0.647579	-0.293148
C86	C	1.438849	-0.147579	0.206852
C87	C	0.896855	-0.682138	-0.338063
C88	C	1.396855	-0.182138	0.161937
C89	C	0.854847	-0.650951	-0.382999
C90	C	1.354847	-0.150951	0.117001
C91	C	0.854844	-0.585211	-0.383024
C92	C	1.354844	-0.085211	0.116976
N93	N	0.889652	-0.787701	-0.399507
N94	N	1.389652	-0.287701	0.100493
N95	N	0.889659	-0.850152	-0.399482
N96	N	1.389659	-0.350152	0.100518
C97	C	0.896862	-0.880211	-0.337992
C98	C	1.396862	-0.380211	0.162008
N99	N	0.904070	-0.845460	-0.276526
N100	N	1.404070	-0.345460	0.223474
N101	N	0.904066	-0.783003	-0.276552
N102	N	1.404066	-0.283003	0.223448
C103	C	0.896854	-0.753423	-0.338042
C104	C	1.396854	-0.253423	0.161958
C105	C	0.938865	-0.982674	-0.293022
C106	C	1.438865	-0.482674	0.206978
C107	C	0.938861	-1.048417	-0.292990
C108	C	1.438861	-0.548417	0.207010
C109	C	0.854862	-1.051788	-0.382848
C110	C	1.354862	-0.551788	0.117152
C111	C	0.854863	-0.986047	-0.382874
C112	C	1.354863	-0.486047	0.117126
C113	C	0.896868	-0.951494	-0.337961
C114	C	1.396868	-0.451494	0.162039
C115	C	0.896759	-0.152947	-0.338097
C116	C	1.396759	0.347053	0.161903
C117	C	0.896866	-0.082972	-0.337905
C118	C	1.396866	0.417028	0.162095
C119	C	0.925649	-0.287631	-0.635332
C120	C	1.425649	0.212369	-0.135332
C121	C	0.922870	-0.290448	-0.708685
C122	C	1.422870	0.209552	-0.208685
C123	C	0.881202	-0.332063	-0.745389
C124	C	1.381202	0.167937	-0.245389
C125	C	0.842314	-0.370868	-0.708736
C126	C	1.342314	0.129132	-0.208736
C127	C	0.845097	-0.368054	-0.635385
C128	C	1.345097	0.131946	-0.135385
C129	C	0.870788	-0.342573	-0.966864
C130	C	1.370788	0.157427	-0.466864
C131	C	0.868007	-0.345382	-1.040221
C132	C	1.368007	0.154618	-0.540221
C133	C	0.948564	-0.264963	-1.040165
C134	C	1.448564	0.235037	-0.540165
C135	C	0.951340	-0.262150	-0.966812
C136	C	1.451340	0.237850	-0.466812
C137	C	0.912455	-0.300958	-0.930165
C138	C	1.412455	0.199042	-0.430165
C139	C	0.878359	-0.334941	-0.820367
C140	C	1.378359	0.165059	-0.320367
C141	C	0.915302	-0.298082	-0.855188
C142	C	1.415302	0.201918	-0.355188
C143	C	0.903869	-0.309545	-0.154936
C144	C	1.403869	0.190455	0.345064
C145	C	0.906893	-0.306581	-0.076868
C146	C	1.406893	0.193419	0.423132
H147	H	0.660252	-0.240397	-0.256573
H148	H	1.160252	0.259603	0.243427
O149	O	0.832985	-0.380173	-0.931191
O150	O	1.332985	0.119827	-0.431191
C151	C	0.793943	-0.342655	-0.888844
C152	C	1.293943	0.157345	-0.388844
H153	H	0.816588	-0.294558	-0.877857
H154	H	1.316588	0.205442	-0.377857
H155	H	0.787451	-0.366306	-0.837259
H156	H	1.287451	0.133694	-0.337259
H157	H	0.746222	-0.336764	-0.917174
H158	H	1.246222	0.163236	-0.417174
H159	H	0.820665	-0.960660	-0.419467
H160	H	1.320665	-0.460660	0.080533
O161	O	0.135156	-0.233998	-0.249480
O162	O	0.635156	0.266002	0.250520
C163	C	0.069716	-0.243007	-0.259106
C164	C	0.569716	0.256993	0.240894
H165	H	0.058645	-0.265631	-0.313333
H166	H	0.558645	0.234369	0.186667
H167	H	0.044875	-0.195682	-0.254289
H168	H	0.544875	0.304318	0.245711
H169	H	0.052712	-0.274993	-0.217482
H170	H	0.552712	0.225007	0.282518
H171	H	0.973049	-0.672970	-0.256554
H172	H	1.473049	-0.172970	0.243446
O173	O	0.264757	-0.233886	-0.249408
O174	O	0.764757	0.266114	0.250592
C175	C	0.223160	-0.196927	-0.209682
C176	C	0.723160	0.303073	0.290318
H177	H	0.175171	-0.195814	-0.238437
H178	H	0.675171	0.304186	0.261563
H179	H	0.242396	-0.147046	-0.202112
H180	H	0.742396	0.352954	0.297888
H181	H	0.218278	-0.218032	-0.156376
H182	H	0.718278	0.281968	0.343624
O183	O	0.128568	-0.399293	-0.426731
O184	O	0.628568	0.100707	0.073269
C185	C	0.145289	-0.461471	-0.411486
C186	C	0.645289	0.038529	0.088514
H187	H	0.194078	-0.461774	-0.384498
H188	H	0.694078	0.038226	0.115502
H189	H	0.145588	-0.491546	-0.462227
H190	H	0.645588	0.008454	0.037773
H191	H	0.109724	-0.481373	-0.375406
H192	H	0.609724	0.018627	0.124594
O193	O	0.960666	-0.252691	-0.744176
O194	O	1.460666	0.247309	-0.244176
C195	C	0.998048	-0.215365	-0.696051
C196	C	1.498048	0.284635	-0.196051
H197	H	0.974246	-0.211150	-0.643797
H198	H	1.474246	0.288850	-0.143797
H199	H	1.003980	-0.166590	-0.717265
H200	H	1.503980	0.333410	-0.217265
H201	H	1.046146	-0.238172	-0.688176
H202	H	1.546146	0.261828	-0.188176
O203	O	0.979635	-1.078631	-0.249239
O204	O	1.479635	-0.578631	0.250761
C205	C	0.968582	-1.059889	-0.179246
C206	C	1.468582	-0.559889	0.320754
H207	H	0.944437	-1.012084	-0.177817
H208	H	1.444437	-0.512084	0.322183
H209	H	1.015235	-1.056467	-0.147747
H210	H	1.515235	-0.556467	0.352253
H211	H	0.937138	-1.095960	-0.155576
H212	H	1.437138	-0.595960	0.344424
H213	H	0.949231	-0.264201	-0.825302
H214	H	1.449231	0.235799	-0.325302
O215	O	0.814143	-0.684550	-0.426707
O216	O	1.314143	-0.184550	0.073293
C217	C	0.848228	-0.724343	-0.472040
C218	C	1.348228	-0.224343	0.027960
H219	H	0.897638	-0.704732	-0.476373
H220	H	1.397638	-0.204732	0.023627
H221	H	0.823367	-0.727136	-0.526097
H222	H	1.323367	-0.227136	-0.026097
H223	H	0.851242	-0.773340	-0.450307
H224	H	1.351242	-0.273340	0.049693
O225	O	0.979576	-0.949033	-0.249361
O226	O	1.479576	-0.449033	0.250639
C227	C	0.945494	-0.909254	-0.204010
C228	C	1.445494	-0.409254	0.295990
H229	H	0.896828	-0.900318	-0.228795
H230	H	1.396828	-0.400318	0.271205
H231	H	0.971499	-0.862684	-0.194616
H232	H	1.471499	-0.362684	0.305384
H233	H	0.940597	-0.932591	-0.151949
H234	H	1.440597	-0.432591	0.348051
H235	H	0.844431	-0.368823	-0.850259
H236	H	1.344431	0.131177	-0.350259
O237	O	0.986363	-0.227208	-1.075655
O238	O	1.486363	0.272792	-0.575655
C239	C	1.023750	-0.189888	-1.027529
C240	C	1.523750	0.310112	-0.527529
H241	H	0.999948	-0.185671	-0.975276
H242	H	1.499948	0.314329	-0.475276
H243	H	1.029688	-0.141113	-1.048742
H244	H	1.529688	0.358887	-0.548742
H245	H	1.071844	-0.212701	-1.019655
H246	H	1.571844	0.287299	-0.519655
O247	O	0.814025	-0.555020	-0.426745
O248	O	1.314025	-0.055020	0.073255
C249	C	0.776946	-0.599616	-0.466370
C250	C	1.276946	-0.099616	0.033630
H251	H	0.802634	-0.646591	-0.468775
H252	H	1.302634	-0.146591	0.031225
H253	H	0.768090	-0.582731	-0.521718
H254	H	1.268090	-0.082731	-0.021718
H255	H	0.730132	-0.605585	-0.440659
H256	H	1.230132	-0.105585	0.059341
O257	O	0.966037	-0.247137	-0.599649
O258	O	1.466037	0.252863	-0.099649
C259	C	0.931827	-0.204818	-0.557274
C260	C	1.431827	0.295182	-0.057274
H261	H	0.881409	-0.201718	-0.579442
H262	H	1.381409	0.298282	-0.079442
H263	H	0.954651	-0.156371	-0.556443
H264	H	1.454651	0.343629	-0.056443
H265	H	0.931758	-0.222145	-0.501674
H266	H	1.431758	0.277855	-0.001674
H267	H	0.808389	-0.404755	-0.738626
H268	H	1.308389	0.095245	-0.238626
H269	H	0.985270	-0.228264	-0.936929
H270	H	1.485270	0.271736	-0.436929
O271	O	0.827516	-0.385869	-1.075767
O272	O	1.327516	0.114131	-0.575767
C273	C	0.793781	-0.419510	-1.027694
C274	C	1.293781	0.080490	-0.527694
H275	H	0.821547	-0.419715	-0.975373
H276	H	1.321547	0.080285	-0.475373
H277	H	0.786246	-0.469910	-1.048872
H278	H	1.286246	0.030090	-0.548872
H279	H	0.746274	-0.396108	-1.019965
H280	H	1.246274	0.103892	-0.519965
O281	O	0.814133	-1.085448	-0.426462
O282	O	1.314133	-0.585448	0.073538
C283	C	0.823132	-1.150159	-0.416796
C284	C	1.323132	-0.650159	0.083204
H285	H	0.872601	-1.158293	-0.393771
H286	H	1.372601	-0.658293	0.106229
H287	H	0.816833	-1.177148	-0.469399
H288	H	1.316833	-0.677148	0.030601
H289	H	0.787238	-1.167362	-0.379402
H290	H	1.287238	-0.667362	0.120598
H291	H	0.813433	-0.399651	-0.605547
H292	H	1.313433	0.100349	-0.105547
H293	H	0.654032	-0.392434	-0.419822
H294	H	1.154032	0.107566	0.080178
H295	H	0.534769	-0.392480	-0.419789
H296	H	1.034769	0.107520	0.080211
H297	H	0.253198	-0.392578	-0.419730
H298	H	0.753198	0.107422	0.080270
O299	O	0.536060	-0.233785	-0.249591
O300	O	1.036060	0.266215	0.250409
C301	C	0.496421	-0.194609	-0.289506
C302	C	0.996421	0.305391	0.210494
H303	H	0.514068	-0.192741	-0.344821
H304	H	1.014068	0.307259	0.155179
H305	H	0.496620	-0.145232	-0.264026
H306	H	0.996620	0.354768	0.235974
H307	H	0.446521	-0.214175	-0.291947
H308	H	0.946521	0.285825	0.208053
H309	H	0.973051	-0.553708	-0.256607
H310	H	1.473051	-0.053708	0.243393
