data_functionalizedCrystal
_audit_creation_method	'MofGen! by Chris Wilmer'
_symmetry_space_group_name_H-M	'P1'
_symmetry_Int_Tables_number	1
_symmetry_cell_setting	triclinic
loop_
_symmetry_equiv_pos_as_xyz
  x,y,z
_cell_length_a	27.732048
_cell_length_b	14.044220
_cell_length_c	26.809956
_cell_angle_alpha	89.984319
_cell_angle_beta	89.990422
_cell_angle_gamma	87.915766
loop_
_atom_site_label
_atom_site_type_symbol
_atom_site_fract_x
_atom_site_fract_y
_atom_site_fract_z
O1	O	0.116459	1.256017	-0.041489
O2	O	0.112256	0.980109	-0.041490
O3	O	0.044363	1.126632	-0.041480
O4	O	0.184352	1.109494	-0.041499
O5	O	0.044361	1.126587	0.041480
O6	O	0.112254	0.980065	0.041470
O7	O	0.116457	1.255972	0.041470
Zn8	Zn	0.114355	1.118011	0.054642
Zn9	Zn	0.114358	1.118070	-0.054661
O10	O	0.184350	1.109449	0.041460
C11	C	0.110416	0.944799	-0.000010
C12	C	0.104929	0.839654	-0.000010
C13	C	0.026338	1.126250	0.000001
C14	C	-0.027367	1.125167	0.000005
C15	C	0.118297	1.291282	-0.000010
C16	C	0.123785	1.396427	-0.000014
C17	C	-0.362439	1.204932	-0.000020
C18	C	-0.564288	1.200913	-0.000027
O19	O	-0.592120	1.273853	-0.000049
N20	N	-0.587488	1.114031	-0.000027
C21	C	-0.560224	1.028148	-0.000028
O22	O	-0.584590	0.954157	-0.000033
C23	C	-0.358377	1.032168	-0.000025
C24	C	-0.335179	1.119056	-0.000020
C25	C	-0.339241	1.291813	-0.000016
C26	C	-0.288782	1.292817	-0.000011
C27	C	-0.261521	1.206940	-0.000011
C28	C	-0.284720	1.120060	-0.000015
C29	C	-0.331114	0.946286	-0.000030
C30	C	-0.280649	0.947299	-0.000030
C31	C	-0.257450	1.034186	-0.000025
C32	C	-0.207000	1.035187	-0.000011
N33	N	-0.183799	1.122069	-0.000011
C34	C	-0.211060	1.207946	-0.000011
C35	C	-0.666197	1.026043	-0.000029
C36	C	-0.716659	1.025038	-0.000029
C37	C	-0.720718	1.197804	-0.000029
C38	C	-0.670256	1.198808	-0.000025
C39	C	-0.642996	1.112925	-0.000029
C40	C	-0.105092	1.210047	-0.000001
C41	C	-0.054628	1.211044	0.000005
C42	C	-0.050573	1.038278	0.000002
C43	C	-0.101032	1.037281	-0.000002
C44	C	-0.128290	1.123174	-0.000005
O45	O	-0.179137	0.962286	0.000005
O46	O	-0.186685	1.281925	-0.000017
C47	C	-0.412898	1.203929	-0.000024
C48	C	-0.436097	1.117048	-0.000029
C49	C	-0.408836	1.031171	-0.000029
C50	C	-0.486558	1.116043	-0.000029
C51	C	-0.513819	1.201919	-0.000029
C52	C	-0.490618	1.288801	-0.000029
C53	C	-0.440159	1.289805	-0.000025
C54	C	-0.432037	0.944289	-0.000028
C55	C	-0.482496	0.943292	-0.000032
C56	C	-0.509757	1.029169	-0.000032
C57	C	0.202375	1.109831	-0.000022
C58	C	0.256081	1.110915	-0.000029
N59	N	0.114353	1.117978	0.129238
C60	C	0.133816	1.588942	-0.000015
C61	C	0.094899	1.647145	-0.000009
C62	C	0.100481	1.754267	-0.000010
C63	C	0.128235	1.481810	-0.000014
N64	N	0.114356	1.118111	-0.129257
C65	C	0.146144	1.175078	0.473860
C66	C	0.146145	1.175109	0.682737
O67	O	0.173168	1.223632	0.709738
N68	N	0.114354	1.118093	0.708865
C69	C	0.082558	1.061070	0.682769
O70	O	0.055515	1.012583	0.709785
C71	C	0.082555	1.061045	0.473893
C72	C	0.114352	1.118058	0.447768
C73	C	0.177938	1.232086	0.447735
C74	C	0.177939	1.232074	0.395519
C75	C	0.146147	1.175054	0.369427
C76	C	0.114353	1.118045	0.395552
C77	C	0.050758	1.004029	0.447798
C78	C	0.050759	1.004029	0.395576
C79	C	0.082555	1.061041	0.369451
C80	C	0.082562	1.061013	0.317244
N81	N	0.114353	1.118028	0.291116
C82	C	0.146145	1.175049	0.317208
C83	C	0.082563	1.061086	0.792433
C84	C	0.082564	1.061091	0.844652
C85	C	0.146150	1.175131	0.844616
C86	C	0.146151	1.175120	0.792396
C87	C	0.114354	1.118102	0.766305
C88	C	0.146146	1.175018	0.207550
C89	C	0.146146	1.174998	0.155329
C90	C	0.082558	1.060963	0.155369
C91	C	0.082560	1.060979	0.207586
C92	C	0.114355	1.118014	0.233675
O93	O	0.055550	1.012523	0.290211
O94	O	0.173177	1.223545	0.290183
C95	C	0.146143	1.175090	0.526076
C96	C	0.114349	1.118082	0.552201
C97	C	0.082557	1.061061	0.526109
C98	C	0.114351	1.118087	0.604420
C99	C	0.146143	1.175107	0.630511
C100	C	0.177934	1.232123	0.604384
C101	C	0.177935	1.232110	0.552168
C102	C	0.050766	1.004046	0.552236
C103	C	0.050768	1.004062	0.604453
C104	C	0.082560	1.061082	0.630544
H105	H	-0.035743	1.281801	0.000010
C106	C	0.212904	1.294847	0.633095
N107	N	0.239241	1.342093	0.654722
C108	C	-0.520614	1.383266	-0.000030
N109	N	-0.543210	1.454412	-0.000034
H110	H	-0.349993	0.875533	-0.000037
H111	H	0.056674	1.014543	0.228857
C112	C	-0.636217	0.931559	-0.000033
N113	N	-0.613639	0.860392	-0.000034
C114	C	0.044225	1.605779	-0.000008
N115	N	0.006058	1.574617	-0.000010
C116	C	-0.250666	0.852818	-0.000033
N117	N	-0.228084	0.781655	-0.000033
C118	C	0.181119	1.237859	0.873326
N119	N	0.207454	1.285110	0.894954
C120	C	0.015779	0.941309	0.476524
N121	N	-0.010570	0.894066	0.498159
H122	H	0.171323	1.619562	-0.000020
H123	H	0.172040	1.221424	0.134061
H124	H	0.024865	0.957598	0.374335
H125	H	0.172037	1.221463	0.228786
C126	C	-0.135069	1.304533	-0.000001
N127	N	-0.157647	1.375700	0.000004
H128	H	0.203829	1.278503	0.374253
C129	C	0.212923	1.294800	0.476428
N130	N	0.239282	1.342028	0.498035
C131	C	-0.126551	0.941701	-0.000004
N132	N	-0.145768	0.869708	-0.000011
C133	C	-0.742171	0.929455	-0.000028
N134	N	-0.761385	0.857458	-0.000031
C135	C	-0.263270	1.388401	-0.000011
N136	N	-0.244059	1.460400	-0.000013
H137	H	0.172043	1.221544	0.771129
H138	H	0.056668	1.014652	0.771194
H139	H	0.056678	1.014654	0.865918
H140	H	0.056675	1.014535	0.134116
C141	C	0.015788	0.941336	0.633184
N142	N	-0.010560	0.894098	0.654822
H143	H	-0.361431	1.361748	-0.000018
H144	H	-0.651371	1.269560	-0.000022
C145	C	-0.020576	0.943819	-0.000001
N146	N	0.002018	0.872671	-0.000008
H147	H	-0.742923	1.267728	-0.000028
H148	H	-0.421276	1.360558	-0.000021
H149	H	0.203827	1.278536	0.530902
H150	H	-0.501380	0.872533	-0.000032
H151	H	0.024876	0.957614	0.530998
C152	C	-0.402057	0.849812	-0.000029
N153	N	-0.379478	0.778646	-0.000028
