data_functionalizedCrystal
_audit_creation_method	'MofGen! by Chris Wilmer'
_symmetry_space_group_name_H-M	'P1'
_symmetry_Int_Tables_number	1
_symmetry_cell_setting	triclinic
loop_
_symmetry_equiv_pos_as_xyz
  x,y,z
_cell_length_a	29.839131
_cell_length_b	16.625548
_cell_length_c	16.625539
_cell_angle_alpha	90.020568
_cell_angle_beta	90.032094
_cell_angle_gamma	90.042488
loop_
_atom_site_label
_atom_site_type_symbol
_atom_site_fract_x
_atom_site_fract_y
_atom_site_fract_z
Zn1	Zn	-0.178840	1.232574	0.455888
Zn2	Zn	0.071160	1.482574	0.705888
Zn3	Zn	0.321160	1.732574	0.955888
Zn4	Zn	0.571160	1.982574	1.205888
Zn5	Zn	-0.253971	1.232433	0.321046
Zn6	Zn	-0.003971	1.482433	0.571046
Zn7	Zn	0.246029	1.732433	0.821046
Zn8	Zn	0.496029	1.982433	1.071046
Zn9	Zn	-0.178857	1.097736	0.321069
Zn10	Zn	0.071143	1.347736	0.571069
Zn11	Zn	0.321143	1.597736	0.821069
Zn12	Zn	0.571143	1.847736	1.071069
Zn13	Zn	-0.253945	1.097662	0.455836
Zn14	Zn	-0.003945	1.347662	0.705836
Zn15	Zn	0.246055	1.597662	0.955836
Zn16	Zn	0.496055	1.847662	1.205836
O17	O	-0.216403	1.165101	0.388460
O18	O	0.033597	1.415101	0.638460
O19	O	0.283597	1.665101	0.888460
O20	O	0.533597	1.915101	1.138460
O21	O	-0.188810	1.345388	0.438013
O22	O	0.061190	1.595388	0.688013
O23	O	0.311190	1.845388	0.938013
O24	O	0.561190	2.095388	1.188013
O25	O	-0.244025	1.214537	0.208217
O26	O	0.005975	1.464537	0.458217
O27	O	0.255975	1.714537	0.708217
O28	O	0.505975	1.964537	0.958217
O29	O	-0.115987	1.115713	0.338984
O30	O	0.134013	1.365713	0.588984
O31	O	0.384013	1.615713	0.838984
O32	O	0.634013	1.865713	1.088984
O33	O	-0.244008	1.345284	0.338946
O34	O	0.005992	1.595284	0.588946
O35	O	0.255992	1.845284	0.838946
O36	O	0.505992	2.095284	1.088946
O37	O	-0.115975	1.214778	0.438035
O38	O	0.134025	1.464778	0.688035
O39	O	0.384025	1.714778	0.938035
O40	O	0.634025	1.964778	1.188035
O41	O	-0.188839	1.115576	0.208233
O42	O	0.061161	1.365576	0.458233
O43	O	0.311161	1.615576	0.708233
O44	O	0.561161	1.865576	0.958233
O45	O	-0.188814	0.984894	0.338933
O46	O	0.061186	1.234894	0.588933
O47	O	0.311186	1.484894	0.838933
O48	O	0.561186	1.734894	1.088933
O49	O	-0.243964	1.115586	0.568676
O50	O	0.006036	1.365586	0.818676
O51	O	0.256036	1.615586	1.068676
O52	O	0.506036	1.865586	1.318676
O53	O	-0.243981	0.984839	0.437947
O54	O	0.006019	1.234839	0.687947
O55	O	0.256019	1.484839	0.937947
O56	O	0.506019	1.734839	1.187947
O57	O	-0.188785	1.214706	0.568714
O58	O	0.061215	1.464706	0.818714
O59	O	0.311215	1.714706	1.068714
O60	O	0.561215	1.964706	1.318714
O61	O	-0.316834	1.214465	0.338896
O62	O	-0.066834	1.464465	0.588896
O63	O	0.183166	1.714465	0.838896
O64	O	0.433166	1.964465	1.088896
O65	O	-0.316815	1.115449	0.437925
O66	O	-0.066815	1.365449	0.687925
O67	O	0.183185	1.615449	0.937925
O68	O	0.433185	1.865449	1.187925
C69	C	-0.216397	0.955610	0.388437
C70	C	0.033603	1.205610	0.638437
C71	C	0.283603	1.455610	0.888437
C72	C	0.533603	1.705610	1.138437
C73	C	-0.216405	0.865989	0.388447
C74	C	0.033595	1.115989	0.638447
C75	C	0.283595	1.365989	0.888447
C76	C	0.533595	1.615989	1.138447
C77	C	-0.216408	0.537814	0.388481
C78	C	0.033592	0.787814	0.638481
C79	C	0.283592	1.037814	0.888481
C80	C	0.533592	1.287814	1.138481
C81	C	-0.216406	0.629122	0.388469
C82	C	0.033594	0.879122	0.638469
C83	C	0.283594	1.129122	0.888469
C84	C	0.533594	1.379122	1.138469
C85	C	-0.216406	0.701899	0.388463
C86	C	0.033594	0.951899	0.638463
C87	C	0.283594	1.201899	0.888463
C88	C	0.533594	1.451899	1.138463
C89	C	-0.216404	0.793213	0.388452
C90	C	0.033596	1.043213	0.638452
C91	C	0.283596	1.293213	0.888452
C92	C	0.533596	1.543213	1.138452
C93	C	-0.333126	1.164956	0.388420
C94	C	-0.083126	1.414956	0.638420
C95	C	0.166874	1.664956	0.888420
C96	C	0.416874	1.914956	1.138420
C97	C	-0.383060	1.164967	0.388430
C98	C	-0.133060	1.414967	0.638430
C99	C	0.116940	1.664967	0.888430
C100	C	0.366940	1.914967	1.138430
C101	C	-0.692701	1.216752	0.336971
C102	C	-0.442701	1.466752	0.586971
C103	C	-0.192701	1.716752	0.836971
C104	C	0.057299	1.966752	1.086971
C105	C	-0.880374	1.216852	0.337002
C106	C	-0.630374	1.466852	0.587002
C107	C	-0.380374	1.716852	0.837002
C108	C	-0.130374	1.966852	1.087002
O109	O	-0.904636	1.260766	0.293219
O110	O	-0.654636	1.510766	0.543219
O111	O	-0.404636	1.760766	0.793219
O112	O	-0.154636	2.010766	1.043219
N113	N	-0.903845	1.165268	0.388521
N114	N	-0.653845	1.415268	0.638521
N115	N	-0.403845	1.665268	0.888521
N116	N	-0.153845	1.915268	1.138521
C117	C	-0.880395	1.113660	0.440039
C118	C	-0.630395	1.363660	0.690039
C119	C	-0.380395	1.613660	0.940039
C120	C	-0.130395	1.863660	1.190039
O121	O	-0.904665	1.069793	0.483866
O122	O	-0.654665	1.319793	0.733866
O123	O	-0.404665	1.569793	0.983866
O124	O	-0.154665	1.819793	1.233866
C125	C	-0.692723	1.113565	0.440011
C126	C	-0.442723	1.363565	0.690011
C127	C	-0.192723	1.613565	0.940011
C128	C	0.057277	1.863565	1.190011
C129	C	-0.669254	1.165146	0.388483
C130	C	-0.419254	1.415146	0.638483
C131	C	-0.169254	1.665146	0.888483
C132	C	0.080746	1.915146	1.138483
C133	C	-0.669232	1.268330	0.285447
C134	C	-0.419232	1.518330	0.535447
C135	C	-0.169232	1.768330	0.785447
C136	C	0.080768	2.018330	1.035447
C137	C	-0.622316	1.268302	0.285437
C138	C	-0.372316	1.518302	0.535437
C139	C	-0.122316	1.768302	0.785437
C140	C	0.127684	2.018302	1.035437
C141	C	-0.598870	1.216695	0.336950
C142	C	-0.348870	1.466695	0.586950
C143	C	-0.098870	1.716695	0.836950
C144	C	0.151130	1.966695	1.086950
C145	C	-0.622339	1.165118	0.388473
C146	C	-0.372339	1.415118	0.638473
C147	C	-0.122339	1.665118	0.888473
C148	C	0.127661	1.915118	1.138473
C149	C	-0.669274	1.061962	0.491533
C150	C	-0.419274	1.311962	0.741533
C151	C	-0.169274	1.561962	0.991533
C152	C	0.080726	1.811962	1.241533
C153	C	-0.622353	1.061944	0.491523
C154	C	-0.372353	1.311944	0.741523
C155	C	-0.122353	1.561944	0.991523
C156	C	0.127647	1.811944	1.241523
C157	C	-0.598884	1.113525	0.439995
C158	C	-0.348884	1.363525	0.689995
C159	C	-0.098884	1.613525	0.939995
C160	C	0.151116	1.863525	1.189995
C161	C	-0.551977	1.113483	0.439975
C162	C	-0.301977	1.363483	0.689975
C163	C	-0.051977	1.613483	0.939975
C164	C	0.198023	1.863483	1.189975
N165	N	-0.528505	1.165067	0.388456
N166	N	-0.278505	1.415067	0.638456
N167	N	-0.028505	1.665067	0.888456
N168	N	0.221495	1.915067	1.138456
C169	C	-0.551952	1.216673	0.336944
C170	C	-0.301952	1.466673	0.586944
C171	C	-0.051952	1.716673	0.836944
C172	C	0.198048	1.966673	1.086944
C173	C	-0.978926	1.113712	0.440049
C174	C	-0.728926	1.363712	0.690049
C175	C	-0.478926	1.613712	0.940049
C176	C	-0.228926	1.863712	1.190049
C177	C	-1.025844	1.113735	0.440055
C178	C	-0.775844	1.363735	0.690055
C179	C	-0.525844	1.613735	0.940055
C180	C	-0.275844	1.863735	1.190055
C181	C	-1.025819	1.216928	0.337019
C182	C	-0.775819	1.466928	0.587019
C183	C	-0.525819	1.716928	0.837019
C184	C	-0.275819	1.966928	1.087019
C185	C	-0.978900	1.216901	0.337009
C186	C	-0.728900	1.466901	0.587009
C187	C	-0.478900	1.716901	0.837009
C188	C	-0.228900	1.966901	1.087009
C189	C	-0.955455	1.165296	0.388530
C190	C	-0.705455	1.415296	0.638530
C191	C	-0.455455	1.665296	0.888530
C192	C	-0.205455	1.915296	1.138530
C193	C	-0.453426	1.216609	0.336925
C194	C	-0.203426	1.466609	0.586925
C195	C	0.046574	1.716609	0.836925
C196	C	0.296574	1.966609	1.086925
C197	C	-0.406506	1.216573	0.336917
C198	C	-0.156506	1.466573	0.586917
C199	C	0.093494	1.716573	0.836917
C200	C	0.343494	1.966573	1.086917
C201	C	-0.406535	1.113383	0.439956
C202	C	-0.156535	1.363383	0.689956
C203	C	0.093465	1.613383	0.939956
C204	C	0.343465	1.863383	1.189956
C205	C	-0.453451	1.113416	0.439962
C206	C	-0.203451	1.363416	0.689962
C207	C	0.046549	1.613416	0.939962
C208	C	0.296549	1.863416	1.189962
C209	C	-0.476895	1.165035	0.388443
C210	C	-0.226895	1.415035	0.638443
C211	C	0.023105	1.665035	0.888443
C212	C	0.273105	1.915035	1.138443
O213	O	-0.527685	1.069599	0.483742
O214	O	-0.277685	1.319599	0.733742
O215	O	-0.027685	1.569599	0.983742
O216	O	0.222315	1.819599	1.233742
O217	O	-0.527674	1.260546	0.293136
O218	O	-0.277674	1.510546	0.543136
O219	O	-0.027674	1.760546	0.793136
O220	O	0.222326	2.010546	1.043136
C221	C	-0.739616	1.216781	0.336981
C222	C	-0.489616	1.466781	0.586981
C223	C	-0.239616	1.716781	0.836981
C224	C	0.010384	1.966781	1.086981
C225	C	-0.763085	1.165203	0.388504
C226	C	-0.513085	1.415203	0.638504
C227	C	-0.263085	1.665203	0.888504
C228	C	-0.013085	1.915203	1.138504
C229	C	-0.739639	1.113597	0.440017
C230	C	-0.489639	1.363597	0.690017
C231	C	-0.239639	1.613597	0.940017
C232	C	0.010361	1.863597	1.190017
C233	C	-0.810003	1.165226	0.388510
C234	C	-0.560003	1.415226	0.638510
C235	C	-0.310003	1.665226	0.888510
C236	C	-0.060003	1.915226	1.138510
C237	C	-0.833449	1.216832	0.336997
C238	C	-0.583449	1.466832	0.586997
C239	C	-0.333449	1.716832	0.836997
C240	C	-0.083449	1.966832	1.086997
C241	C	-0.809978	1.268416	0.285479
C242	C	-0.559978	1.518416	0.535479
C243	C	-0.309978	1.768416	0.785479
C244	C	-0.059978	2.018416	1.035479
C245	C	-0.763062	1.268387	0.285468
C246	C	-0.513062	1.518387	0.535468
C247	C	-0.263062	1.768387	0.785468
C248	C	-0.013062	2.018387	1.035468
C249	C	-0.763110	1.062014	0.491536
C250	C	-0.513110	1.312014	0.741536
C251	C	-0.263110	1.562014	0.991536
C252	C	-0.013110	1.812014	1.241536
C253	C	-0.810026	1.062046	0.491541
C254	C	-0.560026	1.312046	0.741541
C255	C	-0.310026	1.562046	0.991541
C256	C	-0.060026	1.812046	1.241541
C257	C	-0.833472	1.113652	0.440028
C258	C	-0.583472	1.363652	0.690028
C259	C	-0.333472	1.613652	0.940028
C260	C	-0.083472	1.863652	1.190028
C261	C	-0.099225	1.165269	0.388518
C262	C	0.150775	1.415269	0.638518
C263	C	0.400775	1.665269	0.888518
C264	C	0.650775	1.915269	1.138518
C265	C	-0.049290	1.165341	0.388542
C266	C	0.200710	1.415341	0.638542
C267	C	0.450710	1.665341	0.888542
C268	C	0.700710	1.915341	1.138542
C269	C	-0.216370	1.165154	0.598769
C270	C	0.033630	1.415154	0.848769
C271	C	0.283630	1.665154	1.098769
C272	C	0.533630	1.915154	1.348769
C273	C	-0.216355	1.165176	0.688390
C274	C	0.033645	1.415176	0.938390
C275	C	0.283645	1.665176	1.188390
C276	C	0.533645	1.915176	1.438390
C277	C	-0.216410	1.375410	0.388483
C278	C	0.033590	1.625410	0.638483
C279	C	0.283590	1.875410	0.888483
C280	C	0.533590	2.125410	1.138483
C281	C	-0.216413	1.465031	0.388493
C282	C	0.033587	1.715031	0.638493
C283	C	0.283587	1.965031	0.888493
C284	C	0.533587	2.215031	1.138493
C285	C	-0.216404	1.165095	0.178969
C286	C	0.033596	1.415095	0.428969
C287	C	0.283596	1.665095	0.678969
C288	C	0.533596	1.915095	0.928969
C289	C	-0.216292	1.165229	0.089348
C290	C	0.033708	1.415229	0.339348
C291	C	0.283708	1.665229	0.589348
C292	C	0.533708	1.915229	0.839348
C293	C	-0.216305	1.165213	1.016566
C294	C	0.033695	1.415213	1.266566
C295	C	0.283695	1.665213	1.516566
C296	C	0.533695	1.915213	1.766566
C297	C	-0.216320	1.165201	0.925257
C298	C	0.033680	1.415201	1.175257
C299	C	0.283680	1.665201	1.425257
C300	C	0.533680	1.915201	1.675257
C301	C	-0.216330	1.165195	0.852481
C302	C	0.033670	1.415195	1.102481
C303	C	0.283670	1.665195	1.352481
C304	C	0.533670	1.915195	1.602481
C305	C	-0.216345	1.165182	0.761167
C306	C	0.033655	1.415182	1.011167
C307	C	0.283655	1.665182	1.261167
C308	C	0.533655	1.915182	1.511167
H309	H	-0.387399	1.258577	0.294954
H310	H	-0.137399	1.508577	0.544954
H311	H	0.112601	1.758577	0.794954
H312	H	0.362601	2.008577	1.044954
Br313	Br	-1.057689	1.043717	0.509977
Br314	Br	-0.807689	1.293717	0.759977
Br315	Br	-0.557689	1.543717	1.009977
Br316	Br	-0.307689	1.793717	1.259977
H317	H	-0.743957	1.310389	0.243509
H318	H	-0.493957	1.560389	0.493509
H319	H	-0.243957	1.810389	0.743509
H320	H	0.006043	2.060389	0.993509
Br321	Br	-0.701043	1.338378	0.215529
Br322	Br	-0.451043	1.588378	0.465529
Br323	Br	-0.201043	1.838378	0.715529
Br324	Br	0.048957	2.088378	0.965529
H325	H	-0.472509	1.258644	0.294976
H326	H	-0.222509	1.508644	0.544976
H327	H	0.027491	1.758644	0.794976
H328	H	0.277491	2.008644	1.044976
H329	H	-0.829130	1.020035	0.533501
H330	H	-0.579130	1.270035	0.783501
H331	H	-0.329130	1.520035	1.033501
H332	H	-0.079130	1.770035	1.283501
H333	H	-0.603210	1.310306	0.243481
H334	H	-0.353210	1.560306	0.493481
H335	H	-0.103210	1.810306	0.743481
H336	H	0.146790	2.060306	0.993481
Br337	Br	-0.374706	1.043353	0.509866
Br338	Br	-0.124706	1.293353	0.759866
Br339	Br	0.125294	1.543353	1.009866
Br340	Br	0.375294	1.793353	1.259866
H341	H	-0.688375	1.019955	0.533489
H342	H	-0.438375	1.269955	0.783489
H343	H	-0.188375	1.519955	1.033489
H344	H	0.061625	1.769955	1.283489
Br345	Br	-0.947054	1.286905	0.267075
Br346	Br	-0.697054	1.536905	0.517075
Br347	Br	-0.447054	1.786905	0.767075
Br348	Br	-0.197054	2.036905	1.017075
Br349	Br	-1.057648	1.286962	0.267106
Br350	Br	-0.807648	1.536962	0.517106
Br351	Br	-0.557648	1.786962	0.767106
Br352	Br	-0.307648	2.036962	1.017106
Br353	Br	-0.485303	1.043393	0.509873
Br354	Br	-0.235303	1.293393	0.759873
Br355	Br	0.014697	1.543393	1.009873
Br356	Br	0.264697	1.793393	1.259873
Br357	Br	-0.947114	1.043670	0.509977
Br358	Br	-0.697114	1.293670	0.759977
Br359	Br	-0.447114	1.543670	1.009977
Br360	Br	-0.197114	1.793670	1.259977
Br361	Br	-0.590537	0.991908	0.561452
Br362	Br	-0.340537	1.241908	0.811452
Br363	Br	-0.090537	1.491908	1.061452
Br364	Br	0.159463	1.741908	1.311452
H365	H	-0.744024	1.019991	0.533485
H366	H	-0.494024	1.269991	0.783485
H367	H	-0.244024	1.519991	1.033485
H368	H	0.005976	1.769991	1.283485
Br369	Br	-0.841807	1.338448	0.215566
Br370	Br	-0.591807	1.588448	0.465566
Br371	Br	-0.341807	1.838448	0.715566
Br372	Br	-0.091807	2.088448	0.965566
