data_functionalizedCrystal
_audit_creation_method	'MofGen! by Chris Wilmer'
_symmetry_space_group_name_H-M	'P1'
_symmetry_Int_Tables_number	1
_symmetry_cell_setting	triclinic
loop_
_symmetry_equiv_pos_as_xyz
  x,y,z
_cell_length_a	13.185407
_cell_length_b	13.262533
_cell_length_c	12.376457
_cell_angle_alpha	94.179852
_cell_angle_beta	97.389854
_cell_angle_gamma	68.868741
loop_
_atom_site_label
_atom_site_type_symbol
_atom_site_fract_x
_atom_site_fract_y
_atom_site_fract_z
O1	O	0.212209	1.269250	0.296234
O2	O	0.208729	0.983474	0.208369
O3	O	0.055291	1.175323	0.267359
O4	O	0.365647	1.077401	0.237244
O5	O	0.093596	1.127389	0.440633
O6	O	0.247034	0.935540	0.381643
O7	O	0.250513	1.221316	0.469508
Zn8	Zn	0.254855	1.070817	0.453086
Zn9	Zn	0.204387	1.133973	0.224791
O10	O	0.403951	1.029467	0.410518
C11	C	0.224553	0.923702	0.283997
C12	C	0.214623	0.817017	0.251196
C13	C	0.270166	0.411761	0.536538
C14	C	0.279502	0.511993	0.567361
C15	C	0.263282	0.588254	0.488323
C16	C	0.237726	0.564273	0.378455
C17	C	0.228397	0.464027	0.347628
C18	C	0.221514	0.640520	0.299413
C19	C	0.195958	0.616539	0.189545
C20	C	0.186630	0.516303	0.158723
C21	C	0.202849	0.440042	0.237762
C22	C	0.230843	0.740766	0.330240
C23	C	0.189075	0.793032	0.141330
C24	C	0.179739	0.692799	0.110507
C25	C	0.034538	1.161284	0.357047
C26	C	-0.084367	1.190853	0.366134
C27	C	-0.394200	0.908660	0.279361
C28	C	-0.282485	0.880878	0.270811
C29	C	-0.232950	0.958369	0.294642
C30	C	-0.295141	1.063648	0.327022
C31	C	-0.406869	1.091436	0.335565
C32	C	-0.245619	1.141145	0.350845
C33	C	-0.307810	1.246424	0.383226
C34	C	-0.419527	1.274206	0.391768
C35	C	-0.469062	1.196715	0.367937
C36	C	-0.133891	1.113357	0.342303
C37	C	-0.146560	1.296132	0.398507
C38	C	-0.258275	1.323915	0.407057
C39	C	0.424704	1.043507	0.320828
C40	C	0.543607	1.013939	0.311733
C41	C	0.234689	1.281089	0.393878
C42	C	0.244617	1.387776	0.426672
N43	N	0.289298	1.027723	0.608893
N44	N	0.169937	1.177077	0.068987
C45	C	0.089962	1.277119	1.040563
C46	C	0.065855	1.307276	0.931496
C47	C	0.121714	1.237390	0.850840
C48	C	0.201684	1.137343	0.879262
C49	C	0.225800	1.107187	0.988341
C50	C	0.257551	1.067457	0.798618
C51	C	0.337521	0.967410	0.827040
C52	C	0.361632	0.937259	0.936108
C53	C	0.305774	1.007145	1.016764
C54	C	0.233435	1.097613	0.689539
C55	C	0.369272	0.927681	0.637317
C56	C	0.393379	0.897524	0.746384
H57	H	0.195239	0.358426	0.212673
H58	H	0.325398	0.982590	1.105576
H59	H	0.270886	0.669866	0.513426
H60	H	0.158931	0.673258	0.021051
Br61	Br	0.470179	0.801492	0.974687
Br62	Br	0.501906	0.761748	0.784968
H63	H	0.175872	0.855123	0.076969
Br64	Br	0.014175	1.371963	1.150024
H65	H	-0.434544	0.845581	0.259953
H66	H	0.102082	1.261948	0.762034
H67	H	0.000746	1.388734	0.908359
H68	H	0.168324	1.179072	0.666409
Br69	Br	0.265527	0.773299	0.479340
H70	H	0.300308	0.531512	0.656815
H71	H	0.165832	0.496778	0.069261
H72	H	0.414759	0.870775	0.571646
H73	H	-0.083265	1.027637	0.315939
Br74	Br	0.292194	0.308257	0.643789
H75	H	-0.308927	1.409635	0.433421
Br76	Br	-0.081333	0.920662	0.283039
H77	H	-0.231857	0.795160	0.244444
Br78	Br	-0.620679	1.234414	0.379550
Br79	Br	-0.503932	1.417090	0.435694
Br80	Br	-0.079346	1.401309	0.430841
