data_functionalizedCrystal
_audit_creation_method	'MofGen! by Chris Wilmer'
_symmetry_space_group_name_H-M	'P1'
_symmetry_Int_Tables_number	1
_symmetry_cell_setting	triclinic
loop_
_symmetry_equiv_pos_as_xyz
  x,y,z
_cell_length_a	21.395362
_cell_length_b	21.395362
_cell_length_c	21.395355
_cell_angle_alpha	89.956060
_cell_angle_beta	90.020549
_cell_angle_gamma	89.954332
loop_
_atom_site_label
_atom_site_type_symbol
_atom_site_fract_x
_atom_site_fract_y
_atom_site_fract_z
Zn1	Zn	0.249246	0.957863	-0.354577
Zn2	Zn	0.499246	1.207863	-0.104577
Zn3	Zn	0.749246	1.457863	0.145423
Zn4	Zn	0.999246	1.707863	0.395423
Zn5	Zn	0.354005	0.957768	-0.249796
Zn6	Zn	0.604005	1.207768	0.000204
Zn7	Zn	0.854005	1.457768	0.250204
Zn8	Zn	1.104005	1.707768	0.500204
Zn9	Zn	0.249275	0.853078	-0.249778
Zn10	Zn	0.499275	1.103078	0.000222
Zn11	Zn	0.749275	1.353078	0.250222
Zn12	Zn	0.999275	1.603078	0.500222
Zn13	Zn	0.354018	0.853049	-0.354500
Zn14	Zn	0.604018	1.103049	-0.104500
Zn15	Zn	0.854018	1.353049	0.145500
Zn16	Zn	1.104018	1.603049	0.395500
O17	O	0.301636	0.905440	-0.302163
O18	O	0.551636	1.155440	-0.052163
O19	O	0.801636	1.405440	0.197837
O20	O	1.051636	1.655440	0.447837
O21	O	0.263125	1.045529	-0.340717
O22	O	0.513125	1.295529	-0.090717
O23	O	0.763125	1.545529	0.159283
O24	O	1.013125	1.795529	0.409283
O25	O	0.340119	0.943852	-0.162115
O26	O	0.590119	1.193852	0.087885
O27	O	0.840119	1.443852	0.337885
O28	O	1.090119	1.693852	0.587885
O29	O	0.161593	0.867031	-0.263704
O30	O	0.411593	1.117031	-0.013704
O31	O	0.661593	1.367031	0.236296
O32	O	0.911593	1.617031	0.486296
O33	O	0.340091	1.045458	-0.263734
O34	O	0.590091	1.295458	-0.013734
O35	O	0.840091	1.545458	0.236266
O36	O	1.090091	1.795458	0.486266
O37	O	0.161572	0.944016	-0.340700
O38	O	0.411572	1.194016	-0.090700
O39	O	0.661572	1.444016	0.159300
O40	O	0.911572	1.694016	0.409300
O41	O	0.263174	0.866938	-0.162102
O42	O	0.513174	1.116938	0.087898
O43	O	0.763174	1.366938	0.337898
O44	O	1.013174	1.616938	0.587898
O45	O	0.263187	0.765397	-0.263630
O46	O	0.513187	1.015397	-0.013630
O47	O	0.763187	1.265397	0.236370
O48	O	1.013187	1.515397	0.486370
O49	O	0.340113	0.866981	-0.442188
O50	O	0.590113	1.116981	-0.192188
O51	O	0.840113	1.366981	0.057812
O52	O	1.090113	1.616981	0.307812
O53	O	0.340141	0.765375	-0.340569
O54	O	0.590141	1.015375	-0.090569
O55	O	0.840141	1.265375	0.159431
O56	O	1.090141	1.515375	0.409431
O57	O	0.263137	0.943988	-0.442245
O58	O	0.513137	1.193988	-0.192245
O59	O	0.763137	1.443988	0.057755
O60	O	1.013137	1.693988	0.307755
O61	O	0.441685	0.943824	-0.263660
O62	O	0.691685	1.193824	-0.013660
O63	O	0.941685	1.443824	0.236340
O64	O	1.191685	1.693824	0.486340
O65	O	0.441695	0.866888	-0.340586
O66	O	0.691695	1.116888	-0.090586
O67	O	0.941695	1.366888	0.159414
O68	O	1.191695	1.616888	0.409414
C69	C	0.301669	0.742652	-0.302090
C70	C	0.551669	0.992652	-0.052090
C71	C	0.801669	1.242652	0.197910
C72	C	1.051669	1.492652	0.447910
C73	C	0.301698	0.673011	-0.302074
C74	C	0.551698	0.923011	-0.052074
C75	C	0.801698	1.173011	0.197926
C76	C	1.051698	1.423011	0.447926
C77	C	0.464424	0.905360	-0.302130
C78	C	0.714424	1.155360	-0.052130
C79	C	0.964424	1.405360	0.197870
C80	C	1.214424	1.655360	0.447870
C81	C	0.534065	0.905383	-0.302138
C82	C	0.784065	1.155383	-0.052138
C83	C	1.034065	1.405383	0.197862
C84	C	1.284065	1.655383	0.447862
C85	C	0.341822	0.640303	-0.342076
C86	C	0.591822	0.890303	-0.092076
C87	C	0.841822	1.140303	0.157924
C88	C	1.091822	1.390303	0.407924
C89	C	0.341806	0.574867	-0.342104
C90	C	0.591806	0.824867	-0.092104
C91	C	0.841806	1.074867	0.157896
C92	C	1.091806	1.324867	0.407896
C93	C	0.301674	0.542142	-0.302118
C94	C	0.551674	0.792142	-0.052118
C95	C	0.801674	1.042142	0.197882
C96	C	1.051674	1.292142	0.447882
C97	C	0.261543	0.574858	-0.262113
C98	C	0.511543	0.824858	-0.012113
C99	C	0.761543	1.074858	0.237887
C100	C	1.011543	1.324858	0.487887
C101	C	0.261555	0.640292	-0.262091
C102	C	0.511555	0.890292	-0.012091
C103	C	0.761555	1.140292	0.237909
C104	C	1.011555	1.390292	0.487909
C105	C	0.296627	0.438418	-0.245713
C106	C	0.546627	0.688418	0.004287
C107	C	0.796627	0.938418	0.254287
C108	C	1.046627	1.188418	0.504287
C109	C	0.296619	0.372985	-0.245735
C110	C	0.546619	0.622985	0.004265
C111	C	0.796619	0.872985	0.254265
C112	C	1.046619	1.122985	0.504265
C113	C	0.301633	0.340322	-0.302188
C114	C	0.551633	0.590322	-0.052188
C115	C	0.801633	0.840322	0.197812
C116	C	1.051633	1.090322	0.447812
C117	C	0.306668	0.373100	-0.358621
C118	C	0.556668	0.623100	-0.108621
C119	C	0.806668	0.873100	0.141379
C120	C	1.056668	1.123100	0.391379
C121	C	0.306681	0.438534	-0.358599
C122	C	0.556681	0.688534	-0.108599
C123	C	0.806681	0.938534	0.141401
C124	C	1.056681	1.188534	0.391401
C125	C	0.301656	0.471190	-0.302138
C126	C	0.551656	0.721190	-0.052138
C127	C	0.801656	0.971190	0.197862
C128	C	1.051656	1.221190	0.447862
C129	C	0.341742	0.236661	-0.342223
C130	C	0.591742	0.486661	-0.092223
C131	C	0.841742	0.736661	0.157777
C132	C	1.091742	0.986661	0.407777
C133	C	0.341723	0.171225	-0.342252
C134	C	0.591723	0.421225	-0.092252
C135	C	0.841723	0.671225	0.157748
C136	C	1.091723	0.921225	0.407748
C137	C	0.261462	0.171217	-0.262256
C138	C	0.511462	0.421217	-0.012256
C139	C	0.761462	0.671217	0.237744
C140	C	1.011462	0.921217	0.487744
C141	C	0.261479	0.236652	-0.262233
C142	C	0.511479	0.486652	-0.012233
C143	C	0.761479	0.736652	0.237767
C144	C	1.011479	0.986652	0.487767
C145	C	0.301622	0.269371	-0.302216
C146	C	0.551622	0.519371	-0.052216
C147	C	0.801622	0.769371	0.197784
C148	C	1.051622	1.019371	0.447784
C149	C	0.138213	0.905537	-0.302209
C150	C	0.388213	1.155537	-0.052209
C151	C	0.638213	1.405537	0.197791
C152	C	0.888213	1.655537	0.447791
C153	C	0.068571	0.905579	-0.302228
C154	C	0.318571	1.155579	-0.052228
C155	C	0.568571	1.405579	0.197772
C156	C	0.818571	1.655579	0.447772
C157	C	0.566710	0.945446	-0.342258
C158	C	0.816710	1.195446	-0.092258
C159	C	1.066710	1.445446	0.157742
C160	C	1.316710	1.695446	0.407742
C161	C	0.632145	0.945468	-0.342273
C162	C	0.882145	1.195468	-0.092273
C163	C	1.132145	1.445468	0.157727
C164	C	1.382145	1.695468	0.407727
C165	C	0.664933	0.905433	-0.302157
C166	C	0.914933	1.155433	-0.052157
C167	C	1.164933	1.405433	0.197843
C168	C	1.414933	1.655433	0.447843
C169	C	0.632280	0.865362	-0.262034
C170	C	0.882280	1.115362	-0.012034
C171	C	1.132280	1.365362	0.237966
C172	C	1.382280	1.615362	0.487966
C173	C	0.566846	0.865337	-0.262025
C174	C	0.816846	1.115337	-0.012025
C175	C	1.066846	1.365337	0.237975
C176	C	1.316846	1.615337	0.487975
C177	C	0.768635	0.900556	-0.245717
C178	C	1.018635	1.150556	0.004283
C179	C	1.268635	1.400556	0.254283
C180	C	1.518635	1.650556	0.504283
C181	C	0.834068	0.900586	-0.245725
C182	C	1.084068	1.150586	0.004275
C183	C	1.334068	1.400586	0.254275
C184	C	1.584068	1.650586	0.504275
C185	C	0.866754	0.905508	-0.302187
C186	C	1.116754	1.155508	-0.052187
C187	C	1.366754	1.405508	0.197813
C188	C	1.616754	1.655508	0.447813
C189	C	0.833999	0.910413	-0.358643
C190	C	1.083999	1.160413	-0.108643
C191	C	1.333999	1.410413	0.141357
C192	C	1.583999	1.660413	0.391357
C193	C	0.768565	0.910388	-0.358633
C194	C	1.018565	1.160388	-0.108633
C195	C	1.268565	1.410388	0.141367
C196	C	1.518565	1.660388	0.391367
C197	C	0.735886	0.905456	-0.302163
C198	C	0.985886	1.155456	-0.052163
C199	C	1.235886	1.405456	0.197837
C200	C	1.485886	1.655456	0.447837
C201	C	0.970351	0.945597	-0.342327
C202	C	1.220351	1.195597	-0.092327
C203	C	1.470351	1.445597	0.157673
C204	C	1.720351	1.695597	0.407673
C205	C	1.035788	0.945614	-0.342344
C206	C	1.285788	1.195614	-0.092344
C207	C	1.535788	1.445614	0.157656
C208	C	1.785788	1.695614	0.407656
C209	C	1.035922	0.865512	-0.262100
C210	C	1.285922	1.115512	-0.012100
C211	C	1.535922	1.365512	0.237900
C212	C	1.785922	1.615512	0.487900
C213	C	0.970486	0.865491	-0.262089
C214	C	1.220486	1.115491	-0.012089
C215	C	1.470486	1.365491	0.237911
C216	C	1.720486	1.615491	0.487911
C217	C	0.937705	0.905537	-0.302202
C218	C	1.187705	1.155537	-0.052202
C219	C	1.437705	1.405537	0.197798
C220	C	1.687705	1.655537	0.447798
C221	C	0.301623	0.905492	-0.465586
C222	C	0.551623	1.155492	-0.215586
C223	C	0.801623	1.405492	0.034414
C224	C	1.051623	1.655492	0.284414
C225	C	0.301618	0.905514	-0.535227
C226	C	0.551618	1.155514	-0.285227
C227	C	0.801618	1.405514	-0.035227
C228	C	1.051618	1.655514	0.214773
C229	C	0.301603	1.068863	-0.302236
C230	C	0.551603	1.318863	-0.052236
C231	C	0.801603	1.568863	0.197764
C232	C	1.051603	1.818863	0.447764
C233	C	0.301589	1.138504	-0.302267
C234	C	0.551589	1.388504	-0.052267
C235	C	0.801589	1.638504	0.197733
C236	C	1.051589	1.888504	0.447733
C237	C	0.261535	0.945609	-0.567971
C238	C	0.511535	1.195609	-0.317971
C239	C	0.761535	1.445609	-0.067971
C240	C	1.011535	1.695609	0.182029
C241	C	0.261508	0.945609	-0.633406
C242	C	0.511508	1.195609	-0.383406
C243	C	0.761508	1.445609	-0.133406
C244	C	1.011508	1.695609	0.116594
C245	C	0.301575	0.905519	-0.666096
C246	C	0.551575	1.155519	-0.416096
C247	C	0.801575	1.405519	-0.166096
C248	C	1.051575	1.655519	0.083904
C249	C	0.341661	0.865415	-0.633344
C250	C	0.591661	1.115415	-0.383344
C251	C	0.841661	1.365415	-0.133344
C252	C	1.091661	1.615415	0.116656
C253	C	0.341682	0.865413	-0.567910
C254	C	0.591682	1.115413	-0.317910
C255	C	0.841682	1.365413	-0.067910
C256	C	1.091682	1.615413	0.182090
C257	C	0.357992	0.900544	-0.769758
C258	C	0.607992	1.150544	-0.519758
C259	C	0.857992	1.400544	-0.269758
C260	C	1.107992	1.650544	-0.019758
C261	C	0.357972	0.900551	-0.835191
C262	C	0.607972	1.150551	-0.585191
C263	C	0.857972	1.400551	-0.335191
C264	C	1.107972	1.650551	-0.085191
C265	C	0.301509	0.905523	-0.867917
C266	C	0.551509	1.155523	-0.617917
C267	C	0.801509	1.405523	-0.367917
C268	C	1.051509	1.655523	-0.117917
C269	C	0.245065	0.910501	-0.835202
C270	C	0.495065	1.160501	-0.585202
C271	C	0.745065	1.410501	-0.335202
C272	C	0.995065	1.660501	-0.085202
C273	C	0.245086	0.910499	-0.769767
C274	C	0.495086	1.160499	-0.519767
C275	C	0.745086	1.410499	-0.269767
C276	C	0.995086	1.660499	-0.019767
C277	C	0.301556	0.905517	-0.737048
C278	C	0.551556	1.155517	-0.487048
C279	C	0.801556	1.405517	-0.237048
C280	C	1.051556	1.655517	0.012952
C281	C	0.261393	0.945619	-0.971613
C282	C	0.511393	1.195619	-0.721613
C283	C	0.761393	1.445619	-0.471613
C284	C	1.011393	1.695619	-0.221613
C285	C	0.261365	0.945614	-1.037049
C286	C	0.511365	1.195614	-0.787049
C287	C	0.761365	1.445614	-0.537049
C288	C	1.011365	1.695614	-0.287049
C289	C	0.341524	0.865424	-1.036986
C290	C	0.591524	1.115424	-0.786986
C291	C	0.841524	1.365424	-0.536986
C292	C	1.091524	1.615424	-0.286986
C293	C	0.341547	0.865426	-0.971551
C294	C	0.591547	1.115426	-0.721551
C295	C	0.841547	1.365426	-0.471551
C296	C	1.091547	1.615426	-0.221551
C297	C	0.301482	0.905527	-0.938868
C298	C	0.551482	1.155527	-0.688868
C299	C	0.801482	1.405527	-0.438868
C300	C	1.051482	1.655527	-0.188868
C301	C	0.301603	0.905424	-0.139375
C302	C	0.551603	1.155424	0.110625
C303	C	0.801603	1.405424	0.360625
C304	C	1.051603	1.655424	0.610625
C305	C	0.301432	0.905523	-0.069734
C306	C	0.551432	1.155523	0.180266
C307	C	0.801432	1.405523	0.430266
C308	C	1.051432	1.655523	0.680266
H309	H	0.374509	0.666938	-0.374634
H310	H	0.624509	0.916938	-0.124634
H311	H	0.874509	1.166938	0.125366
H312	H	1.124509	1.416938	0.375366
H313	H	1.062617	0.832911	-0.229440
H314	H	1.312617	1.082911	0.020560
H315	H	1.562617	1.332911	0.270560
H316	H	1.812617	1.582911	0.520560
H317	H	0.310778	0.465219	-0.404549
H318	H	0.560778	0.715219	-0.154549
H319	H	0.810778	0.965219	0.095451
H320	H	1.060778	1.215219	0.345451
F321	F	0.218747	0.136393	-0.219704
F322	F	0.468747	0.386393	0.030296
F323	F	0.718747	0.636393	0.280296
F324	F	0.968747	0.886393	0.530296
H325	H	0.292523	0.346302	-0.199783
H326	H	0.542523	0.596302	0.050217
H327	H	0.792523	0.846302	0.300217
H328	H	1.042523	1.096302	0.550217
F329	F	0.291291	0.473174	-0.185624
F330	F	0.541291	0.723174	0.064376
F331	F	0.791291	0.973174	0.314376
F332	F	1.041291	1.223174	0.564376
F333	F	0.218708	0.988299	-1.071897
F334	F	0.468708	1.238299	-0.821897
F335	F	0.718708	1.488299	-0.571897
F336	F	0.968708	1.738299	-0.321897
H337	H	0.742027	0.896546	-0.199735
H338	H	0.992027	1.146546	0.050265
H339	H	1.242027	1.396546	0.300265
H340	H	1.492027	1.646546	0.550265
H341	H	0.540021	0.978052	-0.374922
H342	H	0.790021	1.228052	-0.124922
H343	H	1.040021	1.478052	0.125078
H344	H	1.290021	1.728052	0.375078
H345	H	0.658980	0.832764	-0.229373
H346	H	0.908980	1.082764	0.020627
H347	H	1.158980	1.332764	0.270627
H348	H	1.408980	1.582764	0.520627
F349	F	0.384513	0.540050	-0.384681
F350	F	0.634513	0.790050	-0.134681
F351	F	0.884513	1.040050	0.115319
F352	F	1.134513	1.290050	0.365319
H353	H	0.943905	0.832871	-0.229417
H354	H	1.193905	1.082871	0.020583
H355	H	1.443905	1.332871	0.270583
H356	H	1.693905	1.582871	0.520583
H357	H	0.228910	0.978262	-0.541364
H358	H	0.478910	1.228262	-0.291364
H359	H	0.728910	1.478262	-0.041364
H360	H	0.978910	1.728262	0.208636
H361	H	0.228880	0.666923	-0.229516
H362	H	0.478880	0.916923	0.020484
H363	H	0.728880	1.166923	0.270484
H364	H	0.978880	1.416923	0.520484
F365	F	0.532102	0.822694	-0.219322
F366	F	0.782102	1.072694	0.030678
F367	F	1.032102	1.322694	0.280678
F368	F	1.282102	1.572694	0.530678
F369	F	0.218834	0.988275	-0.668261
F370	F	0.468834	1.238275	-0.418261
F371	F	0.718834	1.488275	-0.168261
F372	F	0.968834	1.738275	0.081739
H373	H	1.062367	0.978239	-0.375017
H374	H	1.312367	1.228239	-0.125017
H375	H	1.562367	1.478239	0.124983
H376	H	1.812367	1.728239	0.374983
H377	H	0.199128	0.914551	-0.743133
H378	H	0.449128	1.164551	-0.493133
H379	H	0.699128	1.414551	-0.243133
H380	H	0.949128	1.664551	0.006867
F381	F	0.312003	0.338343	-0.418708
F382	F	0.562003	0.588343	-0.168708
F383	F	0.812003	0.838343	0.081292
F384	F	1.062003	1.088343	0.331292
H385	H	0.228866	0.548209	-0.229558
H386	H	0.478866	0.798209	0.020442
H387	H	0.728866	1.048209	0.270442
H388	H	0.978866	1.298209	0.520442
F389	F	0.384163	0.822753	-1.071772
F390	F	0.634163	1.072753	-0.821772
F391	F	0.884163	1.322753	-0.571772
F392	F	1.134163	1.572753	-0.321772
F393	F	0.384211	0.822753	-0.936701
F394	F	0.634211	1.072753	-0.686701
F395	F	0.884211	1.322753	-0.436701
F396	F	1.134211	1.572753	-0.186701
F397	F	0.868780	0.915654	-0.418738
F398	F	1.118780	1.165654	-0.168738
F399	F	1.368780	1.415654	0.081262
F400	F	1.618780	1.665654	0.331262
F401	F	0.384426	0.136415	-0.384834
F402	F	0.634426	0.386415	-0.134834
F403	F	0.884426	0.636415	0.115166
F404	F	1.134426	0.886415	0.365166
H405	H	0.943660	0.978203	-0.374992
H406	H	1.193660	1.228203	-0.124992
H407	H	1.443660	1.478203	0.125008
H408	H	1.693660	1.728203	0.375008
H409	H	0.403932	0.896501	-0.861822
H410	H	0.653932	1.146501	-0.611822
H411	H	0.903932	1.396501	-0.361822
H412	H	1.153932	1.646501	-0.111822
F413	F	0.418093	0.895266	-0.734934
F414	F	0.668093	1.145266	-0.484934
F415	F	0.918093	1.395266	-0.234934
F416	F	1.168093	1.645266	0.015066
H417	H	0.658730	0.978087	-0.374951
H418	H	0.908730	1.228087	-0.124951
H419	H	1.158730	1.478087	0.125049
H420	H	1.408730	1.728087	0.375049
H421	H	0.741897	0.914380	-0.404600
H422	H	0.991897	1.164380	-0.154600
H423	H	1.241897	1.414380	0.095400
H424	H	1.491897	1.664380	0.345400
F425	F	0.384302	0.822747	-0.668136
F426	F	0.634302	1.072747	-0.418136
F427	F	0.884302	1.322747	-0.168136
F428	F	1.134302	1.572747	0.081864
F429	F	0.218775	0.271464	-0.219655
F430	F	0.468775	0.521464	0.030345
F431	F	0.718775	0.771464	0.280345
F432	F	0.968775	1.021464	0.530345
F433	F	0.184969	0.915795	-0.870025
F434	F	0.434969	1.165795	-0.620025
F435	F	0.684969	1.415795	-0.370025
F436	F	0.934969	1.665795	-0.120025
F437	F	0.218751	0.988295	-0.936827
F438	F	0.468751	1.238295	-0.686827
F439	F	0.718751	1.488295	-0.436827
F440	F	0.968751	1.738295	-0.186827
F441	F	0.384346	0.822736	-0.533061
F442	F	0.634346	1.072736	-0.283061
F443	F	0.884346	1.322736	-0.033061
F444	F	1.134346	1.572736	0.216939
H445	H	0.374426	0.263302	-0.374783
H446	H	0.624426	0.513302	-0.124783
H447	H	0.874426	0.763302	0.125217
H448	H	1.124426	1.013302	0.375217
F449	F	0.868922	0.895370	-0.185641
F450	F	1.118922	1.145370	0.064359
F451	F	1.368922	1.395370	0.314359
F452	F	1.618922	1.645370	0.564359
