data_functionalizedCrystal
_audit_creation_method	'MofGen! by Chris Wilmer'
_symmetry_space_group_name_H-M	'P1'
_symmetry_Int_Tables_number	1
_symmetry_cell_setting	triclinic
loop_
_symmetry_equiv_pos_as_xyz
  x,y,z
_cell_length_a	12.759401
_cell_length_b	17.077402
_cell_length_c	17.077396
_cell_angle_alpha	90.028267
_cell_angle_beta	89.985850
_cell_angle_gamma	89.975506
loop_
_atom_site_label
_atom_site_type_symbol
_atom_site_fract_x
_atom_site_fract_y
_atom_site_fract_z
Zn1	Zn	1.606140	0.312498	-0.443784
Zn2	Zn	1.939473	0.645832	-0.110450
Zn3	Zn	2.272807	0.979165	0.222883
Zn4	Zn	1.606018	0.443775	-0.312520
Zn5	Zn	1.939351	0.777108	0.020813
Zn6	Zn	2.272685	1.110442	0.354147
Zn7	Zn	1.430455	0.312528	-0.312539
Zn8	Zn	1.763789	0.645861	0.020795
Zn9	Zn	2.097122	0.979194	0.354128
Zn10	Zn	1.430401	0.443726	-0.443751
Zn11	Zn	1.763734	0.777060	-0.110417
Zn12	Zn	2.097068	1.110393	0.222916
O13	O	1.518254	0.378132	-0.378148
O14	O	1.851587	0.711465	-0.044815
O15	O	2.184920	1.044799	0.288518
O16	O	1.753145	0.329921	-0.426377
O17	O	2.086478	0.663254	-0.093044
O18	O	2.419811	0.996587	0.240289
O19	O	1.582701	0.426397	-0.202676
O20	O	1.916034	0.759731	0.130658
O21	O	2.249368	1.093064	0.463991
O22	O	1.453834	0.202677	-0.329970
O23	O	1.787167	0.536010	0.003363
O24	O	2.120501	0.869343	0.336696
O25	O	1.753055	0.426369	-0.329938
O26	O	2.086389	0.759702	0.003395
O27	O	2.419722	1.093036	0.336728
O28	O	1.582909	0.202655	-0.426395
O29	O	1.916242	0.535989	-0.093062
O30	O	2.249575	0.869322	0.240271
O31	O	1.453716	0.329971	-0.202689
O32	O	1.787049	0.663304	0.130644
O33	O	2.120382	0.996637	0.463977
O34	O	1.283427	0.329923	-0.329938
O35	O	1.616760	0.663257	0.003395
O36	O	1.950094	0.996590	0.336728
O37	O	1.453742	0.426286	-0.553602
O38	O	1.787075	0.759619	-0.220269
O39	O	2.120408	1.092953	0.113065
O40	O	1.283387	0.426315	-0.426339
O41	O	1.616721	0.759648	-0.093006
O42	O	1.950054	1.092981	0.240328
O43	O	1.582856	0.329873	-0.553626
O44	O	1.916189	0.663207	-0.220293
O45	O	2.249523	0.996540	0.113040
O46	O	1.582648	0.553616	-0.329906
O47	O	1.915982	0.886949	0.003427
O48	O	2.249315	1.220282	0.336760
O49	O	1.453623	0.553580	-0.426321
O50	O	1.786957	0.886913	-0.092988
O51	O	2.120290	1.220247	0.240346
C52	C	1.245286	0.378117	-0.378138
C53	C	1.578620	0.711451	-0.044804
C54	C	1.911953	1.044784	0.288529
C55	C	1.128510	0.378130	-0.378152
C56	C	1.461843	0.711463	-0.044818
C57	C	1.795176	1.044797	0.288515
C58	C	1.518145	0.582080	-0.378125
C59	C	1.851479	0.915413	-0.044792
C60	C	2.184812	1.248746	0.288541
C61	C	1.518195	0.669330	-0.378142
C62	C	1.851528	1.002663	-0.044808
C63	C	2.184862	1.335996	0.288525
C64	C	1.518306	0.378071	-0.582893
C65	C	1.851640	0.711404	-0.249559
C66	C	2.184973	1.044738	0.083774
C67	C	1.518329	0.378045	-0.670142
C68	C	1.851662	0.711379	-0.336809
C69	C	2.184996	1.044712	-0.003476
C70	C	1.073654	0.428401	-0.428265
C71	C	1.406988	0.761735	-0.094931
C72	C	1.740321	1.095068	0.238402
C73	C	0.963930	0.428411	-0.428273
C74	C	1.297264	0.761745	-0.094940
C75	C	1.630597	1.095078	0.238394
C76	C	0.963926	0.327877	-0.328049
C77	C	1.297260	0.661210	0.005284
C78	C	1.630593	0.994543	0.338618
C79	C	1.073649	0.327863	-0.328045
C80	C	1.406982	0.661197	0.005288
C81	C	1.740315	0.994530	0.338622
C82	C	1.073656	0.486447	-0.486126
C83	C	1.406989	0.819780	-0.152793
C84	C	1.740322	1.153113	0.180541
C85	C	0.963932	0.486457	-0.486134
C86	C	1.297265	0.819790	-0.152801
C87	C	1.630598	1.153123	0.180532
C88	C	1.792287	0.378147	-0.378159
C89	C	2.125620	0.711480	-0.044826
C90	C	2.458954	1.044814	0.288507
C91	C	1.909063	0.378153	-0.378164
C92	C	2.242397	0.711487	-0.044831
C93	C	2.575730	1.044820	0.288503
C94	C	1.585446	0.710312	-0.327994
C95	C	1.918779	1.043646	0.005339
C96	C	2.252112	1.376979	0.338672
C97	C	1.585494	0.792293	-0.328018
C98	C	1.918828	1.125626	0.005316
C99	C	2.252161	1.458959	0.338649
C100	C	1.518286	0.833289	-0.378185
C101	C	1.851620	1.166622	-0.044852
C102	C	2.184953	1.499956	0.288482
C103	C	1.451033	0.792300	-0.428338
C104	C	1.784366	1.125634	-0.095005
C105	C	2.117699	1.458967	0.238328
C106	C	1.450990	0.710322	-0.428318
C107	C	1.784323	1.043655	-0.094985
C108	C	2.117657	1.376988	0.238349
C109	C	1.451124	0.963170	-0.428375
C110	C	1.784458	1.296504	-0.095042
C111	C	2.117791	1.629837	0.238292
C112	C	1.451165	1.045155	-0.428394
C113	C	1.784498	1.378488	-0.095061
C114	C	2.117832	1.711822	0.238272
C115	C	1.585628	1.045142	-0.328074
C116	C	1.918962	1.378475	0.005259
C117	C	2.252295	1.711808	0.338592
C118	C	1.585586	0.963163	-0.328054
C119	C	1.918919	1.296496	0.005279
C120	C	2.252253	1.629829	0.338612
C121	C	1.518331	0.922180	-0.378207
C122	C	1.851664	1.255513	-0.044873
C123	C	2.184997	1.588847	0.288460
C124	C	1.518382	1.173388	-0.378199
C125	C	1.851716	1.506721	-0.044865
C126	C	2.185049	1.840054	0.288468
C127	C	1.518416	1.086138	-0.378247
C128	C	1.851749	1.419471	-0.044913
C129	C	2.185082	1.752804	0.288420
C130	C	1.451187	0.327830	-0.711139
C131	C	1.784520	0.661163	-0.377806
C132	C	2.117853	0.994496	-0.044472
C133	C	1.451204	0.327812	-0.793120
C134	C	1.784537	0.661145	-0.459786
C135	C	2.117871	0.994478	-0.126453
C136	C	1.518369	0.378006	-0.834102
C137	C	1.851703	0.711339	-0.500769
C138	C	2.185036	1.044673	-0.167435
C139	C	1.585514	0.428227	-0.793100
C140	C	1.918848	0.761561	-0.459766
C141	C	2.252181	1.094894	-0.126433
C142	C	1.585491	0.428248	-0.711121
C143	C	1.918824	0.761582	-0.377787
C144	C	2.252158	1.094915	-0.044454
C145	C	1.585560	0.428178	-0.963970
C146	C	1.918893	0.761511	-0.630636
C147	C	2.252226	1.094845	-0.297303
C148	C	1.585585	0.428156	-1.045954
C149	C	1.918918	0.761489	-0.712621
C150	C	2.252251	1.094823	-0.379288
C151	C	1.451273	0.327742	-1.045969
C152	C	1.784606	0.661075	-0.712635
C153	C	2.117939	0.994408	-0.379302
C154	C	1.451249	0.327763	-0.963990
C155	C	1.784583	0.661096	-0.630656
C156	C	2.117916	0.994429	-0.297323
C157	C	1.518396	0.377983	-0.922993
C158	C	1.851729	0.711316	-0.589660
C159	C	2.185063	1.044650	-0.256326
C160	C	1.518261	0.378136	-0.174200
C161	C	1.851595	0.711469	0.159133
C162	C	2.184928	1.044802	0.492466
C163	C	1.518443	0.377941	-0.086951
C164	C	1.851776	0.711274	0.246382
C165	C	2.185109	1.044607	0.579716
H166	H	1.118308	0.286922	-0.287243
H167	H	1.451641	0.620256	0.046090
H168	H	1.784974	0.953589	0.379423
H169	H	1.396600	0.286849	-1.079352
H170	H	1.729934	0.620183	-0.746019
H171	H	2.063267	0.953516	-0.412686
Br172	Br	1.676682	0.496340	-0.908332
Br173	Br	2.010015	0.829673	-0.574998
Br174	Br	2.343348	1.163006	-0.241665
Br175	Br	1.359725	0.654701	-0.496383
Br176	Br	1.693058	0.988034	-0.163050
Br177	Br	2.026391	1.321368	0.170283
Br178	Br	1.360036	0.259699	-0.655528
Br179	Br	1.693370	0.593032	-0.322195
Br180	Br	2.026703	0.926366	0.011138
Br181	Br	1.359853	0.907551	-0.496443
Br182	Br	1.693186	1.240885	-0.163109
Br183	Br	2.026519	1.574218	0.170224
Br184	Br	0.889466	0.259658	-0.260053
Br185	Br	1.222799	0.592991	0.073280
Br186	Br	1.556132	0.926325	0.406614
H187	H	0.929933	0.464762	-0.543929
H188	H	1.263266	0.798095	-0.210595
H189	H	1.596600	1.131428	0.122738
H190	H	1.107659	0.544164	-0.464244
H191	H	1.440992	0.877497	-0.130911
H192	H	1.774326	1.210830	0.202423
Br193	Br	0.914240	0.587747	-0.458793
Br194	Br	1.247573	0.921080	-0.125459
Br195	Br	1.580906	1.254413	0.207874
Br196	Br	1.360105	0.259634	-0.908371
Br197	Br	1.693439	0.592967	-0.575037
Br198	Br	2.026772	0.926301	-0.241704
H199	H	1.640277	0.469029	-1.079320
H200	H	1.973610	0.802362	-0.745987
H201	H	2.306943	1.135695	-0.412653
Br202	Br	1.676659	0.496356	-0.848717
Br203	Br	2.009993	0.829690	-0.515384
Br204	Br	2.343326	1.163023	-0.182051
H205	H	1.640173	0.469133	-0.677742
H206	H	1.973506	0.802467	-0.344409
H207	H	2.306840	1.135800	-0.011075
H208	H	1.640170	0.676938	-0.287139
H209	H	1.973503	1.010272	0.046195
H210	H	2.306836	1.343605	0.379528
H211	H	1.640256	0.825657	-0.287182
H212	H	1.973589	1.158990	0.046151
H213	H	2.306922	1.492324	0.379485
H214	H	1.640306	0.929784	-0.287200
H215	H	1.973639	1.263117	0.046133
H216	H	2.306973	1.596450	0.379466
Br217	Br	1.123345	0.459438	-0.587499
Br218	Br	1.456678	0.792771	-0.254166
Br219	Br	1.790011	1.126105	0.079167
Br220	Br	1.359938	1.100793	-0.496468
Br221	Br	1.693271	1.434126	-0.163134
Br222	Br	2.026604	1.767460	0.170199
Br223	Br	1.676889	1.100760	-0.260000
Br224	Br	2.010223	1.434093	0.073333
Br225	Br	2.343556	1.767426	0.406667
H226	H	1.396315	0.825686	-0.469189
H227	H	1.729649	1.159019	-0.135856
H228	H	2.062982	1.492353	0.197478
H229	H	1.396526	0.286924	-0.826496
H230	H	1.729859	0.620258	-0.493162
H231	H	2.063193	0.953591	-0.159829
