data_functionalizedCrystal
_audit_creation_method	'MofGen! by Chris Wilmer'
_symmetry_space_group_name_H-M	'P1'
_symmetry_Int_Tables_number	1
_symmetry_cell_setting	triclinic
loop_
_symmetry_equiv_pos_as_xyz
  x,y,z
_cell_length_a	12.759401
_cell_length_b	12.759399
_cell_length_c	12.759393
_cell_angle_alpha	90.031490
_cell_angle_beta	90.017451
_cell_angle_gamma	90.014595
loop_
_atom_site_label
_atom_site_type_symbol
_atom_site_fract_x
_atom_site_fract_y
_atom_site_fract_z
Zn1	Zn	1.606238	-0.418229	0.593985
Zn2	Zn	2.106238	0.081771	1.093985
Zn3	Zn	1.606133	-0.593949	0.418306
Zn4	Zn	2.106133	-0.093949	0.918306
Zn5	Zn	1.430543	-0.418281	0.418325
Zn6	Zn	1.930543	0.081719	0.918325
Zn7	Zn	1.430526	-0.593864	0.593948
Zn8	Zn	1.930526	-0.093864	1.093948
O9	O	1.518360	-0.506081	0.506141
O10	O	2.018360	-0.006081	1.006141
O11	O	1.753245	-0.441552	0.570689
O12	O	2.253245	0.058448	1.070689
O13	O	1.582804	-0.570703	0.271288
O14	O	2.082804	-0.070703	0.771288
O15	O	1.453900	-0.271253	0.441650
O16	O	1.953900	0.228747	0.941650
O17	O	1.753168	-0.570653	0.441619
O18	O	2.253168	-0.070653	0.941619
O19	O	1.582982	-0.271215	0.570707
O20	O	2.082982	0.228785	1.070707
O21	O	1.453799	-0.441641	0.271301
O22	O	1.953799	0.058359	0.771301
O23	O	1.283520	-0.441559	0.441613
O24	O	1.783520	0.058441	0.941613
O25	O	1.453871	-0.570508	0.740974
O26	O	1.953871	-0.070508	1.240974
O27	O	1.283507	-0.570559	0.570643
O28	O	1.783507	-0.070559	1.070643
O29	O	1.582966	-0.441470	0.741001
O30	O	2.082966	0.058530	1.241001
O31	O	1.582787	-0.740958	0.441582
O32	O	2.082787	-0.240958	0.941582
O33	O	1.453769	-0.740896	0.570625
O34	O	1.953769	-0.240896	1.070625
C35	C	1.245392	-0.506056	0.506126
C36	C	1.745392	-0.006056	1.006126
C37	C	1.128616	-0.506071	0.506145
C38	C	1.628616	-0.006071	1.006145
C39	C	1.073787	-0.438975	0.573456
C40	C	1.573787	0.061025	1.073456
C41	C	0.964063	-0.438995	0.573463
C42	C	1.464063	0.061005	1.073463
C43	C	0.964006	-0.573216	0.438844
C44	C	1.464006	-0.073216	0.938844
C45	C	1.073728	-0.573189	0.438833
C46	C	1.573728	-0.073189	0.938833
C47	C	1.073819	-0.361487	0.651181
C48	C	1.573819	0.138513	1.151181
C49	C	0.964095	-0.361507	0.651187
C50	C	1.464095	0.138493	1.151187
C51	C	1.518293	-0.779048	0.506120
C52	C	2.018293	-0.279048	1.006120
C53	C	1.518361	-0.895825	0.506147
C54	C	2.018361	-0.395825	1.006147
C55	C	1.451233	-1.060417	0.573317
C56	C	1.951233	-0.560417	1.073317
C57	C	1.451168	-0.950693	0.573292
C58	C	1.951168	-0.450693	1.073292
C59	C	1.585631	-0.950686	0.439030
C60	C	2.085631	-0.450686	0.939030
C61	C	1.585701	-1.060408	0.439061
C62	C	2.085701	-0.560408	0.939061
C63	C	1.373599	-1.060421	0.650829
C64	C	1.873599	-0.560421	1.150829
C65	C	1.373533	-0.950697	0.650804
C66	C	1.873533	-0.450697	1.150804
C67	C	1.792393	-0.506106	0.506156
C68	C	2.292393	-0.006106	1.006156
C69	C	1.909170	-0.506117	0.506163
C70	C	2.409170	-0.006117	1.006163
C71	C	1.518428	-0.505974	0.780174
C72	C	2.018428	-0.005974	1.280174
C73	C	1.518457	-0.505928	0.896951
C74	C	2.018457	-0.005928	1.396951
C75	C	1.518455	-0.232047	0.506185
C76	C	2.018455	0.267953	1.006185
C77	C	1.518496	-0.115271	0.506203
C78	C	2.018496	0.384729	1.006203
C79	C	1.518352	-0.506111	0.233174
C80	C	2.018352	-0.006111	0.733174
C81	C	1.518527	-0.505861	0.116397
C82	C	2.018527	-0.005861	0.616397
C83	C	1.451313	-0.438713	0.951826
C84	C	1.951313	0.061287	1.451826
C85	C	1.451344	-0.438682	1.061550
C86	C	1.951344	0.061318	1.561550
C87	C	1.585674	-0.573083	1.061515
C88	C	2.085674	-0.073083	1.561515
C89	C	1.585636	-0.573119	0.951793
C90	C	2.085636	-0.073119	1.451793
C91	C	1.373761	-0.361114	0.951848
C92	C	1.873761	0.138886	1.451848
C93	C	1.373793	-0.361083	1.061572
C94	C	1.873793	0.138917	1.561572
H95	H	0.930055	-0.284179	0.622187
H96	H	1.430055	0.215821	1.122187
O97	O	1.113252	-0.253664	0.622487
O98	O	1.613252	0.246336	1.122487
H99	H	1.161587	-0.222197	0.687647
H100	H	1.661587	0.277803	1.187647
H101	H	1.296345	-1.094546	0.621621
H102	H	1.796345	-0.594546	1.121621
O103	O	1.265751	-0.911359	0.621812
O104	O	1.765751	-0.411359	1.121812
H105	H	1.207786	-0.940400	0.679786
H106	H	1.707786	-0.440400	1.179786
O107	O	1.402420	-1.099753	0.758648
O108	O	1.902420	-0.599753	1.258648
H109	H	1.402441	-1.186743	0.758606
H110	H	1.902441	-0.686743	1.258606
O111	O	0.924679	-0.390511	0.758919
O112	O	1.424679	0.109489	1.258919
H113	H	0.876343	-0.462653	0.753548
H114	H	1.376343	0.037347	1.253548
H115	H	1.107882	-0.390719	0.728419
H116	H	1.607882	0.109281	1.228419
O117	O	1.658065	-0.645613	0.892612
O118	O	2.158065	-0.145613	1.392612
H119	H	1.640029	-0.728061	0.913661
H120	H	2.140029	-0.228061	1.413661
O121	O	1.658252	-1.119577	0.366681
O122	O	2.158252	-0.619577	0.866681
H123	H	1.704962	-1.062991	0.319983
H124	H	2.204962	-0.562991	0.819983
H125	H	1.118366	-0.627815	0.384012
H126	H	1.618366	-0.127815	0.884012
O127	O	1.265957	-0.389967	0.912388
O128	O	1.765957	0.110033	1.412388
H129	H	1.213210	-0.404078	0.980087
H130	H	1.713210	0.095922	1.480087
H131	H	1.640348	-0.906005	0.384366
H132	H	2.140348	-0.406005	0.884366
O133	O	1.411934	-0.905485	0.753251
O134	O	1.911934	-0.405485	1.253251
H135	H	1.432359	-0.970248	0.807583
H136	H	1.932359	-0.470248	1.307583
H137	H	1.640370	-0.627787	1.106180
H138	H	2.140370	-0.127787	1.606180
O139	O	1.412398	-0.258759	0.906773
O140	O	1.912398	0.241241	1.406773
H141	H	1.432905	-0.204462	0.971610
H142	H	1.932905	0.295538	1.471610
H143	H	1.296496	-0.390207	1.095598
H144	H	1.796496	0.109793	1.595598
O145	O	1.402865	-0.253333	1.101048
O146	O	1.902865	0.246667	1.601048
H147	H	1.402913	-0.253389	1.188038
H148	H	1.902913	0.246611	1.688038
O149	O	0.904808	-0.645610	0.366247
O150	O	1.404808	-0.145610	0.866247
H151	H	0.819299	-0.634360	0.377564
H152	H	1.319299	-0.134360	0.877564
