data_functionalizedCrystal
_audit_creation_method	'MofGen! by Chris Wilmer'
_symmetry_space_group_name_H-M	'P1'
_symmetry_Int_Tables_number	1
_symmetry_cell_setting	triclinic
loop_
_symmetry_equiv_pos_as_xyz
  x,y,z
_cell_length_a	14.446369
_cell_length_b	14.446369
_cell_length_c	20.875685
_cell_angle_alpha	61.741461
_cell_angle_beta	92.969442
_cell_angle_gamma	60.000221
loop_
_atom_site_label
_atom_site_type_symbol
_atom_site_fract_x
_atom_site_fract_y
_atom_site_fract_z
Zr1	Zr	0.885505	1.013162	-0.084159
O2	O	0.730034	1.206285	-0.186585
O3	O	0.933160	0.820046	-0.052759
O4	O	0.923149	1.013161	-0.186580
O5	O	0.747947	1.013167	0.052795
O6	O	1.075487	1.013153	-0.186576
O7	O	0.740045	1.013169	-0.052765
O8	O	1.093394	0.667704	0.052805
O9	O	0.730039	1.358616	-0.186586
O10	O	1.067178	0.899468	-0.039365
O11	O	0.959387	0.899473	0.039410
O12	O	0.947600	1.126842	-0.118147
O13	O	0.839810	1.126846	-0.039372
Zr14	Zr	1.141067	1.013145	0.084203
Zr15	Zr	1.128465	1.013148	-0.084152
Zr16	Zr	0.898107	1.013158	0.084197
Zr17	Zr	0.885513	1.256112	-0.084160
Zr18	Zr	1.141059	0.770195	0.084204
O19	O	1.093412	1.206261	0.052803
O20	O	1.075493	1.206266	-0.186577
O21	O	0.747953	1.206280	0.052795
O22	O	1.296538	0.820022	0.186630
O23	O	1.278619	0.820027	-0.052750
O24	O	0.951079	0.820041	0.186621
O25	O	1.278625	1.013140	-0.052751
O26	O	1.103423	1.013145	0.186624
O27	O	0.951085	1.013154	0.186620
O28	O	1.286527	1.013137	0.052809
O29	O	0.923161	1.358605	-0.186581
O30	O	1.103411	0.667702	0.186626
O31	O	1.296533	0.667691	0.186630
O32	O	1.286515	0.667694	0.052810
O33	O	0.740057	1.358613	-0.052766
O34	O	0.933178	1.358602	-0.052761
O35	O	1.078971	0.899465	0.118191
O36	O	1.186762	0.899460	0.039416
O37	O	1.067185	1.126834	-0.039366
O38	O	0.959394	1.126838	0.039409
C39	C	1.013276	0.709260	0.000023
C40	C	1.013273	0.606121	0.000024
C41	C	0.945284	0.566835	0.049714
C42	C	0.945633	0.459200	0.049977
C43	C	1.139554	0.371396	0.036004
C44	C	1.139173	0.478642	0.036382
C45	C	0.956005	0.653846	-0.085679
C46	C	0.953535	0.547673	-0.085551
C47	C	0.709379	1.013170	0.000014
C48	C	0.606236	1.013176	0.000012
C49	C	0.384171	1.156565	-0.049425
C50	C	0.491383	1.156662	-0.049703
C51	C	0.600197	0.941947	-0.036229
C52	C	0.492401	0.942857	-0.036592
C53	C	0.502923	0.939902	0.085753
C54	C	0.608882	0.942604	0.085618
C55	C	1.317193	1.013137	0.000030
C56	C	1.420336	1.013131	0.000033
C57	C	0.997522	1.013158	-0.210565
C58	C	0.992173	1.013159	-0.282036
C59	C	1.013296	1.317047	0.000021
C60	C	1.013299	1.420185	0.000021
C61	C	0.952995	1.013149	-0.684338
C62	C	0.958037	1.013144	-0.617182
C63	C	1.044478	1.013146	-0.583611
C64	C	1.125891	1.013141	-0.617196
C65	C	1.120853	1.013137	-0.684348
C66	C	1.068547	1.013150	-0.382773
C67	C	1.073577	1.013158	-0.315618
C68	C	0.905723	1.013158	-0.315607
C69	C	0.900690	1.013162	-0.382763
C70	C	0.982105	1.013149	-0.416340
N71	N	1.049631	1.013145	-0.514968
N72	N	0.976956	1.013141	-0.484978
C73	C	1.029049	1.013149	0.210609
C74	C	1.034399	1.013148	0.282081
C75	C	1.317183	0.709243	0.000031
C76	C	1.420322	0.606099	0.000034
C77	C	1.029040	0.709255	0.210611
C78	C	1.034386	0.606115	0.282082
C79	C	1.332946	0.709239	0.210618
C80	C	1.441436	0.606093	0.282093
C81	C	0.693626	1.317068	-0.210574
C82	C	0.585136	1.420213	-0.282048
C83	C	0.709389	1.317063	0.000013
C84	C	0.606250	1.420208	0.000010
C85	C	0.997532	1.317051	-0.210566
C86	C	0.992186	1.420191	-0.282038
C87	C	1.099319	0.557676	0.356776
C88	C	1.104339	0.460778	0.423938
C89	C	1.044432	0.412315	0.416404
C90	C	0.979491	0.460765	0.341702
C91	C	0.974465	0.557667	0.274542
C92	C	1.548660	0.557652	0.274538
C93	C	1.650606	0.460749	0.341689
C94	C	1.645326	0.412282	0.416395
C95	C	1.538091	0.460733	0.423948
C96	C	1.436147	0.557640	0.356797
C97	C	0.477912	1.468666	-0.274493
C98	C	0.375966	1.565599	-0.341645
C99	C	0.381246	1.614071	-0.416350
C100	C	0.488481	1.565615	-0.423903
C101	C	0.590425	1.468690	-0.356753
C102	C	1.052107	1.468623	-0.274479
C103	C	1.047106	1.565521	-0.341628
C104	C	0.982177	1.613992	-0.416335
C105	C	0.922254	1.565551	-0.423892
C106	C	0.927262	1.468648	-0.356744
C107	C	1.642387	0.459777	0.049466
C108	C	1.535179	0.566702	0.049747
C109	C	1.426359	0.479243	0.036274
C110	C	1.534152	0.371864	0.036633
C111	C	1.523626	0.546840	-0.085712
C112	C	1.417671	0.655314	-0.085574
H113	H	1.185208	0.278953	0.098450
Cl114	Cl	1.122437	1.626407	-0.332109
H115	H	0.985670	0.370250	0.113196
H116	H	1.157225	0.421342	0.484756
Cl117	Cl	0.904187	0.399823	0.332245
Cl118	Cl	1.221694	0.327378	-0.017213
H119	H	1.104979	1.429173	-0.213655
Cl120	Cl	1.050764	0.290491	0.500843
H121	H	1.196278	1.013135	-0.589856
H122	H	0.288661	1.605036	-0.335479
Cl123	Cl	1.555328	0.618571	0.180631
H124	H	0.869389	1.605031	-0.484728
Cl125	Cl	1.223199	1.013128	-0.726561
H126	H	1.143972	1.013161	-0.288288
H127	H	1.348845	0.597068	0.362959
Cl128	Cl	1.531473	0.399787	0.517869
H129	H	0.473591	1.429205	-0.213671
Cl130	Cl	1.209227	0.415645	0.133740
Cl131	Cl	0.892834	0.618543	0.180644
H132	H	1.737912	0.421311	0.335525
H133	H	0.978108	1.692898	-0.471005
Cl134	Cl	0.725216	1.407781	-0.366264
H135	H	0.437337	0.993478	-0.099670
Cl136	Cl	0.537433	0.780388	0.015416
Cl137	Cl	0.253075	1.735918	-0.500762
H138	H	0.878462	1.429225	-0.362910
H139	H	0.864111	0.747436	-0.115763
H140	H	0.852854	0.495746	0.025865
H141	H	1.534977	0.656050	0.025442
H142	H	1.193000	0.500891	0.002511
H143	H	0.681029	0.836446	-0.001941
H144	H	0.492766	1.605093	-0.484736
Cl145	Cl	0.792018	1.013161	-0.424967
Cl146	Cl	1.722901	0.517272	0.012127
Cl147	Cl	1.734524	0.321343	0.146509
Cl148	Cl	1.546274	0.508863	0.147378
Cl149	Cl	1.174645	0.618576	0.366268
Cl150	Cl	1.773497	0.290451	0.500806
H151	H	1.005193	0.680110	-0.122872
Cl152	Cl	1.619176	0.231740	0.134020
Cl153	Cl	1.489112	0.325610	-0.015386
Cl154	Cl	0.429189	1.010744	0.132500
H155	H	1.345526	0.501494	0.001987
Cl156	Cl	1.430291	0.419701	0.132741
H157	H	0.491430	1.212832	-0.025583
Cl158	Cl	1.415333	0.795030	-0.127379
Cl159	Cl	1.597347	0.607943	-0.132451
Cl160	Cl	0.809878	0.608591	-0.127061
Cl161	Cl	1.290843	0.704915	-0.147255
H162	H	1.134838	1.013143	-0.410107
Cl163	Cl	1.476969	0.508573	-0.142874
Cl164	Cl	0.596272	1.018331	-0.132695
Cl165	Cl	0.303658	1.243486	-0.012088
H166	H	0.852272	0.655550	0.025730
Cl167	Cl	1.021106	0.514900	-0.147493
H168	H	0.610392	0.994539	0.112692
H169	H	0.324484	1.212586	-0.112277
Cl170	Cl	1.006525	0.511452	0.146742
Cl171	Cl	0.735688	0.780963	0.147295
Cl172	Cl	0.549580	0.776763	0.142912
Cl173	Cl	0.844315	1.013155	-0.726537
Cl174	Cl	0.855700	1.013143	-0.574963
Cl175	Cl	0.480297	1.243495	-0.147332
Cl176	Cl	0.803382	1.013166	-0.273392
