data_functionalizedCrystal
_audit_creation_method	'MofGen! by Chris Wilmer'
_symmetry_space_group_name_H-M	'P1'
_symmetry_Int_Tables_number	1
_symmetry_cell_setting	triclinic
loop_
_symmetry_equiv_pos_as_xyz
  x,y,z
_cell_length_a	19.188931
_cell_length_b	19.188930
_cell_length_c	18.266242
_cell_angle_alpha	90.011475
_cell_angle_beta	89.992492
_cell_angle_gamma	96.855219
loop_
_atom_site_label
_atom_site_type_symbol
_atom_site_fract_x
_atom_site_fract_y
_atom_site_fract_z
O1	O	0.926149	-0.087169	-0.060863
O2	O	0.722838	-0.098903	-0.060871
O3	O	0.830361	0.008620	-0.060852
O4	O	0.818626	-0.194691	-0.060881
O5	O	0.830343	0.008625	0.060910
O6	O	0.722820	-0.098897	0.060891
O7	O	0.926131	-0.087163	0.060899
Zn8	Zn	0.824473	-0.093029	0.080227
Zn9	Zn	0.824496	-0.093037	-0.080199
O10	O	0.818608	-0.194686	0.060880
C11	C	0.696818	-0.098520	0.000009
C12	C	0.619313	-0.097380	0.000006
C13	C	0.829972	0.034634	0.000031
C14	C	0.828831	0.112138	0.000037
C15	C	0.952151	-0.087546	0.000017
C16	C	1.029656	-0.088687	0.000015
C17	C	1.074580	-0.025596	0.000018
C18	C	1.147403	-0.026667	0.000022
C19	C	1.175300	-0.090834	0.000009
C20	C	1.130366	-0.153933	0.000010
C21	C	1.057544	-0.152859	0.000014
N22	N	1.283301	-0.139883	-0.041448
N23	N	1.352479	-0.140898	-0.041453
C24	C	1.394709	-0.094072	0.000001
N25	N	1.365147	-0.046181	0.041451
N26	N	1.295963	-0.045163	0.041452
C27	C	1.254262	-0.092005	0.000006
C28	C	1.518597	-0.032139	0.000010
C29	C	1.591422	-0.033213	0.000018
C30	C	1.574383	-0.160480	-0.000001
C31	C	1.501560	-0.159404	-0.000002
C32	C	1.473671	-0.095231	-0.000000
C33	C	0.818997	-0.220700	-0.000004
C34	C	0.820138	-0.298204	-0.000015
N35	N	0.824461	-0.093024	0.189714
C36	C	0.891922	0.157062	0.000043
C37	C	0.890850	0.229886	0.000031
C38	C	0.826684	0.257782	0.000028
C39	C	0.763585	0.212849	0.000018
C40	C	0.764658	0.140026	0.000022
N41	N	0.777630	0.365789	0.041464
N42	N	0.776615	0.434968	0.041461
C43	C	0.823446	0.477191	0.000013
N44	N	0.871341	0.447624	-0.041423
N45	N	0.872359	0.378439	-0.041417
C46	C	0.825513	0.336745	0.000023
C47	C	0.885379	0.601079	0.000005
C48	C	0.884305	0.673904	-0.000011
C49	C	0.757038	0.656865	-0.000017
C50	C	0.758114	0.584042	-0.000008
C51	C	0.822286	0.556154	0.000007
N52	N	0.824513	-0.093037	-0.189686
C53	C	0.872088	-0.045436	0.228031
C54	C	0.872092	-0.045433	0.304676
C55	C	0.824477	-0.093030	0.343001
C56	C	0.776841	-0.140621	0.304675
C57	C	0.776834	-0.140618	0.228031
N58	N	0.815401	-0.154837	0.463325
N59	N	0.815413	-0.154837	0.536133
C60	C	0.824496	-0.093040	0.573924
N61	N	0.833582	-0.031239	0.536156
N62	N	0.833574	-0.031240	0.463341
C63	C	0.824480	-0.093038	0.426108
C64	C	0.872130	-0.045444	0.695348
C65	C	0.872130	-0.045440	0.771994
C66	C	0.776882	-0.140634	0.771991
C67	C	0.776879	-0.140632	0.695346
C68	C	0.824507	-0.093038	0.657029
H69	H	1.183987	0.024710	0.000022
H70	H	1.153084	-0.206177	0.000002
O71	O	0.923471	0.005916	0.654017
H72	H	0.915464	-0.002075	0.594284
H73	H	0.910877	-0.006680	0.335880
H74	H	1.051878	0.026658	0.000022
O75	O	0.923452	0.005905	0.186710
H76	H	0.957294	-0.023399	0.151778
O77	O	1.009083	-0.220909	0.000005
H78	H	1.040712	-0.265710	-0.000006
O79	O	0.696605	0.091571	0.000021
H80	H	0.708132	0.036247	0.000022
H81	H	0.944176	0.134360	0.000052
H82	H	0.738110	-0.179386	0.803195
H83	H	1.495889	0.020115	0.000014
O84	O	0.725486	-0.191963	0.346004
H85	H	0.733498	-0.183977	0.405737
O86	O	0.725519	-0.191967	0.654011
H87	H	0.692412	-0.225069	0.693534
H88	H	1.464981	-0.210779	-0.000009
O89	O	1.639882	0.034838	0.000026
H90	H	1.608251	0.079638	0.000023
O91	O	0.954590	0.570994	0.000004
H92	H	0.984896	0.589073	0.049627
H93	H	0.935683	0.710481	-0.000010
O94	O	1.604459	-0.229691	-0.000016
H95	H	1.662645	-0.219840	-0.000022
H96	H	0.704792	0.679578	-0.000023
H97	H	0.711340	0.235567	0.000014
H98	H	0.910911	-0.006685	0.803193
H99	H	0.942228	0.266470	0.000033
H100	H	0.738049	-0.179371	0.196833
H101	H	0.706738	0.547464	-0.000009
