data_functionalizedCrystal
_audit_creation_method	'MofGen! by Chris Wilmer'
_symmetry_space_group_name_H-M	'P1'
_symmetry_Int_Tables_number	1
_symmetry_cell_setting	triclinic
loop_
_symmetry_equiv_pos_as_xyz
  x,y,z
_cell_length_a	11.792241
_cell_length_b	10.868271
_cell_length_c	10.723024
_cell_angle_alpha	90.003962
_cell_angle_beta	95.669357
_cell_angle_gamma	90.000539
loop_
_atom_site_label
_atom_site_type_symbol
_atom_site_fract_x
_atom_site_fract_y
_atom_site_fract_z
O1	O	-1.507283	0.102181	0.171039
O2	O	-1.173949	0.435514	0.504373
O3	O	-0.840616	0.768848	0.837706
O4	O	-1.176980	0.102213	0.188667
O5	O	-0.843647	0.435547	0.522000
O6	O	-0.510314	0.768880	0.855333
O7	O	-1.349750	0.102192	-0.001743
O8	O	-1.016417	0.435525	0.331590
O9	O	-0.683084	0.768858	0.664923
O10	O	-1.334513	0.102202	0.361449
O11	O	-1.001179	0.435536	0.694783
O12	O	-0.667846	0.768869	1.028116
O13	O	-1.349736	-0.102453	-0.001751
O14	O	-1.016403	0.230881	0.331583
O15	O	-0.683069	0.564214	0.664916
O16	O	-1.176966	-0.102431	0.188659
O17	O	-0.843633	0.230902	0.521993
O18	O	-0.510299	0.564235	0.855326
O19	O	-1.507268	-0.102464	0.171032
O20	O	-1.173935	0.230870	0.504365
O21	O	-0.840602	0.564203	0.837699
Zn22	Zn	-1.342115	-0.134939	0.179844
Zn23	Zn	-1.008782	0.198394	0.513178
Zn24	Zn	-0.675448	0.531727	0.846511
Zn25	Zn	-1.342134	0.134689	0.179854
Zn26	Zn	-1.008801	0.468022	0.513188
Zn27	Zn	-0.675467	0.801356	0.846521
O28	O	-1.334498	-0.102442	0.361442
O29	O	-1.001165	0.230891	0.694775
O30	O	-0.667832	0.564224	1.028109
C31	C	-1.134680	-0.000105	0.187556
C32	C	-0.801346	0.333228	0.520889
C33	C	-0.468013	0.666562	0.854222
C34	C	-1.008659	-0.000093	0.184242
C35	C	-0.675325	0.333241	0.517575
C36	C	-0.341992	0.666574	0.850908
N37	N	-1.342110	-0.318953	0.179837
N38	N	-1.008777	0.014380	0.513170
N39	N	-0.675444	0.347713	0.846504
C40	C	-0.777933	-0.000125	0.178147
C41	C	-0.444600	0.333208	0.511481
C42	C	-0.111267	0.666541	0.844814
C43	C	-0.906326	-0.000107	0.181533
C44	C	-0.572993	0.333226	0.514867
C45	C	-0.239659	0.666559	0.848200
C46	C	-1.342128	-0.569959	0.179852
C47	C	-1.008795	-0.236626	0.513185
C48	C	-0.675461	0.096707	0.846518
C49	C	-1.342114	-0.430282	0.179847
C50	C	-1.008781	-0.096949	0.513180
C51	C	-0.675448	0.236385	0.846514
C52	C	-0.549569	-0.000140	0.172143
C53	C	-0.216236	0.333194	0.505476
C54	C	0.117098	0.666527	0.838810
C55	C	-0.675590	-0.000135	0.175457
C56	C	-0.342257	0.333198	0.508790
C57	C	-0.008923	0.666532	0.842124
C58	C	-1.348634	-0.000129	-0.048244
C59	C	-1.015301	0.333204	0.285090
C60	C	-0.681968	0.666538	0.618423
C61	C	-1.345317	-0.000124	-0.186789
C62	C	-1.011983	0.333209	0.146544
C63	C	-0.678650	0.666542	0.479878
N64	N	-1.342147	0.318703	0.179852
N65	N	-1.008814	0.652036	0.513185
N66	N	-0.675481	0.985370	0.846519
C67	C	-1.441990	-0.000132	-0.262028
C68	C	-1.108656	0.333201	0.071306
C69	C	-0.775323	0.666535	0.404639
C70	C	-1.438563	-0.000127	-0.405222
C71	C	-1.105230	0.333206	-0.071889
C72	C	-0.771896	0.666539	0.261445
C73	C	-1.335614	-0.000119	0.407942
C74	C	-1.002281	0.333215	0.741276
C75	C	-0.668948	0.666548	1.074609
C76	C	-1.338932	-0.000115	0.546488
C77	C	-1.005599	0.333218	0.879821
C78	C	-0.672265	0.666551	1.213154
H79	H	-1.521323	-0.000139	-0.469874
H80	H	-1.187989	0.333194	-0.136540
H81	H	-0.854656	0.666527	0.196793
H82	H	-1.260014	-0.000108	-0.228386
H83	H	-0.926681	0.333225	0.104948
H84	H	-0.593348	0.666559	0.438281
H85	H	-1.256168	-0.000117	-0.388868
H86	H	-0.922835	0.333216	-0.055535
H87	H	-0.589501	0.666550	0.277799
H88	H	-1.527292	-0.000148	-0.220431
H89	H	-1.193959	0.333185	0.112902
H90	H	-0.860625	0.666519	0.446235
