data_functionalizedCrystal
_audit_creation_method	'MofGen! by Chris Wilmer'
_symmetry_space_group_name_H-M	'P1'
_symmetry_Int_Tables_number	1
_symmetry_cell_setting	triclinic
loop_
_symmetry_equiv_pos_as_xyz
  x,y,z
_cell_length_a	15.500235
_cell_length_b	15.944551
_cell_length_c	15.944551
_cell_angle_alpha	96.501262
_cell_angle_beta	87.159693
_cell_angle_gamma	87.173474
loop_
_atom_site_label
_atom_site_type_symbol
_atom_site_fract_x
_atom_site_fract_y
_atom_site_fract_z
O1	O	0.071855	-1.118411	0.104424
O2	O	0.571855	-0.618411	0.604424
O3	O	0.071877	-0.873863	0.117779
O4	O	0.571877	-0.373863	0.617779
O5	O	0.071858	-1.002815	-0.011173
O6	O	0.571858	-0.502815	0.488827
O7	O	0.071875	-0.989459	0.233376
O8	O	0.571875	-0.489459	0.733376
O9	O	-0.072030	-0.995020	-0.003351
O10	O	0.427970	-0.495020	0.496649
O11	O	-0.072010	-0.866068	0.125601
O12	O	0.427990	-0.366068	0.625601
O13	O	-0.072032	-1.110616	0.112246
O14	O	0.427968	-0.610616	0.612246
Cu15	Cu	-0.085159	-0.987630	0.119638
Cu16	Cu	0.414841	-0.487630	0.619638
Cu17	Cu	0.085004	-0.996849	0.110387
Cu18	Cu	0.585004	-0.496849	0.610387
O19	O	-0.072013	-0.981664	0.241198
O20	O	0.427987	-0.481664	0.741198
C21	C	-0.000064	-0.838672	0.121135
C22	C	0.499936	-0.338672	0.621135
C23	C	-0.000056	-0.745426	0.119473
C24	C	0.499944	-0.245426	0.619473
C25	C	-0.000086	-0.998363	-0.038556
C26	C	0.499914	-0.498363	0.461444
C27	C	-0.000086	-0.996700	-0.131802
C28	C	0.499914	-0.496700	0.368198
N29	N	-0.204843	-0.981153	0.126144
N30	N	0.295157	-0.481153	0.626144
C31	C	-0.750026	-0.948679	0.158501
C32	C	-0.250026	-0.448679	0.658501
C33	C	-0.659454	-0.953596	0.153597
C34	C	-0.159454	-0.453596	0.653597
C35	C	-0.614170	-1.013172	0.094069
C36	C	-0.114170	-0.513172	0.594069
C37	C	-0.659462	-1.067829	0.039436
C38	C	-0.159462	-0.567829	0.539436
C39	C	-0.750032	-1.062907	0.044337
C40	C	-0.250032	-0.562907	0.544337
C41	C	-0.340706	-1.030887	0.076412
C42	C	0.159294	-0.530887	0.576412
C43	C	-0.250129	-1.035807	0.071517
C44	C	0.249871	-0.535807	0.571517
C45	C	-0.250127	-0.921573	0.185677
C46	C	0.249873	-0.421573	0.685677
C47	C	-0.340699	-0.916660	0.190577
C48	C	0.159301	-0.416660	0.690577
C49	C	-0.385984	-0.971313	0.135941
C50	C	0.114016	-0.471313	0.635941
C51	C	-0.521591	-1.018202	0.089056
C52	C	-0.021591	-0.518202	0.589056
C53	C	-0.478561	-0.966279	0.140950
C54	C	0.021439	-0.466279	0.640950
N55	N	0.204688	-1.003333	0.103874
N56	N	0.704688	-0.503333	0.603874
C57	C	-0.000089	-1.145808	0.108889
C58	C	0.499911	-0.645808	0.608889
C59	C	-0.000092	-1.239054	0.110552
C60	C	0.499908	-0.739054	0.610552
C61	C	-0.000078	-0.530568	0.035569
C62	C	0.499922	-0.030568	0.535569
C63	C	0.070868	-0.473391	0.070675
C64	C	0.570868	0.026609	0.570675
C65	C	-0.000066	-0.574699	0.116466
C66	C	0.499934	-0.074699	0.616466
C67	C	-0.070993	-0.465728	0.078406
C68	C	0.429007	0.034272	0.578406
C69	C	-0.000080	-0.409786	0.113556
C70	C	0.499920	0.090214	0.613556
C71	C	0.070939	-0.518754	0.151590
C72	C	0.570939	-0.018754	0.651590
C73	C	-0.070986	-0.511094	0.159314
C74	C	0.429014	-0.011094	0.659314
C75	C	-0.000022	-0.453936	0.194477
C76	C	0.499978	0.046064	0.694477
C77	C	-0.000058	-0.669702	0.118140
C78	C	0.499942	-0.169702	0.618140
C79	C	-0.000083	-0.314785	0.111888
C80	C	0.499917	0.185215	0.611888
C81	C	-0.000067	-0.912797	-0.346660
C82	C	0.499933	-0.412797	0.153340
C83	C	-0.071016	-0.947916	-0.403820
C84	C	0.428984	-0.447916	0.096180
C85	C	-0.000079	-0.993694	-0.302528
C86	C	0.499921	-0.493694	0.197472
C87	C	0.070846	-0.955620	-0.411516
C88	C	0.570846	-0.455620	0.088484
C89	C	-0.000069	-0.990783	-0.467441
C90	C	0.499931	-0.490783	0.032559
C91	C	-0.071087	-1.028831	-0.358457
C92	C	0.428913	-0.528831	0.141543
C93	C	0.070839	-1.036528	-0.366150
C94	C	0.570839	-0.536528	0.133850
C95	C	-0.000127	-1.071705	-0.423291
C96	C	0.499873	-0.571705	0.076709
C97	C	-0.000086	-0.995368	-0.207526
C98	C	0.499914	-0.495368	0.292474
C99	C	-0.000068	-0.989115	-0.562443
C100	C	0.499932	-0.489115	-0.062443
C101	C	-0.000067	-0.986117	0.268581
C102	C	0.499933	-0.486117	0.768581
C103	C	-0.000061	-0.987779	0.361826
C104	C	0.499939	-0.487779	0.861826
H105	H	-0.786890	-0.900170	0.206979
H106	H	-0.286890	-0.400170	0.706979
N107	N	-0.201290	-0.862620	0.244599
N108	N	0.298710	-0.362620	0.744599
H109	H	-0.163729	-0.896750	0.279784
H110	H	0.336271	-0.396750	0.779784
H111	H	-0.163746	-0.827487	0.210382
H112	H	0.336254	-0.327487	0.710382
H113	H	-0.130965	-0.527976	0.196762
H114	H	0.369035	-0.027976	0.696762
H115	H	0.000022	-0.420780	0.261682
H116	H	0.500022	0.079220	0.761682
H117	H	-0.130971	-0.442393	0.047436
H118	H	0.369029	0.057607	0.547436
N119	N	0.150288	-1.086111	-0.343797
N120	N	0.650288	-0.586111	0.156203
H121	H	0.149392	-1.087322	-0.280565
H122	H	0.649392	-0.587322	0.219435
H123	H	0.150808	-1.145804	-0.372890
H124	H	0.650808	-0.645804	0.127110
N125	N	-0.201306	-1.100052	0.007277
N126	N	0.298694	-0.600052	0.507277
H127	H	-0.163720	-1.069983	-0.031963
H128	H	0.336280	-0.569983	0.468037
H129	H	-0.163789	-1.139282	0.037403
H130	H	0.336211	-0.639282	0.537403
H131	H	0.000005	-0.563905	-0.031573
H132	H	0.500005	-0.063905	0.468427
N133	N	0.150293	-0.914588	-0.442452
N134	N	0.650293	-0.414588	0.057548
H135	H	0.150231	-0.854568	-0.414283
H136	H	0.650231	-0.354568	0.085717
H137	H	0.203832	-0.947500	-0.428050
H138	H	0.703832	-0.447500	0.071950
H139	H	0.130844	-0.456530	0.033198
H140	H	0.630844	0.043470	0.533198
N141	N	-0.000177	-1.160719	-0.467222
N142	N	0.499823	-0.660719	0.032778
H143	H	-0.000713	-1.202054	-0.423677
H144	H	0.499287	-0.702054	0.076323
H145	H	-0.053269	-1.166723	-0.501196
H146	H	0.446731	-0.666723	-0.001196
N147	N	-0.000142	-0.823850	-0.302535
N148	N	0.499858	-0.323850	0.197465
H149	H	-0.053780	-0.790495	-0.315997
H150	H	0.446220	-0.290495	0.184003
H151	H	0.000440	-0.825697	-0.239458
H152	H	0.500440	-0.325697	0.260542
H153	H	-0.130991	-0.910451	-0.420668
H154	H	0.369009	-0.410451	0.079332
N155	N	0.150479	-0.549529	0.192555
N156	N	0.650479	-0.049529	0.692555
H157	H	0.150007	-0.612748	0.193399
H158	H	0.650007	-0.112748	0.693399
H159	H	0.203951	-0.535479	0.159297
H160	H	0.703951	-0.035479	0.659297
N161	N	-0.527403	-0.902021	0.205148
N162	N	-0.027403	-0.402021	0.705148
H163	H	-0.565000	-0.932077	0.244391
H164	H	-0.065000	-0.432077	0.744391
H165	H	-0.484922	-0.868159	0.238956
H166	H	0.015078	-0.368159	0.738956
N167	N	-0.150626	-1.069812	-0.327664
N168	N	0.349374	-0.569812	0.172336
H169	H	-0.150153	-1.070656	-0.264445
H170	H	0.349847	-0.570656	0.235555
H171	H	-0.204099	-1.036564	-0.341701
H172	H	0.295901	-0.536564	0.158299
H173	H	-0.622582	-0.909092	0.198078
H174	H	-0.122582	-0.409092	0.698078
H175	H	-0.377568	-0.868148	0.239049
H176	H	0.122432	-0.368148	0.739049
H177	H	-0.377569	-1.075390	0.031927
H178	H	0.122431	-0.575390	0.531927
H179	H	-0.622586	-1.116334	-0.009038
H180	H	-0.122586	-0.616334	0.490962
H181	H	-0.484713	-1.066711	0.040588
H182	H	0.015287	-0.566711	0.540588
N183	N	-0.798881	-1.121855	-0.014581
N184	N	-0.298881	-0.621855	0.485419
H185	H	-0.756452	-1.160346	-0.053033
H186	H	-0.256452	-0.660346	0.446967
H187	H	-0.836477	-1.156940	0.019640
H188	H	-0.336477	-0.656940	0.519640
