data_functionalizedCrystal
_audit_creation_method	'MofGen! by Chris Wilmer'
_symmetry_space_group_name_H-M	'P1'
_symmetry_Int_Tables_number	1
_symmetry_cell_setting	triclinic
loop_
_symmetry_equiv_pos_as_xyz
  x,y,z
_cell_length_a	12.759401
_cell_length_b	12.759393
_cell_length_c	17.077402
_cell_angle_alpha	89.964187
_cell_angle_beta	90.022047
_cell_angle_gamma	89.980326
loop_
_atom_site_label
_atom_site_type_symbol
_atom_site_fract_x
_atom_site_fract_y
_atom_site_fract_z
Zn1	Zn	1.606195	-0.593985	-0.312479
Zn2	Zn	1.606065	-0.418292	-0.443768
Zn3	Zn	1.430497	-0.418321	-0.312518
Zn4	Zn	1.430461	-0.593930	-0.443705
O5	O	1.518304	-0.506132	-0.378117
O6	O	1.753199	-0.570690	-0.329905
O7	O	1.582736	-0.271275	-0.426400
O8	O	1.453874	-0.441658	-0.202666
O9	O	1.753103	-0.441609	-0.426362
O10	O	1.582958	-0.570718	-0.202637
O11	O	1.453747	-0.271296	-0.329971
O12	O	1.283471	-0.441604	-0.329910
O13	O	1.453812	-0.740958	-0.426255
O14	O	1.283445	-0.570624	-0.426293
O15	O	1.582923	-0.740999	-0.329844
O16	O	1.582700	-0.441556	-0.553606
O17	O	1.453685	-0.570596	-0.553560
C18	C	1.245337	-0.506112	-0.378099
C19	C	1.128560	-0.506128	-0.378111
C20	C	1.073682	-0.439071	-0.327858
C21	C	0.963958	-0.439084	-0.327877
C22	C	0.964001	-0.573222	-0.428402
C23	C	1.073723	-0.573202	-0.428386
C24	C	0.813950	-0.315274	-0.299741
C25	C	0.759068	-0.248226	-0.249477
C26	C	0.794691	-0.232274	-0.172864
C27	C	0.885195	-0.283386	-0.146500
C28	C	0.940072	-0.350442	-0.196760
C29	C	0.904450	-0.366374	-0.273384
C30	C	1.223732	-0.697014	-0.456514
C31	C	1.278611	-0.764076	-0.506771
C32	C	1.242990	-0.780038	-0.583385
C33	C	1.152483	-0.728945	-0.609746
C34	C	1.097604	-0.661883	-0.559489
C35	C	1.133232	-0.645919	-0.482876
C36	C	1.518378	-0.780165	-0.378038
C37	C	1.518409	-0.896942	-0.378004
C38	C	1.451269	-0.951814	-0.327785
C39	C	1.451293	-1.061539	-0.327760
C40	C	1.585607	-1.061508	-0.428178
C41	C	1.585577	-0.951786	-0.428205
C42	C	1.327448	-1.211492	-0.299666
C43	C	1.260317	-1.266368	-0.249434
C44	C	1.244228	-1.230786	-0.172848
C45	C	1.295284	-1.140329	-0.146478
C46	C	1.362423	-1.085459	-0.196706
C47	C	1.378493	-1.121039	-0.273303
C48	C	1.709423	-0.801831	-0.456291
C49	C	1.776568	-0.746959	-0.506516
C50	C	1.792668	-0.782539	-0.583103
C51	C	1.741630	-0.872999	-0.609470
C52	C	1.674485	-0.927871	-0.559246
C53	C	1.658383	-0.892284	-0.482659
C54	C	1.792338	-0.506153	-0.378136
C55	C	1.909114	-0.506161	-0.378144
C56	C	1.518203	-0.506090	-0.582065
C57	C	1.518256	-0.506107	-0.669315
C58	C	1.518292	-0.233164	-0.378140
C59	C	1.518464	-0.116388	-0.377952
C60	C	1.585503	-0.438988	-0.710303
C61	C	1.585554	-0.439015	-0.792284
C62	C	1.518352	-0.506156	-0.833274
C63	C	1.451103	-0.573283	-0.792281
C64	C	1.451057	-0.573260	-0.710302
C65	C	1.451200	-0.573323	-0.963151
C66	C	1.451244	-0.573344	-1.045135
C67	C	1.585697	-0.439077	-1.045132
C68	C	1.585651	-0.439055	-0.963154
C69	C	1.518400	-0.506180	-0.922165
C70	C	1.518435	-0.506197	-0.173373
C71	C	1.518490	-0.506225	-0.086123
H72	H	1.023905	-0.620283	-0.580958
H73	H	1.218747	-1.340018	-0.270912
F74	F	1.344550	-1.249357	-0.381183
F75	F	1.657174	-0.367594	-0.919530
H76	H	0.784944	-0.328244	-0.362128
H77	H	1.396440	-0.627987	-0.929781
F78	F	1.379587	-0.644746	-0.835908
H79	H	0.685379	-0.206610	-0.270950
F80	F	1.114565	-0.745937	-0.691286
H81	H	1.118327	-0.384457	-0.286919
F82	F	1.036387	-0.404836	-0.168707
H83	H	1.640459	-0.384424	-1.078509
F84	F	1.657089	-1.119886	-0.481601
H85	H	1.396299	-0.627917	-0.676930
F86	F	0.923091	-0.266419	-0.064953
F87	F	1.379780	-0.893449	-0.274358
H88	H	1.396542	-0.628036	-1.078508
H89	H	1.696290	-0.772832	-0.393936
H90	H	0.749998	-0.177681	-0.131939
H91	H	1.640221	-0.384309	-0.676934
F92	F	1.301404	-0.851411	-0.636872
H93	H	1.189568	-1.275474	-0.131949
F94	F	0.905630	-0.644597	-0.481910
H95	H	1.352292	-0.805701	-0.485294
H96	H	1.252749	-0.684015	-0.394130
F97	F	1.416760	-0.989195	-0.168646
H98	H	1.282188	-1.111372	-0.084111
H99	H	1.847354	-0.737857	-0.623992
F100	F	1.758770	-0.910874	-0.690982
F101	F	1.620165	-1.024149	-0.587310
H102	H	1.640312	-0.384359	-0.825652
H103	H	1.818137	-0.673309	-0.485037
