data_functionalizedCrystal
_audit_creation_method	'MofGen! by Chris Wilmer'
_symmetry_space_group_name_H-M	'P1'
_symmetry_Int_Tables_number	1
_symmetry_cell_setting	triclinic
loop_
_symmetry_equiv_pos_as_xyz
  x,y,z
_cell_length_a	14.971498
_cell_length_b	17.019448
_cell_length_c	13.448316
_cell_angle_alpha	93.868236
_cell_angle_beta	89.993829
_cell_angle_gamma	83.510641
loop_
_atom_site_label
_atom_site_type_symbol
_atom_site_fract_x
_atom_site_fract_y
_atom_site_fract_z
O1	O	1.186692	0.102842	-0.073883
O2	O	0.926264	0.115142	-0.072836
O3	O	1.063735	-0.005830	-0.083173
O4	O	1.049222	0.223814	-0.063546
O5	O	1.063718	-0.005837	0.082211
O6	O	0.926247	0.115135	0.092547
O7	O	1.186675	0.102834	0.091500
Cu8	Cu	1.056459	0.108984	0.107124
Cu9	Cu	1.056480	0.108993	-0.088460
O10	O	1.049204	0.223806	0.101837
C11	C	0.892932	0.114587	0.009808
C12	C	0.793640	0.112933	0.009665
C13	C	1.063173	-0.035222	-0.002995
C14	C	1.061514	-0.122791	-0.010485
C15	C	1.052211	-0.618073	-0.057480
C16	C	1.053761	-0.535791	-0.050422
C17	C	1.054520	-0.494670	0.043258
C18	C	1.053737	-0.535836	0.129885
C19	C	1.052193	-0.618117	0.122826
C20	C	1.059187	-0.246238	0.069082
C21	C	1.060728	-0.163951	0.076135
C22	C	1.060754	-0.163912	-0.104172
C23	C	1.059205	-0.246193	-0.111223
C24	C	1.058427	-0.287353	-0.024596
C25	C	1.056102	-0.410565	0.050475
C26	C	1.056851	-0.371457	-0.031814
C27	C	1.220007	0.103390	0.008854
C28	C	1.319300	0.105043	0.008991
C29	C	1.365951	0.105825	-0.081094
C30	C	1.459248	0.107372	-0.080963
C31	C	1.505891	0.108143	0.009254
C32	C	1.459233	0.107359	0.099346
C33	C	1.365938	0.105806	0.099214
C34	C	1.653687	0.110597	0.099616
C35	C	1.746988	0.112151	0.099750
C36	C	1.746997	0.112163	-0.080560
C37	C	1.653703	0.110610	-0.080693
C38	C	1.607051	0.109828	0.009399
C39	C	1.049766	0.253199	0.021657
C40	C	1.051426	0.340768	0.029141
N41	N	1.056452	0.108977	0.244688
N42	N	1.056495	0.108993	-0.226025
C43	C	1.117343	0.055433	0.292153
C44	C	1.117348	0.055432	0.396257
C45	C	1.056466	0.108980	0.452893
C46	C	0.995569	0.162527	0.405421
C47	C	0.995560	0.162523	0.301319
C48	C	0.995594	0.162532	0.622401
C49	C	0.995604	0.162537	0.726510
C50	C	1.117382	0.055441	0.717339
C51	C	1.117373	0.055438	0.613237
C52	C	1.056476	0.108986	0.565772
H53	H	1.051585	-0.651546	-0.133764
C54	C	1.314654	0.104976	-0.180343
N55	N	1.276019	0.104333	-0.255100
C56	C	0.928582	0.221433	0.249109
N57	N	0.878133	0.265805	0.209786
H58	H	1.054402	-0.502283	-0.120957
C59	C	1.314621	0.104949	0.198314
N60	N	1.275971	0.104303	0.272960
C61	C	1.058468	-0.291432	-0.214279
N62	N	1.057946	-0.325509	-0.291903
C63	C	0.928595	0.221430	0.570192
N64	N	0.878132	0.265791	0.530868
C65	C	1.798317	0.113020	-0.179663
N66	N	1.836974	0.113668	-0.254305
H67	H	1.054361	-0.502349	0.206161
H68	H	0.945993	0.206124	0.451540
H69	H	1.166923	0.011831	0.246047
H70	H	1.051553	-0.651628	0.193362
H71	H	1.497229	0.108004	-0.154320
H72	H	1.061388	-0.130391	-0.174699
H73	H	1.056238	-0.404942	-0.108088
H74	H	1.166966	0.011841	0.755991
H75	H	0.946027	0.206141	0.772619
C76	C	1.602398	0.109759	-0.179937
N77	N	1.563757	0.109113	-0.254690
H78	H	1.061319	-0.130469	0.152425
H79	H	1.058555	-0.279739	0.139620
H80	H	1.166952	0.011839	0.567124
H81	H	1.056718	-0.377075	0.126749
H82	H	1.784961	0.112783	0.173213
H83	H	1.615705	0.109969	0.172980
C84	C	1.184312	-0.003490	0.448462
N85	N	1.234743	-0.047880	0.487781
C86	C	1.510538	0.108240	0.198590
N87	N	1.549178	0.108919	0.273343
