data_functionalizedCrystal
_audit_creation_method	'MofGen! by Chris Wilmer'
_symmetry_space_group_name_H-M	'P1'
_symmetry_Int_Tables_number	1
_symmetry_cell_setting	triclinic
loop_
_symmetry_equiv_pos_as_xyz
  x,y,z
_cell_length_a	10.908937
_cell_length_b	19.188930
_cell_length_c	9.483334
_cell_angle_alpha	99.313747
_cell_angle_beta	83.047418
_cell_angle_gamma	71.615368
loop_
_atom_site_label
_atom_site_type_symbol
_atom_site_fract_x
_atom_site_fract_y
_atom_site_fract_z
O1	O	1.684352	-0.094634	0.120911
O2	O	1.310184	-0.040078	0.120916
O3	O	1.508070	-0.170251	0.120885
O4	O	1.486466	0.035538	0.120942
O5	O	1.548233	-0.196775	-0.120897
O6	O	1.350347	-0.066602	-0.120866
O7	O	1.724515	-0.121158	-0.120870
Cu8	Cu	1.541098	-0.096302	-0.142945
Cu9	Cu	1.493601	-0.064934	0.142990
O10	O	1.526628	0.009014	-0.120840
C11	C	1.282396	-0.048241	0.000025
C12	C	1.139759	-0.033058	0.000025
C13	C	0.943638	-0.072773	0.000040
C14	C	1.091064	-0.088470	0.000018
C15	C	1.527453	-0.209444	-0.000010
C16	C	1.525356	-0.286710	-0.000022
C17	C	1.641468	-0.344923	-0.000031
C18	C	1.639491	-0.417518	-0.000007
C19	C	1.521402	-0.431900	-0.000005
C20	C	1.405274	-0.373674	0.000011
C21	C	1.407251	-0.301079	0.000003
N22	N	1.444805	-0.538601	-0.082287
N23	N	1.442935	-0.607565	-0.082282
C24	C	1.515438	-0.650623	0.000024
N25	N	1.589903	-0.622118	0.082307
N26	N	1.591778	-0.553148	0.082295
C27	C	1.519245	-0.510615	0.000005
C28	C	1.629414	-0.787554	0.000044
C29	C	1.627432	-0.860149	0.000076
C30	C	1.393213	-0.816305	0.000080
C31	C	1.395197	-0.743710	0.000062
C32	C	1.513302	-0.729341	0.000037
C33	C	1.752303	-0.112994	0.000024
C34	C	1.894938	-0.128177	0.000033
C35	C	1.507245	0.048208	0.000059
C36	C	1.509341	0.125475	0.000081
N37	N	1.574514	-0.118366	-0.344056
C38	C	1.503442	-0.071441	-0.416274
C39	C	1.531278	-0.089809	-0.583684
N40	N	1.460195	-0.042877	0.344101
H41	H	0.962386	-0.187230	0.000019
H42	H	1.158509	-0.147527	0.000004
H43	H	1.737637	-0.333229	-0.000046
O44	O	1.362864	0.021254	-0.581981
C45	C	1.241769	0.020774	-0.619064
H46	H	1.260227	-0.018220	-0.729619
H47	H	1.187882	0.000037	-0.533449
C48	C	1.134681	0.148828	-0.490094
C49	C	1.157351	0.100941	-0.625886
H50	H	1.082604	0.198279	-0.494296
H51	H	1.216263	0.149152	-0.465105
H52	H	1.089780	0.131539	-0.418762
H53	H	1.202266	0.118225	-0.697211
H54	H	1.075774	0.100622	-0.650887
O55	O	1.282397	-0.687107	0.000312
C56	C	1.255749	-0.630046	0.125509
H57	H	1.307069	-0.654752	0.213033
H58	H	1.293410	-0.584025	0.097190
C59	C	1.043407	-0.566165	0.074794
C60	C	1.106431	-0.596511	0.182296
H61	H	0.951301	-0.545475	0.109821
H62	H	1.061361	-0.604606	-0.009557
H63	H	1.074805	-0.527818	0.051205
H64	H	1.075045	-0.634863	0.205871
H65	H	1.088468	-0.558075	0.266653
O66	O	1.628378	-0.154039	-0.657603
C67	C	1.601369	-0.216641	-0.620572
H68	H	1.533542	-0.198676	-0.510033
H69	H	1.551567	-0.240067	-0.706222
C70	C	1.814070	-0.299710	-0.749509
C71	C	1.730773	-0.277647	-0.613737
H72	H	1.893892	-0.337344	-0.745299
H73	H	1.832265	-0.257535	-0.774463
H74	H	1.772553	-0.319228	-0.820870
H75	H	1.772284	-0.258121	-0.542383
H76	H	1.712588	-0.319820	-0.588771
H77	H	1.655974	-0.172138	-0.406164
H78	H	1.421991	-0.017665	-0.354168
O79	O	1.744119	-0.773593	0.000300
C80	C	1.794083	-0.790931	0.125512
H81	H	1.710477	-0.788453	0.213032
H82	H	1.870662	-0.849844	0.097215
C83	C	1.960840	-0.736680	0.074794
C84	C	1.858152	-0.733630	0.182292
H85	H	2.000366	-0.701336	0.109816
H86	H	1.927182	-0.725001	-0.009567
H87	H	2.024642	-0.785777	0.051222
H88	H	1.794345	-0.684536	0.205848
H89	H	1.891801	-0.745299	0.266658
O90	O	1.290487	-0.387576	0.000270
C91	C	1.198921	-0.342742	0.125476
H92	H	1.253448	-0.326003	0.212993
H93	H	1.131749	-0.290043	0.097167
C94	C	1.049008	-0.408125	0.074774
C95	C	1.115980	-0.387572	0.182269
H96	H	0.997841	-0.435776	0.109805
H97	H	1.110695	-0.438329	-0.009583
H98	H	0.993042	-0.364205	0.051194
H99	H	1.171956	-0.431492	0.205834
H100	H	1.054300	-0.357376	0.266631
H101	H	0.876186	-0.013718	0.000072
H102	H	1.072313	0.026001	0.000051
O103	O	1.278621	-0.830401	0.000025
C104	C	1.301764	-0.906954	0.000077
H105	H	1.409738	-0.940735	-0.045703
H106	H	1.276390	-0.913777	0.116078
C107	C	1.082850	-0.894233	-0.038493
C108	C	1.215463	-0.935726	-0.094733
H109	H	1.029612	-0.911981	-0.096970
H110	H	1.067255	-0.842658	-0.038523
H111	H	1.061723	-0.899923	0.058174
H112	H	1.236591	-0.930027	-0.191390
H113	H	1.231059	-0.987301	-0.094722
H114	H	1.312696	-0.253679	0.000009
H115	H	1.734045	-0.464924	-0.000008
H116	H	1.721986	-0.907547	0.000077
