data_functionalizedCrystal
_audit_creation_method	'MofGen! by Chris Wilmer'
_symmetry_space_group_name_H-M	'P1'
_symmetry_Int_Tables_number	1
_symmetry_cell_setting	triclinic
loop_
_symmetry_equiv_pos_as_xyz
  x,y,z
_cell_length_a	21.295420
_cell_length_b	21.295417
_cell_length_c	12.759393
_cell_angle_alpha	90.038123
_cell_angle_beta	90.021739
_cell_angle_gamma	90.025484
loop_
_atom_site_label
_atom_site_type_symbol
_atom_site_fract_x
_atom_site_fract_y
_atom_site_fract_z
Zn1	Zn	0.962341	-0.250643	0.594024
Zn2	Zn	0.962250	-0.355927	0.418324
Zn3	Zn	0.857070	-0.250668	0.418354
Zn4	Zn	0.857035	-0.355870	0.593956
O5	O	0.909674	-0.303277	0.506165
O6	O	1.050418	-0.264622	0.570734
O7	O	0.948274	-0.341998	0.271307
O8	O	0.871087	-0.162575	0.441698
O9	O	1.050352	-0.341974	0.441648
O10	O	0.948429	-0.162557	0.570762
O11	O	0.870998	-0.264665	0.271329
O12	O	0.768976	-0.264610	0.441631
O13	O	0.871028	-0.341878	0.740986
O14	O	0.768950	-0.341902	0.570645
O15	O	0.948396	-0.264567	0.741036
O16	O	0.948241	-0.444009	0.441581
O17	O	0.870940	-0.443967	0.570617
C18	C	0.746122	-0.303253	0.506135
C19	C	0.676154	-0.303258	0.506147
C20	C	0.176730	-0.263095	0.573505
C21	C	0.242473	-0.263090	0.573504
C22	C	0.275315	-0.303296	0.506189
C23	C	0.242409	-0.343521	0.438888
C24	C	0.176668	-0.343529	0.438897
N25	N	0.378508	-0.308049	0.414194
N26	N	0.440959	-0.308037	0.414188
C27	C	0.473390	-0.303275	0.506158
N28	N	0.441010	-0.298513	0.598136
N29	N	0.378552	-0.298521	0.598141
C30	C	0.346600	-0.303292	0.506172
C31	C	0.577573	-0.263051	0.573460
C32	C	0.643317	-0.263051	0.573462
C33	C	0.643252	-0.343478	0.438836
C34	C	0.577509	-0.343482	0.438843
C35	C	0.544674	-0.303265	0.506154
C36	C	0.909594	-0.466829	0.506111
C37	C	0.909617	-0.536797	0.506124
C38	C	0.949866	-0.569597	0.573376
C39	C	0.949889	-0.635339	0.573401
C40	C	0.909668	-0.668279	0.506157
C41	C	0.869411	-0.635471	0.438900
C42	C	0.869386	-0.569730	0.438884
N43	N	0.904911	-0.771548	0.414210
N44	N	0.904939	-0.833999	0.414229
C45	C	0.909742	-0.866354	0.506204
N46	N	0.914527	-0.833898	0.598162
N47	N	0.914503	-0.771440	0.598143
C48	C	0.909691	-0.739565	0.506168
C49	C	0.950017	-0.970439	0.573490
C50	C	0.950035	-1.036183	0.573518
C51	C	0.869561	-1.036314	0.439007
C52	C	0.869540	-0.970572	0.438989
C53	C	0.909771	-0.937638	0.506229
C54	C	1.073864	-0.303302	0.506195
C55	C	1.143832	-0.303312	0.506208
C56	C	0.909718	-0.303214	0.780198
C57	C	0.909737	-0.303186	0.896975
C58	C	0.909772	-0.139087	0.506241
C59	C	0.909813	-0.069119	0.506273
C60	C	0.909666	-0.303295	0.233197
C61	C	0.909770	-0.303145	0.116421
C62	C	0.950028	-0.262927	0.951865
C63	C	0.950043	-0.262904	1.061589
C64	C	0.869474	-0.343406	1.061523
C65	C	0.869457	-0.343425	0.951801
C66	C	0.990308	-0.222689	0.897038
C67	C	1.030603	-0.182427	0.951928
C68	C	1.030618	-0.182404	1.061652
C69	C	0.990338	-0.222643	1.116486
H70	H	0.669991	-0.376220	0.384034
H71	H	0.836680	-0.376166	1.106178
N72	N	0.993252	-0.534076	0.645902
H73	H	1.018752	-0.564834	0.688513
H74	H	0.967600	-0.506799	0.694478
N75	N	0.826000	-0.386845	0.892589
H76	H	0.800489	-0.412337	0.943969
H77	H	0.851600	-0.415988	0.847050
N78	N	0.542026	-0.386854	0.366242
H79	H	0.514745	-0.361240	0.317637
H80	H	0.514788	-0.416051	0.408926
H81	H	0.269264	-0.230338	0.628304
N82	N	0.993302	-0.670727	0.645939
H83	H	1.018784	-0.639888	0.688533
H84	H	1.022454	-0.697999	0.603214
H85	H	1.063393	-0.149662	0.907275
N86	N	1.074065	-0.138971	1.120858
H87	H	1.099575	-0.113483	1.069473
H88	H	1.103188	-0.164586	1.166381
N89	N	0.990347	-0.222614	1.234832
H90	H	1.021981	-0.191002	1.261287
H91	H	1.001875	-0.265815	1.261160
N92	N	0.277826	-0.386888	0.366284
H93	H	0.324466	-0.380779	0.376486
H94	H	0.266315	-0.377042	0.291281
N95	N	0.678797	-0.219667	0.646052
H96	H	0.706072	-0.190467	0.603435
H97	H	0.706040	-0.245318	0.694655
N98	N	0.141315	-0.219713	0.646089
H99	H	0.172136	-0.194232	0.688717
H100	H	0.114040	-0.245363	0.694645
H101	H	0.836662	-0.662295	0.384152
H102	H	0.149882	-0.376280	0.384095
H103	H	0.836609	-0.543024	0.384118
N104	N	0.993399	-0.934907	0.646013
H105	H	1.038386	-0.946320	0.629774
H106	H	0.983547	-0.946329	0.721040
N107	N	0.542152	-0.219680	0.646059
H108	H	0.572972	-0.194204	0.688699
H109	H	0.514878	-0.245339	0.694603
N110	N	0.993425	-1.071564	0.646097
H111	H	1.018900	-1.040722	0.688697
H112	H	1.022585	-1.098851	0.603415
H113	H	0.836768	-0.943864	0.384221
N114	N	0.826174	-1.071832	0.366485
H115	H	0.832295	-1.118457	0.376701
H116	H	0.835990	-1.060371	0.291462
N117	N	0.990295	-0.222717	0.778695
H118	H	1.021925	-0.191118	0.752289
H119	H	0.947095	-0.211160	0.752342
