data_functionalizedCrystal
_audit_creation_method	'MofGen! by Chris Wilmer'
_symmetry_space_group_name_H-M	'P1'
_symmetry_Int_Tables_number	1
_symmetry_cell_setting	triclinic
loop_
_symmetry_equiv_pos_as_xyz
  x,y,z
_cell_length_a	15.297327
_cell_length_b	19.077105
_cell_length_c	19.076919
_cell_angle_alpha	89.923776
_cell_angle_beta	101.510342
_cell_angle_gamma	82.181934
loop_
_atom_site_label
_atom_site_type_symbol
_atom_site_fract_x
_atom_site_fract_y
_atom_site_fract_z
Zn1	Zn	-0.436205	-0.997096	-0.496821
Zn2	Zn	-0.102872	-0.663763	-0.163488
Zn3	Zn	0.230461	-0.330430	0.169846
Zn4	Zn	-0.581179	-0.981405	-0.398060
Zn5	Zn	-0.247846	-0.648071	-0.064727
Zn6	Zn	0.085487	-0.314738	0.268607
Zn7	Zn	-0.424127	-0.886008	-0.373052
Zn8	Zn	-0.090793	-0.552675	-0.039719
Zn9	Zn	0.242540	-0.219341	0.293614
Zn10	Zn	-0.580636	-0.859303	-0.510742
Zn11	Zn	-0.247302	-0.525969	-0.177409
Zn12	Zn	0.086031	-0.192636	0.155924
O13	O	-0.505537	-0.930953	-0.444669
O14	O	-0.172203	-0.597620	-0.111336
O15	O	0.161130	-0.264286	0.221998
O16	O	-0.460719	-1.092606	-0.488360
O17	O	-0.127386	-0.759272	-0.155026
O18	O	0.205948	-0.425939	0.178307
O19	O	-0.555519	-0.973359	-0.295787
O20	O	-0.222185	-0.640026	0.037546
O21	O	0.111148	-0.306693	0.370880
O22	O	-0.299557	-0.918487	-0.373179
O23	O	0.033776	-0.585154	-0.039846
O24	O	0.367110	-0.251821	0.293488
O25	O	-0.567231	-1.081077	-0.415800
O26	O	-0.233898	-0.747744	-0.082467
O27	O	0.099436	-0.414411	0.250866
O28	O	-0.308431	-1.000103	-0.464111
O29	O	0.024902	-0.666770	-0.130778
O30	O	0.358235	-0.333437	0.202556
O31	O	-0.440133	-0.903272	-0.277414
O32	O	-0.106799	-0.569939	0.055919
O33	O	0.226534	-0.236605	0.389252
O34	O	-0.439605	-0.784875	-0.386678
O35	O	-0.106272	-0.451541	-0.053344
O36	O	0.227061	-0.118208	0.279989
O37	O	-0.566304	-0.872972	-0.607851
O38	O	-0.232971	-0.539639	-0.274518
O39	O	0.100363	-0.206305	0.058816
O40	O	-0.554592	-0.765254	-0.487838
O41	O	-0.221259	-0.431921	-0.154504
O42	O	0.112075	-0.098588	0.178829
O43	O	-0.460192	-0.974208	-0.597623
O44	O	-0.126858	-0.640875	-0.264290
O45	O	0.206475	-0.307542	0.069044
O46	O	-0.707279	-0.947464	-0.429299
O47	O	-0.373946	-0.614131	-0.095966
O48	O	-0.040612	-0.280798	0.237367
O49	O	-0.706880	-0.857757	-0.512086
O50	O	-0.373546	-0.524423	-0.178753
O51	O	-0.040213	-0.191090	0.154580
C52	C	-0.495730	-0.749760	-0.436055
C53	C	-0.162396	-0.416427	-0.102722
C54	C	0.170937	-0.083093	0.230611
C55	C	-0.491557	-0.672241	-0.432390
C56	C	-0.158223	-0.338908	-0.099057
C57	C	0.175110	-0.005574	0.234277
C58	C	-0.739796	-0.898028	-0.474933
C59	C	-0.406463	-0.564695	-0.141600
C60	C	-0.073129	-0.231361	0.191733
C61	C	-0.840018	-0.884005	-0.487907
C62	C	-0.506684	-0.550672	-0.154574
C63	C	-0.173351	-0.217339	0.178759
C64	C	-0.514535	-0.922362	-0.629112
C65	C	-0.181201	-0.589028	-0.295779
C66	C	0.152132	-0.255695	0.037554
C67	C	-0.518369	-0.918700	-0.707711
C68	C	-0.185036	-0.585367	-0.374378
C69	C	0.148298	-0.252034	-0.041045
C70	C	-1.123247	-1.031451	-0.352197
C71	C	-0.789914	-0.698118	-0.018863
C72	C	-0.456580	-0.364785	0.314470
C73	C	-1.029084	-1.044626	-0.340004
C74	C	-0.695750	-0.711293	-0.006670
C75	C	-0.362417	-0.377959	0.326663
C76	C	-0.981812	-1.004472	-0.376979
C77	C	-0.648479	-0.671139	-0.043645
C78	C	-0.315146	-0.337806	0.289688
C79	C	-1.028714	-0.951141	-0.426149
C80	C	-0.695381	-0.617808	-0.092815
C81	C	-0.362047	-0.284474	0.240518
C82	C	-1.122886	-0.937961	-0.438339
C83	C	-0.789553	-0.604628	-0.105006
C84	C	-0.456220	-0.271294	0.228328
C85	C	-0.981452	-0.910982	-0.463121
C86	C	-0.648119	-0.577649	-0.129788
C87	C	-0.314785	-0.244316	0.203546
C88	C	-1.028353	-0.857651	-0.512291
C89	C	-0.695020	-0.524318	-0.178958
C90	C	-0.361687	-0.190984	0.154376
C91	C	-1.122517	-0.844474	-0.524480
C92	C	-0.789183	-0.511141	-0.191146
C93	C	-0.455850	-0.177807	0.142187
C94	C	-1.169788	-0.884628	-0.487505
C95	C	-0.836454	-0.551294	-0.154171
C96	C	-0.503121	-0.217961	0.179162
C97	C	-0.887280	-0.924162	-0.450930
C98	C	-0.553946	-0.590829	-0.117597
C99	C	-0.220613	-0.257495	0.215736
C100	C	-0.886919	-0.830672	-0.537073
C101	C	-0.553586	-0.497339	-0.203739
C102	C	-0.220252	-0.164005	0.129594
C103	C	-0.981082	-0.817497	-0.549266
C104	C	-0.647749	-0.484164	-0.215933
C105	C	-0.314416	-0.150831	0.117401
C106	C	-0.270365	-0.964025	-0.414303
C107	C	0.062969	-0.630691	-0.080969
C108	C	0.396302	-0.297358	0.252364
C109	C	-0.170148	-0.978118	-0.401362
C110	C	0.163185	-0.644784	-0.068029
C111	C	0.496518	-0.311451	0.265304
C112	C	-0.515383	-1.112853	-0.453317
C113	C	-0.182050	-0.779520	-0.119983
C114	C	0.151284	-0.446187	0.213350
C115	C	-0.519579	-1.190368	-0.457002
C116	C	-0.186245	-0.857035	-0.123668
C117	C	0.147088	-0.523702	0.209665
C118	C	-0.549547	-0.625617	-0.483277
C119	C	-0.216214	-0.292284	-0.149943
C120	C	0.117120	0.041050	0.183390
C121	C	-0.545614	-0.552781	-0.479834
C122	C	-0.212281	-0.219448	-0.146501
C123	C	0.121053	0.113886	0.186832
C124	C	-0.483695	-0.526571	-0.425502
C125	C	-0.150362	-0.193237	-0.092169
C126	C	0.182972	0.140096	0.241165
C127	C	-0.425698	-0.573201	-0.374613
C128	C	-0.092365	-0.239868	-0.041279
C129	C	0.240968	0.093466	0.292054
C130	C	-0.429627	-0.646036	-0.378058
C131	C	-0.096294	-0.312702	-0.044725
C132	C	0.237039	0.020631	0.288608
C133	C	-0.465511	-0.309833	-0.409558
C134	C	-0.132178	0.023500	-0.076225
C135	C	0.201155	0.356833	0.257109
C136	C	-0.461589	-0.236992	-0.406115
C137	C	-0.128255	0.096341	-0.072782
C138	C	0.205078	0.429674	0.260552
C139	C	-0.581504	-0.216578	-0.511338
C140	C	-0.248170	0.116755	-0.178005
C141	C	0.085163	0.450089	0.155329
C142	C	-0.585431	-0.289415	-0.514776
C143	C	-0.252097	0.043919	-0.181443
C144	C	0.081236	0.377252	0.151890
C145	C	-0.527431	-0.336039	-0.463889
C146	C	-0.194098	-0.002705	-0.130556
C147	C	0.139236	0.330628	0.202777
N148	N	-0.479676	-0.452121	-0.421981
N149	N	-0.146342	-0.118787	-0.088648
N150	N	0.186991	0.214546	0.244686
N151	N	-0.531447	-0.410488	-0.467414
N152	N	-0.198113	-0.077154	-0.134081
N153	N	0.135220	0.256179	0.199253
C154	C	-0.464926	-0.969686	-0.739314
C155	C	-0.131592	-0.636353	-0.405980
C156	C	0.201741	-0.303019	-0.072647
C157	C	-0.468525	-0.966238	-0.813165
C158	C	-0.135191	-0.632905	-0.479831
C159	C	0.198142	-0.299571	-0.146498
C160	C	-0.525572	-0.911807	-0.855413
C161	C	-0.192239	-0.578473	-0.522080
C162	C	0.141095	-0.245140	-0.188747
C163	C	-0.579017	-0.860816	-0.823806
C164	C	-0.245684	-0.527483	-0.490473
C165	C	0.087649	-0.194149	-0.157139
C166	C	-0.575413	-0.864262	-0.749955
C167	C	-0.242080	-0.530928	-0.416622
C168	C	0.091254	-0.197595	-0.083289
C169	C	-0.542271	-0.895847	-1.076853
C170	C	-0.208938	-0.562514	-0.743520
C171	C	0.124396	-0.229180	-0.410187
C172	C	-0.545873	-0.892406	-1.150709
C173	C	-0.212540	-0.559073	-0.817376
C174	C	0.120793	-0.225740	-0.484043
C175	C	-0.435379	-0.997828	-1.140063
C176	C	-0.102046	-0.664495	-0.806729
C177	C	0.231288	-0.331161	-0.473396
C178	C	-0.431784	-1.001271	-1.066212
C179	C	-0.098450	-0.667938	-0.732878
C180	C	0.234883	-0.334605	-0.399545
C181	C	-0.485225	-0.950279	-1.034610
C182	C	-0.151892	-0.616945	-0.701277
C183	C	0.181441	-0.283612	-0.367944
N184	N	-0.529254	-0.908282	-0.930901
N185	N	-0.195921	-0.574949	-0.597568
N186	N	0.137413	-0.241616	-0.264235
N187	N	-0.481538	-0.953801	-0.959123
N188	N	-0.148205	-0.620467	-0.625789
N189	N	0.185129	-0.287134	-0.292456
C190	C	-0.496511	-0.939560	-0.260936
C191	C	-0.163178	-0.606227	0.072397
C192	C	0.170156	-0.272893	0.405730
C193	C	-0.492430	-0.943392	-0.182311
C194	C	-0.159097	-0.610059	0.151022
C195	C	0.174237	-0.276725	0.484355
H196	H	-0.849101	-0.967585	-0.410896
H197	H	-0.515767	-0.634251	-0.077562
H198	H	-0.182434	-0.300918	0.255771
F199	F	-0.639728	-0.802884	-0.868771
F200	F	-0.306395	-0.469550	-0.535438
F201	F	0.026939	-0.136217	-0.202105
H202	H	-0.592330	-0.848079	-1.185107
H203	H	-0.258997	-0.514746	-0.851773
H204	H	0.074337	-0.181413	-0.518440
H205	H	-0.635854	-0.310749	-0.559018
H206	H	-0.302521	0.022584	-0.225685
H207	H	0.030813	0.355918	0.107648
F208	F	-0.359793	-0.545304	-0.316791
F209	F	-0.026460	-0.211971	0.016542
F210	F	0.306873	0.121362	0.349875
F211	F	-0.599149	-0.841575	-1.043230
F212	F	-0.265816	-0.508242	-0.709897
F213	F	0.067518	-0.174909	-0.376564
F214	F	-1.173561	-1.074177	-0.312850
F215	F	-0.840228	-0.740844	0.020484
F216	F	-0.506894	-0.407511	0.353817
H217	H	-0.418475	-1.014012	-0.704920
H218	H	-0.085141	-0.680679	-0.371587
H219	H	0.248192	-0.347345	-0.038253
H220	H	-0.391869	-1.039343	-1.165801
H221	H	-0.058535	-0.706009	-0.832467
H222	H	0.274798	-0.372676	-0.499134
F223	F	-0.615455	-0.653504	-0.541102
F224	F	-0.282121	-0.320171	-0.207769
F225	F	0.051212	0.013162	0.125564
F226	F	-1.031009	-0.760740	-0.601595
F227	F	-0.697676	-0.427406	-0.268262
F228	F	-0.364343	-0.094073	0.065071
F229	F	-0.643228	-0.166952	-0.565491
F230	F	-0.309895	0.166381	-0.232157
F231	F	0.023439	0.499714	0.101176
H232	H	-0.425008	-1.007757	-0.838892
H233	H	-0.091674	-0.674424	-0.505558
H234	H	0.241659	-0.341091	-0.172225
F235	F	-0.367904	-0.695657	-0.323899
F236	F	-0.034571	-0.362324	0.009435
F237	F	0.298762	-0.028990	0.342768
H238	H	-0.385332	-1.045597	-1.031818
H239	H	-0.051999	-0.712263	-0.698485
H240	H	0.281334	-0.378930	-0.365151
F241	F	-0.881611	-1.018638	-0.364159
F242	F	-0.548277	-0.685305	-0.030826
F243	F	-0.214944	-0.351971	0.302508
H244	H	-0.592837	-0.514822	-0.521271
H245	H	-0.259504	-0.181488	-0.187938
H246	H	0.073830	0.151845	0.145395
H247	H	-0.990900	-1.088047	-0.299969
H248	H	-0.657566	-0.754714	0.033364
H249	H	-0.324233	-0.421380	0.366698
F250	F	-1.269985	-0.870397	-0.500244
F251	F	-0.936652	-0.537064	-0.166910
F252	F	-0.603318	-0.203731	0.166423
H253	H	-0.411156	-0.215656	-0.361874
H254	H	-0.077823	0.117677	-0.028541
H255	H	0.255510	0.451010	0.304793
H256	H	-0.618923	-0.822738	-0.724225
H257	H	-0.285589	-0.489405	-0.390891
H258	H	0.047744	-0.156071	-0.057558
H259	H	-1.160700	-0.801040	-0.564509
H260	H	-0.827367	-0.467707	-0.231175
H261	H	-0.494034	-0.134374	0.102158
F262	F	-0.403780	-0.359446	-0.355401
F263	F	-0.070447	-0.026112	-0.022067
F264	F	0.262887	0.307221	0.311266
F265	F	-0.836614	-0.787931	-0.576423
F266	F	-0.503281	-0.454598	-0.243090
F267	F	-0.169947	-0.121264	0.090244
