data_functionalizedCrystal
_audit_creation_method	'MofGen! by Chris Wilmer'
_symmetry_space_group_name_H-M	'P1'
_symmetry_Int_Tables_number	1
_symmetry_cell_setting	triclinic
loop_
_symmetry_equiv_pos_as_xyz
  x,y,z
_cell_length_a	17.077404
_cell_length_b	17.077402
_cell_length_c	17.077396
_cell_angle_alpha	90.026173
_cell_angle_beta	90.019501
_cell_angle_gamma	90.024621
loop_
_atom_site_label
_atom_site_type_symbol
_atom_site_fract_x
_atom_site_fract_y
_atom_site_fract_z
Zn1	Zn	1.200046	-0.312503	0.443855
Zn2	Zn	1.533380	0.020830	0.777189
Zn3	Zn	1.866713	0.354163	1.110522
Zn4	Zn	1.199950	-0.443778	0.312595
Zn5	Zn	1.533283	-0.110445	0.645928
Zn6	Zn	1.866617	0.222888	0.979261
Zn7	Zn	1.068778	-0.312531	0.312603
Zn8	Zn	1.402112	0.020802	0.645937
Zn9	Zn	1.735445	0.354136	0.979270
Zn10	Zn	1.068743	-0.443732	0.443818
Zn11	Zn	1.402076	-0.110398	0.777152
Zn12	Zn	1.735409	0.222935	1.110485
O13	O	1.134379	-0.378136	0.378218
O14	O	1.467713	-0.044803	0.711551
O15	O	1.801046	0.288531	1.044884
O16	O	1.309881	-0.329925	0.426455
O17	O	1.643214	0.003408	0.759789
O18	O	1.976547	0.336741	1.093122
O19	O	1.182524	-0.426399	0.202749
O20	O	1.515858	-0.093066	0.536082
O21	O	1.849191	0.240268	0.869415
O22	O	1.086246	-0.202680	0.330033
O23	O	1.419580	0.130653	0.663367
O24	O	1.752913	0.463986	0.996700
O25	O	1.309810	-0.426372	0.330019
O26	O	1.643143	-0.093039	0.663352
O27	O	1.976476	0.240294	0.996685
O28	O	1.182689	-0.202660	0.426464
O29	O	1.516022	0.130673	0.759797
O30	O	1.849355	0.464007	1.093130
O31	O	1.086153	-0.329972	0.202755
O32	O	1.419486	0.003361	0.536088
O33	O	1.752820	0.336694	0.869422
O34	O	0.958927	-0.329927	0.329997
O35	O	1.292260	0.003406	0.663331
O36	O	1.625593	0.336740	0.996664
O37	O	1.086186	-0.426293	0.553670
O38	O	1.419519	-0.092960	0.887003
O39	O	1.752853	0.240374	1.220337
O40	O	0.958901	-0.426320	0.426400
O41	O	1.292234	-0.092986	0.759734
O42	O	1.625567	0.240347	1.093067
O43	O	1.182654	-0.329880	0.553697
O44	O	1.515988	0.003453	0.887031
O45	O	1.849321	0.336787	1.220364
O46	O	1.182490	-0.553619	0.329982
O47	O	1.515823	-0.220286	0.663316
O48	O	1.849157	0.113048	0.996649
O49	O	1.086092	-0.553585	0.426392
O50	O	1.419426	-0.220251	0.759725
O51	O	1.752759	0.113082	1.093059
C52	C	0.930431	-0.378122	0.378196
C53	C	1.263765	-0.044789	0.711529
C54	C	1.597098	0.288545	1.044863
C55	C	0.843182	-0.378135	0.378206
C56	C	1.176515	-0.044801	0.711539
C57	C	1.509848	0.288532	1.044872
C58	C	0.802198	-0.428402	0.428322
C59	C	1.135532	-0.095069	0.761655
C60	C	1.468865	0.238265	1.094989
C61	C	0.720218	-0.428404	0.428335
C62	C	1.053551	-0.095070	0.761668
C63	C	1.386885	0.238263	1.095001
C64	C	0.679222	-0.378141	0.378226
C65	C	1.012556	-0.044808	0.711559
C66	C	1.345889	0.288525	1.044893
C67	C	0.720211	-0.327869	0.328107
C68	C	1.053545	0.005465	0.661441
C69	C	1.386878	0.338798	0.994774
C70	C	0.802190	-0.327863	0.328099
C71	C	1.135523	0.005470	0.661433
C72	C	1.468857	0.338803	0.994766
C73	C	0.549341	-0.327884	0.328126
C74	C	0.882675	0.005449	0.661460
C75	C	1.216008	0.338783	0.994793
C76	C	0.467357	-0.327890	0.328133
C77	C	0.800690	0.005443	0.661466
C78	C	1.134023	0.338777	0.994800
C79	C	0.467369	-0.428424	0.428362
C80	C	0.800702	-0.095091	0.761695
C81	C	1.134036	0.238242	1.095028
C82	C	0.549348	-0.428419	0.428353
C83	C	0.882681	-0.095086	0.761687
C84	C	1.216015	0.238247	1.095020
C85	C	0.590331	-0.378147	0.378233
C86	C	0.923665	-0.044814	0.711567
C87	C	1.256998	0.288520	1.044900
C88	C	1.134298	-0.582084	0.378199
C89	C	1.467632	-0.248751	0.711533
C90	C	1.800965	0.084583	1.044866
C91	C	1.134335	-0.669334	0.378218
C92	C	1.467669	-0.336000	0.711551
C93	C	1.801002	-0.002667	1.044884
C94	C	1.184735	-1.045140	0.328109
C95	C	1.518069	-0.711806	0.661442
C96	C	1.851402	-0.378473	0.994775
C97	C	1.184695	-0.963159	0.328095
C98	C	1.518028	-0.629826	0.661428
C99	C	1.851362	-0.296493	0.994761
C100	C	1.134449	-0.922183	0.378245
C101	C	1.467782	-0.588849	0.711579
C102	C	1.801116	-0.255516	1.044912
C103	C	1.084234	-0.963191	0.428408
C104	C	1.417567	-0.629857	0.761741
C105	C	1.750901	-0.296524	1.095074
C106	C	1.084271	-1.045169	0.428417
C107	C	1.417604	-0.711836	0.761751
C108	C	1.750938	-0.378503	1.095084
C109	C	1.084162	-0.792321	0.428386
C110	C	1.417495	-0.458987	0.761719
C111	C	1.750829	-0.125654	1.095053
C112	C	1.084126	-0.710336	0.428378
C113	C	1.417459	-0.377003	0.761711
C114	C	1.750793	-0.043669	1.095045
C115	C	1.184586	-0.710310	0.328063
C116	C	1.517920	-0.376977	0.661397
C117	C	1.851253	-0.043644	0.994730
C118	C	1.184623	-0.792289	0.328073
C119	C	1.517956	-0.458956	0.661406
C120	C	1.851290	-0.125623	0.994740
C121	C	1.134409	-0.833292	0.378236
C122	C	1.467742	-0.499958	0.711570
C123	C	1.801076	-0.166625	1.044903
C124	C	1.339124	-0.378151	0.378240
C125	C	1.672457	-0.044818	0.711573
C126	C	2.005790	0.288516	1.044907
C127	C	1.426373	-0.378157	0.378249
C128	C	1.759707	-0.044824	0.711583
C129	C	2.093040	0.288509	1.044916
C130	C	1.134427	-0.378078	0.582962
C131	C	1.467760	-0.044745	0.916296
C132	C	1.801094	0.288588	1.249629
C133	C	1.134447	-0.378054	0.670212
C134	C	1.467780	-0.044720	1.003545
C135	C	1.801114	0.288613	1.336879
C136	C	1.134482	-0.173392	0.378254
C137	C	1.467816	0.159942	0.711587
C138	C	1.801149	0.493275	1.044920
C139	C	1.134526	-0.086142	0.378269
C140	C	1.467859	0.247191	0.711602
C141	C	1.801193	0.580525	1.044935
C142	C	1.134377	-0.378137	0.174270
C143	C	1.467711	-0.044804	0.507603
C144	C	1.801044	0.288530	0.840937
C145	C	1.134509	-0.377941	0.087021
C146	C	1.467842	-0.044607	0.420354
C147	C	1.801176	0.288726	0.753687
C148	C	1.184680	-0.327847	0.711218
C149	C	1.518013	0.005486	1.044551
C150	C	1.851347	0.338819	1.377884
C151	C	1.184689	-0.327821	0.793198
C152	C	1.518023	0.005512	1.126532
C153	C	1.851356	0.338846	1.459865
C154	C	1.134469	-0.378006	0.834172
C155	C	1.467803	-0.044673	1.167505
C156	C	1.801136	0.288661	1.500838
C157	C	1.084231	-0.428214	0.793160
C158	C	1.417564	-0.094881	1.126493
C159	C	1.750898	0.238452	1.459827
C160	C	1.084218	-0.428236	0.711181
C161	C	1.417551	-0.094903	1.044514
C162	C	1.750885	0.238431	1.377848
C163	C	1.084263	-0.428167	0.964030
C164	C	1.417596	-0.094834	1.297364
C165	C	1.750929	0.238499	1.630697
C166	C	1.084276	-0.428147	1.046015
C167	C	1.417610	-0.094814	1.379348
C168	C	1.750943	0.238520	1.712682
C169	C	1.184734	-0.327752	1.046047
C170	C	1.518067	0.005581	1.379381
C171	C	1.851400	0.338914	1.712714
C172	C	1.184721	-0.327774	0.964068
C173	C	1.518054	0.005559	1.297402
C174	C	1.851388	0.338893	1.630735
C175	C	1.134483	-0.377984	0.923063
C176	C	1.467817	-0.044650	1.256396
C177	C	1.801150	0.288683	1.589729
H178	H	0.835571	-0.469334	0.469124
H179	H	1.168905	-0.136001	0.802457
H180	H	1.502238	0.197333	1.135790
H181	H	0.433997	-0.469355	0.469173
H182	H	0.767330	-0.136022	0.802507
H183	H	1.100663	0.197311	1.135840
F184	F	1.238181	-0.274412	0.836836
F185	F	1.571514	0.058922	1.170169
F186	F	1.904848	0.392255	1.503503
F187	F	1.030820	-0.481553	1.089620
F188	F	1.364153	-0.148219	1.422954
F189	F	1.697487	0.185114	1.756287
F190	F	0.676604	-0.481905	0.481676
F191	F	1.009938	-0.148572	0.815009
F192	F	1.343271	0.184762	1.148343
F193	F	1.030757	-0.919578	0.481781
F194	F	1.364090	-0.586244	0.815115
F195	F	1.697424	-0.252911	1.148448
H196	H	0.835558	-0.286927	0.287293
H197	H	1.168891	0.046407	0.620627
H198	H	1.502224	0.379740	0.953960
H199	H	0.582725	-0.469352	0.469152
H200	H	0.916058	-0.136018	0.802485
H201	H	1.249391	0.197315	1.135819
F202	F	1.238175	-0.274366	0.920463
F203	F	1.571509	0.058967	1.253796
F204	F	1.904842	0.392300	1.587130
H205	H	1.043342	-0.469041	0.930646
H206	H	1.376675	-0.135708	1.263979
H207	H	1.710008	0.197626	1.597313
F208	F	1.030827	-1.088807	0.481801
F209	F	1.364161	-0.755473	0.815134
F210	F	1.697494	-0.422140	1.148467
H211	H	0.686826	-0.286941	0.287311
H212	H	1.020159	0.046393	0.620645
H213	H	1.353493	0.379726	0.953978
H214	H	0.433980	-0.286953	0.287340
H215	H	0.767313	0.046381	0.620673
H216	H	1.100647	0.379714	0.954006
F217	F	1.238201	-0.274316	1.089689
F218	F	1.571535	0.059018	1.423023
F219	F	1.904868	0.392351	1.756356
F220	F	1.030713	-0.835956	0.481771
F221	F	1.364046	-0.502623	0.815104
F222	F	1.697379	-0.169290	1.148437
H223	H	1.225542	-0.825650	0.287239
H224	H	1.558875	-0.492317	0.620573
H225	H	1.892208	-0.158984	0.953906
F226	F	0.592957	-0.274377	0.274783
F227	F	0.926290	0.058956	0.608117
F228	F	1.259623	0.392289	0.941450
F229	F	1.238219	-1.088743	0.274734
F230	F	1.571552	-0.755410	0.608067
F231	F	1.904886	-0.422076	0.941401
F232	F	1.238141	-0.919525	0.274714
F233	F	1.571475	-0.586192	0.608047
F234	F	1.904808	-0.252859	0.941380
F235	F	1.030780	-0.481622	0.836769
F236	F	1.364113	-0.148289	1.170103
F237	F	1.697446	0.185045	1.503436
H238	H	1.225472	-0.676922	0.287219
H239	H	1.558805	-0.343588	0.620552
H240	H	1.892139	-0.010255	0.953885
H241	H	1.225577	-0.286983	0.677863
H242	H	1.558911	0.046350	1.011196
H243	H	1.892244	0.379683	1.344530
H244	H	1.043305	-0.469111	0.677795
H245	H	1.376639	-0.135778	1.011129
H246	H	1.709972	0.197555	1.344462
H247	H	1.043209	-0.676977	0.469215
H248	H	1.376543	-0.343643	0.802548
H249	H	1.709876	-0.010310	1.135882
