data_functionalizedCrystal
_audit_creation_method	'MofGen! by Chris Wilmer'
_symmetry_space_group_name_H-M	'P1'
_symmetry_Int_Tables_number	1
_symmetry_cell_setting	triclinic
loop_
_symmetry_equiv_pos_as_xyz
  x,y,z
_cell_length_a	15.712078
_cell_length_b	15.538191
_cell_length_c	7.681481
_cell_angle_alpha	86.544245
_cell_angle_beta	97.432906
_cell_angle_gamma	83.426622
loop_
_atom_site_label
_atom_site_type_symbol
_atom_site_fract_x
_atom_site_fract_y
_atom_site_fract_z
O1	O	0.990718	0.471697	-0.146725
O2	O	1.490718	0.971697	0.353275
O3	O	0.759371	0.406980	-0.146653
O4	O	1.259371	0.906980	0.353347
O5	O	0.920078	0.317726	-0.146712
O6	O	1.420078	0.817726	0.353288
O7	O	0.830012	0.560951	-0.146667
O8	O	1.330012	1.060951	0.353333
O9	O	0.939870	0.306704	0.146139
O10	O	1.439870	0.806704	0.646139
O11	O	0.779163	0.395958	0.146197
O12	O	1.279163	0.895958	0.646197
O13	O	1.010510	0.460675	0.146125
O14	O	1.510510	0.960675	0.646125
Zn15	Zn	0.897979	0.426566	0.192658
Zn16	Zn	1.397979	0.926566	0.692658
Zn17	Zn	0.871903	0.441088	-0.193186
Zn18	Zn	1.371903	0.941088	0.306814
O19	O	0.849804	0.549929	0.146183
O20	O	1.349804	1.049929	0.646183
C21	C	0.740382	0.390896	-0.000219
C22	C	1.240382	0.890896	0.499781
C23	C	0.654315	0.359383	-0.000193
C24	C	1.154315	0.859383	0.499807
C25	C	0.939397	0.280366	-0.000295
C26	C	1.439397	0.780366	0.499705
C27	C	0.967465	0.185465	-0.000321
C28	C	1.467465	0.685465	0.499679
C29	C	0.203273	0.626931	-0.000265
C30	C	0.703273	1.126931	0.499735
C31	C	0.122405	0.597303	-0.000315
C32	C	0.622405	1.097303	0.499685
C33	C	0.189599	0.448836	-0.000346
C34	C	0.689599	0.948836	0.499654
C35	C	0.270475	0.478452	-0.000305
C36	C	0.770475	0.978452	0.499695
C37	C	0.277305	0.567500	-0.000263
C38	C	0.777305	1.067500	0.499737
C39	C	0.344506	0.419021	-0.000303
C40	C	0.844506	0.919021	0.499697
C41	C	0.425375	0.448635	-0.000253
C42	C	0.925375	0.948635	0.499747
C43	C	0.432213	0.537679	-0.000206
C44	C	0.932213	1.037679	0.499794
C45	C	0.358174	0.597114	-0.000213
C46	C	0.858174	1.097114	0.499787
C47	C	0.337676	0.329973	-0.000333
C48	C	0.837676	0.829973	0.499667
C49	C	0.411707	0.270542	-0.000330
C50	C	0.911707	0.770542	0.499670
C51	C	0.492577	0.300156	-0.000293
C52	C	0.992577	0.800156	0.499707
C53	C	0.499415	0.389200	-0.000246
C54	C	0.999415	0.889200	0.499754
C55	C	0.566617	0.240721	-0.000285
C56	C	1.066617	0.740721	0.499715
C57	C	0.647486	0.270335	-0.000236
C58	C	1.147486	0.770335	0.499764
C59	C	0.580284	0.418814	-0.000196
C60	C	1.080284	0.918814	0.499804
C61	C	0.688607	-0.198410	-0.000197
C62	C	1.188607	0.301590	0.499803
C63	C	0.715002	-0.287581	-0.000201
C64	C	1.215002	0.212419	0.499799
C65	C	0.863468	-0.258870	-0.000248
C66	C	1.363468	0.241130	0.499752
C67	C	0.837084	-0.169694	-0.000253
C68	C	1.337084	0.330306	0.499747
C69	C	0.749653	-0.139471	-0.000225
C70	C	1.249653	0.360529	0.499775
C71	C	0.898130	-0.110755	-0.000281
C72	C	1.398130	0.389245	0.499719
C73	C	0.871749	-0.021587	-0.000276
C74	C	1.371749	0.478413	0.499724
C75	C	0.784323	0.008642	-0.000243
C76	C	1.284323	0.508642	0.499757
C77	C	0.723272	-0.050304	-0.000220
C78	C	1.223272	0.449696	0.499780
C79	C	0.985562	-0.140980	-0.000296
C80	C	1.485562	0.359020	0.499704
C81	C	1.046608	-0.082041	-0.000324
C82	C	1.546608	0.417959	0.499676
C83	C	1.020227	0.007129	-0.000331
C84	C	1.520227	0.507129	0.499669
C85	C	0.932800	0.037358	-0.000298
C86	C	1.432800	0.537358	0.499702
C87	C	1.081277	0.066075	-0.000354
C88	C	1.581277	0.566075	0.499646
C89	C	1.054896	0.155243	-0.000349
C90	C	1.554896	0.655243	0.499651
C91	C	0.906419	0.126526	-0.000293
C92	C	1.406419	0.626526	0.499707
C93	C	1.029499	0.476759	-0.000313
C94	C	1.529499	0.976759	0.499687
C95	C	1.115565	0.508272	-0.000350
C96	C	1.615565	1.008272	0.499650
C97	C	0.830484	0.587289	-0.000237
C98	C	1.330484	1.087289	0.499763
C99	C	0.802416	0.682191	-0.000222
C100	C	1.302416	1.182191	0.499778
N101	N	0.915781	0.416657	0.455985
N102	N	1.415781	0.916657	0.955985
N103	N	0.854108	0.450993	-0.456513
N104	N	1.354108	0.950993	0.043487
H105	H	0.585843	0.491326	-0.000159
H106	H	1.085843	0.991326	0.499841
N107	N	0.250451	0.298035	-0.000391
N108	N	0.750451	0.798035	0.499609
H109	H	0.236850	0.265842	-0.108964
H110	H	0.736850	0.765842	0.391036
H111	H	0.251539	0.257701	0.108228
H112	H	0.751539	0.757701	0.608228
N113	N	0.957762	-0.291479	-0.000287
N114	N	1.457762	0.208521	0.499713
H115	H	0.978287	-0.265603	-0.108862
H116	H	1.478287	0.234397	0.391138
H117	H	0.992902	-0.273764	0.108329
H118	H	1.492902	0.226236	0.608329
N119	N	1.120734	0.218819	-0.000370
N120	N	1.620734	0.718819	0.499630
H121	H	1.180124	0.186144	-0.000393
H122	H	1.680124	0.686144	0.499607
H123	H	1.105683	0.260525	-0.108930
H124	H	1.605683	0.760525	0.391070
N125	N	0.755870	0.104817	-0.000248
N126	N	1.255870	0.604817	0.499752
H127	H	0.713032	0.124738	-0.108798
H128	H	1.213032	0.624738	0.391202
H129	H	0.727746	0.116511	0.108393
H130	H	1.227746	0.616511	0.608393
H131	H	0.978743	0.381617	0.531168
H132	H	1.478743	0.881617	1.031168
N133	N	1.140903	-0.114643	-0.000375
N134	N	1.640903	0.385357	0.499625
H135	H	1.175571	-0.063772	-0.000399
H136	H	1.675571	0.436228	0.499601
H137	H	1.162425	-0.155096	0.108184
H138	H	1.662425	0.344904	0.608184
H139	H	0.791155	0.486039	0.468313
H140	H	1.291155	0.986039	0.968313
N141	N	0.812121	0.159149	-0.000269
N142	N	1.312121	0.659149	0.499731
H143	H	0.776913	0.141447	-0.108820
H144	H	1.276913	0.641447	0.391180
H145	H	0.791662	0.133269	0.108372
H146	H	1.291662	0.633269	0.608372
N147	N	0.519436	0.569621	-0.000139
N148	N	1.019436	1.069621	0.499861
H149	H	0.544793	0.551704	-0.108693
H150	H	1.044793	1.051704	0.391307
H151	H	0.512461	0.635045	-0.000042
H152	H	1.012461	1.135045	0.499958
H153	H	0.363733	0.669625	-0.000176
H154	H	0.863733	1.169625	0.499824
N155	N	0.404339	0.174500	-0.000353
N156	N	0.904339	0.674500	0.499647
H157	H	0.341876	0.164755	-0.000378
H158	H	0.841876	0.664755	0.499622
H159	H	0.425826	0.151348	-0.108916
H160	H	0.925826	0.651348	0.391084
H161	H	1.152465	0.041453	-0.000359
H162	H	1.652465	0.541453	0.499641
N163	N	0.559247	0.144679	-0.000292
N164	N	1.059247	0.644679	0.499708
H165	H	0.496784	0.134937	-0.000309
H166	H	0.996784	0.634937	0.499691
H167	H	0.580733	0.121520	-0.108851
H168	H	1.080733	0.621520	0.391149
H169	H	0.208833	0.699442	-0.000228
H170	H	0.708833	1.199442	0.499772
N171	N	0.182217	0.352797	-0.000399
N172	N	0.682217	0.852797	0.499601
H173	H	0.203659	0.329590	-0.108963
H174	H	0.703659	0.829590	0.391037
H175	H	0.218291	0.321465	0.108229
H176	H	0.718291	0.821465	0.608229
N177	N	0.628969	-0.017695	-0.000219
N178	N	1.128969	0.482305	0.499781
H179	H	0.594295	-0.068561	-0.000213
H180	H	1.094295	0.431439	0.499787
H181	H	0.622124	0.014593	0.108346
H182	H	1.122124	0.514593	0.608346
N183	N	0.042550	0.661409	-0.000352
N184	N	0.542550	1.161409	0.499648
H185	H	0.059151	0.722312	-0.000329
H186	H	0.559151	1.222312	0.499671
H187	H	0.000227	0.656441	-0.108948
H188	H	0.500227	1.156441	0.391052
H189	H	0.617411	-0.173801	-0.000187
H190	H	1.117411	0.326199	0.499813
N191	N	0.727335	0.206234	-0.000238
N192	N	1.227335	0.706234	0.499762
H193	H	0.755069	0.219308	-0.108774
H194	H	1.255069	0.719308	0.391226
H195	H	0.769639	0.211148	0.108418
H196	H	1.269639	0.711148	0.608418
H197	H	1.007037	-0.213586	-0.000316
H198	H	1.507037	0.286414	0.499684
N199	N	0.649156	-0.351154	-0.000168
N200	N	1.149156	0.148846	0.499832
H201	H	0.589768	-0.318474	-0.000149
H202	H	1.089768	0.181526	0.499851
H203	H	0.649529	-0.384692	-0.108733
H204	H	1.149529	0.115308	0.391267
