data_functionalizedCrystal
_audit_creation_method	'MofGen! by Chris Wilmer'
_symmetry_space_group_name_H-M	'P1'
_symmetry_Int_Tables_number	1
_symmetry_cell_setting	triclinic
loop_
_symmetry_equiv_pos_as_xyz
  x,y,z
_cell_length_a	19.188905
_cell_length_b	27.732048
_cell_length_c	18.266242
_cell_angle_alpha	89.988683
_cell_angle_beta	89.983837
_cell_angle_gamma	82.888605
loop_
_atom_site_label
_atom_site_type_symbol
_atom_site_fract_x
_atom_site_fract_y
_atom_site_fract_z
O1	O	0.925776	0.060290	-0.061009
O2	O	1.425776	0.560290	0.438991
O3	O	0.722410	0.068427	-0.060985
O4	O	1.222410	0.568427	0.439015
O5	O	0.830409	-0.006019	-0.060984
O6	O	1.330409	0.493981	0.439016
O7	O	0.817777	0.134736	-0.061011
O8	O	1.317777	0.634736	0.438989
O9	O	0.830391	-0.006023	0.060778
O10	O	1.330391	0.493977	0.560778
O11	O	0.722392	0.068423	0.060777
O12	O	1.222392	0.568423	0.560777
O13	O	0.925758	0.060287	0.060753
O14	O	1.425758	0.560287	0.560753
Zn15	Zn	0.824072	0.064354	0.080097
Zn16	Zn	1.324072	0.564354	0.580097
Zn17	Zn	0.824096	0.064359	-0.080330
Zn18	Zn	1.324096	0.564359	0.419670
O19	O	0.817759	0.134733	0.060751
O20	O	1.317759	0.634733	0.560751
C21	C	0.696391	0.068163	-0.000101
C22	C	1.196391	0.568163	0.499899
C23	C	0.618891	0.067379	-0.000091
C24	C	1.118891	0.567379	0.499909
C25	C	0.582512	0.067004	-0.066466
C26	C	1.082512	0.567004	0.433534
C27	C	0.509693	0.066261	-0.066475
C28	C	1.009693	0.566261	0.433525
C29	C	0.473258	0.065883	-0.000106
C30	C	0.973258	0.565883	0.499894
C31	C	0.509646	0.066261	0.066278
C32	C	1.009646	0.566261	0.566278
C33	C	0.582462	0.067009	0.066285
C34	C	1.082462	0.567009	0.566285
N35	N	0.364413	0.037200	0.049292
N36	N	0.864413	0.537200	0.549292
N37	N	0.295241	0.036489	0.049281
N38	N	0.795241	0.536489	0.549281
C39	C	0.253866	0.063631	-0.000123
C40	C	0.753866	0.563631	0.499877
N41	N	0.284277	0.091506	-0.049526
N42	N	0.784277	0.591506	0.450474
N43	N	0.353457	0.092215	-0.049517
N44	N	0.853457	0.592215	0.450483
C45	C	0.394301	0.065073	-0.000106
C46	C	0.894301	0.565073	0.499894
C47	C	0.138528	0.062451	-0.066511
C48	C	0.638528	0.562451	0.433489
C49	C	0.065707	0.061712	-0.066518
C50	C	0.565707	0.561712	0.433482
C51	C	0.065662	0.061707	0.066237
C52	C	0.565662	0.561707	0.566237
C53	C	0.138481	0.062452	0.066241
C54	C	0.638481	0.562452	0.566241
C55	C	0.174909	0.062822	-0.000135
C56	C	0.674909	0.562822	0.499865
C57	C	0.830135	-0.024029	-0.000101
C58	C	1.330135	0.475971	0.499899
C59	C	0.829336	-0.077686	-0.000095
C60	C	1.329336	0.422314	0.499905
C61	C	0.888130	-0.416325	-0.000140
C62	C	1.388130	0.083675	0.499860
C63	C	0.885167	-0.617994	-0.000149
C64	C	1.385167	-0.117994	0.499851
O65	O	0.938930	-0.649088	-0.000188
O66	O	1.438930	-0.149088	0.499812
N67	N	0.821129	-0.637309	-0.000141
N68	N	1.321129	-0.137309	0.499859
C69	C	0.757826	-0.606204	-0.000135
C70	C	1.257826	-0.106204	0.499865
O71	O	0.703289	-0.627261	-0.000136
O72	O	1.203289	-0.127261	0.499864
C73	C	0.760789	-0.404537	-0.000131
C74	C	1.260789	0.095463	0.499869
C75	C	0.824832	-0.385224	-0.000131
C76	C	1.324832	0.114776	0.499869
C77	C	0.952168	-0.397012	-0.000141
C78	C	1.452168	0.102988	0.499859
C79	C	0.952908	-0.346598	-0.000135
C80	C	1.452908	0.153402	0.499865
C81	C	0.889610	-0.315497	-0.000127
C82	C	1.389610	0.184503	0.499873
C83	C	0.825572	-0.334810	-0.000125
C84	C	1.325572	0.165190	0.499875
C85	C	0.697487	-0.373432	-0.000130
C86	C	1.197487	0.126568	0.499870
C87	C	0.698234	-0.323013	-0.000131
C88	C	1.198234	0.176987	0.499869
C89	C	0.762277	-0.303700	-0.000132
C90	C	1.262277	0.196300	0.499868
C91	C	0.763014	-0.253295	-0.000110
C92	C	1.263014	0.246705	0.499890
N93	N	0.827053	-0.233979	-0.000119
N94	N	1.327053	0.266021	0.499881
C95	C	0.890351	-0.265080	-0.000127
C96	C	1.390351	0.234920	0.499873
C97	C	0.756275	-0.712083	-0.000136
C98	C	1.256275	-0.212083	0.499864
C99	C	0.755534	-0.762499	-0.000136
C100	C	1.255534	-0.262499	0.499864
C101	C	0.882876	-0.774286	-0.000152
C102	C	1.382876	-0.274286	0.499848
C103	C	0.883616	-0.723868	-0.000147
C104	C	1.383616	-0.223868	0.499853
C105	C	0.820313	-0.692767	-0.000145
C106	C	1.320313	-0.192767	0.499855
C107	C	0.891900	-0.159206	-0.000113
C108	C	1.391900	0.340794	0.499887
C109	C	0.892634	-0.108787	-0.000103
C110	C	1.392634	0.391213	0.499897
C111	C	0.765293	-0.097006	-0.000091
C112	C	1.265293	0.402994	0.499909
C113	C	0.764558	-0.147420	-0.000097
C114	C	1.264558	0.352580	0.499903
C115	C	0.827867	-0.178520	-0.000110
C116	C	1.327867	0.321480	0.499890
O117	O	0.709280	-0.222172	-0.000080
O118	O	1.209280	0.277828	0.499920
O119	O	0.944880	-0.244014	-0.000142
O120	O	1.444880	0.255986	0.499858
C121	C	0.887390	-0.466739	-0.000146
C122	C	1.387390	0.033261	0.499854
C123	C	0.823352	-0.486052	-0.000144
C124	C	1.323352	0.013948	0.499856
C125	C	0.760054	-0.454951	-0.000136
C126	C	1.260054	0.045049	0.499864
C127	C	0.822611	-0.536469	-0.000144
C128	C	1.322611	-0.036469	0.499856
C129	C	0.885909	-0.567570	-0.000152
C130	C	1.385909	-0.067570	0.499848
C131	C	0.949948	-0.548255	-0.000161
C132	C	1.449948	-0.048255	0.499839
C133	C	0.950688	-0.497840	-0.000154
C134	C	1.450688	0.002160	0.499846
C135	C	0.696015	-0.474267	-0.000128
C136	C	1.196015	0.025733	0.499872
C137	C	0.695281	-0.524681	-0.000134
C138	C	1.195281	-0.024681	0.499866
C139	C	0.758579	-0.555783	-0.000142
C140	C	1.258579	-0.055783	0.499858
C141	C	0.951776	0.060550	-0.000133
C142	C	1.451776	0.560550	0.499867
C143	C	1.029277	0.061335	-0.000148
C144	C	1.529277	0.561335	0.499852
C145	C	0.818033	0.152742	-0.000133
C146	C	1.318033	0.652742	0.499867
C147	C	0.818831	0.206399	-0.000144
C148	C	1.318831	0.706399	0.499856
N149	N	0.824061	0.064350	0.189584
N150	N	1.324061	0.564350	0.689584
N151	N	0.824113	0.064359	-0.189817
N152	N	1.324113	0.564359	0.310183
C153	C	0.871898	0.031402	0.227893
C154	C	1.371898	0.531402	0.727893
C155	C	0.871903	0.031400	0.304538
C156	C	1.371903	0.531400	0.804538
C157	C	0.824076	0.064354	0.342871
C158	C	1.324076	0.564354	0.842871
C159	C	0.776230	0.097305	0.304552
C160	C	1.276230	0.597305	0.804552
C161	C	0.776222	0.097303	0.227909
C162	C	1.276222	0.597303	0.727909
N163	N	0.814728	0.107145	0.463196
N164	N	1.314728	0.607145	0.963196
N165	N	0.814739	0.107145	0.536004
N166	N	1.314739	0.607145	1.036004
C167	C	0.824096	0.064361	0.573793
C168	C	1.324096	0.564361	1.073793
N169	N	0.833454	0.021576	0.536024
N170	N	1.333454	0.521576	1.036024
N171	N	0.833446	0.021576	0.463209
N172	N	1.333446	0.521576	0.963209
C173	C	0.824079	0.064360	0.425978
C174	C	1.324079	0.564360	0.925978
C175	C	0.871941	0.031407	0.695210
C176	C	1.371941	0.531407	1.195210
C177	C	0.871940	0.031405	0.771856
C178	C	1.371940	0.531405	1.271856
C179	C	0.776271	0.097315	0.771868
C180	C	1.276271	0.597315	1.271868
C181	C	0.776268	0.097313	0.695224
C182	C	1.276268	0.597313	1.195224
C183	C	0.824107	0.064360	0.656899
C184	C	1.324107	0.564360	1.156899
H185	H	0.612167	0.067305	-0.120514
H186	H	1.112167	0.567305	0.379486
Br187	Br	0.460309	0.065753	-0.156560
Br188	Br	0.960309	0.565753	0.343440
H189	H	0.644469	-0.448949	-0.000123
H190	H	1.144469	0.051051	0.499877
H191	H	0.646684	-0.297693	-0.000130
H192	H	1.146684	0.202307	0.499870
H193	H	0.703383	-0.778219	-0.000123
H194	H	1.203383	-0.278219	0.499877
Br195	Br	0.977820	-0.201405	-0.000131
Br196	Br	1.477820	0.298595	0.499869
H197	H	0.910849	0.004568	0.196691
H198	H	1.410849	0.504568	0.696691
Br199	Br	0.936829	-0.013321	0.356539
Br200	Br	1.436829	0.486679	0.856539
H201	H	0.910892	0.004574	0.664004
H202	H	1.410892	0.504574	1.164004
H203	H	0.712409	-0.163145	-0.000076
H204	H	1.212409	0.336855	0.499924
Br205	Br	1.037608	-0.471639	-0.000160
Br206	Br	1.537608	0.028361	0.499840
Br207	Br	1.039828	-0.320396	-0.000157
Br208	Br	1.539828	0.179604	0.499843
Br209	Br	0.460200	0.065754	0.156351
Br210	Br	0.960200	0.565754	0.656351
H211	H	0.737288	0.124137	0.335766
H212	H	1.237288	0.624137	0.835766
Br213	Br	0.711295	0.142022	0.175913
Br214	Br	1.211295	0.642022	0.675913
H215	H	0.035997	0.061402	0.120276
H216	H	0.535997	0.561402	0.620276
Br217	Br	0.936861	-0.013319	0.823852
Br218	Br	1.436861	0.486681	1.323852
Br219	Br	0.187970	0.062957	-0.156590
Br220	Br	0.687970	0.562957	0.343410
H221	H	1.001487	-0.573586	-0.000164
H222	H	1.501487	-0.073586	0.499836
Br223	Br	0.631838	0.067518	0.156371
Br224	Br	1.131838	0.567518	0.656371
Br225	Br	0.670355	-0.669881	-0.000135
Br226	Br	1.170355	-0.169881	0.499865
Br227	Br	0.970534	-0.697664	-0.000146
Br228	Br	1.470534	-0.197664	0.499854
Br229	Br	0.187857	0.062959	0.156325
Br230	Br	0.687857	0.562959	0.656325
H231	H	0.737317	0.124145	0.664030
H232	H	1.237317	0.624145	1.164030
H233	H	0.036087	0.061409	-0.120570
H234	H	0.536087	0.561409	0.379430
Br235	Br	0.979556	-0.082581	-0.000103
Br236	Br	1.479556	0.417419	0.499897
Br237	Br	0.679393	-0.054788	-0.000080
Br238	Br	1.179393	0.445212	0.499920
H239	H	0.737327	0.124145	0.803078
H240	H	1.237327	0.624145	1.303078
H241	H	1.003716	-0.422330	-0.000150
H242	H	1.503716	0.077670	0.499850
H243	H	0.643125	-0.540400	-0.000127
H244	H	1.143125	-0.040400	0.499873
H245	H	0.934415	-0.799617	-0.000158
H246	H	1.434415	-0.299617	0.499842
Br247	Br	0.610566	-0.399629	-0.000132
Br248	Br	1.110566	0.100371	0.499868
