data_functionalizedCrystal
_audit_creation_method	'MofGen! by Chris Wilmer'
_symmetry_space_group_name_H-M	'P1'
_symmetry_Int_Tables_number	1
_symmetry_cell_setting	triclinic
loop_
_symmetry_equiv_pos_as_xyz
  x,y,z
_cell_length_a	21.395362
_cell_length_b	19.121747
_cell_length_c	21.395355
_cell_angle_alpha	87.576730
_cell_angle_beta	90.043940
_cell_angle_gamma	87.607996
loop_
_atom_site_label
_atom_site_type_symbol
_atom_site_fract_x
_atom_site_fract_y
_atom_site_fract_z
Zn1	Zn	0.968491	-0.279375	0.365231
Zn2	Zn	1.468491	0.220625	0.865231
Zn3	Zn	0.972862	-0.396799	0.264928
Zn4	Zn	1.472862	0.103201	0.764928
Zn5	Zn	0.863707	-0.279408	0.260434
Zn6	Zn	1.363707	0.220592	0.760434
Zn7	Zn	0.868145	-0.396813	0.369634
Zn8	Zn	1.368145	0.103187	0.869634
O9	O	0.918301	-0.338099	0.315057
O10	O	1.418301	0.161901	0.815057
O11	O	1.056748	-0.294932	0.351965
O12	O	1.556748	0.205068	0.851965
O13	O	0.958355	-0.381234	0.176655
O14	O	1.458355	0.118766	0.676655
O15	O	0.873921	-0.181127	0.270612
O16	O	1.373921	0.318873	0.770612
O17	O	1.059960	-0.381202	0.278272
O18	O	1.559960	0.118798	0.778272
O19	O	0.950905	-0.181103	0.347606
O20	O	1.450905	0.318897	0.847606
O21	O	0.878160	-0.294988	0.173353
O22	O	1.378160	0.205012	0.673353
O23	O	0.776619	-0.295002	0.274881
O24	O	1.276619	0.204998	0.774881
O25	O	0.881483	-0.381227	0.456727
O26	O	1.381483	0.118773	0.956727
O27	O	0.779879	-0.381259	0.355110
O28	O	1.279879	0.118741	0.855110
O29	O	0.955208	-0.294946	0.453493
O30	O	1.455208	0.205054	0.953493
O31	O	0.962658	-0.495077	0.282541
O32	O	1.462658	0.004923	0.782541
O33	O	0.885722	-0.495088	0.359468
O34	O	1.385722	0.004912	0.859468
C35	C	0.755515	-0.338136	0.314986
C36	C	1.255515	0.161864	0.814986
C37	C	0.685875	-0.338169	0.314971
C38	C	1.185875	0.161831	0.814971
C39	C	0.654878	-0.383142	0.356688
C40	C	1.154878	0.116858	0.856688
C41	C	0.589442	-0.383125	0.356715
C42	C	1.089442	0.116875	0.856715
C43	C	0.555006	-0.338142	0.315014
C44	C	1.055006	0.161858	0.815014
C45	C	0.586010	-0.293159	0.273294
C46	C	1.086010	0.206841	0.773294
C47	C	0.651445	-0.293173	0.273272
C48	C	1.151445	0.206827	0.773272
C49	C	0.451066	-0.332484	0.258393
C50	C	0.951066	0.167516	0.758393
C51	C	0.385633	-0.332475	0.258414
C52	C	0.885633	0.167525	0.758414
C53	C	0.353183	-0.338096	0.315082
C54	C	0.853183	0.161904	0.815082
C55	C	0.386176	-0.343739	0.371730
C56	C	0.886176	0.156261	0.871730
C57	C	0.451611	-0.343753	0.371709
C58	C	0.951611	0.156247	0.871709
C59	C	0.484053	-0.338122	0.315033
C60	C	0.984053	0.161878	0.815033
C61	C	0.251233	-0.383053	0.356832
C62	C	0.751233	0.116947	0.856832
C63	C	0.185796	-0.383031	0.356860
C64	C	0.685796	0.116969	0.856860
C65	C	0.182366	-0.293069	0.273433
C66	C	0.682366	0.206931	0.773433
C67	C	0.247802	-0.293087	0.273411
C68	C	0.747802	0.206913	0.773411
C69	C	0.282232	-0.338083	0.315109
C70	C	0.782232	0.161917	0.815109
C71	C	0.925163	-0.520565	0.321984
C72	C	1.425163	-0.020565	0.821984
C73	C	0.928155	-0.598624	0.324968
C74	C	1.428155	-0.098624	0.824968
C75	C	0.947139	-1.040110	0.343871
C76	C	1.447139	-0.540110	0.843871
C77	C	0.944320	-0.966765	0.341061
C78	C	1.444320	-0.466765	0.841061
C79	C	0.902862	-0.930171	0.299543
C80	C	1.402862	-0.430171	0.799543
C81	C	0.864223	-0.966926	0.260828
C82	C	1.364223	-0.466926	0.760828
C83	C	0.867046	-1.040270	0.263634
C84	C	1.367046	-0.540270	0.763634
C85	C	0.892339	-0.708723	0.289059
C86	C	1.392339	-0.208723	0.789059
C87	C	0.889519	-0.635374	0.286256
C88	C	1.389519	-0.135374	0.786256
C89	C	0.969617	-0.635218	0.366490
C90	C	1.469617	-0.135218	0.866490
C91	C	0.972433	-0.708564	0.369295
C92	C	1.472433	-0.208564	0.869295
C93	C	0.933797	-0.745312	0.330578
C94	C	1.433797	-0.245312	0.830578
C95	C	0.899978	-0.855200	0.296672
C96	C	1.399978	-0.355200	0.796672
C97	C	0.936684	-0.820282	0.333446
C98	C	1.436684	-0.320282	0.833446
C99	C	1.081723	-0.338062	0.315129
C100	C	1.581723	0.161938	0.815129
C101	C	1.151364	-0.338046	0.315159
C102	C	1.651364	0.161954	0.815159
C103	C	0.918353	-0.338084	0.478480
C104	C	1.418353	0.161916	0.978480
C105	C	0.918375	-0.338078	0.548121
C106	C	1.418375	0.161922	1.048121
C107	C	0.911431	-0.154920	0.308117
C108	C	1.411431	0.345080	0.808117
C109	C	0.908503	-0.076860	0.305160
C110	C	1.408503	0.423140	0.805160
C111	C	0.918284	-0.338062	0.152268
C112	C	1.418284	0.161938	0.652268
C113	C	0.918376	-0.337870	0.082620
C114	C	1.418376	0.162130	0.582620
C115	C	0.956761	-0.293150	0.579151
C116	C	1.456761	0.206850	1.079151
C117	C	0.956759	-0.293120	0.644585
C118	C	1.456759	0.206880	1.144585
C119	C	0.918378	-0.338031	0.678987
C120	C	1.418378	0.161969	1.178987
C121	C	0.879984	-0.382962	0.647950
C122	C	1.379984	0.117038	1.147950
C123	C	0.879982	-0.382986	0.582516
C124	C	1.379982	0.117014	1.082516
C125	C	0.915808	-0.401267	0.785061
C126	C	1.415808	0.098733	1.285061
C127	C	0.915814	-0.401244	0.850493
C128	C	1.415814	0.098756	1.350493
C129	C	0.918379	-0.337956	0.880805
C130	C	1.418379	0.162044	1.380805
C131	C	0.920951	-0.274689	0.845677
C132	C	1.420951	0.225311	1.345677
C133	C	0.920949	-0.274713	0.780244
C134	C	1.420949	0.225287	1.280244
C135	C	0.918375	-0.338009	0.749939
C136	C	1.418375	0.161991	1.249939
C137	C	0.956765	-0.292991	0.982786
C138	C	1.456765	0.207009	1.482786
C139	C	0.956759	-0.292960	1.048222
C140	C	1.456759	0.207040	1.548222
C141	C	0.879987	-0.382809	1.051586
C142	C	1.379987	0.117191	1.551586
C143	C	0.879990	-0.382834	0.986151
C144	C	1.379990	0.117166	1.486151
C145	C	0.918382	-0.337926	0.951756
C146	C	1.418382	0.162074	1.451756
H147	H	0.682907	-0.419780	0.390643
H148	H	1.182907	0.080220	0.890643
C149	C	0.555338	-0.432604	0.402607
C150	C	1.055338	0.067396	0.902607
N151	N	0.529653	-0.469872	0.437172
N152	N	1.029653	0.030128	0.937172
H153	H	0.557968	-0.256532	0.239342
H154	H	1.057968	0.243468	0.739342
H155	H	0.279268	-0.419688	0.390789
H156	H	0.779268	0.080312	0.890789
C157	C	0.837761	-0.432361	0.685793
C158	C	1.337761	0.067639	1.185793
N159	N	0.805955	-0.469567	0.714297
N160	N	1.305955	0.030433	1.214297
H161	H	0.676682	-0.256548	0.239301
H162	H	1.176682	0.243452	0.739301
C163	C	0.854369	-0.814940	0.251008
C164	C	1.354369	-0.314940	0.751008
N165	N	0.820016	-0.784613	0.216614
N166	N	1.320016	-0.284613	0.716614
C167	C	0.487900	-0.349960	0.434021
C168	C	0.987900	0.150040	0.934021
N169	N	0.515233	-0.354635	0.480955
N170	N	1.015233	0.145365	0.980955
C171	C	0.986833	-0.926343	0.383638
C172	C	1.486833	-0.426343	0.883638
N173	N	1.018860	-0.895898	0.415706
N174	N	1.518860	-0.395898	0.915706
C175	C	0.912985	-0.470839	0.889127
C176	C	1.412985	0.029161	1.389127
N177	N	0.910853	-0.523260	0.918225
N178	N	1.410853	-0.023260	1.418225
H179	H	0.835584	-1.070191	0.232111
H180	H	1.335584	-0.570191	0.732111
C181	C	0.998993	-0.243697	0.678725
C182	C	1.498993	0.256303	1.178725
N183	N	1.030805	-0.206474	0.704438
N184	N	1.530805	0.293526	1.204438
C185	C	0.837764	-0.432262	0.952017
C186	C	1.337764	0.067738	1.452017
N187	N	0.805956	-0.469493	0.926308
N188	N	1.305956	0.030507	1.426308
C189	C	0.923770	-0.205066	0.879016
C190	C	1.423770	0.294934	1.379016
N191	N	0.925895	-0.152628	0.904129
N192	N	1.425895	0.347372	1.404129
C193	C	0.837767	-0.432212	1.089424
C194	C	1.337767	0.067788	1.589424
N195	N	0.805966	-0.469423	1.117928
N196	N	1.305966	0.030577	1.617928
H197	H	0.970442	-0.850080	0.367248
H198	H	1.470442	-0.350080	0.867248
C199	C	0.998992	-0.243586	0.944949
C200	C	1.498992	0.256414	1.444949
N201	N	1.030796	-0.206373	0.916451
N202	N	1.530796	0.293627	1.416451
H203	H	0.359758	-0.348315	0.417874
H204	H	0.859758	0.151685	0.917874
C205	C	1.012119	-0.594789	0.409071
C206	C	1.512119	-0.094789	0.909071
N207	N	1.044135	-0.564337	0.441143
N208	N	1.544135	-0.064337	0.941143
C209	C	0.923769	-0.205120	0.741606
C210	C	1.423769	0.294880	1.241606
N211	N	0.925889	-0.152701	0.712504
N212	N	1.425889	0.347299	1.212504
H213	H	0.160559	-0.419653	0.390835
H214	H	0.660559	0.080347	0.890835
H215	H	0.988023	-0.256582	0.551150
H216	H	1.488023	0.243418	1.051150
C217	C	0.998988	-0.243531	1.082354
C218	C	1.498988	0.256469	1.582354
N219	N	1.030797	-0.206301	1.108064
N220	N	1.530797	0.293699	1.608064
C221	C	0.144489	-0.243586	0.227562
C222	C	0.644489	0.256414	0.727562
N223	N	0.115958	-0.206313	0.193011
N224	N	0.615958	0.293687	0.693011
C225	C	0.818617	-0.926670	0.215157
C226	C	1.318617	-0.426670	0.715157
N227	N	0.784264	-0.896350	0.180760
N228	N	1.284264	-0.396350	0.680760
H229	H	0.358775	-0.327884	0.212288
H230	H	0.858775	0.172116	0.712288
C231	C	0.912999	-0.470895	0.751724
C232	C	1.412999	0.029105	1.251724
N233	N	0.910888	-0.523337	0.726616
N234	N	1.410888	-0.023337	1.226616
C235	C	0.837754	-0.432415	0.548383
C236	C	1.337754	0.067585	1.048383
N237	N	0.805948	-0.469646	0.522672
N238	N	1.305948	0.030354	1.022672
H239	H	0.273040	-0.256468	0.239437
H240	H	0.773040	0.243532	0.739437
C241	C	0.486753	-0.326304	0.196051
C242	C	0.986753	0.173696	0.696051
N243	N	0.513632	-0.321650	0.149095
N244	N	1.013632	0.178350	0.649095
C245	C	0.992749	-1.080357	0.389544
C246	C	1.492749	-0.580357	0.889544
N247	N	1.027105	-1.110669	0.423944
N248	N	1.527105	-0.610669	0.923944
C249	C	0.843921	-0.595122	0.240569
C250	C	1.343921	-0.095122	0.740569
N251	N	0.809581	-0.564805	0.206156
N252	N	1.309581	-0.064805	0.706156
H253	H	1.006200	-0.738353	0.403097
H254	H	1.506200	-0.238353	0.903097
H255	H	0.860879	-0.738636	0.257532
H256	H	1.360879	-0.238636	0.757532
