data_functionalizedCrystal
_audit_creation_method	'MofGen! by Chris Wilmer'
_symmetry_space_group_name_H-M	'P1'
_symmetry_Int_Tables_number	1
_symmetry_cell_setting	triclinic
loop_
_symmetry_equiv_pos_as_xyz
  x,y,z
_cell_length_a	25.639242
_cell_length_b	10.686285
_cell_length_c	10.686551
_cell_angle_alpha	99.084519
_cell_angle_beta	85.593839
_cell_angle_gamma	94.373550
loop_
_atom_site_label
_atom_site_type_symbol
_atom_site_fract_x
_atom_site_fract_y
_atom_site_fract_z
Zn1	Zn	0.835301	0.450297	-0.679351
Zn2	Zn	0.835259	0.678877	-0.450849
Zn3	Zn	0.741633	0.466636	-0.467075
Zn4	Zn	0.754096	0.662482	-0.663019
O5	O	0.791572	0.564573	-0.565074
O6	O	0.908463	0.480643	-0.649085
O7	O	0.817606	0.664423	-0.275369
O8	O	0.748860	0.286845	-0.508859
O9	O	0.908432	0.648579	-0.481205
O10	O	0.817678	0.274841	-0.664818
O11	O	0.748820	0.508490	-0.287290
O12	O	0.670119	0.492592	-0.493022
O13	O	0.770101	0.620635	-0.842818
O14	O	0.679275	0.636478	-0.636982
O15	O	0.829763	0.464745	-0.854817
O16	O	0.829690	0.854326	-0.465368
O17	O	0.770060	0.842280	-0.621249
C18	C	0.801238	0.894356	-0.539803
C19	C	0.805422	1.035436	-0.529035
C20	C	0.655726	0.564530	-0.564991
C21	C	0.597612	0.564539	-0.564984
C22	C	0.801327	0.539038	-0.896164
C23	C	0.805484	0.528157	-1.037255
C24	C	0.242031	0.639637	-0.639946
C25	C	0.187427	0.639643	-0.639965
O26	O	0.163253	0.703436	-0.703633
N27	N	0.155337	0.564602	-0.565154
C28	C	0.177852	0.489540	-0.490327
O29	O	0.145542	0.425711	-0.426697
C30	C	0.232455	0.489527	-0.490316
C31	C	0.264543	0.564583	-0.565123
C32	C	0.274119	0.714685	-0.714748
C33	C	0.328719	0.714680	-0.714726
C34	C	0.351230	0.639627	-0.639903
C35	C	0.319142	0.564578	-0.565101
C36	C	0.254969	0.414459	-0.415497
C37	C	0.309576	0.414453	-0.415493
C38	C	0.341664	0.489509	-0.490300
C39	C	0.396254	0.489520	-0.490256
N40	N	0.428345	0.564562	-0.565068
C41	C	0.405833	0.639615	-0.639891
C42	C	0.063183	0.489569	-0.490359
C43	C	0.008582	0.489588	-0.490363
C44	C	0.018161	0.639689	-0.640003
C45	C	0.072764	0.639677	-0.639992
C46	C	0.095274	0.564611	-0.565171
C47	C	0.520496	0.639600	-0.639839
C48	C	0.575100	0.639593	-0.639807
C49	C	0.565516	0.489487	-0.490173
C50	C	0.510917	0.489499	-0.490199
C51	C	0.488408	0.564559	-0.565043
O52	O	0.420465	0.425755	-0.426625
O53	O	0.438149	0.703420	-0.703524
C54	C	0.927949	0.564618	-0.565157
C55	C	0.986065	0.564636	-0.565192
C56	C	0.781884	0.233500	-0.590470
C57	C	0.777755	0.092416	-0.601293
C58	C	0.781883	0.589917	-0.235278
C59	C	0.777817	0.600440	-0.094216
H60	H	0.601225	0.700717	-0.700725
N61	N	0.742136	1.014082	-0.694153
H62	H	0.744096	0.921023	-0.688945
H63	H	0.753589	1.030146	-0.783093
H64	H	0.832308	1.094590	-0.458919
H65	H	0.750952	0.670654	-1.035044
N66	N	-0.026025	0.408648	-0.409668
H67	H	-0.048912	0.464685	-0.346817
H68	H	-0.003437	0.361118	-0.362351
H69	H	0.502177	0.700718	-0.700787
H70	H	0.098887	0.700792	-0.700908
N71	N	-0.006127	0.720635	-0.720713
H72	H	0.022484	0.768182	-0.768105
H73	H	-0.028592	0.783285	-0.664450
H74	H	0.228851	0.353345	-0.354578
N75	N	0.363324	0.795631	-0.795413
H76	H	0.340771	0.843169	-0.842812
H77	H	0.386207	0.739518	-0.858192
N78	N	0.249844	0.795650	-0.795449
H79	H	0.278464	0.843186	-0.842823
H80	H	0.227383	0.858311	-0.739184
N81	N	0.841077	0.435145	-1.115618
H82	H	0.868421	0.482539	-1.166679
H83	H	0.819672	0.372143	-1.175048
N84	N	0.087461	0.408599	-0.409656
H85	H	0.058842	0.361067	-0.362272
H86	H	0.109889	0.464698	-0.346864
N87	N	0.333854	0.333478	-0.334800
H88	H	0.305238	0.285936	-0.287420
H89	H	0.356281	0.389578	-0.272005
H90	H	0.484789	0.428385	-0.429283
H91	H	0.583855	0.428384	-0.429249
