data_functionalizedCrystal
_audit_creation_method	'MofGen! by Chris Wilmer'
_symmetry_space_group_name_H-M	'P1'
_symmetry_Int_Tables_number	1
_symmetry_cell_setting	triclinic
loop_
_symmetry_equiv_pos_as_xyz
  x,y,z
_cell_length_a	13.032721
_cell_length_b	12.827893
_cell_length_c	12.827885
_cell_angle_alpha	89.980728
_cell_angle_beta	97.149035
_cell_angle_gamma	97.204267
loop_
_atom_site_label
_atom_site_type_symbol
_atom_site_fract_x
_atom_site_fract_y
_atom_site_fract_z
Zn1	Zn	-0.415987	1.544798	-0.643644
Zn2	Zn	0.084013	2.044798	-0.143644
Zn3	Zn	-0.590766	1.522478	-0.491086
Zn4	Zn	-0.090766	2.022478	0.008914
Zn5	Zn	-0.416038	1.370033	-0.468924
Zn6	Zn	0.083962	1.870033	0.031076
Zn7	Zn	-0.590688	1.347821	-0.665776
Zn8	Zn	-0.090688	1.847821	-0.165776
O9	O	-0.503370	1.446282	-0.567357
O10	O	-0.003370	1.946282	-0.067357
O11	O	-0.439183	1.688072	-0.623419
O12	O	0.060817	2.188072	-0.123419
O13	O	-0.567642	1.502211	-0.341917
O14	O	-0.067642	2.002211	0.158083
O15	O	-0.269794	1.411853	-0.473563
O16	O	0.230206	1.911853	0.026437
O17	O	-0.567593	1.671673	-0.511336
O18	O	-0.067593	2.171673	-0.011336
O19	O	-0.269756	1.540252	-0.601929
O20	O	0.230244	2.040252	-0.101929
O21	O	-0.439270	1.390210	-0.325634
O22	O	0.060730	1.890210	0.174366
O23	O	-0.439194	1.220852	-0.495024
O24	O	0.060806	1.720852	0.004976
O25	O	-0.567460	1.373995	-0.809070
O26	O	-0.067460	1.873995	-0.309070
O27	O	-0.567509	1.204532	-0.639651
O28	O	-0.067509	1.704532	-0.139651
O29	O	-0.439108	1.518714	-0.792809
O30	O	0.060892	2.018714	-0.292809
O31	O	-0.736993	1.480672	-0.532797
O32	O	-0.236993	1.980672	-0.032797
O33	O	-0.736936	1.352352	-0.661141
O34	O	-0.236936	1.852352	-0.161141
C35	C	-0.503350	1.174775	-0.567335
C36	C	-0.003350	1.674775	-0.067335
C37	C	-0.503366	1.058620	-0.567353
C38	C	-0.003366	1.558620	-0.067353
C39	C	-0.439806	0.894847	-0.495910
C40	C	0.060194	1.394847	0.004090
C41	C	-0.439788	1.014900	-0.495889
C42	C	0.060212	1.514900	0.004111
C43	C	-0.774882	1.411708	-0.601798
C44	C	-0.274882	1.911708	-0.101798
C45	C	-0.891037	1.397013	-0.616567
C46	C	-0.391037	1.897013	-0.116567
C47	C	-0.942815	1.454008	-0.559696
C48	C	-0.442815	1.954008	-0.059696
C49	C	-1.062867	1.438821	-0.574959
C50	C	-0.562867	1.938821	-0.074959
C51	C	-0.230797	1.481020	-0.532805
C52	C	0.269203	1.981020	-0.032805
C53	C	-0.114643	1.495823	-0.518081
C54	C	0.385357	1.995823	-0.018081
C55	C	-0.503270	1.446366	-0.839915
C56	C	-0.003270	1.946366	-0.339915
C57	C	-0.503227	1.446402	-0.956063
C58	C	-0.003227	1.946402	-0.456063
C59	C	-0.503391	1.718850	-0.567381
C60	C	-0.003391	2.218850	-0.067381
C61	C	-0.503400	1.835002	-0.567391
C62	C	-0.003400	2.335002	-0.067391
C63	C	-0.439702	1.518022	-0.999800
C64	C	0.060298	2.018022	-0.499800
C65	C	-0.439656	1.518061	-1.119844
C66	C	0.060344	2.018061	-0.619844
C67	C	-0.503394	1.446269	-0.295851
C68	C	-0.003394	1.946269	0.204149
C69	C	-0.503143	1.446473	-0.179666
C70	C	-0.003143	1.946473	0.320334
H71	H	-0.557817	1.007191	-0.628551
H72	H	-0.057817	1.507191	-0.128551
O73	O	-1.055655	1.575367	-0.438618
O74	O	-0.555655	2.075367	0.061382
H75	H	-1.006009	1.534866	-0.379134
H76	H	-0.506009	2.034866	0.120866
O77	O	-0.575225	1.365214	-1.024177
O78	O	-0.075225	1.865214	-0.524177
H79	H	-0.557313	1.285457	-1.001016
H80	H	-0.057313	1.785457	-0.501016
H81	H	-0.557536	1.385157	-1.142030
H82	H	-0.057536	1.885157	-0.642030
O83	O	-0.575502	0.884849	-0.648443
O84	O	-0.075502	1.384849	-0.148443
H85	H	-0.557685	0.866264	-0.728248
H86	H	-0.057685	1.366264	-0.228248
O87	O	-0.367726	0.844998	-0.414837
O88	O	0.132274	1.344998	0.085163
H89	H	-0.379071	0.758524	-0.427559
H90	H	0.120929	1.258524	0.072441
H91	H	-0.898270	1.514051	-0.499712
H92	H	-0.398270	2.014051	0.000288
H93	H	-1.107411	1.378782	-0.634956
H94	H	-0.607411	1.878782	-0.134956
H95	H	-0.385347	1.066334	-0.434689
H96	H	0.114653	1.566334	0.065311
H97	H	-0.935584	1.336978	-0.676559
H98	H	-0.435584	1.836978	-0.176559
H99	H	-0.385345	1.579306	-0.948371
H100	H	0.114655	2.079306	-0.448371
H101	H	-0.385273	1.579380	-1.157488
H102	H	0.114727	2.079380	-0.657488
