data_functionalizedCrystal
_audit_creation_method	'MofGen! by Chris Wilmer'
_symmetry_space_group_name_H-M	'P1'
_symmetry_Int_Tables_number	1
_symmetry_cell_setting	triclinic
loop_
_symmetry_equiv_pos_as_xyz
  x,y,z
_cell_length_a	10.654550
_cell_length_b	10.540539
_cell_length_c	9.730223
_cell_angle_alpha	90.000775
_cell_angle_beta	89.996251
_cell_angle_gamma	84.505197
loop_
_atom_site_label
_atom_site_type_symbol
_atom_site_fract_x
_atom_site_fract_y
_atom_site_fract_z
O1	O	1.667897	0.178295	-0.114396
O2	O	1.302424	0.195282	-0.114373
O3	O	1.493499	0.002079	-0.114383
O4	O	1.476822	0.371498	-0.114386
O5	O	1.493496	0.002084	0.114197
O6	O	1.302422	0.195287	0.114207
O7	O	1.667895	0.178300	0.114184
Zn8	Zn	1.485158	0.186794	0.150487
Zn9	Zn	1.485161	0.186788	-0.150677
O10	O	1.476820	0.371503	0.114194
C11	C	1.255625	0.194038	-0.000080
C12	C	1.116180	0.190306	-0.000072
C13	C	1.492247	-0.045221	-0.000096
C14	C	1.488505	-0.186168	-0.000103
C15	C	1.036734	0.304061	-0.000093
C16	C	0.905712	0.300547	-0.000116
C17	C	0.933595	0.069513	-0.000104
C18	C	1.064614	0.073028	-0.000071
C19	C	1.020636	0.437446	-0.000106
C20	C	0.889614	0.433932	-0.000129
C21	C	1.345134	-0.369543	-0.000607
C22	C	1.348927	-0.222926	-0.000093
C23	C	1.555675	-0.247847	0.130423
C24	C	1.550912	-0.394389	0.130533
C25	C	1.553753	-0.394914	-0.129405
C26	C	1.555039	-0.247933	-0.131131
C27	C	1.714694	0.179545	-0.000112
C28	C	1.854139	0.183276	-0.000129
C29	C	1.478072	0.418803	-0.000096
C30	C	1.481813	0.559750	-0.000098
N31	N	1.485165	0.186798	0.356024
N32	N	1.485164	0.186774	-0.356213
C33	C	1.569795	0.101277	0.427945
C34	C	1.569791	0.101261	0.571828
C35	C	1.400525	0.272299	0.571855
C36	C	1.400523	0.272308	0.427975
C37	C	1.667523	0.002533	0.427931
C38	C	1.667520	0.002518	0.571814
H39	H	0.891593	-0.025971	-0.000125
H40	H	1.636975	-0.089689	0.616432
H41	H	1.646046	-0.095040	0.388879
H42	H	1.509014	-0.205228	0.227563
H43	H	1.508579	-0.426453	-0.228336
N44	N	0.832345	0.484492	0.123677
N45	N	0.899021	0.525297	0.216411
H46	H	0.858576	0.560999	0.303851
H47	H	1.056307	0.479916	-0.098793
N48	N	1.684255	-0.219822	0.136502
N49	N	1.709875	-0.106672	0.142254
H50	H	1.800684	-0.086874	0.146543
H51	H	1.296074	-0.180306	-0.093659
H52	H	0.847900	0.484188	-0.095797
N53	N	1.275979	-0.405395	-0.118042
N54	N	1.326612	-0.483481	-0.202733
H55	H	1.277773	-0.508807	-0.285679
H56	H	1.758718	0.033451	0.383299
N57	N	1.314048	0.359654	0.354530
N58	N	1.238482	0.435987	0.418792
H59	H	1.177402	0.497677	0.366923
N60	N	1.276278	-0.407403	0.116193
N61	N	1.315550	-0.388323	0.234749
H62	H	1.266931	-0.415065	0.317247
H63	H	1.295701	-0.181149	0.093636
H64	H	1.505891	-0.207059	-0.227690
H65	H	1.501268	-0.422569	0.228111
N66	N	1.145748	-0.043181	-0.000024
N67	N	1.099687	-0.147879	-0.000021
H68	H	1.156988	-0.229958	0.000013
H69	H	1.656802	-0.223748	-0.139019
H70	H	1.764039	0.024268	0.610858
N71	N	1.676831	-0.454624	0.138007
N72	N	1.709075	-0.526540	0.236563
H73	H	1.798004	-0.569078	0.241851
H74	H	1.049984	0.489615	0.095560
N75	N	1.680224	-0.454206	-0.130557
N76	N	1.753599	-0.430692	-0.225466
H77	H	1.842915	-0.472572	-0.226274
N78	N	1.314073	0.359628	0.645376
N79	N	1.314077	0.359603	0.773839
H80	H	1.253019	0.421280	0.825763
