data_functionalizedCrystal
_audit_creation_method	'MofGen! by Chris Wilmer'
_symmetry_space_group_name_H-M	'P1'
_symmetry_Int_Tables_number	1
_symmetry_cell_setting	triclinic
loop_
_symmetry_equiv_pos_as_xyz
  x,y,z
_cell_length_a	19.077105
_cell_length_b	19.077068
_cell_length_c	18.215407
_cell_angle_alpha	87.719460
_cell_angle_beta	92.301445
_cell_angle_gamma	90.115316
loop_
_atom_site_label
_atom_site_type_symbol
_atom_site_fract_x
_atom_site_fract_y
_atom_site_fract_z
Zn1	Zn	1.062871	-0.323082	0.474259
Zn2	Zn	1.396205	0.010251	0.807593
Zn3	Zn	1.729538	0.343585	1.140926
Zn4	Zn	1.058088	-0.440566	0.355920
Zn5	Zn	1.391421	-0.107232	0.689254
Zn6	Zn	1.724754	0.226101	1.022587
Zn7	Zn	0.945396	-0.318349	0.346080
Zn8	Zn	1.278729	0.014984	0.679413
Zn9	Zn	1.612062	0.348318	1.012746
Zn10	Zn	0.940606	-0.435824	0.473817
Zn11	Zn	1.273940	-0.102490	0.807151
Zn12	Zn	1.607273	0.230843	1.140484
O13	O	1.001740	-0.379455	0.412519
O14	O	1.335074	-0.046122	0.745853
O15	O	1.668407	0.287212	1.079186
O16	O	1.160567	-0.342632	0.462865
O17	O	1.493900	-0.009298	0.796198
O18	O	1.827234	0.324035	1.129531
O19	O	1.043141	-0.424357	0.251631
O20	O	1.376475	-0.091024	0.584964
O21	O	1.709808	0.242310	0.918298
O22	O	0.964985	-0.220646	0.359150
O23	O	1.298319	0.112687	0.692483
O24	O	1.631652	0.446021	1.025816
O25	O	1.157053	-0.428946	0.375922
O26	O	1.490386	-0.095613	0.709255
O27	O	1.823719	0.237720	1.042588
O28	O	1.051294	-0.224123	0.453323
O29	O	1.384627	0.109210	0.786656
O30	O	1.717961	0.442543	1.119989
O31	O	0.960347	-0.334565	0.244401
O32	O	1.293680	-0.001232	0.577734
O33	O	1.627013	0.332102	0.911068
O34	O	0.846430	-0.329967	0.358721
O35	O	1.179763	0.003366	0.692054
O36	O	1.513097	0.336700	1.025388
O37	O	0.956823	-0.420864	0.576860
O38	O	1.290156	-0.087531	0.910193
O39	O	1.623489	0.245802	1.243527
O40	O	0.842911	-0.416275	0.452569
O41	O	1.176245	-0.082942	0.785903
O42	O	1.509578	0.250392	1.119236
O43	O	1.046650	-0.338034	0.577185
O44	O	1.379984	-0.004700	0.910518
O45	O	1.713317	0.328633	1.243851
O46	O	1.038497	-0.538267	0.375493
O47	O	1.371831	-0.204934	0.708826
O48	O	1.705164	0.128399	1.042160
O49	O	0.952184	-0.534783	0.462111
O50	O	1.285518	-0.201450	0.795445
O51	O	1.618851	0.131883	1.128778
C52	C	0.819175	-0.372093	0.404530
C53	C	1.152508	-0.038760	0.737863
C54	C	1.485841	0.294573	1.071196
C55	C	0.741072	-0.368961	0.401130
C56	C	1.074405	-0.035628	0.734463
C57	C	1.407738	0.297706	1.067797
C58	C	0.702562	-0.412493	0.448323
C59	C	1.035896	-0.079160	0.781657
C60	C	1.369229	0.254174	1.114990
C61	C	0.629177	-0.409540	0.445132
C62	C	0.962510	-0.076207	0.778465
C63	C	1.295843	0.257126	1.111799
C64	C	0.594301	-0.363059	0.394743
C65	C	0.927635	-0.029726	0.728077
C66	C	1.260968	0.303608	1.061410
C67	C	0.632816	-0.319522	0.347548
C68	C	0.966149	0.013811	0.680881
C69	C	1.299483	0.347145	1.014215
C70	C	0.706200	-0.322472	0.350743
C71	C	1.039534	0.010862	0.684077
C72	C	1.372867	0.344195	1.017410
C73	C	0.375020	-0.349408	0.379958
C74	C	0.708353	-0.016075	0.713292
C75	C	1.041687	0.317258	1.046625
C76	C	0.301630	-0.346464	0.376765
C77	C	0.634964	-0.013130	0.710098
C78	C	0.968297	0.320203	1.043432
C79	C	0.297996	-0.436481	0.474350
C80	C	0.631329	-0.103148	0.807684
C81	C	0.964663	0.230185	1.141017
C82	C	0.371382	-0.439430	0.477538
C83	C	0.704715	-0.106096	0.810872
C84	C	1.038049	0.227237	1.144205
C85	C	0.409890	-0.395890	0.430346
C86	C	0.743224	-0.062557	0.763679
C87	C	1.076557	0.270776	1.097012
N88	N	0.519289	-0.360041	0.391479
N89	N	0.852623	-0.026708	0.724812
N90	N	1.185956	0.306625	1.058145
N91	N	0.484901	-0.398905	0.433614
N92	N	0.818234	-0.065571	0.766948
N93	N	1.151568	0.267762	1.100281
C94	C	0.994321	-0.562022	0.419839
C95	C	1.327654	-0.228689	0.753172
C96	C	1.660988	0.104645	1.086505
C97	C	0.991211	-0.640128	0.422998
C98	C	1.324545	-0.306794	0.756331
C99	C	1.657878	0.026539	1.089664
C100	C	1.034724	-0.678614	0.379425
C101	C	1.368057	-0.345280	0.712758
C102	C	1.701391	-0.011947	1.046091
C103	C	1.031803	-0.752002	0.382400
C104	C	1.365137	-0.418669	0.715733
C105	C	1.698470	-0.085336	1.049067
C106	C	0.985366	-0.786903	0.428945
C107	C	1.318700	-0.453570	0.762279
C108	C	1.652033	-0.120237	1.095612
C109	C	0.941852	-0.748412	0.472523
C110	C	1.275185	-0.415079	0.805857
C111	C	1.608519	-0.081745	1.139190
C112	C	0.944777	-0.675025	0.469551
C113	C	1.278110	-0.341692	0.802884
C114	C	1.611443	-0.008358	1.136218
C115	C	0.971800	-1.006195	0.442670
C116	C	1.305133	-0.672861	0.776003
C117	C	1.638467	-0.339528	1.109336
C118	C	0.968877	-1.079587	0.445637
C119	C	1.302210	-0.746254	0.778970
C120	C	1.635544	-0.412920	1.112303
C121	C	1.058830	-1.083172	0.355514
C122	C	1.392163	-0.749839	0.688848
C123	C	1.725496	-0.416506	1.022181
C124	C	1.061747	-1.009784	0.352543
C125	C	1.395081	-0.676450	0.685876
C126	C	1.728414	-0.343117	1.019210
C127	C	1.018236	-0.971299	0.396124
C128	C	1.351569	-0.637966	0.729457
C129	C	1.684902	-0.304632	1.062790
N130	N	0.982378	-0.861918	0.431986
N131	N	1.315712	-0.528585	0.765319
N132	N	1.649045	-0.195251	1.098653
N133	N	1.021228	-0.896286	0.393086
N134	N	1.354561	-0.562952	0.726420
N135	N	1.687894	-0.229619	1.059753
C136	C	1.185019	-0.386846	0.420540
C137	C	1.518352	-0.053513	0.753874
C138	C	1.851685	0.279821	1.087207
C139	C	1.263121	-0.389996	0.423958
C140	C	1.596454	-0.056662	0.757292
C141	C	1.929788	0.276671	1.090625
C142	C	1.001736	-0.379448	0.604472
C143	C	1.335069	-0.046115	0.937805
C144	C	1.668402	0.287219	1.271138
C145	C	1.001734	-0.379445	0.686270
C146	C	1.335067	-0.046112	1.019604
C147	C	1.668401	0.287222	1.352937
C148	C	1.009207	-0.196176	0.405188
C149	C	1.342541	0.137157	0.738521
C150	C	1.675874	0.470491	1.071855
C151	C	1.012390	-0.118073	0.402064
C152	C	1.345723	0.215260	0.735397
C153	C	1.679056	0.548593	1.068730
C154	C	0.958623	-0.332708	0.870701
C155	C	1.291956	0.000625	1.204035
C156	C	1.625290	0.333958	1.537368
C157	C	0.958620	-0.332714	0.947560
C158	C	1.291953	0.000620	1.280893
C159	C	1.625286	0.333953	1.614227
C160	C	1.044838	-0.426214	0.955078
C161	C	1.378171	-0.092881	1.288411
C162	C	1.711505	0.240453	1.621745
C163	C	1.044837	-0.426211	0.878221
C164	C	1.378170	-0.092878	1.211554
C165	C	1.711504	0.240455	1.544887
C166	C	1.001731	-0.379455	0.836034
C167	C	1.335064	-0.046121	1.169367
C168	C	1.668397	0.287212	1.502701
C169	C	1.001729	-0.379463	0.989750
C170	C	1.335062	-0.046129	1.323084
C171	C	1.668395	0.287204	1.656417
C172	C	1.001725	-0.379469	1.073084
C173	C	1.335059	-0.046136	1.406417
C174	C	1.668392	0.287198	1.739751
C175	C	1.001733	-0.379449	0.752695
C176	C	1.335066	-0.046116	1.086028
C177	C	1.668399	0.287218	1.419362
C178	C	1.001735	-0.379476	1.221314
C179	C	1.335068	-0.046142	1.554647
C180	C	1.668402	0.287191	1.887980
C181	C	1.001725	-0.379472	1.139514
C182	C	1.335059	-0.046139	1.472847
C183	C	1.668392	0.287194	1.806181
H184	H	0.730952	-0.450346	0.489353
H185	H	1.064286	-0.117012	0.822686
H186	H	1.397619	0.216321	1.156020
H187	H	0.923516	-0.294649	0.975782
H188	H	1.256850	0.038684	1.309116
H189	H	1.590183	0.372018	1.642449
N190	N	0.912126	-0.282290	0.825195
N191	N	1.245459	0.051044	1.158528
N192	N	1.578792	0.384377	1.491861
H193	H	0.942006	-0.250875	0.793256
H194	H	1.275340	0.082459	1.126589
H195	H	1.608673	0.415792	1.459922
H196	H	0.884822	-0.252724	0.858867
H197	H	1.218155	0.080609	1.192200
H198	H	1.551488	0.413942	1.525534
H199	H	0.931071	-1.108001	0.483553
H200	H	1.264404	-0.774668	0.816886
H201	H	1.597737	-0.441335	1.150219
H202	H	0.406365	-0.313961	0.341525
H203	H	0.739698	0.019373	0.674859
H204	H	1.073031	0.352706	1.008192
H205	H	1.079934	-0.464281	0.989435
H206	H	1.413268	-0.130948	1.322769
H207	H	1.746601	0.202386	1.656102
N208	N	0.587640	-0.456503	0.496023
N209	N	0.920974	-0.123169	0.829356
N210	N	1.254307	0.210164	1.162690
H211	H	0.620869	-0.486402	0.528422
H212	H	0.954202	-0.153069	0.861755
H213	H	1.287536	0.180264	1.195088
H214	H	0.555874	-0.487747	0.465974
H215	H	0.889207	-0.154414	0.799307
H216	H	1.222540	0.178919	1.132640
H217	H	1.079942	-0.464281	0.849994
H218	H	1.413276	-0.130947	1.183328
H219	H	1.746609	0.202386	1.516661
H220	H	0.904045	-0.776834	0.510425
H221	H	1.237378	-0.443501	0.843758
H222	H	1.570711	-0.110167	1.177091
H223	H	0.399772	-0.477282	0.518568
H224	H	0.733106	-0.143948	0.851902
H225	H	1.066439	0.189385	1.185235
H226	H	0.266635	-0.471928	0.512773
H227	H	0.599968	-0.138594	0.846106
H228	H	0.933302	0.194739	1.179440
H229	H	0.604415	-0.281673	0.306524
H230	H	0.937748	0.051661	0.639857
H231	H	1.271081	0.384994	0.973190
N232	N	0.747736	-0.275524	0.299836
N233	N	1.081070	0.057810	0.633169
N234	N	1.414403	0.391143	0.966503
H235	H	0.799517	-0.284443	0.309507
H236	H	1.132850	0.048890	0.642840
H237	H	1.466183	0.382223	0.976174
H238	H	0.736947	-0.224840	0.308807
H239	H	1.070281	0.108493	0.642140
H240	H	1.403614	0.441826	0.975473
H241	H	0.273237	-0.308605	0.335737
H242	H	0.606571	0.024729	0.669070
H243	H	0.939904	0.358062	1.002403
N244	N	0.897848	-0.633511	0.516550
N245	N	1.231181	-0.300178	0.849883
N246	N	1.564515	0.033155	1.183216
H247	H	0.867985	-0.666755	0.546486
H248	H	1.201319	-0.333422	0.879820
H249	H	1.534652	-0.000088	1.213153
H250	H	0.866565	-0.601793	0.483914
H251	H	1.199899	-0.268460	0.817247
H252	H	1.533232	0.064874	1.150581
H253	H	1.072535	-0.650202	0.341519
H254	H	1.405868	-0.316869	0.674853
H255	H	1.739202	0.016464	1.008186
H256	H	1.099560	-0.981369	0.314642
H257	H	1.432893	-0.648036	0.647976
H258	H	1.766227	-0.314702	0.981309
N259	N	1.078734	-0.793513	0.335404
N260	N	1.412068	-0.460180	0.668737
N261	N	1.745401	-0.126847	1.002070
H262	H	1.108592	-0.760268	0.305463
H263	H	1.441925	-0.426934	0.638796
H264	H	1.775259	-0.093601	0.972130
H265	H	1.048942	-0.822852	0.301309
H266	H	1.382275	-0.489518	0.634643
H267	H	1.715608	-0.156185	0.967976
H268	H	0.936370	-0.974866	0.478153
H269	H	1.269703	-0.641533	0.811487
H270	H	1.603036	-0.308199	1.144820
H271	H	1.094256	-1.114515	0.320035
H272	H	1.427589	-0.781181	0.653368
H273	H	1.760922	-0.447848	0.986701
