data_functionalizedCrystal
_audit_creation_method	'MofGen! by Chris Wilmer'
_symmetry_space_group_name_H-M	'P1'
_symmetry_Int_Tables_number	1
_symmetry_cell_setting	triclinic
loop_
_symmetry_equiv_pos_as_xyz
  x,y,z
_cell_length_a	6.817900
_cell_length_b	12.200863
_cell_length_c	16.255661
_cell_angle_alpha	94.285294
_cell_angle_beta	103.488922
_cell_angle_gamma	107.143441
loop_
_atom_site_label
_atom_site_type_symbol
_atom_site_fract_x
_atom_site_fract_y
_atom_site_fract_z
V1	V	-4.045305	-0.159639	-0.263958
V2	V	-3.545305	0.340361	0.236042
O3	O	-4.013408	0.006718	-0.258844
O4	O	-3.513408	0.506718	0.241156
O5	O	-4.015024	-0.315621	-0.262237
O6	O	-3.515024	0.184379	0.237763
O7	O	-3.996630	-0.157602	-0.379040
O8	O	-3.496630	0.342398	0.120960
O9	O	-4.031930	-0.152395	-0.141233
O10	O	-3.531930	0.347605	0.358767
V11	V	-4.526621	-0.139692	-0.249268
V12	V	-4.026621	0.360308	0.250732
O13	O	-4.311405	-0.203396	-0.296179
O14	O	-3.811405	0.296604	0.203821
O15	O	-4.710718	-0.095935	-0.217047
O16	O	-4.210718	0.404065	0.282953
O17	O	-4.333695	0.016290	-0.250989
O18	O	-3.833695	0.516290	0.249011
O19	O	-4.675915	-0.306049	-0.254382
O20	O	-4.175915	0.193951	0.245618
O21	O	-4.657393	-0.146936	-0.371993
O22	O	-4.157393	0.353064	0.128007
O23	O	-4.352090	-0.141729	-0.134186
O24	O	-3.852090	0.358271	0.365814
C25	C	-3.864442	-0.353633	-0.258095
C26	C	-3.364442	0.146367	0.241905
C27	C	-3.920969	-0.481153	-0.257456
C28	C	-3.420969	0.018847	0.242544
C29	C	-3.840977	-0.152063	-0.407087
C30	C	-3.340977	0.347937	0.092913
C31	C	-3.882583	-0.151429	-0.501168
C32	C	-3.382583	0.348571	-0.001168
C33	C	-4.024424	-0.714625	-0.256292
C34	C	-3.524424	-0.214625	0.243708
C35	C	-3.966846	-0.584704	-0.256940
C36	C	-3.466846	-0.084704	0.243060
C37	C	-3.792258	-0.143862	-0.723983
C38	C	-3.292258	0.356138	-0.223983
C39	C	-3.960050	-0.241532	-0.793512
C40	C	-3.460050	0.258468	-0.293512
C41	C	-3.958829	-0.150241	-0.673416
C42	C	-3.458829	0.349759	-0.173416
C43	C	-3.865197	-0.051453	-0.771524
C44	C	-3.365197	0.448547	-0.271524
C45	C	-4.032463	-0.149089	-0.839799
C46	C	-3.532463	0.350911	-0.339799
C47	C	-4.126113	-0.247999	-0.741715
C48	C	-3.626113	0.252001	-0.241715
C49	C	-4.031188	-0.057834	-0.719712
C50	C	-3.531188	0.442166	-0.219712
C51	C	-4.199120	-0.155532	-0.789221
C52	C	-3.699120	0.344468	-0.289221
C53	C	-3.916406	-0.150906	-0.577567
C54	C	-3.416406	0.349094	-0.077567
C55	C	-4.074904	-0.148433	-0.935647
C56	C	-3.574904	0.351567	-0.435647
C57	C	-4.147621	0.054296	-0.255128
C58	C	-3.647621	0.554296	0.244872
C59	C	-4.070332	0.181814	-0.255773
C60	C	-3.570332	0.681814	0.244227
C61	C	-4.171085	-0.147272	-0.106134
C62	C	-3.671085	0.352728	0.393866
C63	C	-4.108717	-0.147900	-0.012053
C64	C	-3.608717	0.352100	0.487947
H65	H	-3.619944	-0.139054	-0.695500
H66	H	-3.119944	0.360946	-0.195500
H67	H	-4.236014	-0.331153	-0.728293
H68	H	-3.736014	0.168847	-0.228293
H69	H	-3.755291	0.031589	-0.785088
H70	H	-3.255291	0.531589	-0.285088
H71	H	-3.930422	-0.319197	-0.825640
H72	H	-3.430422	0.180803	-0.325640
O73	O	-4.404724	-0.161235	-0.823063
O74	O	-3.904724	0.338765	-0.323063
C75	C	-4.409005	-0.061630	-0.861234
C76	C	-3.909005	0.438370	-0.361234
H77	H	-4.252904	0.011593	-0.831471
H78	H	-3.752904	0.511593	-0.331471
H79	H	-4.547399	-0.033634	-0.850144
H80	H	-4.047399	0.466366	-0.350144
H81	H	-4.430176	-0.082303	-0.932953
H82	H	-3.930176	0.417697	-0.432953
H83	H	-4.060737	0.019835	-0.687561
H84	H	-3.560737	0.519835	-0.187561
