data_functionalizedCrystal
_audit_creation_method	'MofGen! by Chris Wilmer'
_symmetry_space_group_name_H-M	'P1'
_symmetry_Int_Tables_number	1
_symmetry_cell_setting	triclinic
loop_
_symmetry_equiv_pos_as_xyz
  x,y,z
_cell_length_a	16.625546
_cell_length_b	19.805407
_cell_length_c	19.805399
_cell_angle_alpha	90.021064
_cell_angle_beta	89.972133
_cell_angle_gamma	89.978547
loop_
_atom_site_label
_atom_site_type_symbol
_atom_site_fract_x
_atom_site_fract_y
_atom_site_fract_z
Zn1	Zn	-0.321042	-1.034754	-0.382745
Zn2	Zn	-0.455879	-1.034677	-0.269556
Zn3	Zn	-0.321062	-0.921569	-0.269567
Zn4	Zn	-0.455834	-0.921540	-0.382700
O5	O	-0.388454	-0.978135	-0.326142
O6	O	-0.338939	-1.129461	-0.367745
O7	O	-0.438023	-1.019652	-0.174841
O8	O	-0.208227	-0.936628	-0.284603
O9	O	-0.438003	-1.129404	-0.284586
O10	O	-0.208212	-1.019784	-0.367755
O11	O	-0.338973	-0.936553	-0.174849
O12	O	-0.338929	-0.826848	-0.284560
O13	O	-0.437926	-0.936579	-0.477423
O14	O	-0.437946	-0.826827	-0.367678
O15	O	-0.338895	-1.019756	-0.477456
O16	O	-0.568706	-1.019625	-0.284542
O17	O	-0.568672	-0.936504	-0.367668
C18	C	-0.388435	-0.802279	-0.326116
C19	C	-0.388446	-0.727047	-0.326120
C20	C	-0.440081	-0.691710	-0.369329
C21	C	-0.440081	-0.621021	-0.369337
C22	C	-0.388450	-0.585671	-0.326132
C23	C	-0.336809	-0.621014	-0.282921
C24	C	-0.336806	-0.691701	-0.282917
C25	C	-0.336821	-0.335941	-0.282936
C26	C	-0.336830	-0.265248	-0.282942
C27	C	-0.440096	-0.265261	-0.369356
C28	C	-0.440093	-0.335948	-0.369352
C29	C	-0.388450	-0.371284	-0.326144
C30	C	-0.388449	-0.447932	-0.326137
C31	C	-0.388454	-0.509024	-0.326135
C32	C	-0.597945	-0.978071	-0.326114
C33	C	-0.687566	-0.978105	-0.326124
C34	C	-1.015742	-0.978224	-0.326195
C35	C	-0.924433	-0.978189	-0.326177
C36	C	-0.851657	-0.978164	-0.326159
C37	C	-0.760343	-0.978130	-0.326142
C38	C	-0.178145	-0.978218	-0.326185
C39	C	-0.088524	-0.978253	-0.326204
C40	C	-0.388404	-0.978173	-0.502685
C41	C	-0.388382	-0.978189	-0.577917
C42	C	-0.388469	-0.154678	-0.326163
C43	C	-0.388462	-0.229910	-0.326155
C44	C	-0.336814	-1.021501	-0.613279
C45	C	-0.336791	-1.021508	-0.683968
C46	C	-0.388340	-0.978206	-0.719293
C47	C	-0.439910	-0.934890	-0.683925
C48	C	-0.439929	-0.934880	-0.613238
C49	C	-0.439835	-0.934928	-0.968999
C50	C	-0.439814	-0.934942	-1.039691
C51	C	-0.336697	-1.021556	-1.039729
C52	C	-0.336715	-1.021546	-0.969041
C53	C	-0.388282	-0.978227	-0.933680
C54	C	-0.388306	-0.978219	-0.857032
C55	C	-0.388321	-0.978217	-0.795940
C56	C	-0.388447	-0.978136	-0.150286
C57	C	-0.388241	-0.978251	-0.075055
H58	H	-0.294755	-0.720472	-0.247736
H59	H	-0.294781	-0.236469	-0.247759
H60	H	-0.294705	-1.056826	-1.068528
H61	H	-0.482139	-0.364726	-0.404532
H62	H	-0.294839	-1.056764	-0.584523
N63	N	-0.284056	-0.584907	-0.238798
N64	N	-0.232716	-0.545488	-0.262694
H65	H	-0.195458	-0.519988	-0.231531
H66	H	-0.481836	-0.899665	-0.940216
H67	H	-0.294801	-1.056778	-0.712757
N68	N	-0.492855	-0.229176	-0.413498
N69	N	-0.567249	-0.237051	-0.408892
H70	H	-0.604512	-0.211568	-0.440065
N71	N	-0.492847	-0.584929	-0.413459
N72	N	-0.544192	-0.545466	-0.389562
H73	H	-0.581464	-0.519977	-0.420724
N74	N	-0.492556	-0.890656	-0.720017
N75	N	-0.492533	-0.890670	-0.783130
H76	H	-0.529716	-0.859430	-0.808619
H77	H	-0.294776	-0.364703	-0.247748
H78	H	-0.482128	-0.720486	-0.404510
H79	H	-0.294741	-1.056809	-0.940284
H80	H	-0.481793	-0.899678	-1.068450
H81	H	-0.481913	-0.899604	-0.584447
