data_functionalizedCrystal
_audit_creation_method	'MofGen! by Chris Wilmer'
_symmetry_space_group_name_H-M	'P1'
_symmetry_Int_Tables_number	1
_symmetry_cell_setting	triclinic
loop_
_symmetry_equiv_pos_as_xyz
  x,y,z
_cell_length_a	15.944556
_cell_length_b	15.944480
_cell_length_c	18.266242
_cell_angle_alpha	89.991883
_cell_angle_beta	89.982030
_cell_angle_gamma	83.485608
loop_
_atom_site_label
_atom_site_type_symbol
_atom_site_fract_x
_atom_site_fract_y
_atom_site_fract_z
O1	O	-0.108050	-1.114569	0.060884
O2	O	-0.121468	-0.870012	0.060892
O3	O	0.007517	-0.998966	0.060861
O4	O	-0.237036	-0.985615	0.060915
O5	O	0.007523	-0.998944	-0.060901
O6	O	-0.121462	-0.869990	-0.060870
O7	O	-0.108044	-1.114547	-0.060878
Zn8	Zn	-0.114752	-0.992265	-0.080206
Zn9	Zn	-0.114760	-0.992294	0.080220
O10	O	-0.237029	-0.985593	-0.060847
C11	C	-0.120919	-0.838706	0.000011
C12	C	-0.119280	-0.745456	0.000013
C13	C	-0.195211	-0.509697	0.000031
C14	C	-0.154269	-0.459127	-0.060016
C15	C	-0.116244	-0.574734	0.000011
C16	C	-0.154257	-0.459153	0.060032
C17	C	-0.113317	-0.409824	0.000014
C18	C	-0.075323	-0.525392	-0.060085
C19	C	-0.075323	-0.525422	0.060017
C20	C	-0.034323	-0.474884	-0.000045
C21	C	-0.117932	-0.669735	0.000010
C22	C	-0.111622	-0.314826	0.000010
C23	C	0.038814	-0.998400	-0.000025
C24	C	0.132059	-0.996735	-0.000040
C25	C	0.402669	-0.911826	-0.000063
C26	C	0.352091	-0.952770	0.059979
C27	C	0.467700	-0.990799	-0.000068
C28	C	0.352124	-0.952769	-0.060069
C29	C	0.302788	-0.993711	-0.000056
C30	C	0.418350	-1.031721	0.060023
C31	C	0.418387	-1.031709	-0.060079
C32	C	0.367842	-1.072710	-0.000022
C33	C	0.562701	-0.989119	-0.000075
C34	C	0.207789	-0.995397	-0.000044
C35	C	0.731673	-0.986148	0.000004
C36	C	0.638423	-0.987778	-0.000084
N37	N	-0.114745	-0.992251	-0.189693
C38	C	-0.108605	-0.145852	0.000006
C39	C	-0.110278	-0.239096	0.000013
C40	C	-0.057659	-1.049371	-0.228015
C41	C	-0.057655	-1.049376	-0.304660
C42	C	-0.114752	-0.992270	-0.342980
C43	C	-0.171843	-0.935140	-0.304649
C44	C	-0.171839	-0.935130	-0.228005
N45	N	-0.189078	-0.981584	-0.463296
N46	N	-0.189078	-0.981598	-0.536104
C47	C	-0.114764	-0.992294	-0.573903
N48	N	-0.040447	-1.002991	-0.536142
N49	N	-0.040447	-1.002982	-0.463327
C50	C	-0.114761	-0.992274	-0.426087
C51	C	-0.057668	-1.049422	-0.695332
C52	C	-0.057663	-1.049422	-0.771978
C53	C	-0.171859	-0.935189	-0.771965
C54	C	-0.171857	-0.935186	-0.695320
C55	C	-0.114762	-0.992307	-0.657008
N56	N	-0.114760	-0.992314	0.189707
H57	H	-0.187616	-0.430180	-0.110765
N58	N	-0.230156	-0.876807	-0.343799
N59	N	-0.230152	-0.876823	-0.412230
H60	H	-0.271334	-0.835621	-0.439880
N61	N	0.315789	-0.910948	0.123664
N62	N	0.361936	-0.879265	0.168842
H63	H	0.336302	-0.849724	0.213818
H64	H	-0.011176	-1.095931	-0.664137
H65	H	0.033747	-0.459417	-0.000094
N66	N	-0.033522	-0.561520	-0.123846
N67	N	-0.002435	-0.515176	-0.169257
H68	H	0.027084	-0.540691	-0.214290
N69	N	0.315832	-0.910921	-0.123736
N70	N	0.237959	-0.906045	-0.134192
H71	H	0.212327	-0.876486	-0.179154
H72	H	0.447161	-1.065058	0.110829
H73	H	-0.042001	-0.554376	0.110769
N74	N	-0.230176	-0.876833	-0.656182
N75	N	-0.281150	-0.825845	-0.690401
H76	H	-0.322339	-0.784628	-0.662761
H77	H	-0.218327	-0.888616	-0.196803
H78	H	0.352368	-1.140779	0.000013
H79	H	-0.011172	-1.095933	-0.803181
N80	N	0.422277	-0.826501	-0.000002
N81	N	0.364150	-0.766896	0.000583
H82	H	0.377999	-0.706635	0.000629
H83	H	-0.263230	-0.525322	-0.000011
N84	N	0.000649	-1.107721	-0.343832
N85	N	0.052794	-1.081086	-0.386632
H86	H	0.093968	-1.122294	-0.414298
H87	H	0.447347	-1.065023	-0.110841
H88	H	-0.218345	-0.888689	-0.803164
N89	N	-0.196123	-0.422866	0.123705
N90	N	-0.272253	-0.430812	0.134402
H91	H	-0.301827	-0.405187	0.179369
H92	H	-0.011167	-1.095880	-0.196824
