data_functionalizedCrystal
_audit_creation_method	'MofGen! by Chris Wilmer'
_symmetry_space_group_name_H-M	'P1'
_symmetry_Int_Tables_number	1
_symmetry_cell_setting	triclinic
loop_
_symmetry_equiv_pos_as_xyz
  x,y,z
_cell_length_a	14.908783
_cell_length_b	12.645330
_cell_length_c	14.908803
_cell_angle_alpha	93.290341
_cell_angle_beta	90.199445
_cell_angle_gamma	86.682654
loop_
_atom_site_label
_atom_site_type_symbol
_atom_site_fract_x
_atom_site_fract_y
_atom_site_fract_z
Zn1	Zn	1.345148	0.371030	0.587846
Zn2	Zn	1.845148	0.871030	1.087846
Zn3	Zn	1.353748	0.537483	0.437499
Zn4	Zn	1.853748	1.037483	0.937499
Zn5	Zn	1.203498	0.369817	0.428820
Zn6	Zn	1.703498	0.869817	0.928820
Zn7	Zn	1.194739	0.557842	0.579120
Zn8	Zn	1.694739	1.057842	1.079120
O9	O	1.274283	0.459043	0.508321
O10	O	1.774283	0.959043	1.008321
O11	O	1.472116	0.385098	0.575187
O12	O	1.972116	0.885098	1.075187
O13	O	1.341081	0.506214	0.310526
O14	O	1.841081	1.006214	0.810526
O15	O	1.222354	0.221627	0.449934
O16	O	1.722354	0.721627	0.949934
O17	O	1.478434	0.507391	0.464727
O18	O	1.978434	1.007391	0.964727
O19	O	1.326424	0.222519	0.566770
O20	O	1.826424	0.722519	1.066770
O21	O	1.230693	0.383030	0.304149
O22	O	1.730693	0.883030	0.804149
O23	O	1.076509	0.402771	0.441473
O24	O	1.576509	0.902771	0.941473
O25	O	1.207427	0.542089	0.706100
O26	O	1.707427	1.042089	1.206100
O27	O	1.070074	0.540912	0.551898
O28	O	1.570074	1.040912	1.051898
O29	O	1.317932	0.404839	0.712511
O30	O	1.817932	0.904839	1.212511
O31	O	1.332589	0.688534	0.456266
O32	O	1.832589	1.188534	0.956266
O33	O	1.215766	0.703492	0.560315
O34	O	1.715766	1.203492	1.060315
C35	C	1.040666	0.473920	0.494798
C36	C	1.540666	0.973920	0.994798
C37	C	0.940723	0.480312	0.489033
C38	C	1.440723	0.980312	0.989033
C39	C	0.746327	0.365177	0.593399
C40	C	1.246327	0.865177	1.093399
C41	C	0.652420	0.371179	0.587986
C42	C	1.152420	0.871179	1.087986
C43	C	0.659003	0.498311	0.472790
C44	C	1.159003	0.998311	0.972790
C45	C	0.752909	0.492309	0.478203
C46	C	1.252909	0.992309	0.978203
C47	C	0.796567	0.425741	0.538510
C48	C	1.296567	0.925741	1.038510
C49	C	0.890475	0.419745	0.543927
C50	C	1.390475	0.919745	1.043927
C51	C	0.897056	0.546871	0.428728
C52	C	1.397056	1.046871	0.928728
C53	C	0.803149	0.552873	0.423315
C54	C	1.303149	1.052873	0.923315
C55	C	1.274184	0.734479	0.508307
C56	C	1.774184	1.234479	1.008307
C57	C	1.274221	0.852308	0.508335
C58	C	1.774221	1.352308	1.008335
C59	C	1.200981	1.029325	0.574024
C60	C	1.700981	1.529325	1.074024
C61	C	1.200656	0.906770	0.573779
C62	C	1.700656	1.406770	1.073779
C63	C	1.254059	0.891705	0.412097
C64	C	1.754059	1.391705	0.912097
C65	C	1.253597	1.014362	0.412496
C66	C	1.753597	1.514362	0.912496
C67	C	1.368044	1.015077	0.538143
C68	C	1.868044	1.515077	1.038143
C69	C	1.367355	0.892655	0.540181
C70	C	1.867355	1.392655	1.040181
C71	C	1.508813	0.444109	0.521899
C72	C	2.008813	0.944109	1.021899
C73	C	1.608755	0.437745	0.527684
C74	C	2.108755	0.937745	1.027684
C75	C	1.260743	0.475870	0.742842
C76	C	1.760743	0.975870	1.242842
C77	C	1.254973	0.483041	0.842780
C78	C	1.754973	0.983041	1.342780
C79	C	1.274375	1.182534	0.508359
C80	C	1.774375	1.682534	1.008359
C81	C	1.274333	1.064708	0.508379
C82	C	1.774333	1.564708	1.008379
C83	C	1.359197	0.353573	1.037253
C84	C	1.859197	0.853573	1.537253
C85	C	1.353778	0.360307	1.131154
C86	C	1.853778	0.860307	1.631154
C87	C	1.238714	0.503237	1.124486
C88	C	1.738714	1.003237	1.624486
C89	C	1.244132	0.496503	1.030585
C90	C	1.744132	0.996503	1.530585
C91	C	1.304377	0.421670	0.986972
C92	C	1.804377	0.921670	1.486972
C93	C	1.309799	0.414942	0.893069
C94	C	1.809799	0.914942	1.393069
C95	C	1.194731	0.557866	0.886402
C96	C	1.694731	1.057866	1.386402
C97	C	1.189312	0.564600	0.980303
C98	C	1.689312	1.064600	1.480303
C99	C	1.287765	0.442306	1.274713
C100	C	1.787765	0.942306	1.774713
C101	C	1.293540	0.435137	1.174774
C102	C	1.793540	0.935137	1.674774
H103	H	0.781874	0.310980	0.642507
H104	H	1.281874	0.810980	1.142507
Cl105	Cl	0.748256	0.636551	0.347502
Cl106	Cl	1.248256	1.136551	0.847502
H107	H	0.937971	0.596196	0.384041
H108	H	1.437971	1.096196	0.884041
H109	H	1.212634	0.880660	0.644967
H110	H	1.712634	1.380660	1.144967
H111	H	1.212791	1.062806	0.645435
H112	H	1.712791	1.562806	1.145435
Cl113	Cl	0.945359	0.336063	0.619743
Cl114	Cl	1.445359	0.836063	1.119743
Cl115	Cl	1.390988	0.853510	0.649573
Cl116	Cl	1.890988	1.353510	1.149573
Cl117	Cl	0.589263	0.295035	0.656989
Cl118	Cl	1.089263	0.795035	1.156989
H119	H	1.186474	0.863972	0.387190
H120	H	1.686474	1.363972	0.887190
Cl121	Cl	1.162978	0.597297	1.179329
Cl122	Cl	1.662978	1.097297	1.679329
Cl123	Cl	1.094212	1.082189	0.543286
Cl124	Cl	1.594212	1.582189	1.043286
H125	H	1.306042	0.855583	0.361608
H126	H	1.806042	1.355583	0.861608
Cl127	Cl	1.398084	1.067953	0.645098
Cl128	Cl	1.898084	1.567953	1.145098
Cl129	Cl	0.604103	0.581975	0.396972
Cl130	Cl	1.104103	1.081975	0.896972
Cl131	Cl	1.093234	0.866779	0.542668
Cl132	Cl	1.593234	1.366779	1.042668
H133	H	1.185258	1.046005	0.387920
H134	H	1.685258	1.546005	0.887920
H135	H	1.305003	1.037069	0.361622
H136	H	1.805003	1.537069	0.861622
Cl137	Cl	1.422697	0.274695	1.194363
Cl138	Cl	1.922697	0.774695	1.694363
Cl139	Cl	1.455514	0.834737	0.472417
Cl140	Cl	1.955514	1.334737	0.972417
Cl141	Cl	1.452318	1.049121	0.464444
Cl142	Cl	1.952318	1.549121	0.964444
Cl143	Cl	1.385536	0.320869	0.838242
Cl144	Cl	1.885536	0.820869	1.338242
Cl145	Cl	1.434940	0.259511	0.982422
Cl146	Cl	1.934940	0.759511	1.482422
H147	H	1.140261	0.625525	1.015826
H148	H	1.640261	1.125525	1.515826
H149	H	1.150095	0.613318	0.845453
H150	H	1.650095	1.113318	1.345453
