data_functionalizedCrystal
_audit_creation_method	'MofGen! by Chris Wilmer'
_symmetry_space_group_name_H-M	'P1'
_symmetry_Int_Tables_number	1
_symmetry_cell_setting	triclinic
loop_
_symmetry_equiv_pos_as_xyz
  x,y,z
_cell_length_a	12.759401
_cell_length_b	16.625539
_cell_length_c	12.759400
_cell_angle_alpha	89.980287
_cell_angle_beta	90.004125
_cell_angle_gamma	89.982603
loop_
_atom_site_label
_atom_site_type_symbol
_atom_site_fract_x
_atom_site_fract_y
_atom_site_fract_z
Zn1	Zn	1.606322	-0.455889	-0.418260
Zn2	Zn	2.106322	0.044111	0.081740
Zn3	Zn	1.606253	-0.321077	-0.593961
Zn4	Zn	2.106253	0.178923	-0.093961
Zn5	Zn	1.430628	-0.321077	-0.418297
Zn6	Zn	1.930628	0.178923	0.081703
Zn7	Zn	1.430646	-0.455874	-0.593898
Zn8	Zn	1.930646	0.044126	-0.093898
O9	O	1.518462	-0.388479	-0.506104
O10	O	2.018462	0.111521	-0.006104
O11	O	1.753334	-0.438012	-0.441578
O12	O	2.253334	0.061988	0.058422
O13	O	1.582919	-0.208244	-0.570701
O14	O	2.082919	0.291756	-0.070701
O15	O	1.453955	-0.338967	-0.271271
O16	O	1.953955	0.161033	0.228729
O17	O	1.753283	-0.338966	-0.570665
O18	O	2.253283	0.161034	-0.070665
O19	O	1.583038	-0.438013	-0.271244
O20	O	2.083038	0.061987	0.228756
O21	O	1.453888	-0.208245	-0.441641
O22	O	1.953888	0.291755	0.058359
O23	O	1.283609	-0.338952	-0.441580
O24	O	1.783609	0.161048	0.058420
O25	O	1.453986	-0.568709	-0.570557
O26	O	1.953986	-0.068709	-0.070557
O27	O	1.283622	-0.437987	-0.570593
O28	O	1.783622	0.062013	-0.070593
O29	O	1.583055	-0.568720	-0.441517
O30	O	2.083055	-0.068720	0.058483
O31	O	1.582937	-0.338951	-0.740974
O32	O	2.082937	0.161049	-0.240974
O33	O	1.453919	-0.437986	-0.740927
O34	O	1.953919	0.062014	-0.240927
C35	C	1.245495	-0.388468	-0.506085
C36	C	1.745495	0.111532	-0.006085
C37	C	1.128718	-0.388483	-0.506102
C38	C	1.628718	0.111517	-0.006102
C39	C	1.518531	-0.598788	-0.506026
C40	C	2.018531	-0.098788	-0.006026
C41	C	1.518560	-0.688409	-0.505992
C42	C	2.018560	-0.188409	-0.005992
C43	C	1.073891	-0.439965	-0.573386
C44	C	1.573891	0.060035	-0.073386
C45	C	0.964167	-0.439974	-0.573400
C46	C	1.464167	0.060026	-0.073400
C47	C	0.964107	-0.337011	-0.438841
C48	C	1.464107	0.162989	0.061159
C49	C	1.073829	-0.337007	-0.438823
C50	C	1.573829	0.162993	0.061177
C51	C	1.073924	-0.499407	-0.651076
C52	C	1.573924	0.000593	-0.151076
C53	C	0.964200	-0.499416	-0.651089
C54	C	1.464200	0.000584	-0.151089
C55	C	1.518608	-1.016585	-0.505875
C56	C	2.018608	-0.516585	-0.005875
C57	C	1.518592	-0.925277	-0.505911
C58	C	2.018592	-0.425277	-0.005911
C59	C	1.518584	-0.852500	-0.505934
C60	C	2.018584	-0.352500	-0.005934
C61	C	1.518567	-0.761186	-0.505969
C62	C	2.018567	-0.261186	-0.005969
C63	C	1.792495	-0.388491	-0.506124
C64	C	2.292495	0.111509	-0.006124
C65	C	1.909272	-0.388496	-0.506133
C66	C	2.409272	0.111504	-0.006133
C67	C	1.518451	-0.388485	-0.779071
C68	C	2.018451	0.111515	-0.279071
C69	C	1.518542	-0.388514	-0.895848
C70	C	2.018542	0.111486	-0.395848
C71	C	1.518455	-0.178989	-0.506106
C72	C	2.018455	0.321011	-0.006106
C73	C	1.518629	-0.089368	-0.505843
C74	C	2.018629	0.410632	-0.005843
C75	C	1.518502	-0.388492	-0.232071
C76	C	2.018502	0.111508	0.267929
C77	C	1.518519	-0.388497	-0.115294
C78	C	2.018519	0.111503	0.384706
C79	C	1.451329	-0.336944	0.049280
C80	C	1.951329	0.163056	0.549280
C81	C	1.451320	-0.336933	-0.060444
C82	C	1.951320	0.163067	0.439556
C83	C	1.585740	-0.440069	-0.060415
C84	C	2.085740	0.059931	0.439585
C85	C	1.585754	-0.440075	0.049308
C86	C	2.085754	0.059925	0.549308
C87	C	1.373719	-0.277402	0.049263
C88	C	1.873719	0.222598	0.549263
C89	C	1.373710	-0.277391	-0.060462
C90	C	1.873710	0.222609	0.439538
H91	H	1.118466	-0.295091	-0.384026
H92	H	1.618466	0.204909	0.115974
H93	H	0.919404	-0.295103	-0.384064
H94	H	1.419404	0.204897	0.115936
H95	H	1.103727	-0.561881	-0.629385
H96	H	1.603727	-0.061881	-0.129385
C97	C	1.659715	-0.496789	0.109663
C98	C	2.159715	0.003211	0.609663
N99	N	1.715430	-0.539505	0.155122
N100	N	2.215430	-0.039505	0.655122
H101	H	1.107953	-0.476939	-0.728325
H102	H	1.607953	0.023061	-0.228325
C103	C	1.263790	-0.299988	-0.100683
C104	C	1.763790	0.200012	0.399317
N105	N	1.181003	-0.317010	-0.130978
N106	N	1.681003	0.182990	0.369022
H107	H	0.930195	-0.558778	-0.622053
H108	H	1.430195	-0.058778	-0.122053
C109	C	0.923964	-0.476679	-0.760981
C110	C	1.423964	0.023321	-0.260981
N111	N	0.893658	-0.459552	-0.843747
N112	N	1.393658	0.040448	-0.343747
C113	C	1.659665	-0.496786	-0.120754
C114	C	2.159665	0.003214	0.379246
N115	N	1.715344	-0.539508	-0.166200
N116	N	2.215344	-0.039508	0.333800
H117	H	1.395493	-0.214956	0.079015
H118	H	1.895493	0.285044	0.579015
H119	H	1.296438	-0.299771	0.083307
H120	H	1.796438	0.200229	0.583307
H121	H	1.402829	-0.218066	-0.094513
H122	H	1.902829	0.281934	0.405487
