data_functionalizedCrystal
_audit_creation_method	'MofGen! by Chris Wilmer'
_symmetry_space_group_name_H-M	'P1'
_symmetry_Int_Tables_number	1
_symmetry_cell_setting	triclinic
loop_
_symmetry_equiv_pos_as_xyz
  x,y,z
_cell_length_a	10.654558
_cell_length_b	10.654550
_cell_length_c	10.065875
_cell_angle_alpha	98.875770
_cell_angle_beta	81.167473
_cell_angle_gamma	84.486610
loop_
_atom_site_label
_atom_site_type_symbol
_atom_site_fract_x
_atom_site_fract_y
_atom_site_fract_z
O1	O	1.686046	0.158152	-0.113471
O2	O	1.320570	0.174946	-0.113477
O3	O	1.511711	-0.016189	-0.113469
O4	O	1.494906	0.349287	-0.113479
O5	O	1.475264	0.020405	0.113518
O6	O	1.284124	0.211541	0.113510
O7	O	1.649600	0.194746	0.113516
Zn8	Zn	1.461075	0.208954	0.149552
Zn9	Zn	1.509095	0.160739	-0.149513
O10	O	1.458460	0.385882	0.113508
C11	C	1.255549	0.192008	0.000015
C12	C	1.116107	0.188311	0.000013
C13	C	0.939436	0.163168	-0.123718
C14	C	1.070458	0.166630	-0.123719
C15	C	1.030726	0.206520	0.123755
C16	C	0.899707	0.203049	0.123755
C17	C	0.893793	0.141498	-0.247458
C18	C	0.979166	0.123287	-0.371200
C19	C	1.110188	0.126748	-0.371202
C20	C	1.155839	0.148421	-0.247461
C21	C	1.492254	-0.044690	0.000023
C22	C	1.488562	-0.184134	0.000018
C23	C	1.601103	-0.263616	0.000024
C24	C	1.597628	-0.394638	0.000015
C25	C	1.369062	-0.366684	-0.000001
C26	C	1.372539	-0.235666	-0.000002
C27	C	1.717126	-0.212084	0.000044
C28	C	1.829675	-0.291567	0.000052
C29	C	1.826200	-0.422589	0.000042
C30	C	1.710176	-0.474129	0.000025
C31	C	1.714621	0.177684	0.000021
C32	C	1.854065	0.181379	0.000014
C33	C	1.477917	0.414382	0.000013
C34	C	1.481610	0.553825	0.000009
N35	N	1.428312	0.241858	0.353656
N36	N	1.541868	0.127824	-0.353617
C37	C	1.497688	0.172179	0.421438
C38	C	1.472482	0.197513	0.578604
H39	H	0.830192	0.217902	0.224508
C40	C	1.601785	0.067524	0.343931
C41	C	1.660884	0.008130	0.436923
C42	C	1.756775	-0.088298	0.365578
H43	H	1.663607	0.103945	0.288169
H44	H	1.564911	0.005963	0.288230
H45	H	1.697759	0.069680	0.492601
H46	H	1.599097	-0.028318	0.492688
H47	H	1.719900	-0.149859	0.309876
H48	H	1.818587	-0.051866	0.309818
H49	H	1.796877	-0.128616	0.428661
H50	H	1.274600	-0.408659	-0.000013
H51	H	1.280899	-0.170949	-0.000005
H52	H	1.707358	-0.580820	0.000003
C53	C	1.368201	0.301914	0.656282
C54	C	1.250044	0.275176	0.621673
C55	C	1.153951	0.371309	0.693218
H56	H	1.386348	0.382121	0.632990
H57	H	1.365006	0.305039	0.751594
H58	H	1.253241	0.272065	0.526382
H59	H	1.231856	0.194987	0.644969
H60	H	1.150756	0.374433	0.788530
H61	H	1.172111	0.451509	0.669920
H62	H	1.073769	0.353174	0.669755
H63	H	0.787110	0.138681	-0.247471
H64	H	1.179697	0.111908	-0.471958
C65	C	1.324036	0.346254	0.431339
C66	C	1.205879	0.319516	0.396730
C67	C	1.109786	0.415648	0.468275
H68	H	1.342183	0.426460	0.408047
H69	H	1.320841	0.349379	0.526651
H70	H	1.209076	0.316405	0.301439
H71	H	1.187691	0.239327	0.420026
H72	H	1.106591	0.418773	0.563587
H73	H	1.127945	0.495848	0.444977
H74	H	1.029604	0.397514	0.444812
H75	H	1.619924	0.049404	0.588065
H76	H	1.067906	0.224168	0.224498
H77	H	0.941988	0.105633	-0.471945
H78	H	1.719967	-0.105400	0.000056
C79	C	1.955503	-0.235362	0.000133
C80	C	1.934457	-0.103603	0.000176
C81	C	2.050340	-0.051786	0.000267
H82	H	2.014695	-0.275189	-0.079000
H83	H	1.989185	-0.249747	0.079321
H84	H	1.900794	-0.089228	-0.079004
H85	H	1.875285	-0.063742	0.079303
H86	H	2.084021	-0.066170	0.079455
H87	H	2.109523	-0.091622	-0.078867
H88	H	2.036074	0.037620	0.000309
C89	C	1.948258	-0.509004	0.000253
C90	C	1.934172	-0.566247	0.117010
C91	C	2.046582	-0.645870	0.117246
H92	H	2.017943	-0.459692	0.000333
H93	H	1.964368	-0.573518	-0.078865
H94	H	1.918078	-0.501741	0.196108
H95	H	1.864510	-0.615581	0.116955
H96	H	2.062692	-0.710384	0.038128
H97	H	2.116258	-0.596549	0.117322
H98	H	2.037036	-0.684728	0.196457
H99	H	1.262529	0.151231	-0.247472
