data_functionalizedCrystal
_audit_creation_method	'MofGen! by Chris Wilmer'
_symmetry_space_group_name_H-M	'P1'
_symmetry_Int_Tables_number	1
_symmetry_cell_setting	triclinic
loop_
_symmetry_equiv_pos_as_xyz
  x,y,z
_cell_length_a	15.538191
_cell_length_b	16.992695
_cell_length_c	16.053802
_cell_angle_alpha	87.258926
_cell_angle_beta	88.442540
_cell_angle_gamma	111.029842
loop_
_atom_site_label
_atom_site_type_symbol
_atom_site_fract_x
_atom_site_fract_y
_atom_site_fract_z
O1	O	1.234788	0.253661	-0.069397
O2	O	1.734788	0.753661	0.430603
O3	O	0.967203	0.165024	-0.069406
O4	O	1.467203	0.665024	0.430594
O5	O	1.099922	0.323179	-0.069395
O6	O	1.599922	0.823179	0.430605
O7	O	1.102069	0.095505	-0.069409
O8	O	1.602069	0.595505	0.430591
O9	O	1.092615	0.314500	0.069463
O10	O	1.592615	0.814500	0.569463
O11	O	0.959895	0.156345	0.069452
O12	O	1.459895	0.656345	0.569452
O13	O	1.227481	0.244982	0.069461
O14	O	1.727481	0.744982	0.569461
Zn15	Zn	1.092528	0.199286	0.091503
Zn16	Zn	1.592528	0.699286	0.591503
Zn17	Zn	1.102156	0.210720	-0.091449
Zn18	Zn	1.602156	0.710720	0.408551
O19	O	1.094761	0.086827	0.069450
O20	O	1.594761	0.586827	0.569450
C21	C	0.929152	0.151411	0.000022
C22	C	1.429152	0.651411	0.500022
C23	C	0.826658	0.123787	0.000018
C24	C	1.326658	0.623787	0.500018
C25	C	1.265532	0.258595	0.000031
C26	C	1.765532	0.758595	0.500031
C27	C	1.368026	0.286219	0.000029
C28	C	1.868026	0.786219	0.500029
C29	C	1.093509	0.347267	0.000034
C30	C	1.593509	0.847267	0.500034
C31	C	1.085274	0.431967	0.000033
C32	C	1.585274	0.931967	0.500033
C33	C	1.676478	0.011786	0.000010
C34	C	2.176478	0.511786	0.500010
C35	C	1.772788	0.037762	0.000014
C36	C	2.272788	0.537762	0.500014
C37	C	1.784231	0.183870	0.000023
C38	C	2.284231	0.683870	0.500023
C39	C	1.687920	0.157907	0.000023
C40	C	2.187920	0.657907	0.500023
C41	C	1.634050	0.071864	0.000016
C42	C	2.134050	0.571864	0.500016
C43	C	1.645492	0.217984	0.000029
C44	C	2.145492	0.717984	0.500029
C45	C	1.549190	0.192022	0.000024
C46	C	2.049190	0.692022	0.500024
C47	C	1.495314	0.105983	0.000015
C48	C	1.995314	0.605983	0.500015
C49	C	1.537748	0.045902	0.000012
C50	C	2.037748	0.545902	0.500012
C51	C	1.699364	0.304027	0.000030
C52	C	2.199364	0.804027	0.500030
C53	C	1.656937	0.364104	0.000035
C54	C	2.156937	0.864104	0.500035
C55	C	1.560632	0.338142	0.000037
C56	C	2.060632	0.838142	0.500037
C57	C	1.506756	0.252103	0.000027
C58	C	2.006756	0.752103	0.500027
C59	C	1.518198	0.398224	0.000040
C60	C	2.018198	0.898224	0.500040
C61	C	1.421896	0.372262	0.000036
C62	C	1.921896	0.872262	0.500036
C63	C	1.410454	0.226142	0.000023
C64	C	1.910454	0.726142	0.500023
C65	C	1.101175	0.062739	0.000019
C66	C	1.601175	0.562739	0.500019
C67	C	1.109410	-0.021961	0.000014
C68	C	1.609410	0.478039	0.500014
N69	N	1.085964	0.191484	0.216363
N70	N	1.585964	0.691484	0.716363
C71	C	1.164727	0.504821	0.000037
C72	C	1.664727	1.004821	0.500037
C73	C	1.156985	0.584404	0.000028
C74	C	1.656985	1.084404	0.500028
C75	C	1.069788	0.591132	0.000023
C76	C	1.569788	1.091132	0.500023
C77	C	0.990329	0.518271	0.000017
C78	C	1.490329	1.018271	0.500017
C79	C	0.998073	0.438690	0.000019
C80	C	1.498073	0.938690	0.500019
C81	C	1.037694	0.825596	0.000010
C82	C	1.537694	1.325596	0.500010
C83	C	1.029957	0.905185	0.000010
C84	C	1.529957	1.405185	0.500010
C85	C	1.196613	0.971313	0.000021
C86	C	1.696613	1.471313	0.500021
C87	C	1.204349	0.891727	0.000028
C88	C	1.704349	1.391727	0.500028
C89	C	1.124890	0.818874	0.000017
C90	C	1.624890	1.318874	0.500017
N91	N	1.061872	0.672478	0.000017
N92	N	1.561872	1.172478	0.500017
N93	N	1.132808	0.737530	0.000017
N94	N	1.632808	1.237530	0.500017
N95	N	1.108726	0.218529	-0.216308
N96	N	1.608726	0.718529	0.283692
C97	C	1.142460	0.258768	0.260062
C98	C	1.642460	0.758768	0.760062
C99	C	1.137878	0.253306	0.347468
C100	C	1.637878	0.753306	0.847468
C101	C	1.076803	0.180557	0.391174
C102	C	1.576803	0.680557	0.891174
C103	C	1.020301	0.113269	0.347469
C104	C	1.520301	0.613269	0.847469
C105	C	1.024880	0.118735	0.260065
C106	C	1.524880	0.618735	0.760065
C107	C	1.056803	0.156707	0.652582
C108	C	1.556803	0.656707	1.152582
C109	C	1.052231	0.151246	0.739993
C110	C	1.552231	0.651246	1.239993
C111	C	1.169806	0.291284	0.739985
C112	C	1.669806	0.791284	1.239985
C113	C	1.174383	0.296740	0.652579
C114	C	1.674383	0.796740	1.152579
C115	C	1.117878	0.229454	0.608882
C116	C	1.617878	0.729454	1.108882
N117	N	1.072120	0.174971	0.480517
N118	N	1.572120	0.674971	0.980517
N119	N	1.122557	0.235043	0.519540
N120	N	1.622557	0.735043	1.019540
H121	H	1.416899	0.084847	0.000008
H122	H	1.916899	0.584847	0.500008
H123	H	0.958947	0.910655	0.000019
H124	H	1.458947	1.410655	0.500019
H125	H	1.632613	-0.058279	0.000016
H126	H	2.132613	0.441721	0.500016
H127	H	1.235732	0.499352	0.000046
H128	H	1.735732	0.999352	0.500046
H129	H	1.215809	0.346065	0.775572
H130	H	1.715809	0.846065	1.275572
C131	C	1.332522	1.047728	0.071407
C132	C	1.832522	1.547728	0.571407
C133	C	1.283951	1.051395	0.000023
C134	C	1.783951	1.551395	0.500023
H135	H	1.386440	1.097171	0.071406
H136	H	1.886440	1.597171	0.571406
H137	H	1.349608	0.999375	0.071403
H138	H	1.849608	1.499375	0.571403
H139	H	1.294460	1.044165	0.119823
H140	H	1.794460	1.544165	0.619823
H141	H	1.322011	1.054952	-0.048394
H142	H	1.822011	1.554952	0.451606
H143	H	1.266866	1.099762	0.000019
H144	H	1.766866	1.599762	0.500019
H145	H	1.010796	0.101919	0.617011
H146	H	1.510796	0.601919	1.117011
C147	C	1.034912	0.034925	0.838263
C148	C	1.534912	0.534925	1.338263
C149	C	0.985087	0.071273	0.788031
C150	C	1.485087	0.571273	1.288031
H151	H	0.993462	-0.014448	0.867914
H152	H	1.493462	0.485552	1.367914
H153	H	1.067898	0.074209	0.876796
H154	H	1.567898	0.574209	1.376796
H155	H	1.077157	0.020349	0.804142
H156	H	1.577157	0.520349	1.304142
H157	H	0.942847	0.085855	0.822153
H158	H	1.442847	0.585855	1.322153
H159	H	0.952086	0.031980	0.749494
H160	H	1.452086	0.531980	1.249494
C161	C	0.945966	0.693280	0.071382
C162	C	1.445966	1.193280	0.571382
C163	C	0.950358	0.745518	0.000004
C164	C	1.450358	1.245518	0.500004
H165	H	0.892049	0.643837	0.071374
H166	H	1.392049	1.143837	0.571374
H167	H	0.943855	0.722673	0.119797
H168	H	1.443855	1.222673	0.619797
H169	H	0.999010	0.677891	0.071375
H170	H	1.499010	1.177891	0.571375
H171	H	0.897317	0.760912	0.000015
H172	H	1.397317	1.260912	0.500015
H173	H	0.952461	0.716119	-0.048423
H174	H	1.452461	1.216119	0.451577
H175	H	0.970569	0.054037	0.383060
H176	H	1.470569	0.554037	0.883060
H177	H	1.192197	0.318006	0.224482
H178	H	1.692197	0.818006	0.724482
H179	H	1.493883	-0.024164	0.000017
H180	H	1.993883	0.475836	0.500017
H181	H	1.387351	0.421183	0.000039
H182	H	1.887351	0.921183	0.500039
H183	H	1.224114	0.355978	0.616995
H184	H	1.724114	0.855978	1.116995
H185	H	1.807327	-0.011167	0.000020
H186	H	2.307327	0.488833	0.500020
H187	H	1.828104	0.253927	0.000026
H188	H	2.328104	0.753927	0.500026
C189	C	1.837962	0.305900	-0.071344
C190	C	2.337962	0.805900	0.428656
C191	C	1.805222	0.332568	0.000034
C192	C	2.305222	0.832568	0.500034
H193	H	1.903314	0.323516	-0.071337
H194	H	2.403314	0.823516	0.428663
H195	H	1.820839	0.330035	-0.119759
H196	H	2.320839	0.830035	0.380241
H197	H	1.811947	0.246058	-0.071335
H198	H	2.311947	0.746058	0.428665
H199	H	1.831233	0.392410	0.000022
H200	H	2.331233	0.892410	0.500022
H201	H	1.822354	0.308436	0.048462
H202	H	2.322354	0.808436	0.548462
H203	H	0.919332	0.523755	0.000007
H204	H	1.419332	1.023755	0.500007
C205	C	1.809643	0.468783	0.000053
C206	C	2.309643	0.968783	0.500053
C207	C	1.716155	0.458680	0.000049
C208	C	2.216155	0.958680	0.500049
H209	H	1.846198	0.527171	0.000069
H210	H	2.346198	1.027171	0.500069
H211	H	1.825619	0.446056	-0.048372
H212	H	2.325619	0.946056	0.451628
H213	H	1.820516	0.439984	0.048474
H214	H	2.320516	0.939984	0.548474
H215	H	1.705280	0.487474	-0.048376
H216	H	2.205280	0.987474	0.451624
H217	H	1.700173	0.481418	0.048479
H218	H	2.200173	0.981418	0.548479
H219	H	0.978874	0.063946	0.224486
H220	H	1.478874	0.563946	0.724486
H221	H	0.933373	0.379370	0.000016
H222	H	1.433373	0.879370	0.500016
C223	C	1.254580	0.392260	0.338681
C224	C	1.754580	0.892260	0.838681
C225	C	1.199995	0.327259	0.395501
C226	C	1.699995	0.827259	0.895501
H227	H	1.292936	0.437913	0.368337
H228	H	1.792936	0.937913	0.868337
H229	H	1.215906	0.411110	0.304608
H230	H	1.715906	0.911110	0.804608
H231	H	1.291928	0.371842	0.304573
H232	H	1.791928	0.871842	0.804573
H233	H	1.162642	0.347676	0.429606
H234	H	1.662642	0.847676	0.929606
H235	H	1.238673	0.308408	0.429589
H236	H	1.738673	0.808408	0.929589
H237	H	1.366589	0.156076	0.000029
H238	H	1.866589	0.656076	0.500029
H239	H	1.562073	0.468280	0.000038
H240	H	2.062073	0.968280	0.500038
H241	H	1.221684	0.643721	0.000033
H242	H	1.721684	1.143721	0.500033
H243	H	1.275354	0.886258	0.000033
H244	H	1.775354	1.386258	0.500033
