data_functionalizedCrystal
_audit_creation_method	'MofGen! by Chris Wilmer'
_symmetry_space_group_name_H-M	'P1'
_symmetry_Int_Tables_number	1
_symmetry_cell_setting	triclinic
loop_
_symmetry_equiv_pos_as_xyz
  x,y,z
_cell_length_a	12.811438
_cell_length_b	15.624967
_cell_length_c	11.295483
_cell_angle_alpha	76.077019
_cell_angle_beta	80.460799
_cell_angle_gamma	82.451730
loop_
_atom_site_label
_atom_site_type_symbol
_atom_site_fract_x
_atom_site_fract_y
_atom_site_fract_z
O1	O	1.413992	0.103348	-0.296345
O2	O	1.106517	0.118188	-0.269553
O3	O	1.264504	-0.017102	-0.228177
O4	O	1.256005	0.238638	-0.337721
O5	O	1.250627	-0.005238	-0.033753
O6	O	1.092640	0.130052	-0.075129
O7	O	1.400115	0.115213	-0.101920
Cu8	Cu	1.245111	0.123716	-0.070772
Cu9	Cu	1.261522	0.109685	-0.300702
O10	O	1.242129	0.250503	-0.143296
C11	C	1.060155	0.123652	-0.167882
C12	C	0.942686	0.122248	-0.154592
C13	C	0.769555	0.126735	-0.029885
C14	C	0.879927	0.128056	-0.042368
C15	C	0.895065	0.115121	-0.254341
C16	C	0.784693	0.113800	-0.241859
C17	C	0.721942	0.119606	-0.129627
C18	C	0.611568	0.118279	-0.117142
C19	C	0.626707	0.105351	-0.329117
C20	C	0.737079	0.106672	-0.341600
C21	C	1.255803	-0.043888	-0.116646
C22	C	1.250538	-0.141377	-0.073977
C23	C	1.235555	-0.272323	0.092139
C24	C	1.240503	-0.180718	0.052032
C25	C	1.255636	-0.193635	-0.159929
C26	C	1.250695	-0.285244	-0.119841
C27	C	1.240654	-0.324580	0.006195
C28	C	1.255794	-0.337501	-0.205785
C29	C	1.250847	-0.429101	-0.165699
C30	C	1.240803	-0.468444	-0.039669
C31	C	1.235707	-0.416181	0.046281
C32	C	1.265827	-0.298162	-0.331820
C33	C	1.270926	-0.350419	-0.417764
C34	C	1.265987	-0.442022	-0.377679
C35	C	1.255943	-0.481365	-0.251649
C36	C	1.271083	-0.494286	-0.463629
C37	C	1.266137	-0.585886	-0.423543
C38	C	1.250997	-0.572965	-0.211563
C39	C	1.446477	0.109748	-0.203594
C40	C	1.563947	0.111153	-0.216892
C41	C	1.250830	0.277289	-0.254830
C42	C	1.256095	0.374777	-0.297507
N43	N	1.233576	0.133584	0.090948
N44	N	1.273065	0.099810	-0.462419
C45	C	1.356099	0.028723	0.372299
C46	C	1.347389	0.036187	0.494680
C47	C	1.207443	0.155971	0.458093
C48	C	1.216153	0.148507	0.335713
C49	C	1.290484	0.084882	0.292820
C50	C	1.299198	0.077423	0.170435
C51	C	1.159247	0.197202	0.133854
C52	C	1.150538	0.204666	0.256234
H53	H	0.587929	0.099549	-0.410335
C54	C	0.806118	0.100281	-0.465047
N55	N	0.858118	0.095462	-0.558028
H56	H	1.105822	0.242933	0.069125
C57	C	1.125659	0.225932	0.505310
N58	N	1.064052	0.278621	0.540878
H59	H	1.269839	-0.223573	-0.364453
C60	C	0.542543	0.124671	0.006312
N61	N	0.490555	0.129491	0.099300
H62	H	1.242826	-0.604996	-0.108933
H63	H	1.270280	-0.628434	-0.493527
H64	H	0.718461	0.131468	0.061496
H65	H	1.236767	-0.543031	-0.007033
C66	C	1.234901	-0.123238	0.146589
N67	N	1.230681	-0.079944	0.217807
H68	H	1.090016	0.256466	0.291173
C69	C	0.964109	0.108738	-0.377788
N70	N	1.016115	0.103928	-0.470769
C71	C	0.932298	0.135894	0.067357
N72	N	0.971744	0.141797	0.150008
C73	C	1.224669	-0.459457	0.184926
N74	N	1.216353	-0.492052	0.289350
H75	H	1.227385	-0.304354	0.194769
C76	C	1.419567	-0.025595	0.582105
N77	N	1.473934	-0.072134	0.647955
C78	C	1.380960	0.007433	0.123257
N79	N	1.442542	-0.045289	0.087728
H80	H	1.263809	-0.161594	-0.262548
C81	C	1.281982	-0.307139	-0.556401
N82	N	1.290316	-0.274543	-0.660825
C83	C	1.282127	-0.451002	-0.602264
N84	N	1.290450	-0.418402	-0.706686
C85	C	1.437867	-0.041260	0.325113
N86	N	1.499455	-0.093973	0.289574
