data_functionalizedCrystal
_audit_creation_method	'MofGen! by Chris Wilmer'
_symmetry_space_group_name_H-M	'P1'
_symmetry_Int_Tables_number	1
_symmetry_cell_setting	triclinic
loop_
_symmetry_equiv_pos_as_xyz
  x,y,z
_cell_length_a	27.440279
_cell_length_b	20.919320
_cell_length_c	20.919320
_cell_angle_alpha	89.826192
_cell_angle_beta	62.596660
_cell_angle_gamma	62.605090
loop_
_atom_site_label
_atom_site_type_symbol
_atom_site_fract_x
_atom_site_fract_y
_atom_site_fract_z
Zr1	Zr	0.562613	0.597729	-0.103122
O2	O	0.653009	0.502934	-0.197934
O3	O	0.464417	0.626760	-0.074075
O4	O	0.558713	0.631630	-0.202786
O5	O	0.564510	0.494257	0.032326
O6	O	0.564510	0.733180	-0.206592
O7	O	0.558713	0.498064	-0.069224
O8	O	0.395832	0.724470	0.023647
O9	O	0.733188	0.502967	-0.197913
O10	O	0.512022	0.714963	-0.064506
O11	O	0.512022	0.636335	0.014120
O12	O	0.623043	0.642068	-0.137419
O13	O	0.623043	0.563440	-0.058793
Zr14	Zr	0.581104	0.753618	0.052768
Zr15	Zr	0.571859	0.759691	-0.109192
Zr16	Zr	0.571858	0.591656	0.058838
Zr17	Zr	0.690489	0.597783	-0.103089
Zr18	Zr	0.453228	0.753565	0.052735
O19	O	0.679300	0.724588	0.023721
O20	O	0.666154	0.733223	-0.206565
O21	O	0.666154	0.494299	0.032353
O22	O	0.490709	0.848414	0.147580
O23	O	0.477563	0.857049	-0.082707
O24	O	0.477563	0.618125	0.156211
O25	O	0.579208	0.857091	-0.082680
O26	O	0.585004	0.719718	0.152432
O27	O	0.579207	0.618167	0.156238
O28	O	0.585004	0.853283	0.018870
O29	O	0.740537	0.631705	-0.202738
O30	O	0.403181	0.719642	0.152384
O31	O	0.410530	0.848380	0.147559
O32	O	0.403181	0.853208	0.018822
O33	O	0.740536	0.498140	-0.069176
O34	O	0.747885	0.626878	-0.074001
O35	O	0.520674	0.709279	0.087065
O36	O	0.520674	0.787907	0.008439
O37	O	0.631695	0.715013	-0.064474
O38	O	0.631695	0.636385	0.014152
C39	C	0.411905	0.675607	-0.025219
C40	C	0.357618	0.675585	-0.025233
C41	C	0.122868	0.634621	0.015870
C42	C	0.173896	0.634607	0.015861
O43	O	0.200274	0.599715	0.050780
N44	N	0.199420	0.675639	-0.025191
C45	C	0.173909	0.716695	-0.066229
O46	O	0.200304	0.751596	-0.101147
C47	C	0.122878	0.716713	-0.066215
C48	C	0.097361	0.675672	-0.025167
C49	C	0.097350	0.593583	0.056915
C50	C	0.046326	0.593597	0.056923
C51	C	0.020819	0.634648	0.015886
C52	C	0.046336	0.675686	-0.025159
C53	C	0.097364	0.757773	-0.107249
C54	C	0.046330	0.757788	-0.107230
C55	C	0.020812	0.716747	-0.066183
C56	C	-0.030195	0.716750	-0.066188
N57	N	-0.055719	0.675717	-0.025137
C58	C	-0.030212	0.634666	0.015901
C59	C	0.281076	0.716655	-0.066255
C60	C	0.332109	0.716633	-0.066273
C61	C	0.332092	0.634545	0.015818
C62	C	0.281061	0.634563	0.015832
C63	C	0.255552	0.675622	-0.025203
C64	C	-0.137367	0.634697	0.015914
C65	C	-0.188394	0.634712	0.015916
C66	C	-0.188375	0.716803	-0.066172
C67	C	-0.137350	0.716785	-0.066177
C68	C	-0.111849	0.675731	-0.025129
O69	O	-0.056607	0.751626	-0.101086
O70	O	-0.056619	0.599779	0.050820
C71	C	0.560294	0.473084	-0.017584
C72	C	0.556369	0.404327	-0.015007
C73	C	0.531242	0.017374	0.001499
C74	C	0.534935	0.081975	-0.000931
C75	C	0.594734	0.076221	-0.040201
C76	C	0.650844	0.005861	-0.077052
C77	C	0.647151	-0.058739	-0.074627
C78	C	0.608785	0.269367	-0.049432
C79	C	0.612475	0.333974	-0.051852
C80	C	0.496565	0.410084	0.024268
C81	C	0.492877	0.345479	0.026693
C82	C	0.548987	0.275125	-0.010160
C83	C	0.598510	0.142253	-0.042683
C84	C	0.545210	0.209095	-0.007682
C85	C	0.731812	0.675740	-0.025135
C86	C	0.786099	0.675763	-0.025121
C87	C	0.560294	0.683270	-0.227765
C88	C	0.556369	0.685848	-0.296521
C89	C	0.583423	0.878263	-0.032770
C90	C	0.587348	0.947020	-0.035347
C91	C	0.531242	0.702340	-0.683470
C92	C	0.534935	0.699920	-0.618870
C93	C	0.594734	0.660654	-0.624633
C94	C	0.650844	0.623812	-0.695004
C95	C	0.647151	0.626238	-0.759603
C96	C	0.608786	0.651432	-0.431490
C97	C	0.612475	0.649008	-0.366884
C98	C	0.496565	0.725116	-0.290754
C99	C	0.492877	0.727534	-0.355358
C100	C	0.548987	0.690696	-0.425722
C101	C	0.598511	0.658177	-0.558602
C102	C	0.545210	0.693178	-0.491752
C103	C	0.583423	0.668077	0.177411
C104	C	0.587348	0.665499	0.246167
C105	C	0.423470	0.878197	-0.032812
C106	C	0.373108	0.946931	-0.035403
C107	C	0.423469	0.668011	0.177369
C108	C	0.373107	0.665410	0.246111
C109	C	0.435034	0.870600	0.169776
C110	C	0.388597	0.936757	0.235941
C111	C	0.708683	0.480747	-0.220130
C112	C	0.755120	0.414591	-0.286295
C113	C	0.720248	0.473151	-0.017542
C114	C	0.770609	0.404416	-0.014951
C115	C	0.720248	0.683337	-0.227723
C116	C	0.770610	0.685937	-0.296465
C117	C	0.344940	0.941134	-0.074703
C118	C	0.297626	1.005711	-0.077153
C119	C	0.278476	1.076086	-0.040297
C120	C	0.306649	1.081882	-0.000996
C121	C	0.353966	1.017305	0.001449
C122	C	0.353974	0.702265	0.316477
C123	C	0.306661	0.699818	0.381074
C124	C	0.278479	0.660521	0.375303
C125	C	0.297617	0.623661	0.304930
C126	C	0.344932	0.626104	0.240335
C127	C	0.366790	1.008874	0.225971
C128	C	0.323165	1.071041	0.288134
C129	C	0.301344	1.061090	0.360266
C130	C	0.323155	0.988965	0.370235
C131	C	0.366783	0.926799	0.308073
C132	C	0.776933	0.342473	-0.276325
C133	C	0.820574	0.280306	-0.338487
C134	C	0.842398	0.290258	-0.410620
C135	C	0.820584	0.362383	-0.420589
C136	C	0.776947	0.424549	-0.358427
C137	C	0.798782	0.410214	0.024343
C138	C	0.846109	0.345637	0.026774
C139	C	0.865260	0.275263	-0.010083
C140	C	0.837086	0.269467	-0.049382
C141	C	0.789762	0.334043	-0.051818
C142	C	0.798777	0.725242	-0.290671
C143	C	0.846092	0.727700	-0.355256
C144	C	0.865242	0.690849	-0.425634
C145	C	0.837069	0.651543	-0.431427
C146	C	0.789752	0.649090	-0.366843
H147	H	0.260289	0.601144	0.049257
H148	H	0.783194	0.755250	-0.233371
N149	N	0.230133	0.658049	0.441290
N150	N	0.175303	0.683220	0.451498
H151	H	0.141157	0.681480	0.498103
H152	H	0.903771	0.692852	-0.478217
H153	H	0.274693	1.000977	-0.109156
N154	N	0.431791	0.767635	-0.349463
N155	N	0.390930	0.749578	-0.315136
H156	H	0.347786	0.777897	-0.310970
H157	H	0.360531	0.883838	-0.104725
H158	H	0.852668	0.621541	-0.488738
N159	N	0.382745	0.742416	0.322395
N160	N	0.365650	0.775313	0.385234
H161	H	0.385968	0.803670	0.389421
N162	N	0.874857	0.767859	-0.349327
N163	N	0.840900	0.836327	-0.318233
H164	H	0.861214	0.864691	-0.314043
H165	H	0.376894	1.022036	0.033456
H166	H	0.450884	0.755109	-0.233458
N167	N	0.439260	0.481953	0.061907
N168	N	0.442562	0.539628	0.059740
H169	H	0.402089	0.590388	0.086323
H170	H	0.699534	0.001181	-0.109031
N171	N	0.760990	0.608935	-0.372781
N172	N	0.778099	0.576037	-0.435627
H173	H	0.757787	0.547676	-0.439827
H174	H	0.489247	0.139258	0.029062
N175	N	0.287091	1.153765	0.036652
N176	N	0.327077	1.173701	0.019177
H177	H	0.313262	1.224470	0.045770
N178	N	0.856640	0.197586	-0.087031
N179	N	0.880020	0.180922	-0.156052
H180	H	0.893827	0.130155	-0.182638
N181	N	0.431800	0.351338	0.066796
N182	N	0.419275	0.322155	0.119900
H183	H	0.376141	0.326289	0.148222
H184	H	0.489248	0.729922	-0.561580
H185	H	-0.209166	0.601288	0.049342
H186	H	0.482547	0.734310	-0.678768
H187	H	0.699534	0.591845	-0.699692
N188	N	-0.111332	0.592761	0.057850
N189	N	-0.134130	0.556126	0.094492
H190	H	-0.115741	0.526505	0.124107
N191	N	0.389064	1.019064	0.152299
N192	N	0.369583	1.083466	0.143421
H193	H	0.385313	1.090670	0.091392
N194	N	0.123412	0.551621	0.098816
N195	N	0.181084	0.500816	0.066323
H196	H	0.199492	0.471168	0.095911
N197	N	0.020265	0.551684	0.098877
N198	N	-0.003231	0.565841	0.167988
H199	H	-0.021634	0.536240	0.197625
N200	N	0.358136	0.592619	0.057754
N201	N	0.335346	0.555985	0.094409
H202	H	0.353740	0.526377	0.124026
H203	H	0.903795	0.222687	-0.008094
H204	H	0.305382	0.980873	0.428974
N205	N	0.255017	0.758587	-0.108176
N206	N	0.197342	0.809384	-0.075703
H207	H	0.178939	0.838998	-0.105310
H208	H	-0.116568	0.750196	-0.099610
N209	N	0.704468	-0.130599	-0.112274
N210	N	0.757857	-0.135728	-0.147337
H211	H	0.798339	-0.186480	-0.173931
H212	H	0.482547	0.022067	0.033481
H213	H	0.291085	0.729836	0.438368
N214	N	0.358173	0.758546	-0.108221
N215	N	0.335389	0.795189	-0.144860
H216	H	0.353794	0.824794	-0.174486
N217	N	0.779231	0.482089	0.062002
N218	N	0.804400	0.487241	0.097077
H219	H	0.790598	0.538001	0.123674
N220	N	0.123410	0.799705	-0.149179
N221	N	0.100615	0.836359	-0.185804
H222	H	0.119006	0.865979	-0.215417
N223	N	0.666087	0.613799	-0.503368
N224	N	0.679436	0.649910	-0.549544
H225	H	0.719905	0.623326	-0.600314
N226	N	0.230095	1.142058	-0.042716
N227	N	0.175277	1.152204	-0.017501
H228	H	0.141091	1.198802	-0.019180
H229	H	0.759186	0.483268	-0.366554
H230	H	0.766825	0.329312	-0.083812
N231	N	0.020278	0.799739	-0.149148
N232	N	0.043070	0.836377	-0.185790
H233	H	0.024673	0.866004	-0.215395
H234	H	-0.209149	0.750223	-0.099586
H235	H	0.661173	0.617027	-0.371585
N236	N	0.268820	0.583525	0.299056
N237	N	0.226573	0.581360	0.356741
H238	H	0.206230	0.553018	0.352596
H239	H	0.647199	0.626206	-0.563287
N240	N	0.300897	1.144704	0.277927
N241	N	0.320383	1.153572	0.213516
H242	H	0.304658	1.205594	0.206305
N243	N	0.673567	0.328083	-0.091972
N244	N	0.723660	0.265263	-0.124874
H245	H	0.766804	0.261103	-0.153207
H246	H	0.654474	0.212090	-0.079438
N247	N	0.704455	0.588600	-0.831484
N248	N	0.701150	0.590770	-0.889156
H249	H	0.741622	0.564189	-0.939924
H250	H	0.496521	0.213776	0.024287
N251	N	0.484134	0.733275	-0.485877
N252	N	0.466681	0.699849	-0.511816
H253	H	0.423546	0.728164	-0.507672
N254	N	0.256779	1.124603	0.423751
N255	N	0.237315	1.188988	0.414830
H256	H	0.205840	1.233847	0.459664
N257	N	0.659592	0.136380	-0.082804
N258	N	0.672113	0.165558	-0.135913
H259	H	0.715252	0.161412	-0.164250
N260	N	0.874880	0.351555	0.066928
N261	N	0.917132	0.293898	0.069103
H262	H	0.937450	0.298078	0.097463
N263	N	0.389041	0.853129	0.318251
N264	N	0.427983	0.797623	0.262751
H265	H	0.443698	0.745593	0.269942
N266	N	0.842846	0.206644	-0.328281
N267	N	0.823346	0.197776	-0.263870
H268	H	0.839074	0.145753	-0.256659
H269	H	0.360504	0.596095	0.183043
N270	N	0.754661	0.332283	-0.202653
N271	N	0.793697	0.297877	-0.182112
H272	H	0.777973	0.290673	-0.130083
H273	H	0.877930	0.239632	-0.461230
H274	H	0.838358	0.370477	-0.479327
