data_functionalizedCrystal
_audit_creation_method	'MofGen! by Chris Wilmer'
_symmetry_space_group_name_H-M	'P1'
_symmetry_Int_Tables_number	1
_symmetry_cell_setting	triclinic
loop_
_symmetry_equiv_pos_as_xyz
  x,y,z
_cell_length_a	13.897447
_cell_length_b	12.759401
_cell_length_c	12.759393
_cell_angle_alpha	89.979062
_cell_angle_beta	90.031000
_cell_angle_gamma	89.978945
loop_
_atom_site_label
_atom_site_type_symbol
_atom_site_fract_x
_atom_site_fract_y
_atom_site_fract_z
Zn1	Zn	-0.383929	-1.606231	0.594016
Zn2	Zn	-0.545255	-1.606107	0.418335
Zn3	Zn	-0.383980	-1.430530	0.418352
Zn4	Zn	-0.545188	-1.430507	0.593972
O5	O	-0.464588	-1.518344	0.506169
O6	O	-0.405336	-1.753236	0.570723
O7	O	-0.523912	-1.582774	0.271316
O8	O	-0.248992	-1.453898	0.441679
O9	O	-0.523862	-1.753145	0.441651
O10	O	-0.248954	-1.582985	0.570740
O11	O	-0.405423	-1.453778	0.271328
O12	O	-0.405358	-1.283506	0.441636
O13	O	-0.523747	-1.453859	0.740999
O14	O	-0.523797	-1.283489	0.570664
O15	O	-0.405271	-1.582963	0.741032
O16	O	-0.680228	-1.582752	0.441608
O17	O	-0.680179	-1.453739	0.570648
C18	C	-0.464576	-1.245376	0.506148
C19	C	-0.464595	-1.128600	0.506164
C20	C	-0.715203	-1.518258	0.506144
C21	C	-0.822416	-1.518318	0.506169
C22	C	-0.909486	-1.518369	0.506193
C23	C	-1.018719	-1.518442	0.506220
C24	C	-0.464496	-1.518422	0.780202
C25	C	-0.464456	-1.518456	0.896979
C26	C	-0.212995	-1.518458	0.506216
C27	C	-0.105781	-1.518507	0.506236
C28	C	-0.464601	-1.792377	0.506190
C29	C	-0.464606	-1.909154	0.506200
C30	C	-0.526359	-1.073757	0.573243
C31	C	-0.526363	-0.964033	0.573264
C32	C	-0.402834	-0.964005	0.439118
C33	C	-0.402827	-1.073727	0.439103
C34	C	-0.560974	-0.814133	0.697124
C35	C	-0.622754	-0.759286	0.764194
C36	C	-0.716889	-0.794875	0.780141
C37	C	-0.749263	-0.885310	0.729002
C38	C	-0.687488	-0.940151	0.661925
C39	C	-0.593340	-0.904564	0.645998
C40	C	-0.368225	-1.223628	0.315241
C41	C	-0.306455	-1.278471	0.248158
C42	C	-0.212318	-1.242884	0.232200
C43	C	-0.179948	-1.152446	0.283320
C44	C	-0.241718	-1.097603	0.350403
C45	C	-0.335854	-1.133198	0.366363
C46	C	-0.464611	-1.518326	0.233201
C47	C	-0.464379	-1.518496	0.116425
C48	C	-0.402756	-1.585685	0.951860
C49	C	-0.402714	-1.585703	1.061584
C50	C	-0.526082	-1.451259	1.061537
C51	C	-0.526118	-1.451237	0.951815
C52	C	-0.288908	-1.623326	1.211563
C53	C	-0.227216	-1.690571	1.266447
C54	C	-0.212425	-1.793085	1.230856
C55	C	-0.259340	-1.828375	1.140382
C56	C	-0.321039	-1.761135	1.085504
C57	C	-0.335812	-1.658606	1.121093
C58	C	-0.639925	-1.413625	0.801834
C59	C	-0.701630	-1.346390	0.746953
C60	C	-0.716431	-1.243874	0.782542
C61	C	-0.669533	-1.208588	0.873019
C62	C	-0.607828	-1.275824	0.927900
C63	C	-0.593026	-1.378339	0.892303
H64	H	-0.576652	-1.118431	0.627851
H65	H	-0.569642	-1.247086	1.001572
Br66	Br	-0.877032	-0.933592	0.750630
H67	H	-0.681588	-1.125113	0.902000
Br68	Br	-0.319071	-1.676908	0.877442
H69	H	-0.766685	-1.189135	0.737854
H70	H	-0.215351	-1.023969	0.392035
Br71	Br	-0.052192	-1.104134	0.261653
Br72	Br	-0.128704	-1.884347	1.305347
H73	H	-0.162028	-1.287543	0.177566
H74	H	-0.484319	-0.785155	0.684157
H75	H	-0.189018	-1.661829	1.340111
Br76	Br	-0.239280	-1.967517	1.092097
Br77	Br	-0.765291	-1.394283	0.624170
Br78	Br	-0.350394	-1.401196	0.178760
Br79	Br	-0.619805	-1.552745	0.753500
Br80	Br	-0.609765	-1.360042	1.135964
Br81	Br	-0.731415	-1.062873	0.592522
H82	H	-0.596386	-0.685655	0.805831
Br83	Br	-0.800729	-0.720442	0.871169
Br84	Br	-0.319011	-0.889527	0.348110
Br85	Br	-0.496042	-1.271825	0.336750
Br86	Br	-0.384709	-1.809017	0.962728
Br87	Br	-0.308962	-1.484186	1.259860
