data_functionalizedCrystal
_audit_creation_method	'MofGen! by Chris Wilmer'
_symmetry_space_group_name_H-M	'P1'
_symmetry_Int_Tables_number	1
_symmetry_cell_setting	triclinic
loop_
_symmetry_equiv_pos_as_xyz
  x,y,z
_cell_length_a	18.215407
_cell_length_b	18.101395
_cell_length_c	18.101390
_cell_angle_alpha	89.968664
_cell_angle_beta	89.982964
_cell_angle_gamma	90.028548
loop_
_atom_site_label
_atom_site_type_symbol
_atom_site_fract_x
_atom_site_fract_y
_atom_site_fract_z
Zn1	Zn	1.125038	-0.294852	-0.418696
Zn2	Zn	1.124933	-0.418709	-0.294858
Zn3	Zn	1.001971	-0.294880	-0.294873
Zn4	Zn	1.001923	-0.418651	-0.418663
O5	O	1.063466	-0.356773	-0.356772
O6	O	1.228008	-0.311294	-0.402276
O7	O	1.108599	-0.402319	-0.191227
O8	O	1.018360	-0.191244	-0.311319
O9	O	1.227932	-0.402292	-0.311292
O10	O	1.108776	-0.191223	-0.402291
O11	O	1.018259	-0.311343	-0.191238
O12	O	0.898980	-0.311286	-0.311287
O13	O	1.018278	-0.402192	-0.522300
O14	O	0.898945	-0.402220	-0.402235
O15	O	1.108730	-0.311238	-0.522324
O16	O	1.108552	-0.522334	-0.311260
O17	O	1.018177	-0.522291	-0.402219
C18	C	0.872260	-0.356750	-0.356759
C19	C	0.790461	-0.356758	-0.356771
C20	C	0.602306	-0.309473	-0.404221
C21	C	0.525447	-0.309480	-0.404224
C22	C	0.525378	-0.404093	-0.309337
C23	C	0.602236	-0.404082	-0.309331
C24	C	0.640698	-0.356774	-0.356777
C25	C	0.486982	-0.356791	-0.356786
C26	C	0.403648	-0.356798	-0.356788
C27	C	0.724037	-0.356765	-0.356774
C28	C	1.063368	-0.549183	-0.356751
C29	C	1.063393	-0.631498	-0.356766
C30	C	1.063554	-0.930588	-0.356806
C31	C	1.006825	-0.899267	-0.414177
C32	C	1.006555	-0.813649	-0.413998
C33	C	1.063474	-0.782206	-0.356787
C34	C	1.042477	-0.813362	-0.278738
C35	C	1.042111	-0.899007	-0.279082
C36	C	1.141406	-0.898934	-0.376797
C37	C	1.140948	-0.813283	-0.378508
C38	C	1.063430	-0.698346	-0.356771
C39	C	1.063597	-1.014448	-0.356816
C40	C	1.255419	-0.356796	-0.356786
C41	C	1.337218	-0.356806	-0.356792
C42	C	1.063510	-0.356705	-0.549934
C43	C	1.063529	-0.356676	-0.632249
C44	C	1.063585	-0.163611	-0.356811
C45	C	1.063636	-0.081297	-0.356827
C46	C	1.063568	-0.356630	-0.931340
C47	C	1.120666	-0.299606	-0.900030
C48	C	1.120488	-0.299394	-0.814411
C49	C	1.063549	-0.356653	-0.782957
C50	C	0.986021	-0.335446	-0.814033
C51	C	0.986363	-0.335019	-0.899679
C52	C	1.083317	-0.435008	-0.899753
C53	C	1.085018	-0.434609	-0.814103
C54	C	1.063534	-0.356667	-0.699098
C55	C	1.063579	-0.356614	-1.015199
C56	C	1.063465	-0.356787	-0.164362
C57	C	1.063589	-0.356607	-0.082048
H58	H	0.633619	-0.270949	-0.442853
H59	H	0.494192	-0.270962	-0.442856
H60	H	1.156782	-0.792917	-0.435948
C61	C	0.966407	-0.784482	-0.255449
C62	C	0.953137	-0.700816	-0.247878
C63	C	0.877065	-0.671938	-0.224593
C64	C	0.814265	-0.726725	-0.208880
C65	C	0.827533	-0.810396	-0.216451
C66	C	0.903605	-0.839274	-0.239735
H67	H	0.999627	-0.660255	-0.259510
H68	H	0.867243	-0.609999	-0.218989
H69	H	0.757952	-0.705348	-0.191643
H70	H	0.781043	-0.850957	-0.204819
H71	H	0.913427	-0.901213	-0.245340
H72	H	1.160550	-0.920479	-0.432740
C73	C	1.095496	-0.927013	-0.219361
C74	C	1.066974	-0.975812	-0.155814
C75	C	1.120352	-1.003817	-0.096091
C76	C	1.202252	-0.983023	-0.099913
C77	C	1.230778	-0.934222	-0.163462
C78	C	1.177400	-0.906217	-0.223186
H79	H	1.006343	-0.991207	-0.152982
H80	H	1.099235	-1.039943	-0.049048
H81	H	1.241765	-1.003754	-0.055702
H82	H	1.291409	-0.918827	-0.166294
H83	H	1.198518	-0.870091	-0.270229
H84	H	0.949470	-0.920852	-0.401102
C85	C	0.483069	-0.456138	-0.257154
C86	C	0.398529	-0.456156	-0.257162
C87	C	0.356221	-0.508205	-0.204980
C88	C	0.398453	-0.560234	-0.152792
C89	C	0.482998	-0.560217	-0.152783
C90	C	0.525305	-0.508169	-0.204964
H91	H	0.367262	-0.417639	-0.295796
H92	H	0.293635	-0.508217	-0.204987
H93	H	0.367134	-0.598763	-0.114164
H94	H	0.514265	-0.598734	-0.114148
H95	H	0.587891	-0.508157	-0.204957
C96	C	1.102825	-0.220956	-0.786745
C97	C	1.099151	-0.205155	-0.703242
C98	C	1.081486	-0.126713	-0.675576
C99	C	1.067495	-0.064072	-0.731413
C100	C	1.071168	-0.079871	-0.814921
C101	C	1.088833	-0.158313	-0.842587
H102	H	1.109509	-0.251527	-0.661904
H103	H	1.078767	-0.115018	-0.613758
H104	H	1.054418	-0.006005	-0.710933
H105	H	1.060811	-0.033499	-0.856259
H106	H	1.091552	-0.170008	-0.904405
H107	H	0.633495	-0.442601	-0.270692
C108	C	0.965231	-0.926088	-0.256210
C109	C	0.933754	-0.905055	-0.180114
C110	C	0.856871	-0.932131	-0.157245
C111	C	0.811465	-0.980240	-0.210472
C112	C	0.842942	-1.001275	-0.286573
C113	C	0.919825	-0.974199	-0.309442
H114	H	0.967366	-0.869439	-0.140708
H115	H	0.833570	-0.916559	-0.100910
H116	H	0.754552	-1.000283	-0.193542
H117	H	0.809330	-1.036891	-0.325979
H118	H	0.943126	-0.989772	-0.365777
H119	H	1.183672	-0.919189	-0.335011
C120	C	1.162096	-0.456211	-0.786667
C121	C	1.177269	-0.462885	-0.703243
C122	C	1.254348	-0.484482	-0.675803
C123	C	1.316254	-0.499406	-0.731785
C124	C	1.301083	-0.492732	-0.815214
C125	C	1.224004	-0.471135	-0.842654
H126	H	1.131440	-0.451838	-0.661797
H127	H	1.265578	-0.489422	-0.614043
H128	H	1.373313	-0.515393	-0.711472
H129	H	1.346912	-0.503780	-0.856660
H130	H	1.212774	-0.466195	-0.904414
C131	C	1.201063	-0.784423	-0.326131
C132	C	1.180766	-0.731895	-0.262437
C133	C	1.240874	-0.703062	-0.210032
C134	C	1.321279	-0.726759	-0.221321
C135	C	1.341580	-0.779291	-0.285018
C136	C	1.281472	-0.808123	-0.337423
H137	H	1.121242	-0.714350	-0.254078
H138	H	1.225845	-0.664175	-0.162880
H139	H	1.365775	-0.705416	-0.182528
H140	H	1.401104	-0.796836	-0.293377
H141	H	1.296501	-0.847011	-0.384575
H142	H	1.138859	-0.454318	-0.921396
C143	C	0.928601	-0.786049	-0.396106
C144	C	0.866401	-0.841938	-0.381933
C145	C	0.788443	-0.814338	-0.364039
C146	C	0.772686	-0.730849	-0.360319
C147	C	0.834888	-0.674954	-0.374493
C148	C	0.912845	-0.702554	-0.392386
H149	H	0.878064	-0.903746	-0.384686
H150	H	0.742398	-0.855715	-0.353547
H151	H	0.714977	-0.710417	-0.347073
H152	H	0.823225	-0.613146	-0.371739
H153	H	0.958891	-0.661177	-0.402879
C154	C	1.198153	-0.317321	-0.786021
C155	C	1.260771	-0.331932	-0.841281
C156	C	1.338441	-0.349856	-0.812895
C157	C	1.353493	-0.353169	-0.729251
C158	C	1.290873	-0.338557	-0.673986
C159	C	1.213203	-0.320634	-0.702372
H160	H	1.249630	-0.329480	-0.903204
H161	H	1.384796	-0.360672	-0.853806
H162	H	1.410989	-0.366437	-0.708238
H163	H	1.302014	-0.341009	-0.612063
H164	H	1.166848	-0.309818	-0.661461
H165	H	1.178343	-0.312722	-0.920630
C166	C	1.024295	-0.785182	-0.492179
C167	C	1.027519	-0.701522	-0.507331
C168	C	1.045255	-0.673059	-0.585517
C169	C	1.059768	-0.728256	-0.648551
C170	C	1.056545	-0.811920	-0.633401
C171	C	1.038809	-0.840384	-0.555215
H172	H	1.016775	-0.660658	-0.460668
H173	H	1.047641	-0.611125	-0.596732
H174	H	1.072898	-0.707186	-0.706429
H175	H	1.067289	-0.852785	-0.680065
H176	H	1.036423	-0.902318	-0.544001
C177	C	1.032914	-0.495094	-0.785192
C178	C	0.969675	-0.474667	-0.732562
C179	C	0.917560	-0.535149	-0.703657
C180	C	0.928683	-0.616059	-0.727381
C181	C	0.991925	-0.636489	-0.780014
C182	C	1.044040	-0.576007	-0.808920
H183	H	0.961438	-0.414769	-0.714997
H184	H	0.870744	-0.520024	-0.664694
H185	H	0.890104	-0.660831	-0.705984
H186	H	1.000161	-0.696387	-0.797579
H187	H	1.090855	-0.591132	-0.847882
H188	H	1.019831	-0.919811	-0.472237
C189	C	0.963751	-0.257620	-0.926691
C190	C	0.945508	-0.196629	-0.870332
C191	C	0.922897	-0.119228	-0.897340
C192	C	0.918530	-0.102816	-0.980706
C193	C	0.936773	-0.163808	-1.037069
C194	C	0.959384	-0.241209	-1.010062
H195	H	0.948740	-0.208777	-0.808615
H196	H	0.909392	-0.074078	-0.855615
H197	H	0.901792	-0.045518	-1.000698
H198	H	0.933541	-0.151660	-1.098787
H199	H	0.972889	-0.286359	-1.051786
C200	C	0.926973	-0.388723	-0.927664
C201	C	0.879383	-0.431857	-0.872080
C202	C	0.820008	-0.485576	-0.900062
C203	C	0.808225	-0.496161	-0.983628
C204	C	0.855817	-0.453026	-1.039217
C205	C	0.915191	-0.399307	-1.011235
H206	H	0.888104	-0.424023	-0.810215
H207	H	0.784778	-0.517508	-0.858911
H208	H	0.764272	-0.535927	-1.004342
H209	H	0.847095	-0.460860	-1.101082
H210	H	0.950421	-0.367376	-1.052387
C211	C	0.926984	-0.389822	-0.786506
C212	C	0.861751	-0.361410	-0.740467
C213	C	0.802716	-0.415786	-0.712938
C214	C	0.808914	-0.498574	-0.731447
C215	C	0.874149	-0.526989	-0.777488
C216	C	0.933184	-0.472613	-0.805018
H217	H	0.857161	-0.300123	-0.726763
H218	H	0.754425	-0.394751	-0.678855
H219	H	0.765212	-0.538826	-0.711068
H220	H	0.878739	-0.588277	-0.791192
H221	H	0.981476	-0.493648	-0.839100
H222	H	1.107759	-0.241866	-0.921566
H223	H	1.082496	-0.792996	-0.234827
H224	H	0.968975	-0.278789	-0.792594
H225	H	1.041733	-0.477498	-0.920006
