data_functionalizedCrystal
_audit_creation_method	'MofGen! by Chris Wilmer'
_symmetry_space_group_name_H-M	'P1'
_symmetry_Int_Tables_number	1
_symmetry_cell_setting	triclinic
loop_
_symmetry_equiv_pos_as_xyz
  x,y,z
_cell_length_a	12.827893
_cell_length_b	14.908520
_cell_length_c	12.827885
_cell_angle_alpha	93.263516
_cell_angle_beta	89.980728
_cell_angle_gamma	93.320765
loop_
_atom_site_label
_atom_site_type_symbol
_atom_site_fract_x
_atom_site_fract_y
_atom_site_fract_z
Zn1	Zn	1.573615	-0.359110	-0.614816
Zn2	Zn	1.906948	-0.025777	-0.281483
Zn3	Zn	2.240282	0.307557	0.051850
Zn4	Zn	1.563402	-0.509994	-0.450147
Zn5	Zn	1.896735	-0.176661	-0.116813
Zn6	Zn	2.230069	0.156673	0.216520
Zn7	Zn	1.398853	-0.359155	-0.440093
Zn8	Zn	1.732187	-0.025821	-0.106759
Zn9	Zn	2.065520	0.307512	0.226574
Zn10	Zn	1.388739	-0.509927	-0.624842
Zn11	Zn	1.722072	-0.176594	-0.291509
Zn12	Zn	2.055406	0.156739	0.041824
O13	O	1.481152	-0.434546	-0.532475
O14	O	1.814486	-0.101213	-0.199141
O15	O	2.147819	0.232120	0.134192
O16	O	1.718496	-0.379134	-0.592984
O17	O	2.051829	-0.045801	-0.259651
O18	O	2.385162	0.287532	0.073683
O19	O	1.541533	-0.490031	-0.302580
O20	O	1.874866	-0.156698	0.030753
O21	O	2.208200	0.176635	0.364087
O22	O	1.430543	-0.232904	-0.454867
O23	O	1.763876	0.100429	-0.121533
O24	O	2.097209	0.433762	0.211800
O25	O	1.710992	-0.489988	-0.472002
O26	O	2.044326	-0.156655	-0.138669
O27	O	2.377659	0.176679	0.194664
O28	O	1.558939	-0.232872	-0.583235
O29	O	1.892273	0.100462	-0.249902
O30	O	2.225606	0.433795	0.083431
O31	O	1.420640	-0.379210	-0.295193
O32	O	1.753973	-0.045877	0.038140
O33	O	2.087306	0.287457	0.371473
O34	O	1.251276	-0.379146	-0.464589
O35	O	1.584610	-0.045812	-0.131255
O36	O	1.917943	0.287521	0.202078
O37	O	1.413305	-0.489875	-0.769745
O38	O	1.746638	-0.156541	-0.436412
O39	O	2.079971	0.176792	-0.103079
O40	O	1.243845	-0.489918	-0.600323
O41	O	1.577179	-0.156584	-0.266990
O42	O	1.910512	0.176749	0.066343
O43	O	1.549132	-0.379070	-0.762379
O44	O	1.882465	-0.045737	-0.429046
O45	O	2.215799	0.287597	-0.095713
O46	O	1.531726	-0.636229	-0.481724
O47	O	1.865059	-0.302896	-0.148391
O48	O	2.198393	0.030437	0.184943
O49	O	1.403402	-0.636180	-0.610072
O50	O	1.736735	-0.302847	-0.276739
O51	O	2.070068	0.030486	0.056595
C52	C	1.209644	-0.434530	-0.532454
C53	C	1.542977	-0.101196	-0.199120
C54	C	1.876310	0.232137	0.134213
C55	C	1.093489	-0.434544	-0.532471
C56	C	1.426823	-0.101211	-0.199137
C57	C	1.760156	0.232122	0.134196
C58	C	1.045411	-0.379788	-0.592442
C59	C	1.378744	-0.046454	-0.259109
C60	C	1.712078	0.286879	0.074225
C61	C	0.925360	-0.379802	-0.592461
C62	C	1.258693	-0.046468	-0.259128
C63	C	1.592026	0.286865	0.074206
C64	C	1.465386	-0.668939	-0.548100
C65	C	1.798720	-0.335605	-0.214766
C66	C	2.132053	-0.002272	0.118567
C67	C	1.458737	-0.769212	-0.554819
C68	C	1.792071	-0.435879	-0.221486
C69	C	2.125404	-0.102546	0.111847
C70	C	1.580004	-0.957628	-0.433905
C71	C	1.913338	-0.624294	-0.100572
C72	C	2.246671	-0.290961	0.232762
C73	C	1.573760	-1.051844	-0.440215
C74	C	1.907094	-0.718511	-0.106882
C75	C	2.240427	-0.385177	0.226452
C76	C	1.440012	-1.051863	-0.573754
C77	C	1.773345	-0.718530	-0.240421
C78	C	2.106678	-0.385196	0.092912
C79	C	1.446255	-0.957647	-0.567444
C80	C	1.779589	-0.624313	-0.234111
C81	C	2.112922	-0.290980	0.099222
C82	C	1.516253	-0.910532	-0.497516
C83	C	1.849586	-0.577199	-0.164183
C84	C	2.182920	-0.243866	0.169151
C85	C	1.522491	-0.816314	-0.491201
C86	C	1.855824	-0.482981	-0.157868
C87	C	2.189158	-0.149648	0.175465
C88	C	1.388748	-0.816335	-0.624745
C89	C	1.722081	-0.483002	-0.291412
C90	C	2.055415	-0.149669	0.041922
C91	C	1.382504	-0.910551	-0.631055
C92	C	1.715838	-0.577218	-0.297722
C93	C	2.049171	-0.243885	0.035611
C94	C	1.753721	-0.434564	-0.532496
C95	C	2.087055	-0.101230	-0.199163
C96	C	2.420388	0.232103	0.134170
C97	C	1.869874	-0.434571	-0.532506
C98	C	2.203207	-0.101238	-0.199172
C99	C	2.536541	0.232096	0.134161
C100	C	1.481229	-0.434460	-0.805039
C101	C	1.814563	-0.101126	-0.471706
C102	C	2.147896	0.232207	-0.138372
C103	C	1.481262	-0.434423	-0.921190
C104	C	1.814595	-0.101090	-0.587856
C105	C	2.147929	0.232244	-0.254523
C106	C	1.497008	-0.199239	-0.516811
C107	C	1.830342	0.134094	-0.183478
C108	C	2.163675	0.467428	0.149856
C109	C	1.503765	-0.098965	-0.510136
C110	C	1.837099	0.234368	-0.176803
C111	C	2.170432	0.567702	0.156530
C112	C	1.548481	-0.379582	-0.969329
C113	C	1.881815	-0.046249	-0.635996
C114	C	2.215148	0.287084	-0.302662
C115	C	1.548517	-0.379543	-1.089377
C116	C	1.881850	-0.046210	-0.756043
C117	C	2.215183	0.287124	-0.422710
C118	C	1.481140	-0.434568	-0.260966
C119	C	1.814474	-0.101234	0.072367
C120	C	2.147807	0.232099	0.405701
C121	C	1.481327	-0.434350	-0.144799
C122	C	1.814660	-0.101017	0.188534
C123	C	2.147994	0.232316	0.521868
H124	H	1.045774	-0.481432	-0.481139
H125	H	1.379107	-0.148099	-0.147806
H126	H	1.712441	0.185235	0.185527
H127	H	0.883999	-0.332925	-0.643808
H128	H	1.217332	0.000408	-0.310475
H129	H	1.550665	0.333741	0.022858
H130	H	1.636992	-0.919267	-0.376959
H131	H	1.970325	-0.585933	-0.043626
H132	H	2.303658	-0.252600	0.289707
Cl133	Cl	1.392441	-0.506865	-0.994766
Cl134	Cl	1.725775	-0.173532	-0.661433
Cl135	Cl	2.059108	0.159801	-0.328099
H136	H	1.423779	-0.481307	-1.103394
H137	H	1.757112	-0.147974	-0.770060
H138	H	2.090445	0.185360	-0.436727
H139	H	1.093127	-0.332895	-0.643767
H140	H	1.426460	0.000438	-0.310434
H141	H	1.759793	0.333772	0.022899
Cl142	Cl	1.637378	-0.307055	-1.153308
Cl143	Cl	1.970712	0.026278	-0.819975
Cl144	Cl	2.304045	0.359611	-0.486642
Cl145	Cl	1.352036	-1.111108	-0.661670
Cl146	Cl	1.685369	-0.777774	-0.328337
Cl147	Cl	2.018703	-0.444441	0.004997
Cl148	Cl	0.933718	-0.506960	-0.453234
Cl149	Cl	1.267051	-0.173627	-0.119901
Cl150	Cl	1.600385	0.159706	0.213433
H151	H	1.606000	-0.332658	-0.921667
H152	H	1.939334	0.000676	-0.588334
H153	H	2.272667	0.334009	-0.255001
Cl154	Cl	1.610483	-0.757086	-0.403289
Cl155	Cl	1.943816	-0.423753	-0.069956
Cl156	Cl	2.277149	-0.090419	0.263378
H157	H	1.625675	-1.090186	-0.388418
H158	H	1.959009	-0.756852	-0.055085
H159	H	2.292342	-0.423519	0.278248
H160	H	1.325517	-0.948925	-0.687991
H161	H	1.658850	-0.615592	-0.354658
H162	H	1.992184	-0.282258	-0.021325
H163	H	1.336834	-0.777979	-0.676539
H164	H	1.670168	-0.444646	-0.343205
H165	H	2.003501	-0.111313	-0.009872
