data_functionalizedCrystal
_audit_creation_method	'MofGen! by Chris Wilmer'
_symmetry_space_group_name_H-M	'P1'
_symmetry_Int_Tables_number	1
_symmetry_cell_setting	triclinic
loop_
_symmetry_equiv_pos_as_xyz
  x,y,z
_cell_length_a	23.532407
_cell_length_b	16.109301
_cell_length_c	15.186229
_cell_angle_alpha	89.994833
_cell_angle_beta	89.998012
_cell_angle_gamma	96.844921
loop_
_atom_site_label
_atom_site_type_symbol
_atom_site_fract_x
_atom_site_fract_y
_atom_site_fract_z
O1	O	0.755631	-0.100924	0.073122
O2	O	0.589822	-0.115528	0.073148
O3	O	0.677281	0.012841	0.073125
O4	O	0.668171	-0.229293	0.073144
O5	O	0.677275	0.012843	-0.073332
O6	O	0.589816	-0.115526	-0.073310
O7	O	0.755625	-0.100923	-0.073336
Zn8	Zn	0.672720	-0.108224	-0.096576
Zn9	Zn	0.672727	-0.108226	0.096388
O10	O	0.668165	-0.229291	-0.073313
C11	C	0.568601	-0.115155	-0.000078
C12	C	0.505380	-0.114037	-0.000068
N13	N	0.672718	-0.108222	-0.228269
C14	C	0.676909	0.043814	-0.000104
C15	C	0.675803	0.136100	-0.000105
C16	C	0.106531	-0.182990	-0.000102
C17	C	0.047127	-0.181951	-0.000108
O18	O	0.010619	-0.245872	-0.000135
N19	N	0.024220	-0.105636	-0.000112
C20	C	0.060719	-0.030355	-0.000121
O21	O	0.035780	0.034652	-0.000126
C22	C	0.120122	-0.031395	-0.000121
C23	C	0.143027	-0.107715	-0.000108
C24	C	0.129436	-0.259304	-0.000090
C25	C	0.188836	-0.260342	-0.000083
C26	C	0.225331	-0.185066	-0.000088
C27	C	0.202427	-0.108753	-0.000101
C28	C	0.156621	0.043886	-0.000136
C29	C	0.216027	0.042840	-0.000137
C30	C	0.238932	-0.033480	-0.000124
C31	C	0.298322	-0.034516	-0.000099
N32	N	0.321229	-0.110831	-0.000094
C33	C	0.284734	-0.186106	-0.000089
C34	C	-0.064031	-0.028178	-0.000120
C35	C	-0.123433	-0.027138	-0.000113
C36	C	-0.137021	-0.178734	-0.000102
C37	C	-0.077618	-0.179774	-0.000103
C38	C	-0.041123	-0.104493	-0.000116
C39	C	0.409479	-0.188281	-0.000073
C40	C	0.468885	-0.189312	-0.000062
C41	C	0.482468	-0.037716	-0.000078
C42	C	0.423067	-0.036684	-0.000084
C43	C	0.386574	-0.111973	-0.000085
O44	O	0.334865	0.029371	-0.000076
O45	O	0.309682	-0.251102	-0.000095
C46	C	0.776846	-0.101295	-0.000108
C47	C	0.840067	-0.102414	-0.000112
C48	C	0.668537	-0.260264	-0.000082
C49	C	0.669644	-0.352551	-0.000075
C50	C	0.725127	0.358760	-0.000099
C51	C	0.724083	0.445473	-0.000092
C52	C	0.620315	0.424782	-0.000079
C53	C	0.621360	0.338072	-0.000080
C54	C	0.673768	0.305063	-0.000094
C55	C	0.671679	0.478486	-0.000086
C56	C	0.670547	0.572503	-0.000078
C57	C	0.674900	0.211040	-0.000101
C58	C	0.711459	-0.051399	-0.454002
C59	C	0.711461	-0.051397	-0.546191
C60	C	0.633988	-0.165047	-0.546180
C61	C	0.633984	-0.165044	-0.453992
C62	C	0.672723	-0.108222	-0.407905
C63	C	0.672729	-0.108222	-0.592283
C64	C	0.672730	-0.108220	-0.692239
C65	C	0.672720	-0.108222	-0.307943
N66	N	0.672733	-0.108222	0.228081
H67	H	0.487530	-0.251464	-0.000051
C68	C	0.780578	0.504539	-0.000093
H69	H	0.772452	0.560909	-0.000079
H70	H	0.802068	0.494588	-0.051168
H71	H	0.802064	0.494569	0.050984
C72	C	0.562672	0.461095	-0.000075
H73	H	0.569405	0.520427	-0.000085
H74	H	0.541523	0.442631	0.050998
H75	H	0.541528	0.442637	-0.051154
H76	H	0.207479	-0.322489	-0.000071
C77	C	0.564862	0.279001	-0.000077
H78	H	0.533500	0.311077	-0.000081
H79	H	0.563114	0.244740	0.050995
H80	H	0.563114	0.244752	-0.051157
C81	C	0.591366	-0.227530	-0.596874
H82	H	0.568287	-0.261359	-0.556215
H83	H	0.611829	-0.261999	-0.632845
H84	H	0.567673	-0.197770	-0.632827
H85	H	0.602438	-0.211316	-0.416458
H86	H	0.379772	-0.249588	-0.000076
H87	H	0.099727	-0.320606	-0.000088
C88	C	0.754064	0.011110	-0.403309
H89	H	0.777130	0.044957	-0.443969
H90	H	0.777763	-0.018616	-0.367339
H91	H	0.733578	0.045570	-0.367354
C92	C	0.754072	0.011104	-0.596894
H93	H	0.777144	0.044939	-0.556240
H94	H	0.733598	0.045563	-0.632861
H95	H	0.777774	-0.018635	-0.632850
C96	C	-0.177173	-0.261537	-0.000104
H97	H	-0.215830	-0.249981	-0.000115
H98	H	-0.170237	-0.292857	0.050970
H99	H	-0.170230	-0.292847	-0.051182
C100	C	-0.148621	0.056814	-0.000120
H101	H	-0.118373	0.101492	-0.000128
H102	H	-0.171516	0.060376	0.050949
H103	H	-0.171506	0.060373	-0.051203
C104	C	-0.052429	-0.263724	-0.000096
H105	H	-0.082676	-0.308402	-0.000097
H106	H	-0.029537	-0.267286	0.050975
H107	H	-0.029540	-0.267283	-0.051177
H108	H	-0.034320	0.033129	-0.000123
H109	H	0.245739	0.104144	-0.000148
C110	C	0.131439	0.127839	-0.000163
H111	H	0.161690	0.172513	-0.000179
H112	H	0.108545	0.131413	0.050904
H113	H	0.108555	0.131392	-0.051248
C114	C	0.397871	0.047265	-0.000090
H115	H	0.428116	0.091947	-0.000094
H116	H	0.374974	0.050822	0.050977
H117	H	0.374988	0.050822	-0.051176
C118	C	0.782773	0.322453	-0.000105
H119	H	0.813211	0.366855	-0.000099
H120	H	0.785339	0.289062	-0.051178
H121	H	0.785336	0.289054	0.050974
H122	H	0.512193	0.023571	-0.000079
