data_functionalizedCrystal
_audit_creation_method	'MofGen! by Chris Wilmer'
_symmetry_space_group_name_H-M	'P1'
_symmetry_Int_Tables_number	1
_symmetry_cell_setting	triclinic
loop_
_symmetry_equiv_pos_as_xyz
  x,y,z
_cell_length_a	27.732048
_cell_length_b	13.101039
_cell_length_c	27.732048
_cell_angle_alpha	86.670590
_cell_angle_beta	97.357345
_cell_angle_gamma	86.675896
loop_
_atom_site_label
_atom_site_type_symbol
_atom_site_fract_x
_atom_site_fract_y
_atom_site_fract_z
O1	O	0.643602	-0.085092	-0.054833
O2	O	0.502810	-0.085125	-0.063577
O3	O	0.577578	-0.085088	0.011191
O4	O	0.568834	-0.085129	-0.129601
O5	O	0.572214	0.085339	0.005818
O6	O	0.497445	0.085302	-0.068951
O7	O	0.638238	0.085335	-0.060206
Zn8	Zn	0.566990	0.112378	-0.065432
Zn9	Zn	0.574058	-0.112168	-0.058352
O10	O	0.563470	0.085298	-0.134975
C11	C	0.482121	0.000085	-0.066080
C12	C	0.428466	0.000073	-0.065527
N13	N	0.562170	0.265624	-0.070263
N14	N	0.578882	-0.265414	-0.053517
C15	C	0.089650	0.000106	-0.106232
C16	C	-0.112010	0.000115	-0.104181
O17	O	-0.143266	0.000149	-0.141403
N18	N	-0.131134	0.000127	-0.059847
C19	C	-0.099840	0.000142	-0.016021
O20	O	-0.120733	0.000162	0.021735
C21	C	0.101819	0.000140	-0.018073
C22	C	0.120941	0.000118	-0.062410
C23	C	0.108772	0.000085	-0.150566
C24	C	0.159184	0.000077	-0.151078
C25	C	0.190475	0.000090	-0.107256
C26	C	0.171353	0.000110	-0.062922
C27	C	0.133112	0.000162	0.025751
C28	C	0.183529	0.000164	0.025235
C29	C	0.202651	0.000143	-0.019103
C30	C	0.253055	0.000114	-0.019612
N31	N	0.272179	0.000103	-0.063947
C32	C	0.240889	0.000091	-0.107769
C33	C	-0.205714	0.000141	-0.014947
C34	C	-0.256128	0.000140	-0.014434
C35	C	-0.268295	0.000115	-0.102595
C36	C	-0.217879	0.000109	-0.103107
C37	C	-0.186590	0.000130	-0.059282
C38	C	0.346759	0.000073	-0.108841
C39	C	0.397176	0.000061	-0.109349
C40	C	0.409338	0.000091	-0.021189
C41	C	0.358925	0.000098	-0.020681
C42	C	0.327636	0.000092	-0.064511
O43	O	0.284340	0.000092	0.017589
O44	O	0.261792	0.000093	-0.145521
C45	C	0.039238	0.000114	-0.105720
C46	C	0.020116	0.000134	-0.061386
C47	C	0.051406	0.000146	-0.017564
C48	C	-0.030298	0.000133	-0.060873
C49	C	-0.061588	0.000121	-0.104695
C50	C	-0.042464	0.000109	-0.149030
C51	C	0.007948	0.000101	-0.149542
C52	C	0.032282	0.000157	0.026770
C53	C	-0.018130	0.000164	0.027279
C54	C	-0.049421	0.000152	-0.016543
C55	C	0.658927	0.000123	-0.057703
C56	C	0.712582	0.000128	-0.058256
C57	C	0.574712	0.000128	0.026511
C58	C	0.574159	0.000137	0.080166
C59	C	0.555611	0.474663	-0.076841
C60	C	0.585439	0.525553	-0.046941
C61	C	0.581790	0.641870	-0.050601
C62	C	0.559260	0.358336	-0.073181
C63	C	0.566336	0.000079	-0.150295
C64	C	0.566889	0.000064	-0.203949
C65	C	0.614864	0.000093	0.418982
C66	C	0.612814	0.000079	0.620642
O67	O	0.650036	0.000042	0.651899
N68	N	0.568479	0.000069	0.639766
C69	C	0.524654	0.000057	0.608472
O70	O	0.486898	0.000038	0.629366
C71	C	0.526705	0.000064	0.406813
C72	C	0.571043	0.000084	0.387692
C73	C	0.659198	0.000112	0.399860
C74	C	0.659710	0.000121	0.349448
C75	C	0.615888	0.000112	0.318158
C76	C	0.571554	0.000093	0.337279
C77	C	0.482881	0.000045	0.375520
C78	C	0.483397	0.000044	0.325103
C79	C	0.527735	0.000064	0.305981
C80	C	0.528245	0.000093	0.255577
N81	N	0.572579	0.000103	0.236453
C82	C	0.616401	0.000112	0.267743
C83	C	0.523580	0.000055	0.714346
C84	C	0.523067	0.000055	0.764760
C85	C	0.611227	0.000075	0.776927
C86	C	0.611740	0.000082	0.726512
C87	C	0.567915	0.000064	0.695222
C88	C	0.617473	0.000132	0.161873
C89	C	0.617981	0.000146	0.111456
C90	C	0.529821	0.000121	0.099294
C91	C	0.529313	0.000113	0.149707
C92	C	0.573143	0.000115	0.180996
O93	O	0.491043	0.000118	0.224292
O94	O	0.654153	0.000108	0.246841
C95	C	0.614352	0.000084	0.469394
C96	C	0.570019	0.000066	0.488516
C97	C	0.526197	0.000056	0.457226
C98	C	0.569506	0.000065	0.538931
C99	C	0.613327	0.000075	0.570221
C100	C	0.657662	0.000084	0.551097
C101	C	0.658174	0.000093	0.500685
C102	C	0.481862	0.000047	0.476350
C103	C	0.481353	0.000039	0.526763
C104	C	0.525175	0.000048	0.558053
H105	H	0.321288	0.000072	-0.144532
H106	H	-0.202315	0.000098	-0.139211
O107	O	0.518162	0.532652	-0.114393
H108	H	0.521143	0.616234	-0.111414
O109	O	0.482559	0.000113	0.065537
H110	H	0.451640	0.000107	0.087300
H111	H	0.412742	0.000043	-0.145455
H112	H	0.613715	0.481765	-0.018595
O113	O	0.433527	0.000019	0.547380
H114	H	0.428991	0.069481	0.567872
H115	H	0.446777	0.000022	0.391080
O116	O	0.476309	0.000042	0.680600
H117	H	0.472249	0.069503	0.655152
O118	O	-0.276748	0.000163	0.033388
H119	H	-0.261966	-0.069287	0.056619
H120	H	0.693344	0.000096	0.576582
O121	O	0.665804	0.000151	0.090832
H122	H	0.696189	0.000141	0.121063
H123	H	0.174748	0.000059	-0.187182
H124	H	0.653164	0.000130	0.187344
O125	O	0.434594	0.000056	0.442603
H126	H	0.403683	0.000060	0.464375
H127	H	-0.067950	0.000095	-0.184711
H128	H	0.695815	0.000133	0.333885
H129	H	0.083300	0.000079	-0.186253
O130	O	0.217277	0.000193	0.072504
H131	H	0.242723	-0.069266	0.076573
H132	H	0.694278	0.000109	0.485121
H133	H	0.694886	0.000116	0.425333
O134	O	-0.302048	0.000118	-0.149862
H135	H	-0.340315	0.000132	-0.142053
O136	O	0.659562	0.000083	0.705892
H137	H	0.678417	0.069545	0.716304
O138	O	-0.171967	0.000159	0.032323
H139	H	-0.193740	0.000158	0.063234
H140	H	0.646909	0.000083	0.802413
H141	H	0.486962	0.000057	0.780324
H142	H	0.447709	0.000028	0.299628
H143	H	0.117553	0.000181	0.061856
H144	H	0.343357	0.000100	0.015423
H145	H	0.493209	0.000125	0.165275
H146	H	0.434824	0.000097	0.014489
H147	H	0.023511	0.000085	-0.185646
H148	H	0.057755	0.000170	0.062456
O149	O	-0.038753	0.000197	0.075103
H150	H	-0.008521	0.000218	0.105485
