data_functionalizedCrystal
_audit_creation_method	'MofGen! by Chris Wilmer'
_symmetry_space_group_name_H-M	'P1'
_symmetry_Int_Tables_number	1
_symmetry_cell_setting	triclinic
loop_
_symmetry_equiv_pos_as_xyz
  x,y,z
_cell_length_a	19.121102
_cell_length_b	19.120786
_cell_length_c	19.120904
_cell_angle_alpha	90.133503
_cell_angle_beta	89.911827
_cell_angle_gamma	89.915559
loop_
_atom_site_label
_atom_site_type_symbol
_atom_site_fract_x
_atom_site_fract_y
_atom_site_fract_z
Zn1	Zn	1.040890	-0.342335	0.426845
Zn2	Zn	1.041233	-0.454595	0.304618
Zn3	Zn	0.929064	-0.332381	0.305071
Zn4	Zn	0.919063	-0.454124	0.416841
O5	O	0.982562	-0.395859	0.363344
O6	O	1.138863	-0.361590	0.414628
O7	O	1.030682	-0.434414	0.206750
O8	O	0.947940	-0.235771	0.325601
O9	O	1.139115	-0.444066	0.324828
O10	O	1.030098	-0.243084	0.415067
O11	O	0.948273	-0.344624	0.207082
O12	O	0.829810	-0.344168	0.315901
O13	O	0.930895	-0.443264	0.516097
O14	O	0.822462	-0.433612	0.398018
O15	O	1.020400	-0.361133	0.523446
O16	O	1.020985	-0.552463	0.315128
O17	O	0.931227	-0.552118	0.397578
C18	C	0.800745	-0.387759	0.355923
C19	C	0.722961	-0.384312	0.352765
C20	C	0.682611	-0.429326	0.393961
C21	C	0.609525	-0.426077	0.390997
C22	C	0.576790	-0.377818	0.346832
C23	C	0.617145	-0.332800	0.305634
C24	C	0.690230	-0.336045	0.308602
C25	C	0.356312	-0.365683	0.335738
C26	C	0.283222	-0.362442	0.332771
C27	C	0.275607	-0.455719	0.418136
C28	C	0.348693	-0.458963	0.421097
C29	C	0.389042	-0.413942	0.379902
C30	C	0.502085	-0.374498	0.343800
C31	C	0.463746	-0.417260	0.382938
C32	C	0.975076	-0.577684	0.355235
C33	C	0.971937	-0.655474	0.351792
C34	C	1.013202	-0.695766	0.396790
C35	C	1.010249	-0.768858	0.393556
C36	C	0.966034	-0.801655	0.345320
C37	C	0.924764	-0.761357	0.300320
C38	C	0.927714	-0.688267	0.303558
C39	C	0.954987	-1.022152	0.333214
C40	C	0.952042	-1.095247	0.329978
C41	C	1.037525	-1.102743	0.423215
C42	C	1.040474	-1.029652	0.426446
C43	C	0.999202	-0.989360	0.381449
C44	C	0.963016	-0.876366	0.342011
C45	C	1.002216	-0.914650	0.384761
C46	C	1.165090	-0.403991	0.370793
C47	C	1.242873	-0.407456	0.373968
C48	C	0.974494	-0.403257	0.545873
C49	C	0.971055	-0.406409	0.623656
C50	C	0.990096	-0.213325	0.371500
C51	C	0.993307	-0.135540	0.374976
C52	C	0.990642	-0.388441	0.181528
C53	C	0.994224	-0.385098	0.103760
C54	C	1.016038	-0.365131	0.664026
C55	C	1.012799	-0.368090	0.737112
C56	C	0.964579	-0.412331	0.769826
C57	C	0.919592	-0.453611	0.729450
C58	C	0.922828	-0.450648	0.656366
C59	C	0.952473	-0.423414	0.990300
C60	C	0.949242	-0.426376	1.063390
C61	C	1.042448	-0.340853	1.071046
C62	C	1.045683	-0.337897	0.997961
C63	C	1.000693	-0.379174	0.957592
C64	C	0.961269	-0.415359	0.844530
C65	C	1.004001	-0.376143	0.882888
H66	H	0.242747	-0.492372	0.451676
C67	C	0.903402	-1.131330	0.276919
C68	C	0.934176	-1.180693	0.221017
C69	C	0.885541	-1.216779	0.167960
C70	C	0.806134	-1.203500	0.170804
C71	C	0.775356	-1.154135	0.226708
C72	C	0.823990	-1.118049	0.279766
H73	H	0.992962	-1.190525	0.218909
H74	H	0.908326	-1.253323	0.126576
H75	H	0.770132	-1.230213	0.131528
H76	H	0.716570	-1.144303	0.228816
H77	H	0.801206	-1.081505	0.321149
H78	H	0.490402	-0.456549	0.418900
H79	H	0.894111	-0.655461	0.266917
H80	H	0.927019	-0.903078	0.302736
H81	H	1.071126	-1.135557	0.459850
H82	H	0.576675	-0.462733	0.424543
C83	C	0.873350	-0.496061	0.611958
C84	C	0.903632	-0.550318	0.560500
C85	C	0.854151	-0.595733	0.516094
C86	C	0.774388	-0.586890	0.523148
C87	C	0.744102	-0.532631	0.574608
C88	C	0.793583	-0.487217	0.619014
H89	H	0.962681	-0.556866	0.555277
H90	H	0.876572	-0.635899	0.478000
H91	H	0.737759	-0.620509	0.490276
H92	H	0.685053	-0.526083	0.579831
H93	H	0.771162	-0.447050	0.657109
H94	H	0.909974	-0.462404	1.090023
H95	H	1.076477	-1.002950	0.465723
H96	H	0.256572	-0.323136	0.296812
H97	H	0.723082	-0.299386	0.275059
H98	H	1.049209	-0.669068	0.436065
C99	C	1.091930	-0.295446	1.115453
C100	C	1.144969	-0.246782	1.079470
C101	C	1.194452	-0.201370	1.123876
C102	C	1.190897	-0.204624	1.204266
C103	C	1.137855	-0.253290	1.240254
C104	C	1.088372	-0.298702	1.195847
H105	H	1.147603	-0.244371	1.019956
H106	H	1.233717	-0.165344	1.097235
H107	H	1.227527	-0.171007	1.237138
H108	H	1.135221	-0.255701	1.299767
H109	H	1.049108	-0.334728	1.222488
H110	H	1.043857	-0.801661	0.430192
H111	H	0.921382	-0.989352	0.296574
H112	H	0.389156	-0.329028	0.302188
H113	H	1.038213	-0.887945	0.424037
C114	C	0.876128	-0.797433	0.247260
C115	C	0.906900	-0.846795	0.191356
C116	C	0.858265	-0.882871	0.138293
C117	C	0.778858	-0.869583	0.141133
C118	C	0.748083	-0.820218	0.197039
C119	C	0.796718	-0.784143	0.250102
H120	H	0.965685	-0.856634	0.189251
H121	H	0.881047	-0.919414	0.096907
H122	H	0.742856	-0.896288	0.101853
H123	H	0.689298	-0.810380	0.199144
H124	H	0.773935	-0.747600	0.291488
C125	C	0.902977	-0.468823	0.945915
C126	C	0.823218	-0.459967	0.952995
C127	C	0.773714	-0.505379	0.908613
C128	C	0.803969	-0.559648	0.857151
C129	C	0.883732	-0.568506	0.850069
C130	C	0.933236	-0.523094	0.894451
H131	H	0.800817	-0.419792	0.991092
H132	H	0.714667	-0.498821	0.913856
H133	H	0.767323	-0.593265	0.824297
H134	H	0.906133	-0.608681	0.811972
H135	H	0.992283	-0.529652	0.889208
H136	H	0.922012	-0.451384	0.871174
H137	H	0.880328	-0.489631	0.756091
H138	H	1.055305	-0.329107	0.637397
C139	C	1.057042	-0.327480	0.846905
C140	C	1.031212	-0.269151	0.797875
C141	C	1.084256	-0.220491	0.761884
C142	C	1.163129	-0.230159	0.774924
C143	C	1.188963	-0.288490	0.823957
C144	C	1.135919	-0.337151	0.859947
H145	H	0.972822	-0.261992	0.788220
H146	H	1.065132	-0.177310	0.725586
H147	H	1.202396	-0.194138	0.748281
H148	H	1.247353	-0.295650	0.833612
H149	H	1.155043	-0.380331	0.896245
C150	C	0.466069	-0.321414	0.295222
C151	C	0.479127	-0.242548	0.305023
C152	C	0.443106	-0.189461	0.256451
C153	C	0.394028	-0.215239	0.198078
C154	C	0.380968	-0.294109	0.188275
C155	C	0.416989	-0.347196	0.236847
H156	H	0.515459	-0.223461	0.348236
H157	H	0.452774	-0.131076	0.263708
H158	H	0.367363	-0.175941	0.162123
H159	H	0.344635	-0.313196	0.145062
H160	H	0.407321	-0.405581	0.229590
C161	C	0.384695	-0.512047	0.469685
C162	C	0.371627	-0.590912	0.459891
C163	C	0.407628	-0.643999	0.508479
C164	C	0.456696	-0.618221	0.566860
C165	C	0.469766	-0.539352	0.576656
C166	C	0.433766	-0.486265	0.528069
H167	H	0.335302	-0.609999	0.416672
H168	H	0.397952	-0.702383	0.501226
H169	H	0.483345	-0.657519	0.602827
H170	H	0.506091	-0.520266	0.619876
H171	H	0.443441	-0.427881	0.535321
C172	C	0.581137	-0.279710	0.257057
C173	C	0.594197	-0.200846	0.266861
C174	C	0.558189	-0.147756	0.218283
C175	C	0.509119	-0.173531	0.159901
C176	C	0.496056	-0.252400	0.150095
C177	C	0.532065	-0.305489	0.198673
H178	H	0.630523	-0.181762	0.310081
H179	H	0.567859	-0.089372	0.225543
H180	H	0.482464	-0.134230	0.123941
H181	H	0.459730	-0.271483	0.106875
H182	H	0.522395	-0.363874	0.191413
H183	H	0.709258	-0.468626	0.429923
C184	C	1.098720	-0.289222	0.961982
C185	C	1.072886	-0.230891	0.912957
C186	C	1.125925	-0.182216	0.876981
C187	C	1.204799	-0.191871	0.890029
C188	C	1.230637	-0.250205	0.939056
C189	C	1.177598	-0.298881	0.975033
H190	H	1.014496	-0.223741	0.903296
H191	H	1.106798	-0.139033	0.840687
H192	H	1.244061	-0.155839	0.863397
H193	H	1.289027	-0.257355	0.948717
H194	H	1.196725	-0.342063	1.011326
H195	H	1.049430	-0.334479	0.769978
