data_functionalizedCrystal
_audit_creation_method	'MofGen! by Chris Wilmer'
_symmetry_space_group_name_H-M	'P1'
_symmetry_Int_Tables_number	1
_symmetry_cell_setting	triclinic
loop_
_symmetry_equiv_pos_as_xyz
  x,y,z
_cell_length_a	10.654546
_cell_length_b	8.559649
_cell_length_c	9.130313
_cell_angle_alpha	89.999011
_cell_angle_beta	90.004123
_cell_angle_gamma	102.868926
loop_
_atom_site_label
_atom_site_type_symbol
_atom_site_fract_x
_atom_site_fract_y
_atom_site_fract_z
O1	O	1.644687	-0.224154	0.121823
O2	O	1.277001	-0.245519	0.121818
O3	O	1.493237	-0.002593	0.121820
O4	O	1.428451	-0.467080	0.121822
O5	O	1.493225	-0.002594	-0.121779
O6	O	1.276988	-0.245520	-0.121780
O7	O	1.644674	-0.224155	-0.121775
Cu8	Cu	1.460830	-0.234838	-0.144020
Cu9	Cu	1.460845	-0.234837	0.144063
O10	O	1.428438	-0.467081	-0.121777
C11	C	1.230358	-0.243952	0.000019
C12	C	1.091399	-0.239262	0.000017
C13	C	1.026141	-0.237042	0.132809
C14	C	0.895577	-0.232623	0.132821
C15	C	0.895542	-0.232637	-0.132764
C16	C	1.026102	-0.237068	-0.132774
C17	C	1.091438	-0.239237	0.265600
C18	C	1.026180	-0.237015	0.398403
C19	C	0.895616	-0.232596	0.398415
C20	C	0.830310	-0.230398	0.265624
C21	C	1.498141	0.056882	0.000023
C22	C	1.512755	0.234100	0.000032
C23	C	1.691317	-0.225722	0.000028
C24	C	1.830276	-0.230412	0.000039
C25	C	1.423534	-0.526556	0.000023
C26	C	1.408920	-0.703775	0.000024
N27	N	1.460829	-0.234837	-0.346643
C28	C	1.556612	-0.127296	-0.576632
C29	C	1.556601	-0.127306	-0.423296
C30	C	1.365069	-0.342377	-0.423335
C31	C	1.365087	-0.342374	-0.576669
C32	C	1.652383	-0.019747	-0.653277
C33	C	1.748145	0.087792	-0.576595
C34	C	1.748133	0.087782	-0.423258
C35	C	1.652361	-0.019766	-0.346603
N36	N	1.460858	-0.234824	0.346686
H37	H	0.842483	-0.230803	0.506550
H38	H	0.723992	-0.226817	0.265644
H39	H	1.197751	-0.242832	0.265606
C40	C	1.206762	0.214373	-0.125200
C41	C	1.273812	0.185011	0.000029
H42	H	1.123354	0.145698	-0.125197
H43	H	1.199190	0.322857	-0.125195
H44	H	1.252263	0.194448	-0.210136
H45	H	1.228315	0.204947	0.084966
H46	H	1.281379	0.076501	0.000038
H47	H	0.842360	-0.230845	-0.240876
C48	C	1.264748	-0.617833	-0.376125
C49	C	1.259797	-0.460579	-0.339077
H50	H	1.199758	-0.690802	-0.324100
H51	H	1.251048	-0.633214	-0.478406
H52	H	1.346792	-0.636136	-0.350968
H53	H	1.177755	-0.442272	-0.364244
H54	H	1.273486	-0.445192	-0.236773
H55	H	1.612840	0.316499	0.000021
C56	C	1.138904	-0.433513	-0.623956
C57	C	1.259827	-0.460552	-0.660978
H58	H	1.073924	-0.506468	-0.676015
H59	H	1.125186	-0.448922	-0.521682
H60	H	1.135588	-0.326813	-0.649087
H61	H	1.263147	-0.567249	-0.635837
H62	H	1.273549	-0.445156	-0.763275
H63	H	1.652399	-0.019726	-0.778131
H64	H	1.079358	-0.238819	0.506517
H65	H	1.079235	-0.238884	-0.240905
H66	H	1.826126	0.175345	-0.639016
C67	C	1.767421	-0.053380	-0.126929
C68	C	1.652351	-0.019782	-0.178052
H69	H	1.767414	-0.053377	-0.022875
H70	H	1.774733	-0.155591	-0.161613
H71	H	1.838156	0.026062	-0.161611
H72	H	1.581617	-0.099231	-0.143378
H73	H	1.645027	0.082443	-0.143352
H74	H	1.826113	0.175332	-0.360826
