data_functionalizedCrystal
_audit_creation_method	'MofGen! by Chris Wilmer'
_symmetry_space_group_name_H-M	'P1'
_symmetry_Int_Tables_number	1
_symmetry_cell_setting	triclinic
loop_
_symmetry_equiv_pos_as_xyz
  x,y,z
_cell_length_a	16.120530
_cell_length_b	21.395363
_cell_length_c	21.395355
_cell_angle_alpha	90.003952
_cell_angle_beta	92.920957
_cell_angle_gamma	87.098336
loop_
_atom_site_label
_atom_site_type_symbol
_atom_site_fract_x
_atom_site_fract_y
_atom_site_fract_z
Zn1	Zn	1.274740	-0.298164	0.402855
Zn2	Zn	1.524740	-0.048164	0.652855
Zn3	Zn	1.774740	0.201836	0.902855
Zn4	Zn	2.024740	0.451836	1.152855
Zn5	Zn	1.274679	-0.402922	0.298101
Zn6	Zn	1.524679	-0.152922	0.548101
Zn7	Zn	1.774679	0.097078	0.798101
Zn8	Zn	2.024679	0.347078	1.048101
Zn9	Zn	1.135308	-0.292842	0.292783
Zn10	Zn	1.385308	-0.042842	0.542783
Zn11	Zn	1.635308	0.207158	0.792783
Zn12	Zn	1.885308	0.457158	1.042783
Zn13	Zn	1.135336	-0.397587	0.397537
Zn14	Zn	1.385336	-0.147587	0.647537
Zn15	Zn	1.635336	0.102413	0.897537
Zn16	Zn	1.885336	0.352413	1.147537
O17	O	1.205016	-0.347879	0.347819
O18	O	1.455016	-0.097879	0.597819
O19	O	1.705016	0.152121	0.847819
O20	O	1.955016	0.402121	1.097819
O21	O	1.391400	-0.316520	0.393410
O22	O	1.641400	-0.066520	0.643410
O23	O	1.891400	0.183480	0.893410
O24	O	2.141400	0.433480	1.143410
O25	O	1.256154	-0.388325	0.209717
O26	O	1.506154	-0.138325	0.459717
O27	O	1.756154	0.111675	0.709717
O28	O	2.006154	0.361675	0.959717
O29	O	1.153817	-0.205871	0.307384
O30	O	1.403817	0.044129	0.557384
O31	O	1.653817	0.294129	0.807384
O32	O	1.903817	0.544129	1.057384
O33	O	1.391356	-0.393485	0.316448
O34	O	1.641356	-0.143485	0.566448
O35	O	1.891356	0.106515	0.816448
O36	O	2.141356	0.356515	1.066448
O37	O	1.256257	-0.209781	0.388253
O38	O	1.506257	0.040219	0.638253
O39	O	1.756257	0.290219	0.888253
O40	O	2.006257	0.540219	1.138253
O41	O	1.153758	-0.307450	0.205809
O42	O	1.403758	-0.057450	0.455809
O43	O	1.653758	0.192550	0.705809
O44	O	1.903758	0.442550	0.955809
O45	O	1.018643	-0.302277	0.302228
O46	O	1.268643	-0.052277	0.552228
O47	O	1.518643	0.197723	0.802228
O48	O	1.768643	0.447723	1.052228
O49	O	1.153865	-0.384393	0.485922
O50	O	1.403865	-0.134393	0.735922
O51	O	1.653865	0.115607	0.985922
O52	O	1.903865	0.365607	1.235922
O53	O	1.018664	-0.379233	0.379190
O54	O	1.268664	-0.129233	0.629190
O55	O	1.518664	0.120767	0.879190
O56	O	1.768664	0.370767	1.129190
O57	O	1.256285	-0.311347	0.489828
O58	O	1.506285	-0.061347	0.739828
O59	O	1.756285	0.188653	0.989828
O60	O	2.006285	0.438653	1.239828
O61	O	1.256182	-0.489891	0.311292
O62	O	1.506182	-0.239891	0.561292
O63	O	1.756182	0.010109	0.811292
O64	O	2.006182	0.260109	1.061292
O65	O	1.153807	-0.485972	0.384347
O66	O	1.403807	-0.235972	0.634347
O67	O	1.653807	0.014028	0.884347
O68	O	1.903807	0.264028	1.134347
C69	C	1.205014	-0.510666	0.347834
C70	C	1.455014	-0.260666	0.597834
C71	C	1.705014	-0.010666	0.847834
C72	C	1.955014	0.239334	1.097834
C73	C	1.205089	-0.580310	0.347864
C74	C	1.455089	-0.330310	0.597864
C75	C	1.705089	-0.080310	0.847864
C76	C	1.955089	0.169690	1.097864
C77	C	0.988402	-0.339599	0.339555
C78	C	1.238402	-0.089599	0.589555
C79	C	1.488402	0.160401	0.839555
C80	C	1.738402	0.410401	1.089555
C81	C	0.895734	-0.336072	0.336034
C82	C	1.145734	-0.086072	0.586034
C83	C	1.395734	0.163928	0.836034
C84	C	1.645734	0.413928	1.086034
C85	C	1.205085	-0.347869	0.511245
C86	C	1.455085	-0.097869	0.761245
C87	C	1.705085	0.152131	1.011245
C88	C	1.955085	0.402131	1.261245
C89	C	1.205114	-0.347864	0.580887
C90	C	1.455114	-0.097864	0.830887
C91	C	1.705114	0.152136	1.080887
C92	C	1.955114	0.402136	1.330887
C93	C	0.726069	-0.329619	0.329612
C94	C	0.976069	-0.079619	0.579612
C95	C	1.226069	0.170381	0.829612
C96	C	1.476069	0.420381	1.079612
C97	C	0.684803	-0.366185	0.366072
C98	C	0.934803	-0.116185	0.616072
C99	C	1.184803	0.133815	0.866072
C100	C	1.434803	0.383815	1.116072
C101	C	0.590395	-0.362594	0.362498
C102	C	0.840395	-0.112594	0.612498
C103	C	1.090395	0.137406	0.862498
C104	C	1.340395	0.387406	1.112498
C105	C	0.820485	-0.333209	0.333185
C106	C	1.070485	-0.083209	0.583185
C107	C	1.320485	0.166791	0.833185
C108	C	1.570485	0.416791	1.083185
C109	C	1.422475	-0.356191	0.356116
C110	C	1.672475	-0.106191	0.606116
C111	C	1.922475	0.143809	0.856116
C112	C	2.172475	0.393809	1.106116
C113	C	1.515143	-0.359733	0.359651
C114	C	1.765143	-0.109733	0.609651
C115	C	2.015143	0.140267	0.859651
C116	C	2.265143	0.390267	1.109651
C117	C	1.205040	-0.184456	0.347819
C118	C	1.455040	0.065544	0.597819
C119	C	1.705040	0.315544	0.847819
C120	C	1.955040	0.565544	1.097819
C121	C	1.205051	-0.114816	0.347818
C122	C	1.455051	0.135184	0.597818
C123	C	1.705051	0.385184	0.847818
C124	C	1.955051	0.635184	1.097818
C125	C	1.151726	-0.080066	0.305715
C126	C	1.401726	0.169934	0.555715
C127	C	1.651726	0.419934	0.805715
C128	C	1.901726	0.669934	1.055715
C129	C	1.151725	-0.014631	0.305723
C130	C	1.401725	0.235369	0.555723
C131	C	1.651725	0.485369	0.805723
C132	C	1.901725	0.735369	1.055723
C133	C	1.205064	0.016052	0.347827
C134	C	1.455064	0.266052	0.597827
C135	C	1.705064	0.516052	0.847827
C136	C	1.955064	0.766052	1.097827
C137	C	1.258393	-0.018705	0.389938
C138	C	1.508393	0.231295	0.639938
C139	C	1.758393	0.481295	0.889938
C140	C	2.008393	0.731295	1.139938
C141	C	1.258387	-0.084139	0.389934
C142	C	1.508387	0.165861	0.639934
C143	C	1.758387	0.415861	0.889934
C144	C	2.008387	0.665861	1.139934
C145	C	1.280191	0.116850	0.355645
C146	C	1.530191	0.366850	0.605645
C147	C	1.780191	0.616850	0.855645
C148	C	2.030191	0.866850	1.105645
C149	C	1.280199	0.182283	0.355645
C150	C	1.530199	0.432283	0.605645
C151	C	1.780199	0.682283	0.855645
C152	C	2.030199	0.932283	1.105645
C153	C	1.205083	0.217872	0.347844
C154	C	1.455083	0.467872	0.597844
C155	C	1.705083	0.717872	0.847844
C156	C	1.955083	0.967872	1.097844
C157	C	1.129958	0.188021	0.340030
C158	C	1.379958	0.438021	0.590030
C159	C	1.629958	0.688021	0.840030
C160	C	1.879958	0.938021	1.090030
C161	C	1.129952	0.122587	0.340026
C162	C	1.379952	0.372587	0.590026
C163	C	1.629952	0.622587	0.840026
C164	C	1.879952	0.872587	1.090026
C165	C	1.205077	0.087004	0.347837
C166	C	1.455077	0.337004	0.597837
C167	C	1.705077	0.587004	0.847837
C168	C	1.955077	0.837004	1.097837
C169	C	1.151753	0.323574	0.305747
C170	C	1.401753	0.573574	0.555747
C171	C	1.651753	0.823574	0.805747
C172	C	1.901753	1.073574	1.055747
C173	C	1.151750	0.389011	0.305759
C174	C	1.401750	0.639011	0.555759
C175	C	1.651750	0.889011	0.805759
C176	C	1.901750	1.139011	1.055759
C177	C	1.258426	0.384935	0.389971
C178	C	1.508426	0.634935	0.639971
C179	C	1.758426	0.884935	0.889971
C180	C	2.008426	1.134935	1.139971
C181	C	1.258421	0.319500	0.389962
C182	C	1.508421	0.569500	0.639962
C183	C	1.758421	0.819500	0.889962
C184	C	2.008421	1.069500	1.139962
C185	C	1.205085	0.288823	0.347847
C186	C	1.455085	0.538823	0.597847
C187	C	1.705085	0.788823	0.847847
C188	C	1.955085	1.038823	1.097847
C189	C	1.204995	-0.347845	0.185031
C190	C	1.454995	-0.097845	0.435031
C191	C	1.704995	0.152155	0.685031
C192	C	1.954995	0.402155	0.935031
C193	C	1.205127	-0.347679	0.115395
C194	C	1.455127	-0.097679	0.365395
C195	C	1.705127	0.152321	0.615395
C196	C	1.955127	0.402321	0.865395
C197	C	1.258442	-0.309828	0.615636
C198	C	1.508442	-0.059828	0.865636
C199	C	1.758442	0.190172	1.115636
C200	C	2.008442	0.440172	1.365636
C201	C	1.258441	-0.309801	0.681071
C202	C	1.508441	-0.059801	0.931071
C203	C	1.758441	0.190199	1.181071
C204	C	2.008441	0.440199	1.431071
C205	C	1.205121	-0.347822	0.711756
C206	C	1.455121	-0.097822	0.961756
C207	C	1.705121	0.152178	1.211756
C208	C	1.955121	0.402178	1.461756
C209	C	1.151783	-0.385861	0.676999
C210	C	1.401783	-0.135861	0.926999
C211	C	1.651783	0.114139	1.176999
C212	C	1.901783	0.364139	1.426999
C213	C	1.151780	-0.385882	0.611565
C214	C	1.401780	-0.135882	0.861565
C215	C	1.651780	0.114118	1.111565
C216	C	1.901780	0.364118	1.361565
C217	C	1.198537	-0.403986	0.815185
C218	C	1.448537	-0.153986	1.065185
C219	C	1.698537	0.096014	1.315185
C220	C	1.948537	0.346014	1.565185
C221	C	1.198546	-0.403966	0.880619
C222	C	1.448546	-0.153966	1.130619
C223	C	1.698546	0.096034	1.380619
C224	C	1.948546	0.346034	1.630619
C225	C	1.205126	-0.347756	0.913577
C226	C	1.455126	-0.097756	1.163577
C227	C	1.705126	0.152244	1.413577
C228	C	1.955126	0.402244	1.663577
C229	C	1.211714	-0.291565	0.881095
C230	C	1.461714	-0.041565	1.131095
C231	C	1.711714	0.208435	1.381095
C232	C	1.961714	0.458435	1.631095
C233	C	1.211711	-0.291586	0.815660
C234	C	1.461711	-0.041586	1.065660
C235	C	1.711711	0.208414	1.315660
C236	C	1.961711	0.458414	1.565660
C237	C	1.205118	-0.347803	0.782708
C238	C	1.455118	-0.097803	1.032708
C239	C	1.705118	0.152197	1.282708
C240	C	1.955118	0.402197	1.532708
C241	C	1.258455	-0.309687	1.019278
C242	C	1.508455	-0.059687	1.269278
C243	C	1.758455	0.190313	1.519278
C244	C	2.008455	0.440313	1.769278
C245	C	1.258448	-0.309659	1.084714
C246	C	1.508448	-0.059659	1.334714
C247	C	1.758448	0.190341	1.584714
C248	C	2.008448	0.440341	1.834714
C249	C	1.151795	-0.385725	1.080641
C250	C	1.401795	-0.135725	1.330641
C251	C	1.651795	0.114275	1.580641
C252	C	1.901795	0.364275	1.830641
C253	C	1.151797	-0.385747	1.015206
C254	C	1.401797	-0.135747	1.265206
C255	C	1.651797	0.114253	1.515206
C256	C	1.901797	0.364253	1.765206
C257	C	1.205132	-0.347729	0.984529
C258	C	1.455132	-0.097729	1.234529
C259	C	1.705132	0.152271	1.484529
C260	C	1.955132	0.402271	1.734529
H261	H	0.720377	-0.400187	0.399970
H262	H	0.970377	-0.150187	0.649970
H263	H	1.220377	0.099813	0.899970
H264	H	1.470377	0.349813	1.149970
F265	F	0.679575	-0.285178	0.285308
F266	F	0.929575	-0.035178	0.535308
F267	F	1.179575	0.214822	0.785308
F268	F	1.429575	0.464822	1.035308
F269	F	1.050009	0.225893	0.331722
F270	F	1.300009	0.475893	0.581722
F271	F	1.550009	0.725893	0.831722
F272	F	1.800009	0.975893	1.081722
H273	H	1.108367	-0.416816	0.701987
H274	H	1.358367	-0.166816	0.951987
H275	H	1.608367	0.083184	1.201987
H276	H	1.858367	0.333184	1.451987
F277	F	1.218718	-0.231785	0.781093
F278	F	1.468718	0.018215	1.031093
F279	F	1.718718	0.268215	1.281093
F280	F	1.968718	0.518215	1.531093
F281	F	1.094986	0.290924	0.260927
F282	F	1.344986	0.540924	0.510927
F283	F	1.594986	0.790924	0.760927
F284	F	1.844986	1.040924	1.010927
H285	H	1.108294	-0.105039	0.271423
H286	H	1.358294	0.144961	0.521423
H287	H	1.608294	0.394961	0.771423
H288	H	1.858294	0.644961	1.021423
H289	H	1.301810	-0.112432	0.424221
H290	H	1.551810	0.137568	0.674221
H291	H	1.801810	0.387568	0.924221
H292	H	2.051810	0.637568	1.174221
H293	H	1.301864	-0.278823	0.709369
H294	H	1.551864	-0.028823	0.959369
H295	H	1.801864	0.221177	1.209369
H296	H	2.051864	0.471177	1.459369
F297	F	1.094970	0.022359	0.260907
F298	F	1.344970	0.272359	0.510907
F299	F	1.594970	0.522359	0.760907
F300	F	1.844970	0.772359	1.010907
F301	F	1.315202	-0.269363	0.582990
F302	F	1.565202	-0.019363	0.832990
F303	F	1.815202	0.230637	1.082990
F304	F	2.065202	0.480637	1.332990
F305	F	1.315219	-0.269180	1.121697
F306	F	1.565219	-0.019180	1.371697
F307	F	1.815219	0.230820	1.621697
F308	F	2.065219	0.480820	1.871697
H309	H	1.108372	-0.416676	1.105624
H310	H	1.358372	-0.166676	1.355624
H311	H	1.608372	0.083324	1.605624
H312	H	1.858372	0.333324	1.855624
H313	H	1.108322	0.417305	0.271475
H314	H	1.358322	0.667305	0.521475
H315	H	1.608322	0.917305	0.771475
H316	H	1.858322	1.167305	1.021475
F317	F	1.050000	0.090820	0.331713
F318	F	1.300000	0.340820	0.581713
F319	F	1.550000	0.590820	0.831713
F320	F	1.800000	0.840820	1.081713
F321	F	1.315192	0.417586	0.434784
F322	F	1.565192	0.667586	0.684784
F323	F	1.815192	0.917586	0.934784
F324	F	2.065192	1.167586	1.184784
H325	H	1.301849	0.291206	0.424244
H326	H	1.551849	0.541206	0.674244
H327	H	1.801849	0.791206	0.924244
H328	H	2.051849	1.041206	1.174244
F329	F	1.315156	0.013951	0.434751
F330	F	1.565156	0.263951	0.684751
F331	F	1.815156	0.513951	0.934751
F332	F	2.065156	0.763951	1.184751
F333	F	1.360153	0.214046	0.363960
F334	F	1.610153	0.464046	0.613960
F335	F	1.860153	0.714046	0.863960
F336	F	2.110153	0.964046	1.113960
F337	F	1.360144	0.078979	0.363949
F338	F	1.610144	0.328979	0.613949
F339	F	1.860144	0.578979	0.863949
F340	F	2.110144	0.828979	1.113949
H341	H	1.217073	-0.245793	0.907928
H342	H	1.467073	0.004207	1.157928
H343	H	1.717073	0.254207	1.407928
H344	H	1.967073	0.504207	1.657928
H345	H	1.301878	-0.278727	0.994299
H346	H	1.551878	-0.028727	1.244299
H347	H	1.801878	0.221273	1.494299
H348	H	2.051878	0.471273	1.744299
F349	F	1.095041	-0.426234	0.978223
F350	F	1.345041	-0.176234	1.228223
F351	F	1.595041	0.073766	1.478223
F352	F	1.845041	0.323766	1.728223
H353	H	1.193187	-0.449721	0.907061
H354	H	1.443187	-0.199721	1.157061
H355	H	1.693187	0.050279	1.407061
H356	H	1.943187	0.300279	1.657061
F357	F	1.191553	-0.463819	0.780115
F358	F	1.441553	-0.213819	1.030115
F359	F	1.691553	0.036181	1.280115
F360	F	1.941553	0.286181	1.530115
F361	F	1.095019	-0.426368	0.574582
F362	F	1.345019	-0.176368	0.824582
F363	F	1.595019	0.073632	1.074582
F364	F	1.845019	0.323632	1.324582
