data_functionalizedCrystal
_audit_creation_method	'MofGen! by Chris Wilmer'
_symmetry_space_group_name_H-M	'P1'
_symmetry_Int_Tables_number	1
_symmetry_cell_setting	triclinic
loop_
_symmetry_equiv_pos_as_xyz
  x,y,z
_cell_length_a	12.594516
_cell_length_b	13.897449
_cell_length_c	13.897441
_cell_angle_alpha	90.026069
_cell_angle_beta	89.972755
_cell_angle_gamma	89.981899
loop_
_atom_site_label
_atom_site_type_symbol
_atom_site_fract_x
_atom_site_fract_y
_atom_site_fract_z
Zn1	Zn	-0.423710	-1.474699	-0.545541
Zn2	Zn	-0.173710	-1.224699	-0.295541
Zn3	Zn	0.076290	-0.974699	-0.045541
Zn4	Zn	0.326290	-0.724699	0.204459
Zn5	Zn	-0.601721	-1.474592	-0.384252
Zn6	Zn	-0.351721	-1.224592	-0.134252
Zn7	Zn	-0.101721	-0.974592	0.115748
Zn8	Zn	0.148279	-0.724592	0.365748
Zn9	Zn	-0.423757	-1.313389	-0.384244
Zn10	Zn	-0.173757	-1.063389	-0.134244
Zn11	Zn	0.076243	-0.813389	0.115756
Zn12	Zn	0.326243	-0.563389	0.365756
Zn13	Zn	-0.601647	-1.313369	-0.545489
Zn14	Zn	-0.351647	-1.063369	-0.295489
Zn15	Zn	-0.101647	-0.813369	-0.045489
Zn16	Zn	0.148353	-0.563369	0.204511
O17	O	-0.512709	-1.394012	-0.464882
O18	O	-0.262709	-1.144012	-0.214882
O19	O	-0.012709	-0.894012	0.035118
O20	O	0.237291	-0.644012	0.285118
O21	O	-0.447335	-1.609667	-0.524170
O22	O	-0.197335	-1.359667	-0.274170
O23	O	0.052665	-1.109667	-0.024170
O24	O	0.302665	-0.859667	0.225830
O25	O	-0.578164	-1.453171	-0.249269
O26	O	-0.328164	-1.203171	0.000731
O27	O	-0.078164	-0.953171	0.250731
O28	O	0.171836	-0.703171	0.500731
O29	O	-0.274805	-1.334840	-0.405659
O30	O	-0.024805	-1.084840	-0.155659
O31	O	0.225195	-0.834840	0.094341
O32	O	0.475195	-0.584840	0.344341
O33	O	-0.578119	-1.609588	-0.405672
O34	O	-0.328119	-1.359588	-0.155672
O35	O	-0.078119	-1.109588	0.094328
O36	O	0.171881	-0.859588	0.344328
O37	O	-0.274771	-1.453354	-0.524163
O38	O	-0.024771	-1.203354	-0.274163
O39	O	0.225229	-0.953354	-0.024163
O40	O	0.475229	-0.703354	0.225837
O41	O	-0.447414	-1.334736	-0.249264
O42	O	-0.197414	-1.084736	0.000736
O43	O	0.052586	-0.834736	0.250736
O44	O	0.302586	-0.584736	0.500736
O45	O	-0.447343	-1.178404	-0.405609
O46	O	-0.197343	-0.928404	-0.155609
O47	O	0.052657	-0.678404	0.094391
O48	O	0.302657	-0.428404	0.344391
O49	O	-0.577993	-1.334807	-0.680478
O50	O	-0.327993	-1.084807	-0.430478
O51	O	-0.077993	-0.834807	-0.180478
O52	O	0.172007	-0.584807	0.069522
O53	O	-0.578038	-1.178390	-0.524075
O54	O	-0.328038	-0.928390	-0.274075
O55	O	-0.078038	-0.678390	-0.024075
O56	O	0.171962	-0.428390	0.225925
O57	O	-0.447263	-1.453335	-0.680516
O58	O	-0.197263	-1.203335	-0.430516
O59	O	0.052737	-0.953335	-0.180516
O60	O	0.302737	-0.703335	0.069484
O61	O	-0.750657	-1.453152	-0.405622
O62	O	-0.500657	-1.203152	-0.155622
O63	O	-0.250657	-0.953152	0.094378
O64	O	-0.000657	-0.703152	0.344378
O65	O	-0.750602	-1.334702	-0.524082
O66	O	-0.500602	-1.084702	-0.274082
O67	O	-0.250602	-0.834702	-0.024082
O68	O	-0.000602	-0.584702	0.225918
C69	C	-0.512688	-1.143398	-0.464836
C70	C	-0.262688	-0.893398	-0.214836
C71	C	-0.012688	-0.643398	0.035164
C72	C	0.237312	-0.393398	0.285164
C73	C	-0.512705	-1.036184	-0.464840
C74	C	-0.262705	-0.786184	-0.214840
C75	C	-0.012705	-0.536184	0.035160
C76	C	0.237295	-0.286184	0.285160
C77	C	-0.789250	-1.393940	-0.464868
C78	C	-0.539250	-1.143940	-0.214868
C79	C	-0.289250	-0.893940	0.035132
C80	C	-0.039250	-0.643940	0.285132
C81	C	-0.907555	-1.393997	-0.464895
C82	C	-0.657555	-1.143997	-0.214895
C83	C	-0.407555	-0.893997	0.035105
C84	C	-0.157555	-0.643997	0.285105
C85	C	-0.512707	-0.949114	-0.464852
C86	C	-0.262707	-0.699114	-0.214852
C87	C	-0.012707	-0.449114	0.035148
C88	C	0.237293	-0.199114	0.285148
C89	C	-0.512712	-0.839882	-0.464876
C90	C	-0.262712	-0.589882	-0.214876
C91	C	-0.012712	-0.339882	0.035124
C92	C	0.237288	-0.089882	0.285124
C93	C	-1.047581	-1.329625	-0.529293
C94	C	-0.797581	-1.079625	-0.279293
C95	C	-0.547581	-0.829625	-0.029293
C96	C	-0.297581	-0.579625	0.220707
C97	C	-0.976670	-1.417562	-0.552965
C98	C	-0.726670	-1.167562	-0.302965
C99	C	-0.476670	-0.917562	-0.052965
C100	C	-0.226670	-0.667562	0.197035
C101	C	-0.976895	-1.306068	-0.441266
C102	C	-0.726895	-1.056068	-0.191266
C103	C	-0.476895	-0.806068	0.058734
C104	C	-0.226895	-0.556068	0.308734
C105	C	-1.047429	-1.482139	-0.488649
C106	C	-0.797429	-1.232139	-0.238649
C107	C	-0.547429	-0.982139	0.011351
C108	C	-0.297429	-0.732139	0.261351
C109	C	-1.047661	-1.370585	-0.376908
C110	C	-0.797661	-1.120585	-0.126908
C111	C	-0.547661	-0.870585	0.123092
C112	C	-0.297661	-0.620585	0.373092
C113	C	-0.976781	-1.458584	-0.400547
C114	C	-0.726781	-1.208584	-0.150547
C115	C	-0.476781	-0.958584	0.099453
C116	C	-0.226781	-0.708584	0.349453
C117	C	-0.235088	-1.394111	-0.464916
C118	C	0.014912	-1.144111	-0.214916
C119	C	0.264912	-0.894111	0.035084
C120	C	0.514912	-0.644111	0.285084
C121	C	-0.116782	-1.394154	-0.464931
C122	C	0.133218	-1.144154	-0.214931
C123	C	0.383218	-0.894154	0.035069
C124	C	0.633218	-0.644154	0.285069
C125	C	-0.512615	-1.394081	-0.716475
C126	C	-0.262615	-1.144081	-0.466475
C127	C	-0.012615	-0.894081	-0.216475
C128	C	0.237385	-0.644081	0.033525
C129	C	-0.512574	-1.394110	-0.823689
C130	C	-0.262574	-1.144110	-0.573689
C131	C	-0.012574	-0.894110	-0.323689
C132	C	0.237426	-0.644110	-0.073689
C133	C	-0.512726	-0.645605	-0.464916
C134	C	-0.262726	-0.395605	-0.214916
C135	C	-0.012726	-0.145605	0.035084
C136	C	0.237274	0.104395	0.285084
C137	C	-0.512722	-0.752819	-0.464901
C138	C	-0.262722	-0.502819	-0.214901
C139	C	-0.012722	-0.252819	0.035099
C140	C	0.237278	-0.002819	0.285099
C141	C	-0.512502	-1.394136	-1.019984
C142	C	-0.262502	-1.144136	-0.769984
C143	C	-0.012502	-0.894136	-0.519984
C144	C	0.237498	-0.644136	-0.269984
C145	C	-0.512545	-1.394119	-0.910751
C146	C	-0.262545	-1.144119	-0.660751
C147	C	-0.012545	-0.894119	-0.410751
C148	C	0.237455	-0.644119	-0.160751
C149	C	-0.512726	-1.394000	-0.214267
C150	C	-0.262726	-1.144000	0.035733
C151	C	-0.012726	-0.894000	0.285733
C152	C	0.237274	-0.644000	0.535733
C153	C	-0.512466	-1.394157	-0.107054
C154	C	-0.262466	-1.144157	0.142946
C155	C	-0.012466	-0.894157	0.392946
C156	C	0.237534	-0.644157	0.642946
H157	H	-0.945490	-1.437436	-0.627388
H158	H	-0.695490	-1.187436	-0.377388
H159	H	-0.445490	-0.937436	-0.127388
H160	H	-0.195490	-0.687436	0.122612
H161	H	-1.078864	-1.350685	-0.302507
H162	H	-0.828864	-1.100685	-0.052507
H163	H	-0.578864	-0.850685	0.197493
H164	H	-0.328864	-0.600685	0.447493
O165	O	-1.088287	-1.580755	-0.515272
O166	O	-0.838287	-1.330755	-0.265272
O167	O	-0.588287	-1.080755	-0.015272
O168	O	-0.338287	-0.830755	0.234728
H169	H	-1.176413	-1.580036	-0.515119
H170	H	-0.926413	-1.330036	-0.265119
H171	H	-0.676413	-1.080036	-0.015119
H172	H	-0.426413	-0.830036	0.234881
H173	H	-1.078664	-1.275188	-0.583779
H174	H	-0.828664	-1.025188	-0.333779
H175	H	-0.578664	-0.775188	-0.083779
H176	H	-0.328664	-0.525188	0.166221
H177	H	-0.945905	-1.231641	-0.421266
H178	H	-0.695905	-0.981641	-0.171266
H179	H	-0.445905	-0.731641	0.078734
H180	H	-0.195905	-0.481641	0.328734
H181	H	-0.945892	-1.513150	-0.346102
H182	H	-0.695892	-1.263150	-0.096102
H183	H	-0.445892	-1.013150	0.153898
H184	H	-0.195892	-0.763150	0.403898
