data_functionalizedCrystal
_audit_creation_method	'MofGen! by Chris Wilmer'
_symmetry_space_group_name_H-M	'P1'
_symmetry_Int_Tables_number	1
_symmetry_cell_setting	triclinic
loop_
_symmetry_equiv_pos_as_xyz
  x,y,z
_cell_length_a	6.817900
_cell_length_b	9.514072
_cell_length_c	23.753023
_cell_angle_alpha	93.107638
_cell_angle_beta	79.932472
_cell_angle_gamma	61.156579
loop_
_atom_site_label
_atom_site_type_symbol
_atom_site_fract_x
_atom_site_fract_y
_atom_site_fract_z
V1	V	4.074170	-0.224237	-0.178841
O2	O	3.973710	0.008689	-0.174975
O3	O	4.109104	-0.442618	-0.178061
O4	O	4.008240	-0.221704	-0.256637
O5	O	4.075272	-0.213755	-0.095855
V6	V	4.549271	-0.196269	-0.168861
O7	O	4.353902	-0.285589	-0.200732
O8	O	4.719736	-0.134917	-0.146970
O9	O	4.291130	0.022112	-0.169640
O10	O	4.767128	-0.429195	-0.172727
O11	O	4.665566	-0.206751	-0.251846
O12	O	4.391994	-0.198802	-0.091065
C13	C	3.974945	-0.495826	-0.175354
C14	C	4.084677	-0.674361	-0.175235
C15	C	3.846282	-0.214026	-0.275584
C16	C	3.874212	-0.213399	-0.339186
C17	C	4.142234	-0.356878	-0.742066
C18	C	4.168522	-0.356314	-0.801828
O19	O	4.262555	-0.481184	-0.839940
N20	N	4.087153	-0.208858	-0.823249
C21	C	3.979510	-0.061958	-0.784904
O22	O	3.912715	0.063517	-0.808611
C23	C	3.953238	-0.062524	-0.725143
C24	C	4.034594	-0.209988	-0.703726
C25	C	4.223584	-0.504330	-0.720648
C26	C	4.197294	-0.504893	-0.660890
C27	C	4.089654	-0.358003	-0.622549
C28	C	4.008304	-0.210551	-0.643967
C29	C	3.845611	0.084375	-0.686799
C30	C	3.819347	0.083796	-0.627035
C31	C	3.900703	-0.063668	-0.605618
C32	C	3.874373	-0.064224	-0.545869
N33	N	3.955742	-0.211679	-0.524448
C34	C	4.063382	-0.358569	-0.562788
C35	C	4.034693	-0.060781	-0.910406
C36	C	4.060949	-0.060212	-0.970166
C37	C	4.249963	-0.354570	-0.987086
C38	C	4.223691	-0.355136	-0.927326
C39	C	4.116062	-0.208236	-0.888986
C40	C	4.008162	-0.359740	-0.437291
C41	C	3.981852	-0.360289	-0.377527
C42	C	3.792852	-0.065933	-0.360611
C43	C	3.819147	-0.065382	-0.420370
C44	C	3.926817	-0.212299	-0.458710
O45	O	3.780373	0.060581	-0.507722
O46	O	4.130187	-0.484024	-0.539073
C47	C	4.217297	-0.206485	-0.072114
C48	C	4.168603	-0.207104	-0.008512
C49	C	4.088635	0.075312	-0.172346
C50	C	3.958141	0.253845	-0.172468
H51	H	3.765837	-0.671024	-0.170162
C52	C	3.916248	0.100833	-0.868236
N53	N	3.827034	0.222560	-0.836476
H54	H	4.276989	-0.749497	-0.177534
H55	H	4.048101	-0.480377	-0.360093
C56	C	3.971420	0.102011	-0.993717
N57	N	3.903995	0.224203	-1.011453
H58	H	4.095831	-0.479373	-0.468501
C59	C	4.286832	-0.667119	-0.637340
N60	N	4.354293	-0.789316	-0.619607
C61	C	4.341967	-0.665934	-0.762814
N62	N	4.431112	-0.787663	-0.794570
H63	H	3.752912	0.054695	-0.437809
C64	C	4.313212	-0.517357	-0.903773
N65	N	4.380653	-0.639550	-0.886037
H66	H	4.337615	-0.474176	-1.018315
H67	H	3.779342	0.204457	-0.704226
C68	C	3.700936	0.245402	-0.584864
N69	N	3.611740	0.367124	-0.553102
H70	H	3.705203	0.053661	-0.329384
