data_functionalizedCrystal
_audit_creation_method	'MofGen! by Chris Wilmer'
_symmetry_space_group_name_H-M	'P1'
_symmetry_Int_Tables_number	1
_symmetry_cell_setting	triclinic
loop_
_symmetry_equiv_pos_as_xyz
  x,y,z
_cell_length_a	23.532407
_cell_length_b	23.532407
_cell_length_c	22.010155
_cell_angle_alpha	89.999577
_cell_angle_beta	89.996931
_cell_angle_gamma	82.848678
loop_
_atom_site_label
_atom_site_type_symbol
_atom_site_fract_x
_atom_site_fract_y
_atom_site_fract_z
O1	O	0.755264	0.069127	-0.050455
O2	O	1.255264	0.569127	0.449545
O3	O	0.589400	0.079130	-0.050474
O4	O	1.089400	0.579130	0.449526
O5	O	0.677334	-0.008803	-0.050453
O6	O	1.177334	0.491197	0.449547
O7	O	0.667330	0.157060	-0.050476
O8	O	1.167330	0.657060	0.449524
O9	O	0.677318	-0.008790	0.050597
O10	O	1.177318	0.491210	0.550597
O11	O	0.589384	0.079143	0.050576
O12	O	1.089384	0.579143	0.550576
O13	O	0.755248	0.069140	0.050595
O14	O	1.255248	0.569140	0.550595
Cu15	Cu	0.672315	0.074143	0.059812
Cu16	Cu	1.172315	0.574143	0.559812
Cu17	Cu	0.672333	0.074127	-0.059691
Cu18	Cu	1.172333	0.574127	0.440309
O19	O	0.667314	0.157073	0.050574
O20	O	1.167314	0.657073	0.550574
C21	C	0.568176	0.078882	0.000049
C22	C	1.068176	0.578882	0.500049
C23	C	0.504959	0.078116	0.000042
C24	C	1.004959	0.578116	0.500042
C25	C	0.677071	-0.030013	0.000074
C26	C	1.177071	0.469987	0.500074
C27	C	0.676305	-0.093230	0.000078
C28	C	1.176305	0.406770	0.500078
C29	C	0.105856	0.125350	0.000063
C30	C	0.605856	0.625350	0.500063
C31	C	0.046456	0.124638	0.000067
C32	C	0.546456	0.624638	0.500067
O33	O	0.009711	0.168424	0.000083
O34	O	0.509711	0.668424	0.500083
N35	N	0.023830	0.072362	0.000073
N36	N	0.523830	0.572362	0.500073
C37	C	0.060607	0.020794	0.000082
C38	C	0.560607	0.520794	0.500082
O39	O	0.035908	-0.023737	0.000088
O40	O	0.535908	0.476263	0.500088
C41	C	0.120006	0.021506	0.000082
C42	C	0.620006	0.521506	0.500082
C43	C	0.142629	0.073785	0.000070
C44	C	0.642629	0.573785	0.500070
C45	C	0.128479	0.177625	0.000051
C46	C	0.628479	0.677625	0.500051
C47	C	0.187876	0.178336	0.000046
C48	C	0.687876	0.678336	0.500046
C49	C	0.224649	0.126772	0.000053
C50	C	0.724649	0.626772	0.500053
C51	C	0.202025	0.074497	0.000065
C52	C	0.702025	0.574497	0.500065
C53	C	0.156783	-0.030062	0.000096
C54	C	0.656783	0.469938	0.500096
C55	C	0.216185	-0.029345	0.000097
C56	C	0.716185	0.470655	0.500097
C57	C	0.238808	0.022934	0.000084
C58	C	0.738808	0.522934	0.500084
C59	C	0.298194	0.023643	0.000067
C60	C	0.798194	0.523643	0.500067
N61	N	0.320820	0.075920	0.000061
N62	N	0.820820	0.575920	0.500061
C63	C	0.284048	0.127484	0.000054
C64	C	0.784048	0.627484	0.500054
C65	C	-0.064135	0.019302	0.000082
C66	C	0.435865	0.519302	0.500082
C67	C	-0.123533	0.018589	0.000077
C68	C	0.376467	0.518589	0.500077
C69	C	-0.137680	0.122434	0.000063
C70	C	0.362320	0.622434	0.500063
C71	C	-0.078281	0.123146	0.000064
C72	C	0.421719	0.623146	0.500064
C73	C	-0.041509	0.071578	0.000076
C74	C	0.458491	0.571578	0.500076
C75	C	0.408784	0.128974	0.000043
C76	C	0.908784	0.628974	0.500043
C77	C	0.468186	0.129680	0.000035
C78	C	0.968186	0.629680	0.500035
C79	C	0.482329	0.025836	0.000052
C80	C	0.982329	0.525836	0.500052
C81	C	0.422932	0.025129	0.000057
C82	C	0.922932	0.525129	0.500057
C83	C	0.386160	0.076702	0.000054
C84	C	0.886160	0.576702	0.500054
O85	O	0.334974	-0.020119	0.000054
O86	O	0.834974	0.479881	0.500054
O87	O	0.308755	0.172007	0.000055
O88	O	0.808755	0.672007	0.500055
C89	C	0.723539	-0.492333	0.000050
C90	C	1.223539	0.007667	0.500050
C91	C	0.722827	-0.551733	0.000046
C92	C	1.222827	-0.051733	0.500046
O93	O	0.766613	-0.588478	0.000028
O94	O	1.266613	-0.088478	0.500028
N95	N	0.670551	-0.574359	0.000040
N96	N	1.170551	-0.074359	0.500040
C97	C	0.618983	-0.537582	0.000033
C98	C	1.118983	-0.037582	0.500033
O99	O	0.574452	-0.562281	0.000027
O100	O	1.074452	-0.062281	0.500027
C101	C	0.619695	-0.478182	0.000033
C102	C	1.119695	0.021818	0.500033
C103	C	0.671974	-0.455560	0.000045
C104	C	1.171974	0.044440	0.500045
C105	C	0.775814	-0.469710	0.000061
C106	C	1.275814	0.030290	0.500061
C107	C	0.776525	-0.410313	0.000067
C108	C	1.276525	0.089687	0.500067
C109	C	0.724961	-0.373540	0.000062
C110	C	1.224961	0.126460	0.500062
C111	C	0.672685	-0.396164	0.000051
C112	C	1.172685	0.103836	0.500051
C113	C	0.568127	-0.441406	0.000022
C114	C	1.068127	0.058594	0.500022
C115	C	0.568844	-0.382004	0.000022
C116	C	1.068844	0.117996	0.500022
C117	C	0.621123	-0.359381	0.000034
C118	C	1.121123	0.140619	0.500034
C119	C	0.621832	-0.299995	0.000052
C120	C	1.121832	0.200005	0.500052
N121	N	0.674109	-0.277368	0.000057
N122	N	1.174109	0.222632	0.500057
C123	C	0.725673	-0.314141	0.000062
C124	C	1.225673	0.185859	0.500062
C125	C	0.617491	-0.662324	0.000031
C126	C	1.117491	-0.162324	0.500031
C127	C	0.616778	-0.721722	0.000035
C128	C	1.116778	-0.221722	0.500035
C129	C	0.720623	-0.735869	0.000047
C130	C	1.220623	-0.235869	0.500047
C131	C	0.721335	-0.676470	0.000047
C132	C	1.221335	-0.176470	0.500047
C133	C	0.669767	-0.639698	0.000037
C134	C	1.169767	-0.139698	0.500037
C135	C	0.727163	-0.189405	0.000075
C136	C	1.227163	0.310595	0.500075
C137	C	0.727869	-0.130003	0.000083
C138	C	1.227869	0.369997	0.500083
C139	C	0.624025	-0.115860	0.000069
C140	C	1.124025	0.384140	0.500069
C141	C	0.623318	-0.175257	0.000064
C142	C	1.123318	0.324743	0.500064
C143	C	0.674891	-0.212029	0.000065
C144	C	1.174891	0.287971	0.500065
O145	O	0.578070	-0.263215	0.000067
O146	O	1.078070	0.236785	0.500067
O147	O	0.770196	-0.289433	0.000060
O148	O	1.270196	0.210567	0.500060
C149	C	0.776472	0.069388	0.000071
C150	C	1.276472	0.569388	0.500071
C151	C	0.839689	0.070154	0.000073
C152	C	1.339689	0.570154	0.500073
C153	C	0.667577	0.178283	0.000046
C154	C	1.167577	0.678283	0.500046
C155	C	0.668343	0.241500	0.000037
C156	C	1.168343	0.741500	0.500037
N157	N	0.672305	0.074153	0.143865
N158	N	1.172305	0.574153	0.643865
N159	N	0.672347	0.074112	-0.143744
N160	N	1.172347	0.574112	0.356256
C161	C	0.711273	0.035196	0.563653
C162	C	1.211273	0.535196	1.063653
C163	C	0.711275	0.035192	0.627261
C164	C	1.211275	0.535192	1.127261
O165	O	0.744384	0.002076	0.660160
O166	O	1.244384	0.502076	1.160160
N167	N	0.672333	0.074115	0.659072
N168	N	1.172333	0.574115	1.159072
C169	C	0.633382	0.113041	0.627272
C170	C	1.133382	0.613041	1.127272
O171	O	0.600259	0.146148	0.660170
O172	O	1.100259	0.646148	1.160170
C173	C	0.633377	0.113042	0.563665
C174	C	1.133377	0.613042	1.063665
C175	C	0.672326	0.074120	0.531858
C176	C	1.172326	0.574120	1.031858
C177	C	0.750217	-0.003723	0.531846
C178	C	1.250217	0.496277	1.031846
C179	C	0.750215	-0.003719	0.468243
C180	C	1.250215	0.496281	0.968243
C181	C	0.711268	0.035205	0.436447
C182	C	1.211268	0.535205	0.936447
C183	C	0.672324	0.074125	0.468255
C184	C	1.172324	0.574125	0.968255
C185	C	0.594424	0.151965	0.531866
C186	C	1.094424	0.651965	1.031866
C187	C	0.594422	0.151962	0.468256
C188	C	1.094422	0.651962	0.968256
C189	C	0.633370	0.113040	0.436448
C190	C	1.133370	0.613040	0.936448
C191	C	0.633374	0.113054	0.372856
C192	C	1.133374	0.613054	0.872856
N193	N	0.672317	0.074130	0.341045
N194	N	1.172317	0.574130	0.841045
C195	C	0.711263	0.035206	0.372841
C196	C	1.211263	0.535206	0.872841
C197	C	0.633395	0.113036	0.760850
C198	C	1.133395	0.613036	1.260850
C199	C	0.633402	0.113039	0.824455
C200	C	1.133402	0.613039	1.324455
C201	C	0.711294	0.035188	0.824440
C202	C	1.211294	0.535188	1.324440
C203	C	0.711290	0.035189	0.760833
C204	C	1.211290	0.535189	1.260833
C205	C	0.672337	0.074113	0.729039
C206	C	1.172337	0.574113	1.229039
C207	C	0.711256	0.035220	0.239269
C208	C	1.211256	0.535220	0.739269
C209	C	0.711252	0.035229	0.175660
C210	C	1.211252	0.535229	0.675660
C211	C	0.633358	0.113077	0.175681
C212	C	1.133358	0.613077	0.675681
C213	C	0.633364	0.113070	0.239284
C214	C	1.133364	0.613070	0.739284
C215	C	0.672315	0.074136	0.271077
C216	C	1.172315	0.574136	0.771077
O217	O	0.600282	0.146151	0.339916
O218	O	1.100282	0.646151	0.839916
O219	O	0.744376	0.002100	0.339935
O220	O	1.244376	0.502100	0.839935
H221	H	0.486602	0.172255	0.000025
H222	H	0.986602	0.672255	0.500025
H223	H	0.769159	-0.219337	0.000073
H224	H	1.269159	0.280663	0.500073
C225	C	0.088466	0.233554	0.000068
C226	C	0.588466	0.733554	0.500068
C227	C	0.031600	0.221756	0.000082
C228	C	0.531600	0.721756	0.500082
C229	C	-0.005272	0.273268	0.000100
C230	C	0.494728	0.773268	0.500100
H231	H	0.095230	0.255035	-0.035166
H232	H	0.595230	0.755035	0.464834
H233	H	0.095259	0.255016	0.035316
H234	H	0.595259	0.755016	0.535316
H235	H	0.024809	0.200304	-0.035161
H236	H	0.524809	0.700304	0.464839
H237	H	0.024818	0.200284	0.035314
H238	H	0.524818	0.700284	0.535314
H239	H	0.001521	0.294730	0.035347
H240	H	0.501521	0.794730	0.535347
H241	H	0.001497	0.294744	-0.035135
H242	H	0.501497	0.794744	0.464865
H243	H	-0.043860	0.265270	0.000115
H244	H	0.456140	0.765270	0.500115
H245	H	0.378851	0.170970	0.000042
H246	H	0.878851	0.670970	0.500042
C247	C	0.831787	-0.509655	-0.000057
C248	C	1.331787	-0.009655	0.499943
C249	C	0.834439	-0.544163	-0.052051
C250	C	1.334439	-0.044163	0.447949
C251	C	0.886000	-0.580958	-0.052180
C252	C	1.386000	-0.080958	0.447820
H253	H	0.833721	-0.533174	0.035141
H254	H	1.333721	-0.033174	0.535141
H255	H	0.863033	-0.487685	-0.000084
H256	H	1.363033	0.012315	0.499916
H257	H	0.803202	-0.566131	-0.052019
H258	H	1.303202	-0.066131	0.447981
H259	H	0.832515	-0.520660	-0.087258
H260	H	1.332515	-0.020660	0.412742
H261	H	0.917246	-0.558987	-0.052207
H262	H	1.417246	-0.058987	0.447793
H263	H	0.887929	-0.604472	-0.016980
H264	H	1.387929	-0.104472	0.483020
H265	H	0.887809	-0.604371	-0.087460
H266	H	1.387809	-0.104371	0.412540
C267	C	-0.177584	0.178439	-0.000064
C268	C	0.322416	0.678439	0.499936
C269	C	-0.167418	0.209928	-0.052064
C270	C	0.332582	0.709928	0.447936
C271	C	-0.204172	0.261515	-0.052206
C272	C	0.295828	0.761515	0.447794
H273	H	-0.170793	0.199961	0.035131
H274	H	0.329207	0.699961	0.535131
H275	H	-0.216208	0.170548	-0.000093
H276	H	0.283792	0.670548	0.499907
H277	H	-0.128804	0.217820	-0.052029
H278	H	0.371196	0.717820	0.447971
H279	H	-0.174213	0.188423	-0.087267
H280	H	0.325787	0.688423	0.412733
H281	H	-0.242796	0.253624	-0.052235
H282	H	0.257204	0.753624	0.447765
H283	H	-0.197378	0.283032	-0.017009
H284	H	0.302622	0.783032	0.482991
H285	H	-0.197283	0.282884	-0.087489
H286	H	0.302717	0.782884	0.412511
C287	C	0.753456	-0.007113	0.273814
C288	C	1.253456	0.492887	0.773814
C289	C	0.723327	-0.041841	0.310320
C290	C	1.223327	0.458159	0.810320
C291	C	0.762184	-0.080846	0.342146
C292	C	1.262184	0.419154	0.842146
H293	H	0.777063	0.013185	0.298675
H294	H	1.277063	0.513185	0.798675
H295	H	0.776641	-0.030322	0.245775
H296	H	1.276641	0.469678	0.745775
H297	H	0.700153	-0.018635	0.338357
H298	H	1.200153	0.481365	0.838357
H299	H	0.699723	-0.062152	0.285474
H300	H	1.199723	0.437848	0.785474
H301	H	0.785368	-0.104054	0.314106
H302	H	1.285368	0.395946	0.814106
H303	H	0.785789	-0.060543	0.367003
H304	H	1.285789	0.439457	0.867003
H305	H	0.741748	-0.104417	0.366914
H306	H	1.241748	0.395583	0.866914
H307	H	0.404512	-0.017441	0.000058
H308	H	0.904512	0.482559	0.500058
H309	H	0.770443	-0.111587	0.000094
H310	H	1.270443	0.388413	0.500094
H311	H	0.819097	-0.391900	0.000074
H312	H	1.319097	0.108100	0.500074
C313	C	0.559958	-0.746169	-0.000001
C314	C	1.059958	-0.246169	0.499999
C315	C	0.514957	-0.701244	-0.000019
C316	C	1.014957	-0.201244	0.499981
C317	C	0.462605	-0.723740	-0.000065
C318	C	0.962605	-0.223740	0.499935
H319	H	0.557432	-0.769039	0.035225
H320	H	1.057432	-0.269039	0.535225
H321	H	0.557494	-0.769027	-0.035257
H322	H	1.057494	-0.269027	0.464743
H323	H	0.517420	-0.678396	0.035233
H324	H	1.017420	-0.178396	0.535233
H325	H	0.517465	-0.678370	-0.035243
H326	H	1.017465	-0.178370	0.464757
H327	H	0.460141	-0.746598	-0.035320
H328	H	0.960141	-0.246598	0.464680
H329	H	0.460084	-0.746611	0.035162
H330	H	0.960084	-0.246611	0.535162
H331	H	0.432065	-0.693263	-0.000083
H332	H	0.932065	-0.193263	0.499917
C333	C	-0.024185	-0.036673	0.000208
C334	C	0.475815	0.463327	0.500208
C335	C	0.010318	-0.039307	0.052203
C336	C	0.510318	0.460693	0.552203
C337	C	0.047118	-0.090865	0.052344
C338	C	0.547118	0.409135	0.552344
H339	H	-0.000664	-0.038614	-0.034990
H340	H	0.499336	0.461386	0.465010
H341	H	-0.046152	-0.067921	0.000243
H342	H	0.453848	0.432079	0.500243
H343	H	0.032283	-0.008067	0.052162
H344	H	0.532283	0.491933	0.552162
H345	H	-0.013187	-0.037376	0.087409
H346	H	0.486813	0.462624	0.587409
H347	H	0.025152	-0.122114	0.052379
H348	H	0.525152	0.377886	0.552379
H349	H	0.070635	-0.092802	0.017144
H350	H	0.570635	0.407198	0.517144
H351	H	0.070529	-0.092662	0.087625
H352	H	0.570529	0.407338	0.587625
C353	C	0.561516	-0.622374	-0.000095
C354	C	1.061516	-0.122374	0.499905
C355	C	0.558885	-0.587869	-0.052090
C356	C	1.058885	-0.087869	0.447910
C357	C	0.507326	-0.551069	-0.052233
C358	C	1.007326	-0.051069	0.447767
H359	H	0.559572	-0.598855	0.035102
H360	H	1.059572	-0.098855	0.535102
H361	H	0.530268	-0.644341	-0.000131
H362	H	1.030268	-0.144341	0.499869
H363	H	0.590124	-0.565904	-0.052049
H364	H	1.090124	-0.065904	0.447951
H365	H	0.560818	-0.611373	-0.087296
H366	H	1.060818	-0.111373	0.412704
H367	H	0.476078	-0.573036	-0.052268
H368	H	0.976078	-0.073036	0.447732
H369	H	0.505387	-0.527554	-0.017033
H370	H	1.005387	-0.027554	0.482967
H371	H	0.505532	-0.527657	-0.087513
H372	H	1.005532	-0.027657	0.412487
H373	H	0.763906	-0.658056	0.000056
H374	H	1.263906	-0.158056	0.500056
C375	C	0.511306	-0.465846	-0.000025
C376	C	1.011306	0.034154	0.499975
C377	C	0.466308	-0.420918	-0.000049
C378	C	0.966308	0.079082	0.499951
C379	C	0.413953	-0.443409	-0.000102
C380	C	0.913953	0.056591	0.499898
H381	H	0.508773	-0.488716	0.035201
H382	H	1.008773	0.011284	0.535201
H383	H	0.508844	-0.488704	-0.035280
H384	H	1.008844	0.011296	0.464720
H385	H	0.468769	-0.398070	0.035203
H386	H	0.968769	0.101930	0.535203
H387	H	0.468822	-0.398045	-0.035273
H388	H	0.968822	0.101955	0.464727
H389	H	0.411491	-0.466267	-0.035357
H390	H	0.911491	0.033733	0.464643
H391	H	0.411427	-0.466278	0.035125
H392	H	0.911427	0.033722	0.535125
H393	H	0.383416	-0.412929	-0.000124
H394	H	0.883416	0.087071	0.499876
C395	C	0.512871	-0.342052	-0.000112
C396	C	1.012871	0.157948	0.499888
C397	C	0.510248	-0.307545	-0.052106
C398	C	1.010248	0.192455	0.447894
C399	C	0.458693	-0.270741	-0.052253
C400	C	0.958693	0.229259	0.447747
H401	H	0.510926	-0.318534	0.035086
H402	H	1.010926	0.181466	0.535086
H403	H	0.481620	-0.364016	-0.000152
H404	H	0.981620	0.135984	0.499848
H405	H	0.541490	-0.285583	-0.052060
H406	H	1.041490	0.214417	0.447940
H407	H	0.512183	-0.331048	-0.087313
H408	H	1.012183	0.168952	0.412687
H409	H	0.427442	-0.292705	-0.052293
H410	H	0.927442	0.207295	0.447707
H411	H	0.456752	-0.247227	-0.017052
H412	H	0.956752	0.252773	0.482948
H413	H	0.456903	-0.247328	-0.087532
H414	H	0.956903	0.252672	0.412468
H415	H	0.601676	0.144737	0.734966
H416	H	1.101676	0.644737	1.234966
C417	C	0.522234	-0.030163	-0.000065
C418	C	1.022234	0.469837	0.499935
C419	C	0.512073	-0.061667	-0.052053
C420	C	1.012073	0.438333	0.447947
C421	C	0.548830	-0.113253	-0.052182
C422	C	1.048830	0.386747	0.447818
H423	H	0.515443	-0.051676	0.035137
H424	H	1.015443	0.448324	0.535137
H425	H	0.560857	-0.022270	-0.000100
H426	H	1.060857	0.477730	0.499900
H427	H	0.473459	-0.069562	-0.052012
H428	H	0.973459	0.430438	0.447988
H429	H	0.518868	-0.040172	-0.087264
H430	H	1.018868	0.459828	0.412736
H431	H	0.587453	-0.105359	-0.052217
H432	H	1.087453	0.394641	0.447783
H433	H	0.542036	-0.134761	-0.016977
H434	H	1.042036	0.365239	0.483023
H435	H	0.541944	-0.134632	-0.087458
H436	H	1.041944	0.365368	0.412542
C437	C	0.753566	-0.007097	0.141237
C438	C	1.253566	0.492903	0.641237
C439	C	0.787661	-0.041196	0.182702
C440	C	1.287661	0.458804	0.682702
C441	C	0.826639	-0.080197	0.151016
C442	C	1.326639	0.419803	0.651016
H443	H	0.777211	0.013203	0.116421
H444	H	1.277211	0.513203	0.616421
H445	H	0.733229	-0.030732	0.116438
H446	H	1.233229	0.469268	0.616438
H447	H	0.807996	-0.017564	0.207491
H448	H	1.307996	0.482436	0.707491
H449	H	0.764033	-0.061509	0.207519
H450	H	1.264033	0.438491	0.707519
H451	H	0.806303	-0.103832	0.126217
H452	H	1.306303	0.396168	0.626217
H453	H	0.850280	-0.059892	0.126201
H454	H	1.350280	0.440108	0.626201
H455	H	0.849774	-0.103341	0.179145
H456	H	1.349774	0.396659	0.679145
C457	C	0.212458	0.235085	-0.000097
C458	C	0.712458	0.735085	0.499903
C459	C	0.246129	0.238532	-0.052098
C460	C	0.746129	0.738532	0.447902
C461	C	0.268769	0.290808	-0.052257
C462	C	0.768769	0.790808	0.447743
H463	H	0.235373	0.237595	0.035097
H464	H	0.735373	0.737595	0.535097
H465	H	0.182055	0.265701	-0.000135
H466	H	0.682055	0.765701	0.499865
H467	H	0.276528	0.207924	-0.052054
H468	H	0.776528	0.707924	0.447946
H469	H	0.223227	0.236032	-0.087300
H470	H	0.723227	0.736032	0.412700
H471	H	0.238366	0.321424	-0.052296
H472	H	0.738366	0.821424	0.447704
H473	H	0.291682	0.293313	-0.017062
H474	H	0.791682	0.793313	0.482938
H475	H	0.291614	0.293156	-0.087542
H476	H	0.791614	0.793156	0.412458
H477	H	-0.059867	0.165717	0.000057
H478	H	0.440133	0.665717	0.500057
H479	H	0.762610	-0.765821	0.000048
H480	H	1.262610	-0.265821	0.500048
H481	H	0.580748	-0.193677	0.000071
H482	H	1.080748	0.306323	0.500071
H483	H	-0.141947	-0.023982	0.000078
H484	H	0.358053	0.476018	0.500078
C485	C	0.792524	-0.046047	0.433824
C486	C	1.292524	0.453953	0.933824
C487	C	0.826616	-0.080143	0.475294
C488	C	1.326616	0.419857	0.975294
C489	C	0.865592	-0.119151	0.443615
C490	C	1.365592	0.380849	0.943615
H491	H	0.816171	-0.025753	0.409005
H492	H	1.316171	0.474247	0.909005
H493	H	0.772186	-0.069684	0.409028
H494	H	1.272186	0.430316	0.909028
H495	H	0.846953	-0.056509	0.500079
H496	H	1.346953	0.443491	1.000079
H497	H	0.802985	-0.100450	0.500114
H498	H	1.302985	0.399550	1.000114
H499	H	0.845254	-0.142788	0.418819
H500	H	1.345254	0.357212	0.918819
H501	H	0.889235	-0.098852	0.418797
H502	H	1.389235	0.401148	0.918797
H503	H	0.888724	-0.142293	0.471747
H504	H	1.388724	0.357707	0.971747
C505	C	0.132343	-0.086883	0.000147
C506	C	0.632343	0.413117	0.500147
C507	C	0.177271	-0.131881	0.000174
C508	C	0.677271	0.368119	0.500174
C509	C	0.154780	-0.184236	0.000232
C510	C	0.654780	0.315764	0.500232
H511	H	0.109475	-0.089417	-0.035079
H512	H	0.609475	0.410583	0.464921
H513	H	0.109483	-0.089344	0.035403
H514	H	0.609483	0.410656	0.535403
H515	H	0.200121	-0.129421	-0.035078
H516	H	0.700121	0.370579	0.464922
H517	H	0.200142	-0.129366	0.035397
H518	H	0.700142	0.370634	0.535397
H519	H	0.131920	-0.186697	0.035488
H520	H	0.631920	0.313303	0.535488
H521	H	0.131913	-0.186763	-0.034994
H522	H	0.631913	0.313237	0.465006
H523	H	0.185260	-0.214773	0.000257
H524	H	0.685260	0.285227	0.500257
H525	H	0.246123	-0.071339	0.000107
H526	H	0.746123	0.428661	0.500107
H527	H	0.582043	-0.085909	0.000067
H528	H	1.082043	0.414091	0.500067
C529	C	0.792418	-0.046052	0.566392
C530	C	1.292418	0.453948	1.066392
C531	C	0.762295	-0.080780	0.602903
C532	C	1.262295	0.419220	1.102903
C533	C	0.801158	-0.119784	0.634724
C534	C	1.301158	0.380216	1.134724
H535	H	0.816027	-0.025753	0.591249
H536	H	1.316027	0.474247	1.091249
H537	H	0.815599	-0.069259	0.538349
H538	H	1.315599	0.430741	1.038349
H539	H	0.739124	-0.057575	0.630942
H540	H	1.239124	0.442425	1.130942
H541	H	0.738689	-0.101092	0.578061
H542	H	1.238689	0.398908	1.078061
H543	H	0.824339	-0.142992	0.606681
H544	H	1.324339	0.357008	1.106681
H545	H	0.824765	-0.099480	0.659577
H546	H	1.324765	0.400520	1.159577
H547	H	0.780725	-0.143356	0.659496
H548	H	1.280725	0.356644	1.159496
C549	C	0.753599	-0.007137	0.726412
C550	C	1.253599	0.492863	1.226412
C551	C	0.787697	-0.041230	0.767880
C552	C	1.287697	0.458770	1.267880
C553	C	0.826674	-0.080234	0.736197
C554	C	1.326674	0.419766	1.236197
H555	H	0.777242	0.013161	0.701592
H556	H	1.277242	0.513161	1.201592
H557	H	0.733262	-0.030775	0.701618
H558	H	1.233262	0.469225	1.201618
H559	H	0.808032	-0.017595	0.792664
H560	H	1.308032	0.482405	1.292664
H561	H	0.764069	-0.061540	0.792701
H562	H	1.264069	0.438460	1.292701
H563	H	0.806337	-0.103873	0.711402
H564	H	1.306337	0.396127	1.211402
H565	H	0.850313	-0.059932	0.711378
H566	H	1.350313	0.440068	1.211378
H567	H	0.849810	-0.103375	0.764328
H568	H	1.349810	0.396625	1.264328
C569	C	0.591055	0.155327	0.858875
C570	C	1.091055	0.655327	1.358875
C571	C	0.556940	0.189404	0.817407
C572	C	1.056940	0.689404	1.317407
C573	C	0.517915	0.228360	0.849090
C574	C	1.017915	0.728360	1.349090
H575	H	0.611336	0.178987	0.883690
H576	H	1.111336	0.678987	1.383690
H577	H	0.567432	0.134974	0.883674
H578	H	1.067432	0.634974	1.383674
H579	H	0.580559	0.209755	0.792618
H580	H	1.080559	0.709755	1.292618
H581	H	0.536646	0.165760	0.792591
H582	H	1.036646	0.665760	1.292591
H583	H	0.494292	0.208007	0.873890
H584	H	0.994292	0.708007	1.373890
H585	H	0.538201	0.252015	0.873904
H586	H	1.038201	0.752015	1.373904
H587	H	0.494760	0.251482	0.820959
H588	H	0.994760	0.751482	1.320959
H589	H	0.743006	0.003493	0.850339
H590	H	1.243006	0.503493	1.350339
C591	C	0.552070	0.194249	0.566279
C592	C	1.052070	0.694249	1.066279
C593	C	0.517955	0.228319	0.524808
C594	C	1.017955	0.728319	1.024808
C595	C	0.478924	0.267274	0.556485
C596	C	0.978924	0.767274	1.056485
H597	H	0.572348	0.217913	0.591093
H598	H	1.072348	0.717913	1.091093
H599	H	0.528449	0.173895	0.591080
H600	H	1.028449	0.673895	1.091080
H601	H	0.541573	0.248671	0.500018
H602	H	1.041573	0.748671	1.000018
H603	H	0.497664	0.204671	0.499992
H604	H	0.997664	0.704671	0.999992
H605	H	0.455303	0.246921	0.581285
H606	H	0.955303	0.746921	1.081285
H607	H	0.499207	0.290934	0.581298
H608	H	0.999207	0.790934	1.081298
H609	H	0.455769	0.290392	0.528352
H610	H	0.955769	0.790392	1.028352
C611	C	0.552221	0.194253	0.433659
C612	C	1.052221	0.694253	0.933659
C613	C	0.582353	0.228959	0.397131
C614	C	1.082353	0.728959	0.897131
C615	C	0.543499	0.267920	0.365247
C616	C	1.043499	0.767920	0.865247
H617	H	0.529012	0.217486	0.461646
H618	H	1.029012	0.717486	0.961646
H619	H	0.528639	0.173903	0.408812
H620	H	1.028639	0.673903	0.908812
H621	H	0.605926	0.249308	0.421976
H622	H	1.105926	0.749308	0.921976
H623	H	0.605560	0.205742	0.369132
H624	H	1.105560	0.705742	0.869132
H625	H	0.519917	0.247569	0.340400
H626	H	1.019917	0.747569	0.840400
H627	H	0.520292	0.291149	0.393238
H628	H	1.020292	0.791149	0.893238
H629	H	0.563938	0.291469	0.340455
H630	H	1.063938	0.791469	0.840455
H631	H	0.601654	0.144769	0.265183
H632	H	1.101654	0.644769	0.765183
H633	H	0.601650	0.144771	0.149783
H634	H	1.101650	0.644771	0.649783
