data_functionalizedCrystal
_audit_creation_method	'MofGen! by Chris Wilmer'
_symmetry_space_group_name_H-M	'P1'
_symmetry_Int_Tables_number	1
_symmetry_cell_setting	triclinic
loop_
_symmetry_equiv_pos_as_xyz
  x,y,z
_cell_length_a	13.897449
_cell_length_b	18.215405
_cell_length_c	18.215399
_cell_angle_alpha	89.969449
_cell_angle_beta	90.018532
_cell_angle_gamma	89.973835
loop_
_atom_site_label
_atom_site_type_symbol
_atom_site_fract_x
_atom_site_fract_y
_atom_site_fract_z
Zn1	Zn	1.474633	0.292967	0.416077
Zn2	Zn	1.474513	0.416038	0.293005
Zn3	Zn	1.313329	0.292993	0.293027
Zn4	Zn	1.313284	0.415999	0.416033
O5	O	1.393940	0.354499	0.354536
O6	O	1.609599	0.309298	0.399761
O7	O	1.453100	0.399743	0.190024
O8	O	1.334795	0.190005	0.309378
O9	O	1.609511	0.399718	0.309340
O10	O	1.453305	0.189986	0.399782
O11	O	1.334679	0.309342	0.190040
O12	O	1.178341	0.309304	0.309335
O13	O	1.334719	0.399651	0.519023
O14	O	1.178308	0.399676	0.399707
O15	O	1.453262	0.309260	0.519055
O16	O	1.453057	0.519017	0.309297
O17	O	1.334602	0.518988	0.399685
C18	C	1.393838	0.545705	0.354500
C19	C	1.393883	0.627504	0.354510
C20	C	1.143326	0.354489	0.354519
C21	C	1.036112	0.354503	0.354529
C22	C	0.839817	0.354505	0.354548
C23	C	0.949049	0.354502	0.354536
C24	C	1.393999	0.354448	0.546489
C25	C	1.394024	0.354427	0.628288
C26	C	1.645533	0.354509	0.354553
C27	C	1.752747	0.354514	0.354560
C28	C	1.394068	0.162546	0.354587
C29	C	1.394123	0.080747	0.354609
C30	C	1.455707	0.815689	0.307531
C31	C	1.455750	0.892547	0.307549
C32	C	1.332296	0.892557	0.401593
C33	C	1.332259	0.815700	0.401578
C34	C	1.393963	0.777268	0.354543
C35	C	1.394043	0.930984	0.354576
C36	C	1.394090	1.014317	0.354595
C37	C	1.393918	0.693929	0.354524
C38	C	1.393937	0.354496	0.163329
C39	C	1.394099	0.354311	0.081531
C40	C	1.455771	0.307316	0.816500
C41	C	1.455783	0.307295	0.893358
C42	C	1.332345	0.401424	0.893313
C43	C	1.332329	0.401441	0.816456
C44	C	1.394048	0.354388	0.778051
C45	C	1.394075	0.354349	0.931767
C46	C	1.394087	0.354326	1.015101
C47	C	1.394035	0.354410	0.694712
H48	H	1.506030	0.923826	0.269268
O49	O	1.272459	0.929860	0.447381
C50	C	1.293454	0.911001	0.520740
H51	H	1.370500	0.889822	0.524508
H52	H	1.241702	0.866408	0.539932
C53	C	1.187594	1.005262	0.565230
C54	C	1.282225	0.979255	0.569859
H55	H	1.180664	1.047362	0.595531
H56	H	1.173445	1.017966	0.515807
H57	H	1.144478	0.968095	0.581223
H58	H	1.325339	1.016418	0.553859
H59	H	1.296381	0.966559	0.619281
O60	O	1.272414	0.778340	0.447327
C61	C	1.327275	0.733801	0.494876
H62	H	1.403251	0.756915	0.499480
H63	H	1.330591	0.675567	0.472111
C64	C	1.186774	0.704202	0.565692
C65	C	1.280087	0.732594	0.571352
H66	H	1.157665	0.703454	0.612865
H67	H	1.149812	0.734206	0.533656
H68	H	1.189550	0.655676	0.546719
H69	H	1.277308	0.781122	0.590316
H70	H	1.317048	0.702598	0.603393
O71	O	1.515746	0.261537	0.779306
C72	C	1.570243	0.219998	0.829727
H73	H	1.530745	0.217439	0.884509
H74	H	1.643487	0.246945	0.837903
C75	C	1.632696	0.144821	0.732475
C76	C	1.584180	0.141673	0.799757
H77	H	1.641298	0.096508	0.713988
H78	H	1.595984	0.172808	0.698505
H79	H	1.693728	0.167280	0.739297
H80	H	1.523145	0.119224	0.792933
H81	H	1.620882	0.113681	0.833726
H82	H	1.506042	0.268963	0.924660
H83	H	1.282097	0.439734	0.924592
O84	O	1.272338	0.447240	0.779216
C85	C	1.217856	0.488758	0.829592
H86	H	1.257372	0.491298	0.884384
H87	H	1.144616	0.461806	0.837764
C88	C	1.155366	0.563970	0.732269
C89	C	1.203904	0.567094	0.799564
H90	H	1.146755	0.612290	0.713746
H91	H	1.192068	0.535997	0.698329
H92	H	1.094337	0.541506	0.739088
H93	H	1.264936	0.589548	0.792742
H94	H	1.167212	0.595072	0.833502
H95	H	1.505951	0.784399	0.269234
