data_functionalizedCrystal
_audit_creation_method	'MofGen! by Chris Wilmer'
_symmetry_space_group_name_H-M	'P1'
_symmetry_Int_Tables_number	1
_symmetry_cell_setting	triclinic
loop_
_symmetry_equiv_pos_as_xyz
  x,y,z
_cell_length_a	12.811457
_cell_length_b	14.519731
_cell_length_c	11.892095
_cell_angle_alpha	93.895723
_cell_angle_beta	91.498327
_cell_angle_gamma	83.867127
loop_
_atom_site_label
_atom_site_type_symbol
_atom_site_fract_x
_atom_site_fract_y
_atom_site_fract_z
O1	O	1.389450	0.127231	0.048435
O2	O	1.086113	0.138798	0.017336
O3	O	1.245812	-0.001152	0.033719
O4	O	1.229751	0.267180	0.032052
O5	O	1.232496	0.010499	0.220360
O6	O	1.072797	0.150448	0.203977
O7	O	1.376135	0.138881	0.235077
Zn8	Zn	1.222352	0.146515	0.249160
Zn9	Zn	1.239896	0.131165	0.003252
O10	O	1.216436	0.278831	0.218693
C11	C	1.040633	0.143618	0.106676
C12	C	0.924958	0.140612	0.094817
C13	C	0.693073	0.147648	0.276032
C14	C	0.584385	0.144824	0.264894
C15	C	0.598892	0.132131	0.061407
C16	C	0.707580	0.134956	0.072544
C17	C	0.754667	0.142716	0.179860
C18	C	0.863356	0.145547	0.190996
C19	C	0.877862	0.132848	-0.012491
C20	C	0.769174	0.130024	-0.023628
C21	C	1.238401	-0.029692	0.126963
C22	C	1.236146	-0.132092	0.126732
C23	C	1.234314	-0.215253	0.126542
C24	C	1.232025	-0.319582	0.126298
C25	C	1.230208	-0.402738	0.126105
C26	C	1.227919	-0.507074	0.125864
C27	C	1.421614	0.134061	0.145733
C28	C	1.537291	0.137067	0.157585
C29	C	1.223846	0.307371	0.125447
C30	C	1.226102	0.409771	0.125670
N31	N	1.210386	0.156990	0.416987
N32	N	1.251869	0.120682	-0.164574
C33	C	1.335131	0.047735	0.666432
C34	C	1.326774	0.055064	0.783917
C35	C	1.185314	0.178972	0.769442
C36	C	1.193670	0.171643	0.651958
C37	C	1.268582	0.106024	0.600457
C38	C	1.276942	0.098700	0.482971
C39	C	1.135477	0.222602	0.468498
C40	C	1.127121	0.229931	0.585983
H41	H	0.901691	0.151871	0.278378
H42	H	0.534239	0.148845	0.343208
H43	H	0.560538	0.125798	-0.025965
H44	H	0.730822	0.123701	-0.111002
O45	O	1.063695	0.285480	0.397341
H46	H	0.980841	0.274272	0.411585
O47	O	0.743870	0.156029	0.391770
H48	H	0.682779	0.158985	0.456776
O49	O	0.944293	0.127521	-0.116231
H50	H	1.027783	0.130783	-0.090462
H51	H	1.124315	0.232392	0.811389
H52	H	1.066126	0.283356	0.627928
O53	O	1.357719	0.027919	0.427405
H54	H	1.437372	0.041926	0.458259
O55	O	1.415910	-0.023039	0.610858
H56	H	1.495562	-0.009024	0.641705
O57	O	1.398562	-0.007792	0.855082
H58	H	1.452061	-0.054643	0.799529
