data_functionalizedCrystal
_audit_creation_method	'MofGen! by Chris Wilmer'
_symmetry_space_group_name_H-M	'P1'
_symmetry_Int_Tables_number	1
_symmetry_cell_setting	triclinic
loop_
_symmetry_equiv_pos_as_xyz
  x,y,z
_cell_length_a	16.120530
_cell_length_b	12.759400
_cell_length_c	12.759393
_cell_angle_alpha	90.031564
_cell_angle_beta	92.919000
_cell_angle_gamma	87.110362
loop_
_atom_site_label
_atom_site_type_symbol
_atom_site_fract_x
_atom_site_fract_y
_atom_site_fract_z
Zn1	Zn	1.274626	-0.499755	0.675426
Zn2	Zn	1.774626	0.000245	1.175426
Zn3	Zn	1.274542	-0.675468	0.499741
Zn4	Zn	1.774542	-0.175468	0.999741
Zn5	Zn	1.135203	-0.490889	0.490856
Zn6	Zn	1.635203	0.009111	0.990856
Zn7	Zn	1.135194	-0.666471	0.666478
Zn8	Zn	1.635194	-0.166471	1.166478
O9	O	1.204891	-0.583146	0.583125
O10	O	1.704891	-0.083146	1.083125
O11	O	1.391282	-0.530539	0.659583
O12	O	1.891282	-0.030539	1.159583
O13	O	1.256027	-0.651038	0.351539
O14	O	1.756027	-0.151038	0.851539
O15	O	1.153736	-0.345047	0.515367
O16	O	1.653736	0.154953	1.015367
O17	O	1.391220	-0.659635	0.530508
O18	O	1.891220	-0.159635	1.030508
O19	O	1.256170	-0.351560	0.650969
O20	O	1.756170	0.148440	1.150969
O21	O	1.153655	-0.515429	0.345012
O22	O	1.653655	-0.015429	0.845012
O23	O	1.018535	-0.506705	0.506690
O24	O	1.518535	-0.006705	1.006690
O25	O	1.153721	-0.644301	0.814688
O26	O	1.653721	-0.144301	1.314688
O27	O	1.018528	-0.635704	0.635719
O28	O	1.518528	-0.135704	1.135719
O29	O	1.256161	-0.521815	0.821262
O30	O	1.756161	-0.021815	1.321262
O31	O	1.256019	-0.821293	0.521832
O32	O	1.756019	-0.321293	1.021832
O33	O	1.153640	-0.814683	0.644333
O34	O	1.653640	-0.314683	1.144333
C35	C	1.204842	-0.856110	0.583100
C36	C	1.704842	-0.356110	1.083100
C37	C	1.204897	-0.972890	0.583129
C38	C	1.704897	-0.472890	1.083129
C39	C	0.988281	-0.569267	0.569270
C40	C	1.488281	-0.069267	1.069270
C41	C	0.895614	-0.563355	0.563368
C42	C	1.395614	-0.063355	1.063368
C43	C	1.258265	-1.031163	0.519421
C44	C	1.758265	-0.531163	1.019421
C45	C	1.258316	-1.140890	0.519457
C46	C	1.758316	-0.640890	1.019457
C47	C	1.151624	-1.134062	0.646912
C48	C	1.651624	-0.634062	1.146912
C49	C	1.151578	-1.024337	0.646881
C50	C	1.651578	-0.524337	1.146881
C51	C	1.319860	-1.035106	0.445832
C52	C	1.819860	-0.535106	0.945832
C53	C	1.319911	-1.144833	0.445868
C54	C	1.819911	-0.644833	0.945868
C55	C	0.725951	-0.552536	0.552601
C56	C	1.225951	-0.052536	1.052601
C57	C	0.684672	-0.613833	0.613726
C58	C	1.184672	-0.113833	1.113726
C59	C	0.590265	-0.607813	0.607735
C60	C	1.090265	-0.107813	1.107735
C61	C	0.820366	-0.558555	0.558590
C62	C	1.320366	-0.058555	1.058590
C63	C	1.422347	-0.597080	0.597035
C64	C	1.922347	-0.097080	1.097035
C65	C	1.515014	-0.603017	0.602962
C66	C	2.015014	-0.103017	1.102962
C67	C	1.204950	-0.583044	0.857162
C68	C	1.704950	-0.083044	1.357162
C69	C	1.204974	-0.583000	0.973941
C70	C	1.704974	-0.083000	1.473941
C71	C	1.204964	-0.309117	0.583175
C72	C	1.704964	0.190883	1.083175
C73	C	1.204994	-0.192343	0.583196
C74	C	1.704994	0.307657	1.083196
C75	C	1.204881	-0.583175	0.310157
C76	C	1.704881	-0.083175	0.810157
C77	C	1.205018	-0.582933	0.193390
C78	C	1.705018	-0.082933	0.693390
C79	C	1.258322	-0.519216	1.032228
C80	C	1.758322	-0.019216	1.532228
C81	C	1.258342	-0.519179	1.141953
C82	C	1.758342	-0.019179	1.641953
C83	C	1.151664	-0.646720	1.135095
C84	C	1.651664	-0.146720	1.635095
C85	C	1.151640	-0.646750	1.025371
C86	C	1.651640	-0.146750	1.525371
C87	C	1.319915	-0.445584	1.036189
C88	C	1.819915	0.054416	1.536189
C89	C	1.319935	-0.445547	1.145914
C90	C	1.819935	0.054453	1.645914
H91	H	1.108130	-0.976893	0.698767
H92	H	1.608130	-0.476893	1.198767
N93	N	0.731763	-0.689344	0.689003
N94	N	1.231763	-0.189344	1.189003
H95	H	0.767924	-0.648973	0.740017
H96	H	1.267924	-0.148973	1.240017
H97	H	0.767815	-0.740220	0.648387
H98	H	1.267815	-0.240220	1.148387
N99	N	1.094115	-1.189561	0.715657
N100	N	1.594115	-0.689561	1.215657
H101	H	1.034546	-1.166729	0.695464
H102	H	1.534546	-0.666729	1.195464
H103	H	1.107093	-1.171200	0.791534
H104	H	1.607093	-0.671200	1.291534
H105	H	1.302641	-0.363115	1.005329
H106	H	1.802641	0.136885	1.505329
N107	N	1.405357	-1.001013	0.480238
N108	N	1.905357	-0.501013	0.980238
H109	H	1.443544	-1.064943	0.495621
H110	H	1.943544	-0.564943	0.995621
H111	H	1.401537	-0.956715	0.545601
H112	H	1.901537	-0.456715	1.045601
N113	N	1.094069	-0.715521	0.962521
N114	N	1.594069	-0.215521	1.462521
H115	H	1.106980	-0.791416	0.982419
H116	H	1.606980	-0.291416	1.482419
H117	H	1.102154	-0.705785	0.885223
H118	H	1.602154	-0.205785	1.385223
N119	N	1.401084	-0.489443	0.996164
N120	N	1.901084	0.010557	1.496164
H121	H	1.390459	-0.552822	0.950909
H122	H	1.890459	-0.052822	1.450909
H123	H	1.440367	-0.510588	1.057562
H124	H	1.940367	-0.010588	1.557562
H125	H	1.296832	-0.366760	1.178486
H126	H	1.796832	0.133240	1.678486
H127	H	0.690392	-0.495544	0.495775
H128	H	1.190392	0.004456	0.995775
H129	H	1.108239	-0.698621	1.176982
H130	H	1.608239	-0.198621	1.676982
N131	N	1.289252	-0.988167	0.341453
N132	N	1.789252	-0.488167	0.841453
H133	H	1.274497	-1.046193	0.291042
H134	H	1.774497	-0.546193	0.791042
H135	H	1.334396	-0.946463	0.312105
H136	H	1.834396	-0.446463	0.812105
N137	N	1.405456	-0.479892	1.190847
N138	N	1.905456	0.020108	1.690847
H139	H	1.447372	-0.429843	1.167179
H140	H	1.947372	0.070157	1.667179
H141	H	1.420717	-0.552985	1.165445
H142	H	1.920717	-0.052985	1.665445
H143	H	1.381254	-1.182703	0.479000
H144	H	1.881254	-0.682703	0.979000
H145	H	1.302661	-1.173592	0.363385
H146	H	1.802661	-0.673592	0.863385
