data_functionalizedCrystal
_audit_creation_method	'MofGen! by Chris Wilmer'
_symmetry_space_group_name_H-M	'P1'
_symmetry_Int_Tables_number	1
_symmetry_cell_setting	triclinic
loop_
_symmetry_equiv_pos_as_xyz
  x,y,z
_cell_length_a	11.026607
_cell_length_b	11.026607
_cell_length_c	9.482900
_cell_angle_alpha	101.401054
_cell_angle_beta	101.363848
_cell_angle_gamma	71.413983
loop_
_atom_site_label
_atom_site_type_symbol
_atom_site_fract_x
_atom_site_fract_y
_atom_site_fract_z
O1	O	-1.742235	0.518011	-0.120882
O2	O	-1.375655	0.457247	-0.120886
O3	O	-1.528563	0.304339	-0.120882
O4	O	-1.589327	0.670919	-0.120886
O5	O	-1.497539	0.335558	0.120909
O6	O	-1.344631	0.488466	0.120906
O7	O	-1.711210	0.549230	0.120909
Cu8	Cu	-1.525088	0.521698	0.142985
Cu9	Cu	-1.561778	0.484779	-0.142962
O10	O	-1.558303	0.702137	0.120906
C11	C	-1.312483	0.461647	0.000009
C12	C	-1.170470	0.428229	0.000008
C13	C	-1.501841	0.272289	0.000011
C14	C	-1.468425	0.130274	0.000003
C15	C	-1.774383	0.544830	0.000011
C16	C	-1.916397	0.578246	0.000003
N17	N	-1.499291	0.547667	0.344105
C18	C	-1.116821	0.520499	0.000006
C19	C	-0.970042	0.485963	0.000005
C20	C	-1.585025	0.734188	0.000009
C21	C	-1.618442	0.876202	0.000008
C22	C	-1.526172	0.929851	0.000006
C23	C	-1.560708	1.076629	0.000005
N24	N	-1.587582	0.458802	-0.344081
C25	C	-1.554158	0.492430	0.416305
C26	C	-1.532707	0.514048	0.583722
H27	H	-0.907318	0.381388	-0.000032
H28	H	-1.723011	0.938928	-0.000044
C29	C	-1.289264	0.580861	0.391310
C30	C	-1.414432	0.633110	0.427966
H31	H	-1.236874	0.633609	0.443089
H32	H	-1.292556	0.577556	0.289817
H33	H	-1.253466	0.495990	0.416190
H34	H	-1.450234	0.717979	0.403076
H35	H	-1.411144	0.636430	0.529481
C36	C	-1.130088	0.726301	-0.000048
C37	C	-1.001070	0.719410	-0.000033
H38	H	-1.182361	0.813447	-0.000088
H39	H	-1.136899	0.695986	0.084277
H40	H	-1.158508	0.674158	-0.084360
H41	H	-0.972648	0.771546	0.084285
H42	H	-0.994254	0.749742	-0.084366
H43	H	-1.107741	0.323662	-0.000028
H44	H	-1.179553	0.625063	0.000013
H45	H	-1.421611	0.867116	-0.000002
C46	C	-1.586246	0.281891	0.369050
C47	C	-1.639023	0.407003	0.332407
H48	H	-1.638639	0.229159	0.317238
H49	H	-1.582988	0.285190	0.470536
H50	H	-1.501321	0.246467	0.344202
H51	H	-1.723944	0.442431	0.357265
H52	H	-1.642294	0.403708	0.230899
H53	H	-1.363856	1.067545	-0.000004
C54	C	-1.322675	0.547246	0.630922
C55	C	-1.447844	0.599495	0.667577
H56	H	-1.270285	0.599994	0.682701
H57	H	-1.325968	0.543941	0.529429
H58	H	-1.286878	0.462375	0.655802
H59	H	-1.483645	0.684364	0.642687
H60	H	-1.444556	0.602815	0.769093
H61	H	-1.665285	1.139351	-0.000047
H62	H	-1.650435	0.395498	0.593796
