data_functionalizedCrystal
_audit_creation_method	'MofGen! by Chris Wilmer'
_symmetry_space_group_name_H-M	'P1'
_symmetry_Int_Tables_number	1
_symmetry_cell_setting	triclinic
loop_
_symmetry_equiv_pos_as_xyz
  x,y,z
_cell_length_a	27.732048
_cell_length_b	27.731996
_cell_length_c	18.266242
_cell_angle_alpha	89.987663
_cell_angle_beta	89.996455
_cell_angle_gamma	82.632022
loop_
_atom_site_label
_atom_site_type_symbol
_atom_site_fract_x
_atom_site_fract_y
_atom_site_fract_z
O1	O	0.640919	0.057519	-0.060796
O2	O	0.500124	0.066265	-0.060819
O3	O	0.574908	-0.008506	-0.060791
O4	O	0.566136	0.132291	-0.060824
O5	O	0.574895	-0.008510	0.060971
O6	O	0.500112	0.066261	0.060943
O7	O	0.640907	0.057515	0.060966
Zn8	Zn	0.570507	0.061888	0.080287
Zn9	Zn	0.570524	0.061893	-0.080140
O10	O	0.566123	0.132287	0.060938
C11	C	0.482111	0.066079	0.000059
C12	C	0.428456	0.065527	0.000051
C13	C	0.089634	0.106231	0.000073
C14	C	-0.112026	0.104180	0.000080
O15	O	-0.143288	0.141402	0.000103
N16	N	-0.131141	0.059844	0.000089
C17	C	-0.099838	0.016017	0.000101
O18	O	-0.120724	-0.021740	0.000116
C19	C	0.101820	0.018069	0.000099
C20	C	0.120933	0.062408	0.000083
C21	C	0.108747	0.150567	0.000057
C22	C	0.159159	0.151079	0.000051
C23	C	0.190457	0.107256	0.000061
C24	C	0.171344	0.062920	0.000077
C25	C	0.133122	-0.025757	0.000117
C26	C	0.183539	-0.025240	0.000118
C27	C	0.202652	0.019099	0.000101
C28	C	0.253055	0.019609	0.000081
N29	N	0.272171	0.063946	0.000072
C30	C	0.240872	0.107769	0.000062
C31	C	-0.205712	0.014943	0.000100
C32	C	-0.256126	0.014430	0.000100
C33	C	-0.268310	0.102594	0.000080
C34	C	-0.217895	0.103106	0.000075
C35	C	-0.186597	0.059280	0.000091
C36	C	0.346741	0.108842	0.000049
C37	C	0.397158	0.109350	0.000041
C38	C	0.409337	0.021187	0.000064
C39	C	0.358925	0.020678	0.000069
C40	C	0.327627	0.064510	0.000064
O41	O	0.284346	-0.017592	0.000066
O42	O	0.261767	0.145521	0.000063
C43	C	0.039222	0.105719	0.000078
C44	C	0.020109	0.061384	0.000094
C45	C	0.051408	0.017560	0.000104
C46	C	-0.030305	0.060871	0.000093
C47	C	-0.061604	0.104694	0.000083
C48	C	-0.042489	0.149030	0.000074
C49	C	0.007923	0.149543	0.000068
C50	C	0.032292	-0.026776	0.000113
C51	C	-0.018120	-0.027285	0.000118
C52	C	-0.049419	0.016539	0.000108
C53	C	0.574721	-0.026516	0.000092
C54	C	0.574179	-0.080172	0.000100
C55	C	0.570771	-0.412886	-0.066309
C56	C	0.568710	-0.614544	-0.066322
O57	O	0.568428	-0.640613	-0.122770
N58	N	0.568447	-0.639764	0.000049
C59	C	0.568696	-0.614565	0.066429
O60	O	0.568420	-0.640642	0.122882
C61	C	0.570754	-0.412907	0.066442
C62	C	0.571021	-0.387691	0.000066
C63	C	0.571038	-0.387670	-0.132680
C64	C	0.571556	-0.337259	-0.132676
C65	C	0.571806	-0.312064	-0.066301
C66	C	0.571539	-0.337280	0.000070
C67	C	0.570999	-0.387708	0.132821
C68	C	0.571513	-0.337291	0.132818
C69	C	0.571780	-0.312075	0.066442
C70	C	0.572308	-0.261674	0.066448
N71	N	0.572571	-0.236454	0.000076
C72	C	0.572320	-0.261650	-0.066298
C73	C	0.567617	-0.720438	0.066418
C74	C	0.567103	-0.770852	0.066415
C75	C	0.567116	-0.770829	-0.066337
C76	C	0.567633	-0.720414	-0.066333
C77	C	0.567880	-0.695219	0.000046
C78	C	0.573408	-0.155783	-0.066285
C79	C	0.573928	-0.105367	-0.066275
C80	C	0.573913	-0.105395	0.066476
C81	C	0.573395	-0.155806	0.066467
C82	C	0.573141	-0.180999	0.000080
O83	O	0.572584	-0.235573	0.122866
O84	O	0.572585	-0.235562	-0.122743
C85	C	0.570253	-0.463297	-0.066313
C86	C	0.569986	-0.488513	0.000058
C87	C	0.570236	-0.463318	0.066432
C88	C	0.569472	-0.538928	0.000055
C89	C	0.569221	-0.564123	-0.066320
C90	C	0.569484	-0.538904	-0.132692
C91	C	0.570002	-0.488493	-0.132688
C92	C	0.569974	-0.488537	0.132804
C93	C	0.569456	-0.538949	0.132795
C94	C	0.569205	-0.564144	0.066420
C95	C	0.658920	0.057701	0.000086
C96	C	0.712575	0.058254	0.000090
C97	C	0.566310	0.150296	0.000053
C98	C	0.566853	0.203952	0.000040
N99	N	0.570500	0.061884	0.189774
N100	N	0.570536	0.061892	-0.189627
C101	C	0.603624	0.028791	0.228095
C102	C	0.603627	0.028789	0.304740
C103	C	0.570510	0.061888	0.343060
C104	C	0.537379	0.094983	0.304730
C105	C	0.537374	0.094981	0.228086
N106	N	0.564030	0.104708	0.463382
N107	N	0.564038	0.104708	0.536190
C108	C	0.570524	0.061895	0.573983
N109	N	0.577011	0.019080	0.536217
N110	N	0.577005	0.019080	0.463402
C111	C	0.570512	0.061893	0.426167
C112	C	0.603654	0.028797	0.695411
C113	C	0.603654	0.028794	0.772058
C114	C	0.537408	0.094992	0.772046
C115	C	0.537406	0.094991	0.695401
C116	C	0.570531	0.061894	0.657089
H117	H	0.321264	0.144533	0.000048
H118	H	0.569242	-0.559476	0.186850
C119	C	0.633051	-0.000594	0.422239
C120	C	0.640042	-0.007587	0.346876
H121	H	0.655530	-0.023053	0.448248
H122	H	0.638049	0.031630	0.434777
H123	H	0.600832	-0.005627	0.434802
H124	H	0.672260	-0.002551	0.334311
H125	H	0.635048	-0.039820	0.334332
H126	H	0.630596	0.001841	0.196903
H127	H	0.570832	-0.408179	-0.186733
C128	C	0.569959	-0.493548	-0.263903
C129	C	0.570291	-0.460779	-0.205651
H130	H	0.570134	-0.476440	-0.308949
H131	H	0.597956	-0.517109	-0.261135
H132	H	0.541557	-0.509314	-0.261136
H133	H	0.598695	-0.445016	-0.208416
H134	H	0.542291	-0.437209	-0.208421
H135	H	0.571706	-0.316779	0.186873
C136	C	0.567139	-0.765799	0.197632
C137	C	0.566813	-0.798567	0.139378
H138	H	0.566955	-0.782908	0.242677
H139	H	0.595538	-0.750036	0.194877
H140	H	0.539139	-0.742235	0.194856
H141	H	0.594815	-0.822129	0.142151
H142	H	0.538411	-0.814338	0.142135
H143	H	0.510399	0.121930	0.196884
H144	H	0.570178	-0.468029	0.186856
C145	C	0.669131	-0.036641	0.703118
C146	C	0.640059	-0.007588	0.653292
H147	H	0.691603	-0.059105	0.677115
H148	H	0.686364	-0.016639	0.732999
H149	H	0.649140	-0.053888	0.733024
H150	H	0.660050	0.009663	0.623390
H151	H	0.622824	-0.027592	0.623398
H152	H	0.174715	0.187185	0.000037
H153	H	-0.271683	-0.021675	0.000102
C154	C	0.532905	-0.042958	0.143454
C155	C	0.574182	-0.077689	0.139430
H156	H	0.533067	-0.025853	0.188494
H157	H	0.533144	-0.020734	0.103922
H158	H	0.504510	-0.058733	0.140688
H159	H	0.602577	-0.061913	0.142191
H160	H	0.573948	-0.099916	0.178973
H161	H	0.510414	0.121932	0.335934
C162	C	-0.168275	0.154838	-0.062535
C163	C	-0.196891	0.151846	0.000059
H164	H	-0.155313	0.184930	-0.062546
H165	H	-0.142417	0.128818	-0.062520
H166	H	-0.187691	0.152801	-0.104991
H167	H	-0.177474	0.153879	0.042515
H168	H	-0.222752	0.177872	0.000050
C169	C	0.567593	-0.725466	-0.197550
C170	C	0.567921	-0.692698	-0.139295
H171	H	0.567767	-0.708355	-0.242594
H172	H	0.595591	-0.749025	-0.194782
H173	H	0.539192	-0.741233	-0.194785
H174	H	0.596324	-0.676933	-0.142057
H175	H	0.539920	-0.669130	-0.142064
H176	H	0.569282	-0.559427	-0.186736
C177	C	0.614663	-0.037072	0.858262
C178	C	0.640067	-0.007586	0.814182
H179	H	0.637145	-0.059533	0.884264
H180	H	0.594943	-0.017363	0.892050
H181	H	0.594679	-0.054322	0.828364
H182	H	0.660049	0.009667	0.844080
H183	H	0.659796	-0.027298	0.780390
H184	H	0.510441	0.121940	0.803246
C185	C	0.309294	-0.031045	-0.062505
C186	C	0.337912	-0.028059	0.000081
H187	H	0.296327	-0.061135	-0.062494
H188	H	0.283440	-0.005022	-0.062501
H189	H	0.328710	-0.029012	-0.104967
H190	H	0.318495	-0.030088	0.042542
H191	H	0.363770	-0.054089	0.000084
H192	H	0.510434	0.121940	0.664198
H193	H	0.412716	0.145458	0.000027
H194	H	0.057772	-0.062463	0.000123
C195	C	0.101781	0.237760	0.000024
C196	C	0.074348	0.198744	0.000040
H197	H	0.080546	0.267504	0.000004
H198	H	0.121693	0.236125	0.042486
H199	H	0.121704	0.236116	-0.042437
H200	H	0.054427	0.200386	0.042503
H201	H	0.054428	0.200380	-0.042426
C202	C	0.573434	-0.150763	0.197687
C203	C	0.573103	-0.183527	0.139427
H204	H	0.573247	-0.167874	0.242729
H205	H	0.601836	-0.135005	0.194933
H206	H	0.545437	-0.127195	0.194913
H207	H	0.601102	-0.207093	0.142198
H208	H	0.544698	-0.199293	0.142182
C209	C	0.566326	-0.848103	-0.125275
C210	C	0.566835	-0.798529	-0.139298
H211	H	0.566147	-0.865203	-0.170316
H212	H	0.594439	-0.860264	-0.098009
H213	H	0.538041	-0.852461	-0.097998
H214	H	0.595123	-0.794170	-0.166570
H215	H	0.538719	-0.786364	-0.166575
H216	H	-0.180232	-0.020747	0.000114
C217	C	-0.351005	0.140946	0.000078
C218	C	-0.302721	0.150766	0.000074
H219	H	-0.372249	0.170684	0.000083
H220	H	-0.356758	0.122757	-0.042379
H221	H	-0.356756	0.122743	0.042543
H222	H	-0.296969	0.168965	-0.042394
H223	H	-0.296966	0.168962	0.042535
C224	C	0.083515	-0.077497	-0.062454
C225	C	0.112125	-0.074499	0.000137
H226	H	0.070557	-0.107592	-0.062442
H227	H	0.057654	-0.051480	-0.062458
H228	H	0.102933	-0.075460	-0.104912
H229	H	0.092706	-0.076532	0.042595
H230	H	0.137989	-0.100522	0.000147
C231	C	0.190515	-0.112439	0.000139
C232	C	0.217942	-0.073417	0.000128
H233	H	0.211754	-0.142180	0.000138
H234	H	0.170600	-0.110805	0.042600
H235	H	0.170595	-0.110798	-0.042322
H236	H	0.237859	-0.075056	0.042592
H237	H	0.237865	-0.075051	-0.042337
H238	H	0.434830	-0.014493	0.000070
H239	H	0.023479	0.185648	0.000056
H240	H	-0.067981	0.184713	0.000063
H241	H	-0.033676	-0.063394	0.000126
H242	H	0.574147	-0.084839	-0.120329
C243	C	0.573462	-0.150680	-0.197505
C244	C	0.573121	-0.183468	-0.139257
H245	H	0.573286	-0.167773	-0.242553
H246	H	0.545469	-0.127115	-0.194734
H247	H	0.601867	-0.134921	-0.194734
H248	H	0.544713	-0.199224	-0.142025
H249	H	0.601117	-0.207041	-0.142029
H250	H	0.571772	-0.316733	-0.186726
H251	H	0.567820	-0.699929	0.120475
H252	H	0.570782	-0.408231	0.186871
