data_functionalizedCrystal
_audit_creation_method	'MofGen! by Chris Wilmer'
_symmetry_space_group_name_H-M	'P1'
_symmetry_Int_Tables_number	1
_symmetry_cell_setting	triclinic
loop_
_symmetry_equiv_pos_as_xyz
  x,y,z
_cell_length_a	14.519709
_cell_length_b	10.654550
_cell_length_c	9.730223
_cell_angle_alpha	89.999807
_cell_angle_beta	90.005407
_cell_angle_gamma	84.082524
loop_
_atom_site_label
_atom_site_type_symbol
_atom_site_fract_x
_atom_site_fract_y
_atom_site_fract_z
O1	O	1.224716	0.164618	-0.114107
O2	O	1.724716	0.664618	0.385893
O3	O	0.956339	0.184004	-0.114149
O4	O	1.456339	0.684004	0.385851
O5	O	1.096698	-0.008488	-0.114122
O6	O	1.596698	0.491512	0.385878
O7	O	1.084357	0.357109	-0.114134
O8	O	1.584357	0.857109	0.385866
O9	O	1.096696	-0.008483	0.114458
O10	O	1.596696	0.491517	0.614458
O11	O	0.956338	0.184009	0.114431
O12	O	1.456338	0.684009	0.614431
O13	O	1.224714	0.164622	0.114473
O14	O	1.724714	0.664622	0.614473
Zn15	Zn	1.090526	0.174316	0.150744
Zn16	Zn	1.590526	0.674316	0.650744
Zn17	Zn	1.090528	0.174310	-0.150420
Zn18	Zn	1.590528	0.674310	0.349580
O19	O	1.084355	0.357114	0.114446
O20	O	1.584355	0.857114	0.614446
C21	C	1.095791	-0.055275	0.000166
C22	C	1.595791	0.444725	0.500166
C23	C	1.093080	-0.194692	0.000161
C24	C	1.593080	0.305308	0.500161
C25	C	0.921974	0.183103	0.000136
C26	C	1.421974	0.683103	0.500136
C27	C	0.819579	0.180396	0.000120
C28	C	1.319579	0.680396	0.500120
C29	C	1.175721	-0.274972	0.000178
C30	C	1.675721	0.225028	0.500178
C31	C	1.173168	-0.405968	0.000168
C32	C	1.673168	0.094032	0.500168
C33	C	1.005326	-0.376391	0.000130
C34	C	1.505326	0.123609	0.500130
C35	C	1.007880	-0.245397	0.000130
C36	C	1.507880	0.254603	0.500130
C37	C	1.272623	-0.292049	0.000206
C38	C	1.772623	0.207951	0.500206
C39	C	1.270070	-0.423046	0.000196
C40	C	1.770070	0.076954	0.500196
C41	C	0.444631	0.170428	0.000183
C42	C	0.944631	0.670428	0.500183
C43	C	0.548954	0.173196	0.000165
C44	C	1.048954	0.673196	0.500165
C45	C	0.632102	0.175412	0.000150
C46	C	1.132102	0.675412	0.500150
C47	C	0.736431	0.178180	0.000135
C48	C	1.236431	0.678180	0.500135
C49	C	1.259079	0.165524	0.000185
C50	C	1.759079	0.665524	0.500185
C51	C	1.361475	0.168231	0.000192
C52	C	1.861475	0.668231	0.500192
C53	C	1.085262	0.403901	0.000155
C54	C	1.585262	0.903901	0.500155
C55	C	1.087973	0.543318	0.000151
C56	C	1.587973	1.043318	0.500151
N57	N	1.090531	0.174320	0.356280
N58	N	1.590531	0.674320	0.856280
N59	N	1.090530	0.174297	-0.355956
N60	N	1.590530	0.674297	0.144044
C61	C	1.152698	0.089113	0.428218
C62	C	1.652698	0.589113	0.928218
C63	C	1.152695	0.089098	0.572101
C64	C	1.652695	0.589098	1.072101
C65	C	1.028356	0.259507	0.572096
C66	C	1.528356	0.759507	1.072096
C67	C	1.028355	0.259516	0.428215
C68	C	1.528355	0.759516	0.928215
C69	C	1.224487	-0.009267	0.428223
C70	C	1.724487	0.490733	0.928223
C71	C	1.224485	-0.009283	0.572106
C72	C	1.724485	0.490717	1.072106
H73	H	0.940586	-0.180037	0.000097
H74	H	1.440586	0.319963	0.500097
H75	H	0.977733	0.328870	0.630681
H76	H	1.477733	0.828870	1.130681
Cl77	Cl	1.200176	-0.158067	0.367915
Cl78	Cl	1.700176	0.341933	0.867915
Cl79	Cl	1.326435	-0.488068	0.147890
Cl80	Cl	1.826435	0.011932	0.647890
Cl81	Cl	1.327857	0.036980	0.359326
Cl82	Cl	1.827857	0.536980	0.859326
H83	H	1.202078	-0.100290	0.616720
H84	H	1.702078	0.399710	1.116720
H85	H	1.295354	0.011554	0.611167
H86	H	1.795354	0.511554	1.111167
H87	H	0.935959	-0.417692	0.000103
H88	H	1.435959	0.082308	0.500103
H89	H	1.310526	-0.263058	-0.095442
H90	H	1.810526	0.236942	0.404558
H91	H	1.299356	-0.468972	-0.098494
H92	H	1.799356	0.031028	0.401506
Cl93	Cl	1.320247	-0.237486	0.152599
Cl94	Cl	1.820247	0.262514	0.652599
Cl95	Cl	0.950188	0.366618	0.337778
Cl96	Cl	1.450188	0.866618	0.837778
