data_functionalizedCrystal
_audit_creation_method	'MofGen! by Chris Wilmer'
_symmetry_space_group_name_H-M	'P1'
_symmetry_Int_Tables_number	1
_symmetry_cell_setting	triclinic
loop_
_symmetry_equiv_pos_as_xyz
  x,y,z
_cell_length_a	21.295419
_cell_length_b	21.295417
_cell_length_c	21.295412
_cell_angle_alpha	89.970379
_cell_angle_beta	89.976510
_cell_angle_gamma	90.044503
loop_
_atom_site_label
_atom_site_type_symbol
_atom_site_fract_x
_atom_site_fract_y
_atom_site_fract_z
Zn1	Zn	0.962353	-0.250376	-0.355916
Zn2	Zn	1.212353	-0.000376	-0.105916
Zn3	Zn	1.462353	0.249624	0.144084
Zn4	Zn	1.712353	0.499624	0.394084
Zn5	Zn	0.962258	-0.355645	-0.250643
Zn6	Zn	1.212258	-0.105645	-0.000643
Zn7	Zn	1.462258	0.144355	0.249357
Zn8	Zn	1.712258	0.394355	0.499357
Zn9	Zn	0.857078	-0.250421	-0.250661
Zn10	Zn	1.107078	-0.000421	-0.000661
Zn11	Zn	1.357078	0.249579	0.249339
Zn12	Zn	1.607078	0.499579	0.499339
Zn13	Zn	0.857047	-0.355639	-0.355875
Zn14	Zn	1.107047	-0.105639	-0.105875
Zn15	Zn	1.357047	0.144361	0.144125
Zn16	Zn	1.607047	0.394361	0.394125
O17	O	0.909684	-0.303020	-0.303274
O18	O	1.159684	-0.053020	-0.053274
O19	O	1.409684	0.196980	0.196726
O20	O	1.659684	0.446980	0.446726
O21	O	1.050429	-0.264324	-0.341961
O22	O	1.300429	-0.014324	-0.091961
O23	O	1.550429	0.235676	0.158039
O24	O	1.800429	0.485676	0.408039
O25	O	0.948279	-0.341708	-0.162556
O26	O	1.198279	-0.091708	0.087444
O27	O	1.448279	0.158292	0.337444
O28	O	1.698279	0.408292	0.587444
O29	O	0.871095	-0.162325	-0.264648
O30	O	1.121095	0.087675	-0.014648
O31	O	1.371095	0.337675	0.235352
O32	O	1.621095	0.587675	0.485352
O33	O	1.050360	-0.341665	-0.264617
O34	O	1.300360	-0.091665	-0.014617
O35	O	1.550360	0.158335	0.235383
O36	O	1.800360	0.408335	0.485383
O37	O	0.948440	-0.162293	-0.341978
O38	O	1.198440	0.087707	-0.091978
O39	O	1.448440	0.337707	0.158022
O40	O	1.698440	0.587707	0.408022
O41	O	0.871004	-0.264400	-0.162569
O42	O	1.121004	-0.014400	0.087431
O43	O	1.371004	0.235600	0.337431
O44	O	1.621004	0.485600	0.587431
O45	O	0.768984	-0.264394	-0.264608
O46	O	1.018984	-0.014394	-0.014608
O47	O	1.268984	0.235606	0.235392
O48	O	1.518984	0.485606	0.485392
O49	O	0.871042	-0.341654	-0.443970
O50	O	1.121042	-0.091654	-0.193970
O51	O	1.371042	0.158346	0.056030
O52	O	1.621042	0.408346	0.306030
O53	O	0.768961	-0.341697	-0.341908
O54	O	1.018961	-0.091697	-0.091908
O55	O	1.268961	0.158303	0.158092
O56	O	1.518961	0.408303	0.408092
O57	O	0.948410	-0.264319	-0.444000
O58	O	1.198410	-0.014319	-0.194000
O59	O	1.448410	0.235681	0.056000
O60	O	1.698410	0.485681	0.306000
O61	O	0.948249	-0.443733	-0.264578
O62	O	1.198249	-0.193733	-0.014578
O63	O	1.448249	0.056267	0.235422
O64	O	1.698249	0.306267	0.485422
O65	O	0.870951	-0.443729	-0.341891
O66	O	1.120951	-0.193729	-0.091891
O67	O	1.370951	0.056271	0.158109
O68	O	1.620951	0.306271	0.408109
C69	C	0.746132	-0.303050	-0.303256
C70	C	0.996132	-0.053050	-0.053256
C71	C	1.246132	0.196950	0.196744
C72	C	1.496132	0.446950	0.446744
C73	C	0.676164	-0.303078	-0.303263
C74	C	0.926164	-0.053078	-0.053263
C75	C	1.176164	0.196922	0.196737
C76	C	1.426164	0.446922	0.446737
C77	C	0.643356	-0.262873	-0.343598
C78	C	0.893356	-0.012873	-0.093598
C79	C	1.143356	0.237127	0.156402
C80	C	1.393356	0.487127	0.406402
C81	C	0.577613	-0.262856	-0.343601
C82	C	0.827613	-0.012856	-0.093601
C83	C	1.077613	0.237144	0.156399
C84	C	1.327613	0.487144	0.406399
C85	C	0.544682	-0.303056	-0.303275
C86	C	0.794682	-0.053056	-0.053275
C87	C	1.044682	0.196944	0.196725
C88	C	1.294682	0.446944	0.446725
C89	C	0.577498	-0.343264	-0.262932
C90	C	0.827498	-0.093264	-0.012932
C91	C	1.077498	0.156736	0.237068
C92	C	1.327498	0.406736	0.487068
C93	C	0.643239	-0.343275	-0.262926
C94	C	0.893239	-0.093275	-0.012926
C95	C	1.143239	0.156725	0.237074
C96	C	1.393239	0.406725	0.487074
N97	N	0.441407	-0.358134	-0.298356
N98	N	0.691407	-0.108134	-0.048356
N99	N	0.941407	0.141866	0.201644
N100	N	1.191407	0.391866	0.451644
N101	N	0.378956	-0.358121	-0.298365
N102	N	0.628956	-0.108121	-0.048365
N103	N	0.878956	0.141879	0.201635
N104	N	1.128956	0.391879	0.451635
C105	C	0.346607	-0.303023	-0.303289
C106	C	0.596607	-0.053023	-0.053289
C107	C	0.846607	0.196977	0.196711
C108	C	1.096607	0.446977	0.446711
N109	N	0.379069	-0.247937	-0.308215
N110	N	0.629069	0.002063	-0.058215
N111	N	0.879069	0.252063	0.191785
N112	N	1.129069	0.502063	0.441785
N113	N	0.441526	-0.247950	-0.308209
N114	N	0.691526	0.002050	-0.058209
N115	N	0.941526	0.252050	0.191791
N116	N	1.191526	0.502050	0.441791
C117	C	0.473396	-0.303048	-0.303276
C118	C	0.723396	-0.053048	-0.053276
C119	C	0.973396	0.196952	0.196724
C120	C	1.223396	0.446952	0.446724
C121	C	0.242513	-0.262796	-0.343628
C122	C	0.492513	-0.012796	-0.093628
C123	C	0.742513	0.237204	0.156372
C124	C	0.992513	0.487204	0.406372
C125	C	0.176769	-0.262778	-0.343626
C126	C	0.426769	-0.012778	-0.093626
C127	C	0.676769	0.237222	0.156374
C128	C	0.926769	0.487222	0.406374
C129	C	0.176655	-0.343192	-0.262961
C130	C	0.426655	-0.093192	-0.012961
C131	C	0.676655	0.156808	0.237039
C132	C	0.926655	0.406808	0.487039
C133	C	0.242397	-0.343204	-0.262960
C134	C	0.492397	-0.093204	-0.012960
C135	C	0.742397	0.156796	0.237040
C136	C	0.992397	0.406796	0.487040
C137	C	0.275323	-0.303007	-0.303297
C138	C	0.525323	-0.053007	-0.053297
C139	C	0.775323	0.196993	0.196703
C140	C	1.025323	0.446993	0.446703
C141	C	0.909604	-0.466572	-0.303242
C142	C	1.159604	-0.216572	-0.053242
C143	C	1.409604	0.033428	0.196758
C144	C	1.659604	0.283428	0.446758
C145	C	0.909627	-0.536540	-0.303249
C146	C	1.159627	-0.286540	-0.053249
C147	C	1.409627	-0.036540	0.196751
C148	C	1.659627	0.213460	0.446751
C149	C	0.949877	-0.569332	-0.343544
C150	C	1.199877	-0.319332	-0.093544
C151	C	1.449877	-0.069332	0.156456
C152	C	1.699877	0.180668	0.406456
C153	C	0.949900	-0.635075	-0.343559
C154	C	1.199900	-0.385075	-0.093559
C155	C	1.449900	-0.135075	0.156441
C156	C	1.699900	0.114925	0.406441
C157	C	0.909678	-0.668022	-0.303269
C158	C	1.159678	-0.418022	-0.053269
C159	C	1.409678	-0.168022	0.196731
C160	C	1.659678	0.081978	0.446731
C161	C	0.869420	-0.635222	-0.262971
C162	C	1.119420	-0.385222	-0.012971
C163	C	1.369420	-0.135222	0.237029
C164	C	1.619420	0.114778	0.487029
C165	C	0.869394	-0.569481	-0.262962
C166	C	1.119394	-0.319481	-0.012962
C167	C	1.369394	-0.069481	0.237038
C168	C	1.619394	0.180519	0.487038
N169	N	0.904919	-0.771284	-0.248178
N170	N	1.154919	-0.521284	0.001822
N171	N	1.404919	-0.271284	0.251822
N172	N	1.654919	-0.021284	0.501822
N173	N	0.904947	-0.833736	-0.248189
N174	N	1.154947	-0.583736	0.001811
N175	N	1.404947	-0.333736	0.251811
N176	N	1.654947	-0.083736	0.501811
C177	C	0.909751	-0.866097	-0.303297
C178	C	1.159751	-0.616097	-0.053297
C179	C	1.409751	-0.366097	0.196703
C180	C	1.659751	-0.116097	0.446703
N181	N	0.914539	-0.833647	-0.358395
N182	N	1.164539	-0.583647	-0.108395
N183	N	1.414539	-0.333647	0.141605
N184	N	1.664539	-0.083647	0.391605
N185	N	0.914514	-0.771190	-0.358383
N186	N	1.164514	-0.521190	-0.108383
N187	N	1.414514	-0.271190	0.141617
N188	N	1.664514	-0.021190	0.391617
C189	C	0.909701	-0.739308	-0.303276
C190	C	1.159701	-0.489308	-0.053276
C191	C	1.409701	-0.239308	0.196724
C192	C	1.659701	0.010692	0.446724
C193	C	0.950028	-0.970175	-0.343612
C194	C	1.200028	-0.720175	-0.093612
C195	C	1.450028	-0.470175	0.156388
C196	C	1.700028	-0.220175	0.406388
C197	C	0.950046	-1.035919	-0.343629
C198	C	1.200046	-0.785919	-0.093629
C199	C	1.450046	-0.535919	0.156371
C200	C	1.700046	-0.285919	0.406371
C201	C	0.869569	-1.036064	-0.263035
C202	C	1.119569	-0.786064	-0.013035
C203	C	1.369569	-0.536064	0.236965
C204	C	1.619569	-0.286064	0.486965
C205	C	0.869548	-0.970322	-0.263024
C206	C	1.119548	-0.720322	-0.013024
C207	C	1.369548	-0.470322	0.236976
C208	C	1.619548	-0.220322	0.486976
C209	C	0.909781	-0.937381	-0.303312
C210	C	1.159781	-0.687381	-0.053312
C211	C	1.409781	-0.437381	0.196688
C212	C	1.659781	-0.187381	0.446688
C213	C	1.073874	-0.302990	-0.303292
C214	C	1.323874	-0.052990	-0.053292
C215	C	1.573874	0.197010	0.196708
C216	C	1.823874	0.447010	0.446708
C217	C	1.143842	-0.302977	-0.303299
C218	C	1.393842	-0.052977	-0.053299
C219	C	1.643842	0.197023	0.196701
C220	C	1.893842	0.447023	0.446701
C221	C	0.909733	-0.302981	-0.467464
C222	C	1.159733	-0.052981	-0.217464
C223	C	1.409733	0.197019	0.032536
C224	C	1.659733	0.447019	0.282536
C225	C	0.909754	-0.302964	-0.537432
C226	C	1.159754	-0.052964	-0.287432
C227	C	1.409754	0.197036	-0.037432
C228	C	1.659754	0.447036	0.212568
C229	C	0.909782	-0.138830	-0.303319
C230	C	1.159782	0.111170	-0.053319
C231	C	1.409782	0.361170	0.196681
C232	C	1.659782	0.611170	0.446681
C233	C	0.909823	-0.068862	-0.303339
C234	C	1.159823	0.181138	-0.053339
C235	C	1.409823	0.431138	0.196661
C236	C	1.659823	0.681138	0.446661
C237	C	0.869527	-0.262706	-0.570296
C238	C	1.119527	-0.012706	-0.320296
C239	C	1.369527	0.237294	-0.070296
C240	C	1.619527	0.487294	0.179704
C241	C	0.869525	-0.262694	-0.636038
C242	C	1.119525	-0.012694	-0.386038
C243	C	1.369525	0.237306	-0.136038
C244	C	1.619525	0.487306	0.113962
C245	C	0.909761	-0.302934	-0.668915
C246	C	1.159761	-0.052934	-0.418915
C247	C	1.409761	0.197066	-0.168915
C248	C	1.659761	0.447066	0.081085
C249	C	0.949990	-0.343201	-0.636043
C250	C	1.199990	-0.093201	-0.386043
C251	C	1.449990	0.156799	-0.136043
C252	C	1.699990	0.406799	0.113957
C253	C	0.949987	-0.343216	-0.570302
C254	C	1.199987	-0.093216	-0.320302
C255	C	1.449987	0.156784	-0.070302
C256	C	1.699987	0.406784	0.179698
N257	N	0.964865	-0.307728	-0.772153
N258	N	1.214865	-0.057728	-0.522153
N259	N	1.464865	0.192272	-0.272153
N260	N	1.714865	0.442272	-0.022153
N261	N	0.964867	-0.307710	-0.834604
N262	N	1.214867	-0.057710	-0.584604
N263	N	1.464867	0.192290	-0.334604
N264	N	1.714867	0.442290	-0.084604
C265	C	0.909772	-0.302892	-0.866989
C266	C	1.159772	-0.052892	-0.616989
C267	C	1.409772	0.197108	-0.366989
C268	C	1.659772	0.447108	-0.116989
N269	N	0.854675	-0.298081	-0.834564
N270	N	1.104675	-0.048081	-0.584564
N271	N	1.354675	0.201919	-0.334564
N272	N	1.604675	0.451919	-0.084564
N273	N	0.854675	-0.298096	-0.772107
N274	N	1.104675	-0.048096	-0.522107
N275	N	1.354675	0.201904	-0.272107
N276	N	1.604675	0.451904	-0.022107
C277	C	0.909769	-0.302923	-0.740200
C278	C	1.159769	-0.052923	-0.490200
C279	C	1.409769	0.197077	-0.240200
C280	C	1.659769	0.447077	0.009800
C281	C	0.869540	-0.262619	-0.971139
C282	C	1.119540	-0.012619	-0.721139
C283	C	1.369540	0.237381	-0.471139
C284	C	1.619540	0.487381	-0.221139
C285	C	0.869537	-0.262611	-1.036882
C286	C	1.119537	-0.012611	-0.786882
C287	C	1.369537	0.237389	-0.536882
C288	C	1.619537	0.487389	-0.286882
C289	C	0.950008	-0.343115	-1.036886
C290	C	1.200008	-0.093115	-0.786886
C291	C	1.450008	0.156885	-0.536886
C292	C	1.700008	0.406885	-0.286886
C293	C	0.950005	-0.343126	-0.971144
C294	C	1.200005	-0.093126	-0.721144
C295	C	1.450005	0.156874	-0.471144
C296	C	1.700005	0.406874	-0.221144
C297	C	0.909772	-0.302874	-0.938274
C298	C	1.159772	-0.052874	-0.688274
C299	C	1.409772	0.197126	-0.438274
C300	C	1.659772	0.447126	-0.188274
C301	C	0.909671	-0.303014	-0.139722
C302	C	1.159671	-0.053014	0.110278
C303	C	1.409671	0.196986	0.360278
C304	C	1.659671	0.446986	0.610278
C305	C	0.909772	-0.302853	-0.069754
C306	C	1.159772	-0.052853	0.180246
C307	C	1.409772	0.197147	0.430246
C308	C	1.659772	0.447147	0.680246
H309	H	0.550896	-0.230113	-0.376445
H310	H	0.800896	0.019887	-0.126445
H311	H	1.050896	0.269887	0.123555
H312	H	1.300896	0.519887	0.373555
H313	H	0.982786	-0.943354	-0.376419
H314	H	1.232786	-0.693354	-0.126419
H315	H	1.482786	-0.443354	0.123581
H316	H	1.732786	-0.193354	0.373581
F317	F	0.992826	-0.385946	-1.071871
F318	F	1.242826	-0.135946	-0.821871
F319	F	1.492826	0.114054	-0.571871
F320	F	1.742826	0.364054	-0.321871
H321	H	0.836769	-0.229907	-0.662801
H322	H	1.086769	0.020093	-0.412801
H323	H	1.336769	0.270093	-0.162801
H324	H	1.586769	0.520093	0.087199
F325	F	0.826705	-0.219775	-1.071858
F326	F	1.076705	0.030225	-0.821858
F327	F	1.326705	0.280225	-0.571858
F328	F	1.576705	0.530225	-0.321858
H329	H	0.836779	-0.229844	-0.944375
H330	H	1.086779	0.020156	-0.694375
H331	H	1.336779	0.270156	-0.444375
H332	H	1.586779	0.520156	-0.194375
H333	H	0.836669	-0.662052	-0.230168
H334	H	1.086669	-0.412052	0.019832
H335	H	1.336669	-0.162052	0.269832
H336	H	1.586669	0.087948	0.519832
H337	H	0.669951	-0.376016	-0.230080
H338	H	0.919951	-0.126016	0.019920
H339	H	1.169951	0.123984	0.269920
H340	H	1.419951	0.373984	0.519920
F341	F	0.678394	-0.220091	-0.386528
F342	F	0.928394	0.029909	-0.136528
F343	F	1.178394	0.279909	0.113472
F344	F	1.428394	0.529909	0.363472
H345	H	0.550680	-0.375994	-0.230098
H346	H	0.800680	-0.125994	0.019902
H347	H	1.050680	0.124006	0.269902
H348	H	1.300680	0.374006	0.519902
H349	H	0.836816	-1.062890	-0.230234
H350	H	1.086816	-0.812890	0.019766
H351	H	1.336816	-0.562890	0.269766
H352	H	1.586816	-0.312890	0.519766
F353	F	0.141853	-0.219981	-0.386556
F354	F	0.391853	0.030019	-0.136556
F355	F	0.641853	0.280019	0.113444
F356	F	0.891853	0.530019	0.363444
H357	H	0.982764	-0.375907	-0.944386
H358	H	1.232764	-0.125907	-0.694386
H359	H	1.482764	0.124093	-0.444386
H360	H	1.732764	0.374093	-0.194386
F361	F	0.826708	-0.935420	-0.220136
F362	F	1.076708	-0.685420	0.029864
F363	F	1.326708	-0.435420	0.279864
F364	F	1.576708	-0.185420	0.529864
H365	H	0.982823	-1.062617	-0.376445
H366	H	1.232823	-0.812617	-0.126445
H367	H	1.482823	-0.562617	0.123555
H368	H	1.732823	-0.312617	0.373555
F369	F	0.826551	-0.534579	-0.220073
F370	F	1.076551	-0.284579	0.029927
F371	F	1.326551	-0.034579	0.279927
F372	F	1.576551	0.215421	0.529927
H373	H	0.269322	-0.230062	-0.376469
H374	H	0.519322	0.019938	-0.126469
H375	H	0.769322	0.269938	0.123531
H376	H	1.019322	0.519938	0.373531
H377	H	0.149843	-0.375923	-0.230127
H378	H	0.399843	-0.125923	0.019873
H379	H	0.649843	0.124077	0.269873
H380	H	0.899843	0.374077	0.519873
F381	F	0.992744	-0.669982	-0.386445
F382	F	1.242744	-0.419982	-0.136445
F383	F	1.492744	-0.169982	0.113555
F384	F	1.742744	0.080018	0.363555
H385	H	0.269110	-0.375946	-0.230117
H386	H	0.519110	-0.125946	0.019883
H387	H	0.769110	0.124054	0.269883
H388	H	1.019110	0.374054	0.519883
F389	F	0.826705	-0.219868	-0.535317
F390	F	1.076705	0.030132	-0.285317
F391	F	1.326705	0.280132	-0.035317
F392	F	1.576705	0.530132	0.214683
H393	H	0.982636	-0.542514	-0.376350
H394	H	1.232636	-0.292514	-0.126350
H395	H	1.482636	-0.042514	0.123650
H396	H	1.732636	0.207486	0.373650
F397	F	0.992810	-0.386030	-0.671033
F398	F	1.242810	-0.136030	-0.421033
F399	F	1.492810	0.113970	-0.171033
F400	F	1.742810	0.363970	0.078967
F401	F	0.992804	-0.386066	-0.535325
F402	F	1.242804	-0.136066	-0.285325
F403	F	1.492804	0.113934	-0.035325
F404	F	1.742804	0.363934	0.214675
