data_functionalizedCrystal
_audit_creation_method	'MofGen! by Chris Wilmer'
_symmetry_space_group_name_H-M	'P1'
_symmetry_Int_Tables_number	1
_symmetry_cell_setting	triclinic
loop_
_symmetry_equiv_pos_as_xyz
  x,y,z
_cell_length_a	17.019383
_cell_length_b	17.038272
_cell_length_c	13.448316
_cell_angle_alpha	89.993314
_cell_angle_beta	86.117264
_cell_angle_gamma	87.246883
loop_
_atom_site_label
_atom_site_type_symbol
_atom_site_fract_x
_atom_site_fract_y
_atom_site_fract_z
O1	O	1.053359	0.099663	-0.172804
O2	O	1.553359	0.599663	0.327196
O3	O	0.824548	0.112351	-0.153232
O4	O	1.324548	0.612351	0.346768
O5	O	0.937594	-0.007808	-0.162894
O6	O	1.437594	0.492192	0.337106
O7	O	0.940314	0.219821	-0.163142
O8	O	1.440314	0.719821	0.336858
O9	O	0.937578	-0.007815	0.002491
O10	O	1.437578	0.492185	0.502491
O11	O	0.824532	0.112343	0.012153
O12	O	1.324532	0.612343	0.512153
O13	O	1.053344	0.099655	-0.007419
O14	O	1.553344	0.599655	0.492581
Cu15	Cu	0.938937	0.105999	0.017468
Cu16	Cu	1.438937	0.605999	0.517468
Cu17	Cu	0.938955	0.106007	-0.178119
Cu18	Cu	1.438955	0.606007	0.321881
O19	O	0.940298	0.219814	0.002243
O20	O	1.440298	0.719814	0.502243
C21	C	0.795119	0.111864	-0.068023
C22	C	1.295119	0.611864	0.431977
C23	C	0.707452	0.110414	-0.060524
C24	C	1.207452	0.610414	0.439476
C25	C	0.666268	0.109739	-0.147145
C26	C	1.166268	0.609739	0.352855
C27	C	0.583895	0.108390	-0.140084
C28	C	1.083895	0.608390	0.359916
C29	C	0.542708	0.107710	-0.046402
C30	C	1.042708	0.607710	0.453598
C31	C	0.583899	0.108388	0.040226
C32	C	1.083899	0.608388	0.540226
C33	C	0.666270	0.109742	0.033164
C34	C	1.166270	0.609742	0.533164
C35	C	0.294001	0.103624	-0.020570
C36	C	0.794001	0.603624	0.479430
C37	C	0.211624	0.102267	-0.013515
C38	C	0.711624	0.602267	0.486485
C39	C	0.211626	0.102271	-0.193826
C40	C	0.711626	0.602271	0.306174
C41	C	0.293999	0.103621	-0.200879
C42	C	0.793999	0.603621	0.299121
C43	C	0.335182	0.104302	-0.114252
C44	C	0.835182	0.604302	0.385748
C45	C	0.458510	0.106328	-0.039182
C46	C	0.958510	0.606328	0.460818
C47	C	0.419378	0.105690	-0.121472
C48	C	0.919378	0.605690	0.378528
C49	C	0.935112	-0.036938	-0.079990
C50	C	1.435112	0.463062	0.420010
C51	C	0.927732	-0.123725	-0.079359
C52	C	1.427732	0.376275	0.420641
C53	C	0.995492	-0.173893	-0.085154
C54	C	1.495492	0.326107	0.414846
C55	C	0.988552	-0.255438	-0.084570
C56	C	1.488552	0.244562	0.415430
C57	C	0.913853	-0.286813	-0.078183
C58	C	1.413853	0.213187	0.421817
C59	C	0.846088	-0.236638	-0.072391
C60	C	1.346088	0.263362	0.427609
C61	C	0.853028	-0.155095	-0.072982
C62	C	1.353028	0.344905	0.427018
C63	C	0.889335	-0.532551	-0.076100
C64	C	1.389335	-0.032551	0.423900
C65	C	0.882400	-0.614101	-0.075506
C66	C	1.382400	-0.114101	0.424494
C67	C	1.024865	-0.632895	-0.087687
C68	C	1.524865	-0.132895	0.412313
C69	C	1.031799	-0.551350	-0.088271
C70	C	1.531799	-0.051350	0.411729
C71	C	0.964034	-0.501182	-0.082484
C72	C	1.464034	-0.001182	0.417516
C73	C	0.906758	-0.370165	-0.077583
C74	C	1.406758	0.129835	0.422417
C75	C	0.971129	-0.417832	-0.083092
C76	C	1.471129	0.082168	0.416908
C77	C	1.082773	0.100142	-0.092630
C78	C	1.582773	0.600142	0.407370
C79	C	1.170439	0.101592	-0.100136
C80	C	1.670439	0.601592	0.399864
C81	C	0.942780	0.248944	-0.080663
C82	C	1.442780	0.748944	0.419337
C83	C	0.950160	0.335731	-0.081301
C84	C	1.450160	0.835731	0.418699
N85	N	0.938929	0.105992	0.155033
N86	N	1.438929	0.605992	0.655033
N87	N	0.938968	0.106008	-0.315685
N88	N	1.438968	0.606008	0.184315
C89	C	0.989004	0.052808	0.202794
C90	C	1.489004	0.552808	0.702794
C91	C	0.989009	0.052807	0.306896
C92	C	1.489009	0.552807	0.806896
C93	C	0.938943	0.105995	0.363236
C94	C	1.438943	0.605995	0.863236
C95	C	0.888862	0.159182	0.315469
C96	C	1.388862	0.659182	0.815469
C97	C	0.888854	0.159178	0.211368
C98	C	1.388854	0.659178	0.711368
C99	C	0.888884	0.159187	0.532447
C100	C	1.388884	0.659187	1.032447
C101	C	0.888894	0.159192	0.636555
C102	C	1.388894	0.659192	1.136555
C103	C	0.989040	0.052816	0.627975
C104	C	1.489040	0.552816	1.127975
C105	C	0.989031	0.052812	0.523875
C106	C	1.489031	0.552812	1.023875
C107	C	0.938952	0.106000	0.476114
C108	C	1.438952	0.606000	0.976114
H109	H	0.550358	0.107839	0.116504
H110	H	1.050358	0.607839	0.616504
Br111	Br	1.116826	-0.700983	-0.095540
Br112	Br	1.616826	-0.200983	0.404460
H113	H	0.550366	0.107840	-0.210621
H114	H	1.050366	0.607840	0.289379
H115	H	0.848077	0.202485	0.172483
H116	H	1.348077	0.702485	0.672483
Br117	Br	0.820914	0.231369	0.467633
Br118	Br	1.320914	0.731369	0.967633
Br119	Br	0.781015	-0.656680	-0.066828
Br120	Br	1.281015	-0.156680	0.433172
H121	H	0.452915	0.106248	-0.197748
H122	H	0.952915	0.606248	0.302252
H123	H	0.845937	-0.395719	-0.072381
H124	H	1.345937	0.104281	0.427619
H125	H	1.056320	-0.148354	-0.090348
H126	H	1.556320	0.351646	0.409652
H127	H	1.029816	0.009509	0.666868
H128	H	1.529816	0.509509	1.166868
Br129	Br	1.133181	-0.508775	-0.096971
Br130	Br	1.633181	-0.008775	0.403029
Br131	Br	0.402608	0.105407	0.087956
Br132	Br	0.902608	0.605407	0.587956
Br133	Br	1.056962	-0.019375	0.126342
Br134	Br	1.556962	0.480625	0.626342
Br135	Br	0.797368	-0.464476	-0.068252
Br136	Br	1.297368	0.035524	0.431748
Br137	Br	1.056965	-0.019375	0.371718
Br138	Br	1.556965	0.480625	0.871718
Br139	Br	0.722156	0.110654	-0.274292
Br140	Br	1.222156	0.610654	0.225708
Br141	Br	0.820907	0.231362	0.391927
Br142	Br	1.320907	0.731362	0.891927
H143	H	0.848124	0.202502	0.682422
H144	H	1.348124	0.702502	1.182422
H145	H	0.327522	0.104174	0.049969
H146	H	0.827522	0.604174	0.549969
H147	H	0.785266	-0.262190	-0.067198
H148	H	1.285266	0.237810	0.432802
H149	H	1.043730	-0.296283	-0.089286
H150	H	1.543730	0.203717	0.410714
H151	H	0.327528	0.104169	-0.277166
H152	H	0.827528	0.604169	0.222834
H153	H	0.178086	0.101718	-0.264353
H154	H	0.678086	0.601718	0.235647
H155	H	0.178091	0.101735	0.062777
H156	H	0.678091	0.601735	0.562777
Br157	Br	0.722164	0.110666	0.150726
Br158	Br	1.222164	0.610666	0.650726
Br159	Br	0.761065	-0.087007	-0.065125
Br160	Br	1.261065	0.412993	0.434875
H161	H	1.031950	-0.392283	-0.088313
H162	H	1.531950	0.107717	0.411687
H163	H	1.029803	0.009507	0.478002
H164	H	1.529803	0.509507	0.978002
