data_functionalizedCrystal
_audit_creation_method	'MofGen! by Chris Wilmer'
_symmetry_space_group_name_H-M	'P1'
_symmetry_Int_Tables_number	1
_symmetry_cell_setting	triclinic
loop_
_symmetry_equiv_pos_as_xyz
  x,y,z
_cell_length_a	16.992694
_cell_length_b	13.339070
_cell_length_c	15.455313
_cell_angle_alpha	93.394339
_cell_angle_beta	87.142206
_cell_angle_gamma	103.148759
loop_
_atom_site_label
_atom_site_type_symbol
_atom_site_fract_x
_atom_site_fract_y
_atom_site_fract_z
O1	O	1.090408	0.214131	-0.072012
O2	O	0.861603	0.211734	-0.072038
O3	O	0.949746	0.063546	-0.072026
O4	O	1.002265	0.362319	-0.072025
O5	O	0.944697	0.071983	0.072236
O6	O	0.856554	0.220171	0.072223
O7	O	1.085360	0.222568	0.072249
Cu8	Cu	0.970496	0.222140	0.085408
Cu9	Cu	0.976466	0.212163	-0.085197
O10	O	0.997216	0.370756	0.072237
C11	C	0.829195	0.212871	0.000089
C12	C	0.740151	0.203676	0.000079
C13	C	0.709211	0.292390	0.000080
C14	C	0.625543	0.283745	0.000092
C15	C	0.572817	0.186386	0.000097
C16	C	0.603762	0.097666	0.000099
C17	C	0.687429	0.106311	0.000093
C18	C	0.321423	0.150552	0.000120
C19	C	0.237751	0.141912	0.000123
C20	C	0.259538	0.327993	0.000118
C21	C	0.343205	0.336630	0.000107
C22	C	0.374143	0.247910	0.000114
N23	N	0.487295	0.177547	0.000107
N24	N	0.459663	0.256750	0.000110
C25	C	0.938350	0.029358	0.000103
C26	C	0.911906	-0.085082	0.000097
C27	C	1.117519	-0.433251	0.000120
C28	C	1.142367	-0.325728	0.000131
C29	C	1.084754	-0.265562	0.000122
C30	C	1.002289	-0.312927	0.000103
C31	C	0.977439	-0.420460	0.000099
C32	C	0.944673	-0.252771	0.000101
C33	C	0.862209	-0.300136	0.000081
C34	C	0.837363	-0.407658	0.000077
C35	C	0.894976	-0.467825	0.000086
C36	C	0.969524	-0.145238	0.000105
C37	C	0.829443	-0.132447	0.000083
C38	C	0.804596	-0.239969	0.000072
C39	C	1.117767	0.221431	0.000120
C40	C	1.206811	0.230626	0.000124
C41	C	1.008612	0.404944	0.000106
C42	C	1.035056	0.519384	0.000107
N43	N	0.966302	0.229157	0.205403
N44	N	0.980664	0.205137	-0.205192
C45	C	1.003772	0.166228	0.250803
C46	C	1.000610	0.171545	0.341610
C47	C	0.959983	0.239798	0.387017
C48	C	0.922508	0.302729	0.341611
C49	C	0.925665	0.297406	0.250805
C50	C	0.946347	0.262746	0.658596
C51	C	0.943195	0.268067	0.749408
C52	C	1.021296	0.136880	0.749401
C53	C	1.024454	0.131568	0.658594
C54	C	0.986976	0.194496	0.613196
N55	N	0.956752	0.245237	0.479836
N56	N	0.990202	0.189051	0.520378
H57	H	0.560826	0.018394	0.000115
O58	O	0.595624	0.370024	0.000053
C59	C	0.626061	0.555505	0.000098
C60	C	0.660052	0.457873	0.000118
H61	H	0.678133	0.626556	0.000169
H62	H	0.589566	0.552648	-0.060285
H63	H	0.585307	0.559586	0.060462
H64	H	0.700839	0.453730	-0.060205
H65	H	0.696500	0.460770	0.060541
H66	H	1.104990	-0.178013	0.000131
H67	H	0.752136	0.371670	0.000076
O68	O	0.724461	-0.285823	0.000019
C69	C	0.588138	-0.261794	0.000048
C70	C	0.678863	-0.209734	0.000089
H71	H	0.551246	-0.200299	0.000122
H72	H	0.575077	-0.315309	-0.060344
H73	H	0.570925	-0.308323	0.060403
H74	H	0.696139	-0.163151	-0.060225
H75	H	0.691876	-0.156278	0.060520
O76	O	0.229619	0.414272	0.000081
C77	C	0.260057	0.599754	0.000134
C78	C	0.294047	0.502121	0.000153
H79	H	0.312130	0.670805	0.000211
H80	H	0.223566	0.596902	-0.060250
H81	H	0.219300	0.603831	0.060496
H82	H	0.334839	0.497982	-0.060168
H83	H	0.330492	0.505013	0.060578
O84	O	0.351566	0.064437	-0.000000
C85	C	0.435938	-0.038213	-0.074776
C86	C	0.401872	0.059366	-0.074734
H87	H	0.476604	-0.042356	-0.135201
H88	H	0.472512	-0.035310	-0.014447
H89	H	0.383862	-0.109259	-0.074735
H90	H	0.453898	0.130462	-0.074806
H91	H	0.365276	0.056373	-0.135058
H92	H	1.031120	0.120303	0.378574
O93	O	1.043242	0.099838	0.206833
C94	C	1.120410	-0.029679	0.216421
C95	C	1.075723	0.045449	0.266321
H96	H	1.146698	-0.073657	0.264495
H97	H	1.076261	-0.086491	0.173942
H98	H	1.171405	0.015555	0.173875
H99	H	1.024730	0.000301	0.308914
H100	H	1.119924	0.102262	0.308746
H101	H	0.712618	0.034071	0.000092
O102	O	1.222448	-0.279613	0.000029
C103	C	1.334430	-0.170063	-0.074719
C104	C	1.243719	-0.222207	-0.074698
H105	H	1.351660	-0.123655	-0.135138
H106	H	1.347482	-0.116448	-0.014384
H107	H	1.371317	-0.231551	-0.074674
H108	H	1.206772	-0.160790	-0.074774
H109	H	1.230731	-0.275843	-0.135028
H110	H	1.036667	-0.106684	0.000121
H111	H	1.164418	-0.482247	0.000134
O112	O	1.063920	0.065174	0.614623
C113	C	1.141091	-0.064341	0.624203
C114	C	1.096404	0.010783	0.674107
H115	H	1.167381	-0.108320	0.672273
H116	H	1.096942	-0.121152	0.581723
H117	H	1.192085	-0.019104	0.581656
H118	H	1.045412	-0.034368	0.716700
H119	H	1.140605	0.067595	0.716532
H120	H	1.051808	0.085646	0.786373
H121	H	0.874749	-0.555379	0.000073
O122	O	0.394448	0.431180	-0.000071
C123	C	0.504153	0.544528	-0.074847
C124	C	0.446163	0.437417	-0.074743
H125	H	0.545990	0.549598	-0.135204
H126	H	0.467694	0.606475	-0.074910
H127	H	0.541742	0.556784	-0.014460
H128	H	0.408560	0.425062	-0.135120
H129	H	0.482669	0.375526	-0.074635
H130	H	0.770215	-0.446220	0.000068
O131	O	0.903652	0.334384	0.793383
C132	C	0.826537	0.463961	0.783813
C133	C	0.871274	0.388894	0.733904
H134	H	0.800362	0.508068	0.735745
H135	H	0.775476	0.418773	0.826311
H136	H	0.870709	0.520669	0.826342
H137	H	0.827165	0.332169	0.691328
H138	H	0.922347	0.434149	0.691461
H139	H	0.782529	-0.083459	0.000080
O140	O	0.910076	0.323935	0.614414
C141	C	0.927258	0.457239	0.511940
C142	C	0.968432	0.387977	0.561909
H143	H	0.974423	0.509050	0.469492
H144	H	0.879208	0.407105	0.469376
H145	H	0.897662	0.506889	0.560016
H146	H	0.998074	0.338316	0.513895
H147	H	1.016440	0.438171	0.604486
H148	H	0.889423	0.358298	0.378586
H149	H	0.895152	0.348649	0.213842
H150	H	0.194822	0.062627	0.000126
