data_functionalizedCrystal
_audit_creation_method	'MofGen! by Chris Wilmer'
_symmetry_space_group_name_H-M	'P1'
_symmetry_Int_Tables_number	1
_symmetry_cell_setting	triclinic
loop_
_symmetry_equiv_pos_as_xyz
  x,y,z
_cell_length_a	14.853567
_cell_length_b	13.930277
_cell_length_c	12.837942
_cell_angle_alpha	90.003658
_cell_angle_beta	89.231935
_cell_angle_gamma	90.004245
loop_
_atom_site_label
_atom_site_type_symbol
_atom_site_fract_x
_atom_site_fract_y
_atom_site_fract_z
O1	O	1.207849	0.079764	0.135356
O2	O	0.946757	0.079780	0.151481
O3	O	1.071514	0.079766	-0.007493
O4	O	1.083093	0.079777	0.294330
O5	O	1.071494	-0.079896	-0.007496
O6	O	0.946738	-0.079882	0.151477
O7	O	1.207830	-0.079898	0.135353
Zn8	Zn	1.077281	-0.105240	0.143414
Zn9	Zn	1.077306	0.105122	0.143419
O10	O	1.083073	-0.079885	0.294326
C11	C	0.913097	-0.000049	0.150748
C12	C	0.812827	-0.000043	0.148559
C13	C	0.391499	-0.000068	0.044870
C14	C	0.386237	-0.000060	0.233734
C15	C	0.480445	-0.000057	0.235793
C16	C	0.530185	-0.000058	0.142389
C17	C	0.485716	-0.000062	0.046926
C18	C	0.524921	-0.000043	0.331254
C19	C	0.619135	-0.000039	0.333316
C20	C	0.668877	-0.000047	0.239911
C21	C	0.624402	-0.000052	0.144445
C22	C	0.674141	-0.000053	0.051041
C23	C	0.629669	-0.000065	-0.044427
C24	C	0.535457	-0.000070	-0.046479
C25	C	0.763088	-0.000042	0.241963
C26	C	0.768359	-0.000047	0.053096
N27	N	1.077270	-0.248806	0.143411
C28	C	1.022059	-0.701069	0.213785
C29	C	1.132577	-0.701051	0.073045
C30	C	1.132566	-0.600555	0.073042
C31	C	1.077302	-0.550312	0.143412
C32	C	1.022049	-0.600564	0.213786
C33	C	1.187825	-0.550295	0.002677
C34	C	1.187817	-0.449793	0.002671
C35	C	1.132548	-0.399548	0.073038
C36	C	1.077291	-0.449807	0.143413
C37	C	1.022027	-0.399563	0.213783
C38	C	0.966765	-0.449820	0.284155
C39	C	0.966779	-0.550319	0.284152
C40	C	1.132534	-0.299049	0.073041
C41	C	1.022016	-0.299058	0.213784
C42	C	1.241490	-0.000067	0.136085
C43	C	1.341759	-0.000067	0.138275
C44	C	1.067593	-0.000064	-0.046121
C45	C	1.055927	-0.000062	-0.161215
N46	N	1.077324	0.248688	0.143414
C47	C	1.196173	-0.000050	-0.401971
C48	C	1.185216	-0.000048	-0.510113
C49	C	1.023056	-0.000048	-0.485641
C50	C	1.034013	-0.000050	-0.377500
C51	C	1.120574	-0.000053	-0.335669
C52	C	1.131531	-0.000062	-0.227525
C53	C	0.969372	-0.000055	-0.203056
C54	C	0.958415	-0.000053	-0.311198
C55	C	1.086994	-0.000052	0.332954
C56	C	1.098660	-0.000048	0.448048
H57	H	0.799294	-0.000034	0.319691
H58	H	1.246777	-0.000043	-0.564093
H59	H	0.907814	-0.000065	-0.149060
H60	H	0.655337	-0.000029	0.411052
H61	H	0.952582	-0.000035	-0.519720
H62	H	0.977063	-0.741991	0.271077
H63	H	1.266654	-0.000062	-0.367912
C64	C	0.684388	-0.000066	-0.147165
H65	H	0.746865	-0.000064	-0.132261
H66	H	0.670031	0.055605	-0.186308
H67	H	0.670037	-0.055757	-0.186300
C68	C	0.823069	-0.000049	-0.049648
H69	H	0.885548	-0.000048	-0.034754
H70	H	0.808709	0.055623	-0.088788
H71	H	0.808712	-0.055739	-0.088780
C72	C	0.863205	-0.000056	-0.357218
H73	H	0.867506	-0.000060	-0.431120
H74	H	0.831685	0.055617	-0.334462
H75	H	0.831691	-0.055745	-0.334475
H76	H	0.484417	-0.000033	0.407298
C77	C	0.486536	-0.000073	-0.151481
H78	H	0.423304	-0.000064	-0.139325
H79	H	0.503051	-0.055749	-0.189951
H80	H	0.503060	0.055613	-0.189938
C81	C	0.331527	-0.000061	0.336470
H82	H	0.269049	-0.000071	0.321573
H83	H	0.345886	0.055615	0.375614
H84	H	0.345882	-0.055747	0.375599
C85	C	1.193363	-0.756315	-0.004355
H86	H	1.185453	-0.823367	0.005721
H87	H	1.254504	-0.739831	0.007026
H88	H	1.177619	-0.739855	-0.073572
H89	H	0.355285	-0.000082	-0.032857
H90	H	0.977009	-0.258156	0.271085
C91	C	0.905980	-0.394546	0.361559
H92	H	0.913891	-0.327496	0.351474
H93	H	0.921709	-0.411010	0.430774
H94	H	0.844833	-0.411020	0.350163
H95	H	0.921788	-0.591244	0.341446
H96	H	1.177532	-0.258135	0.015750
C97	C	1.248612	-0.605562	-0.074721
H98	H	1.240694	-0.672613	-0.064649
H99	H	1.309753	-0.589084	-0.063333
H100	H	1.232874	-0.589097	-0.143940
H101	H	1.232813	-0.408880	-0.054629
C102	C	1.226742	-0.000062	-0.181511
H103	H	1.270196	-0.000050	-0.236491
H104	H	1.234388	-0.055739	-0.139839
H105	H	1.234388	0.055623	-0.139830
