data_functionalizedCrystal
_audit_creation_method	'MofGen! by Chris Wilmer'
_symmetry_space_group_name_H-M	'P1'
_symmetry_Int_Tables_number	1
_symmetry_cell_setting	triclinic
loop_
_symmetry_equiv_pos_as_xyz
  x,y,z
_cell_length_a	19.188930
_cell_length_b	9.065218
_cell_length_c	17.666332
_cell_angle_alpha	89.990599
_cell_angle_beta	90.011603
_cell_angle_gamma	95.919667
loop_
_atom_site_label
_atom_site_type_symbol
_atom_site_fract_x
_atom_site_fract_y
_atom_site_fract_z
O1	O	0.102372	-1.956860	0.062960
O2	O	0.602372	-1.456860	0.562960
O3	O	0.110769	-1.527284	0.062962
O4	O	0.610769	-1.027284	0.562962
O5	O	0.005011	-1.754469	0.062946
O6	O	0.505011	-1.254469	0.562946
O7	O	0.208130	-1.729675	0.062976
O8	O	0.708130	-1.229675	0.562976
O9	O	0.005005	-1.754429	-0.062950
O10	O	0.505005	-1.254429	0.437050
O11	O	0.110763	-1.527244	-0.062935
O12	O	0.610763	-1.027244	0.437065
O13	O	0.102366	-1.956820	-0.062936
O14	O	0.602366	-1.456820	0.437064
Cu15	Cu	0.106564	-1.742029	-0.074431
Cu16	Cu	0.606564	-1.242029	0.425569
Cu17	Cu	0.106571	-1.742076	0.074457
Cu18	Cu	0.606571	-1.242076	0.574457
O19	O	0.208124	-1.729636	-0.062921
O20	O	0.708124	-1.229636	0.437079
C21	C	0.109959	-1.472305	0.000014
C22	C	0.609959	-0.972305	0.500014
C23	C	0.107546	-1.308546	0.000014
C24	C	0.607546	-0.808546	0.500014
C25	C	-0.021009	-1.753646	-0.000004
C26	C	0.478991	-1.253646	0.499996
C27	C	-0.098533	-1.751236	-0.000011
C28	C	0.401467	-1.251236	0.499989
N29	N	0.106558	-1.742006	-0.179150
N30	N	0.606558	-1.242006	0.320850
C31	C	-0.142421	-1.884540	-0.000015
C32	C	0.357579	-1.384540	0.499985
C33	C	-0.215262	-1.882276	-0.000003
C34	C	0.284738	-1.382276	0.499997
C35	C	-0.244212	-1.746699	-0.000002
C36	C	0.255788	-1.246699	0.499998
C37	C	-0.200314	-1.613377	0.000007
C38	C	0.299686	-1.113377	0.500007
C39	C	-0.127474	-1.615646	0.000002
C40	C	0.372526	-1.115646	0.500002
N41	N	-0.353024	-1.643054	-0.042846
N42	N	0.146976	-1.143054	0.457154
N43	N	-0.422220	-1.640908	-0.042843
N44	N	0.077780	-1.140908	0.457157
C45	C	-0.463674	-1.739858	0.000014
C46	C	0.036326	-1.239858	0.500014
N47	N	-0.433320	-1.841056	0.042859
N48	N	0.066680	-1.341056	0.542859
N49	N	-0.364119	-1.843206	0.042853
N50	N	0.135881	-1.343206	0.542853
C51	C	-0.323194	-1.744225	0.000004
C52	C	0.176806	-1.244225	0.500004
C53	C	-0.586546	-1.870716	0.000024
C54	C	-0.086546	-1.370716	0.500024
C55	C	-0.659388	-1.868446	0.000041
C56	C	-0.159388	-1.368446	0.500041
C57	C	-0.644438	-1.599544	0.000043
C58	C	-0.144438	-1.099544	0.500043
C59	C	-0.571598	-1.601818	0.000033
C60	C	-0.071598	-1.101818	0.500033
C61	C	-0.542656	-1.737408	0.000020
C62	C	-0.042656	-1.237408	0.500020
C63	C	0.234144	-1.730458	0.000032
C64	C	0.734144	-1.230458	0.500032
C65	C	0.311667	-1.732869	0.000043
C66	C	0.811667	-1.232869	0.500043
C67	C	0.103176	-2.011799	0.000014
C68	C	0.603176	-1.511799	0.500014
C69	C	0.105589	-2.175558	0.000018
C70	C	0.605589	-1.675558	0.500018
C71	C	0.059752	-1.842636	-0.218767
C72	C	0.559752	-1.342636	0.281233
C73	C	0.059749	-1.842645	-0.298015
C74	C	0.559749	-1.342645	0.201985
C75	C	0.106564	-1.742038	-0.337642
C76	C	0.606564	-1.242038	0.162358
C77	C	0.153373	-1.641389	-0.298016
C78	C	0.653373	-1.141389	0.201984
C79	C	0.153371	-1.641373	-0.218770
C80	C	0.653371	-1.141373	0.281230
N81	N	0.168222	-1.722860	-0.462052
N82	N	0.668222	-1.222860	0.037948
N83	N	0.168223	-1.722884	-0.537333
N84	N	0.668223	-1.222884	-0.037333
C85	C	0.106574	-1.742076	-0.576406
C86	C	0.606574	-1.242076	-0.076406
N87	N	0.044923	-1.761273	-0.537356
N88	N	0.544923	-1.261273	-0.037356
N89	N	0.044923	-1.761257	-0.462069
N90	N	0.544923	-1.261257	0.037931
C91	C	0.106572	-1.742043	-0.423572
C92	C	0.606572	-1.242043	0.076428
C93	C	0.059760	-1.842721	-0.701953
C94	C	0.559760	-1.342721	-0.201953
C95	C	0.059756	-1.842719	-0.781202
C96	C	0.559756	-1.342719	-0.281202
C97	C	0.153387	-1.641471	-0.781202
C98	C	0.653387	-1.141471	-0.281202
C99	C	0.153385	-1.641465	-0.701954
C100	C	0.653385	-1.141465	-0.201954
C101	C	0.106573	-1.742098	-0.662334
C102	C	0.606573	-1.242098	-0.162334
N103	N	0.106571	-1.742110	0.179176
N104	N	0.606571	-1.242110	0.679176
H105	H	-0.118862	-1.994948	-0.000023
H106	H	0.381138	-1.494948	0.499977
F107	F	-0.555741	-2.015021	0.000006
F108	F	-0.055741	-1.515021	0.500006
F109	F	-0.261980	-2.024162	-0.000006
F110	F	0.238020	-1.524162	0.499994
H111	H	-0.223890	-1.502990	0.000009
H112	H	0.276110	-1.002990	0.500009
F113	F	-0.080763	-1.473758	0.000007
F114	F	0.419237	-0.973758	0.500007
F115	F	-0.675244	-1.455252	0.000048
F116	F	-0.175244	-0.955252	0.500048
F117	F	0.203195	-1.534310	-0.340191
F118	F	0.703195	-1.034310	0.159809
H119	H	0.021641	-1.924658	-0.669693
H120	H	0.521641	-1.424658	-0.169693
F121	F	-0.706098	-2.010335	0.000041
F122	F	-0.206098	-1.510335	0.500041
F123	F	0.203206	-1.534368	-0.659788
F124	F	0.703206	-1.034368	-0.159788
F125	F	-0.524886	-1.459935	0.000035
F126	F	-0.024886	-0.959935	0.500035
H127	H	0.021633	-1.924574	-0.186511
H128	H	0.521633	-1.424574	0.313489
F129	F	0.203206	-1.534388	-0.823373
F130	F	0.703206	-1.034388	-0.323373
H131	H	0.191487	-1.559427	-0.186513
H132	H	0.691487	-1.059427	0.313487
F133	F	0.009929	-1.949755	-0.340185
F134	F	0.509929	-1.449755	0.159815
F135	F	0.009933	-1.949820	-0.823366
F136	F	0.509933	-1.449820	-0.323366
