data_functionalizedCrystal
_audit_creation_method	'MofGen! by Chris Wilmer'
_symmetry_space_group_name_H-M	'P1'
_symmetry_Int_Tables_number	1
_symmetry_cell_setting	triclinic
loop_
_symmetry_equiv_pos_as_xyz
  x,y,z
_cell_length_a	12.827893
_cell_length_b	12.759400
_cell_length_c	12.759393
_cell_angle_alpha	89.970908
_cell_angle_beta	89.980782
_cell_angle_gamma	90.013136
loop_
_atom_site_label
_atom_site_type_symbol
_atom_site_fract_x
_atom_site_fract_y
_atom_site_fract_z
Zn1	Zn	1.597687	-0.418219	-0.594018
Zn2	Zn	1.597588	-0.593934	-0.418342
Zn3	Zn	1.422928	-0.418269	-0.418354
Zn4	Zn	1.422921	-0.593857	-0.593980
O5	O	1.510281	-0.506070	-0.506173
O6	O	1.743910	-0.441539	-0.570725
O7	O	1.574380	-0.570685	-0.271322
O8	O	1.446155	-0.271242	-0.441678
O9	O	1.743837	-0.570636	-0.441656
O10	O	1.574550	-0.271205	-0.570737
O11	O	1.446059	-0.441625	-0.271331
O12	O	1.276691	-0.441550	-0.441641
O13	O	1.446142	-0.570504	-0.741006
O14	O	1.276686	-0.570553	-0.570672
O15	O	1.574543	-0.441464	-0.741034
O16	O	1.574373	-0.740945	-0.441619
O17	O	1.446046	-0.740888	-0.570660
C18	C	1.238771	-0.506050	-0.506154
C19	C	1.122618	-0.506066	-0.506171
C20	C	1.070797	-0.569849	-0.442219
C21	C	0.950747	-0.569868	-0.442235
C22	C	1.510226	-0.779037	-0.506157
C23	C	1.510298	-0.895814	-0.506185
C24	C	1.577120	-0.950577	-0.573441
C25	C	1.577169	-1.060301	-0.573467
C26	C	1.443571	-1.060489	-0.438971
C27	C	1.443518	-0.950767	-0.438951
C28	C	1.643900	-0.895624	-0.640675
C29	C	1.710728	-0.950387	-0.707936
C30	C	1.710777	-1.060111	-0.707961
C31	C	1.643998	-1.115072	-0.640726
C32	C	1.782851	-0.506091	-0.506193
C33	C	1.899004	-0.506100	-0.506202
C34	C	1.510353	-0.505970	-0.780207
C35	C	1.510383	-0.505928	-0.896984
C36	C	1.510364	-0.232036	-0.506213
C37	C	1.510400	-0.115260	-0.506230
C38	C	1.577238	-0.573053	-1.061570
C39	C	1.577207	-0.573100	-0.951846
C40	C	1.443579	-0.438711	-0.951852
C41	C	1.443606	-0.438670	-1.061574
C42	C	1.644074	-0.640223	-1.116426
C43	C	1.710878	-0.707441	-1.061566
C44	C	1.710846	-0.707488	-0.951842
C45	C	1.644012	-0.640317	-0.896978
C46	C	1.510270	-0.506093	-0.233206
C47	C	1.510441	-0.505840	-0.116430
H48	H	1.078107	-0.451477	-0.560938
Cl49	Cl	1.359515	-0.881917	-0.354395
Cl50	Cl	1.794883	-0.791889	-1.130535
Cl51	Cl	1.359628	-1.129584	-0.354451
H52	H	1.765092	-0.905632	-0.762683
Cl53	Cl	0.967795	-0.421778	-0.590736
H54	H	1.643871	-0.806281	-0.640659
Cl55	Cl	1.794818	-0.791997	-0.882877
Cl56	Cl	1.643960	-0.640393	-0.759037
Cl57	Cl	0.881949	-0.654176	-0.357692
Cl58	Cl	1.644122	-0.640164	-1.254364
H59	H	1.389167	-0.384022	-0.907173
H60	H	1.389217	-0.383936	-1.106242
Cl61	Cl	1.644219	-1.253012	-0.640602
Cl62	Cl	1.139510	-0.654146	-0.357669
Cl63	Cl	1.794775	-1.128953	-0.792527
