data_functionalizedCrystal
_audit_creation_method	'MofGen! by Chris Wilmer'
_symmetry_space_group_name_H-M	'P1'
_symmetry_Int_Tables_number	1
_symmetry_cell_setting	triclinic
loop_
_symmetry_equiv_pos_as_xyz
  x,y,z
_cell_length_a	6.817900
_cell_length_b	7.076105
_cell_length_c	26.350959
_cell_angle_alpha	90.294536
_cell_angle_beta	76.743420
_cell_angle_gamma	62.298168
loop_
_atom_site_label
_atom_site_type_symbol
_atom_site_fract_x
_atom_site_fract_y
_atom_site_fract_z
V1	V	4.195832	-0.660078	-0.071154
O2	O	4.184111	-0.652648	0.004256
O3	O	4.142361	-0.650624	-0.141892
O4	O	4.222917	-0.950214	-0.069693
O5	O	4.102997	-0.350985	-0.068443
V6	V	4.670336	-0.623708	-0.062178
O7	O	4.476875	-0.739858	-0.090845
O8	O	4.839491	-0.543927	-0.042487
O9	O	4.500600	-0.633161	0.008560
O10	O	4.799454	-0.631138	-0.137588
O11	O	4.880568	-0.932801	-0.064889
O12	O	4.420045	-0.333572	-0.063639
C13	C	4.093395	-0.021090	-0.067047
C14	C	4.219878	-0.262694	-0.066293
C15	C	3.983686	-0.638937	-0.159147
C16	C	4.021757	-0.633142	-0.216974
C17	C	4.462832	-0.643216	-0.330910
C18	C	4.498613	-0.637771	-0.385243
C19	C	4.129110	-0.616823	-0.379975
C20	C	4.093329	-0.622268	-0.325641
C21	C	4.260197	-0.635461	-0.301111
C22	C	4.224406	-0.640890	-0.246776
C23	C	3.854913	-0.619958	-0.241509
C24	C	3.890694	-0.614513	-0.295843
C25	C	4.322616	-0.644842	0.025812
C26	C	4.263787	-0.650652	0.083638
C27	C	4.493197	-0.640603	0.197573
C28	C	4.437930	-0.646060	0.251906
C29	C	4.097977	-0.667006	0.246638
C30	C	4.153244	-0.661550	0.192305
C31	C	4.350861	-0.648351	0.167775
C32	C	4.406136	-0.642910	0.113441
C33	C	4.066176	-0.663841	0.108174
C34	C	4.010908	-0.669297	0.162507
C35	C	4.181499	-0.665084	0.334265
C36	C	4.240326	-0.659264	0.276440
V37	V	4.338411	-0.655180	0.430084
O38	O	4.294167	-0.642548	0.506810
O39	O	4.319373	-0.657328	0.356420
O40	O	4.399293	-0.956983	0.428602
O41	O	4.213695	-0.340818	0.434128
V42	V	4.760089	-0.560483	0.453753
O43	O	4.611907	-0.707696	0.417258
O44	O	4.894757	-0.455108	0.479893
O45	O	4.576760	-0.584542	0.520816
O46	O	4.910768	-0.559331	0.380499
O47	O	4.991241	-0.861061	0.453181
O48	O	4.496841	-0.284887	0.448634
C49	C	4.307448	-0.234065	0.440937
C50	C	4.162314	0.005101	0.439584
C51	C	4.409407	-0.616306	0.533012
C52	C	4.331759	-0.624572	0.590223
H53	H	4.598688	-0.653926	-0.310936
O54	O	4.386460	-0.653992	-0.222898
C55	C	4.462971	-0.842900	-0.198468
H56	H	4.325910	-0.896329	-0.190316
H57	H	4.628223	-0.975592	-0.225492
C58	C	4.676808	-0.732209	-0.156304
C59	C	4.508458	-0.797821	-0.146287
H60	H	4.704877	-0.704408	-0.124117
H61	H	4.625269	-0.604942	-0.172764
H62	H	4.814498	-0.842797	-0.178825
H63	H	4.370764	-0.687224	-0.123772
H64	H	4.559975	-0.925069	-0.129821
O65	O	3.906166	-0.679923	0.270551
C66	C	3.887886	-0.683015	0.324898
H67	H	4.064660	-0.742413	0.332082
H68	H	3.767232	-0.513591	0.346520
C69	C	3.574990	-0.762067	0.336528
C70	C	3.792111	-0.835038	0.345351
H71	H	3.515902	-0.855833	0.349145
H72	H	3.587299	-0.759976	0.299913
H73	H	3.474472	-0.620880	0.354546
H74	H	3.892631	-0.976210	0.327327
H75	H	3.779817	-0.837156	0.381963
O76	O	3.927703	-0.671483	0.079301
C77	C	3.741409	-0.684250	0.112608
H78	H	3.790080	-0.752719	0.149615
H79	H	3.586356	-0.516584	0.123903
C80	C	3.621842	-0.748099	0.038291
C81	C	3.681627	-0.832211	0.083742
H82	H	3.584955	-0.839359	0.020485
H83	H	3.747345	-0.739490	0.015852
H84	H	3.492637	-0.608379	0.047710
H85	H	3.810845	-0.971916	0.074322
H86	H	3.556143	-0.840847	0.106179
H87	H	4.663617	-0.644089	-0.409503
H88	H	3.754846	-0.603779	-0.315823
O89	O	3.657887	-0.612315	-0.212637
C90	C	3.518317	-0.599559	-0.245944
H91	H	3.566514	-0.531093	-0.282951
H92	H	3.545078	-0.767227	-0.257237
C93	C	3.205405	-0.535708	-0.171627
C94	C	3.264589	-0.451600	-0.217078
H95	H	3.048892	-0.444449	-0.153822
H96	H	3.299437	-0.544310	-0.149188
H97	H	3.227723	-0.675430	-0.181045
H98	H	3.242298	-0.311893	-0.207660
H99	H	3.170547	-0.442971	-0.239516
H100	H	3.993274	-0.606101	-0.399958
H101	H	4.567047	-0.632170	0.093469
H102	H	4.654114	-0.629876	0.177600
H103	H	4.553833	-0.639742	0.276166
H104	H	3.850004	-0.680035	0.182487
