data_functionalizedCrystal
_audit_creation_method	'MofGen! by Chris Wilmer'
_symmetry_space_group_name_H-M	'P1'
_symmetry_Int_Tables_number	1
_symmetry_cell_setting	triclinic
loop_
_symmetry_equiv_pos_as_xyz
  x,y,z
_cell_length_a	14.971486
_cell_length_b	10.654551
_cell_length_c	13.448316
_cell_angle_alpha	89.995186
_cell_angle_beta	89.998199
_cell_angle_gamma	84.049779
loop_
_atom_site_label
_atom_site_type_symbol
_atom_site_fract_x
_atom_site_fract_y
_atom_site_fract_z
O1	O	1.187838	0.163659	-0.082573
O2	O	0.927545	0.183258	-0.082600
O3	O	1.063676	-0.009345	-0.082584
O4	O	1.051708	0.356262	-0.082590
O5	O	1.063658	-0.009357	0.082800
O6	O	0.927528	0.183246	0.082784
O7	O	1.187821	0.163647	0.082810
Cu8	Cu	1.057673	0.173445	0.097898
Cu9	Cu	1.057693	0.173459	-0.097688
O10	O	1.051690	0.356250	0.082794
C11	C	0.894207	0.182375	0.000088
C12	C	0.794896	0.179749	0.000078
C13	C	0.738286	0.292897	0.000078
C14	C	0.644973	0.290422	0.000093
C15	C	0.608271	0.174796	0.000101
C16	C	0.664888	0.061639	0.000104
C17	C	0.758199	0.064116	0.000096
C18	C	0.470397	0.056485	0.000118
C19	C	0.377080	0.054007	0.000124
C20	C	0.357172	0.282791	0.000114
C21	C	0.450483	0.285268	0.000106
C22	C	0.507093	0.172110	0.000108
C23	C	1.062788	-0.056139	0.000106
C24	C	1.060158	-0.195554	0.000101
C25	C	1.058934	-0.261039	-0.090050
C26	C	1.056455	-0.392032	-0.090052
C27	C	1.056430	-0.392047	0.090259
C28	C	1.058902	-0.261054	0.090259
C29	C	1.000779	-0.561499	-0.198368
C30	C	0.999569	-0.626991	-0.288525
C31	C	1.052703	-0.594015	-0.368115
C32	C	1.107067	-0.495553	-0.357552
C33	C	1.108285	-0.430070	-0.267394
C34	C	1.055130	-0.463040	-0.187807
C35	C	1.114586	-0.091586	0.198569
C36	C	1.115810	-0.026102	0.288728
C37	C	1.062682	-0.059077	0.368327
C38	C	1.008331	-0.157545	0.357774
C39	C	1.007107	-0.223029	0.267615
C40	C	1.060233	-0.190045	0.188016
C41	C	1.221159	0.164530	0.000120
C42	C	1.320471	0.167156	0.000123
C43	C	1.052578	0.403044	0.000102
C44	C	1.055208	0.542459	0.000100
N45	N	1.057665	0.173435	0.235462
N46	N	1.057708	0.173460	-0.235252
C47	C	1.117963	0.088185	0.287510
C48	C	1.117968	0.088184	0.391613
C49	C	1.057680	0.173440	0.443667
C50	C	0.997376	0.258693	0.391612
C51	C	0.997366	0.258687	0.287511
C52	C	0.997400	0.258702	0.608592
C53	C	0.997410	0.258709	0.712701
C54	C	1.118002	0.088199	0.712694
C55	C	1.117993	0.088193	0.608593
C56	C	1.057690	0.173448	0.556545
H57	H	0.311075	0.374928	0.000117
Br58	Br	0.835028	-0.089449	0.000105
Br59	Br	0.928644	-0.606238	-0.090360
H60	H	1.063690	-0.005756	0.441742
Br61	Br	0.933348	-0.356674	0.253294
Br62	Br	0.915524	0.374380	0.216875
Br63	Br	1.199845	-0.027497	0.783333
H64	H	0.347201	-0.040145	0.000132
Br65	Br	1.182059	-0.296454	-0.253052
Br66	Br	1.054723	-0.480947	0.212610
Br67	Br	1.060636	-0.172149	-0.212406
Br68	Br	0.615080	-0.095284	0.000125
Br69	Br	0.788086	0.449826	0.000057
Br70	Br	0.915586	0.374418	0.783338
H71	H	1.167067	0.018767	0.433990
Br72	Br	0.915554	0.374402	0.537959
H73	H	0.965050	-0.184370	0.422580
Br74	Br	0.500292	0.442190	0.000080
H75	H	1.150339	-0.468722	-0.422362
H76	H	1.051716	-0.647347	-0.441522
H77	H	0.948283	0.328105	0.434000
H78	H	1.157842	-0.064718	0.133752
Br79	Br	1.199795	-0.027516	0.216876
Br80	Br	0.568149	0.443988	0.000089
H81	H	1.167089	0.018778	0.566211
Br82	Br	0.547225	-0.097088	0.000125
Br83	Br	0.925791	-0.760612	-0.302860
Br84	Br	1.189587	0.107520	0.303057
