data_functionalizedCrystal
_audit_creation_method	'MofGen! by Chris Wilmer'
_symmetry_space_group_name_H-M	'P1'
_symmetry_Int_Tables_number	1
_symmetry_cell_setting	triclinic
loop_
_symmetry_equiv_pos_as_xyz
  x,y,z
_cell_length_a	27.732048
_cell_length_b	23.532407
_cell_length_c	22.010155
_cell_angle_alpha	90.000423
_cell_angle_beta	89.989126
_cell_angle_gamma	97.254334
loop_
_atom_site_label
_atom_site_type_symbol
_atom_site_fract_x
_atom_site_fract_y
_atom_site_fract_z
O1	O	0.641035	-0.067758	-0.050565
O2	O	0.500257	-0.078062	-0.050560
O3	O	0.574891	0.010031	-0.050552
O4	O	0.566401	-0.155851	-0.050574
O5	O	0.574878	0.010018	0.050499
O6	O	0.500244	-0.078075	0.050490
O7	O	0.641021	-0.067771	0.050485
Cu8	Cu	0.570631	-0.072924	0.059714
Cu9	Cu	0.570647	-0.072909	-0.059789
O10	O	0.566387	-0.155864	0.050477
C11	C	0.482243	-0.077852	-0.000034
C12	C	0.428587	-0.077201	-0.000031
C13	C	0.659035	-0.067981	-0.000042
C14	C	0.712691	-0.068632	-0.000049
C15	C	1.051433	-0.020675	-0.000022
C16	C	1.253096	-0.023092	-0.000020
O17	O	1.284284	0.020761	0.000012
N18	N	1.272300	-0.075327	-0.000029
C19	C	1.241085	-0.126962	-0.000034
O20	O	1.262046	-0.171447	-0.000035
C21	C	1.039422	-0.124545	-0.000031
C22	C	1.020221	-0.072306	-0.000029
C23	C	1.032231	0.031559	-0.000019
C24	C	0.981818	0.032163	-0.000022
C25	C	0.950607	-0.019468	-0.000029
C26	C	0.969809	-0.071703	-0.000032
C27	C	1.008208	-0.176179	-0.000032
C28	C	0.957790	-0.175570	-0.000030
C29	C	0.938589	-0.123332	-0.000027
C30	C	0.888184	-0.122730	-0.000043
N31	N	0.868980	-0.070495	-0.000034
C32	C	0.900192	-0.018864	-0.000028
C33	C	1.346961	-0.128227	-0.000037
C34	C	1.397376	-0.128832	-0.000038
C35	C	1.409384	-0.024961	-0.000023
C36	C	1.358968	-0.024358	-0.000026
C37	C	1.327757	-0.075992	-0.000028
C38	C	0.794320	-0.017600	-0.000036
C39	C	0.743903	-0.017001	-0.000042
C40	C	0.731899	-0.120871	-0.000054
C41	C	0.782313	-0.121471	-0.000051
C42	C	0.813523	-0.069831	-0.000040
O43	O	0.856968	-0.166560	-0.000068
O44	O	0.879221	0.025614	-0.000013
C45	C	1.101845	-0.021279	-0.000018
C46	C	1.121047	-0.073513	-0.000021
C47	C	1.089836	-0.125144	-0.000028
C48	C	1.171462	-0.074118	-0.000023
C49	C	1.202674	-0.022487	-0.000016
C50	C	1.183470	0.029748	-0.000007
C51	C	1.133057	0.030352	-0.000011
C52	C	1.109040	-0.177380	-0.000037
C53	C	1.159453	-0.177979	-0.000034
C54	C	1.190665	-0.126348	-0.000027
C55	C	0.574668	0.031240	-0.000025
C56	C	0.574018	0.094455	-0.000020
C57	C	0.566610	-0.177073	-0.000051
C58	C	0.567260	-0.240289	-0.000060
N59	N	0.570624	-0.072935	0.143767
C60	C	0.614108	0.493644	-0.000055
C61	C	0.613504	0.553043	-0.000060
O62	O	0.650668	0.589867	-0.000084
N63	N	0.569134	0.575574	-0.000058
C64	C	0.525365	0.538703	-0.000057
O65	O	0.487570	0.563322	-0.000056
C66	C	0.525970	0.479306	-0.000057
C67	C	0.570343	0.456778	-0.000053
C68	C	0.658477	0.471116	-0.000052
C69	C	0.659081	0.411721	-0.000046
C70	C	0.615315	0.374854	-0.000044
C71	C	0.570946	0.397383	-0.000047
C72	C	0.482201	0.442436	-0.000061
C73	C	0.482810	0.383035	-0.000061
C74	C	0.527182	0.360507	-0.000057
C75	C	0.527784	0.301122	-0.000039
N76	N	0.572154	0.278590	-0.000041
C77	C	0.615920	0.315457	-0.000044
C78	C	0.524100	0.663443	-0.000059
C79	C	0.523495	0.722840	-0.000055
C80	C	0.611634	0.737175	-0.000058
C81	C	0.612238	0.677778	-0.000058
C82	C	0.568469	0.640912	-0.000061
C83	C	0.617184	0.190723	-0.000031
C84	C	0.617784	0.131322	-0.000023
C85	C	0.529645	0.116991	-0.000022
C86	C	0.529045	0.176387	-0.000027
C87	C	0.572818	0.213252	-0.000034
O88	O	0.490640	0.264263	-0.000018
O89	O	0.653709	0.290829	-0.000052
N90	N	0.570659	-0.072894	-0.143842
C91	C	0.603697	-0.033907	0.563550
C92	C	0.603699	-0.033903	0.627157
O93	O	0.631800	-0.000727	0.660052
N94	N	0.570647	-0.072897	0.658974
C95	C	0.537587	-0.111893	0.627179
O96	O	0.509474	-0.145060	0.660083
C97	C	0.537583	-0.111894	0.563573
C98	C	0.570641	-0.072901	0.531760
C99	C	0.636752	0.005083	0.531737
C100	C	0.636750	0.005078	0.468133
C101	C	0.603694	-0.033916	0.436343
C102	C	0.570639	-0.072906	0.468157
C103	C	0.504521	-0.150888	0.531780
C104	C	0.504520	-0.150885	0.468169
C105	C	0.537577	-0.111892	0.436356
C106	C	0.537581	-0.111906	0.372763
N107	N	0.570633	-0.072912	0.340947
C108	C	0.603689	-0.033917	0.372737
C109	C	0.537598	-0.111888	0.760757
C110	C	0.537604	-0.111891	0.824363
C111	C	0.603716	-0.033899	0.824336
C112	C	0.603712	-0.033900	0.760730
C113	C	0.570650	-0.072894	0.728941
C114	C	0.603683	-0.033930	0.239166
C115	C	0.603680	-0.033940	0.175557
C116	C	0.537567	-0.111929	0.175589
C117	C	0.537572	-0.111922	0.239192
C118	C	0.570632	-0.072918	0.270979
O119	O	0.509493	-0.145063	0.339829
O120	O	0.631794	-0.000751	0.339826
H121	H	0.728272	0.025540	-0.000042
H122	H	0.663670	0.036840	0.557614
O123	O	1.439659	0.025231	0.000067
C124	C	1.465372	0.113790	0.052463
C125	C	1.431049	0.056980	0.052423
H126	H	1.458430	0.139470	0.094794
H127	H	1.458428	0.139573	0.010209
H128	H	1.504698	0.104365	0.052432
H129	H	1.391711	0.066353	0.052475
H130	H	1.438035	0.031214	0.094672
H131	H	1.175082	-0.220521	-0.000040
H132	H	0.510654	-0.143680	0.149695
H133	H	0.706478	-0.162908	-0.000063
H134	H	0.819726	0.024450	-0.000027
O135	O	0.439055	0.464215	-0.000094
C136	C	0.351698	0.443701	-0.000068
C137	C	0.400531	0.418962	-0.000043
H138	H	0.320539	0.407127	-0.000014
H139	H	0.349183	0.471127	-0.042370
H140	H	0.349224	0.471172	0.042209
H141	H	0.403038	0.391466	-0.042291
H142	H	0.403025	0.391569	0.042287
O143	O	0.472472	-0.188817	0.562702
C144	C	0.461787	-0.266662	0.634541
C145	C	0.498139	-0.223747	0.599550
H146	H	0.482524	-0.294905	0.664352
H147	H	0.438167	-0.294568	0.600913
H148	H	0.437753	-0.242252	0.664297
H149	H	0.522205	-0.248110	0.569794
H150	H	0.521725	-0.195842	0.633211
H151	H	0.477595	-0.182638	0.442290
H152	H	0.695214	0.393385	-0.000045
H153	H	0.694118	0.501127	-0.000056
O154	O	0.655384	0.655991	-0.000087
C155	C	0.742741	0.676496	-0.000056
C156	C	0.693911	0.701240	-0.000035
H157	H	0.773902	0.713067	-0.000001
H158	H	0.745268	0.649070	-0.042358
H159	H	0.745199	0.649024	0.042221
H160	H	0.691420	0.728738	-0.042284
H161	H	0.691404	0.728633	0.042295
H162	H	0.494012	0.086964	-0.000018
O163	O	0.440304	0.347200	-0.000169
C164	C	0.389853	0.271793	-0.052498
C165	C	0.438001	0.312350	-0.052460
H166	H	0.387980	0.243599	-0.094764
H167	H	0.358019	0.298073	-0.052540
H168	H	0.387930	0.243655	-0.010187
H169	H	0.439972	0.340498	-0.094764
H170	H	0.469812	0.286036	-0.052386
O171	O	1.213725	0.079956	-0.000028
C172	C	1.220331	0.183045	0.000027
C173	C	1.186010	0.126232	0.000031
H174	H	1.197937	0.220475	0.000087
H175	H	1.244234	0.185401	-0.042271
H176	H	1.244235	0.185315	0.042308
H177	H	1.162075	0.123924	-0.042221
H178	H	1.162140	0.123900	0.042357
O179	O	0.505528	-0.149858	0.270124
C180	C	0.494852	-0.227696	0.341972
C181	C	0.531199	-0.184778	0.306977
H182	H	0.515592	-0.255932	0.371785
H183	H	0.471234	-0.255608	0.308346
H184	H	0.470814	-0.203288	0.371724
H185	H	0.555269	-0.209140	0.277224
H186	H	0.554783	-0.156867	0.340635
O187	O	0.480348	0.744625	-0.000079
C188	C	0.392992	0.724121	-0.000039
C189	C	0.441822	0.699376	-0.000021
H190	H	0.361830	0.687549	0.000021
H191	H	0.390475	0.751546	-0.042340
H192	H	0.390523	0.751593	0.042238
H193	H	0.444323	0.671879	-0.042269
H194	H	0.444318	0.671983	0.042309
H195	H	0.630630	-0.002148	0.734831
O196	O	0.481592	0.627610	-0.000160
C197	C	0.431131	0.552209	-0.052485
C198	C	0.479282	0.592762	-0.052452
H199	H	0.429252	0.524016	-0.094752
H200	H	0.399300	0.578493	-0.052522
H201	H	0.429209	0.524070	-0.010175
H202	H	0.481251	0.620910	-0.094755
H203	H	0.511091	0.566444	-0.052384
H204	H	1.083632	-0.219425	-0.000042
O205	O	0.660932	0.109534	-0.000048
C206	C	0.748289	0.130033	-0.000017
C207	C	0.699461	0.154781	-0.000001
H208	H	0.779453	0.166603	0.000034
H209	H	0.750816	0.102602	-0.042314
H210	H	0.750746	0.102566	0.042264
H211	H	0.696972	0.182273	-0.042254
H212	H	0.696956	0.182180	0.042324
O213	O	0.963250	0.082958	0.000015
C214	C	0.980500	0.185918	0.000004
C215	C	1.001588	0.128430	-0.000028
H216	H	1.011485	0.222697	-0.000044
H217	H	0.957210	0.188832	0.042306
H218	H	0.957187	0.188781	-0.042273
H219	H	1.024922	0.125528	0.042220
H220	H	1.024850	0.125540	-0.042358
O221	O	0.485954	0.198300	0.000082
C222	C	0.434120	0.257070	0.052401
C223	C	0.482933	0.232288	0.052369
H224	H	0.431666	0.284565	0.094664
H225	H	0.402926	0.220536	0.052446
H226	H	0.431645	0.284489	0.010087
H227	H	0.485455	0.204876	0.094675
H228	H	0.514104	0.268850	0.052292
H229	H	0.630601	-0.002188	0.149656
H230	H	0.630604	-0.002169	0.265039
H231	H	0.663667	0.036831	0.442235
O232	O	0.659673	0.226585	0.000047
C233	C	0.710157	0.301936	0.052415
C234	C	0.662017	0.261365	0.052391
H235	H	0.712072	0.330058	0.094738
H236	H	0.712097	0.330142	0.010153
H237	H	0.741961	0.275611	0.052390
H238	H	0.630186	0.287645	0.052438
H239	H	0.660119	0.233158	0.094650
O240	O	1.340375	0.026422	-0.000100
C241	C	1.335206	0.115378	-0.052459
C242	C	1.356300	0.057893	-0.052444
H243	H	1.348064	0.140833	-0.094780
H244	H	1.348091	0.140902	-0.010196
H245	H	1.293812	0.106933	-0.052427
H246	H	1.397694	0.066286	-0.052497
H247	H	1.343376	0.032387	-0.094703
H248	H	0.647270	0.767203	-0.000063
H249	H	1.057639	0.073606	-0.000011
H250	H	0.630632	-0.002147	0.850231
H251	H	0.510690	-0.143648	0.850260
O252	O	0.505466	-0.149831	0.729974
C253	C	0.439877	-0.227168	0.736727
C254	C	0.476247	-0.184239	0.771659
H255	H	0.416237	-0.254990	0.770414
H256	H	0.460580	-0.255493	0.706959
H257	H	0.415866	-0.202769	0.706938
H258	H	0.500267	-0.208591	0.801481
H259	H	0.455514	-0.155915	0.801388
H260	H	1.413005	-0.171370	-0.000049
H261	H	1.321553	-0.170277	-0.000039
O262	O	1.026772	-0.226975	-0.000003
C263	C	1.009519	-0.329935	-0.000035
C264	C	0.988433	-0.272445	-0.000057
H265	H	0.978533	-0.366712	-0.000092
H266	H	1.032794	-0.332858	0.042266
H267	H	1.032846	-0.332790	-0.042313
H268	H	0.965084	-0.269551	0.042192
H269	H	0.965185	-0.269546	-0.042386
O270	O	0.927423	-0.225693	-0.000115
C271	C	0.863567	-0.285308	-0.052494
C272	C	0.897920	-0.228520	-0.052464
H273	H	0.839712	-0.287617	-0.094820
H274	H	0.839621	-0.287636	-0.010236
H275	H	0.885965	-0.322734	-0.052467
H276	H	0.875561	-0.191061	-0.052513
H277	H	0.921867	-0.226241	-0.094719
H278	H	1.117428	0.072890	-0.000009
O279	O	0.800994	-0.172198	-0.000160
C280	C	0.850988	-0.233143	-0.052476
C281	C	0.829858	-0.175681	-0.052446
H282	H	0.874337	-0.235973	-0.094737
H283	H	0.820039	-0.269967	-0.052521
H284	H	0.874257	-0.236013	-0.010161
H285	H	0.806595	-0.172756	-0.094754
H286	H	0.860829	-0.138885	-0.052369
