data_functionalizedCrystal
_audit_creation_method	'MofGen! by Chris Wilmer'
_symmetry_space_group_name_H-M	'P1'
_symmetry_Int_Tables_number	1
_symmetry_cell_setting	triclinic
loop_
_symmetry_equiv_pos_as_xyz
  x,y,z
_cell_length_a	15.995350
_cell_length_b	15.072220
_cell_length_c	11.792241
_cell_angle_alpha	89.998778
_cell_angle_beta	96.157105
_cell_angle_gamma	90.008851
loop_
_atom_site_label
_atom_site_type_symbol
_atom_site_fract_x
_atom_site_fract_y
_atom_site_fract_z
O1	O	1.111660	0.073708	-0.146288
O2	O	0.867967	0.073726	-0.164354
O3	O	0.995727	0.073710	0.009899
O4	O	0.983900	0.073723	-0.320541
O5	O	0.995695	-0.073855	0.009889
O6	O	0.867935	-0.073839	-0.164363
O7	O	1.111628	-0.073857	-0.146298
Zn8	Zn	0.989777	-0.097277	-0.155332
Zn9	Zn	0.989818	0.097146	-0.155319
O10	O	0.983868	-0.073842	-0.320550
C11	C	0.836753	-0.000054	-0.163612
C12	C	0.743792	-0.000047	-0.161372
C13	C	0.406008	-0.000066	-0.153331
C14	C	0.452879	-0.000400	-0.029232
C15	C	0.549579	-0.000062	-0.031471
C16	C	0.573587	-0.000057	-0.157320
C17	C	0.532796	0.084208	-0.218524
C18	C	0.436146	0.084273	-0.215407
C19	C	0.435782	-0.083536	-0.217982
C20	C	0.532727	-0.084644	-0.217953
C21	C	0.668294	-0.000050	-0.159581
C22	C	0.311300	-0.000068	-0.151074
N23	N	0.989754	-0.229966	-0.155340
C24	C	0.989817	-0.589168	-0.155315
C25	C	0.921222	-0.551552	-0.248241
C26	C	0.921382	-0.448727	-0.248581
C27	C	0.989785	-0.410964	-0.155327
C28	C	1.077267	-0.448260	-0.181193
C29	C	1.076883	-0.551118	-0.181853
C30	C	0.971707	-0.551271	-0.036248
C31	C	0.969706	-0.448408	-0.037042
C32	C	0.989772	-0.310250	-0.155332
C33	C	0.989835	-0.689881	-0.155312
C34	C	1.142842	-0.000075	-0.147040
C35	C	1.235803	-0.000076	-0.149279
C36	C	0.994968	-0.000072	0.052179
C37	C	0.992745	-0.000071	0.178174
N38	N	0.989847	0.229835	-0.155302
C39	C	0.984627	-0.000057	-0.362830
C40	C	0.986850	-0.000053	-0.488825
C41	C	0.988655	-0.000056	0.408852
C42	C	0.990927	-0.000064	0.280486
H43	H	0.404312	0.088100	-0.306518
H44	H	0.577777	-0.060467	0.016639
H45	H	1.016380	-0.422705	0.035350
H46	H	0.547341	0.087345	-0.310982
H47	H	0.434118	-0.060831	0.020370
H48	H	0.433074	0.059693	0.020149
H49	H	0.856372	-0.423512	-0.233170
O50	O	0.843479	-0.581204	-0.230041
C51	C	0.849935	-0.636382	-0.132945
H52	H	0.916411	-0.664314	-0.117523
H53	H	0.835572	-0.596159	-0.055487
C54	C	0.704947	-0.678953	-0.171289
C55	C	0.786591	-0.713265	-0.152353
H56	H	0.665871	-0.726376	-0.183257
H57	H	0.700595	-0.641776	-0.236702
H58	H	0.692989	-0.645434	-0.106737
H59	H	0.798551	-0.746774	-0.216910
H60	H	0.790943	-0.750450	-0.086951
H61	H	0.560990	0.146918	-0.176006
O62	O	0.414162	0.159500	-0.162260
C63	C	0.438375	0.234196	-0.222890
H64	H	0.491406	0.214976	-0.275396
H65	H	0.382303	0.259150	-0.282140
C66	C	0.403798	0.331652	-0.073664
C67	C	0.468937	0.308047	-0.138146
H68	H	0.422646	0.377209	-0.021392
H69	H	0.387482	0.281328	-0.032818
H70	H	0.357077	0.352441	-0.123051
H71	H	0.515652	0.287249	-0.088761
H72	H	0.485261	0.358370	-0.178982
O73	O	0.564931	-0.159108	-0.164749
C74	C	0.527821	-0.234621	-0.219916
H75	H	0.464570	-0.215709	-0.267646
H76	H	0.570878	-0.261477	-0.282903
C77	C	0.592250	-0.329606	-0.071990
C78	C	0.514560	-0.306379	-0.130606
H79	H	0.584073	-0.373872	-0.016902
H80	H	0.617254	-0.278732	-0.034825
H81	H	0.628123	-0.351981	-0.124491
H82	H	0.478693	-0.283995	-0.078108
H83	H	0.489550	-0.357252	-0.167761
O84	O	1.031415	-0.580403	0.046125
C85	C	1.089324	-0.634731	-0.003528
H86	H	1.058397	-0.662827	-0.087505
H87	H	1.146651	-0.593746	-0.020222
C88	C	1.154906	-0.676978	0.181366
C89	C	1.116918	-0.711492	0.078229
H90	H	1.171931	-0.724326	0.231798
H91	H	1.115894	-0.640373	0.214819
H92	H	1.202673	-0.642824	0.167439
H93	H	1.069146	-0.745635	0.092156
H94	H	1.155923	-0.748104	0.044780
H95	H	1.093509	-0.422489	-0.267038
O96	O	0.582657	0.072159	0.026152
C97	C	0.624585	0.125638	-0.047921
H98	H	0.643234	0.083498	-0.121440
H99	H	0.581038	0.181327	-0.083067
C100	C	0.681112	0.217513	0.108252
C101	C	0.704024	0.165753	0.017960
H102	H	0.730111	0.242261	0.148889
H103	H	0.652862	0.181485	0.158156
H104	H	0.644821	0.263913	0.078949
H105	H	0.740304	0.119348	0.047263
H106	H	0.732282	0.201774	-0.031939
O107	O	0.934918	-0.582517	-0.352983
C108	C	0.930772	-0.675960	-0.353334
H109	H	0.944085	-0.701705	-0.262288
H110	H	0.865325	-0.698032	-0.390447
C111	C	0.980316	-0.681819	-0.538395
C112	C	0.996674	-0.713440	-0.426572
H113	H	1.020964	-0.704940	-0.583575
H114	H	0.983106	-0.618864	-0.538161
H115	H	0.925775	-0.700215	-0.569307
H116	H	1.051209	-0.695036	-0.395657
H117	H	0.993895	-0.776393	-0.426802
H118	H	0.415049	-0.147408	-0.177415
H119	H	0.404436	-0.084103	-0.309480
O120	O	0.551592	-0.090559	-0.327434
C121	C	0.602429	-0.018026	-0.351702
H122	H	0.592482	0.038883	-0.290905
H123	H	0.671317	-0.038922	-0.340479
C124	C	0.590558	-0.057338	-0.550169
C125	C	0.578335	0.012561	-0.475503
H126	H	0.575699	-0.038472	-0.626536
H127	H	0.556310	-0.106207	-0.533819
H128	H	0.647965	-0.074745	-0.540803
H129	H	0.520927	0.029960	-0.484859
H130	H	0.612573	0.061434	-0.491857
O131	O	0.935145	-0.419460	-0.354074
C132	C	0.870827	-0.450985	-0.435191
H133	H	0.841237	-0.512795	-0.400601
H134	H	0.820756	-0.397487	-0.452953
C135	C	0.944520	-0.398275	-0.589013
C136	C	0.908182	-0.474196	-0.546533
H137	H	0.967561	-0.412589	-0.657696
H138	H	0.987851	-0.377033	-0.534364
H139	H	0.902788	-0.353700	-0.603806
H140	H	0.949916	-0.518765	-0.531728
H141	H	0.864859	-0.495446	-0.601183
O142	O	1.095938	-0.579622	-0.285438
C143	C	1.176169	-0.547997	-0.304685
H144	H	1.191928	-0.486604	-0.250077
H145	H	1.225114	-0.601704	-0.280952
C146	C	1.157051	-0.599236	-0.498605
C147	C	1.176403	-0.523828	-0.431542
H148	H	1.157198	-0.584331	-0.576856
H149	H	1.102999	-0.620546	-0.485637
H150	H	1.197841	-0.643985	-0.478814
H151	H	1.135608	-0.479084	-0.451323
H152	H	1.230448	-0.502510	-0.444516
O153	O	0.892991	-0.419289	-0.013424
C154	C	0.902032	-0.369786	0.088607
H155	H	0.962699	-0.389970	0.141992
H156	H	0.904455	-0.296055	0.067630
C157	C	0.752171	-0.363255	0.090715
C158	C	0.826680	-0.388051	0.156288
H159	H	0.705689	-0.374517	0.132463
H160	H	0.746078	-0.396603	0.021972
H161	H	0.754201	-0.301813	0.073239
H162	H	0.824653	-0.449493	0.173751
H163	H	0.832770	-0.354714	0.225036
H164	H	1.129549	-0.575999	-0.116839
O165	O	1.139552	-0.418965	-0.102539
C166	C	1.104852	-0.364206	-0.022700
H167	H	1.042326	-0.336105	-0.062528
H168	H	1.094152	-0.404831	0.056008
C169	C	1.242658	-0.321984	0.060908
C170	C	1.165866	-0.287464	0.011987
H171	H	1.280295	-0.274648	0.082310
H172	H	1.266037	-0.358879	0.007123
H173	H	1.233730	-0.355838	0.126493
H174	H	1.174794	-0.253620	-0.053603
H175	H	1.142490	-0.250562	0.065763
H176	H	0.909271	-0.577258	-0.011376
