data_functionalizedCrystal
_audit_creation_method	'MofGen! by Chris Wilmer'
_symmetry_space_group_name_H-M	'P1'
_symmetry_Int_Tables_number	1
_symmetry_cell_setting	triclinic
loop_
_symmetry_equiv_pos_as_xyz
  x,y,z
_cell_length_a	17.699097
_cell_length_b	9.130313
_cell_length_c	17.699083
_cell_angle_alpha	90.002131
_cell_angle_beta	83.285722
_cell_angle_gamma	90.003824
loop_
_atom_site_label
_atom_site_type_symbol
_atom_site_fract_x
_atom_site_fract_y
_atom_site_fract_z
O1	O	1.004065	0.121924	0.095756
O2	O	0.783688	0.121900	0.108198
O3	O	0.900103	0.121900	-0.008212
O4	O	0.887650	0.121924	0.212166
O5	O	0.900101	-0.121699	-0.008209
O6	O	0.783687	-0.121698	0.108201
O7	O	1.004064	-0.121675	0.095759
Cu8	Cu	0.893875	-0.143929	0.101980
Cu9	Cu	0.893877	0.144155	0.101976
O10	O	0.887649	-0.121674	0.212169
C11	C	0.755491	0.000098	0.107752
C12	C	0.671473	0.000089	0.106409
N13	N	0.893879	-0.346552	0.101982
C14	C	0.155756	0.132933	0.098178
C15	C	0.234700	0.132925	0.099434
C16	C	0.274165	0.000134	0.100065
C17	C	0.234683	-0.132659	0.099432
C18	C	0.155741	-0.132651	0.098171
C19	C	0.553047	-0.132697	0.104520
C20	C	0.631994	-0.132696	0.105784
C21	C	0.632006	0.132879	0.105783
C22	C	0.553064	0.132887	0.104522
C23	C	0.513589	0.000095	0.103885
C24	C	0.427989	0.000105	0.102521
C25	C	0.359763	0.000123	0.101434
C26	C	0.945441	-0.423204	0.050453
C27	C	0.945439	-0.576541	0.050444
C28	C	0.842312	-0.576560	0.153500
C29	C	0.842311	-0.423226	0.153504
C30	C	0.997010	-0.346530	-0.001069
C31	C	1.048576	-0.423183	-0.052602
C32	C	1.048574	-0.576519	-0.052611
C33	C	0.997006	-0.653204	-0.001087
C34	C	1.032261	0.000131	0.096205
C35	C	1.116279	0.000150	0.097547
C36	C	0.899656	0.000100	-0.036408
C37	C	0.898317	0.000099	-0.120426
N38	N	0.893878	0.346777	0.101968
C39	C	0.966650	0.000105	-0.169044
C40	C	0.965388	0.000117	-0.247987
C41	C	0.895792	0.000115	-0.278311
C42	C	0.827454	0.000114	-0.229687
C43	C	0.828717	0.000112	-0.150745
C44	C	0.822359	0.000125	-0.548050
C45	C	0.821101	0.000123	-0.626998
C46	C	0.959030	0.000131	-0.645292
C47	C	0.960293	0.000129	-0.566350
C48	C	0.891955	0.000136	-0.517733
C49	C	0.893325	0.000125	-0.432134
C50	C	0.894422	0.000115	-0.363909
C51	C	0.888096	0.000128	0.240364
C52	C	0.889435	0.000139	0.324382
H53	H	0.123628	0.241067	0.097669
H54	H	0.770787	0.000121	-0.254383
Br55	Br	1.118549	-0.319118	-0.122532
Br56	Br	1.118546	-0.680548	-0.122553
Br57	Br	0.288274	0.313139	0.100283
Br58	Br	1.061107	0.000087	-0.127898
H59	H	0.997004	-0.778061	-0.001104
H60	H	0.766714	0.000130	-0.508475
H61	H	1.021032	0.000119	-0.287569
Br62	Br	0.685583	0.313101	0.106645
H63	H	1.016965	0.000124	-0.541665
H64	H	0.520918	-0.240825	0.103990
H65	H	1.014674	0.000133	-0.684886
H66	H	0.266822	-0.240781	0.099941
H67	H	0.764424	0.000118	-0.651685
H68	H	0.800327	-0.639006	0.195449
H69	H	0.773073	0.000108	-0.111161
Br70	Br	0.772328	-0.319193	0.223434
H71	H	0.520935	0.241020	0.104012
H72	H	0.123599	-0.240776	0.097665
Br73	Br	0.685554	-0.312926	0.106642
H74	H	0.997018	-0.221676	-0.001065
