data_functionalizedCrystal
_audit_creation_method	'MofGen! by Chris Wilmer'
_symmetry_space_group_name_H-M	'P1'
_symmetry_Int_Tables_number	1
_symmetry_cell_setting	triclinic
loop_
_symmetry_equiv_pos_as_xyz
  x,y,z
_cell_length_a	16.109301
_cell_length_b	11.026623
_cell_length_c	14.586319
_cell_angle_alpha	90.001738
_cell_angle_beta	90.003489
_cell_angle_gamma	83.975856
loop_
_atom_site_label
_atom_site_type_symbol
_atom_site_fract_x
_atom_site_fract_y
_atom_site_fract_z
O1	O	1.126506	-0.155966	0.076188
O2	O	1.626506	0.344034	0.576188
O3	O	0.887353	-0.175376	0.076200
O4	O	1.387353	0.324624	0.576200
O5	O	0.987108	0.010974	0.076190
O6	O	1.487108	0.510974	0.576190
O7	O	1.026751	-0.342316	0.076198
O8	O	1.526751	0.157684	0.576198
O9	O	0.987094	0.010963	-0.076291
O10	O	1.487094	0.510963	0.423709
O11	O	0.887339	-0.175387	-0.076281
O12	O	1.387339	0.324613	0.423719
O13	O	1.126492	-0.155977	-0.076293
O14	O	1.626492	0.344023	0.423707
Cu15	Cu	1.006915	-0.165683	-0.090210
Cu16	Cu	1.506915	0.334317	0.409790
Cu17	Cu	1.006931	-0.165670	0.090117
Cu18	Cu	1.506931	0.334330	0.590117
O19	O	1.026737	-0.342327	-0.076283
O20	O	1.526737	0.157673	0.423717
C21	C	0.856253	-0.174595	-0.000039
C22	C	1.356253	0.325405	0.499961
C23	C	0.763605	-0.172238	-0.000034
C24	C	1.263605	0.327762	0.499966
C25	C	0.470022	-0.275108	-0.000048
C26	C	0.970022	0.224892	0.499952
C27	C	0.557076	-0.277334	-0.000042
C28	C	1.057076	0.222666	0.499958
C29	C	0.543817	-0.056236	-0.000035
C30	C	1.043817	0.443764	0.499965
C31	C	0.456764	-0.054011	-0.000033
C32	C	0.956764	0.445989	0.499967
C33	C	0.419870	-0.163451	-0.000045
C34	C	0.919870	0.336549	0.499955
C35	C	0.593976	-0.167902	-0.000040
C36	C	1.093976	0.332098	0.499960
C37	C	0.688363	-0.170315	-0.000035
C38	C	1.188363	0.329685	0.499965
C39	C	0.325476	-0.161038	-0.000049
C40	C	0.825476	0.338962	0.499951
C41	C	0.979788	0.056177	-0.000049
C42	C	1.479788	0.556177	0.499951
C43	C	0.957986	0.190882	-0.000046
C44	C	1.457986	0.690882	0.499954
C45	C	1.018182	0.264711	-0.000048
C46	C	1.518182	0.764711	0.499952
C47	C	0.995651	0.403936	-0.000045
C48	C	1.495651	0.903936	0.499955
C49	C	1.157592	-0.156758	-0.000052
C50	C	1.657592	0.343242	0.499948
C51	C	1.250241	-0.159115	-0.000051
C52	C	1.750241	0.340885	0.499949
C53	C	1.034057	0.612470	-0.000044
C54	C	1.534057	1.112470	0.499956
C55	C	1.055855	0.477764	-0.000047
C56	C	1.555855	0.977764	0.499953
N57	N	1.006909	-0.165692	-0.217041
N58	N	1.506909	0.334308	0.282959
C59	C	1.068361	-0.239292	-0.452049
C60	C	1.568361	0.260708	0.047951
C61	C	1.068369	-0.239284	-0.548030
C62	C	1.568369	0.260716	-0.048030
C63	C	0.945486	-0.092043	-0.548037
C64	C	1.445486	0.407957	-0.048037
C65	C	0.945483	-0.092046	-0.452058
C66	C	1.445483	0.407954	0.047942
C67	C	1.006920	-0.165677	-0.404066
C68	C	1.506920	0.334323	0.095934
C69	C	1.006931	-0.165666	-0.596027
C70	C	1.506931	0.334334	-0.096027
C71	C	1.006938	-0.165656	-0.700094
C72	C	1.506938	0.334344	-0.200094
C73	C	1.006914	-0.165686	-0.299992
C74	C	1.506914	0.334314	0.200008
N75	N	1.006942	-0.165652	0.216948
N76	N	1.506942	0.334348	0.716948
H77	H	0.573867	0.032865	-0.000028
H78	H	1.073867	0.532865	0.499972
C79	C	0.401593	0.068827	-0.000036
C80	C	0.901593	0.568827	0.499964
N81	N	0.360038	0.161345	-0.000038
N82	N	0.860038	0.661345	0.499962
C83	C	1.148019	0.423924	-0.000053
C84	C	1.648019	0.923924	0.499947
N85	N	1.217436	0.383370	-0.000058
N86	N	1.717436	0.883370	0.499942
C87	C	0.865827	0.244730	-0.000043
C88	C	1.365827	0.744730	0.499957
N89	N	0.796411	0.285287	-0.000043
N90	N	1.296411	0.785287	0.499957
H91	H	0.895449	-0.032093	-0.412989
H92	H	1.395449	0.467907	0.087011
C93	C	0.903487	0.457779	-0.000042
C94	C	1.403487	0.957779	0.499958
N95	N	0.834071	0.498336	-0.000042
N96	N	1.334071	0.998336	0.499958
H97	H	1.118401	-0.299227	-0.587093
H98	H	1.618401	0.200773	-0.087093
H99	H	0.439986	-0.364221	-0.000056
H100	H	0.939986	0.135779	0.499944
H101	H	1.118387	-0.299248	-0.412977
H102	H	1.618387	0.200752	0.087023
H103	H	0.597907	-0.368257	-0.000044
H104	H	1.097907	0.131743	0.499956
H105	H	1.086398	0.224847	-0.000057
H106	H	1.586398	0.724847	0.499943
H107	H	0.895466	-0.032096	-0.587124
H108	H	1.395466	0.467904	-0.087124
