data_functionalizedCrystal
_audit_creation_method	'MofGen! by Chris Wilmer'
_symmetry_space_group_name_H-M	'P1'
_symmetry_Int_Tables_number	1
_symmetry_cell_setting	triclinic
loop_
_symmetry_equiv_pos_as_xyz
  x,y,z
_cell_length_a	14.519731
_cell_length_b	10.489741
_cell_length_c	13.596369
_cell_angle_alpha	89.994306
_cell_angle_beta	90.006433
_cell_angle_gamma	95.885987
loop_
_atom_site_label
_atom_site_type_symbol
_atom_site_fract_x
_atom_site_fract_y
_atom_site_fract_z
O1	O	-1.224768	0.167333	-0.081816
O2	O	-0.974768	0.417333	0.168184
O3	O	-0.724768	0.667333	0.418184
O4	O	-0.474768	0.917333	0.668184
O5	O	-0.956401	0.186995	-0.081813
O6	O	-0.706401	0.436995	0.168187
O7	O	-0.456401	0.686995	0.418187
O8	O	-0.206401	0.936995	0.668187
O9	O	-1.096691	-0.008497	-0.081809
O10	O	-0.846691	0.241503	0.168191
O11	O	-0.596691	0.491503	0.418191
O12	O	-0.346691	0.741503	0.668191
O13	O	-1.084478	0.362825	-0.081820
O14	O	-0.834478	0.612825	0.168180
O15	O	-0.584478	0.862825	0.418180
O16	O	-0.334478	1.112825	0.668180
O17	O	-1.096677	-0.008507	0.081774
O18	O	-0.846677	0.241493	0.331774
O19	O	-0.596677	0.491493	0.581774
O20	O	-0.346677	0.741493	0.831774
O21	O	-0.956387	0.186984	0.081770
O22	O	-0.706387	0.436984	0.331770
O23	O	-0.456387	0.686984	0.581770
O24	O	-0.206387	0.936984	0.831770
O25	O	-1.224754	0.167323	0.081767
O26	O	-0.974754	0.417323	0.331767
O27	O	-0.724754	0.667323	0.581767
O28	O	-0.474754	0.917323	0.831767
Zn29	Zn	-1.090568	0.177152	0.107741
Zn30	Zn	-0.840568	0.427152	0.357741
Zn31	Zn	-0.590568	0.677152	0.607741
Zn32	Zn	-0.340568	0.927152	0.857741
Zn33	Zn	-1.090587	0.177166	-0.107787
Zn34	Zn	-0.840587	0.427166	0.142213
Zn35	Zn	-0.590587	0.677166	0.392213
Zn36	Zn	-0.340587	0.927166	0.642213
O37	O	-1.084464	0.362814	0.081763
O38	O	-0.834464	0.612814	0.331763
O39	O	-0.584464	0.862814	0.581763
O40	O	-0.334464	1.112814	0.831763
C41	C	-0.922029	0.186068	-0.000021
C42	C	-0.672029	0.436068	0.249979
C43	C	-0.422029	0.686068	0.499979
C44	C	-0.172029	0.936068	0.749979
C45	C	-0.819634	0.183308	-0.000019
C46	C	-0.569634	0.433308	0.249981
C47	C	-0.319634	0.683308	0.499981
C48	C	-0.069634	0.933308	0.749981
C49	C	-0.736478	0.181064	-0.000021
C50	C	-0.486478	0.431064	0.249979
C51	C	-0.236478	0.681064	0.499979
C52	C	0.013522	0.931064	0.749979
C53	C	-0.632154	0.178261	-0.000020
C54	C	-0.382154	0.428261	0.249980
C55	C	-0.132154	0.678261	0.499980
C56	C	0.117846	0.928261	0.749980
C57	C	-0.549003	0.176037	-0.000018
C58	C	-0.299003	0.426037	0.249982
C59	C	-0.049003	0.676037	0.499982
C60	C	0.200997	0.926037	0.749982
C61	C	-0.444672	0.173234	-0.000018
C62	C	-0.194672	0.423234	0.249982
C63	C	0.055328	0.673234	0.499982
C64	C	0.305328	0.923234	0.749982
C65	C	-1.095762	-0.056024	-0.000018
C66	C	-0.845762	0.193976	0.249982
C67	C	-0.595762	0.443976	0.499982
C68	C	-0.345762	0.693976	0.749982
C69	C	-1.093002	-0.197625	-0.000019
C70	C	-0.843002	0.052375	0.249981
C71	C	-0.593002	0.302375	0.499981
C72	C	-0.343002	0.552375	0.749981
C73	C	-1.003739	-0.264844	-0.000025
C74	C	-0.753739	-0.014844	0.249975
C75	C	-0.503739	0.235156	0.499975
C76	C	-0.253739	0.485156	0.749975
C77	C	-1.045899	-0.357407	0.080629
C78	C	-0.795899	-0.107407	0.330629
C79	C	-0.545899	0.142593	0.580629
C80	C	-0.295899	0.392593	0.830629
C81	C	-1.045934	-0.357372	-0.080651
C82	C	-0.795934	-0.107372	0.169349
C83	C	-0.545934	0.142628	0.419349
C84	C	-0.295934	0.392628	0.669349
C85	C	-1.135198	-0.288323	0.080701
C86	C	-0.885198	-0.038323	0.330701
C87	C	-0.635198	0.211677	0.580701
C88	C	-0.385198	0.461677	0.830701
C89	C	-1.135221	-0.288278	-0.080651
C90	C	-0.885221	-0.038278	0.169349
C91	C	-0.635221	0.211722	0.419349
C92	C	-0.385221	0.461722	0.669349
C93	C	-1.177446	-0.380814	0.000023
C94	C	-0.927446	-0.130814	0.250023
C95	C	-0.677446	0.119186	0.500023
C96	C	-0.427446	0.369186	0.750023
C97	C	-0.259125	0.168249	-0.000023
C98	C	-0.009125	0.418249	0.249977
C99	C	0.240875	0.668249	0.499977
C100	C	0.490875	0.918249	0.749977
C101	C	-0.361521	0.171010	-0.000016
C102	C	-0.111521	0.421010	0.249984
C103	C	0.138479	0.671010	0.499984
C104	C	0.388479	0.921010	0.749984
C105	C	-1.085393	0.410342	-0.000030
C106	C	-0.835393	0.660342	0.249970
C107	C	-0.585393	0.910342	0.499970
C108	C	-0.335393	1.160342	0.749970
C109	C	-1.088153	0.551943	-0.000035
C110	C	-0.838153	0.801943	0.249965
C111	C	-0.588153	1.051943	0.499965
C112	C	-0.338153	1.301943	0.749965
N113	N	-1.090562	0.177142	0.254833
N114	N	-0.840562	0.427142	0.504833
N115	N	-0.590562	0.677142	0.754833
N116	N	-0.340562	0.927142	1.004833
N117	N	-1.090600	0.177166	-0.254878
N118	N	-0.840600	0.427166	-0.004878
N119	N	-0.590600	0.677166	0.245122
N120	N	-0.340600	0.927166	0.495122
C121	C	-1.090586	0.177167	0.656124
C122	C	-0.840586	0.427167	0.906124
C123	C	-0.590586	0.677167	1.156124
C124	C	-0.340586	0.927167	1.406124
C125	C	-1.090576	0.177164	0.544472
C126	C	-0.840576	0.427164	0.794472
C127	C	-0.590576	0.677164	1.044472
C128	C	-0.340576	0.927164	1.294472
C129	C	-1.090574	0.177155	0.455482
C130	C	-0.840574	0.427155	0.705482
C131	C	-0.590574	0.677155	0.955482
C132	C	-0.340574	0.927155	1.205482
C133	C	-1.090564	0.177151	0.343823
C134	C	-0.840564	0.427151	0.593823
C135	C	-0.590564	0.677151	0.843823
C136	C	-0.340564	0.927151	1.093823
H137	H	-0.930348	-0.214436	0.000057
H138	H	-0.680348	0.035564	0.250057
H139	H	-0.430348	0.285564	0.500057
H140	H	-0.180348	0.535564	0.750057
H141	H	-1.250903	-0.430996	0.000067
H142	H	-1.000903	-0.180996	0.250067
H143	H	-0.750903	0.069004	0.500067
H144	H	-0.500903	0.319004	0.750067
H145	H	-1.172964	-0.257618	-0.148843
H146	H	-0.922964	-0.007618	0.101157
H147	H	-0.672964	0.242382	0.351157
H148	H	-0.422964	0.492382	0.601157
H149	H	-1.008124	-0.388033	0.148817
H150	H	-0.758124	-0.138033	0.398817
H151	H	-0.508124	0.111967	0.648817
H152	H	-0.258124	0.361967	0.898817
C153	C	-0.994909	-0.398694	-0.172766
C154	C	-0.744909	-0.148694	0.077234
C155	C	-0.494909	0.101306	0.327234
C156	C	-0.244909	0.351306	0.577234
H157	H	-1.035629	-0.455806	-0.210751
H158	H	-0.785629	-0.205806	0.039249
H159	H	-0.535629	0.044194	0.289249
H160	H	-0.285629	0.294194	0.539249
H161	H	-0.974816	-0.325269	-0.210994
H162	H	-0.724816	-0.075269	0.039006
H163	H	-0.474816	0.174731	0.289006
H164	H	-0.224816	0.424731	0.539006
H165	H	-0.942801	-0.440524	-0.153372
H166	H	-0.692801	-0.190524	0.096628
H167	H	-0.442801	0.059476	0.346628
H168	H	-0.192801	0.309476	0.596628
H169	H	-1.172929	-0.257885	0.148965
H170	H	-0.922929	-0.007885	0.398965
H171	H	-0.672929	0.242115	0.648965
H172	H	-0.422929	0.492115	0.898965
