data_functionalizedCrystal
_audit_creation_method	'MofGen! by Chris Wilmer'
_symmetry_space_group_name_H-M	'P1'
_symmetry_Int_Tables_number	1
_symmetry_cell_setting	triclinic
loop_
_symmetry_equiv_pos_as_xyz
  x,y,z
_cell_length_a	14.044191
_cell_length_b	23.532407
_cell_length_c	13.101039
_cell_angle_alpha	93.332685
_cell_angle_beta	86.337551
_cell_angle_gamma	88.020262
loop_
_atom_site_label
_atom_site_type_symbol
_atom_site_fract_x
_atom_site_fract_y
_atom_site_fract_z
O1	O	1.261657	0.134377	-0.085200
O2	O	1.594990	0.467710	0.248133
O3	O	1.928324	0.801043	0.581466
O4	O	0.985735	0.129420	-0.085212
O5	O	1.319068	0.462753	0.248121
O6	O	1.652401	0.796087	0.581455
O7	O	1.132014	0.049419	-0.085177
O8	O	1.465348	0.382752	0.248156
O9	O	1.798681	0.716085	0.581489
O10	O	1.115377	0.214378	-0.085235
O11	O	1.448711	0.547711	0.248098
O12	O	1.782044	0.881045	0.581431
O13	O	1.121519	0.055169	0.085250
O14	O	1.454852	0.388502	0.418583
O15	O	1.788186	0.721836	0.751917
O16	O	0.975239	0.135170	0.085215
O17	O	1.308573	0.468504	0.418549
O18	O	1.641906	0.801837	0.751882
O19	O	1.251161	0.140127	0.085227
O20	O	1.584495	0.473460	0.418560
O21	O	1.917828	0.806794	0.751894
Zn22	Zn	1.111534	0.138562	0.112280
Zn23	Zn	1.444867	0.471895	0.445613
Zn24	Zn	1.778201	0.805228	0.778947
Zn25	Zn	1.125362	0.130985	-0.112265
Zn26	Zn	1.458696	0.464319	0.221068
Zn27	Zn	1.792029	0.797652	0.554401
O28	O	1.104882	0.220128	0.085192
O29	O	1.438215	0.553462	0.418525
O30	O	1.771548	0.886795	0.751859
C31	C	0.945193	0.130127	0.000000
C32	C	1.278526	0.463460	0.333334
C33	C	1.611860	0.796794	0.666667
C34	C	0.840028	0.123659	-0.000003
C35	C	1.173361	0.456993	0.333331
C36	C	1.506695	0.790326	0.666664
C37	C	0.589421	0.157704	-0.000004
C38	C	0.922754	0.491038	0.333329
C39	C	1.256088	0.824371	0.666662
C40	C	0.647481	0.111845	0.000010
C41	C	0.980814	0.445178	0.333343
C42	C	1.314148	0.778511	0.666677
C43	C	0.754624	0.118420	0.000003
C44	C	1.087957	0.451753	0.333336
C45	C	1.421291	0.785087	0.666670
C46	C	0.482268	0.151130	0.000003
C47	C	0.815602	0.484463	0.333336
C48	C	1.148935	0.817797	0.666669
C49	C	1.126343	0.031055	0.000042
C50	C	1.459676	0.364388	0.333375
C51	C	1.793009	0.697722	0.666708
C52	C	1.125067	-0.032231	0.000057
C53	C	1.458401	0.301103	0.333390
C54	C	1.791734	0.634436	0.666724
C55	C	1.033251	-0.303378	-0.000011
C56	C	1.366584	0.029955	0.333323
C57	C	1.699918	0.363288	0.666656
C58	C	1.034434	-0.243914	-0.000003
C59	C	1.367767	0.089420	0.333331
C60	C	1.701101	0.422753	0.666664
O61	O	0.961596	-0.211120	-0.000038
O62	O	1.294929	0.122214	0.333295
O63	O	1.628263	0.455547	0.666628
N64	N	1.121398	-0.216572	0.000013
N65	N	1.454731	0.116761	0.333346
N66	N	1.788064	0.450095	0.666679
C67	C	1.207184	-0.248699	0.000010
C68	C	1.540518	0.084635	0.333343
C69	C	1.873851	0.417968	0.666676
O70	O	1.281262	-0.219982	0.000023
O71	O	1.614596	0.113351	0.333356
O72	O	1.947929	0.446684	0.666689
C73	C	1.206001	-0.308163	-0.000005
C74	C	1.539334	0.025171	0.333328
C75	C	1.872667	0.358504	0.666661
C76	C	1.119031	-0.335501	-0.000011
C77	C	1.452364	-0.002167	0.333323
C78	C	1.785698	0.331166	0.666656
C79	C	0.946288	-0.330717	-0.000017
C80	C	1.279622	0.002617	0.333316
C81	C	1.612955	0.335950	0.666650
C82	C	0.945106	-0.390177	-0.000023
C83	C	1.278439	-0.056844	0.333310
C84	C	1.611772	0.276489	0.666644
C85	C	1.030886	-0.422299	-0.000023
C86	C	1.364219	-0.088966	0.333311
C87	C	1.697552	0.244367	0.666644
C88	C	1.117848	-0.394961	-0.000017
C89	C	1.451182	-0.061628	0.333317
C90	C	1.784515	0.271706	0.666650
C91	C	1.291787	-0.340288	-0.000016
C92	C	1.625120	-0.006955	0.333318
C93	C	1.958454	0.326378	0.666651
C94	C	1.290596	-0.399756	-0.000032
C95	C	1.623929	-0.066423	0.333302
C96	C	1.957263	0.266911	0.666635
C97	C	1.203626	-0.427094	-0.000037
C98	C	1.536960	-0.093761	0.333297
C99	C	1.870293	0.239573	0.666630
C100	C	1.202446	-0.486544	-0.000022
C101	C	1.535779	-0.153210	0.333311
C102	C	1.869112	0.180123	0.666644
N103	N	1.115482	-0.513885	-0.000038
N104	N	1.448815	-0.180552	0.333296
N105	N	1.782149	0.152781	0.666629
C106	C	1.029702	-0.481763	-0.000038
C107	C	1.363035	-0.148430	0.333295
C108	C	1.696369	0.184903	0.666629
C109	C	1.209664	-0.123821	0.000040
C110	C	1.542997	0.209513	0.333373
C111	C	1.876330	0.542846	0.666707
C112	C	1.210848	-0.064358	0.000063
C113	C	1.544181	0.268976	0.333396
C114	C	1.877514	0.602309	0.666729
C115	C	1.038097	-0.059577	0.000048
C116	C	1.371430	0.273756	0.333381
C117	C	1.704764	0.607090	0.666715
C118	C	1.036913	-0.119041	0.000033
C119	C	1.370247	0.214293	0.333366
C120	C	1.703580	0.547626	0.666700
C121	C	1.122700	-0.151162	0.000025
C122	C	1.456033	0.182171	0.333358
C123	C	1.789367	0.515504	0.666691
C124	C	1.027225	-0.606635	-0.000050
C125	C	1.360558	-0.273301	0.333284
C126	C	1.693891	0.060032	0.666617
C127	C	1.026049	-0.666101	-0.000052
C128	C	1.359382	-0.332767	0.333282
C129	C	1.692716	0.000566	0.666615
C130	C	1.198800	-0.670876	-0.000042
C131	C	1.532133	-0.337543	0.333291
C132	C	1.865466	-0.004210	0.666624
C133	C	1.199975	-0.611416	-0.000035
C134	C	1.533309	-0.278082	0.333298
C135	C	1.866642	0.055251	0.666631
C136	C	1.114180	-0.579296	-0.000042
C137	C	1.447514	-0.245963	0.333291
C138	C	1.780847	0.087371	0.666624
O139	O	1.275246	-0.519375	0.000009
O140	O	1.608579	-0.186042	0.333342
O141	O	1.941912	0.147292	0.666676
O142	O	0.955637	-0.510488	-0.000064
O143	O	1.288970	-0.177154	0.333269
O144	O	1.622304	0.156179	0.666602
C145	C	1.291703	0.139420	0.000012
C146	C	1.625037	0.472753	0.333345
C147	C	1.958370	0.806087	0.666679
C148	C	1.396869	0.145887	0.000008
C149	C	1.730202	0.479221	0.333342
C150	C	2.063535	0.812554	0.666675
C151	C	1.110554	0.238492	-0.000029
C152	C	1.443887	0.571825	0.333304
C153	C	1.777220	0.905159	0.666637
C154	C	1.111829	0.301777	-0.000051
C155	C	1.445162	0.635111	0.333282
C156	C	1.778496	0.968444	0.666615
N157	N	1.102103	0.143732	0.265526
N158	N	1.435437	0.477066	0.598860
N159	N	1.768770	0.810399	0.932193
N160	N	1.134800	0.125811	-0.265512
N161	N	1.468134	0.459144	0.067822
N162	N	1.801467	0.792477	0.401155
C163	C	1.089273	0.150772	0.474566
C164	C	1.422606	0.484106	0.807899
C165	C	1.755939	0.817439	1.141232
C166	C	1.147628	0.118772	0.525455
C167	C	1.480961	0.452105	0.858789
C168	C	1.814294	0.785439	1.192122
C169	C	1.140489	0.122689	0.641772
C170	C	1.473822	0.456023	0.975106
C171	C	1.807155	0.789356	1.308439
C172	C	1.096411	0.146856	0.358239
C173	C	1.429744	0.480189	0.691572
C174	C	1.763077	0.813523	1.024905
H175	H	0.620180	0.201901	-0.000023
H176	H	0.953513	0.535234	0.333310
H177	H	1.286846	0.868567	0.666644
H178	H	0.616725	0.067643	-0.000047
H179	H	0.950059	0.400976	0.333287
H180	H	1.283392	0.734309	0.666620
H181	H	0.955225	-0.688356	-0.000051
H182	H	1.288558	-0.355023	0.333282
H183	H	1.621891	-0.021689	0.666616
H184	H	1.033956	0.181109	0.518350
H185	H	1.367289	0.514442	0.851683
H186	H	1.700623	0.847776	1.185016
H187	H	1.279525	-0.149971	0.000040
H188	H	1.612859	0.183363	0.333374
H189	H	1.946192	0.516696	0.666707
Cl190	Cl	0.919366	-0.566265	-0.000055
Cl191	Cl	1.252699	-0.232932	0.333278
Cl192	Cl	1.586033	0.100402	0.666611
Cl193	Cl	1.401129	-0.305936	-0.000034
Cl194	Cl	1.734463	0.027397	0.333299
Cl195	Cl	2.067796	0.360731	0.666633
Cl196	Cl	1.233399	0.072168	0.457854
Cl197	Cl	1.566733	0.405501	0.791188
Cl198	Cl	1.900066	0.738835	1.124521
H199	H	0.874286	-0.412431	-0.000036
H200	H	1.207620	-0.079097	0.333297
H201	H	1.540953	0.254236	0.666631
H202	H	0.876432	-0.304569	-0.000020
H203	H	1.209765	0.028764	0.333313
H204	H	1.543099	0.362098	0.666646
Cl205	Cl	1.309307	-0.577046	0.000008
Cl206	Cl	1.642641	-0.243712	0.333342
Cl207	Cl	1.975974	0.089621	0.666675
Cl208	Cl	0.927576	-0.153402	0.000024
Cl209	Cl	1.260910	0.179931	0.333357
Cl210	Cl	1.594243	0.513264	0.666690
H211	H	1.268639	-0.697041	-0.000037
H212	H	1.601972	-0.363707	0.333296
H213	H	1.935306	-0.030374	0.666629
H214	H	1.281666	-0.042104	0.000083
H215	H	1.614999	0.291230	0.333416
H216	H	1.948333	0.624563	0.666749
Cl217	Cl	0.930258	-0.019184	0.000047
Cl218	Cl	1.263592	0.314150	0.333380
Cl219	Cl	1.596925	0.647483	0.666713
Cl220	Cl	1.398450	-0.440134	-0.000046
Cl221	Cl	1.731783	-0.106801	0.333288
Cl222	Cl	2.065116	0.226533	0.666621
