data_functionalizedCrystal
_audit_creation_method	'MofGen! by Chris Wilmer'
_symmetry_space_group_name_H-M	'P1'
_symmetry_Int_Tables_number	1
_symmetry_cell_setting	triclinic
loop_
_symmetry_equiv_pos_as_xyz
  x,y,z
_cell_length_a	9.065218
_cell_length_b	7.681481
_cell_length_c	9.065218
_cell_angle_alpha	84.174504
_cell_angle_beta	94.984115
_cell_angle_gamma	84.191250
loop_
_atom_site_label
_atom_site_type_symbol
_atom_site_fract_x
_atom_site_fract_y
_atom_site_fract_z
O1	O	1.946637	0.146426	-0.230140
O2	O	2.279970	0.479759	0.103193
O3	O	2.613304	0.813092	0.436527
O4	O	1.517352	0.146428	-0.247887
O5	O	1.850685	0.479761	0.085447
O6	O	2.184019	0.813094	0.418780
O7	O	1.740868	0.146423	-0.024371
O8	O	2.074201	0.479756	0.308963
O9	O	2.407535	0.813090	0.642296
O10	O	1.723121	0.146430	-0.453656
O11	O	2.056454	0.479764	-0.120323
O12	O	2.389787	0.813097	0.213011
O13	O	1.768378	-0.146435	0.003204
O14	O	2.101712	0.186898	0.336537
O15	O	2.435045	0.520231	0.669870
O16	O	1.544862	-0.146431	-0.220312
O17	O	1.878196	0.186903	0.113021
O18	O	2.211529	0.520236	0.446354
O19	O	1.974147	-0.146433	-0.202566
O20	O	2.307481	0.186901	0.130768
O21	O	2.640814	0.520234	0.464101
Zn22	Zn	1.763873	-0.192929	-0.207061
Zn23	Zn	2.097206	0.140404	0.126272
Zn24	Zn	2.430539	0.473737	0.459606
Zn25	Zn	1.727627	0.192924	-0.243391
Zn26	Zn	2.060960	0.526258	0.089942
Zn27	Zn	2.394293	0.859591	0.423275
O28	O	1.750631	-0.146428	-0.426082
O29	O	2.083964	0.186905	-0.092749
O30	O	2.417298	0.520239	0.240585
C31	C	1.476120	-0.000001	-0.232394
C32	C	1.809454	0.333332	0.100939
C33	C	2.142787	0.666665	0.434273
C34	C	1.312277	-0.000000	-0.227294
C35	C	1.645611	0.333333	0.106039
C36	C	1.978944	0.666666	0.439372
N37	N	1.788620	-0.456264	-0.182266
N38	N	2.121954	-0.122931	0.151067
N39	N	2.455287	0.210403	0.484401
C40	C	2.015378	0.000000	-0.218059
C41	C	2.348712	0.333333	0.115275
C42	C	2.682045	0.666667	0.448608
C43	C	2.179220	0.000011	-0.223159
C44	C	2.512554	0.333344	0.110174
C45	C	2.845887	0.666677	0.443507
C46	C	1.752917	-0.000003	0.044403
C47	C	2.086251	0.333330	0.377736
C48	C	2.419584	0.666663	0.711070
C49	C	1.747817	0.000005	0.208245
C50	C	2.081150	0.333338	0.541578
C51	C	2.414483	0.666672	0.874912
N52	N	1.702890	0.456259	-0.268175
N53	N	2.036224	0.789592	0.065158
N54	N	2.369557	1.122926	0.398492
C55	C	1.738581	0.000002	-0.494856
C56	C	2.071915	0.333335	-0.161522
C57	C	2.405248	0.666669	0.171811
C58	C	1.743681	0.000005	-0.658699
C59	C	2.077014	0.333339	-0.325366
C60	C	2.410347	0.666672	0.007968
H61	H	1.615378	-0.468542	-0.355862
H62	H	1.948711	-0.135209	-0.022529
H63	H	2.282044	0.198124	0.310805
H64	H	1.876150	-0.531472	-0.094584
H65	H	2.209483	-0.198138	0.238750
H66	H	2.542816	0.135195	0.572083
