data_functionalizedCrystal
_audit_creation_method	'MofGen! by Chris Wilmer'
_symmetry_space_group_name_H-M	'P1'
_symmetry_Int_Tables_number	1
_symmetry_cell_setting	triclinic
loop_
_symmetry_equiv_pos_as_xyz
  x,y,z
_cell_length_a	12.759401
_cell_length_b	16.120484
_cell_length_c	12.759393
_cell_angle_alpha	92.864008
_cell_angle_beta	89.979062
_cell_angle_gamma	92.926992
loop_
_atom_site_label
_atom_site_type_symbol
_atom_site_fract_x
_atom_site_fract_y
_atom_site_fract_z
Zn1	Zn	1.584985	-0.331832	-0.615183
Zn2	Zn	2.084985	0.168168	-0.115183
Zn3	Zn	1.575933	-0.471268	-0.448395
Zn4	Zn	2.075933	0.028732	0.051605
Zn5	Zn	1.409280	-0.331877	-0.439521
Zn6	Zn	1.909280	0.168123	0.060479
Zn7	Zn	1.400336	-0.471209	-0.624029
Zn8	Zn	1.900336	0.028791	-0.124029
O9	O	1.492634	-0.401546	-0.531782
O10	O	1.992634	0.098454	-0.031782
O11	O	1.730804	-0.350334	-0.593070
O12	O	2.230804	0.149666	-0.093070
O13	O	1.553781	-0.452820	-0.300200
O14	O	2.053781	0.047180	0.199800
O15	O	1.440119	-0.215205	-0.455406
O16	O	1.940119	0.284795	0.044594
O17	O	1.724154	-0.452777	-0.470532
O18	O	2.224154	0.047223	0.029468
O19	O	1.569208	-0.215173	-0.584465
O20	O	2.069208	0.284827	-0.084465
O21	O	1.431342	-0.350410	-0.293680
O22	O	1.931342	0.149590	0.206320
O23	O	1.261073	-0.350354	-0.463984
O24	O	1.761073	0.149646	0.036016
O25	O	1.424875	-0.452678	-0.769874
O26	O	1.924875	0.047322	-0.269874
O27	O	1.254502	-0.452721	-0.599541
O28	O	1.754502	0.047279	-0.099541
O29	O	1.560535	-0.350278	-0.763375
O30	O	2.060535	0.149722	-0.263375
O31	O	1.545108	-0.587925	-0.479110
O32	O	2.045108	-0.087925	0.020890
O33	O	1.416098	-0.587883	-0.608147
O34	O	1.916098	-0.087883	-0.108147
C35	C	1.219667	-0.401536	-0.531760
C36	C	1.719667	0.098464	-0.031760
C37	C	1.102889	-0.401552	-0.531777
C38	C	1.602889	0.098448	-0.031777
C39	C	1.044628	-0.454936	-0.602261
C40	C	1.544628	0.045064	-0.102261
C41	C	0.934904	-0.454939	-0.602282
C42	C	1.434904	0.045061	-0.102282
C43	C	0.941712	-0.348172	-0.461326
C44	C	1.441712	0.151828	0.038674
C45	C	1.051434	-0.348166	-0.461311
C46	C	1.551434	0.151834	0.038689
C47	C	1.478679	-0.618154	-0.545574
C48	C	1.978679	-0.118154	-0.045574
C49	C	1.472805	-0.710820	-0.551509
C50	C	1.972805	-0.210820	-0.051509
C51	C	1.462088	-0.880481	-0.562368
C52	C	1.962088	-0.380481	-0.062368
C53	C	1.523367	-0.921772	-0.501213
C54	C	2.023367	-0.421772	-0.001213
C55	C	1.517404	-1.016177	-0.507255
C56	C	2.017404	-0.516177	-0.007255
C57	C	1.468050	-0.786067	-0.556327
C58	C	1.968050	-0.286067	-0.056327
C59	C	1.766666	-0.401557	-0.531804
C60	C	2.266666	0.098443	-0.031804
C61	C	1.883442	-0.401562	-0.531814
C62	C	2.383442	0.098438	-0.031814
C63	C	1.492717	-0.401466	-0.805810
C64	C	1.992717	0.098534	-0.305810
C65	C	1.492753	-0.401432	-0.922585
C66	C	1.992753	0.098568	-0.422585
C67	C	1.506671	-0.184093	-0.517959
C68	C	2.006671	0.315907	-0.017959
C69	C	1.512653	-0.091427	-0.512068
C70	C	2.012653	0.408573	-0.012068
C71	C	1.563397	-0.348104	-0.974064
C72	C	2.063397	0.151896	-0.474064
C73	C	1.563417	-0.348068	-1.083786
C74	C	2.063417	0.151932	-0.583786
C75	C	1.422146	-0.454696	-1.090540
C76	C	1.922146	0.045304	-0.590540
C77	C	1.422122	-0.454727	-0.980820
C78	C	1.922122	0.045273	-0.480820
C79	C	1.492614	-0.401566	-0.258816
C80	C	1.992614	0.098434	0.241184
C81	C	1.492797	-0.401365	-0.142027
C82	C	1.992797	0.098635	0.357973
H83	H	1.086519	-0.498404	-0.659642
H84	H	1.586519	0.001596	-0.159642
H85	H	1.364587	-0.498152	-0.938905
H86	H	1.864587	0.001848	-0.438905
H87	H	0.887472	-0.498408	-0.659679
H88	H	1.387472	0.001592	-0.159679
Br89	Br	1.618273	-0.862523	-0.406383
Br90	Br	2.118273	-0.362523	0.093617
H91	H	1.405150	-0.916029	-0.619256
H92	H	1.905150	-0.416029	-0.119256
Br93	Br	1.326297	-0.527023	-1.169580
Br94	Br	1.826297	-0.027023	-0.669580
H95	H	1.098873	-0.304689	-0.403914
H96	H	1.598873	0.195311	0.096086
Br97	Br	1.659251	-0.275775	-0.895033
Br98	Br	2.159251	0.224225	-0.395033
H99	H	1.620941	-0.304642	-1.125695
H100	H	2.120941	0.195358	-0.625695
Br101	Br	0.871873	-0.275723	-0.365698
Br102	Br	1.371873	0.224277	0.134302
