data_functionalizedCrystal
_audit_creation_method	'MofGen! by Chris Wilmer'
_symmetry_space_group_name_H-M	'P1'
_symmetry_Int_Tables_number	1
_symmetry_cell_setting	triclinic
loop_
_symmetry_equiv_pos_as_xyz
  x,y,z
_cell_length_a	13.185407
_cell_length_b	9.565339
_cell_length_c	13.339070
_cell_angle_alpha	89.999940
_cell_angle_beta	96.198611
_cell_angle_gamma	89.996412
loop_
_atom_site_label
_atom_site_type_symbol
_atom_site_fract_x
_atom_site_fract_y
_atom_site_fract_z
O1	O	1.373283	0.116227	0.243488
O2	O	1.084451	0.116235	0.148751
O3	O	1.195719	0.116228	0.334358
O4	O	1.262016	0.116235	0.057880
O5	O	1.195727	-0.116292	0.334356
O6	O	1.084459	-0.116285	0.148748
O7	O	1.373291	-0.116293	0.243486
Zn8	Zn	1.228877	-0.153206	0.196117
Zn9	Zn	1.228866	0.153149	0.196120
O10	O	1.262024	-0.116285	0.057878
C11	C	1.046733	-0.000024	0.139145
C12	C	0.934328	-0.000020	0.110538
C13	C	0.562466	-0.000032	0.383552
C14	C	0.668075	-0.000044	0.410433
C15	C	0.734643	-0.000038	0.335461
C16	C	0.695592	-0.000020	0.233605
C17	C	0.589973	-0.000019	0.206722
C18	C	0.762150	-0.000025	0.158631
C19	C	0.723099	-0.000007	0.056775
C20	C	0.617490	-0.000005	0.029896
C21	C	0.550922	-0.000012	0.104867
C22	C	0.867770	-0.000026	0.185514
C23	C	0.895277	-0.000013	0.008684
C24	C	0.789668	-0.000001	-0.018197
N25	N	1.228891	-0.362286	0.196117
C26	C	1.280373	-0.453455	0.281956
C27	C	1.183836	-0.546623	0.275323
C28	C	1.325373	-0.546673	0.202801
C29	C	1.132296	-0.453402	0.189513
C30	C	1.273904	-0.453444	0.116971
C31	C	1.177313	-0.546570	0.110284
C32	C	1.411010	-0.000031	0.253091
C33	C	1.523415	-0.000025	0.281698
C34	C	1.184524	-0.000030	0.368997
C35	C	1.151143	-0.000023	0.472211
N36	N	1.228858	0.362228	0.196129
C37	C	1.273219	-0.000025	0.023239
C38	C	1.306600	-0.000022	-0.079975
C39	C	1.410698	-0.000031	0.907668
C40	C	1.442064	-0.000045	0.810695
C41	C	1.369336	-0.000039	0.726070
C42	C	1.265237	-0.000020	0.738426
C43	C	1.233867	-0.000017	0.835409
C44	C	1.192506	-0.000025	0.653810
C45	C	1.088406	-0.000006	0.666167
C46	C	1.057042	-0.000002	0.763141
C47	C	1.129770	-0.000008	0.847766
C48	C	1.223876	-0.000028	0.556828
C49	C	1.047045	-0.000014	0.484568
C50	C	1.015679	0.000000	0.581541
H51	H	0.508258	-0.000077	0.444582
H52	H	1.104236	0.000009	0.926733
F53	F	0.969637	-0.000016	0.394507
H54	H	0.585698	-0.000005	-0.053042
H55	H	0.972278	0.000003	0.773195
H56	H	1.050645	-0.412605	0.183944
H57	H	1.469901	-0.000048	0.976575
H58	H	0.899554	-0.000038	0.268447
H59	H	0.820635	-0.000047	0.357354
H60	H	0.757857	0.000013	-0.101129
F61	F	1.432039	-0.600230	0.210181
H62	H	0.930919	0.000015	0.591617
F63	F	1.120308	-0.599675	0.015379
F64	F	1.323721	-0.399898	0.029524
F65	F	1.334662	-0.000049	0.543688
F66	F	1.402722	-0.000050	0.622863
F67	F	0.709629	-0.000069	0.518831
F68	F	0.438517	0.000019	0.076263
F69	F	1.552849	-0.000042	0.797550
H70	H	1.323843	-0.412568	0.354561
F71	F	0.966119	-0.000015	-0.071112
F72	F	1.134041	-0.600112	0.362808
