data_functionalizedCrystal
_audit_creation_method	'MofGen! by Chris Wilmer'
_symmetry_space_group_name_H-M	'P1'
_symmetry_Int_Tables_number	1
_symmetry_cell_setting	triclinic
loop_
_symmetry_equiv_pos_as_xyz
  x,y,z
_cell_length_a	10.540510
_cell_length_b	10.540510
_cell_length_c	9.130313
_cell_angle_alpha	90.001199
_cell_angle_beta	89.999498
_cell_angle_gamma	84.513311
loop_
_atom_site_label
_atom_site_type_symbol
_atom_site_fract_x
_atom_site_fract_y
_atom_site_fract_z
O1	O	1.685883	0.178717	-0.121800
O2	O	1.316463	0.195613	-0.121800
O3	O	1.509621	0.002455	-0.121799
O4	O	1.492725	0.371875	-0.121800
O5	O	1.509618	0.002460	0.121800
O6	O	1.316461	0.195618	0.121799
O7	O	1.685881	0.178722	0.121799
Cu8	Cu	1.501170	0.187171	0.144042
Cu9	Cu	1.501173	0.187164	-0.144042
O10	O	1.492723	0.371880	0.121798
C11	C	1.269159	0.194356	-0.000001
C12	C	1.128209	0.190589	-0.000001
C13	C	1.508361	-0.044846	-0.000003
C14	C	1.504594	-0.185795	-0.000012
C15	C	0.910739	0.324775	-0.000561
C16	C	1.057334	0.328793	-0.000003
C17	C	1.083455	0.119845	0.139103
C18	C	0.936695	0.116806	0.139210
C19	C	0.936892	0.113922	-0.137807
C20	C	1.083232	0.120477	-0.139637
C21	C	1.638780	-0.403265	0.000546
C22	C	1.642798	-0.256670	-0.000010
C23	C	1.433848	-0.230549	-0.139116
C24	C	1.430809	-0.377310	-0.139225
C25	C	1.427928	-0.377112	0.137793
C26	C	1.434483	-0.230772	0.139624
C27	C	1.733185	0.179979	-0.000003
C28	C	1.874135	0.183746	-0.000013
C29	C	1.493983	0.419181	-0.000001
C30	C	1.497750	0.560130	-0.000002
N31	N	1.501178	0.187174	0.346664
N32	N	1.501176	0.187151	-0.346665
C33	C	1.586730	0.101673	0.423316
C34	C	1.586727	0.101658	0.576653
C35	C	1.415614	0.272656	0.576672
C36	C	1.415613	0.272664	0.423338
C37	C	1.685524	0.002953	0.423307
C38	C	1.685521	0.002937	0.576644
H39	H	1.086675	0.384138	-0.099722
H40	H	1.663826	-0.094627	0.381687
H41	H	1.132311	0.019578	-0.148037
H42	H	1.777700	0.033894	0.375748
H43	H	1.085731	0.384478	0.099879
H44	H	0.914749	0.010159	-0.138747
H45	H	1.485961	-0.202163	0.242532
H46	H	1.698475	-0.228273	-0.099897
H47	H	1.345949	0.342258	0.639116
H48	H	1.130856	0.018102	0.144277
H49	H	1.471847	-0.419297	0.243234
H50	H	0.894340	0.157503	-0.243241
H51	H	0.896472	0.165157	0.243192
H52	H	1.324163	-0.399251	0.138730
H53	H	1.654655	-0.089278	0.624191
H54	H	0.868781	0.378616	-0.100321
H55	H	0.867226	0.378310	0.098632
H56	H	0.913711	0.013438	0.145530
H57	H	1.345939	0.342274	0.360929
H58	H	1.114304	0.168980	0.242624
H59	H	1.111846	0.171950	-0.242545
H60	H	1.783080	0.024712	0.618260
H61	H	1.698152	-0.227330	0.099703
H62	H	1.482981	-0.199700	-0.242636
H63	H	1.692621	-0.445224	0.100305
H64	H	1.692313	-0.446779	-0.098648
H65	H	1.479159	-0.417533	-0.243207
H66	H	1.332105	-0.183150	-0.144288
H67	H	1.327440	-0.400294	-0.145527
H68	H	1.333584	-0.181694	0.148024
