data_functionalizedCrystal
_audit_creation_method	'MofGen! by Chris Wilmer'
_symmetry_space_group_name_H-M	'P1'
_symmetry_Int_Tables_number	1
_symmetry_cell_setting	triclinic
loop_
_symmetry_equiv_pos_as_xyz
  x,y,z
_cell_length_a	17.640112
_cell_length_b	25.639239
_cell_length_c	17.640618
_cell_angle_alpha	78.768777
_cell_angle_beta	92.134647
_cell_angle_gamma	101.263838
loop_
_atom_site_label
_atom_site_type_symbol
_atom_site_fract_x
_atom_site_fract_y
_atom_site_fract_z
Zn1	Zn	1.247788	-0.015021	-0.195084
Zn2	Zn	1.221962	-0.122899	-0.068100
Zn3	Zn	1.095097	-0.049035	-0.093728
Zn4	Zn	1.120718	-0.116014	-0.220685
O5	O	1.171391	-0.075742	-0.144399
O6	O	1.350634	-0.017978	-0.156800
O7	O	1.183603	-0.130216	0.034776
O8	O	1.115437	0.028656	-0.107185
O9	O	1.331660	-0.097235	-0.063505
O10	O	1.227618	0.053645	-0.181651
O11	O	1.090396	-0.075949	0.015946
O12	O	0.992224	-0.069273	-0.132009
O13	O	1.159105	-0.085501	-0.323564
O14	O	1.011047	-0.118483	-0.225283
O15	O	1.252462	-0.011302	-0.304755
O16	O	1.208447	-0.195164	-0.088329
O17	O	1.134063	-0.190105	-0.200433
C18	C	0.974080	-0.096822	-0.184206
C19	C	0.889673	-0.105850	-0.201253
C20	C	0.563037	-0.007148	-0.014898
C21	C	0.483726	-0.015640	-0.030927
C22	C	0.503348	-0.067001	-0.127887
C23	C	0.582663	-0.058511	-0.111868
C24	C	0.612501	-0.028585	-0.055373
C25	C	0.632126	-0.079948	-0.152343
C26	C	0.711433	-0.071461	-0.136323
C27	C	0.741277	-0.041537	-0.079829
C28	C	0.691808	-0.020098	-0.039353
C29	C	0.602286	-0.109877	-0.208834
C30	C	0.651749	-0.131314	-0.249309
C31	C	0.731059	-0.122824	-0.233293
C32	C	0.760903	-0.092900	-0.176799
C33	C	0.780528	-0.144263	-0.273769
C34	C	0.859835	-0.135776	-0.257749
C35	C	0.840210	-0.084413	-0.160779
C36	C	1.171257	-0.211604	-0.144390
C37	C	1.171274	-0.269715	-0.144398
C38	C	1.210266	-0.632656	-0.086084
C39	C	1.210298	-0.687256	-0.086088
O40	O	1.243311	-0.717705	-0.036497
N41	N	1.171535	-0.711959	-0.144423
C42	C	1.132745	-0.682058	-0.202761
O43	O	1.099778	-0.708083	-0.252380
C44	C	1.132718	-0.627458	-0.202759
C45	C	1.171477	-0.602760	-0.144417
C46	C	1.249023	-0.607957	-0.027747
C47	C	1.248990	-0.553361	-0.027742
C48	C	1.210201	-0.523465	-0.086075
C49	C	1.171444	-0.548164	-0.144412
C50	C	1.093933	-0.597558	-0.261100
C51	C	1.093911	-0.542955	-0.261093
C52	C	1.132669	-0.518256	-0.202751
C53	C	1.132622	-0.463672	-0.202740
N54	N	1.171385	-0.438969	-0.144405
C55	C	1.210174	-0.468865	-0.086073
C56	C	1.132804	-0.796721	-0.202761
C57	C	1.132826	-0.851320	-0.202761
C58	C	1.210380	-0.856514	-0.086089
C59	C	1.210354	-0.801914	-0.086087
C60	C	1.171567	-0.772017	-0.144427
C61	C	1.210102	-0.354211	-0.086067
C62	C	1.210063	-0.299611	-0.086065
C63	C	1.132512	-0.294421	-0.202739
C64	C	1.132547	-0.349017	-0.202739
C65	C	1.171348	-0.378911	-0.144399
O66	O	1.099629	-0.433189	-0.252308
O67	O	1.243144	-0.442831	-0.036468
C68	C	1.369473	-0.054580	-0.104438
C69	C	1.453884	-0.045562	-0.087409
C70	C	1.211522	-0.043839	-0.342486
C71	C	1.228624	-0.030244	-0.426899
C72	C	1.171551	0.060655	-0.144421
C73	C	1.171619	0.118780	-0.144430
C74	C	1.301328	0.027546	-0.536084
C75	C	1.285254	0.014766	-0.456767
C76	C	1.188043	-0.062492	-0.476344
C77	C	1.204107	-0.049718	-0.555665
C78	C	1.260751	-0.004699	-0.585529
C79	C	1.163530	-0.081962	-0.605110
C80	C	1.179596	-0.069190	-0.684424
C81	C	1.236239	-0.024174	-0.714293
C82	C	1.276817	0.008073	-0.664843
C83	C	1.106890	-0.126983	-0.575244
C84	C	1.066313	-0.159228	-0.624689
C85	C	1.082375	-0.146454	-0.704005
C86	C	1.139018	-0.101438	-0.733874
C87	C	1.041796	-0.178701	-0.753455
C88	C	1.057862	-0.165929	-0.832769
C89	C	1.155083	-0.088666	-0.813188
C90	C	1.131460	-0.107478	0.052926
C91	C	1.114506	-0.120910	0.137368
H92	H	0.479042	-0.091369	-0.173883
H93	H	1.322933	0.044737	-0.689160
F94	F	1.091235	-0.262594	-0.264819
H95	H	1.141926	-0.099148	-0.452018
F96	F	1.290313	-0.639767	0.034343
H97	H	0.864508	-0.060035	-0.114786
F98	F	0.825684	-0.032508	-0.062775
F99	F	1.006030	-0.207139	-0.592897
H100	H	1.347445	0.064210	-0.560402
H101	H	1.318299	0.041028	-0.416510
H102	H	0.995682	-0.215359	-0.729127
F103	F	0.723569	0.011757	0.020771
F104	F	0.517877	-0.118916	-0.225875
F105	F	0.619983	-0.163169	-0.309426
H106	H	0.587335	0.017230	0.031095
H107	H	0.756220	-0.168634	-0.319762
H108	H	1.024820	-0.192186	-0.873028
F109	F	1.089797	-0.140578	-0.490829
H110	H	0.900110	-0.153231	-0.290708
H111	H	0.443455	0.001823	0.002031
H112	H	1.241624	-0.279504	-0.038553
H113	H	1.062327	-0.518614	-0.308603
H114	H	1.241699	-0.378543	-0.038562
H115	H	1.201200	-0.052002	-0.837506
F116	F	1.290253	-0.527080	0.034348
H117	H	1.249320	-0.013778	-0.778875
F118	F	1.251606	-0.775633	-0.023992
H119	H	1.241968	-0.880865	-0.038593
H120	H	1.101213	-0.772382	-0.250268
F121	F	1.091563	-0.877603	-0.264850
H122	H	1.062367	-0.617659	-0.308606
H123	H	1.100990	-0.369127	-0.250248
