data_functionalizedCrystal
_audit_creation_method	'MofGen! by Chris Wilmer'
_symmetry_space_group_name_H-M	'P1'
_symmetry_Int_Tables_number	1
_symmetry_cell_setting	triclinic
loop_
_symmetry_equiv_pos_as_xyz
  x,y,z
_cell_length_a	11.792241
_cell_length_b	13.262390
_cell_length_c	10.268362
_cell_angle_alpha	105.921873
_cell_angle_beta	90.005428
_cell_angle_gamma	84.317877
loop_
_atom_site_label
_atom_site_type_symbol
_atom_site_fract_x
_atom_site_fract_y
_atom_site_fract_z
O1	O	0.152886	1.393572	0.601925
O2	O	0.169507	1.088076	0.493716
O3	O	-0.003988	1.248238	0.550437
O4	O	0.326381	1.233411	0.545204
O5	O	-0.003995	1.248224	0.333832
O6	O	0.169500	1.088062	0.277111
O7	O	0.152879	1.393558	0.385319
Cu8	Cu	0.161189	1.240809	0.311437
Cu9	Cu	0.161197	1.240825	0.567598
O10	O	0.326374	1.233397	0.328598
C11	C	0.168572	1.048959	0.371560
C12	C	0.165782	0.932423	0.330282
C13	C	0.157917	0.603966	0.686234
C14	C	0.160533	0.713458	0.725019
C15	C	0.161846	0.768205	0.626338
C16	C	0.160541	0.713449	0.488865
C17	C	0.157916	0.603947	0.450077
C18	C	0.161845	0.768186	0.390181
C19	C	0.160540	0.713429	0.252709
C20	C	0.157916	0.603938	0.213927
C21	C	0.156604	0.549192	0.312608
C22	C	0.164470	0.877687	0.428970
C23	C	0.164469	0.877668	0.192813
C24	C	0.161853	0.768176	0.154028
C25	C	-0.046281	1.247299	0.441805
C26	C	-0.172289	1.244512	0.440819
C27	C	-0.402992	1.239386	0.439025
C28	C	-0.274612	1.242234	0.440022
C29	C	0.368667	1.234335	0.437233
C30	C	0.494675	1.237123	0.438228
C31	C	0.153814	1.432675	0.507478
C32	C	0.156604	1.549211	0.548764
N33	N	0.161182	1.240805	0.131270
C34	C	0.161195	1.240820	-0.134395
C35	C	0.161191	1.240808	0.013438
N36	N	0.161195	1.240838	0.747768
H37	H	0.160790	0.723578	0.042096
H38	H	0.165536	0.922242	0.112459
C39	C	0.156487	0.543709	0.062703
N40	N	0.155417	0.498345	-0.051200
C41	C	0.161956	0.773683	0.876234
N42	N	0.163024	0.819046	0.990137
C43	C	0.165910	0.937906	0.580186
N44	N	0.166997	0.983261	0.694090
C45	C	0.153741	0.428741	0.269950
N46	N	0.151589	0.338016	0.237824
H47	H	0.156837	0.559383	0.766565
H48	H	0.163977	0.857358	0.657925
