data_functionalizedCrystal
_audit_creation_method	'MofGen! by Chris Wilmer'
_symmetry_space_group_name_H-M	'P1'
_symmetry_Int_Tables_number	1
_symmetry_cell_setting	triclinic
loop_
_symmetry_equiv_pos_as_xyz
  x,y,z
_cell_length_a	15.944551
_cell_length_b	16.109302
_cell_length_c	15.186229
_cell_angle_alpha	89.994701
_cell_angle_beta	89.995303
_cell_angle_gamma	83.480259
loop_
_atom_site_label
_atom_site_type_symbol
_atom_site_fract_x
_atom_site_fract_y
_atom_site_fract_z
O1	O	0.107969	1.103165	-0.073270
O2	O	0.121405	0.861108	-0.073263
O3	O	-0.007590	0.988746	-0.073259
O4	O	0.236964	0.975526	-0.073274
O5	O	-0.007592	0.988738	0.073198
O6	O	0.121403	0.861099	0.073194
O7	O	0.107967	1.103157	0.073187
Zn8	Zn	0.114685	0.982127	0.096444
Zn9	Zn	0.114687	0.982138	-0.096520
O10	O	0.236962	0.975518	0.073183
C11	C	0.120860	0.830128	-0.000034
C12	C	0.119228	0.737833	-0.000031
C13	C	0.115453	0.525486	0.079794
C14	C	0.113910	0.438765	0.079791
C15	C	0.113917	0.438785	-0.079884
C16	C	0.115453	0.525505	-0.079880
C17	C	0.116225	0.568852	-0.000038
C18	C	0.113147	0.395412	-0.000045
C19	C	0.111474	0.301386	-0.000049
C20	C	0.117896	0.662885	-0.000034
C21	C	-0.038885	0.988193	-0.000030
C22	C	-0.132130	0.986548	-0.000030
C23	C	-0.346960	0.903499	-0.000039
C24	C	-0.407990	0.942060	0.072172
C25	C	-0.302855	0.983571	-0.000036
C26	C	-0.407972	0.942087	-0.072224
C27	C	-0.467767	0.980690	-0.000047
C28	C	-0.362658	1.022155	0.072235
C29	C	-0.362633	1.022171	-0.072226
C30	C	-0.423646	1.060790	0.000003
C31	C	-0.207853	0.985229	-0.000030
C32	C	-0.562767	0.979039	-0.000047
C33	C	0.268257	0.976071	-0.000048
C34	C	0.361502	0.977716	-0.000054
C35	C	0.108513	1.134136	-0.000044
C36	C	0.110145	1.226432	-0.000053
N37	N	0.114683	0.982125	0.228137
N38	N	0.114683	0.982146	-0.228213
C39	C	0.057583	1.038663	0.453861
C40	C	0.057581	1.038665	0.546051
C41	C	0.171785	0.925602	0.546056
C42	C	0.171782	0.925596	0.453868
C43	C	0.114682	0.982131	0.407773
C44	C	0.114683	0.982140	0.592151
C45	C	0.114681	0.982142	0.692107
C46	C	0.114683	0.982128	0.307811
H47	H	0.113289	0.403481	-0.144889
H48	H	0.116080	0.560815	-0.144894
O49	O	-0.338889	1.062654	0.145084
C50	C	-0.378977	1.145301	0.145261
H51	H	-0.397567	1.164729	0.075113
H52	H	-0.437914	1.149028	0.188235
C53	C	-0.295206	1.180441	0.268318
C54	C	-0.318032	1.204305	0.182160
H55	H	-0.257615	1.216838	0.291083
H56	H	-0.268200	1.124759	0.268202
H57	H	-0.344326	1.183548	0.304119
H58	H	-0.268914	1.201189	0.146359
H59	H	-0.345028	1.259989	0.182271
H60	H	0.011085	1.084697	0.583573
H61	H	0.011088	1.084696	0.416333
O62	O	0.227138	0.870658	0.590934
C63	C	0.182140	0.819359	0.644260
H64	H	0.116421	0.852469	0.658071
H65	H	0.176416	0.757911	0.608745
C66	C	0.310213	0.760936	0.714864
C67	C	0.229498	0.801605	0.731833
H68	H	0.339427	0.749981	0.768882
H69	H	0.340530	0.795495	0.678936
H70	H	0.305432	0.709734	0.685267
H71	H	0.234281	0.852811	0.761420
H72	H	0.199183	0.767054	0.767769
O73	O	0.116154	0.567472	0.157428
C74	C	0.115160	0.510593	0.227889
H75	H	0.087492	0.452220	0.204478
H76	H	0.182341	0.492647	0.252439
C77	C	0.094683	0.623249	0.332070
C78	C	0.060693	0.551557	0.303319
H79	H	0.061088	0.648518	0.378601
H80	H	0.095356	0.661570	0.284600
H81	H	0.150666	0.608284	0.352523
H82	H	0.004715	0.566525	0.282857
H83	H	0.060010	0.513239	0.350787
O84	O	0.113009	0.396624	0.157320
C85	C	0.039423	0.355864	0.162090
H86	H	-0.010924	0.388584	0.116784
H87	H	0.054692	0.288013	0.140643
C88	C	0.068265	0.318612	0.313117
C89	C	0.006425	0.358803	0.257478
H90	H	0.047911	0.320421	0.371957
H91	H	0.117843	0.346069	0.309903
H92	H	0.080984	0.262073	0.295234
H93	H	-0.006285	0.415343	0.275354
H94	H	-0.043156	0.331355	0.260697
H95	H	-0.313630	0.837035	0.000035
O96	O	-0.431917	0.901522	0.144939
C97	C	-0.392469	0.818632	0.144699
H98	H	-0.374215	0.799341	0.074428
H99	H	-0.333392	0.814274	0.187495
C100	C	-0.476261	0.783729	0.267857
C101	C	-0.453848	0.760032	0.181548
H102	H	-0.514120	0.747581	0.290591
H103	H	-0.502836	0.839574	0.268022
H104	H	-0.427024	0.780097	0.303510
H105	H	-0.503083	0.763675	0.145895
H106	H	-0.427283	0.704186	0.181378
O107	O	-0.463093	1.140205	0.000093
C108	C	-0.402198	1.197188	0.000829
H109	H	-0.340454	1.165334	0.028901
H110	H	-0.391276	1.218970	-0.069246
C111	C	-0.509675	1.312164	0.023894
C112	C	-0.433841	1.273042	0.058379
H113	H	-0.529194	1.358957	0.059390
H114	H	-0.550701	1.273774	0.023395
H115	H	-0.500563	1.330308	-0.034501
H116	H	-0.442957	1.254890	0.116769
H117	H	-0.392817	1.311431	0.058889
H118	H	-0.342513	1.056013	-0.133280
O119	O	-0.431807	0.901565	-0.145029
C120	C	-0.392385	0.818665	-0.144738
H121	H	-0.332986	0.814678	-0.102462
H122	H	-0.437623	0.775543	-0.116554
C123	C	-0.441408	0.796645	-0.291523
C124	C	-0.368448	0.791749	-0.239606
H125	H	-0.426645	0.780039	-0.350042
H126	H	-0.467970	0.852495	-0.291719
H127	H	-0.479099	0.760710	-0.268026
H128	H	-0.330764	0.827691	-0.263097
H129	H	-0.341879	0.735904	-0.239416
O130	O	0.227334	0.870648	0.409229
C131	C	0.277724	0.820741	0.469679
H132	H	0.278689	0.854828	0.535389
H133	H	0.250431	0.758982	0.479498
C134	C	0.367144	0.761739	0.352980
C135	C	0.368336	0.803608	0.433684
H136	H	0.423037	0.751167	0.330776
H137	H	0.333195	0.795359	0.312252
H138	H	0.344397	0.710277	0.361173
H139	H	0.391073	0.855073	0.425488
H140	H	0.402291	0.769996	0.474409
