data_functionalizedCrystal
_audit_creation_method	'MofGen! by Chris Wilmer'
_symmetry_space_group_name_H-M	'P1'
_symmetry_Int_Tables_number	1
_symmetry_cell_setting	triclinic
loop_
_symmetry_equiv_pos_as_xyz
  x,y,z
_cell_length_a	14.853567
_cell_length_b	11.026607
_cell_length_c	10.065908
_cell_angle_alpha	79.267606
_cell_angle_beta	81.242863
_cell_angle_gamma	83.889526
loop_
_atom_site_label
_atom_site_type_symbol
_atom_site_fract_x
_atom_site_fract_y
_atom_site_fract_z
O1	O	1.232227	-0.140673	-0.113393
O2	O	0.972816	-0.159548	-0.113416
O3	O	1.081021	0.026578	-0.113401
O4	O	1.124022	-0.326799	-0.113407
O5	O	1.060410	-0.009058	0.113585
O6	O	0.952204	-0.195184	0.113570
O7	O	1.211616	-0.176309	0.113593
Zn8	Zn	1.078637	-0.191405	0.149621
Zn9	Zn	1.105794	-0.144452	-0.149443
O10	O	1.103410	-0.362436	0.113579
C11	C	0.928784	-0.176510	0.000074
C12	C	0.828287	-0.173946	0.000066
N13	N	1.060110	-0.223448	0.353724
C14	C	1.062783	0.053985	0.000089
C15	C	1.039136	0.188740	0.000083
C16	C	0.396161	-0.052551	0.000098
C17	C	0.410561	-0.273675	0.000093
C18	C	0.504984	-0.276084	0.000089
C19	C	0.545000	-0.166725	0.000087
C20	C	0.490593	-0.054956	0.000090
C21	C	0.559400	-0.387849	0.000072
C22	C	0.653829	-0.390263	0.000066
C23	C	0.693846	-0.280904	0.000074
C24	C	0.639432	-0.169130	0.000078
C25	C	0.679448	-0.059771	0.000077
C26	C	0.625035	0.052002	0.000091
C27	C	0.530610	0.054403	0.000098
C28	C	0.788271	-0.283305	0.000067
C29	C	0.773880	-0.062177	0.000068
C30	C	1.255648	-0.159347	0.000100
C31	C	1.356145	-0.161910	0.000100
C32	C	1.121649	-0.389842	0.000085
C33	C	1.145297	-0.524595	0.000083
C34	C	1.104431	0.262435	0.000086
C35	C	1.079992	0.401711	0.000079
C36	C	1.099338	-0.155598	0.421508
C37	C	1.085088	-0.180269	0.578673
N38	N	1.124321	-0.112409	0.646454
H39	H	0.806453	0.026878	0.000072
C40	C	1.298785	0.478920	-0.116590
C41	C	1.245195	0.421406	0.000092
H42	H	1.360456	0.445576	-0.116585
H43	H	1.295463	0.565418	-0.116581
H44	H	1.276787	0.464750	-0.195738
H45	H	1.267189	0.435583	0.079241
H46	H	1.248522	0.334887	0.000095
C47	C	0.757798	-0.539569	0.116715
C48	C	0.713645	-0.513110	0.000042
H49	H	0.794733	-0.615404	0.116690
H50	H	0.713483	-0.546482	0.195861
H51	H	0.795134	-0.474770	0.116707
H52	H	0.676304	-0.577905	0.000055
H53	H	0.757966	-0.506206	-0.079124
C54	C	0.913401	-0.395962	-0.116639
C55	C	0.848081	-0.406152	0.000050
H56	H	0.950320	-0.471812	-0.116649
H57	H	0.950742	-0.331189	-0.116622
H58	H	0.883438	-0.377996	-0.195783
H59	H	0.878044	-0.424110	0.079194
H60	H	0.810736	-0.470946	0.000046
H61	H	1.040946	-0.256623	0.636988
C62	C	0.934368	0.370267	0.000070
C63	C	0.939243	0.242748	0.000073
H64	H	0.872696	0.403602	0.000072
H65	H	0.970729	0.409262	-0.079080
H66	H	0.956361	0.384414	0.079231
H67	H	0.917256	0.228601	-0.079094
H68	H	0.902869	0.203741	0.079230
H69	H	1.168454	-0.036046	0.588139
C70	C	1.121782	0.061457	0.377151
C71	C	1.158926	-0.052541	0.342753
H72	H	1.158571	0.125074	0.328515
H73	H	1.120040	0.058424	0.472423
H74	H	1.061547	0.078193	0.353820
H75	H	1.219159	-0.069281	0.366093
H76	H	1.160678	-0.049510	0.247459
C77	C	0.997947	-0.331016	0.572899
C78	C	1.000530	-0.326528	0.432442
H79	H	0.961168	-0.394661	0.621491
H80	H	0.972739	-0.253696	0.596242
H81	H	1.058184	-0.347758	0.596222
H82	H	0.940293	-0.309777	0.409117
H83	H	1.025735	-0.403865	0.409089
C84	C	1.257911	0.265934	-0.116598
C85	C	1.204324	0.208423	0.000088
H86	H	1.319581	0.232584	-0.116601
H87	H	1.254596	0.352432	-0.116586
H88	H	1.235907	0.251770	-0.195744
H89	H	1.226324	0.222594	0.079234
H90	H	1.207644	0.121904	0.000089
H91	H	0.486296	0.145398	0.000142
C92	C	0.763399	0.146482	0.000074
C93	C	0.669028	0.172208	0.000090
H94	H	0.790557	0.220690	0.000081
H95	H	0.788998	0.113097	-0.079083
H96	H	0.774640	0.088226	0.079228
H97	H	0.657786	0.230458	-0.079070
H98	H	0.643420	0.205611	0.079255
H99	H	0.377976	-0.362708	0.000083
C100	C	0.391426	0.165783	0.000107
C101	C	0.336358	0.070308	0.000111
H102	H	0.354503	0.241628	0.000122
H103	H	0.435732	0.172670	-0.079049
H104	H	0.421379	0.147806	0.079261
H105	H	0.306411	0.088281	-0.079050
H106	H	0.292036	0.063423	0.079275
C107	C	0.421041	-0.482336	0.000110
C108	C	0.515413	-0.508052	0.000083
H109	H	0.393883	-0.556551	0.000129
H110	H	0.409792	-0.424098	-0.079038
H111	H	0.395443	-0.448937	0.079273
H112	H	0.541013	-0.541443	-0.079086
H113	H	0.526669	-0.566311	0.079238
H114	H	1.005994	0.441724	0.000064
