data_functionalizedCrystal
_audit_creation_method	'MofGen! by Chris Wilmer'
_symmetry_space_group_name_H-M	'P1'
_symmetry_Int_Tables_number	1
_symmetry_cell_setting	triclinic
loop_
_symmetry_equiv_pos_as_xyz
  x,y,z
_cell_length_a	12.503572
_cell_length_b	17.699083
_cell_length_c	17.699083
_cell_angle_alpha	83.283015
_cell_angle_beta	93.515225
_cell_angle_gamma	86.494917
loop_
_atom_site_label
_atom_site_type_symbol
_atom_site_fract_x
_atom_site_fract_y
_atom_site_fract_z
O1	O	0.089171	-1.008441	-0.091332
O2	O	0.089207	-0.788064	-0.103783
O3	O	0.089179	-0.904478	0.012631
O4	O	0.089200	-0.892027	-0.207746
O5	O	-0.089461	-0.895723	0.003862
O6	O	-0.089433	-0.779309	-0.112552
O7	O	-0.089468	-0.999686	-0.100101
Cu8	Cu	-0.105762	-0.888698	-0.107128
Cu9	Cu	0.105500	-0.899052	-0.096757
O10	O	-0.089440	-0.883272	-0.216516
C11	C	-0.000141	-0.899655	0.036444
C12	C	-0.000142	-0.898316	0.120462
C13	C	-0.000109	-0.755490	-0.107721
C14	C	-0.000095	-0.671473	-0.106382
N15	N	-0.254352	-0.881421	-0.114421
C16	C	-0.473465	-0.870717	-0.125157
C17	C	-0.526803	-0.917037	-0.078723
C18	C	-0.648725	-0.911081	-0.084697
C19	C	-0.351532	-0.876672	-0.119185
N20	N	0.254091	-0.906335	-0.089457
C21	C	-0.000151	-1.032260	-0.096163
C22	C	-0.000157	-1.116278	-0.097502
C23	C	-0.000089	-0.622852	-0.174715
C24	C	-0.000103	-0.543908	-0.173453
C25	C	-0.000116	-0.513587	-0.103857
C26	C	-0.000125	-0.562213	-0.035519
C27	C	-0.000119	-0.641155	-0.036782
C28	C	-0.000152	-0.243849	-0.030425
C29	C	-0.000155	-0.164901	-0.029168
C30	C	-0.000137	-0.146602	-0.167097
C31	C	-0.000130	-0.225544	-0.168359
C32	C	-0.000145	-0.274163	-0.100022
C33	C	-0.000132	-0.359763	-0.101391
C34	C	-0.000121	-0.427989	-0.102487
C35	C	-0.000118	-0.888096	-0.240328
C36	C	-0.000111	-0.889435	-0.324345
C37	C	-0.000154	-0.966649	0.169082
C38	C	-0.000144	-0.965387	0.248026
C39	C	-0.000130	-0.895791	0.278347
C40	C	-0.000114	-0.827453	0.229721
C41	C	-0.000116	-0.828716	0.150779
C42	C	-0.000105	-0.822359	0.548084
C43	C	-0.000106	-0.821101	0.627032
C44	C	-0.000133	-0.959029	0.645331
C45	C	-0.000135	-0.960292	0.566389
C46	C	-0.000113	-0.891955	0.517770
C47	C	-0.000122	-0.893324	0.432171
C48	C	-0.000129	-0.894421	0.363945
H49	H	-0.480901	-0.961167	-0.034484
H50	H	-0.519362	-0.826591	-0.169395
H51	H	-0.000172	-1.023322	0.144401
O52	O	-0.000123	-0.652175	-0.242390
C53	C	-0.000046	-0.625685	-0.379065
C54	C	-0.000029	-0.592379	-0.302476
H55	H	0.000053	-0.577358	-0.427664
H56	H	-0.074820	-0.658503	-0.386828
H57	H	0.074701	-0.665866	-0.379395
H58	H	-0.074725	-0.552166	-0.302092
H59	H	0.074795	-0.559607	-0.294743
H60	H	-0.000097	-0.504324	-0.229097
O61	O	-0.000167	-0.254869	-0.236033
C62	C	-0.000094	-0.228387	-0.372709
C63	C	-0.000072	-0.195076	-0.296122
H64	H	0.000005	-0.180062	-0.421310
H65	H	-0.074869	-0.261203	-0.380469
H66	H	0.074652	-0.268569	-0.373039
H67	H	-0.074767	-0.154862	-0.295739
H68	H	0.074753	-0.162305	-0.288393
H69	H	-0.000130	-0.107005	-0.222741
O70	O	-0.000222	-0.135569	0.038505
C71	C	-0.000190	-0.162048	0.175187
C72	C	-0.000142	-0.195367	0.098606
H73	H	-0.000103	-0.210380	0.223800
H74	H	-0.074970	-0.121915	0.175600
H75	H	0.074551	-0.129178	0.182856
H76	H	-0.074833	-0.228274	0.090888
H77	H	0.074686	-0.235459	0.098229
H78	H	-0.000165	-0.283426	0.025219
H79	H	-0.000151	-0.537519	0.021146
O80	O	-0.000071	-0.688283	0.029669
C81	C	-0.000151	-0.698105	0.166611
C82	C	-0.000175	-0.644649	0.091412
H83	H	-0.000257	-0.662847	0.216548
H84	H	0.074630	-0.739164	0.173192
H85	H	-0.074891	-0.731881	0.165757
H86	H	0.074516	-0.610822	0.092213
H87	H	-0.075004	-0.603640	0.084860
H88	H	-0.000157	-1.021031	0.287610
H89	H	-0.000152	-1.016964	0.541706
O90	O	0.000047	-0.755934	0.500949
C91	C	0.092637	-0.642979	0.465674
C92	C	0.092590	-0.718179	0.519119
H93	H	0.167462	-0.612441	0.480334
H94	H	0.017931	-0.605012	0.473031
H95	H	0.092584	-0.655842	0.404045
H96	H	0.092682	-0.705388	0.580769
H97	H	0.167290	-0.756124	0.511695
O98	O	0.000044	-0.759902	0.259271
C99	C	0.092637	-0.682945	0.342281
C100	C	0.092583	-0.759488	0.308889
H101	H	0.167458	-0.682578	0.382392
H102	H	0.017927	-0.675232	0.375166
H103	H	0.092595	-0.634332	0.293954
H104	H	0.092663	-0.808147	0.357169
H105	H	0.167287	-0.767134	0.275984
H106	H	-0.000145	-1.014673	0.684927
H107	H	-0.000096	-0.764424	0.651716
H108	H	-0.000106	-0.773073	0.111192
