data_functionalizedCrystal
_audit_creation_method	'MofGen! by Chris Wilmer'
_symmetry_space_group_name_H-M	'P1'
_symmetry_Int_Tables_number	1
_symmetry_cell_setting	triclinic
loop_
_symmetry_equiv_pos_as_xyz
  x,y,z
_cell_length_a	19.077269
_cell_length_b	12.759400
_cell_length_c	19.076919
_cell_angle_alpha	92.276034
_cell_angle_beta	94.669058
_cell_angle_gamma	87.716118
loop_
_atom_site_label
_atom_site_type_symbol
_atom_site_fract_x
_atom_site_fract_y
_atom_site_fract_z
Zn1	Zn	1.061721	-0.503246	-0.355291
Zn2	Zn	1.066398	-0.672151	-0.237418
Zn3	Zn	0.948576	-0.489708	-0.242159
Zn4	Zn	0.943828	-0.672098	-0.360001
O5	O	1.005131	-0.584301	-0.298717
O6	O	1.160988	-0.531339	-0.335701
O7	O	1.054712	-0.642306	-0.139399
O8	O	0.963615	-0.344485	-0.257179
O9	O	1.164424	-0.655433	-0.249099
O10	O	1.046742	-0.354431	-0.340297
O11	O	0.968150	-0.508265	-0.142882
O12	O	0.849299	-0.508214	-0.261745
O13	O	0.955523	-0.655343	-0.458024
O14	O	0.845811	-0.642216	-0.348324
O15	O	1.042138	-0.531288	-0.454564
O16	O	1.050109	-0.819162	-0.253666
O17	O	0.960058	-0.819124	-0.343727
C18	C	0.821977	-0.573741	-0.306060
C19	C	0.743623	-0.569250	-0.309218
C20	C	0.708600	-0.631636	-0.265546
C21	C	0.634977	-0.627416	-0.268523
C22	C	0.596378	-0.560805	-0.315169
C23	C	0.631406	-0.498417	-0.358845
C24	C	0.705027	-0.502642	-0.355872
C25	C	0.376002	-0.541257	-0.328908
C26	C	0.302376	-0.537034	-0.331877
C27	C	0.305952	-0.666036	-0.241555
C28	C	0.379575	-0.670250	-0.238582
C29	C	0.414596	-0.607866	-0.282262
N30	N	0.521124	-0.556489	-0.318211
N31	N	0.489849	-0.612189	-0.279223
C32	C	1.005094	-0.857265	-0.298708
C33	C	1.005142	-0.974046	-0.298724
C34	C	1.048402	-1.034008	-0.342042
C35	C	1.048434	-1.143735	-0.342058
C36	C	0.961944	-1.133527	-0.255433
C37	C	0.961909	-1.023802	-0.255421
C38	C	1.091635	-0.984251	-0.385345
C39	C	1.134899	-1.044214	-0.428666
C40	C	1.134932	-1.153941	-0.428682
C41	C	1.091699	-1.203705	-0.385377
C42	C	1.188999	-0.594902	-0.291346
C43	C	1.267353	-0.599420	-0.288205
C44	C	0.997779	-0.594820	-0.482587
C45	C	0.994646	-0.599303	-0.560942
C46	C	1.005186	-0.310272	-0.298742
C47	C	1.005210	-0.193497	-0.298752
C48	C	1.038268	-0.536823	-0.595953
C49	C	1.035316	-0.541030	-0.669576
C50	C	0.988745	-0.607724	-0.708186
C51	C	0.945119	-0.670206	-0.673170
C52	C	0.948068	-0.665992	-0.599549
C53	C	0.975086	-0.627247	-0.928564
C54	C	0.972142	-0.631458	-1.002190
C55	C	1.062339	-0.502280	-0.998591
C56	C	1.065286	-0.498077	-0.924968
C57	C	1.021657	-0.560555	-0.889958
N58	N	0.985728	-0.612029	-0.783440
N59	N	1.024672	-0.556244	-0.814706
C60	C	1.012494	-0.573749	-0.115561
C61	C	1.015764	-0.568978	-0.037201
H62	H	0.270950	-0.482782	-0.369859
C63	C	1.173258	-0.880545	-0.467103
C64	C	1.182417	-0.989518	-0.476266
H65	H	1.202597	-0.846782	-0.496488
H66	H	1.125475	-0.860473	-0.479282
H67	H	1.185501	-0.860477	-0.419327
H68	H	1.170169	-1.009587	-0.524041
H69	H	1.230211	-1.009598	-0.464092
H70	H	0.277430	-0.716827	-0.205995
H71	H	1.170153	-1.202760	-0.463961
C72	C	0.555936	-0.631612	-0.177037
C73	C	0.596475	-0.695991	-0.220521
H74	H	0.532163	-0.673953	-0.147406
H75	H	0.585727	-0.585893	-0.148963
H76	H	0.522418	-0.591342	-0.205253
H77	H	0.629997	-0.736256	-0.192304
H78	H	0.566682	-0.741728	-0.248597
H79	H	0.404507	-0.490461	-0.364475
H80	H	0.410998	-0.724491	-0.200598
H81	H	0.599973	-0.444185	-0.396828
H82	H	0.733541	-0.451840	-0.391434
C83	C	1.138823	-1.366446	-0.432573
C84	C	1.091727	-1.324320	-0.385401
H85	H	1.138842	-1.440906	-0.432584
H86	H	1.124769	-1.343504	-0.478532
H87	H	1.184802	-1.343509	-0.418584
H88	H	1.045747	-1.347250	-0.399393
H89	H	1.105778	-1.347272	-0.339432
C90	C	0.923602	-1.297198	-0.216984
C91	C	0.914432	-1.188226	-0.207829
H92	H	0.894273	-1.330964	-0.187590
H93	H	0.911358	-1.317276	-0.264752
H94	H	0.971394	-1.317259	-0.204808
H95	H	0.866641	-1.168165	-0.220010
H96	H	0.926672	-1.168140	-0.160050
C97	C	0.939550	-0.678149	-0.817313
C98	C	0.927135	-0.695929	-0.890086
H99	H	0.909942	-0.720550	-0.793558
H100	H	0.987388	-0.695566	-0.803352
H101	H	0.929726	-0.606272	-0.805674
H102	H	0.936963	-0.767804	-0.901726
H103	H	0.879286	-0.678519	-0.904052
H104	H	1.091615	-0.894907	-0.385336
H105	H	0.926682	-0.974980	-0.220148
C106	C	0.791779	-0.777110	-0.252249
C107	C	0.751028	-0.704857	-0.214273
H108	H	0.817973	-0.822312	-0.220593
H109	H	0.761837	-0.817471	-0.284070
H110	H	0.823172	-0.740546	-0.277829
H111	H	0.719630	-0.741421	-0.188697
H112	H	0.780972	-0.664492	-0.182439
C113	C	1.109809	-0.434192	-0.810517
C114	C	1.116445	-0.424714	-0.882530
H115	H	1.141388	-0.388891	-0.784319
H116	H	1.062925	-0.415437	-0.800370
H117	H	1.120626	-0.504674	-0.798022
H118	H	1.105623	-0.354232	-0.895025
H119	H	1.163339	-0.443462	-0.892681
H120	H	1.097858	-0.451412	-1.027103
H121	H	0.934216	-0.685770	-1.033625
C122	C	0.931979	-0.815702	-0.756338
C123	C	0.893927	-0.743518	-0.715609
H124	H	0.900374	-0.860967	-0.782533
H125	H	0.957530	-0.779094	-0.787724
H126	H	0.963831	-0.856012	-0.726375
H127	H	0.862077	-0.703203	-0.745572
H128	H	0.868364	-0.780130	-0.684219
C129	C	1.127120	-0.409551	-0.599798
C130	C	1.089459	-0.463507	-0.553516
H131	H	1.158719	-0.364283	-0.573599
H132	H	1.152925	-0.458523	-0.627427
H133	H	1.095255	-0.369242	-0.629748
H134	H	1.121324	-0.503823	-0.523569
H135	H	1.063653	-0.414529	-0.525875
H136	H	1.070839	-0.490155	-0.698078
H137	H	0.912539	-0.716859	-0.571044
