data_functionalizedCrystal
_audit_creation_method	'MofGen! by Chris Wilmer'
_symmetry_space_group_name_H-M	'P1'
_symmetry_Int_Tables_number	1
_symmetry_cell_setting	triclinic
loop_
_symmetry_equiv_pos_as_xyz
  x,y,z
_cell_length_a	18.760492
_cell_length_b	14.560438
_cell_length_c	14.560438
_cell_angle_alpha	90.000844
_cell_angle_beta	59.999430
_cell_angle_gamma	59.999761
loop_
_atom_site_label
_atom_site_type_symbol
_atom_site_fract_x
_atom_site_fract_y
_atom_site_fract_z
Zr1	Zr	0.780263	-0.120568	0.884716
O2	O	0.928971	-0.267220	0.738062
O3	O	0.631551	-0.075606	0.929678
O4	O	0.780261	-0.267214	0.929670
O5	O	0.780263	0.075526	0.738071
O6	O	0.780263	-0.267215	1.080809
O7	O	0.780261	-0.075612	0.738070
O8	O	0.514248	0.075537	1.080823
O9	O	1.046279	-0.267226	0.738057
O10	O	0.692721	-0.056437	1.061641
O11	O	0.692721	0.056356	0.948849
O12	O	0.867808	-0.169238	0.948839
O13	O	0.867808	-0.056444	0.836047
Zr14	Zr	0.780269	0.120478	1.125765
Zr15	Zr	0.780266	-0.120570	1.125764
Zr16	Zr	0.780266	0.120480	0.884717
Zr17	Zr	0.967354	-0.120577	0.884707
Zr18	Zr	0.593178	0.120487	1.125774
O19	O	0.928980	0.075517	1.080803
O20	O	0.928976	-0.267223	1.080802
O21	O	0.928976	0.075519	0.738064
O22	O	0.631560	0.267131	1.272419
O23	O	0.631556	-0.075609	1.272417
O24	O	0.631556	0.267133	0.929680
O25	O	0.780268	-0.075616	1.272411
O26	O	0.780270	0.267125	1.080811
O27	O	0.780268	0.267126	0.929673
O28	O	0.780270	0.075522	1.272411
O29	O	1.046281	-0.267227	0.929658
O30	O	0.514251	0.267138	1.080824
O31	O	0.514253	0.267136	1.272425
O32	O	0.514251	0.075535	1.272424
O33	O	1.046281	-0.075625	0.738058
O34	O	1.046284	-0.075626	0.929659
O35	O	0.692724	0.169148	1.061642
O36	O	0.692724	0.056355	1.174434
O37	O	0.867811	-0.056446	1.061633
O38	O	0.867811	0.056348	0.948841
C39	C	0.546243	-0.000034	1.005252
C40	C	0.466818	-0.000030	1.005255
C41	C	0.780262	-0.000042	0.703726
C42	C	0.780261	-0.000042	0.601395
C43	C	0.780270	0.301470	1.005242
C44	C	0.780271	0.403801	1.005243
C45	C	0.131024	0.058823	0.946350
C46	C	0.131028	-0.058936	1.064107
C47	C	0.205644	-0.058930	1.064115
C48	C	0.242954	-0.000047	1.005239
C49	C	0.205648	0.058828	0.946354
C50	C	0.242962	-0.117814	1.122990
C51	C	0.317583	-0.117810	1.123000
C52	C	0.354889	-0.058921	1.064129
C53	C	0.317578	-0.000042	1.005243
C54	C	0.354888	0.058840	0.946366
C55	C	0.317574	0.117727	0.887486
C56	C	0.242954	0.117718	0.887483
C57	C	0.429508	-0.058912	1.064132
C58	C	0.429513	0.058846	0.946370
C59	C	1.014288	-0.000056	1.005230
C60	C	1.093714	-0.000060	1.005226
C61	C	0.780262	-0.301559	1.005239
C62	C	0.780261	-0.403890	1.005239
C63	C	0.871663	0.392999	0.946363
C64	C	0.871658	0.489154	0.946358
C65	C	0.688862	0.606910	1.064120
C66	C	0.688867	0.510756	1.064118
C67	C	0.688869	0.058835	0.612198
C68	C	0.688873	0.058835	0.516043
C69	C	0.871670	-0.058926	0.398286
C70	C	0.871664	-0.058919	0.494440
C71	C	0.780270	-0.000047	1.306755
C72	C	0.780271	-0.000048	1.409086
C73	C	0.546247	-0.000036	1.306766
C74	C	0.466824	-0.000033	1.409101
C75	C	0.546247	0.301481	1.005253
C76	C	0.466824	0.403816	1.005257
C77	C	0.546251	0.301479	1.306768
C78	C	0.466829	0.403813	1.409103
C79	C	1.014281	-0.301568	0.703714
C80	C	1.093703	-0.403902	0.601379
C81	C	1.014285	-0.000054	0.703716
C82	C	1.093708	-0.000057	0.601381
C83	C	1.014285	-0.301570	1.005228
C84	C	1.093708	-0.403905	1.005224
C85	C	0.429524	-0.058918	1.398281
C86	C	0.354907	-0.058937	1.494427
C87	C	0.317586	-0.000065	1.601390
C88	C	0.354893	0.058822	1.612208
C89	C	0.429514	0.058834	1.516063
C90	C	0.429527	0.510760	1.064136
C91	C	0.354910	0.606924	1.064136
C92	C	0.317587	0.596141	1.005263
C93	C	0.354891	0.489186	0.946376
C94	C	0.429511	0.393025	0.946371
C95	C	0.429531	0.392993	1.516047
C96	C	0.354916	0.489138	1.612211
C97	C	0.317594	0.596101	1.601429
C98	C	0.354899	0.606919	1.494473
C99	C	0.429518	0.510775	1.398312
C100	C	1.131010	-0.393082	0.494434
C101	C	1.205648	-0.489227	0.398270
C102	C	1.242974	-0.596191	0.409053
C103	C	1.205664	-0.607008	0.516008
C104	C	1.131032	-0.510865	0.612170
C105	C	1.131016	0.058818	0.612200
C106	C	1.205653	0.058811	0.516055
C107	C	1.242977	-0.000065	0.409091
C108	C	1.205666	-0.058947	0.398274
C109	C	1.131035	-0.058946	0.494418
C110	C	1.131008	-0.393087	1.064109
C111	C	1.205626	-0.489232	1.064127
C112	C	1.242946	-0.596195	1.005253
C113	C	1.205639	-0.607011	0.946366
C114	C	1.131018	-0.510867	0.946356
H115	H	0.459884	0.106798	0.898427
C116	C	1.090010	-0.522787	0.881556
N117	N	1.059129	-0.531773	0.832742
H118	H	0.324496	0.106753	1.699310
H119	H	1.236019	0.106764	0.524884
H120	H	0.347966	0.165662	0.839543
H121	H	1.303744	-0.674468	0.330742
C122	C	0.588323	0.724565	1.129059
N123	N	0.512596	0.813184	1.178039
C124	C	1.246724	-0.724679	0.527850
N125	N	1.277646	-0.813312	0.536766
C126	C	0.201919	-0.182583	1.187746
N127	N	0.171001	-0.231367	1.236525
H128	H	0.347959	-0.165757	1.170944
H129	H	0.256826	0.674451	1.005276
H130	H	0.459874	0.106792	1.524888
H131	H	0.459909	-0.106872	1.311195
H132	H	1.100661	-0.106886	0.485593
C133	C	0.972209	-0.123702	0.280629
N134	N	1.047937	-0.172499	0.192010
H135	H	0.614441	0.519560	1.112065
H136	H	0.459907	0.519561	1.112078
C137	C	0.313818	0.477344	0.881626
N138	N	0.282875	0.468428	0.832863
H139	H	1.100633	0.106769	0.699287
C140	C	0.588322	0.123612	0.729847
N141	N	0.512587	0.172408	0.818460
H142	H	1.236013	-0.480397	0.311192
C143	C	0.588335	0.123594	0.527935
N144	N	0.512605	0.172371	0.536896
H145	H	1.236037	-0.694114	0.898433
H146	H	0.946091	-0.106861	0.485635
H147	H	0.946079	0.480348	0.898410
C148	C	0.235503	0.701852	1.707222
N149	N	0.173668	0.781500	1.786909
C150	C	0.313880	0.724564	1.128931
N151	N	0.282976	0.813167	1.177738
C152	C	0.313826	0.724590	1.482631
N153	N	0.282882	0.813222	1.473715
H154	H	1.100633	-0.306001	1.112051
C155	C	0.089979	0.123592	0.881582
N156	N	0.059065	0.172376	0.832797
C157	C	0.235494	-0.000081	1.707142
N158	N	0.173659	-0.000093	1.786790
H159	H	1.303746	-0.000056	0.330814
H160	H	1.236066	-0.106882	0.311171
C161	C	0.470535	0.522696	1.280675
N162	N	0.501427	0.531684	1.192072
H163	H	0.324550	0.480310	1.699291
H164	H	0.459891	-0.106862	1.112065
C165	C	1.089972	-0.275431	0.482546
N166	N	1.059073	-0.186819	0.473582
H167	H	0.324541	-0.106890	1.485597
H168	H	0.946090	0.305915	0.898420
H169	H	0.459868	0.305949	0.898428
H170	H	0.459907	0.305907	1.524848
C171	C	1.246655	-0.477309	1.128903
N172	N	1.277556	-0.468325	1.177692
H173	H	1.100657	-0.519688	0.699246
H174	H	1.303708	-0.674473	1.005271
H175	H	0.100653	-0.106883	1.112036
C176	C	0.201910	0.182477	0.822711
N177	N	0.170997	0.231248	0.773920
