data_functionalizedCrystal
_audit_creation_method	'MofGen! by Chris Wilmer'
_symmetry_space_group_name_H-M	'P1'
_symmetry_Int_Tables_number	1
_symmetry_cell_setting	triclinic
loop_
_symmetry_equiv_pos_as_xyz
  x,y,z
_cell_length_a	10.489741
_cell_length_b	26.809956
_cell_length_c	10.489741
_cell_angle_alpha	89.995319
_cell_angle_beta	84.539174
_cell_angle_gamma	90.006219
loop_
_atom_site_label
_atom_site_type_symbol
_atom_site_fract_x
_atom_site_fract_y
_atom_site_fract_z
O1	O	1.694064	0.041448	0.179950
O2	O	1.322868	0.041456	0.196843
O3	O	1.516912	0.041449	0.002799
O4	O	1.500019	0.041455	0.373994
O5	O	1.516875	-0.041510	0.002828
O6	O	1.322831	-0.041503	0.196872
O7	O	1.694027	-0.041511	0.179980
Zn8	Zn	1.508423	-0.054678	0.188431
Zn9	Zn	1.508472	0.054624	0.188392
O10	O	1.499983	-0.041504	0.374024
C11	C	1.275318	-0.000022	0.195582
C12	C	1.133688	-0.000020	0.191765
C13	C	1.065548	-0.000026	0.068300
C14	C	0.973440	0.040877	0.126609
C15	C	0.973437	-0.040914	0.126667
C16	C	1.043445	0.040917	0.250124
C17	C	1.043452	-0.040911	0.250166
C18	C	0.951371	0.000003	0.308564
N19	N	1.508399	-0.129274	0.188457
C20	C	1.594383	-0.473904	0.102490
C21	C	1.594413	-0.682781	0.102471
O22	O	1.667468	-0.709788	0.029387
N23	N	1.508478	-0.708902	0.188364
C24	C	1.422524	-0.682799	0.274262
O25	O	1.349422	-0.709809	0.347309
C26	C	1.422488	-0.473922	0.274274
C27	C	1.508438	-0.447805	0.188384
C28	C	1.680325	-0.447786	0.016607
C29	C	1.680321	-0.395570	0.016617
C30	C	1.594376	-0.369471	0.102511
C31	C	1.508434	-0.395589	0.188394
C32	C	1.336529	-0.447821	0.360164
C33	C	1.336525	-0.395599	0.360157
C34	C	1.422475	-0.369481	0.274268
C35	C	1.422485	-0.317274	0.274299
N36	N	1.508421	-0.291153	0.188406
C37	C	1.594366	-0.317252	0.102512
C38	C	1.422550	-0.792462	0.274251
C39	C	1.422560	-0.844681	0.274250
C40	C	1.594449	-0.844660	0.102457
C41	C	1.594444	-0.792440	0.102466
C42	C	1.508485	-0.766342	0.188358
C43	C	1.594353	-0.207594	0.102541
C44	C	1.594345	-0.155373	0.102563
C45	C	1.422452	-0.155399	0.274350
C46	C	1.422464	-0.207616	0.274334
C47	C	1.508419	-0.233712	0.188419
O48	O	1.349459	-0.290235	0.347335
O49	O	1.667437	-0.290233	0.029456
C50	C	1.594387	-0.526120	0.102480
C51	C	1.508445	-0.552238	0.188363
C52	C	1.422500	-0.526139	0.274257
C53	C	1.508456	-0.604456	0.188362
C54	C	1.594401	-0.630555	0.102468
C55	C	1.680336	-0.604435	0.016576
C56	C	1.680332	-0.552219	0.016586
C57	C	1.336565	-0.552259	0.360150
C58	C	1.336577	-0.604475	0.360133
C59	C	1.422522	-0.630574	0.274240
C60	C	1.741577	-0.000031	0.181241
C61	C	1.883206	-0.000031	0.185058
C62	C	1.515618	-0.000030	-0.044718
C63	C	1.511801	-0.000029	-0.186348
N64	N	1.508505	0.129220	0.188356
C65	C	1.388336	-0.000023	-0.254488
C66	C	1.446642	-0.040927	-0.346596
C67	C	1.446707	0.040864	-0.346599
C68	C	1.570157	-0.040967	-0.276590
C69	C	1.570205	0.040861	-0.276584
C70	C	1.628600	-0.000054	-0.368665
C71	C	1.501277	-0.000023	0.421541
C72	C	1.505094	-0.000021	0.563170
H73	H	1.115238	0.000023	-0.033196
H74	H	1.664343	-0.228836	0.032580
H75	H	1.664340	-0.134110	0.032621
H76	H	1.394385	-0.075507	-0.377595
H77	H	1.730204	-0.000079	-0.418089
H78	H	1.622337	-0.075588	-0.245746
H79	H	1.750321	-0.625693	-0.053358
H80	H	1.074483	-0.075492	0.302376
H81	H	1.074288	0.075537	0.302312
H82	H	1.750312	-0.469031	-0.053344
H83	H	0.942444	-0.075495	0.074417
H84	H	1.352489	-0.228881	0.344285
H85	H	1.286824	-0.000062	-0.204837
H86	H	1.622417	0.075442	-0.245552
H87	H	0.942441	0.075456	0.074356
H88	H	1.266588	-0.625737	0.430086
H89	H	1.394466	0.075449	-0.377576
H90	H	1.664430	-0.771178	0.032527
H91	H	0.901947	0.000027	0.410168
H92	H	1.664431	-0.865918	0.032521
H93	H	1.352585	-0.865943	0.344202
H94	H	1.750305	-0.374308	-0.053325
H95	H	1.750320	-0.530957	-0.053353
H96	H	1.352550	-0.771217	0.344198
H97	H	1.266540	-0.469079	0.430102
H98	H	1.266524	-0.374352	0.430100
H99	H	1.352480	-0.134142	0.344288
H100	H	1.266576	-0.531014	0.430093
