data_functionalizedCrystal
_audit_creation_method	'MofGen! by Chris Wilmer'
_symmetry_space_group_name_H-M	'P1'
_symmetry_Int_Tables_number	1
_symmetry_cell_setting	triclinic
loop_
_symmetry_equiv_pos_as_xyz
  x,y,z
_cell_length_a	13.339070
_cell_length_b	9.065218
_cell_length_c	8.140239
_cell_angle_alpha	90.001686
_cell_angle_beta	89.996716
_cell_angle_gamma	79.677410
loop_
_atom_site_label
_atom_site_type_symbol
_atom_site_fract_x
_atom_site_fract_y
_atom_site_fract_z
O1	O	1.349082	-0.742386	-0.136648
O2	O	1.053662	-0.644943	-0.136641
O3	O	1.207479	-0.481403	-0.136641
O4	O	1.195266	-0.905926	-0.136648
O5	O	1.207470	-0.481397	0.136586
O6	O	1.053654	-0.644937	0.136586
O7	O	1.349074	-0.742380	0.136580
Zn8	Zn	1.201362	-0.693658	0.179963
Zn9	Zn	1.201374	-0.693666	-0.180025
O10	O	1.195258	-0.905920	0.136580
C11	C	1.015818	-0.628480	-0.000027
C12	C	0.903067	-0.579416	-0.000025
C13	C	0.541769	-0.960908	-0.000056
C14	C	0.647704	-1.007010	-0.000064
C15	C	0.711550	-0.900116	-0.000053
C16	C	0.669450	-0.747111	-0.000037
C17	C	0.563505	-0.701004	-0.000042
C18	C	0.733286	-0.640212	-0.000039
C19	C	0.691186	-0.487207	-0.000023
C20	C	0.585251	-0.441108	-0.000027
C21	C	0.521405	-0.548003	-0.000037
C22	C	0.839231	-0.686319	-0.000034
C23	C	0.860967	-0.426415	-0.000020
C24	C	0.755032	-0.380313	-0.000012
C25	C	1.206301	-0.425956	-0.000030
C26	C	1.202791	-0.260745	-0.000038
C27	C	1.386918	-0.758843	-0.000038
C28	C	1.499669	-0.807907	-0.000051
C29	C	1.196436	-0.961367	-0.000035
C30	C	1.199945	-1.126579	-0.000038
N31	N	1.201362	-0.693654	0.425646
N32	N	1.201382	-0.693660	-0.425708
H33	H	0.720739	-0.255734	-0.000013
C34	C	0.930154	-0.310182	0.000249
C35	C	0.910917	-0.220538	0.140796
C36	C	0.974629	-0.113448	0.141082
H37	H	0.999309	-0.359358	0.000339
H38	H	0.917250	-0.249149	-0.094983
H39	H	0.923828	-0.281563	0.236004
H40	H	0.841774	-0.171329	0.140736
H41	H	0.961725	-0.052414	0.045850
H42	H	1.043780	-0.162636	0.141168
H43	H	0.961579	-0.052603	0.236433
C44	C	0.539487	-0.275010	-0.000367
C45	C	0.479335	-0.240946	-0.140964
C46	C	0.437175	-0.087948	-0.141347
H47	H	0.498533	-0.251441	0.094797
H48	H	0.592654	-0.217897	-0.000450
H49	H	0.426175	-0.298040	-0.140867
H50	H	0.520265	-0.264480	-0.236151
H51	H	0.490342	-0.030835	-0.141430
H52	H	0.396226	-0.064393	-0.046177
H53	H	0.396365	-0.064813	-0.236747
H54	H	0.489778	-1.047925	-0.000079
H55	H	0.797807	-0.937662	-0.000063
H56	H	0.873498	-0.810896	-0.000041
H57	H	0.681974	-1.131586	-0.000090
H58	H	0.435143	-0.510474	-0.000031
