data_functionalizedCrystal
_audit_creation_method	'MofGen! by Chris Wilmer'
_symmetry_space_group_name_H-M	'P1'
_symmetry_Int_Tables_number	1
_symmetry_cell_setting	triclinic
loop_
_symmetry_equiv_pos_as_xyz
  x,y,z
_cell_length_a	15.944545
_cell_length_b	15.944551
_cell_length_c	7.681481
_cell_angle_alpha	84.256492
_cell_angle_beta	95.726552
_cell_angle_gamma	83.497455
loop_
_atom_site_label
_atom_site_type_symbol
_atom_site_fract_x
_atom_site_fract_y
_atom_site_fract_z
O1	O	1.106592	0.116253	-0.146321
O2	O	0.862040	0.129616	-0.146350
O3	O	0.990995	0.000659	-0.146318
O4	O	0.977637	0.245211	-0.146352
O5	O	1.006867	-0.015249	0.146543
O6	O	0.877912	0.113708	0.146512
O7	O	1.122464	0.100345	0.146541
Zn8	Zn	1.002708	0.104501	0.193025
Zn9	Zn	0.981796	0.125461	-0.192833
O10	O	0.993509	0.229302	0.146510
C11	C	0.838682	0.121109	0.000078
C12	C	0.745435	0.119449	0.000067
C13	C	0.474804	0.034554	0.000097
C14	C	0.533211	0.067639	0.144492
C15	C	0.409793	0.113527	0.000098
C16	C	0.517543	0.083345	-0.144246
C17	C	0.574705	0.116432	0.000080
C18	C	0.466978	0.146584	0.144612
C19	C	0.451300	0.162286	-0.144256
C20	C	0.509676	0.195427	0.000174
C21	C	0.314791	0.111850	0.000110
C22	C	0.669705	0.118114	0.000081
C23	C	0.998376	-0.038589	0.000113
C24	C	0.996714	-0.131835	0.000113
C25	C	0.912808	-0.346688	0.000079
C26	C	0.959596	-0.415550	0.144482
C27	C	0.993706	-0.302560	0.000100
C28	C	0.943967	-0.399849	-0.144256
C29	C	0.990794	-0.467472	0.000078
C30	C	1.040524	-0.370201	0.144622
C31	C	1.024876	-0.354486	-0.144246
C32	C	1.071725	-0.423333	0.000192
C33	C	0.995381	-0.207559	0.000113
C34	C	0.989126	-0.562473	0.000077
C35	C	1.145822	0.108853	0.000110
C36	C	1.239068	0.110513	0.000109
C37	C	0.986127	0.268551	0.000075
C38	C	0.987789	0.361797	0.000063
N39	N	1.016986	0.090195	0.456362
N40	N	0.967524	0.139759	-0.456171
H41	H	0.568758	0.027655	0.266576
H42	H	0.539845	0.056610	-0.266313
H43	H	1.067487	0.039608	0.531580
C44	C	0.788218	-0.332687	0.151656
C45	C	0.822174	-0.301723	0.000255
H46	H	0.732268	-0.304922	0.151772
H47	H	0.786597	-0.392098	0.152689
H48	H	0.822753	-0.322025	0.253186
H49	H	0.787641	-0.312390	-0.101275
H50	H	0.823789	-0.242298	-0.000795
C51	C	1.212801	-0.453464	0.151626
C52	C	1.162454	-0.468115	0.000308
H53	H	1.268810	-0.481117	0.151705
H54	H	1.214392	-0.394141	0.152583
H55	H	1.189351	-0.475210	0.253213
H56	H	1.185901	-0.446363	-0.101280
H57	H	1.160867	-0.527450	-0.000665
H58	H	1.052446	-0.327725	-0.266326
H59	H	0.459158	-0.033467	0.000247
C60	C	0.349392	0.180683	0.308165
C61	C	0.437039	0.182598	0.309608
H62	H	0.330911	0.202906	0.410036
H63	H	0.320585	0.214106	0.205773
H64	H	0.337242	0.123733	0.307737
H65	H	0.449188	0.239549	0.310023
H66	H	0.465855	0.149175	0.412027
H67	H	0.525172	0.263488	0.000249
H68	H	0.903123	-0.413293	-0.266346
H69	H	0.415737	0.202241	-0.266344
H70	H	0.931996	-0.442289	0.266556
C71	C	1.096636	-0.264422	0.308172
C72	C	1.095614	-0.352186	0.309619
H73	H	1.130640	-0.253301	0.410041
H74	H	1.119630	-0.242971	0.205777
H75	H	1.040329	-0.237476	0.307748
H76	H	1.151920	-0.379131	0.310030
H77	H	1.072622	-0.373646	0.412041
H78	H	0.917033	0.190349	0.468620
