data_functionalizedCrystal
_audit_creation_method	'MofGen! by Chris Wilmer'
_symmetry_space_group_name_H-M	'P1'
_symmetry_Int_Tables_number	1
_symmetry_cell_setting	triclinic
loop_
_symmetry_equiv_pos_as_xyz
  x,y,z
_cell_length_a	16.992694
_cell_length_b	16.992695
_cell_length_c	15.455446
_cell_angle_alpha	92.856195
_cell_angle_beta	87.147499
_cell_angle_gamma	90.668223
loop_
_atom_site_label
_atom_site_type_symbol
_atom_site_fract_x
_atom_site_fract_y
_atom_site_fract_z
O1	O	1.047630	0.170137	0.072022
O2	O	1.547630	0.670137	0.572022
O3	O	0.819228	0.168307	0.072048
O4	O	1.319228	0.668307	0.572048
O5	O	0.932514	0.055022	0.072028
O6	O	1.432514	0.555022	0.572028
O7	O	0.934344	0.283423	0.072042
O8	O	1.434344	0.783423	0.572042
O9	O	0.938955	0.048566	-0.072232
O10	O	1.438955	0.548566	0.427768
O11	O	0.825669	0.161852	-0.072213
O12	O	1.325669	0.661852	0.427787
O13	O	1.054071	0.163682	-0.072238
O14	O	1.554071	0.663682	0.427762
Cu15	Cu	0.940458	0.162177	-0.085397
Cu16	Cu	1.440458	0.662177	0.414603
Cu17	Cu	0.932841	0.169812	0.085207
Cu18	Cu	1.432841	0.669812	0.585207
O19	O	0.940785	0.276967	-0.072219
O20	O	1.440785	0.776967	0.427781
C21	C	0.793089	0.162724	-0.000079
C22	C	1.293089	0.662724	0.499921
C23	C	0.705604	0.155696	-0.000070
C24	C	1.205604	0.655696	0.499930
C25	C	0.933378	0.022434	-0.000102
C26	C	1.433378	0.522434	0.499898
C27	C	0.926350	-0.065050	-0.000101
C28	C	1.426350	0.434950	0.499899
C29	C	0.659613	0.223514	-0.000066
C30	C	1.159613	0.723514	0.499934
C31	C	0.577412	0.216904	-0.000079
C32	C	1.077412	0.716904	0.499921
C33	C	0.541204	0.142476	-0.000088
C34	C	1.041204	0.642476	0.499912
C35	C	0.587202	0.074653	-0.000094
C36	C	1.087202	0.574653	0.499906
C37	C	0.669401	0.081263	-0.000088
C38	C	1.169401	0.581263	0.499912
C39	C	0.295891	0.115081	-0.000113
C40	C	0.795891	0.615081	0.499887
C41	C	0.213686	0.108476	-0.000116
C42	C	0.713686	0.608476	0.499884
C43	C	0.203902	0.250728	-0.000103
C44	C	0.703902	0.750728	0.499897
C45	C	0.286103	0.257331	-0.000091
C46	C	0.786103	0.757331	0.499909
C47	C	0.332093	0.189508	-0.000102
C48	C	0.832093	0.689508	0.499898
N49	N	0.457183	0.135719	-0.000098
N50	N	0.957183	0.635719	0.499902
N51	N	0.416114	0.196266	-0.000098
N52	N	0.916114	0.696266	0.499902
C53	C	0.994168	-0.111042	-0.000109
C54	C	1.494168	0.388958	0.499891
C55	C	0.987559	-0.193242	-0.000100
C56	C	1.487559	0.306758	0.499900
C57	C	0.913130	-0.229450	-0.000089
C58	C	1.413130	0.270550	0.499911
C59	C	0.845307	-0.183452	-0.000078
C60	C	1.345307	0.316548	0.499922
C61	C	0.851917	-0.101253	-0.000081
C62	C	1.351917	0.398747	0.499919
C63	C	0.885735	-0.474764	-0.000074
C64	C	1.385735	0.025236	0.499926
C65	C	0.879131	-0.556969	-0.000074
C66	C	1.379131	-0.056969	0.499926
C67	C	1.021383	-0.566753	-0.000094
C68	C	1.521383	-0.066753	0.499906
C69	C	1.027987	-0.484552	-0.000102
C70	C	1.527987	0.015448	0.499898
C71	C	0.960163	-0.438561	-0.000087
C72	C	1.460163	0.061439	0.499913
N73	N	0.906373	-0.313472	-0.000082
N74	N	1.406373	0.186528	0.499918
N75	N	0.966921	-0.354541	-0.000087
N76	N	1.466921	0.145459	0.499913
C77	C	1.080210	0.169265	-0.000109
C78	C	1.580210	0.669265	0.499891
C79	C	1.167695	0.176294	-0.000113
C80	C	1.667695	0.676294	0.499887
C81	C	0.939920	0.309555	-0.000087
C82	C	1.439920	0.809555	0.499913
C83	C	0.946949	0.397040	-0.000082
C84	C	1.446949	0.897040	0.499918
N85	N	0.945821	0.156807	-0.205391
N86	N	1.445821	0.656807	0.294609
C87	C	0.975622	0.127069	-0.749391
C88	C	1.475622	0.627069	-0.249391
C89	C	0.971548	0.131139	-0.658584
C90	C	1.471548	0.631139	-0.158584
C91	C	0.919332	0.183312	-0.613187
C92	C	1.419332	0.683312	-0.113187
C93	C	0.871192	0.231424	-0.658602
C94	C	1.371192	0.731424	-0.158602
C95	C	0.875270	0.227358	-0.749407
C96	C	1.375270	0.727358	-0.249407
C97	C	0.901759	0.200853	-0.341611
C98	C	1.401759	0.700853	0.158389
C99	C	0.897683	0.204914	-0.250800
C100	C	1.397683	0.704914	0.249200
C101	C	0.998041	0.104629	-0.250788
C102	C	1.498041	0.604629	0.249212
C103	C	1.002111	0.100564	-0.341595
C104	C	1.502111	0.600564	0.158405
C105	C	0.953974	0.148680	-0.387001
C106	C	1.453974	0.648680	0.112999
N107	N	0.915165	0.187471	-0.520368
N108	N	1.415165	0.687471	-0.020368
N109	N	0.958145	0.144524	-0.479819
N110	N	1.458145	0.644524	0.020181
N111	N	0.927483	0.175176	0.205201
N112	N	1.427483	0.675176	0.705201
H113	H	0.689087	0.284121	-0.000058
H114	H	1.189087	0.784121	0.499942
H115	H	0.706846	0.026038	-0.000090
H116	H	1.206846	0.526038	0.499910
H117	H	1.037233	0.065457	-0.213809
H118	H	1.537233	0.565457	0.286191
H119	H	0.855160	0.247402	-0.213842
H120	H	1.355160	0.747402	0.286158
H121	H	0.830508	-0.437328	-0.000061
H122	H	1.330508	0.062672	0.499939
C123	C	0.575998	0.358176	-0.000052
C124	C	1.075998	0.858176	0.499948
C125	C	0.526859	0.291453	-0.000071
C126	C	1.026859	0.791453	0.499929
H127	H	0.544786	0.404200	-0.000044
H128	H	1.044786	0.904200	0.499956
H129	H	0.610515	0.355547	-0.050352
H130	H	1.110515	0.855547	0.449648
H131	H	0.606008	0.360037	0.050261
H132	H	1.106008	0.860037	0.550261
H133	H	0.496852	0.289589	-0.050388
H134	H	0.996852	0.789589	0.449612
H135	H	0.492328	0.294082	0.050234
H136	H	0.992328	0.794082	0.550234
C137	C	1.093164	-0.661539	0.074063
C138	C	1.593164	-0.161539	0.574063
C139	C	1.095932	-0.617305	-0.000099
C140	C	1.595932	-0.117305	0.499901
H141	H	1.139193	-0.692743	0.074063
H142	H	1.639193	-0.192743	0.574063
H143	H	1.047899	-0.694865	0.074061
H144	H	1.547899	-0.194865	0.574061
H145	H	1.090537	-0.627004	0.124362
H146	H	1.590537	-0.127004	0.624362
H147	H	1.098553	-0.651840	-0.050399
H148	H	1.598553	-0.151840	0.449601
H149	H	1.141209	-0.583977	-0.000105
H150	H	1.641209	-0.083977	0.499895
C151	C	0.802151	0.300385	-0.332489
C152	C	1.302151	0.800385	0.167511
C153	C	0.848844	0.253738	-0.391515
C154	C	1.348844	0.753738	0.108485
H155	H	0.769480	0.333032	-0.363302
H156	H	1.269480	0.833032	0.136698
H157	H	0.835099	0.332356	-0.297063
H158	H	1.335099	0.832356	0.202937
H159	H	0.770196	0.267399	-0.297080
H160	H	1.270196	0.767399	0.202920
H161	H	0.880803	0.286724	-0.426919
H162	H	1.380803	0.786724	0.073081
H163	H	0.815893	0.221764	-0.426955
H164	H	1.315893	0.721764	0.073045
C165	C	0.772012	-0.305112	-0.000075
C166	C	1.272012	0.194888	0.499925
C167	C	0.763493	-0.223250	-0.000069
C168	C	1.263493	0.276750	0.499931
H169	H	0.721502	-0.329679	-0.000077
H170	H	1.221502	0.170321	0.499923
H171	H	0.797900	-0.318337	0.050226
H172	H	1.297900	0.181663	0.550226
H173	H	0.802401	-0.322839	-0.050388
H174	H	1.302401	0.177161	0.449612
H175	H	0.733109	-0.205523	0.050248
H176	H	1.233109	0.294477	0.550248
H177	H	0.737594	-0.210019	-0.050374
H178	H	1.237594	0.289981	0.449626
C179	C	0.710644	-0.099834	-0.000066
C180	C	1.210644	0.400166	0.499934
C181	C	0.777369	-0.050697	-0.000074
C182	C	1.277369	0.449303	0.499926
H183	H	0.664621	-0.068621	-0.000064
H184	H	1.164621	0.431379	0.499936
H185	H	0.708781	-0.129843	0.050237
H186	H	1.208781	0.370157	0.550237
H187	H	0.713275	-0.134353	-0.050377
H188	H	1.213275	0.365647	0.449623
H189	H	0.774741	-0.016181	0.050241
H190	H	1.274741	0.483819	0.550241
H191	H	0.779232	-0.020674	-0.050382
H192	H	1.279232	0.479326	0.449618
H193	H	0.818520	-0.586447	-0.000079
H194	H	1.318520	-0.086447	0.499921
C195	C	0.166928	0.373256	0.074067
C196	C	0.666928	0.873256	0.574067
C197	C	0.153347	0.325275	-0.000097
C198	C	0.653347	0.825275	0.499903
H199	H	0.135713	0.419277	0.074069
H200	H	0.635713	0.919277	0.574069
H201	H	0.221058	0.387841	0.074064
H202	H	0.721058	0.887841	0.574064
H203	H	0.153211	0.345191	0.124364
H204	H	0.653211	0.845191	0.624364
H205	H	0.167071	0.353338	-0.050395
H206	H	0.667071	0.853338	0.449605
H207	H	0.099205	0.310691	-0.000103
H208	H	0.599205	0.810691	0.499897
C209	C	0.820372	0.282179	-0.519412
C210	C	1.320372	0.782179	-0.019412
C211	C	0.813792	0.288772	-0.608704
C212	C	1.313792	0.788772	-0.108704
H213	H	0.784930	0.317579	-0.488610
H214	H	1.284930	0.817579	0.011390
H215	H	0.872767	0.294724	-0.504521
H216	H	1.372767	0.794724	-0.004521
H217	H	0.807870	0.229762	-0.504546
H218	H	1.307870	0.729762	-0.004546
H219	H	0.826300	0.341187	-0.623571
H220	H	1.326300	0.841187	-0.123571
H221	H	0.761386	0.276232	-0.623600
H222	H	1.261386	0.776232	-0.123600
C223	C	1.074410	0.028352	-0.740248
C224	C	1.574410	0.528352	-0.240248
C225	C	1.033017	0.069715	-0.799286
C226	C	1.533017	0.569715	-0.299286
H227	H	1.109847	-0.007053	-0.771052
H228	H	1.609847	0.492947	-0.271052
H229	H	1.038281	-0.000449	-0.704839
H230	H	1.538281	0.499551	-0.204839
H231	H	1.103184	0.064507	-0.704825
H232	H	1.603184	0.564507	-0.204825
H233	H	1.004238	0.033560	-0.834706
H234	H	1.504238	0.533560	-0.334706
H235	H	1.069151	0.098517	-0.834710
H236	H	1.569151	0.598517	-0.334710
C237	C	0.775651	0.326881	-0.740304
C238	C	1.275651	0.826881	-0.240304
C239	C	0.822349	0.280232	-0.799324
C240	C	1.322349	0.780232	-0.299324
H241	H	0.742977	0.359521	-0.771122
H242	H	1.242977	0.859521	-0.271122
H243	H	0.808597	0.358859	-0.704882
H244	H	1.308597	0.858859	-0.204882
H245	H	0.743700	0.293897	-0.704891
H246	H	1.243700	0.793897	-0.204891
H247	H	0.854305	0.313217	-0.834733
H248	H	1.354305	0.813217	-0.334733
H249	H	0.789400	0.248252	-0.834760
H250	H	1.289400	0.748252	-0.334760
H251	H	1.044629	0.058081	-0.378555
H252	H	1.544629	0.558081	0.121445
C253	C	0.369506	0.350601	0.074124
C254	C	0.869506	0.850601	0.574124
C255	C	0.325883	0.339154	-0.000054
C256	C	0.825883	0.839154	0.499946
H257	H	0.394055	0.401121	0.074159
H258	H	0.894055	0.901121	0.574159
H259	H	0.408669	0.311172	0.074108
H260	H	0.908669	0.811172	0.574108
H261	H	0.335373	0.347288	0.124412
H262	H	0.835373	0.847288	0.624412
H263	H	0.360018	0.342462	-0.050342
H264	H	0.860018	0.842462	0.449658
H265	H	0.286716	0.378595	-0.000046
H266	H	0.786716	0.878595	0.499954
H267	H	0.557715	0.014051	-0.000114
H268	H	1.057715	0.514051	0.499886
C269	C	0.231610	-0.031478	-0.000139
C270	C	0.731610	0.468522	0.499861
C271	C	0.173885	0.026658	-0.000129
C272	C	0.673885	0.526658	0.499871
H273	H	0.207036	-0.081985	-0.000149
H274	H	0.707036	0.418015	0.499851
H275	H	0.261216	-0.023695	0.050164
H276	H	0.761216	0.476305	0.550164
H277	H	0.265718	-0.028188	-0.050450
H278	H	0.765718	0.471812	0.449550
H279	H	0.139779	0.023372	0.050185
H280	H	0.639779	0.523372	0.550185
H281	H	0.144266	0.018873	-0.050437
H282	H	0.644266	0.518873	0.449563
C283	C	1.009377	0.092362	-0.519382
C284	C	1.509377	0.592362	-0.019382
C285	C	1.024126	0.077923	-0.608671
C286	C	1.524126	0.577923	-0.108671
H287	H	1.041742	0.059412	-0.488571
H288	H	1.541742	0.559412	0.011429
H289	H	0.955543	0.081462	-0.504707
H290	H	1.455543	0.581462	-0.004707
H291	H	1.020856	0.146005	-0.504314
H292	H	1.520856	0.646005	-0.004314
H293	H	1.012641	0.024282	-0.623740
H294	H	1.512641	0.524282	-0.123740
H295	H	1.077972	0.088817	-0.623352
H296	H	1.577972	0.588817	-0.123352
C297	C	0.390676	0.043303	0.074048
C298	C	0.890676	0.543303	0.574048
C299	C	0.346435	0.040529	-0.000112
C300	C	0.846435	0.540529	0.499888
H301	H	0.421884	-0.002723	0.074045
H302	H	0.921884	0.497277	0.574045
H303	H	0.356153	0.045935	0.124343
H304	H	0.856153	0.545935	0.624343
H305	H	0.424006	0.088574	0.074040
H306	H	0.924006	0.588574	0.574040
H307	H	0.313101	-0.004739	-0.000102
H308	H	0.813101	0.495261	0.499898
H309	H	0.380963	0.037889	-0.050420
H310	H	0.880963	0.537889	0.449580
C311	C	1.128831	-0.194657	-0.000141
C312	C	1.628831	0.305343	0.499859
C313	C	1.062108	-0.243796	-0.000119
C314	C	1.562108	0.256204	0.499881
H315	H	1.174856	-0.225869	-0.000159
H316	H	1.674856	0.274131	0.499841
H317	H	1.126210	-0.160141	0.050162
H318	H	1.626210	0.339859	0.550162
H319	H	1.130683	-0.164646	-0.050452
H320	H	1.630683	0.335354	0.449548
H321	H	1.060252	-0.273804	0.050195
H322	H	1.560252	0.226196	0.550195
H323	H	1.064729	-0.278326	-0.050428
H324	H	1.564729	0.221674	0.449572
C325	C	1.147962	-0.464263	0.074040
C326	C	1.647962	0.035737	0.574040
C327	C	1.109802	-0.444758	-0.000113
C328	C	1.609802	0.055242	0.499887
H329	H	1.198470	-0.439692	0.074030
H330	H	1.698470	0.060308	0.574030
H331	H	1.153728	-0.519793	0.074036
H332	H	1.653728	-0.019793	0.574036
H333	H	1.117572	-0.446518	0.124345
H334	H	1.617572	0.053482	0.624345
H335	H	1.140190	-0.462508	-0.050418
H336	H	1.640190	0.037492	0.449582
H337	H	1.104039	-0.389215	-0.000117
H338	H	1.604039	0.110785	0.499883
H339	H	1.054776	-0.081568	-0.000124
H340	H	1.554776	0.418432	0.499876
