data_functionalizedCrystal
_audit_creation_method	'MofGen! by Chris Wilmer'
_symmetry_space_group_name_H-M	'P1'
_symmetry_Int_Tables_number	1
_symmetry_cell_setting	triclinic
loop_
_symmetry_equiv_pos_as_xyz
  x,y,z
_cell_length_a	18.215407
_cell_length_b	19.076808
_cell_length_c	18.215399
_cell_angle_alpha	87.669150
_cell_angle_beta	89.985640
_cell_angle_gamma	92.320961
loop_
_atom_site_label
_atom_site_type_symbol
_atom_site_fract_x
_atom_site_fract_y
_atom_site_fract_z
Zn1	Zn	1.113275	-0.280255	-0.404283
Zn2	Zn	1.108244	-0.397968	-0.276267
Zn3	Zn	0.990213	-0.280277	-0.281235
Zn4	Zn	0.985230	-0.397918	-0.399299
O5	O	1.049241	-0.339105	-0.340271
O6	O	1.215591	-0.295882	-0.387308
O7	O	1.092567	-0.382386	-0.173940
O8	O	1.010729	-0.181778	-0.301722
O9	O	1.211895	-0.382365	-0.293255
O10	O	1.101142	-0.181762	-0.392125
O11	O	1.005850	-0.295919	-0.177590
O12	O	0.886568	-0.295870	-0.296889
O13	O	1.002235	-0.382280	-0.502946
O14	O	0.882907	-0.382301	-0.383631
O15	O	1.096309	-0.295833	-0.506607
O16	O	1.087735	-0.496458	-0.288422
O17	O	0.997357	-0.496421	-0.378814
C18	C	0.858035	-0.339083	-0.340259
C19	C	0.776236	-0.339091	-0.340270
C20	C	0.589962	-0.294152	-0.389314
C21	C	0.513103	-0.294158	-0.389316
C22	C	0.509270	-0.384077	-0.291239
C23	C	0.586128	-0.384067	-0.291234
C24	C	0.626472	-0.339105	-0.340276
C25	C	0.472755	-0.339122	-0.340283
C26	C	0.389421	-0.339128	-0.340285
C27	C	0.709811	-0.339097	-0.340273
C28	C	1.041479	-0.521979	-0.332554
C29	C	1.038226	-0.600213	-0.329278
C30	C	1.083736	-0.636899	-0.374845
C31	C	1.080676	-0.710408	-0.371767
C32	C	1.032110	-0.747230	-0.323119
C33	C	0.986596	-0.710539	-0.277550
C34	C	0.989652	-0.637031	-0.280632
C35	C	1.017923	-0.967083	-0.308855
C36	C	1.014871	-1.040596	-0.305775
C37	C	1.108951	-1.040460	-0.399993
C38	C	1.112006	-0.966951	-0.403067
C39	C	1.066489	-0.930266	-0.357501
N40	N	1.028984	-0.822369	-0.319970
N41	N	1.069613	-0.855129	-0.360654
C42	C	1.241192	-0.339127	-0.340283
C43	C	1.322991	-0.339136	-0.340289
C44	C	1.049278	-0.339048	-0.532226
C45	C	1.049293	-0.339024	-0.614026
C46	C	1.057052	-0.155517	-0.348034
C47	C	1.060381	-0.077282	-0.351342
C48	C	1.004181	-0.293971	-0.804123
C49	C	1.004194	-0.293956	-0.880982
C50	C	1.094497	-0.383994	-0.877171
C51	C	1.094480	-0.384012	-0.800313
C52	C	1.049323	-0.338996	-0.763791
C53	C	1.049354	-0.338964	-0.917508
C54	C	1.049369	-0.338949	-1.000843
C55	C	1.049307	-0.339011	-0.680451
C56	C	1.049248	-0.339110	-0.149064
C57	C	1.049383	-0.338936	-0.067273
H58	H	0.476413	-0.420685	-0.251312
C59	C	1.165441	-0.926451	-0.456569
H60	H	1.192108	-0.958828	-0.483266
H61	H	1.198710	-0.897775	-0.429634
H62	H	1.138470	-0.897771	-0.489819
H63	H	0.947049	-0.740526	-0.237943
H64	H	0.622807	-0.257538	-0.429245
C65	C	0.626296	-0.433518	-0.237291
H66	H	0.677847	-0.427066	-0.244307
H67	H	0.611706	-0.480825	-0.245984
H68	H	0.614123	-0.423156	-0.188297
H69	H	0.952592	-0.607162	-0.243527
H70	H	0.967411	-0.257316	-0.774389
H71	H	0.483380	-0.257550	-0.429247
H72	H	1.123287	-0.606923	-0.414456
C73	C	0.954542	-0.244426	-0.925344
H74	H	0.927652	-0.217617	-0.892583
H75	H	0.921337	-0.271338	-0.954185
H76	H	0.984010	-0.213752	-0.956626
H77	H	1.117741	-0.740274	-0.408867
H78	H	1.131263	-0.420644	-0.906916
C79	C	1.159014	-1.080811	-0.450115
H80	H	1.188379	-1.048352	-0.479525
H81	H	1.129653	-1.109490	-0.480954
H82	H	1.189909	-1.109477	-0.420785
C83	C	0.961441	-1.081100	-0.252265
H84	H	0.934764	-1.048725	-0.225574
H85	H	0.988417	-1.109774	-0.219020
H86	H	0.928168	-1.109782	-0.279197
C87	C	0.967865	-0.926739	-0.258724
H88	H	0.938512	-0.959199	-0.229304
H89	H	0.936970	-0.898069	-0.288042
H90	H	0.997237	-0.898065	-0.227884
C91	C	1.144139	-0.433540	-0.755945
H92	H	1.171043	-0.460341	-0.788703
H93	H	1.114676	-0.464211	-0.724662
H94	H	1.177344	-0.406619	-0.727105
