data_functionalizedCrystal
_audit_creation_method	'MofGen! by Chris Wilmer'
_symmetry_space_group_name_H-M	'P1'
_symmetry_Int_Tables_number	1
_symmetry_cell_setting	triclinic
loop_
_symmetry_equiv_pos_as_xyz
  x,y,z
_cell_length_a	19.188933
_cell_length_b	12.837942
_cell_length_c	11.892095
_cell_angle_alpha	85.697431
_cell_angle_beta	86.115576
_cell_angle_gamma	91.012745
loop_
_atom_site_label
_atom_site_type_symbol
_atom_site_fract_x
_atom_site_fract_y
_atom_site_fract_z
O1	O	0.939039	-0.122746	-0.093965
O2	O	0.736923	-0.140159	-0.093975
O3	O	0.833499	0.019430	-0.093963
O4	O	0.842463	-0.282335	-0.093977
O5	O	0.825445	0.006144	0.094043
O6	O	0.728869	-0.153445	0.094031
O7	O	0.930985	-0.136031	0.094042
Zn8	Zn	0.828648	-0.146848	0.123887
Zn9	Zn	0.839259	-0.129343	-0.123820
O10	O	0.834409	-0.295620	0.094030
C11	C	0.706846	-0.146238	0.000027
C12	C	0.629226	-0.144544	0.000023
C13	C	0.079531	-0.125213	-0.102447
C14	C	0.152464	-0.126798	-0.102451
C15	C	0.184545	-0.134838	0.000031
C16	C	0.143688	-0.141266	0.102525
C17	C	0.070757	-0.139670	0.102526
N18	N	0.294514	-0.201703	0.076310
N19	N	0.363796	-0.203221	0.076302
C20	C	0.404284	-0.139644	0.000033
N21	N	0.372872	-0.074503	-0.076245
N22	N	0.303584	-0.072990	-0.076240
C23	C	0.263627	-0.136568	0.000041
C24	C	0.524215	-0.134927	-0.102460
C25	C	0.597149	-0.136506	-0.102460
C26	C	0.588372	-0.150984	0.102519
C27	C	0.515439	-0.149395	0.102516
C28	C	0.483365	-0.141371	0.000024
C29	C	0.826444	0.051394	0.000039
C30	C	0.817413	0.166430	0.000037
C31	C	0.961062	-0.129953	0.000037
C32	C	1.038683	-0.131646	0.000034
C33	C	0.841464	-0.327584	0.000025
C34	C	0.850495	-0.442620	0.000020
N35	N	0.821412	-0.158793	0.292940
C36	C	0.925982	0.407881	0.000019
C37	C	0.917500	0.515968	0.000017
C38	C	0.791968	0.490696	0.000022
C39	C	0.800450	0.382608	0.000024
C40	C	0.867459	0.341205	0.000024
C41	C	0.875940	0.233114	0.000035
C42	C	0.750409	0.207844	0.000032
C43	C	0.741928	0.315932	0.000030
N44	N	0.846501	-0.117389	-0.292873
C45	C	0.896854	-0.034205	0.529597
C46	C	0.891801	-0.042563	0.647938
C47	C	0.806250	-0.183860	0.647966
C48	C	0.811303	-0.175503	0.529625
C49	C	0.856607	-0.100674	0.470444
C50	C	0.861663	-0.092322	0.352101
C51	C	0.776109	-0.233614	0.352131
C52	C	0.771056	-0.241971	0.470472
H53	H	0.185729	-0.121565	-0.185906
F54	F	0.733277	-0.304363	0.289164
H55	H	0.980542	0.374169	0.000030
H56	H	0.933747	0.026716	0.481412
H57	H	0.965155	0.570253	0.000009
H58	H	0.614492	-0.157526	0.185962
H59	H	0.734168	-0.302893	0.518670
H60	H	0.769359	-0.244777	0.696166
H61	H	0.053421	-0.118675	-0.185904
H62	H	0.687371	0.349658	0.000025
F63	F	0.720660	0.534780	-0.000006
H64	H	0.169814	-0.147810	0.185966
F65	F	0.027281	-0.146521	0.211605
H66	H	0.924573	0.011563	0.696097
H67	H	0.702756	0.153543	0.000046
H68	H	0.630407	-0.131259	-0.185915
F69	F	0.490077	-0.126381	-0.211540
H70	H	0.482179	-0.154637	0.185967
F71	F	0.947255	0.189051	0.000042
H72	H	0.898554	-0.031396	0.303917
