data_functionalizedCrystal
_audit_creation_method	'MofGen! by Chris Wilmer'
_symmetry_space_group_name_H-M	'P1'
_symmetry_Int_Tables_number	1
_symmetry_cell_setting	triclinic
loop_
_symmetry_equiv_pos_as_xyz
  x,y,z
_cell_length_a	12.827893
_cell_length_b	18.050590
_cell_length_c	12.827885
_cell_angle_alpha	90.034683
_cell_angle_beta	90.019272
_cell_angle_gamma	90.018523
loop_
_atom_site_label
_atom_site_type_symbol
_atom_site_fract_x
_atom_site_fract_y
_atom_site_fract_z
Zn1	Zn	1.597647	-0.295624	0.590813
Zn2	Zn	1.597531	-0.419832	0.416058
Zn3	Zn	1.422888	-0.295660	0.416087
Zn4	Zn	1.422864	-0.419777	0.590758
O5	O	1.510232	-0.357723	0.503429
O6	O	1.743867	-0.312108	0.567643
O7	O	1.574326	-0.403399	0.269826
O8	O	1.446129	-0.191731	0.439299
O9	O	1.743782	-0.403363	0.439251
O10	O	1.574523	-0.191704	0.567670
O11	O	1.446017	-0.312170	0.269847
O12	O	1.276649	-0.312117	0.439246
O13	O	1.446087	-0.403269	0.737002
O14	O	1.276631	-0.403304	0.567577
O15	O	1.574499	-0.312055	0.737042
O16	O	1.574303	-0.523749	0.439198
O17	O	1.445975	-0.523709	0.567549
C18	C	1.238722	-0.357709	0.503409
C19	C	1.122569	-0.357721	0.503426
C20	C	1.070803	-0.402914	0.566830
C21	C	0.950753	-0.402927	0.566848
C22	C	1.510152	-0.550675	0.503388
C23	C	1.510213	-0.633221	0.503405
C24	C	1.580143	-0.832667	0.433705
C25	C	1.605673	-0.881992	0.529080
C26	C	1.510273	-0.784351	0.503446
C27	C	1.484849	-0.882108	0.408114
C28	C	1.510332	-0.930337	0.503478
C29	C	1.535851	-0.832589	0.598872
C30	C	1.414984	-0.832701	0.477842
C31	C	1.440477	-0.882004	0.573282
C32	C	1.510241	-0.700253	0.503427
C33	C	1.510363	-1.014433	0.503509
C34	C	1.782802	-0.357738	0.503450
C35	C	1.898956	-0.357744	0.503459
C36	C	1.510303	-0.357652	0.775999
C37	C	1.510334	-0.357622	0.892153
C38	C	1.510341	-0.164018	0.503494
C39	C	1.510388	-0.081472	0.503521
C40	C	1.510222	-0.357741	0.231919
C41	C	1.510394	-0.357562	0.115767
C42	C	1.573883	-0.312477	0.943957
C43	C	1.573916	-0.312444	1.064008
H44	H	0.906235	-0.441621	0.621127
H45	H	1.628326	-0.273797	1.108558
C46	C	1.436861	-0.409806	0.952291
C47	C	1.482199	-0.468046	1.027338
C48	C	1.408724	-0.520232	1.087473
C49	C	1.289911	-0.514180	1.072563
C50	C	1.244567	-0.455938	0.997513
C51	C	1.318042	-0.403751	0.937377
H52	H	1.570156	-0.472529	1.038379
H53	H	1.442291	-0.563347	1.143030
H54	H	1.235520	-0.552811	1.117079
H55	H	1.156610	-0.451455	0.986472
H56	H	1.284475	-0.360637	0.881820
C57	C	1.659985	-0.803391	0.354112
C58	C	1.623564	-0.754657	0.262598
C59	C	1.703407	-0.725379	0.183013
C60	C	1.819672	-0.744835	0.194941
C61	C	1.856100	-0.793572	0.286459
C62	C	1.776256	-0.822850	0.366045
H63	H	1.537492	-0.740252	0.253764
H64	H	1.676441	-0.689300	0.115265
H65	H	1.878777	-0.723162	0.136028
H66	H	1.942171	-0.807977	0.295293
H67	H	1.803223	-0.858928	0.433792
C68	C	1.647356	-0.260291	0.883821
C69	C	1.766169	-0.266344	0.898734
C70	C	1.839645	-0.214156	0.838601
C71	C	1.794309	-0.155916	0.763556
C72	C	1.675490	-0.149861	0.748640
C73	C	1.602014	-0.202048	0.808772
H74	H	1.799735	-0.309459	0.954290
H75	H	1.927602	-0.218639	0.849644
H76	H	1.848700	-0.117283	0.719042
H77	H	1.641924	-0.106745	0.693083
H78	H	1.514057	-0.197566	0.797729
C79	C	1.062386	-0.305461	0.430107
C80	C	1.077232	-0.311409	0.311277
C81	C	1.017052	-0.259147	0.237955
C82	C	0.942026	-0.200937	0.283463
C83	C	0.927177	-0.194985	0.402299
C84	C	0.987357	-0.247247	0.475620
H85	H	1.132773	-0.354503	0.277584
H86	H	1.028044	-0.263553	0.149985
H87	H	0.897477	-0.162249	0.229186
H88	H	0.871635	-0.151892	0.435992
H89	H	0.976364	-0.242841	0.563591
H90	H	1.115361	-0.441593	0.621102
H91	H	1.455988	-0.396217	1.071223
C92	C	1.714568	-0.911247	0.558367
C93	C	1.774728	-0.961165	0.481826
C94	C	1.883625	-0.990415	0.511105
C95	C	1.932363	-0.969746	0.616925
C96	C	1.872203	-0.919825	0.693473
C97	C	1.763305	-0.890576	0.664194
H98	H	1.738649	-0.976468	0.403486
H99	H	1.928160	-1.027370	0.454439
H100	H	2.012976	-0.991399	0.638599
H101	H	1.908281	-0.904523	0.771813
H102	H	1.718771	-0.853621	0.720860
C103	C	1.565068	-0.803338	0.707836
C104	C	1.570480	-0.719309	0.727941
C105	C	1.599701	-0.690056	0.836902
C106	C	1.623510	-0.744832	0.925756
C107	C	1.618099	-0.828866	0.905653
C108	C	1.588878	-0.858119	0.796693
H109	H	1.552855	-0.678756	0.662164
H110	H	1.603706	-0.627848	0.851783
H111	H	1.645141	-0.723177	1.006415
H112	H	1.635724	-0.869419	0.971431
H113	H	1.584872	-0.920327	0.781812
H114	H	0.943466	-0.319054	0.449169
H115	H	1.381415	-0.903530	0.632343
H116	H	1.334397	-0.811031	0.456136
C117	C	1.455755	-0.911488	0.299185
C118	C	1.524106	-0.892023	0.204408
C119	C	1.495021	-0.921399	0.095477
C120	C	1.397585	-0.970240	0.081323
C121	C	1.329228	-0.989707	0.176102
C122	C	1.358313	-0.960331	0.285033
H123	H	1.596240	-0.855866	0.214884
H124	H	1.545624	-0.906988	0.025315
H125	H	1.376055	-0.991986	0.000685
H126	H	1.257094	-1.025865	0.165627
H127	H	1.307710	-0.974742	0.355195
