data_functionalizedCrystal
_audit_creation_method	'MofGen! by Chris Wilmer'
_symmetry_space_group_name_H-M	'P1'
_symmetry_Int_Tables_number	1
_symmetry_cell_setting	triclinic
loop_
_symmetry_equiv_pos_as_xyz
  x,y,z
_cell_length_a	13.897449
_cell_length_b	21.295418
_cell_length_c	13.897441
_cell_angle_alpha	90.034735
_cell_angle_beta	90.020733
_cell_angle_gamma	90.028679
loop_
_atom_site_label
_atom_site_type_symbol
_atom_site_fract_x
_atom_site_fract_y
_atom_site_fract_z
Zn1	Zn	1.474638	-0.250568	0.545353
Zn2	Zn	1.974638	0.249432	1.045353
Zn3	Zn	1.474504	-0.355847	0.384043
Zn4	Zn	1.974504	0.144153	0.884043
Zn5	Zn	1.313327	-0.250598	0.384072
Zn6	Zn	1.813327	0.249402	0.884072
Zn7	Zn	1.313281	-0.355805	0.545296
Zn8	Zn	1.813281	0.144195	1.045296
O9	O	1.393937	-0.303204	0.464691
O10	O	1.893937	0.196796	0.964691
O11	O	1.609601	-0.264538	0.523967
O12	O	2.109601	0.235462	1.023967
O13	O	1.453087	-0.341915	0.249065
O14	O	1.953087	0.158085	0.749065
O15	O	1.334800	-0.162504	0.405502
O16	O	1.834800	0.337496	0.905502
O17	O	1.609503	-0.341886	0.405453
O18	O	2.109503	0.158114	0.905453
O19	O	1.453314	-0.162482	0.523995
O20	O	1.953314	0.337518	1.023995
O21	O	1.334670	-0.264589	0.249086
O22	O	1.834670	0.235411	0.749086
O23	O	1.178339	-0.264549	0.405446
O24	O	1.678339	0.235451	0.905446
O25	O	1.334722	-0.341815	0.680285
O26	O	1.834722	0.158185	1.180285
O27	O	1.178306	-0.341844	0.523897
O28	O	1.678306	0.158156	1.023897
O29	O	1.453270	-0.264498	0.680328
O30	O	1.953270	0.235502	1.180328
O31	O	1.453043	-0.443931	0.405398
O32	O	1.953043	0.056069	0.905398
O33	O	1.334593	-0.443900	0.523869
O34	O	1.834593	0.056100	1.023869
C35	C	1.143323	-0.303196	0.464669
C36	C	1.643323	0.196804	0.964669
C37	C	1.036109	-0.303207	0.464683
C38	C	1.536109	0.196793	0.964683
C39	C	1.393825	-0.466756	0.464645
C40	C	1.893825	0.033244	0.964645
C41	C	1.393864	-0.536724	0.464658
C42	C	1.893864	-0.036724	0.964658
C43	C	0.839814	-0.303210	0.464708
C44	C	1.339814	0.196790	0.964708
C45	C	0.949046	-0.303207	0.464691
C46	C	1.449046	0.196793	0.964691
C47	C	1.455846	-1.036177	0.403158
C48	C	1.955846	-0.536177	0.903158
C49	C	1.455809	-0.970434	0.403136
C50	C	1.955809	-0.470434	0.903136
C51	C	1.394073	-0.937563	0.464759
C52	C	1.894073	-0.437563	0.964759
C53	C	1.332352	-0.970440	0.526392
C54	C	1.832352	-0.470440	1.026392
C55	C	1.332383	-1.036182	0.526406
C56	C	1.832383	-0.536182	1.026406
N57	N	1.386578	-0.834306	0.549164
N58	N	1.886578	-0.334306	1.049164
N59	N	1.386553	-0.771855	0.549148
N60	N	1.886553	-0.271855	1.049148
C61	C	1.393973	-0.739489	0.464718
C62	C	1.893973	-0.239489	0.964718
N63	N	1.401436	-0.771933	0.380304
N64	N	1.901436	-0.271933	0.880304
N65	N	1.401466	-0.834390	0.380321
N66	N	1.901466	-0.334390	0.880321
C67	C	1.394032	-0.866278	0.464750
C68	C	1.894032	-0.366278	0.964750
C69	C	1.455646	-0.635334	0.403060
C70	C	1.955646	-0.135334	0.903060
C71	C	1.455602	-0.569590	0.403035
C72	C	1.955602	-0.069590	0.903035
C73	C	1.332150	-0.569598	0.526300
C74	C	1.832150	-0.069598	1.026300
C75	C	1.332188	-0.635340	0.526315
C76	C	1.832188	-0.135340	1.026315
C77	C	1.393941	-0.668204	0.464697
C78	C	1.893941	-0.168204	0.964697
C79	C	1.645530	-0.303213	0.464714
C80	C	2.145530	0.196787	0.964714
C81	C	1.752744	-0.303217	0.464723
C82	C	2.252744	0.196783	0.964723
C83	C	1.394006	-0.303149	0.716284
C84	C	1.894006	0.196851	1.216284
C85	C	1.394035	-0.303125	0.823498
C86	C	1.894035	0.196875	1.323498
C87	C	1.394077	-0.139014	0.464758
C88	C	1.894077	0.360986	0.964758
C89	C	1.394136	-0.069046	0.464787
C90	C	1.894136	0.430954	0.964787
C91	C	1.393925	-0.303214	0.214077
C92	C	1.893925	0.196786	0.714077
C93	C	1.394082	-0.303061	0.106863
C94	C	1.894082	0.196939	0.606863
C95	C	1.394061	-0.303082	1.019793
C96	C	1.894061	0.196918	1.519793
C97	C	1.394044	-0.303108	0.910561
C98	C	1.894044	0.196892	1.410561
H99	H	1.506127	-1.062931	0.352980
H100	H	2.006127	-0.562931	0.852980
C101	C	1.264448	-0.934285	0.594178
C102	C	1.764448	-0.434285	1.094178
H103	H	1.273274	-0.890424	0.585351
H104	H	1.773274	-0.390424	1.085351
H105	H	1.199650	-0.945098	0.580004
H106	H	1.699650	-0.445098	1.080004
H107	H	1.278539	-0.945022	0.659007
H108	H	1.778539	-0.445022	1.159007
C109	C	1.523563	-0.671490	0.335281
C110	C	2.023563	-0.171490	0.835281
H111	H	1.514755	-0.715351	0.344126
H112	H	2.014755	-0.215351	0.844126
H113	H	1.509482	-0.660759	0.270453
H114	H	2.009482	-0.160759	0.770453
H115	H	1.588361	-0.660671	0.349464
H116	H	2.088361	-0.160671	0.849464
C117	C	1.264318	-0.671498	0.594119
C118	C	1.764318	-0.171498	1.094119
H119	H	1.227550	-0.642507	0.630823
H120	H	1.727550	-0.142507	1.130823
H121	H	1.222324	-0.697186	0.557190
H122	H	1.722324	-0.197186	1.057190
H123	H	1.301214	-0.697101	0.636190
H124	H	1.801214	-0.197101	1.136190
C125	C	1.523487	-0.533434	0.335241
C126	C	2.023487	-0.033434	0.835241
H127	H	1.560273	-0.562425	0.298555
H128	H	2.060273	-0.062425	0.798555
H129	H	1.486606	-0.507829	0.293167
H130	H	1.986606	-0.007829	0.793167
H131	H	1.565479	-0.507748	0.372184
H132	H	2.065479	-0.007748	0.872184
C133	C	1.264243	-0.533448	0.594085
C134	C	1.764243	-0.033448	1.094085
H135	H	1.273065	-0.489586	0.585255
H136	H	1.773065	0.010414	1.085255
H137	H	1.199446	-0.544264	0.579913
H138	H	1.699446	-0.044264	1.079913
H139	H	1.278336	-0.544182	0.658914
H140	H	1.778336	-0.044182	1.158914
C141	C	1.264508	-1.072339	0.594208
C142	C	1.764508	-0.572339	1.094208
H143	H	1.227736	-1.043349	0.630910
H144	H	1.727736	-0.543349	1.130910
H145	H	1.222516	-1.098029	0.557279
H146	H	1.722516	-0.598029	1.057279
H147	H	1.301405	-1.097940	0.636281
H148	H	1.801405	-0.597940	1.136281
C149	C	1.523698	-0.934271	0.335348
C150	C	2.023698	-0.434271	0.835348
H151	H	1.560484	-0.963259	0.298658
H152	H	2.060484	-0.463259	0.798658
H153	H	1.486820	-0.908662	0.293278
H154	H	1.986820	-0.408662	0.793278
H155	H	1.565690	-0.908588	0.372298
H156	H	2.065690	-0.408588	0.872298
