data_functionalizedCrystal
_audit_creation_method	'MofGen! by Chris Wilmer'
_symmetry_space_group_name_H-M	'P1'
_symmetry_Int_Tables_number	1
_symmetry_cell_setting	triclinic
loop_
_symmetry_equiv_pos_as_xyz
  x,y,z
_cell_length_a	31.640172
_cell_length_b	14.446369
_cell_length_c	31.640172
_cell_angle_alpha	60.002431
_cell_angle_beta	90.000068
_cell_angle_gamma	59.987431
loop_
_atom_site_label
_atom_site_type_symbol
_atom_site_fract_x
_atom_site_fract_y
_atom_site_fract_z
Zr1	Zr	0.407149	1.013138	-0.055508
O2	O	0.339639	1.206298	-0.122990
O3	O	0.427848	0.820007	-0.034822
O4	O	0.427822	1.013154	-0.123000
O5	O	0.339682	1.013130	0.034747
O6	O	0.497379	1.013133	-0.123008
O7	O	0.339665	1.013151	-0.034811
O8	O	0.497425	0.667630	0.034727
O9	O	0.339636	1.358633	-0.122989
O10	O	0.488582	0.899419	-0.026004
O11	O	0.436685	0.899418	0.025911
O12	O	0.436655	1.126823	-0.077907
O13	O	0.384758	1.126822	-0.025992
Zr14	Zr	0.518113	1.013071	0.055416
Zr15	Zr	0.518085	1.013106	-0.055520
Zr16	Zr	0.407177	1.013103	0.055429
Zr17	Zr	0.407145	1.256096	-0.055507
Zr18	Zr	0.518118	0.770114	0.055415
O19	O	0.497415	1.206202	0.034730
O20	O	0.497375	1.206252	-0.123007
O21	O	0.339678	1.206248	0.034748
O22	O	0.585624	0.819912	0.122898
O23	O	0.585584	0.819961	-0.034839
O24	O	0.427887	0.819958	0.122915
O25	O	0.585580	1.013080	-0.034838
O26	O	0.497441	1.013056	0.122909
O27	O	0.427883	1.013076	0.122917
O28	O	0.585598	1.013058	0.034719
O29	O	0.427815	1.358608	-0.122999
O30	O	0.497447	0.667602	0.122907
O31	O	0.585627	0.667576	0.122897
O32	O	0.585604	0.667604	0.034718
O33	O	0.339658	1.358605	-0.034809
O34	O	0.427837	1.358580	-0.034819
O35	O	0.488608	0.899387	0.077816
O36	O	0.540505	0.899388	0.025900
O37	O	0.488577	1.126792	-0.026003
O38	O	0.436681	1.126790	0.025913
C39	C	0.462637	0.709202	-0.000047
C40	C	0.462639	0.606061	-0.000048
C41	C	0.495204	0.459746	-0.032951
C42	C	0.495388	0.566670	-0.032811
C43	C	0.486536	0.479178	0.056354
C44	C	0.486773	0.371800	0.056176
C45	C	0.406132	0.546823	-0.023084
C46	C	0.406223	0.655297	-0.024228
C47	C	0.323867	1.013145	-0.000030
C48	C	0.276772	1.013159	-0.000025
C49	C	-0.059492	1.013067	0.038283
C50	C	0.117490	1.013104	0.038291
O51	O	0.140391	1.013047	0.070893
N52	N	0.139615	1.013121	-0.000029
C53	C	0.117493	1.013120	-0.038352
O54	O	0.140375	1.013122	-0.070942
C55	C	-0.059486	1.013074	-0.038357
C56	C	-0.081611	1.013070	-0.000037
C57	C	-0.081617	1.013062	0.076600
C58	C	-0.125861	1.013059	0.076596
C59	C	-0.147980	1.013062	0.038275
C60	C	-0.125855	1.013068	-0.000041
C61	C	-0.081604	1.013063	-0.076677
C62	C	-0.125851	1.013048	-0.076674
C63	C	-0.147976	1.013045	-0.038355
C64	C	-0.192219	1.013068	-0.038366
N65	N	-0.214344	1.013051	-0.000046
C66	C	-0.192224	1.013048	0.038275
C67	C	0.210409	1.013148	-0.038347
C68	C	0.254653	1.013162	-0.038346
C69	C	0.254647	1.013143	0.038298
C70	C	0.210401	1.013138	0.038294
C71	C	0.188284	1.013131	-0.000027
C72	C	-0.285141	1.013045	0.038263
C73	C	-0.329391	1.013048	0.038254
C74	C	-0.329380	1.013060	-0.038387
C75	C	-0.285136	1.013063	-0.038381
C76	C	-0.263016	1.013051	-0.000051
O77	O	-0.215143	1.013111	-0.070948
O78	O	-0.215108	1.013017	0.070867
C79	C	-0.015247	1.013069	0.038287
C80	C	0.006878	1.013074	-0.000029
C81	C	-0.015242	1.013077	-0.038350
C82	C	0.051122	1.013088	-0.000029
C83	C	0.073241	1.013085	0.038292
C84	C	0.051117	1.013068	0.076612
C85	C	0.006872	1.013066	0.076608
C86	C	0.006883	1.013094	-0.076670
C87	C	0.051127	1.013098	-0.076663
C88	C	0.073247	1.013095	-0.038343
C89	C	0.601395	1.013065	-0.000061
C90	C	0.648490	1.013051	-0.000066
C91	C	0.462596	1.013149	-0.138810
C92	C	0.462585	1.013163	-0.185906
C93	C	0.462625	1.317007	-0.000044
C94	C	0.462623	1.420149	-0.000044
C95	C	0.424314	1.013090	-0.522174
C96	C	0.424288	1.013130	-0.345193
O97	O	0.391708	1.013092	-0.322297
N98	N	0.462606	1.013124	-0.323063
C99	C	0.500934	1.013100	-0.345179
O100	O	0.533528	1.013082	-0.322292
C101	C	0.500962	1.013050	-0.522157
C102	C	0.462639	1.013069	-0.544288
C103	C	0.385995	1.013107	-0.544304
C104	C	0.386000	1.013104	-0.588548
C105	C	0.424325	1.013084	-0.610662
C106	C	0.462644	1.013066	-0.588532
C107	C	0.539292	1.013016	-0.544270
C108	C	0.539296	1.013001	-0.588517
C109	C	0.500973	1.013020	-0.610648
C110	C	0.500974	1.013043	-0.654890
N111	N	0.462657	1.013049	-0.677020
C112	C	0.424332	1.013069	-0.654906
C113	C	0.500917	1.013128	-0.252264
C114	C	0.500909	1.013143	-0.208020
C115	C	0.424264	1.013171	-0.208036
C116	C	0.424269	1.013165	-0.252283
C117	C	0.462599	1.013134	-0.274393
C118	C	0.424346	1.013064	-0.747823
C119	C	0.424353	1.013067	-0.792072
C120	C	0.501000	1.013032	-0.792050
C121	C	0.500991	1.013037	-0.747806
C122	C	0.462662	1.013048	-0.725692
O123	O	0.533541	1.013066	-0.677810
O124	O	0.391750	1.013058	-0.677794
C125	C	0.424309	1.013093	-0.477930
C126	C	0.462629	1.013075	-0.455799
C127	C	0.500953	1.013054	-0.477913
C128	C	0.462621	1.013090	-0.411555
C129	C	0.424297	1.013110	-0.389442
C130	C	0.385979	1.013116	-0.411571
C131	C	0.385984	1.013113	-0.455816
C132	C	0.539271	1.013049	-0.455783
C133	C	0.539262	1.013053	-0.411539
C134	C	0.500937	1.013074	-0.389425
C135	C	0.462666	1.013061	0.138719
C136	C	0.462678	1.013046	0.185814
C137	C	0.601401	0.709162	-0.000063
C138	C	0.648498	0.606007	-0.000069
C139	C	0.462672	0.709159	0.138717
C140	C	0.462686	0.606002	0.185812
C141	C	0.601436	0.709118	0.138702
C142	C	0.648545	0.605948	0.185791
C143	C	0.323827	1.317091	-0.138793
C144	C	0.276718	1.420262	-0.185883
C145	C	0.323861	1.317048	-0.000029
C146	C	0.276764	1.420203	-0.000023
C147	C	0.462590	1.317051	-0.138809
C148	C	0.462577	1.420208	-0.185904
C149	C	0.643512	0.557580	-0.027169
C150	C	0.687761	0.460668	-0.027185
C151	C	0.736995	0.412178	-0.000097
C152	C	0.741980	0.460614	0.027005
C153	C	0.697731	0.557531	0.027017
C154	C	0.489795	0.557542	0.235026
C155	C	0.489806	0.460629	0.279281
C156	C	0.462710	0.412171	0.274321
C157	C	0.435597	0.460641	0.225101
C158	C	0.435584	0.557558	0.180847
C159	C	0.697762	0.557499	0.180806
C160	C	0.742030	0.460573	0.225047
C161	C	0.737080	0.412092	0.274274
C162	C	0.687857	0.460550	0.279259
C163	C	0.643590	0.557481	0.235018
C164	C	0.227501	1.468722	-0.180897
C165	C	0.183233	1.565678	-0.225139
C166	C	0.188183	1.614165	-0.274366
C167	C	0.237405	1.565700	-0.279350
C168	C	0.281672	1.468753	-0.235109
C169	C	0.281750	1.468640	0.027073
C170	C	0.237501	1.565578	0.027077
C171	C	0.188268	1.614072	-0.000013
C172	C	0.183283	1.565632	-0.027113
C173	C	0.227531	1.468701	-0.027119
C174	C	0.489678	1.468635	-0.180926
C175	C	0.489675	1.565549	-0.225173
C176	C	0.462568	1.614040	-0.274396
C177	C	0.435466	1.565603	-0.279372
C178	C	0.435472	1.468684	-0.235126
H179	H	0.528343	0.281027	0.074622
O180	O	0.519024	0.609790	0.240388
H181	H	0.514468	0.685319	0.201351
O182	O	-0.261292	1.013039	0.079603
H183	H	-0.220864	0.924278	0.101705
H184	H	0.223464	1.429267	-0.049183
O185	O	0.518925	1.416332	-0.127840
H186	H	0.503276	1.497683	-0.123335
H187	H	0.462726	0.333255	0.310359
H188	H	0.701802	0.596958	0.140727
H189	H	0.683692	0.421243	-0.049255
H190	H	0.413510	0.597002	0.140776
H191	H	0.511744	1.604976	-0.221111
O192	O	0.703116	0.609732	0.056260
H193	H	0.684250	0.716649	0.028918
H194	H	0.143158	1.605122	-0.221070
O195	O	0.130178	1.617938	-0.056327
H196	H	0.125657	1.662119	-0.097975
H197	H	0.536627	0.370068	-0.017111
O198	O	-0.057749	1.013067	-0.118009
H199	H	-0.017318	0.924318	-0.099583
H200	H	0.603517	0.596916	0.239084
O201	O	0.222155	1.416443	-0.127805
H202	H	0.180491	1.466455	-0.131780
H203	H	0.570498	1.013000	-0.526257
O204	O	0.186539	1.013126	0.079625
H205	H	0.186653	0.924365	0.101716
O206	O	-0.149711	1.013060	-0.118012
H207	H	-0.120946	0.924315	-0.116131
O208	O	0.406239	1.416461	-0.240502
H209	H	0.410797	1.340911	-0.201469
O210	O	-0.261268	1.013072	-0.079710
H211	H	-0.284084	1.013068	-0.106356
H212	H	0.479254	0.497006	-0.074591
O213	O	0.186556	1.013160	-0.079688
H214	H	0.186674	0.924395	-0.061271
O215	O	0.462555	1.718590	-0.322117
H216	H	0.485950	1.744123	-0.310382
O217	O	0.140436	1.718745	-0.322082
H218	H	0.105382	1.744287	-0.310339
O219	O	0.242739	1.618004	-0.332447
H220	H	0.264223	1.536655	-0.336955
H221	H	0.537060	0.529187	-0.016830
H222	H	0.773020	0.333261	-0.000111
O223	O	0.334757	1.416469	-0.240489
H224	H	0.330756	1.466467	-0.282153
O225	O	0.406223	1.617921	-0.332464
H226	H	0.410769	1.693463	-0.362390
H227	H	0.379905	0.687423	-0.002749
O228	O	0.074984	1.013052	0.117946
H229	H	0.046228	1.101804	0.116065
H230	H	0.152242	1.692999	-0.000004
H231	H	-0.143872	1.013051	0.107800
H232	H	0.479363	0.656034	-0.074344
H233	H	0.511887	0.421177	0.319354
O234	O	0.457391	0.332069	0.090432
H235	H	0.443077	0.389560	0.107054
O236	O	0.795109	0.408364	0.219649
H237	H	0.816561	0.427000	0.238493
O238	O	0.784830	0.307529	0.321987
H239	H	0.773123	0.281950	0.357058
O240	O	0.334848	1.416372	0.056286
H241	H	0.339361	1.372229	0.097932
O242	O	0.456623	0.508625	0.090246
H243	H	0.424331	0.614262	0.067196
O244	O	-0.353244	1.013079	-0.079722
H245	H	-0.387726	1.013068	-0.073281
H246	H	0.683835	0.421062	0.319345
O247	O	0.406390	0.408334	0.219753
H248	H	0.410968	0.332779	0.258797
O249	O	0.590413	0.609883	-0.056394
H250	H	0.594388	0.559929	-0.075245
H251	H	0.241570	1.605002	0.049146
H252	H	0.527712	0.440603	0.074929
O253	O	0.383008	1.013129	-0.815952
H254	H	0.356358	1.013147	-0.793139
O255	O	0.379693	0.599282	-0.077270
H256	H	0.377686	0.523858	-0.076422
O257	O	0.382566	0.775201	-0.079267
H258	H	0.410866	0.799642	-0.089363
O259	O	0.373820	0.513998	0.008507
H260	H	0.397846	0.408017	0.040459
H261	H	-0.347404	1.013048	0.069459
H262	H	-0.063610	1.013055	0.107808
H263	H	0.272660	1.013185	-0.069554
O264	O	0.278514	1.013117	0.079636
H265	H	0.278407	1.101867	0.061216
O266	O	-0.016982	1.013030	0.117945
H267	H	0.005843	1.013010	0.144593
H268	H	0.069136	1.013112	-0.107872
H269	H	-0.011123	1.013095	-0.107875
H270	H	0.354796	1.013114	-0.606563
O271	O	0.383008	1.013077	-0.723970
H272	H	0.344368	1.101848	-0.752728
O273	O	0.344657	1.013130	-0.520454
H274	H	0.306018	1.101900	-0.549216
O275	O	0.382929	1.013206	-0.276152
H276	H	0.384813	0.924466	-0.247403
O277	O	0.382933	1.013162	-0.184174
H278	H	0.389375	1.013150	-0.149687
H279	H	0.532111	1.013148	-0.190009
H280	H	0.532130	1.013104	-0.270263
O281	O	0.542334	1.013006	-0.815908
H282	H	0.540444	1.101758	-0.827682
O283	O	0.580634	1.012986	-0.612370
H284	H	0.607275	1.012989	-0.589548
O285	O	0.795085	0.408302	0.056220
H286	H	0.791125	0.458258	0.075066
O287	O	0.542322	1.013020	-0.723933
H288	H	0.568974	1.013000	-0.746745
H289	H	0.354778	1.013128	-0.473831
H290	H	0.354772	1.013139	-0.393561
H291	H	0.570469	1.013048	-0.393526
H292	H	0.570480	1.013030	-0.473784
