data_functionalizedCrystal
_audit_creation_method	'MofGen! by Chris Wilmer'
_symmetry_space_group_name_H-M	'P1'
_symmetry_Int_Tables_number	1
_symmetry_cell_setting	triclinic
loop_
_symmetry_equiv_pos_as_xyz
  x,y,z
_cell_length_a	14.519731
_cell_length_b	14.519709
_cell_length_c	13.596369
_cell_angle_alpha	89.993066
_cell_angle_beta	90.006433
_cell_angle_gamma	96.315501
loop_
_atom_site_label
_atom_site_type_symbol
_atom_site_fract_x
_atom_site_fract_y
_atom_site_fract_z
O1	O	-1.223856	0.120986	-0.081819
O2	O	-0.723856	0.620986	0.418181
O3	O	-0.955382	0.135202	-0.081816
O4	O	-0.455382	0.635202	0.418184
O5	O	-1.096737	-0.006144	-0.081808
O6	O	-0.596737	0.493856	0.418192
O7	O	-1.082501	0.262332	-0.081826
O8	O	-0.582501	0.762332	0.418174
O9	O	-1.096723	-0.006151	0.081774
O10	O	-0.596723	0.493849	0.581774
O11	O	-0.955368	0.135195	0.081767
O12	O	-0.455368	0.635195	0.581767
O13	O	-1.223842	0.120979	0.081764
O14	O	-0.723842	0.620979	0.581764
Zn15	Zn	-1.089603	0.128086	0.107738
Zn16	Zn	-0.589603	0.628086	0.607738
Zn17	Zn	-1.089621	0.128096	-0.107790
Zn18	Zn	-0.589621	0.628096	0.392210
O19	O	-1.082487	0.262325	0.081757
O20	O	-0.582487	0.762325	0.581757
C21	C	-0.921016	0.134532	-0.000024
C22	C	-0.421016	0.634532	0.499976
C23	C	-0.818635	0.132536	-0.000022
C24	C	-0.318635	0.632536	0.499978
C25	C	-0.735491	0.130915	-0.000024
C26	C	-0.235491	0.630915	0.499976
C27	C	-0.631182	0.128888	-0.000023
C28	C	-0.131182	0.628888	0.499977
C29	C	-0.548043	0.127280	-0.000021
C30	C	-0.048043	0.627280	0.499979
C31	C	-0.443728	0.125253	-0.000021
C32	C	0.056272	0.625253	0.499979
C33	C	-1.096067	-0.040507	-0.000017
C34	C	-0.596067	0.459493	0.499983
C35	C	-1.094079	-0.142889	-0.000016
C36	C	-0.594079	0.357111	0.499984
C37	C	-1.086759	-0.517785	-0.000042
C38	C	-0.586759	-0.017785	0.499958
C39	C	-1.088792	-0.413477	-0.000034
C40	C	-0.588792	0.086523	0.499966
C41	C	-1.090419	-0.330340	-0.000028
C42	C	-0.590419	0.169660	0.499972
C43	C	-1.092452	-0.226025	-0.000022
C44	C	-0.592452	0.273975	0.499978
C45	C	-0.258209	0.121649	-0.000025
C46	C	0.241791	0.621649	0.499975
C47	C	-0.360589	0.123645	-0.000019
C48	C	0.139411	0.623645	0.499981
C49	C	-1.083157	0.296688	-0.000037
C50	C	-0.583157	0.796688	0.499963
C51	C	-1.085146	0.399070	-0.000044
C52	C	-0.585146	0.899070	0.499956
N53	N	-1.089597	0.128078	0.254830
N54	N	-0.589597	0.628078	0.754830
N55	N	-1.089635	0.128096	-0.254881
N56	N	-0.589635	0.628096	0.245119
C57	C	-1.089620	0.128096	0.656121
C58	C	-0.589620	0.628096	1.156121
C59	C	-1.089611	0.128095	0.544469
C60	C	-0.589611	0.628095	1.044469
C61	C	-1.089609	0.128088	0.455479
C62	C	-0.589609	0.628088	0.955479
C63	C	-1.089599	0.128085	0.343820
C64	C	-0.589599	0.628085	0.843820
