data_functionalizedCrystal
_audit_creation_method	'MofGen! by Chris Wilmer'
_symmetry_space_group_name_H-M	'P1'
_symmetry_Int_Tables_number	1
_symmetry_cell_setting	triclinic
loop_
_symmetry_equiv_pos_as_xyz
  x,y,z
_cell_length_a	17.699083
_cell_length_b	16.176319
_cell_length_c	17.699083
_cell_angle_alpha	90.007696
_cell_angle_beta	96.716985
_cell_angle_gamma	89.998611
loop_
_atom_site_label
_atom_site_type_symbol
_atom_site_fract_x
_atom_site_fract_y
_atom_site_fract_z
O1	O	-1.004079	0.068632	0.095713
O2	O	-0.783700	0.068660	0.108166
O3	O	-0.900116	0.068638	-0.008250
O4	O	-0.887663	0.068654	0.212129
O5	O	-0.900100	-0.068855	-0.008257
O6	O	-0.783684	-0.068834	0.108158
O7	O	-1.004063	-0.068861	0.095706
Cu8	Cu	-0.893872	-0.081401	0.101931
Cu9	Cu	-0.893891	0.081200	0.101940
O10	O	-0.887647	-0.068839	0.212121
C11	C	-0.755495	-0.000084	0.107716
C12	C	-0.671477	-0.000073	0.106377
N13	N	-0.893864	-0.195767	0.101925
C14	C	-0.899662	-0.000109	-0.036451
C15	C	-0.898323	-0.000109	-0.120469
C16	C	-1.032268	-0.000116	0.096156
C17	C	-1.116286	-0.000121	0.097494
C18	C	-0.622856	-0.000069	0.174710
C19	C	-0.543913	-0.000079	0.173448
C20	C	-0.513592	-0.000089	0.103852
C21	C	-0.562219	-0.000096	0.035513
C22	C	-0.641161	-0.000091	0.036776
C23	C	-0.243856	-0.000117	0.030418
C24	C	-0.164908	-0.000120	0.029160
C25	C	-0.146608	-0.000105	0.167090
C26	C	-0.225550	-0.000100	0.168353
C27	C	-0.274170	-0.000112	0.100015
C28	C	-0.359769	-0.000102	0.101384
C29	C	-0.427995	-0.000093	0.102481
C30	C	-0.945429	-0.239040	0.050397
C31	C	-0.945432	-0.325588	0.050396
C32	C	-0.893875	-0.368859	0.101927
C33	C	-0.842305	-0.325579	0.153457
C34	C	-0.842299	-0.239034	0.153454
C35	C	-0.842331	-0.674608	0.153472
C36	C	-0.842344	-0.761159	0.153473
C37	C	-0.945465	-0.761161	0.050414
C38	C	-0.945458	-0.674616	0.050410
C39	C	-0.893886	-0.631344	0.101937
C40	C	-0.893882	-0.537499	0.101937
C41	C	-0.893883	-0.462702	0.101932
N42	N	-0.893905	0.195565	0.101941
C43	C	-0.966656	-0.000119	-0.169090
C44	C	-0.965394	-0.000111	-0.248033
C45	C	-0.895798	-0.000100	-0.278354
C46	C	-0.827459	-0.000088	-0.229727
C47	C	-0.828722	-0.000089	-0.150785
C48	C	-0.822364	-0.000080	-0.548090
C49	C	-0.821106	-0.000081	-0.627038
C50	C	-0.959036	-0.000102	-0.645338
C51	C	-0.960299	-0.000104	-0.566396
C52	C	-0.891961	-0.000087	-0.517776
C53	C	-0.893330	-0.000094	-0.432177
C54	C	-0.894427	-0.000099	-0.363951
C55	C	-0.888102	-0.000091	0.240322
C56	C	-0.889440	-0.000085	0.324340
H57	H	-0.504328	-0.000075	0.229092
C58	C	-0.106696	0.070590	0.284272
C59	C	-0.093161	-0.000099	0.242210
H60	H	-0.073698	0.070597	0.330644
H61	H	-0.158044	0.070590	0.294981
H62	H	-0.097513	0.118526	0.255719
H63	H	-0.102350	-0.048035	0.270761
H64	H	-0.041801	-0.000107	0.231504
H65	H	-0.766718	-0.000067	-0.508512
C66	C	-0.757927	-0.000071	-0.739926
C67	C	-0.744600	-0.000063	-0.660369
H68	H	-0.710698	-0.000065	-0.760502
H69	H	-0.786064	0.047866	-0.756613
H70	H	-0.786049	-0.048029	-0.756617
H71	H	-0.716484	0.047898	-0.643677
H72	H	-0.716452	-0.048004	-0.643675
H73	H	-0.800357	-0.796390	0.195437
H74	H	-0.770792	-0.000073	-0.254420
H75	H	-0.773078	-0.000081	-0.111198
H76	H	-0.987416	-0.203814	0.008438
C77	C	-0.303693	0.070609	0.249798
C78	C	-0.258871	-0.000079	0.244859
H79	H	-0.324257	0.070624	0.297033
H80	H	-0.343948	0.070599	0.209289
H81	H	-0.273266	0.118545	0.246432
H82	H	-0.289300	-0.048016	0.248218
H83	H	-0.218611	-0.000077	0.285378
C84	C	-0.740405	-0.683311	0.255349
C85	C	-0.785650	-0.627050	0.210116
H86	H	-0.705415	-0.653947	0.290323
H87	H	-0.713247	-0.717075	0.223878
H88	H	-0.771871	-0.717058	0.282532
H89	H	-0.754185	-0.593307	0.182928
H90	H	-0.812810	-0.593272	0.241590
C91	C	-0.190924	-0.000153	-0.107063
C92	C	-0.131579	-0.000139	-0.047346
H93	H	-0.170345	-0.000169	-0.154291
H94	H	-0.221332	0.047792	-0.103708
H95	H	-0.221334	-0.048102	-0.103696
H96	H	-0.101171	0.047814	-0.050711
H97	H	-0.101157	-0.048089	-0.050703
H98	H	-0.800323	-0.360816	0.195413
H99	H	-0.800309	-0.203801	0.195412
H100	H	-0.647537	-0.000060	0.231384
H101	H	-0.283434	-0.000127	-0.025228
C102	C	-1.076572	-0.787800	0.005799
C103	C	-1.002148	-0.808727	-0.006237
H104	H	-1.111564	-0.817168	-0.029171
H105	H	-1.083940	-0.730071	-0.001575
H106	H	-1.084687	-0.801983	0.056304
H107	H	-0.994031	-0.794538	-0.056740
H108	H	-0.994777	-0.866470	0.001131
C109	C	-1.084616	0.070552	-0.160375
C110	C	-1.043159	-0.000126	-0.135762
H111	H	-1.131844	0.070551	-0.139797
H112	H	-1.093642	0.070545	-0.214342
H113	H	-1.056481	0.118495	-0.143666
H114	H	-1.071292	-0.048069	-0.152476
H115	H	-1.034135	-0.000127	-0.081784
H116	H	-1.014680	-0.000111	-0.684934
H117	H	-0.537526	-0.000116	-0.021154
H118	H	-0.680748	-0.000095	-0.018868
C119	C	-1.047386	-0.316897	-0.051455
C120	C	-1.002125	-0.373154	-0.006233
H121	H	-1.082392	-0.346264	-0.086411
H122	H	-1.015938	-0.283156	-0.078651
H123	H	-1.074534	-0.283126	-0.019969
H124	H	-0.974973	-0.406921	-0.037719
H125	H	-1.033577	-0.406909	0.020965
C126	C	-0.990068	-0.648163	-0.080697
C127	C	-1.002128	-0.627133	-0.006302
H128	H	-1.025050	-0.618870	-0.115729
H129	H	-0.997409	-0.705908	-0.087996
H130	H	-0.939570	-0.633961	-0.088821
H131	H	-1.052625	-0.641341	0.001825
H132	H	-0.994794	-0.569375	0.001001
C133	C	-1.024706	-0.000100	-0.377171
C134	C	-1.040508	-0.000115	-0.301478
H135	H	-1.071081	-0.000095	-0.410165
H136	H	-0.996164	-0.048040	-0.386356
H137	H	-0.996165	0.047854	-0.386329
H138	H	-1.069044	-0.048073	-0.292319
H139	H	-1.069062	0.047829	-0.292290
C140	C	-1.078259	0.070566	-0.557679
C141	C	-1.036801	-0.000112	-0.533067
H142	H	-1.125487	0.070564	-0.537100
H143	H	-1.087287	0.070558	-0.611646
H144	H	-1.050124	0.118509	-0.540971
H145	H	-1.064934	-0.048056	-0.549780
H146	H	-1.027775	-0.000112	-0.479089
