data_functionalizedCrystal
_audit_creation_method	'MofGen! by Chris Wilmer'
_symmetry_space_group_name_H-M	'P1'
_symmetry_Int_Tables_number	1
_symmetry_cell_setting	triclinic
loop_
_symmetry_equiv_pos_as_xyz
  x,y,z
_cell_length_a	17.699083
_cell_length_b	10.654550
_cell_length_c	9.730223
_cell_angle_alpha	90.007970
_cell_angle_beta	89.996304
_cell_angle_gamma	96.116042
loop_
_atom_site_label
_atom_site_type_symbol
_atom_site_fract_x
_atom_site_fract_y
_atom_site_fract_z
O1	O	0.106300	-1.665981	-0.114406
O2	O	0.116428	-1.300325	-0.114384
O3	O	0.001241	-1.493484	-0.114384
O4	O	0.221488	-1.472822	-0.114407
O5	O	0.001241	-1.493466	0.114196
O6	O	0.116429	-1.300308	0.114196
O7	O	0.106301	-1.665964	0.114174
Zn8	Zn	0.111365	-1.483133	0.150477
Zn9	Zn	0.111364	-1.483156	-0.150687
O10	O	0.221488	-1.472805	0.114173
C11	C	-0.026961	-1.492735	-0.000093
C12	C	-0.110993	-1.490514	-0.000093
C13	C	0.115685	-1.253531	-0.000091
C14	C	0.113460	-1.114127	-0.000083
C15	C	0.107044	-1.712757	-0.000122
C16	C	0.109269	-1.852161	-0.000140
C17	C	-0.158893	-1.603894	-0.000097
C18	C	-0.237850	-1.601799	-0.000109
C19	C	-0.268905	-1.486324	-0.000107
C20	C	-0.220998	-1.372935	-0.000106
C21	C	-0.142043	-1.375031	-0.000104
C22	C	-0.539415	-1.364481	-0.000117
C23	C	-0.618376	-1.362394	-0.000115
C24	C	-0.635222	-1.591249	-0.000122
C25	C	-0.556266	-1.593345	-0.000120
C26	C	-0.508367	-1.479957	-0.000127
C27	C	-0.422753	-1.482229	-0.000116
C28	C	-0.354517	-1.484050	-0.000107
C29	C	0.249690	-1.473554	-0.000120
C30	C	0.333722	-1.475775	-0.000130
N31	N	0.111365	-1.483127	0.356013
C32	C	0.181281	-1.033454	-0.000110
C33	C	0.179185	-0.902470	-0.000133
C34	C	0.041443	-0.932845	-0.000108
C35	C	0.043539	-1.063826	-0.000075
C36	C	0.260805	-1.015917	-0.000130
C37	C	0.258710	-0.884933	-0.000154
N38	N	0.111358	-1.483172	-0.356223
C39	C	0.162347	-1.397585	0.427974
C40	C	0.162346	-1.397611	0.571857
C41	C	0.060373	-1.568722	0.571806
C42	C	0.060379	-1.568702	0.427925
C43	C	0.221218	-1.298792	0.428005
C44	C	0.221217	-1.298817	0.571888
H45	H	-0.276847	-1.694125	-0.000110
H46	H	-0.674231	-1.683575	-0.000124
O47	O	0.297897	-1.050054	0.114092
C48	C	0.363463	-0.980636	0.322084
C49	C	0.321460	-0.941805	0.192807
H50	H	0.382540	-0.893136	0.385747
H51	H	0.323731	-1.048792	0.385985
H52	H	0.415264	-1.028732	0.290170
H53	H	0.269660	-0.893657	0.224598
H54	H	0.361244	-0.873706	0.128938
O55	O	0.199126	-1.190499	0.374708
C56	C	0.108841	-1.096488	0.232746
C57	C	0.133760	-1.219221	0.293049
H58	H	0.056000	-1.119670	0.166688
H59	H	0.095478	-1.030868	0.319944
H60	H	0.156641	-1.048064	0.166882
H61	H	0.085992	-1.267751	0.358897
H62	H	0.147148	-1.284752	0.205785
H63	H	0.282743	-0.838833	0.098528
O64	O	-0.026520	-0.884127	-0.000293
C65	C	-0.144870	-0.869985	-0.118749
C66	C	-0.067934	-0.925260	-0.118691
H67	H	-0.178369	-0.903197	-0.214478
H68	H	-0.178472	-0.903234	-0.023144
H69	H	-0.134701	-0.762513	-0.118707
H70	H	-0.078034	-1.032733	-0.118782
H71	H	-0.034358	-0.891912	-0.214288
H72	H	0.279395	-1.319207	0.388952
H73	H	0.018872	-1.638367	0.369336
H74	H	0.276186	-1.328378	0.616501
H75	H	-0.246289	-1.278912	-0.000113
H76	H	-0.011687	-1.129507	-0.000033
O77	O	0.291064	-1.057727	-0.117919
C78	C	0.345673	-1.002137	-0.339380
C79	C	0.311440	-0.954612	-0.206039
H80	H	0.362142	-0.918797	-0.410674
H81	H	0.398275	-1.050729	-0.313768
H82	H	0.301891	-1.072098	-0.392452
H83	H	0.355166	-0.884607	-0.152901
H84	H	0.258822	-0.906096	-0.231740
O85	O	0.205639	-1.183943	0.618293
C86	C	0.177326	-0.974579	0.558286
C87	C	0.194983	-1.104594	0.505548
H88	H	0.168722	-0.910381	0.467159
H89	H	0.123442	-0.986276	0.623285
H90	H	0.226801	-0.930802	0.623474
H91	H	0.145555	-1.148444	0.440303
H92	H	0.248893	-1.092816	0.440623
O93	O	-0.526137	-1.705550	-0.000368
C94	C	-0.516413	-1.901837	-0.118765
C95	C	-0.550568	-1.774795	-0.118664
H96	H	-0.536165	-1.957869	-0.214383
H97	H	-0.451750	-1.883934	-0.118851
H98	H	-0.536082	-1.957798	-0.023067
H99	H	-0.530958	-1.718769	-0.214347
H100	H	-0.615227	-1.792787	-0.118507
H101	H	0.018862	-1.638396	0.630372
O102	O	0.294344	-0.834396	-0.114330
C103	C	0.283209	-0.715211	-0.322454
C104	C	0.242769	-0.772348	-0.193198
H105	H	0.241525	-0.665054	-0.386270
H106	H	0.333125	-0.644657	-0.290670
H107	H	0.304910	-0.793712	-0.386164
H108	H	0.221020	-0.693933	-0.129431
H109	H	0.192890	-0.842932	-0.225077
O110	O	-0.492813	-1.254426	0.000068
C111	C	-0.393925	-1.123921	0.118530
C112	C	-0.446652	-1.248622	0.118475
H113	H	-0.356602	-1.119176	0.214266
H114	H	-0.356486	-1.119171	0.022932
H115	H	-0.429698	-1.041049	0.118470
H116	H	-0.410938	-1.331565	0.118584
H117	H	-0.484095	-1.253261	0.214065
H118	H	-0.643658	-1.268354	-0.000110
H119	H	-0.103043	-1.282705	-0.000100
H120	H	-0.133615	-1.697927	-0.000091
