data_functionalizedCrystal
_audit_creation_method	'MofGen! by Chris Wilmer'
_symmetry_space_group_name_H-M	'P1'
_symmetry_Int_Tables_number	1
_symmetry_cell_setting	triclinic
loop_
_symmetry_equiv_pos_as_xyz
  x,y,z
_cell_length_a	8.597366
_cell_length_b	10.654551
_cell_length_c	7.681481
_cell_angle_alpha	84.205011
_cell_angle_beta	103.474720
_cell_angle_gamma	84.909890
loop_
_atom_site_label
_atom_site_type_symbol
_atom_site_fract_x
_atom_site_fract_y
_atom_site_fract_z
O1	O	2.101762	0.173659	0.172453
O2	O	1.637924	0.193671	0.102079
O3	O	1.880506	0.000852	0.138883
O4	O	1.859179	0.366478	0.135649
O5	O	1.910364	-0.022934	0.436271
O6	O	1.667781	0.169884	0.399467
O7	O	2.131619	0.149872	0.469841
Zn8	Zn	1.904441	0.156102	0.481870
Zn9	Zn	1.865102	0.187441	0.090049
O10	O	1.889037	0.342691	0.433037
C11	C	1.593460	0.180954	0.241762
C12	C	1.416489	0.178485	0.214911
C13	C	1.893868	-0.057828	0.287335
C14	C	1.889181	-0.197238	0.286612
C15	C	1.870708	-0.249769	0.124176
C16	C	1.866292	-0.380759	0.123514
C17	C	1.898831	-0.406678	0.447740
C18	C	1.903235	-0.275689	0.448398
C19	C	1.856654	-0.171318	-0.037611
C20	C	1.838181	-0.223848	-0.200060
C21	C	1.833765	-0.354839	-0.200722
C22	C	1.847822	-0.433299	-0.038934
C23	C	2.176083	0.162589	0.330154
C24	C	2.353053	0.165059	0.356993
C25	C	1.875674	0.401371	0.284581
C26	C	1.880361	0.540782	0.285292
N27	N	1.931300	0.134712	0.749280
N28	N	1.838256	0.208821	-0.177358
H29	H	1.860252	-0.064658	-0.037089
H30	H	1.434140	0.155452	0.499197
H31	H	2.026296	0.059074	0.838898
H32	H	1.335412	0.188083	0.072717
C33	C	1.822719	-0.137541	-0.378016
N34	N	1.811075	-0.072535	-0.512056
H35	H	1.910276	-0.470570	0.579460
H36	H	1.818707	-0.397603	-0.332998
H37	H	1.844201	-0.539957	-0.039490
H38	H	1.918243	-0.232914	0.580663
H39	H	1.743277	0.284463	0.733035
