data_functionalizedCrystal
_audit_creation_method	'MofGen! by Chris Wilmer'
_symmetry_space_group_name_H-M	'P1'
_symmetry_Int_Tables_number	1
_symmetry_cell_setting	triclinic
loop_
_symmetry_equiv_pos_as_xyz
  x,y,z
_cell_length_a	13.032831
_cell_length_b	11.169416
_cell_length_c	11.169409
_cell_angle_alpha	90.030874
_cell_angle_beta	82.804574
_cell_angle_gamma	97.184303
loop_
_atom_site_label
_atom_site_type_symbol
_atom_site_fract_x
_atom_site_fract_y
_atom_site_fract_z
Zn1	Zn	1.597817	0.711078	-0.911316
Zn2	Zn	1.931150	1.044411	-0.577983
Zn3	Zn	2.264483	1.377745	-0.244649
Zn4	Zn	1.597720	0.911805	-0.710624
Zn5	Zn	1.931054	1.245138	-0.377291
Zn6	Zn	2.264387	1.578471	-0.043957
Zn7	Zn	1.423042	0.685622	-0.685190
Zn8	Zn	1.756376	1.018955	-0.351857
Zn9	Zn	2.089709	1.352288	-0.018523
Zn10	Zn	1.423049	0.886192	-0.885824
Zn11	Zn	1.756382	1.219526	-0.552490
Zn12	Zn	2.089715	1.552859	-0.219157
O13	O	1.510407	0.798674	-0.798238
O14	O	1.843740	1.132007	-0.464905
O15	O	2.177074	1.465341	-0.131572
O16	O	1.744048	0.759077	-0.906006
O17	O	2.077381	1.092411	-0.572673
O18	O	2.410715	1.425744	-0.239340
O19	O	1.574506	0.881866	-0.539294
O20	O	1.907839	1.215199	-0.205961
O21	O	2.241172	1.548533	0.127373
O22	O	1.446264	0.521054	-0.715211
O23	O	1.779597	0.854388	-0.381877
O24	O	2.112931	1.187721	-0.048544
O25	O	1.743977	0.906550	-0.758559
O26	O	2.077311	1.239884	-0.425226
O27	O	2.410644	1.573217	-0.091892
O28	O	1.574670	0.539757	-0.881344
O29	O	1.908003	0.873090	-0.548011
O30	O	2.241337	1.206424	-0.214678
O31	O	1.446171	0.715690	-0.520608
O32	O	1.779504	1.049024	-0.187275
O33	O	2.112837	1.382357	0.146059
O34	O	1.276799	0.690855	-0.690492
O35	O	1.610132	1.024189	-0.357159
O36	O	1.943465	1.357522	-0.023825
O37	O	1.446275	0.862898	-1.057161
O38	O	1.779608	1.196231	-0.723828
O39	O	2.112942	1.529564	-0.390495
O40	O	1.276804	0.838214	-0.837896
O41	O	1.610137	1.171547	-0.504563
O42	O	1.943470	1.504880	-0.171230
O43	O	1.574676	0.734242	-1.075890
O44	O	1.908010	1.067576	-0.742557
O45	O	2.241343	1.400909	-0.409224
O46	O	1.574512	1.076351	-0.733840
O47	O	1.907845	1.409685	-0.400507
O48	O	2.241179	1.743018	-0.067173
O49	O	1.446182	1.057534	-0.862559
O50	O	1.779515	1.390867	-0.529225
O51	O	2.112848	1.724201	-0.195892
C52	C	1.238882	0.758994	-0.758669
C53	C	1.572215	1.092327	-0.425335
C54	C	1.905548	1.425660	-0.092002
C55	C	1.122722	0.742047	-0.741769
C56	C	1.456055	1.075380	-0.408436
C57	C	1.789389	1.408714	-0.075102
C58	C	1.510365	1.110493	-0.798223
C59	C	1.843699	1.443826	-0.464890
C60	C	2.177032	1.777159	-0.131557
C61	C	1.510443	1.243904	-0.798271
C62	C	1.843777	1.577237	-0.464937
C63	C	2.177110	1.910571	-0.131604
C64	C	1.510487	0.798553	-1.111293
C65	C	1.843820	1.131886	-0.777959
C66	C	2.177154	1.465219	-0.444626
C67	C	1.510521	0.798501	-1.244698
C68	C	1.843855	1.131834	-0.911364
C69	C	2.177188	1.465167	-0.578031
C70	C	1.070964	0.807519	-0.807058
C71	C	1.404298	1.140852	-0.473725
C72	C	1.737631	1.474186	-0.140392
C73	C	0.950907	0.790005	-0.789593
C74	C	1.284240	1.123339	-0.456260
C75	C	1.617574	1.456672	-0.122927
C76	C	1.782992	0.838510	-0.837963
C77	C	2.116326	1.171844	-0.504630
C78	C	2.449659	1.505177	-0.171297
C79	C	1.899152	0.855486	-0.854892
C80	C	2.232485	1.188820	-0.521558
C81	C	2.565819	1.522153	-0.188225
C82	C	1.510477	0.485642	-0.798284
C83	C	1.843810	0.818975	-0.464951
C84	C	2.177144	1.152309	-0.131617
C85	C	1.510507	0.352246	-0.798304
C86	C	1.843840	0.685580	-0.464970
C87	C	2.177173	1.018913	-0.131637
C88	C	1.510387	0.798717	-0.486411
C89	C	1.843720	1.132051	-0.153077
C90	C	2.177054	1.465384	0.180256
C91	C	1.510555	0.798461	-0.353036
C92	C	1.843889	1.131794	-0.019703
C93	C	2.177222	1.465127	0.313631
H94	H	1.115534	0.876533	-0.875889
H95	H	1.448868	1.209866	-0.542556
H96	H	1.782201	1.543200	-0.209222
H97	H	0.943717	0.924503	-0.923730
H98	H	1.277050	1.257836	-0.590397
H99	H	1.610384	1.591170	-0.257064
H100	H	1.078152	0.673024	-0.672948
H101	H	1.411485	1.006357	-0.339614
H102	H	1.744818	1.339691	-0.006281
H103	H	0.906341	0.720977	-0.720767
H104	H	1.239674	1.054311	-0.387434
H105	H	1.573008	1.387644	-0.054100
