data_functionalizedCrystal
_audit_creation_method	'MofGen! by Chris Wilmer'
_symmetry_space_group_name_H-M	'P1'
_symmetry_Int_Tables_number	1
_symmetry_cell_setting	triclinic
loop_
_symmetry_equiv_pos_as_xyz
  x,y,z
_cell_length_a	16.098538
_cell_length_b	14.044220
_cell_length_c	14.044220
_cell_angle_alpha	93.188878
_cell_angle_beta	92.971297
_cell_angle_gamma	87.017443
loop_
_atom_site_label
_atom_site_type_symbol
_atom_site_fract_x
_atom_site_fract_y
_atom_site_fract_z
O1	O	0.069171	-1.281077	-0.226267
O2	O	0.569171	-0.781077	0.273733
O3	O	0.069192	-1.004407	-0.217960
O4	O	0.569192	-0.504407	0.282040
O5	O	0.069173	-1.138589	-0.083778
O6	O	0.569173	-0.638589	0.416222
O7	O	0.069189	-1.146895	-0.360449
O8	O	0.569189	-0.646895	0.139551
O9	O	-0.069339	-1.130748	-0.091583
O10	O	0.430661	-0.630748	0.408417
O11	O	-0.069320	-0.996566	-0.225765
O12	O	0.430680	-0.496566	0.274235
O13	O	-0.069341	-1.273236	-0.234072
O14	O	0.430659	-0.773236	0.265928
Zn15	Zn	-0.091322	-1.133656	-0.231158
Zn16	Zn	0.408678	-0.633656	0.268842
Zn17	Zn	0.091173	-1.143987	-0.220875
Zn18	Zn	0.591173	-0.643987	0.279125
O19	O	-0.069323	-1.139054	-0.368254
O20	O	0.430677	-0.639054	0.131746
C21	C	-0.000062	-0.964865	-0.218227
C22	C	0.499938	-0.464865	0.281773
C23	C	-0.000054	-0.858722	-0.207382
C24	C	0.499946	-0.358722	0.292618
N25	N	-0.215871	-1.126612	-0.238175
N26	N	0.284129	-0.626612	0.261825
C27	C	-0.000083	-1.131033	-0.052059
C28	C	0.499917	-0.631033	0.447941
C29	C	-0.000083	-1.120188	0.054084
C30	C	0.499917	-0.620188	0.554084
C31	C	-0.259464	-1.183589	-0.181247
C32	C	0.240536	-0.683589	0.318753
C33	C	-0.346652	-1.178671	-0.186166
C34	C	0.153348	-0.678671	0.313834
C35	C	-0.390246	-1.116781	-0.248019
C36	C	0.109754	-0.616781	0.251981
C37	C	-0.346647	-1.059798	-0.304950
C38	C	0.153353	-0.559798	0.195050
C39	C	-0.259460	-1.064711	-0.300025
C40	C	0.240540	-0.564711	0.199975
C41	C	-0.653493	-1.098968	-0.265855
C42	C	-0.153493	-0.598968	0.234145
C43	C	-0.740686	-1.094061	-0.270778
C44	C	-0.240686	-0.594061	0.229222
C45	C	-0.740685	-1.212933	-0.151993
C46	C	-0.240685	-0.712933	0.348007
C47	C	-0.653497	-1.217846	-0.147078
C48	C	-0.153497	-0.717846	0.352922
C49	C	-0.609905	-1.160859	-0.204004
C50	C	-0.109905	-0.660859	0.295996
C51	C	-0.479366	-1.111755	-0.253051
C52	C	0.020634	-0.611755	0.246949
C53	C	-0.520787	-1.165880	-0.198967
C54	C	-0.020787	-0.665880	0.301033
N55	N	0.215721	-1.151038	-0.213850
N56	N	0.715721	-0.651038	0.286150
C57	C	-0.000086	-1.312778	-0.233805
C58	C	0.499914	-0.812778	0.266195
C59	C	-0.000088	-1.418921	-0.244650
C60	C	0.499912	-0.918921	0.255350
C61	C	-0.000072	-0.664384	-0.187557
C62	C	0.499928	-0.164384	0.312443
C63	C	-0.000071	-0.613254	-0.264471
C64	C	0.499929	-0.113254	0.235529
C65	C	-0.000081	-0.505117	-0.253440
C66	C	0.499919	-0.005117	0.246560
C67	C	-0.000062	-0.772530	-0.198586
C68	C	0.499938	-0.272530	0.301414
C69	C	-0.000065	-1.146611	-0.399973
C70	C	0.499935	-0.646611	0.100027
C71	C	-0.000059	-1.157455	-0.506116
C72	C	0.499941	-0.657455	-0.006116
C73	C	-0.000070	-1.100362	0.248422
C74	C	0.499930	-0.600362	0.748422
C75	C	-0.000073	-1.177277	0.299552
C76	C	0.499927	-0.677277	0.799552
C77	C	-0.000065	-1.166245	0.407689
C78	C	0.499935	-0.666245	0.907689
C79	C	-0.000077	-1.111392	0.140276
C80	C	0.499923	-0.611392	0.640276
H81	H	-0.382145	-1.225066	-0.139810
H82	H	0.117855	-0.725066	0.360190
H83	H	-0.000062	-0.650693	-0.338604
H84	H	0.499938	-0.150693	0.161396
N85	N	-0.785231	-1.030833	-0.333947
N86	N	-0.285231	-0.530833	0.166053
N87	N	-0.863075	-1.026460	-0.338334
N88	N	-0.363075	-0.526460	0.161666
H89	H	-0.894537	-0.981809	-0.382945
H90	H	-0.394537	-0.481809	0.117055
N91	N	-0.000088	-1.007367	0.295383
N92	N	0.499912	-0.507367	0.795383
N93	N	-0.058482	-0.947595	0.278361
N94	N	0.441518	-0.447595	0.778361
H95	H	-0.058502	-0.881918	0.311538
H96	H	0.441498	-0.381918	0.811538
N97	N	-0.608986	-1.040749	-0.324005
N98	N	-0.108986	-0.540749	0.175995
N99	N	-0.647922	-0.985495	-0.379225
N100	N	-0.147922	-0.485495	0.120775
H101	H	-0.616487	-0.944374	-0.420296
H102	H	-0.116487	-0.444374	0.079704
H103	H	-0.223975	-1.233991	-0.130884
H104	H	0.276025	-0.733991	0.369116
N105	N	-0.391187	-0.996575	-0.368119
N106	N	0.108813	-0.496575	0.131881
N107	N	-0.469031	-0.992196	-0.372509
N108	N	0.030969	-0.492196	0.127491
H109	H	-0.500488	-0.947544	-0.417124
H110	H	-0.000488	-0.447544	0.082876
N111	N	-0.608983	-1.281247	-0.084068
N112	N	-0.108983	-0.781247	0.415932
N113	N	-0.647916	-1.332232	-0.033360
N114	N	-0.147916	-0.832232	0.466640
H115	H	-0.616478	-1.377079	0.011074
H116	H	-0.116478	-0.877079	0.511074
N117	N	-0.000092	-0.617424	-0.094562
N118	N	0.499908	-0.117424	0.405438
N119	N	-0.058483	-0.559343	-0.073058
N120	N	0.441517	-0.059343	0.426942
H121	H	-0.058496	-0.526167	-0.007381
H122	H	0.441504	-0.026167	0.492619
H123	H	-0.000023	-1.251413	0.262116
H124	H	0.499977	-0.751413	0.762116
H125	H	-0.223968	-1.018314	-0.346381
H126	H	0.276032	-0.518314	0.153619
H127	H	-0.485290	-1.216268	-0.148603
H128	H	0.014710	-0.716268	0.351397
N129	N	-0.785226	-1.271119	-0.093840
N130	N	-0.285226	-0.771119	0.406160
N131	N	-0.833890	-1.233074	-0.034749
N132	N	-0.333890	-0.733074	0.465251
H133	H	-0.865348	-1.274167	0.006328
H134	H	-0.365348	-0.774167	0.506328
N135	N	-0.523901	-1.048528	-0.316220
N136	N	-0.023901	-0.548528	0.183780
N137	N	-0.572563	-0.983969	-0.283622
N138	N	-0.072563	-0.483969	0.216378
H139	H	-0.604020	-0.939312	-0.328231
H140	H	-0.104020	-0.439312	0.171769
