data_functionalizedCrystal
_audit_creation_method	'MofGen! by Chris Wilmer'
_symmetry_space_group_name_H-M	'P1'
_symmetry_Int_Tables_number	1
_symmetry_cell_setting	triclinic
loop_
_symmetry_equiv_pos_as_xyz
  x,y,z
_cell_length_a	23.532355
_cell_length_b	22.010155
_cell_length_c	16.109301
_cell_angle_alpha	89.997171
_cell_angle_beta	83.144490
_cell_angle_gamma	90.002586
loop_
_atom_site_label
_atom_site_type_symbol
_atom_site_fract_x
_atom_site_fract_y
_atom_site_fract_z
O1	O	0.755654	0.050444	0.100709
O2	O	0.589841	0.050464	0.115357
O3	O	0.677303	0.050448	-0.013035
O4	O	0.668193	0.050461	0.229101
O5	O	0.677287	-0.050603	-0.013016
O6	O	0.589825	-0.050586	0.115376
O7	O	0.755639	-0.050606	0.100728
Cu8	Cu	0.672730	-0.059823	0.108054
Cu9	Cu	0.672749	0.059681	0.108031
O10	O	0.668177	-0.050589	0.229120
C11	C	0.568615	-0.000059	0.115000
C12	C	0.505392	-0.000051	0.113899
C13	C	0.113344	-0.055160	0.106993
C14	C	0.053941	-0.055162	0.105946
O15	O	0.023213	-0.102007	0.105385
N16	N	0.024239	-0.000080	0.105416
C17	C	0.053945	0.055008	0.105925
O18	O	0.023227	0.101860	0.105377
C19	C	0.113347	0.055010	0.106966
C20	C	0.143045	-0.000076	0.107505
C21	C	0.143042	-0.110241	0.107530
C22	C	0.202441	-0.110239	0.108579
C23	C	0.232142	-0.055155	0.109091
C24	C	0.202444	-0.000073	0.108553
C25	C	0.143052	0.110098	0.107469
C26	C	0.202459	0.110095	0.108510
C27	C	0.232157	0.055009	0.109048
C28	C	0.291544	0.055014	0.110114
N29	N	0.321246	-0.000069	0.110644
C30	C	0.291545	-0.055153	0.110132
C31	C	-0.070805	0.055001	0.103736
C32	C	-0.130207	0.054999	0.102701
C33	C	-0.130206	-0.055171	0.102720
C34	C	-0.070804	-0.055170	0.103762
C35	C	-0.041103	-0.000082	0.104266
C36	C	0.416287	-0.055143	0.112335
C37	C	0.475691	-0.055135	0.113388
C38	C	0.475686	0.055035	0.113364
C39	C	0.416287	0.055028	0.112316
C40	C	0.386589	-0.000066	0.111799
O41	O	0.322311	0.101835	0.110672
O42	O	0.322272	-0.101996	0.110669
N43	N	0.672721	-0.143875	0.108069
C44	C	0.711480	-0.563662	0.051187
C45	C	0.711482	-0.627270	0.051181
O46	O	0.744413	-0.660167	0.002829
N47	N	0.672749	-0.659082	0.108013
C48	C	0.634006	-0.627284	0.164850
O49	O	0.601061	-0.660184	0.213189
C50	C	0.634002	-0.563678	0.164851
C51	C	0.672741	-0.531868	0.108020
C52	C	0.750216	-0.531852	-0.005640
C53	C	0.750214	-0.468249	-0.005633
C54	C	0.711475	-0.436456	0.051201
C55	C	0.672739	-0.468265	0.108027
C56	C	0.595257	-0.531881	0.221682
C57	C	0.595255	-0.468270	0.221678
C58	C	0.633995	-0.436461	0.164848
C59	C	0.633999	-0.372868	0.164868
N60	N	0.672732	-0.341055	0.108035
C61	C	0.711470	-0.372849	0.051202
C62	C	0.634019	-0.760862	0.164842
C63	C	0.634026	-0.824467	0.164846
C64	C	0.711501	-0.824448	0.051176
C65	C	0.711496	-0.760842	0.051177
C66	C	0.672752	-0.729049	0.108010
C67	C	0.711463	-0.239278	0.051221
C68	C	0.711460	-0.175669	0.051236
C69	C	0.633983	-0.175694	0.164902
C70	C	0.633988	-0.239297	0.164891
C71	C	0.672731	-0.271087	0.108044
O72	O	0.601083	-0.339930	0.213193
O73	O	0.744406	-0.339941	0.002863
C74	C	0.776864	-0.000082	0.101084
C75	C	0.840087	-0.000085	0.102185
C76	C	0.676926	-0.000078	-0.043998
C77	C	0.675819	-0.000079	-0.136284
N78	N	0.672763	0.143733	0.108009
C79	C	0.725145	-0.000075	-0.358958
C80	C	0.724101	-0.000070	-0.445670
C81	C	0.620331	-0.000060	-0.424951
C82	C	0.621375	-0.000061	-0.338241
C83	C	0.673784	-0.000071	-0.305247
C84	C	0.671695	-0.000065	-0.478669
C85	C	0.670563	-0.000060	-0.572686
C86	C	0.674917	-0.000076	-0.211224
C87	C	0.668554	-0.000063	0.260082
C88	C	0.669660	-0.000058	0.352368
H89	H	-0.046628	-0.100026	0.104201
H90	H	0.743041	-0.734946	0.004900
H91	H	0.226638	0.154955	0.108921
Br92	Br	0.551666	-0.000047	-0.265341
H93	H	0.602487	-0.850362	0.211131
Br94	Br	-0.170506	0.129762	0.101991
Br95	Br	0.764040	-0.132502	-0.025893
H96	H	0.563711	-0.557771	0.267958
Br97	Br	0.515992	-0.129900	0.114124
H98	H	0.577661	-0.000052	-0.451826
Br99	Br	0.542668	-0.425128	0.298810
Br100	Br	-0.170526	-0.129929	0.102025
H101	H	-0.046627	0.099862	0.104155
Br102	Br	0.581436	-0.717721	0.241985
H103	H	0.118883	0.154955	0.107030
Br104	Br	0.375980	0.129788	0.111603
H105	H	0.226617	-0.155095	0.109012
Br106	Br	0.375993	-0.129914	0.111631
H107	H	0.602444	-0.149797	0.211178
H108	H	0.602448	-0.265197	0.211176
Br109	Br	0.802795	-0.574990	-0.082782
Br110	Br	0.516006	0.129788	0.114055
Br111	Br	0.102745	-0.185009	0.106839
Br112	Br	0.764043	-0.282412	-0.025930
Br113	Br	0.793808	-0.000071	-0.518561
H114	H	0.781757	-0.442354	-0.051911
H115	H	0.743043	-0.850346	0.004898
Br116	Br	0.796271	-0.000090	-0.314182
