data_functionalizedCrystal
_audit_creation_method	'MofGen! by Chris Wilmer'
_symmetry_space_group_name_H-M	'P1'
_symmetry_Int_Tables_number	1
_symmetry_cell_setting	triclinic
loop_
_symmetry_equiv_pos_as_xyz
  x,y,z
_cell_length_a	21.295420
_cell_length_b	21.295417
_cell_length_c	21.295411
_cell_angle_alpha	89.978356
_cell_angle_beta	89.975307
_cell_angle_gamma	90.028757
loop_
_atom_site_label
_atom_site_type_symbol
_atom_site_fract_x
_atom_site_fract_y
_atom_site_fract_z
Zn1	Zn	0.962355	-0.250710	-0.355914
Zn2	Zn	1.295689	0.082623	-0.022580
Zn3	Zn	1.629022	0.415956	0.310753
Zn4	Zn	0.962258	-0.355962	-0.250639
Zn5	Zn	1.295591	-0.022629	0.082694
Zn6	Zn	1.628924	0.310705	0.416028
Zn7	Zn	0.857079	-0.250708	-0.250658
Zn8	Zn	1.190412	0.082626	0.082675
Zn9	Zn	1.523745	0.415959	0.416008
Zn10	Zn	0.857048	-0.355942	-0.355870
Zn11	Zn	1.190381	-0.022609	-0.022537
Zn12	Zn	1.523715	0.310724	0.310796
O13	O	0.909685	-0.303331	-0.303270
O14	O	1.243018	0.030003	0.030063
O15	O	1.576352	0.363336	0.363396
O16	O	1.050432	-0.264682	-0.341959
O17	O	1.383765	0.068652	-0.008625
O18	O	1.717098	0.401985	0.324708
O19	O	0.948277	-0.342007	-0.162552
O20	O	1.281611	-0.008674	0.170781
O21	O	1.614944	0.324660	0.504114
O22	O	0.871097	-0.162619	-0.264647
O23	O	1.204431	0.170715	0.068686
O24	O	1.537764	0.504048	0.402020
O25	O	1.050360	-0.342010	-0.264614
O26	O	1.383693	-0.008676	0.068719
O27	O	1.717027	0.324657	0.402053
O28	O	0.948444	-0.162621	-0.341977
O29	O	1.281777	0.170713	-0.008644
O30	O	1.615110	0.504046	0.324689
O31	O	0.871003	-0.264677	-0.162566
O32	O	1.204336	0.068656	0.170767
O33	O	1.537669	0.401990	0.504100
O34	O	0.768985	-0.264658	-0.264605
O35	O	1.102318	0.068676	0.068728
O36	O	1.435652	0.402009	0.402062
O37	O	0.871045	-0.341976	-0.443966
O38	O	1.204379	-0.008643	-0.110632
O39	O	1.537712	0.324691	0.222701
O40	O	0.768963	-0.341973	-0.341904
O41	O	1.102296	-0.008640	-0.008571
O42	O	1.435629	0.324693	0.324763
O43	O	0.948414	-0.264662	-0.443997
O44	O	1.281747	0.068671	-0.110664
O45	O	1.615081	0.402004	0.222669
O46	O	0.948248	-0.444049	-0.264572
O47	O	1.281581	-0.110716	0.068761
O48	O	1.614914	0.222618	0.402095
O49	O	0.870951	-0.444034	-0.341885
O50	O	1.204284	-0.110701	-0.008552
O51	O	1.537617	0.222632	0.324782
C52	C	0.746133	-0.303314	-0.303252
C53	C	1.079467	0.030020	0.030081
C54	C	1.412800	0.363353	0.363414
C55	C	0.676165	-0.303321	-0.303260
C56	C	1.009499	0.030012	0.030074
C57	C	1.342832	0.363345	0.363407
C58	C	0.909602	-0.466882	-0.303236
C59	C	1.242936	-0.133549	0.030098
C60	C	1.576269	0.199784	0.363431
C61	C	0.909625	-0.536850	-0.303242
C62	C	1.242958	-0.203517	0.030092
C63	C	1.576291	0.129816	0.363425
C64	C	0.176712	-0.343663	-0.343481
C65	C	0.510045	-0.010330	-0.010148
C66	C	0.843379	0.323004	0.323186
C67	C	0.242454	-0.343663	-0.343474
C68	C	0.575788	-0.010330	-0.010141
C69	C	0.909121	0.323004	0.323192
C70	C	0.275326	-0.303345	-0.303290
C71	C	0.608659	0.029988	0.030043
C72	C	0.941992	0.363322	0.363377
C73	C	0.242449	-0.263035	-0.263098
C74	C	0.575782	0.070299	0.070235
C75	C	0.909116	0.403632	0.403568
C76	C	0.176708	-0.263040	-0.263102
C77	C	0.510041	0.070293	0.070232
C78	C	0.843374	0.403626	0.403565
N79	N	0.378566	-0.248227	-0.298558
N80	N	0.711900	0.085106	0.034776
N81	N	1.045233	0.418439	0.368109
N82	N	0.441018	-0.248224	-0.298558
N83	N	0.774351	0.085109	0.034775
N84	N	1.107685	0.418443	0.368109
C85	C	0.473400	-0.303327	-0.303277
C86	C	0.806734	0.030006	0.030057
C87	C	1.140067	0.363340	0.363390
N88	N	0.440972	-0.358435	-0.308007
N89	N	0.774306	-0.025102	0.025326
N90	N	1.107639	0.308232	0.358659
N91	N	0.378515	-0.358438	-0.308010
N92	N	0.711848	-0.025104	0.025323
N93	N	1.045182	0.308229	0.358657
C94	C	0.346611	-0.303335	-0.303282
C95	C	0.679944	0.029999	0.030052
C96	C	1.013278	0.363332	0.363385
C97	C	0.577555	-0.343638	-0.343456
C98	C	0.910888	-0.010305	-0.010122
C99	C	1.244221	0.323029	0.323211
C100	C	0.643298	-0.343639	-0.343445
C101	C	0.976632	-0.010306	-0.010111
C102	C	1.309965	0.323027	0.323222
C103	C	0.643292	-0.263005	-0.263072
C104	C	0.976625	0.070328	0.070261
C105	C	1.309958	0.403661	0.403595
C106	C	0.577549	-0.263010	-0.263080
C107	C	0.910883	0.070324	0.070253
C108	C	1.244216	0.403657	0.403587
C109	C	0.544685	-0.303325	-0.303275
C110	C	0.878018	0.030008	0.030058
C111	C	1.211351	0.363341	0.363392
C112	C	0.949909	-0.569704	-0.263026
C113	C	1.283242	-0.236370	0.070307
C114	C	1.616576	0.096963	0.403641
C115	C	0.949939	-0.635446	-0.263040
C116	C	1.283272	-0.302113	0.070293
C117	C	1.616605	0.031221	0.403627
C118	C	0.909672	-0.668333	-0.303263
C119	C	1.243006	-0.334999	0.030070
C120	C	1.576339	-0.001666	0.363403
C121	C	0.869385	-0.635472	-0.343487
C122	C	1.202719	-0.302138	-0.010154
C123	C	1.536052	0.031195	0.323180
C124	C	0.869361	-0.569730	-0.343476
C125	C	1.202695	-0.236397	-0.010143
C126	C	1.536028	0.096936	0.323191
N127	N	0.854605	-0.771598	-0.308056
N128	N	1.187939	-0.438264	0.025277
N129	N	1.521272	-0.104931	0.358610
N130	N	0.854630	-0.834049	-0.308063
N131	N	1.187963	-0.500716	0.025270
N132	N	1.521297	-0.167383	0.358604
C133	C	0.909743	-0.866407	-0.303299
C134	C	1.243076	-0.533074	0.030034
C135	C	1.576410	-0.199741	0.363367
N136	N	0.964832	-0.833955	-0.298517
N137	N	1.298165	-0.500622	0.034816
N138	N	1.631498	-0.167288	0.368150
N139	N	0.964807	-0.771498	-0.298507
N140	N	1.298140	-0.438165	0.034826
N141	N	1.631473	-0.104831	0.368160
C142	C	0.909694	-0.739618	-0.303280
C143	C	1.243027	-0.406285	0.030053
C144	C	1.576361	-0.072952	0.363387
C145	C	0.950063	-0.970546	-0.263097
C146	C	1.283396	-0.637213	0.070236
C147	C	1.616729	-0.303880	0.403570
C148	C	0.950093	-1.036290	-0.263116
C149	C	1.283427	-0.702957	0.070218
C150	C	1.616760	-0.369623	0.403551
C151	C	0.869534	-1.036314	-0.343559
C152	C	1.202868	-0.702981	-0.010226
C153	C	1.536201	-0.369648	0.323108
C154	C	0.869509	-0.970572	-0.343544
C155	C	1.202843	-0.637238	-0.010210
C156	C	1.536176	-0.303905	0.323123
C157	C	0.909773	-0.937692	-0.303309
C158	C	1.243106	-0.604358	0.030024
C159	C	1.576439	-0.271025	0.363357
C160	C	1.073875	-0.303348	-0.303289
C161	C	1.407208	0.029985	0.030044
C162	C	1.740542	0.363319	0.363378
C163	C	1.143843	-0.303356	-0.303297
C164	C	1.477177	0.029978	0.030037
C165	C	1.810510	0.363311	0.363370
C166	C	0.909737	-0.303317	-0.467461
C167	C	1.243070	0.030016	-0.134127
C168	C	1.576404	0.363349	0.199206
C169	C	0.909759	-0.303312	-0.537429
C170	C	1.243093	0.030022	-0.204096
C171	C	1.576426	0.363355	0.129238
C172	C	0.909785	-0.139140	-0.303319
C173	C	1.243118	0.194193	0.030014
C174	C	1.576452	0.527526	0.363348
C175	C	0.909827	-0.069172	-0.303340
C176	C	1.243161	0.264161	0.029993
C177	C	1.576494	0.597494	0.363327
C178	C	0.950044	-0.263053	-0.570313
C179	C	1.283377	0.070281	-0.236980
C180	C	1.616710	0.403614	0.096354
C181	C	0.950043	-0.263025	-0.636056
C182	C	1.283376	0.070308	-0.302722
C183	C	1.616709	0.403641	0.030611
C184	C	0.909764	-0.303268	-0.668911
C185	C	1.243098	0.030065	-0.335578
C186	C	1.576431	0.363398	-0.002245
C187	C	0.869472	-0.343530	-0.636019
C188	C	1.202806	-0.010197	-0.302686
C189	C	1.536139	0.323137	0.030647
C190	C	0.869470	-0.343552	-0.570278
C191	C	1.202803	-0.010218	-0.236945
C192	C	1.536136	0.323115	0.096389
N193	N	0.904908	-0.358336	-0.772127
N194	N	1.238241	-0.025003	-0.438793
N195	N	1.571574	0.308331	-0.105460
N196	N	0.904914	-0.358314	-0.834578
N197	N	1.238247	-0.024980	-0.501245
N198	N	1.571580	0.308353	-0.167912
C199	C	0.909768	-0.303204	-0.866986
C200	C	1.243102	0.030129	-0.533653
C201	C	1.576435	0.363462	-0.200320
N202	N	0.914629	-0.248117	-0.834584
N203	N	1.247962	0.085216	-0.501250
N204	N	1.581296	0.418549	-0.167917
N205	N	0.914626	-0.248141	-0.772126
N206	N	1.247960	0.085193	-0.438793
N207	N	1.581293	0.418526	-0.105460
C208	C	0.909762	-0.303249	-0.740197
C209	C	1.243095	0.030084	-0.406864
C210	C	1.576429	0.363418	-0.073530
C211	C	0.950054	-0.262913	-0.971156
C212	C	1.283387	0.070421	-0.637823
C213	C	1.616720	0.403754	-0.304489
C214	C	0.950048	-0.262884	-1.036900
C215	C	1.283382	0.070449	-0.703566
C216	C	1.616715	0.403782	-0.370233
C217	C	0.869481	-0.343395	-1.036862
C218	C	1.202815	-0.010061	-0.703529
C219	C	1.536148	0.323272	-0.370196
C220	C	0.869483	-0.343417	-0.971120
C221	C	1.202816	-0.010084	-0.637786
C222	C	1.536150	0.323249	-0.304453
C223	C	0.909773	-0.303177	-0.938271
C224	C	1.243106	0.030156	-0.604937
C225	C	1.576439	0.363490	-0.271604
C226	C	0.909669	-0.303298	-0.139719
C227	C	1.243002	0.030035	0.193615
C228	C	1.576336	0.363368	0.526948
C229	C	0.909769	-0.303127	-0.069751
C230	C	1.243102	0.030207	0.263582
C231	C	1.576435	0.363540	0.596916
H232	H	0.269221	-0.376486	-0.376199
H233	H	0.602555	-0.043153	-0.042866
H234	H	0.935888	0.290181	0.290468
N235	N	0.826033	-0.386849	-0.935659
N236	N	1.159366	-0.053516	-0.602326
N237	N	1.492699	0.279817	-0.268993
H238	H	0.851591	-0.416036	-0.908391
H239	H	1.184924	-0.082703	-0.575058
H240	H	1.518257	0.250631	-0.241724
H241	H	0.796880	-0.361231	-0.908411
H242	H	1.130214	-0.027897	-0.575078
H243	H	1.463547	0.305436	-0.241744
H244	H	0.982745	-0.662201	-0.230292
H245	H	1.316079	-0.328867	0.103041
H246	H	1.649412	0.004466	0.436375
N247	N	0.542109	-0.387128	-0.386801
N248	N	0.875442	-0.053795	-0.053468
N249	N	1.208776	0.279538	0.279865
H250	H	0.514806	-0.416264	-0.361168
H251	H	0.848140	-0.082930	-0.027834
H252	H	1.181473	0.250403	0.305499
H253	H	0.514896	-0.361548	-0.416017
H254	H	0.848229	-0.028215	-0.082683
H255	H	1.181563	0.305118	0.250650
H256	H	0.269217	-0.230208	-0.230379
H257	H	0.602550	0.103125	0.102954
H258	H	0.935884	0.436458	0.436287
H259	H	0.836679	-0.376155	-1.063613
H260	H	1.170013	-0.042821	-0.730280
H261	H	1.503346	0.290512	-0.396946
N262	N	0.141252	-0.219565	-0.219758
N263	N	0.474585	0.113768	0.113576
N264	N	0.807918	0.447102	0.446909
H265	H	0.172049	-0.194024	-0.194297
H266	H	0.505382	0.139309	0.139036
H267	H	0.838715	0.472643	0.472369
H268	H	0.114001	-0.190471	-0.245436
H269	H	0.447335	0.142862	0.087897
H270	H	0.780668	0.476195	0.421231
N271	N	0.993501	-0.219607	-0.671532
N272	N	1.326835	0.113726	-0.338199
N273	N	1.660168	0.447059	-0.004865
H274	H	0.987389	-0.225702	-0.718163
H275	H	1.320723	0.107631	-0.384830
H276	H	1.654056	0.440965	-0.051497
H277	H	0.983738	-0.174650	-0.660043
H278	H	1.317071	0.158683	-0.326710
H279	H	1.650404	0.492017	0.006624
H280	H	0.836663	-0.376335	-0.543504
H281	H	1.169996	-0.043001	-0.210171
H282	H	1.503329	0.290332	0.123163
H283	H	0.982695	-0.542935	-0.230266
H284	H	1.316029	-0.209601	0.103067
H285	H	1.649362	0.123732	0.436400
N286	N	0.825904	-0.534289	-0.386845
N287	N	1.159237	-0.200956	-0.053512
N288	N	1.492570	0.132378	0.279821
H289	H	0.851459	-0.506972	-0.416035
H290	H	1.184793	-0.173639	-0.082701
H291	H	1.518126	0.159695	0.250632
H292	H	0.800407	-0.565134	-0.412289
H293	H	1.133740	-0.231800	-0.078956
H294	H	1.467073	0.101533	0.254378
N295	N	0.542099	-0.219525	-0.219743
N296	N	0.875433	0.113808	0.113590
N297	N	1.208766	0.447142	0.446924
H298	H	0.514848	-0.190393	-0.245380
H299	H	0.848182	0.142941	0.087953
H300	H	1.181515	0.476274	0.421286
H301	H	0.514834	-0.245110	-0.190533
H302	H	0.848167	0.088224	0.142800
H303	H	1.181501	0.421557	0.476134
N304	N	0.678753	-0.387121	-0.386783
N305	N	1.012087	-0.053788	-0.053449
N306	N	1.345420	0.279545	0.279884
H307	H	0.647955	-0.412659	-0.412245
H308	H	0.981289	-0.079326	-0.078911
H309	H	1.314622	0.254007	0.254422
H310	H	0.706058	-0.361537	-0.415956
H311	H	1.039392	-0.028204	-0.082623
H312	H	1.372725	0.305129	0.250711
N313	N	0.993504	-0.219512	-0.935720
N314	N	1.326837	0.113821	-0.602387
N315	N	1.660171	0.447155	-0.269053
H316	H	1.019021	-0.193999	-0.966531
H317	H	1.352355	0.139334	-0.633197
H318	H	1.685688	0.472668	-0.299864
H319	H	0.967898	-0.190388	-0.908432
H320	H	1.301231	0.142945	-0.575098
H321	H	1.634565	0.476278	-0.241765
N322	N	0.825956	-0.670937	-0.386873
N323	N	1.159290	-0.337604	-0.053540
N324	N	1.492623	-0.004271	0.279794
H325	H	0.832082	-0.717570	-0.380776
H326	H	1.165416	-0.384237	-0.047443
H327	H	1.498749	-0.050903	0.285890
H328	H	0.781000	-0.659489	-0.377033
H329	H	1.114333	-0.326155	-0.043699
H330	H	1.447666	0.007178	0.289634
N331	N	0.678736	-0.219523	-0.219724
N332	N	1.012069	0.113810	0.113609
N333	N	1.345403	0.447144	0.446942
H334	H	0.725371	-0.225636	-0.225818
H335	H	1.058704	0.107697	0.107516
H336	H	1.392038	0.441030	0.440849
H337	H	0.667270	-0.174580	-0.229602
H338	H	1.000603	0.158754	0.103731
H339	H	1.333937	0.492087	0.437064
N340	N	0.993488	-0.935077	-0.219706
N341	N	1.326821	-0.601744	0.113628
N342	N	1.660154	-0.268410	0.446961
H343	H	1.019017	-0.965868	-0.194234
H344	H	1.352350	-0.632535	0.139100
H345	H	1.685684	-0.299201	0.472433
H346	H	1.022595	-0.907758	-0.245350
H347	H	1.355928	-0.574425	0.087983
H348	H	1.689262	-0.241091	0.421316
H349	H	0.982902	-1.063038	-0.230368
H350	H	1.316235	-0.729705	0.102965
H351	H	1.649568	-0.396371	0.436298
H352	H	0.836703	-0.943821	-0.376289
H353	H	1.170037	-0.610487	-0.042955
H354	H	1.503370	-0.277154	0.290378
H355	H	0.982850	-0.230285	-0.543571
H356	H	1.316183	0.103048	-0.210238
H357	H	1.649517	0.436381	0.123095
N358	N	0.826108	-1.071775	-0.386949
N359	N	1.159441	-0.738442	-0.053616
N360	N	1.492775	-0.405108	0.279718
H361	H	0.832237	-1.118408	-0.380856
H362	H	1.165570	-0.785074	-0.047522
H363	H	1.498903	-0.451741	0.285811
H364	H	0.781150	-1.060330	-0.377109
H365	H	1.114484	-0.726996	-0.043776
H366	H	1.447817	-0.393663	0.289558
H367	H	0.836675	-0.376294	-0.662775
H368	H	1.170009	-0.042961	-0.329441
H369	H	1.503342	0.290372	0.003892
N370	N	0.993503	-0.219455	-1.072361
N371	N	1.326836	0.113878	-0.739028
N372	N	1.660170	0.447212	-0.405695
H373	H	1.022658	-0.245030	-1.099651
H374	H	1.355992	0.088304	-0.766318
H375	H	1.689325	0.421637	-0.432984
H376	H	0.967899	-0.190273	-1.099589
H377	H	1.301232	0.143060	-0.766256
H378	H	1.634565	0.476393	-0.432922
N379	N	0.141265	-0.387154	-0.386822
N380	N	0.474599	-0.053821	-0.053488
N381	N	0.807932	0.279512	0.279845
H382	H	0.172067	-0.412693	-0.412274
H383	H	0.505401	-0.079359	-0.078941
H384	H	0.838734	0.253974	0.254393
H385	H	0.113970	-0.416250	-0.361138
H386	H	0.447304	-0.082917	-0.027805
H387	H	0.780637	0.250417	0.305528
