data_functionalizedCrystal
_audit_creation_method	'MofGen! by Chris Wilmer'
_symmetry_space_group_name_H-M	'P1'
_symmetry_Int_Tables_number	1
_symmetry_cell_setting	triclinic
loop_
_symmetry_equiv_pos_as_xyz
  x,y,z
_cell_length_a	14.044220
_cell_length_b	8.559649
_cell_length_c	7.681481
_cell_angle_alpha	85.074634
_cell_angle_beta	96.257949
_cell_angle_gamma	81.483771
loop_
_atom_site_label
_atom_site_type_symbol
_atom_site_fract_x
_atom_site_fract_y
_atom_site_fract_z
O1	O	-1.220000	-0.394944	0.146232
O2	O	-0.945029	-0.381190	0.146277
O3	O	-1.106740	-0.158917	0.146249
O4	O	-1.058289	-0.617217	0.146260
O5	O	-1.126660	-0.131514	-0.146613
O6	O	-0.964949	-0.353787	-0.146584
O7	O	-1.239920	-0.367541	-0.146629
Zn8	Zn	-1.105597	-0.356313	-0.193105
Zn9	Zn	-1.079352	-0.392418	0.192752
O10	O	-1.078209	-0.589814	-0.146601
C11	C	-1.120371	-0.086210	-0.000179
C12	C	-1.131300	0.089612	-0.000171
C13	C	-0.920113	-0.361467	-0.000148
C14	C	-0.816193	-0.343505	-0.000131
C15	C	-1.264836	-0.387265	-0.000201
C16	C	-1.368754	-0.405228	-0.000206
C17	C	-0.625925	-0.310660	-0.000166
C18	C	-0.559018	-0.438066	-0.000171
C19	C	-0.453146	-0.419790	-0.000190
C20	C	-0.731807	-0.328933	-0.000146
C21	C	-1.064577	-0.662522	-0.000169
C22	C	-1.053648	-0.838345	-0.000166
N23	N	-1.123515	-0.331673	-0.456442
N24	N	-1.061442	-0.417047	0.456090
H25	H	-0.603695	-0.187869	-0.000179
H26	H	-0.978806	0.088825	-0.000159
H27	H	-0.998074	-0.504193	-0.468693
O28	O	-1.220554	0.176534	0.000121
C29	C	-1.322480	0.356877	0.151757
C30	C	-1.221366	0.258487	0.151665
H31	H	-1.323163	0.423188	0.274248
H32	H	-1.379217	0.274422	0.151872
H33	H	-1.339897	0.445951	0.029130
H34	H	-1.203857	0.169405	0.274271
H35	H	-1.164685	0.341038	0.151458
H36	H	-0.581249	-0.560867	-0.000159
O37	O	-1.199075	-0.227512	-0.545962
C38	C	-1.277766	0.044920	-0.602805
C39	C	-1.192161	-0.072879	-0.501268
H40	H	-1.272193	0.169971	-0.566736
H41	H	-1.349003	0.010387	-0.566616
H42	H	-1.275441	0.041615	-0.750348
H43	H	-1.194393	-0.069633	-0.353702
H44	H	-1.120961	-0.038305	-0.537604
