data_functionalizedCrystal
_audit_creation_method	'MofGen! by Chris Wilmer'
_symmetry_space_group_name_H-M	'P1'
_symmetry_Int_Tables_number	1
_symmetry_cell_setting	triclinic
loop_
_symmetry_equiv_pos_as_xyz
  x,y,z
_cell_length_a	6.817900
_cell_length_b	11.168129
_cell_length_c	16.305550
_cell_angle_alpha	93.901275
_cell_angle_beta	103.455250
_cell_angle_gamma	108.508637
loop_
_atom_site_label
_atom_site_type_symbol
_atom_site_fract_x
_atom_site_fract_y
_atom_site_fract_z
V1	V	-4.052076	-0.175770	-0.263039
O2	O	-4.012761	0.007350	-0.258024
O3	O	-4.028758	-0.347468	-0.261247
O4	O	-4.003155	-0.173548	-0.377756
O5	O	-4.038541	-0.167775	-0.140709
V6	V	-4.532521	-0.153810	-0.248406
O7	O	-4.320085	-0.223942	-0.295136
O8	O	-4.714708	-0.105639	-0.216309
O9	O	-4.332632	0.017888	-0.250198
O10	O	-4.689232	-0.336931	-0.253421
O11	O	-4.663452	-0.161806	-0.370736
O12	O	-4.358235	-0.156033	-0.133689
C13	C	-3.879877	-0.389310	-0.257099
C14	C	-3.942096	-0.529678	-0.256399
C15	C	-4.074814	-0.754763	-0.328781
C16	C	-4.010509	-0.609685	-0.329507
C17	C	-3.847217	-0.167455	-0.405717
C18	C	-3.888669	-0.166774	-0.499498
C19	C	-4.039368	-0.164135	-0.840244
C20	C	-3.802168	-0.156300	-0.799315
C21	C	-3.759156	-0.157531	-0.701820
C22	C	-3.964602	-0.165443	-0.671196
C23	C	-4.149962	-0.290149	-0.721828
C24	C	-4.191721	-0.289444	-0.819377
C25	C	-4.077095	-0.048261	-0.794396
C26	C	-4.029020	-0.047274	-0.696553
C27	C	-3.922362	-0.166188	-0.575658
C28	C	-4.081619	-0.163400	-0.935783
C29	C	-4.144855	0.059723	-0.254343
C30	C	-4.061875	0.200090	-0.255049
C31	C	-4.177515	-0.162130	-0.105724
C32	C	-4.115301	-0.162804	-0.011941
H33	H	-4.003200	-0.731157	-0.192462
H34	H	-3.619482	-0.067868	-0.666793
Br35	Br	-3.603181	-0.006007	-0.819754
Br36	Br	-3.923772	-0.594481	-0.151174
H37	H	-3.769312	-0.239551	-0.830830
Br38	Br	-4.172647	-0.869345	-0.433106
Br39	Br	-4.274119	-0.044672	-0.660964
H40	H	-4.021470	-0.570792	-0.392632
H41	H	-3.894419	0.044966	-0.662171
Br42	Br	-3.669082	-0.297896	-0.674662
H43	H	-4.168467	-0.377164	-0.849762
H44	H	-4.367165	-0.300381	-0.847369
Br45	Br	-4.079076	-0.436400	-0.693813
Br46	Br	-4.407768	-0.307322	-0.690315
Br47	Br	-3.901620	0.109228	-0.816672
H48	H	-4.249841	-0.052892	-0.821212
