data_functionalizedCrystal
_audit_creation_method	'MofGen! by Chris Wilmer'
_symmetry_space_group_name_H-M	'P1'
_symmetry_Int_Tables_number	1
_symmetry_cell_setting	triclinic
loop_
_symmetry_equiv_pos_as_xyz
  x,y,z
_cell_length_a	14.971486
_cell_length_b	13.596369
_cell_length_c	14.971486
_cell_angle_alpha	89.993803
_cell_angle_beta	96.385871
_cell_angle_gamma	90.000368
loop_
_atom_site_label
_atom_site_type_symbol
_atom_site_fract_x
_atom_site_fract_y
_atom_site_fract_z
O1	O	1.186946	0.081679	-0.116564
O2	O	1.520279	0.415012	0.216769
O3	O	1.853612	0.748345	0.550102
O4	O	0.926545	0.081706	-0.130523
O5	O	1.259879	0.415039	0.202810
O6	O	1.593212	0.748372	0.536144
O7	O	1.063725	0.081684	0.006656
O8	O	1.397058	0.415018	0.339990
O9	O	1.730392	0.748351	0.673323
O10	O	1.049766	0.081700	-0.253744
O11	O	1.383099	0.415033	0.079590
O12	O	1.716433	0.748367	0.412923
O13	O	1.063711	-0.081898	0.006664
O14	O	1.397045	0.251435	0.339997
O15	O	1.730378	0.584768	0.673330
O16	O	0.926532	-0.081877	-0.130516
O17	O	1.259865	0.251456	0.202818
O18	O	1.593198	0.584789	0.536151
O19	O	1.186932	-0.081904	-0.116557
O20	O	1.520265	0.251429	0.216776
O21	O	1.853599	0.584763	0.550110
Zn22	Zn	1.056730	-0.107863	-0.123535
Zn23	Zn	1.390063	0.225470	0.209798
Zn24	Zn	1.723396	0.558804	0.543132
Zn25	Zn	1.056748	0.107665	-0.123545
Zn26	Zn	1.390081	0.440998	0.209789
Zn27	Zn	1.723414	0.774331	0.543122
O28	O	1.049752	-0.081883	-0.253736
O29	O	1.383086	0.251450	0.079597
O30	O	1.716419	0.584784	0.412930
C31	C	0.893214	-0.000082	-0.129895
C32	C	1.226547	0.333251	0.203438
C33	C	1.559881	0.666584	0.536772
C34	C	0.793917	-0.000072	-0.128024
C35	C	1.127250	0.333261	0.205309
C36	C	1.460583	0.666594	0.538642
N37	N	1.056724	-0.254955	-0.123528
N38	N	1.390057	0.078378	0.209805
N39	N	1.723391	0.411712	0.543139
C40	C	0.736692	-0.000069	-0.208614
C41	C	1.070025	0.333264	0.124720
C42	C	1.403358	0.666598	0.458053
C43	C	0.643392	-0.000084	-0.206850
C44	C	0.976725	0.333250	0.126483
C45	C	1.310059	0.666583	0.459816
C46	C	0.607320	-0.000095	-0.124497
C47	C	0.940653	0.333238	0.208836
C48	C	1.273986	0.666572	0.542169
C49	C	0.664552	-0.000101	-0.043902
C50	C	0.997886	0.333232	0.289431
C51	C	1.331219	0.666565	0.622765
C52	C	0.757850	-0.000094	-0.045666
C53	C	1.091183	0.333240	0.287667
C54	C	1.424517	0.666573	0.621001
C55	C	0.470090	-0.000115	-0.040231
C56	C	0.803423	0.333218	0.293103
C57	C	1.136757	0.666552	0.626436
C58	C	0.376786	-0.000121	-0.038466
C59	C	0.710119	0.333212	0.294867
C60	C	1.043453	0.666546	0.628200
C61	C	0.355632	-0.000105	-0.201415
C62	C	0.688965	0.333228	0.131918
C63	C	1.022299	0.666561	0.465251
C64	C	0.448930	-0.000098	-0.203179
C65	C	0.782263	0.333236	0.130154
C66	C	1.115596	0.666569	0.463487
C67	C	0.506156	-0.000102	-0.122584
C68	C	0.839489	0.333231	0.210750
C69	C	1.172822	0.666565	0.544083
C70	C	1.056746	-0.656246	-0.123546
C71	C	1.390080	-0.322912	0.209788
C72	C	1.723413	0.010421	0.543121
C73	C	1.056738	-0.544594	-0.123544
C74	C	1.390071	-0.211261	0.209790
C75	C	1.723404	0.122072	0.543123
C76	C	1.056736	-0.455604	-0.123538
C77	C	1.390069	-0.122271	0.209796
C78	C	1.723402	0.211063	0.543129
C79	C	1.056726	-0.343945	-0.123534
C80	C	1.390059	-0.010612	0.209799
C81	C	1.723393	0.322721	0.543132
C82	C	1.220263	-0.000114	-0.117185
C83	C	1.553597	0.333219	0.216149
C84	C	1.886930	0.666553	0.549482
C85	C	1.319561	-0.000118	-0.119056
C86	C	1.652894	0.333216	0.214278
C87	C	1.986227	0.666549	0.547611
C88	C	1.063094	-0.000107	0.039985
C89	C	1.396427	0.333227	0.373318
C90	C	1.729761	0.666560	0.706652
C91	C	1.061223	-0.000106	0.139282
C92	C	1.394556	0.333228	0.472615
C93	C	1.727890	0.666561	0.805949
N94	N	1.056761	0.254756	-0.123545
N95	N	1.390094	0.588090	0.209789
N96	N	1.723427	0.921423	0.543122
C97	C	1.050384	-0.000090	-0.287065
C98	C	1.383717	0.333244	0.046269
C99	C	1.717050	0.666577	0.379602
C100	C	1.052254	-0.000084	-0.386362
C101	C	1.385588	0.333249	-0.053028
C102	C	1.718921	0.666582	0.280305
C103	C	1.141812	-0.000115	0.196507
C104	C	1.475146	0.333219	0.529841
C105	C	1.808479	0.666552	0.863174
C106	C	1.140049	-0.000105	0.289807
C107	C	1.473383	0.333229	0.623140
C108	C	1.806716	0.666562	0.956473
C109	C	1.057696	-0.000092	0.325879
C110	C	1.391029	0.333241	0.659212
C111	C	1.724363	0.666574	0.992546
C112	C	0.977101	-0.000080	0.268646
C113	C	1.310434	0.333253	0.601980
C114	C	1.643767	0.666586	0.935313
C115	C	0.978865	-0.000084	0.175349
C116	C	1.312198	0.333250	0.508682
C117	C	1.645531	0.666583	0.842015
C118	C	0.973430	-0.000077	0.463109
C119	C	1.306763	0.333257	0.796442
C120	C	1.640096	0.666590	1.129776
C121	C	0.971665	-0.000075	0.556413
C122	C	1.304998	0.333258	0.889746
C123	C	1.638332	0.666591	1.223080
C124	C	1.134614	-0.000098	0.577567
C125	C	1.467947	0.333236	0.910900
C126	C	1.801281	0.666569	1.244233
C127	C	1.136378	-0.000101	0.484269
C128	C	1.469712	0.333233	0.817603
C129	C	1.803045	0.666566	1.150936
C130	C	1.055782	-0.000090	0.427043
C131	C	1.389116	0.333243	0.760376
C132	C	1.722449	0.666576	1.093710
H133	H	0.766054	-0.000059	-0.275675
H134	H	1.099387	0.333274	0.057658
H135	H	1.432720	0.666607	0.390992
C136	C	0.532330	0.000037	0.047203
C137	C	0.865664	0.333370	0.380537
C138	C	1.198997	0.666703	0.713870
C139	C	0.586519	0.084189	0.050931
C140	C	0.919852	0.417523	0.384264
C141	C	1.253186	0.750856	0.717597
C142	C	0.643875	0.084362	0.131452
C143	C	0.977208	0.417695	0.464786
C144	C	1.310541	0.751028	0.798119
H145	H	0.497601	0.000083	0.096578
H146	H	0.830934	0.333417	0.429912
H147	H	1.164268	0.666750	0.763245
H148	H	0.569223	-0.056975	0.049912
H149	H	0.902557	0.276358	0.383246
H150	H	1.235890	0.609691	0.716579
H151	H	0.549630	0.141186	0.048230
H152	H	0.882964	0.474520	0.381564
H153	H	1.216297	0.807853	0.714897
H154	H	0.621268	0.084160	0.001575
H155	H	0.954601	0.417494	0.334908
H156	H	1.287934	0.750827	0.668241
H157	H	0.680768	0.027350	0.134161
H158	H	1.014101	0.360683	0.467495
H159	H	1.347434	0.694016	0.800828
H160	H	0.609138	0.084406	0.180821
H161	H	0.942471	0.417739	0.514154
H162	H	1.275805	0.751072	0.847488
H163	H	0.680654	0.141453	0.133988
H164	H	1.013987	0.474786	0.467322
H165	H	1.347321	0.808120	0.800655
H166	H	1.208874	-0.000130	0.167145
H167	H	1.542207	0.333203	0.500478
H168	H	1.875541	0.666536	0.833812
H169	H	0.596802	-0.000080	-0.272474
H170	H	0.930136	0.333253	0.060859
H171	H	1.263469	0.666587	0.394192
C172	C	0.487923	-0.000134	-0.292681
C173	C	0.821256	0.333200	0.040652
C174	C	1.154590	0.666533	0.373985
C175	C	0.417840	-0.000159	-0.362887
C176	C	0.751174	0.333174	-0.029553
C177	C	1.084507	0.666508	0.303780
C178	C	0.453727	-0.000209	-0.445348
C179	C	0.787060	0.333125	-0.112015
C180	C	1.120393	0.666458	0.221318
H181	H	0.523863	0.056898	-0.296884
H182	H	0.857196	0.390232	0.036450
H183	H	1.190530	0.723565	0.369783
H184	H	0.523857	-0.057199	-0.296799
H185	H	0.857190	0.276134	0.036534
H186	H	1.190524	0.609468	0.369867
H187	H	0.381922	0.056900	-0.358771
H188	H	0.715255	0.390234	-0.025437
H189	H	1.048588	0.723567	0.307896
H190	H	0.381895	-0.057187	-0.358714
H191	H	0.715228	0.276146	-0.025381
H192	H	1.048561	0.609480	0.307952
H193	H	0.489661	-0.057274	-0.449466
H194	H	0.822994	0.276060	-0.116133
H195	H	1.156327	0.609393	0.217200
H196	H	0.489666	0.056825	-0.449541
H197	H	0.823000	0.390158	-0.116208
H198	H	1.156333	0.723491	0.217125
H199	H	0.406182	-0.000235	-0.492992
H200	H	0.739515	0.333098	-0.159659
H201	H	1.072849	0.666432	0.173674
H202	H	0.904606	-0.000081	0.585780
H203	H	1.237939	0.333252	0.919113
H204	H	1.571273	0.666585	1.252446
H205	H	1.203437	-0.000117	0.454903
H206	H	1.536771	0.333216	0.788236
H207	H	1.870104	0.666549	1.121569
C208	C	0.885829	-0.000114	0.401124
C209	C	1.219162	0.333220	0.734458
C210	C	1.552496	0.666553	1.067791
C211	C	0.813329	-0.000131	0.452681
C212	C	1.146662	0.333203	0.786015
C213	C	1.479995	0.666536	1.119348
C214	C	0.732621	-0.000182	0.395613
C215	C	1.065954	0.333152	0.728946
C216	C	1.399287	0.666485	1.062279
H217	H	0.883007	0.056915	0.364263
H218	H	1.216340	0.390248	0.697596
H219	H	1.549674	0.723582	1.030930
H220	H	0.883077	-0.057182	0.364308
H221	H	1.216410	0.276151	0.697642
H222	H	1.549743	0.609484	1.030975
H223	H	0.816080	0.056932	0.489482
H224	H	1.149413	0.390266	0.822815
H225	H	1.482746	0.723599	1.156148
H226	H	0.816121	-0.057155	0.489541
H227	H	1.149454	0.276178	0.822874
H228	H	1.482787	0.609512	1.156208
H229	H	0.729868	-0.057250	0.358797
H230	H	1.063202	0.276083	0.692130
H231	H	1.396535	0.609416	1.025463
H232	H	0.729808	0.056848	0.358754
H233	H	1.063141	0.390181	0.692087
H234	H	1.396475	0.723515	1.025421
H235	H	0.683420	-0.000202	0.430585
H236	H	1.016753	0.333131	0.763919
H237	H	1.350086	0.666464	1.097252
H238	H	0.635175	-0.000124	0.023152
H239	H	0.968508	0.333209	0.356485
H240	H	1.301842	0.666542	0.689818
C241	C	0.891298	0.000079	0.113319
C242	C	1.224632	0.333412	0.446653
C243	C	1.557965	0.666745	0.779986
C244	C	0.841716	0.084233	0.129640
C245	C	1.175050	0.417567	0.462973
C246	C	1.508383	0.750900	0.796307
C247	C	0.761039	0.084415	0.072525
C248	C	1.094372	0.417749	0.405858
C249	C	1.427705	0.751082	0.739191
H250	H	0.904016	0.000129	0.052559
H251	H	1.237350	0.333462	0.385892
H252	H	1.570683	0.666796	0.719226
H253	H	0.857477	-0.056932	0.124279
H254	H	1.190810	0.276402	0.457612
H255	H	1.524143	0.609735	0.790945
H256	H	0.875531	0.141229	0.118674
H257	H	1.208864	0.474562	0.452007
H258	H	1.542198	0.807896	0.785340
H259	H	0.828975	0.084201	0.190389
H260	H	1.162308	0.417534	0.523723
H261	H	1.495641	0.750868	0.857056
H262	H	0.727217	0.027405	0.083484
H263	H	1.060550	0.360738	0.416818
H264	H	1.393883	0.694072	0.750151
H265	H	0.773765	0.084463	0.011768
H266	H	1.107099	0.417796	0.345101
H267	H	1.440432	0.751130	0.678434
H268	H	0.727384	0.141508	0.083596
H269	H	1.060717	0.474841	0.416929
H270	H	1.394050	0.808175	0.750263
H271	H	0.309033	-0.000106	-0.267039
H272	H	0.642367	0.333227	0.066294
H273	H	0.975700	0.666561	0.399627
H274	H	0.347419	-0.000131	0.028593
H275	H	0.680753	0.333202	0.361926
H276	H	1.014086	0.666535	0.695260
H277	H	0.804443	-0.000096	0.019958
H278	H	1.137776	0.333238	0.353292
H279	H	1.471109	0.666571	0.686625
H280	H	1.205673	-0.000114	0.336396
H281	H	1.539007	0.333219	0.669730
H282	H	1.872340	0.666553	1.003063
H283	H	1.200238	-0.000103	0.624165
H284	H	1.533572	0.333231	0.957499
H285	H	1.866905	0.666564	1.290832
H286	H	0.910047	-0.000064	0.298024
H287	H	1.243380	0.333269	0.631357
H288	H	1.576714	0.666602	0.964690
