data_functionalizedCrystal
_audit_creation_method	'MofGen! by Chris Wilmer'
_symmetry_space_group_name_H-M	'P1'
_symmetry_Int_Tables_number	1
_symmetry_cell_setting	triclinic
loop_
_symmetry_equiv_pos_as_xyz
  x,y,z
_cell_length_a	14.519709
_cell_length_b	16.098538
_cell_length_c	14.519709
_cell_angle_alpha	87.273050
_cell_angle_beta	83.680145
_cell_angle_gamma	92.738106
loop_
_atom_site_label
_atom_site_type_symbol
_atom_site_fract_x
_atom_site_fract_y
_atom_site_fract_z
O1	O	1.227984	0.069149	0.116783
O2	O	1.727984	0.569149	0.616783
O3	O	0.959508	0.069175	0.131018
O4	O	1.459508	0.569175	0.631018
O5	O	1.100864	0.069154	-0.010338
O6	O	1.600864	0.569154	0.489662
O7	O	1.086628	0.069170	0.258138
O8	O	1.586628	0.569170	0.758138
O9	O	1.092606	-0.069358	-0.002113
O10	O	1.592606	0.430642	0.497887
O11	O	0.951251	-0.069337	0.139243
O12	O	1.451251	0.430663	0.639243
O13	O	1.219726	-0.069363	0.125008
O14	O	1.719726	0.430637	0.625008
Zn15	Zn	1.084178	-0.091341	0.133431
Zn16	Zn	1.584178	0.408659	0.633431
Zn17	Zn	1.095057	0.091154	0.122595
Zn18	Zn	1.595057	0.591154	0.622595
O19	O	1.078371	-0.069342	0.266363
O20	O	1.578371	0.430658	0.766363
C21	C	0.921020	-0.000078	0.134467
C22	C	1.421020	0.499922	0.634467
C23	C	0.818639	-0.000068	0.132478
C24	C	1.318639	0.499932	0.632478
N25	N	1.076759	-0.215889	0.140826
N26	N	1.576759	0.284111	0.640826
C27	C	0.443741	-0.000107	0.125161
C28	C	0.943741	0.499893	0.625161
C29	C	0.548050	-0.000096	0.127193
C30	C	1.048050	0.499904	0.627193
C31	C	0.631187	-0.000087	0.128819
C32	C	1.131187	0.499913	0.628819
C33	C	0.735502	-0.000077	0.130852
C34	C	1.235502	0.499923	0.630852
C35	C	1.136778	-0.259483	0.080851
C36	C	1.636778	0.240517	0.580851
C37	C	1.131598	-0.346672	0.086033
C38	C	1.631598	0.153328	0.586033
C39	C	1.066402	-0.390264	0.151195
C40	C	1.566402	0.109736	0.651195
C41	C	1.006376	-0.346664	0.211174
C42	C	1.506376	0.153336	0.711174
C43	C	1.011553	-0.259478	0.205987
C44	C	1.511553	0.240522	0.705987
C45	C	1.047634	-0.653512	0.169983
C46	C	1.547634	-0.153512	0.669983
C47	C	1.042464	-0.740704	0.175168
C48	C	1.542464	-0.240704	0.675168
C49	C	1.167684	-0.740706	0.050025
C50	C	1.667684	-0.240706	0.550025
C51	C	1.172859	-0.653517	0.044847
C52	C	1.672859	-0.153517	0.544847
C53	C	1.112831	-0.609925	0.104822
C54	C	1.612831	-0.109925	0.604822
C55	C	1.061106	-0.479385	0.156496
C56	C	1.561106	0.020615	0.656496
C57	C	1.118122	-0.520806	0.099517
C58	C	1.618122	-0.020806	0.599517
C59	C	1.258215	-0.000108	0.121559
C60	C	1.758215	0.499892	0.621559
C61	C	1.360596	-0.000112	0.123547
C62	C	1.860596	0.499888	0.623547
C63	C	1.096072	-0.000102	-0.040585
C64	C	1.596072	0.499898	0.459415
C65	C	1.094083	-0.000102	-0.142966
C66	C	1.594083	0.499898	0.357034
N67	N	1.102483	0.215702	0.115192
N68	N	1.602483	0.715702	0.615192
C69	C	1.086765	-0.000080	-0.517863
C70	C	1.586765	0.499920	-0.017863
C71	C	1.088797	-0.000087	-0.413555
C72	C	1.588797	0.499913	0.086445
C73	C	1.090424	-0.000092	-0.330418
C74	C	1.590424	0.499908	0.169582
C75	C	1.092457	-0.000097	-0.226103
C76	C	1.592457	0.499903	0.273897
C77	C	1.083163	-0.000084	0.296610
C78	C	1.583163	0.499916	0.796610
C79	C	1.085152	-0.000078	0.398991
C80	C	1.585152	0.499922	0.898991
H81	H	1.180469	-0.382165	0.037195
H82	H	1.680469	0.117835	0.537195
H83	H	0.998758	-0.618025	0.218819
H84	H	1.498758	-0.118025	0.718819
H85	H	0.953288	-0.382162	0.264228
H86	H	1.453288	0.117838	0.764228
O87	O	1.200169	-0.217085	0.017656
O88	O	1.700169	0.282915	0.517656
C89	C	1.260129	-0.166595	0.064132
C90	C	1.760129	0.333405	0.564132
H91	H	1.260304	-0.192856	0.138422
H92	H	1.760304	0.307144	0.638422
H93	H	1.235161	-0.100534	0.064992
H94	H	1.735161	0.399466	0.564992
C95	C	1.358902	-0.132955	-0.077859
C96	C	1.858902	0.367045	0.422141
C97	C	1.359123	-0.165212	0.013383
C98	C	1.859123	0.334788	0.513383
H99	H	1.419966	-0.132097	-0.109164
H100	H	1.919966	0.367903	0.390836
H101	H	1.318504	-0.166968	-0.109172
H102	H	1.818504	0.333032	0.390828
H103	H	1.338091	-0.077906	-0.077129
H104	H	1.838091	0.422094	0.422871
H105	H	1.379923	-0.220263	0.012653
H106	H	1.879923	0.279737	0.512653
H107	H	1.399527	-0.131208	0.044695
H108	H	1.899527	0.368792	0.544695
O109	O	1.181357	-0.478518	0.036081
O110	O	1.681357	0.021482	0.536081
C111	C	1.164959	-0.499874	-0.053969
C112	C	1.664959	0.000126	0.446031
H113	H	1.089699	-0.523846	-0.053147
H114	H	1.589699	-0.023846	0.446853
H115	H	1.213017	-0.550491	-0.077921
H116	H	1.713017	-0.050491	0.422079
C117	C	1.276226	-0.393006	-0.122099
C118	C	1.776226	0.106994	0.377901
C119	C	1.183788	-0.422441	-0.121091
C120	C	1.683788	0.077559	0.378909
H121	H	1.287844	-0.345243	-0.163505
H122	H	1.787844	0.154757	0.336495
H123	H	1.287277	-0.378619	-0.061432
H124	H	1.787277	0.121381	0.438568
H125	H	1.316263	-0.435193	-0.142057
H126	H	1.816263	0.064807	0.357943
H127	H	1.143752	-0.380257	-0.101123
H128	H	1.643752	0.119743	0.398877
H129	H	1.172731	-0.436818	-0.181757
H130	H	1.672731	0.063182	0.318243
H131	H	1.225947	-0.618026	-0.008213
H132	H	1.725947	-0.118026	0.491787
O133	O	1.225890	-0.783181	-0.008194
O134	O	1.725890	-0.283181	0.491806
C135	C	1.207360	-0.869482	0.010368
C136	C	1.707360	-0.369482	0.510368
H137	H	1.133392	-0.881394	0.045384
H138	H	1.633392	-0.381394	0.545384
H139	H	1.258165	-0.894210	0.058209
H140	H	1.758165	-0.394210	0.558209
C141	C	1.309259	-0.899624	-0.124288
C142	C	1.809259	-0.399624	0.375712
C143	C	1.218407	-0.914256	-0.081288
C144	C	1.718407	-0.414256	0.418712
H145	H	1.316077	-0.927245	-0.180824
H146	H	1.816077	-0.427245	0.319176
H147	H	1.321746	-0.841482	-0.136792
H148	H	1.821746	-0.341482	0.363208
H149	H	1.351585	-0.920232	-0.084411
H150	H	1.851585	-0.420232	0.415589
H151	H	1.176083	-0.893640	-0.121159
H152	H	1.676083	-0.393640	0.378841
H153	H	1.205913	-0.972396	-0.068792
H154	H	1.705913	-0.472396	0.431208
H155	H	0.989370	-0.776193	0.228235
H156	H	1.489370	-0.276193	0.728235
H157	H	0.962678	-0.223984	0.254824
H158	H	1.462678	0.276016	0.754824
H159	H	1.008024	-0.514885	0.209554
H160	H	1.508024	-0.014885	0.709554
