data_functionalizedCrystal
_audit_creation_method	'MofGen! by Chris Wilmer'
_symmetry_space_group_name_H-M	'P1'
_symmetry_Int_Tables_number	1
_symmetry_cell_setting	triclinic
loop_
_symmetry_equiv_pos_as_xyz
  x,y,z
_cell_length_a	12.759395
_cell_length_b	17.640280
_cell_length_c	12.759387
_cell_angle_alpha	78.768503
_cell_angle_beta	89.980569
_cell_angle_gamma	78.800833
loop_
_atom_site_label
_atom_site_type_symbol
_atom_site_fract_x
_atom_site_fract_y
_atom_site_fract_z
Zn1	Zn	1.690830	-0.314632	-0.509504
Zn2	Zn	1.726249	-0.446827	-0.298333
Zn3	Zn	1.515138	-0.314671	-0.333834
Zn4	Zn	1.550633	-0.446767	-0.473992
O5	O	1.620713	-0.380724	-0.403916
O6	O	1.842552	-0.332176	-0.481497
O7	O	1.698214	-0.429338	-0.156010
O8	O	1.508766	-0.204059	-0.386856
O9	O	1.868574	-0.429300	-0.326351
O10	O	1.637846	-0.204030	-0.515920
O11	O	1.543111	-0.332243	-0.182092
O12	O	1.372823	-0.332185	-0.352421
O13	O	1.569262	-0.429197	-0.625735
O14	O	1.398901	-0.429235	-0.455395
O15	O	1.672264	-0.332118	-0.651826
O16	O	1.732631	-0.557426	-0.291916
O17	O	1.603607	-0.557381	-0.420971
C18	C	1.347741	-0.380708	-0.403907
C19	C	1.230968	-0.380721	-0.403923
C20	C	1.203895	-0.279750	-0.565650
C21	C	1.135500	-0.229274	-0.646520
C22	C	1.025782	-0.229288	-0.646529
C23	C	0.984458	-0.279781	-0.565658
C24	C	1.052852	-0.330257	-0.484789
C25	C	1.162572	-0.330239	-0.484790
C26	C	1.079924	-0.431223	-0.323060
C27	C	1.189643	-0.431214	-0.323053
C28	C	1.038599	-0.481717	-0.242189
C29	C	1.106995	-0.532198	-0.161322
C30	C	1.216719	-0.532183	-0.161317
C31	C	1.258037	-0.481690	-0.242183
C32	C	1.675843	-0.586083	-0.348761
C33	C	1.699524	-0.673936	-0.325200
C34	C	1.441241	-0.962897	-0.583284
C35	C	1.463495	-1.045449	-0.561112
C36	C	1.597932	-1.045429	-0.426862
C37	C	1.575693	-0.962876	-0.449026
C38	C	1.497346	-0.921616	-0.527238
C39	C	1.631797	-0.921595	-0.392980
C40	C	1.609556	-0.839049	-0.415139
C41	C	1.531210	-0.797784	-0.493345
C42	C	1.475104	-0.839070	-0.549397
C43	C	1.710139	-0.962856	-0.314764
C44	C	1.766243	-0.921576	-0.258718
C45	C	1.744007	-0.839028	-0.280882
C46	C	1.665661	-0.797763	-0.359087
C47	C	1.800113	-0.797742	-0.224830
C48	C	1.777871	-0.715196	-0.246989
C49	C	1.643420	-0.715217	-0.381246
C50	C	1.894750	-0.380740	-0.403925
C51	C	2.011529	-0.380747	-0.403929
C52	C	1.620771	-0.380646	-0.677970
C53	C	1.620796	-0.380613	-0.794756
C54	C	1.565396	-0.174563	-0.459309
C55	C	1.541823	-0.086710	-0.482915
C56	C	1.728063	-0.279532	-0.821942
C57	C	1.781708	-0.228979	-0.890399
C58	C	1.781725	-0.228950	-1.000128
C59	C	1.728090	-0.279478	-1.041402
C60	C	1.674445	-0.330030	-0.972945
C61	C	1.674436	-0.330056	-0.863214
C62	C	1.567173	-0.431107	-0.945760
C63	C	1.567161	-0.431141	-0.836030
C64	C	1.513538	-0.481635	-0.987034
C65	C	1.459898	-0.532193	-0.918576
C66	C	1.459884	-0.532220	-0.808840
C67	C	1.513516	-0.481694	-0.767573
C68	C	1.620699	-0.380744	-0.130943
C69	C	1.620818	-0.380554	-0.014218
H70	H	0.895117	-0.279782	-0.565666
Cl71	Cl	1.376618	-0.787195	-0.647731
Cl72	Cl	1.898595	-0.849620	-0.126505
Cl73	Cl	1.342756	-0.911022	-0.681618
H74	H	1.416226	-0.573324	-0.952192
Cl75	Cl	0.900666	-0.481731	-0.242197
Cl76	Cl	1.513507	-0.481727	-0.629627
Cl77	Cl	1.864736	-0.973452	-0.160402
Cl78	Cl	1.341828	-0.279738	-0.565655
H79	H	1.347373	-0.481669	-0.242183
Cl80	Cl	1.513560	-0.481599	-1.124981
H81	H	1.728099	-0.279443	-1.130753
Cl82	Cl	1.728062	-0.279575	-0.683993
H83	H	0.970093	-0.188181	-0.712375
Cl84	Cl	1.055036	-0.595663	-0.059663
H85	H	1.169159	-0.188161	-0.712361
Cl86	Cl	1.848393	-0.663296	-0.176521
H87	H	1.416186	-0.573378	-0.753109
H88	H	1.272400	-0.573284	-0.095460
H89	H	1.825374	-0.187839	-0.856782
H90	H	1.579629	-0.681622	-0.444942
H91	H	1.825400	-0.187781	-1.055869
H92	H	1.513095	-0.730570	-0.511378
H93	H	1.661719	-1.079034	-0.363180
Cl94	Cl	1.738137	-1.066630	-0.286945
Cl95	Cl	1.392943	-1.097342	-0.631567
