data_functionalizedCrystal
_audit_creation_method	'MofGen! by Chris Wilmer'
_symmetry_space_group_name_H-M	'P1'
_symmetry_Int_Tables_number	1
_symmetry_cell_setting	triclinic
loop_
_symmetry_equiv_pos_as_xyz
  x,y,z
_cell_length_a	13.032831
_cell_length_b	12.645330
_cell_length_c	13.032268
_cell_angle_alpha	82.848687
_cell_angle_beta	89.113023
_cell_angle_gamma	82.822813
loop_
_atom_site_label
_atom_site_type_symbol
_atom_site_fract_x
_atom_site_fract_y
_atom_site_fract_z
Zn1	Zn	1.498478	-0.715929	0.780858
Zn2	Zn	1.998478	-0.215929	1.280858
Zn3	Zn	1.520220	-0.873876	0.608884
Zn4	Zn	2.020220	-0.373876	1.108884
Zn5	Zn	1.348336	-0.671644	0.587098
Zn6	Zn	1.848336	-0.171644	1.087098
Zn7	Zn	1.326468	-0.868144	0.759009
Zn8	Zn	1.826468	-0.368144	1.259009
O9	O	1.423375	-0.782398	0.683962
O10	O	1.923375	-0.282398	1.183962
O11	O	1.645282	-0.757814	0.776307
O12	O	2.145282	-0.257814	1.276307
O13	O	1.515670	-0.830915	0.462076
O14	O	2.015670	-0.330915	0.962076
O15	O	1.368306	-0.529182	0.612827
O16	O	1.868306	-0.029182	1.112827
O17	O	1.661256	-0.873856	0.649958
O18	O	2.161256	-0.373856	1.149958
O19	O	1.478614	-0.561718	0.755182
O20	O	1.978614	-0.061718	1.255182
O21	O	1.389388	-0.682336	0.446071
O22	O	1.889388	-0.182336	0.946071
O23	O	1.201515	-0.676778	0.591641
O24	O	1.701515	-0.176778	1.091641
O25	O	1.331034	-0.864087	0.905824
O26	O	1.831034	-0.364087	1.405824
O27	O	1.185448	-0.821146	0.717943
O28	O	1.685448	-0.321146	1.217943
O29	O	1.457409	-0.752256	0.921877
O30	O	1.957409	-0.252256	1.421877
O31	O	1.494465	-1.021452	0.628771
O32	O	1.994465	-0.521452	1.128771
O33	O	1.352116	-1.017241	0.739067
O34	O	1.852116	-0.517241	1.239067
C35	C	1.156164	-0.743535	0.650057
C36	C	1.656164	-0.243535	1.150057
C37	C	1.041847	-0.726938	0.635577
C38	C	1.541847	-0.226938	1.135577
C39	C	0.982971	-0.791061	0.691519
C40	C	1.482971	-0.291061	1.191519
C41	C	0.864818	-0.773908	0.676555
C42	C	1.364818	-0.273908	1.176555
C43	C	1.423302	-1.057816	0.683938
C44	C	1.923302	-0.557816	1.183938
C45	C	1.423360	-1.175658	0.683974
C46	C	1.923360	-0.675658	1.183974
C47	C	1.334105	-1.340692	0.753648
C48	C	1.834105	-0.840692	1.253648
C49	C	1.333733	-1.218045	0.753341
C50	C	1.833733	-0.718045	1.253341
C51	C	1.407793	-1.203807	0.571873
C52	C	1.907793	-0.703807	1.071873
C53	C	1.407248	-1.326389	0.572295
C54	C	1.907248	-0.826389	1.072295
C55	C	1.528779	-1.361707	0.725584
C56	C	2.028779	-0.861707	1.225584
C57	C	1.527810	-1.239270	0.727870
C58	C	2.027810	-0.739270	1.227870
C59	C	1.691630	-0.821414	0.718000
C60	C	2.191630	-0.321414	1.218000
C61	C	1.805944	-0.838040	0.732505
C62	C	2.305944	-0.338040	1.232505
C63	C	1.389357	-0.812472	0.952210
C64	C	1.889357	-0.312472	1.452210
C65	C	1.374860	-0.825288	1.066522
C66	C	1.874860	-0.325288	1.566522
C67	C	1.423474	-0.505912	0.684012
C68	C	1.923474	-0.005912	1.184012
C69	C	1.423516	-0.388090	0.684033
C70	C	1.923516	0.111910	1.184033
C71	C	1.457320	-0.752374	0.416765
C72	C	1.957320	-0.252374	0.916765
C73	C	1.472016	-0.739288	0.302479
C74	C	1.972016	-0.239288	0.802479
C75	C	1.430925	-0.775669	1.125428
C76	C	1.930925	-0.275669	1.625428
C77	C	1.415944	-0.788914	1.243575
C78	C	1.915944	-0.288914	1.743575
H79	H	0.827756	-0.706302	0.617582
H80	H	1.327756	-0.206302	1.117582
H81	H	1.490012	-0.723380	1.088392
H82	H	1.990012	-0.223380	1.588392
H83	H	1.531105	-0.686993	1.265449
H84	H	2.031105	-0.186993	1.765449
H85	H	1.004781	-0.659337	0.576608
H86	H	1.504781	-0.159337	1.076608
O87	O	1.492117	-1.166871	0.500475
O88	O	1.992117	-0.666871	1.000475
H89	H	1.546143	-1.127962	0.544236
H90	H	2.046143	-0.627962	1.044236
O91	O	1.344439	-1.193576	0.862879
O92	O	1.844439	-0.693576	1.362879
H93	H	1.349934	-1.269440	0.916549
H94	H	1.849934	-0.769440	1.416549
O95	O	1.344256	-1.395598	0.863366
O96	O	1.844256	-0.895598	1.363366
H97	H	1.413181	-1.457200	0.869476
H98	H	1.913181	-0.957200	1.369476
H99	H	1.315763	-0.877565	1.103557
H100	H	1.815763	-0.377565	1.603557
H101	H	1.356842	-0.841195	1.280605
H102	H	1.856842	-0.341195	1.780605
H103	H	0.843003	-0.905637	0.791489
H104	H	1.343003	-0.405637	1.291489
H105	H	1.256264	-1.357903	0.725332
H106	H	1.756264	-0.857903	1.225332
H107	H	1.330710	-1.340879	0.538698
H108	H	1.830710	-0.840879	1.038698
O109	O	1.032050	-0.880583	0.769666
O110	O	1.532050	-0.380583	1.269666
H111	H	1.117149	-0.879999	0.769165
H112	H	1.617149	-0.379999	1.269165
H113	H	1.255418	-1.175020	0.724725
H114	H	1.755418	-0.675020	1.224725
O115	O	1.490737	-1.367183	0.500252
O116	O	1.990737	-0.867183	1.000252
H117	H	1.531317	-1.299347	0.465259
H118	H	2.031317	-0.799347	0.965259
O119	O	1.307580	-1.144553	0.526934
O120	O	1.807580	-0.644553	1.026934
H121	H	1.242130	-1.168362	0.576356
H122	H	1.742130	-0.668362	1.076356
O123	O	1.551150	-1.419265	0.832993
O124	O	2.051150	-0.919265	1.332993
H125	H	1.625102	-1.473274	0.832416
H126	H	2.125102	-0.973274	1.332416
O127	O	1.543718	-1.216780	0.837234
O128	O	2.043718	-0.716780	1.337234
H129	H	1.477518	-1.160528	0.860239
H130	H	1.977518	-0.660528	1.360239
O131	O	1.619226	-1.202657	0.667015
O132	O	2.119226	-0.702657	1.167015
H133	H	1.621375	-1.115852	0.671333
H134	H	2.121375	-0.615852	1.171333
H135	H	1.595223	-1.392760	0.675049
H136	H	2.095223	-0.892760	1.175049
