data_functionalizedCrystal
_audit_creation_method	'MofGen! by Chris Wilmer'
_symmetry_space_group_name_H-M	'P1'
_symmetry_Int_Tables_number	1
_symmetry_cell_setting	triclinic
loop_
_symmetry_equiv_pos_as_xyz
  x,y,z
_cell_length_a	15.995355
_cell_length_b	16.176319
_cell_length_c	17.699104
_cell_angle_alpha	90.004384
_cell_angle_beta	96.607138
_cell_angle_gamma	89.998192
loop_
_atom_site_label
_atom_site_type_symbol
_atom_site_fract_x
_atom_site_fract_y
_atom_site_fract_z
O1	O	-1.110795	0.068668	0.097572
O2	O	-0.866996	0.068688	0.109615
O3	O	-0.995774	0.068670	-0.006583
O4	O	-0.982017	0.068686	0.213770
O5	O	-0.995759	-0.068823	-0.006584
O6	O	-0.866981	-0.068806	0.109615
O7	O	-1.110780	-0.068825	0.097571
Cu8	Cu	-0.988879	-0.081370	0.103593
Cu9	Cu	-0.988897	0.081232	0.103593
O10	O	-0.982002	-0.068807	0.213769
C11	C	-0.835795	-0.000057	0.109116
C12	C	-0.742848	-0.000049	0.107622
C13	C	-0.572668	-0.000061	0.104909
C14	C	-0.549486	-0.000067	0.021027
C15	C	-0.452812	-0.000384	0.019445
C16	C	-0.405114	-0.000072	0.102237
C17	C	-0.434115	-0.078428	0.144415
C18	C	-0.530905	-0.078488	0.145414
C19	C	-0.530830	0.077873	0.146642
C20	C	-0.434342	0.078897	0.143542
C21	C	-0.310419	-0.000080	0.100732
C22	C	-0.667362	-0.000058	0.106417
N23	N	-0.988873	-0.195735	0.103592
C24	C	-1.039560	-0.238996	0.149525
C25	C	-1.039569	-0.325543	0.149523
C26	C	-0.988886	-0.368827	0.103590
C27	C	-0.938196	-0.325560	0.057651
C28	C	-0.938192	-0.239014	0.057651
C29	C	-0.938211	-0.674588	0.057652
C30	C	-0.938217	-0.761140	0.057658
C31	C	-1.039589	-0.761117	0.149524
C32	C	-1.039585	-0.674571	0.149523
C33	C	-0.988899	-0.631312	0.103582
C34	C	-0.988891	-0.537467	0.103585
C35	C	-0.988888	-0.462670	0.103591
C36	C	-0.141982	-0.000080	0.098060
C37	C	-0.234934	-0.000083	0.099524
C38	C	-0.995271	-0.000077	-0.034781
C39	C	-0.993783	-0.000077	-0.118801
N40	N	-0.988910	0.195597	0.103588
C41	C	-1.060983	-0.000059	-0.643559
C42	C	-1.062375	-0.000066	-0.564613
C43	C	-0.986778	-0.000062	-0.516122
C44	C	-0.909782	-0.000059	-0.546581
C45	C	-0.908390	-0.000057	-0.625526
C46	C	-0.915395	-0.000066	-0.228206
C47	C	-0.916793	-0.000065	-0.149256
C48	C	-1.069380	-0.000075	-0.167293
C49	C	-1.067988	-0.000074	-0.246238
C50	C	-0.990993	-0.000075	-0.276690
C51	C	-0.989483	-0.000068	-0.362292
C52	C	-0.988287	-0.000063	-0.430521
C53	C	-0.982505	-0.000059	0.241967
C54	C	-0.983993	-0.000053	0.325987
H55	H	-0.577563	0.056114	-0.011484
O56	O	-0.833676	-0.000085	-0.655237
C57	C	-0.848656	-0.000066	-0.735313
H58	H	-0.914033	-0.026100	-0.753845
H59	H	-0.844651	0.065897	-0.757285
C60	C	-0.701820	-0.022005	-0.745309
C61	C	-0.782115	-0.053988	-0.768070
H62	H	-0.660773	-0.055263	-0.765516
H63	H	-0.691727	-0.022015	-0.691360
H64	H	-0.698495	0.032963	-0.763620
H65	H	-0.785443	-0.108951	-0.749750
H66	H	-0.792208	-0.053988	-0.822016
H67	H	-0.414073	-0.136966	0.115475
O68	O	-0.840582	0.000085	-0.257741
C69	C	-0.794511	0.071288	-0.232942
H70	H	-0.839543	0.121056	-0.216519
H71	H	-0.747752	0.055194	-0.181491
C72	C	-0.691205	0.042454	-0.317707
C73	C	-0.746516	0.103582	-0.297543
H74	H	-0.661596	0.062373	-0.357554
H75	H	-0.722242	-0.005519	-0.334413
H76	H	-0.652247	0.029048	-0.274826
H77	H	-0.785479	0.116980	-0.340421
H78	H	-0.715484	0.151558	-0.280845
O79	O	-1.088747	-0.197045	0.194254
C80	C	-1.065381	-0.218174	0.271067
H81	H	-1.032904	-0.281013	0.274297
H82	H	-1.020408	-0.169465	0.298919
C83	C	-1.184370	-0.144984	0.309015
C84	C	-1.144487	-0.222168	0.312984
H85	H	-1.233165	-0.147445	0.334873
H86	H	-1.200111	-0.130747	0.257265
H87	H	-1.146884	-0.104402	0.332225
H88	H	-1.181970	-0.262747	0.289766
H89	H	-1.128755	-0.236413	0.364731
H90	H	-0.559158	0.137283	0.120179
H91	H	-1.080846	-0.360763	0.186925
O92	O	-1.134474	0.000048	-0.690583
C93	C	-1.181228	0.071263	-0.676783
H94	H	-1.160546	0.095004	-0.616899
H95	H	-1.169875	0.121128	-0.719961
C96	C	-1.300974	0.020464	-0.757828
C97	C	-1.275578	0.049619	-0.684275
H98	H	-1.359174	0.007116	-0.762452
H99	H	-1.269475	-0.027513	-0.767128
H100	H	-1.291507	0.062024	-0.793801
H101	H	-1.285036	0.008056	-0.648304
H102	H	-1.307081	0.097589	-0.674969
O103	O	-1.141500	-0.000115	-0.293232
C104	C	-1.209754	-0.000102	-0.249424
H105	H	-1.188378	-0.026130	-0.190507
H106	H	-1.233371	0.065857	-0.243797
C107	C	-1.307539	-0.022063	-0.361119
C108	C	-1.281286	-0.054037	-0.288759
H109	H	-1.351666	-0.055329	-0.385384
H110	H	-1.261556	-0.022068	-0.390635
H111	H	-1.327214	0.032903	-0.356420
H112	H	-1.261602	-0.108998	-0.293459
H113	H	-1.327268	-0.054042	-0.259244
H114	H	-1.125068	-0.000072	-0.539822
H115	H	-0.896933	-0.360809	0.020249
O116	O	-0.396081	-0.081753	0.217136
C117	C	-0.423495	-0.152804	0.253310
H118	H	-0.487001	-0.173340	0.223339
H119	H	-0.375581	-0.204572	0.250528
C120	C	-0.354382	-0.107524	0.373876
C121	C	-0.432384	-0.132743	0.337070
H122	H	-0.359861	-0.095152	0.425544
H123	H	-0.335909	-0.059657	0.349506
H124	H	-0.314461	-0.150669	0.371550
H125	H	-0.472300	-0.089595	0.339387
H126	H	-0.450863	-0.180602	0.361442
H127	H	-1.132073	-0.000063	-0.142490
H128	H	-0.401267	0.083876	0.203952
H129	H	-0.855228	-0.000064	-0.109776
H130	H	-0.433863	0.055773	-0.013571
O131	O	-0.836269	-0.000088	-0.499588
C132	C	-0.768017	-0.000061	-0.543399
H133	H	-0.789387	-0.026098	-0.602317
H134	H	-0.744420	0.065904	-0.549022
C135	C	-0.670221	-0.021991	-0.431707
C136	C	-0.696467	-0.053976	-0.504069
H137	H	-0.626084	-0.055245	-0.407446
H138	H	-0.716203	-0.022007	-0.402190
H139	H	-0.650563	0.032979	-0.436403
H140	H	-0.716134	-0.108942	-0.499371
H141	H	-0.650486	-0.053972	-0.533585
O142	O	-0.888963	-0.803061	0.012963
C143	C	-0.844210	-0.746323	-0.027575
H144	H	-0.878873	-0.684626	-0.031976
H145	H	-0.778423	-0.737121	0.003562
C146	C	-0.794792	-0.855895	-0.102568
C147	C	-0.837370	-0.780120	-0.107979
H148	H	-0.790569	-0.876743	-0.152163
H149	H	-0.824941	-0.894121	-0.075255
H150	H	-0.739975	-0.848216	-0.076617
H151	H	-0.892189	-0.787801	-0.133920
H152	H	-0.807231	-0.741896	-0.135298
O153	O	-0.888826	-0.197025	0.013121
C154	C	-0.803802	-0.218192	0.034031
H155	H	-0.795583	-0.241976	0.095063
H156	H	-0.784451	-0.268434	-0.005657
C157	C	-0.758263	-0.112103	-0.046921
C158	C	-0.748168	-0.141309	0.028042
H159	H	-0.723944	-0.064680	-0.050618
H160	H	-0.815545	-0.097844	-0.061012
H161	H	-0.742138	-0.153978	-0.079986
H162	H	-0.764303	-0.099437	0.061104
H163	H	-0.690887	-0.155559	0.042138
O164	O	-0.584153	-0.067069	-0.017011
C165	C	-0.629317	-0.113923	0.031844
H166	H	-0.604092	-0.100338	0.093473
H167	H	-0.698843	-0.096781	0.021836
C168	C	-0.649790	-0.223299	-0.060214
C169	C	-0.618803	-0.206618	0.015480
H170	H	-0.643308	-0.280477	-0.070309
H171	H	-0.619365	-0.191731	-0.093130
H172	H	-0.707726	-0.209007	-0.068544
H173	H	-0.560866	-0.220900	0.023807
H174	H	-0.649218	-0.238191	0.048397
O175	O	-0.412185	0.147975	0.106836
C176	C	-0.370479	0.125046	0.044052
H177	H	-0.342739	0.060485	0.053768
H178	H	-0.417178	0.125133	-0.009705
C179	C	-0.333380	0.266388	0.023031
C180	C	-0.299303	0.187096	0.034967
H181	H	-0.289478	0.304665	0.017424
H182	H	-0.361481	0.281837	0.065328
H183	H	-0.372296	0.266449	-0.021766
H184	H	-0.260397	0.187034	0.079768
H185	H	-0.271194	0.171649	-0.007323
H186	H	-0.434433	-0.056886	-0.013417
O187	O	-0.547445	0.078943	0.220286
C188	C	-0.591725	0.151761	0.234033
H189	H	-0.578835	0.200914	0.190696
H190	H	-0.662064	0.138027	0.228693
C191	C	-0.578320	0.123087	0.368034
C192	C	-0.562483	0.183460	0.314810
H193	H	-0.560287	0.142639	0.417861
H194	H	-0.548491	0.074026	0.358772
H195	H	-0.636937	0.111647	0.363574
H196	H	-0.503867	0.194891	0.319264
H197	H	-0.592303	0.232523	0.324074
O198	O	-1.088897	-0.632654	0.194162
C199	C	-1.133624	-0.689398	0.234718
H200	H	-1.138576	-0.751094	0.203391
H201	H	-1.099015	-0.698597	0.294110
C202	C	-1.216463	-0.579835	0.279584
C203	C	-1.222551	-0.655610	0.241104
H204	H	-1.271316	-0.558993	0.283527
H205	H	-1.186328	-0.541606	0.252263
H206	H	-1.187619	-0.587512	0.329073
H207	H	-1.251385	-0.647931	0.191613
H208	H	-1.252693	-0.693838	0.268417
O209	O	-0.562950	-0.148687	0.111096
C210	C	-0.604435	-0.194967	0.163080
H211	H	-0.578553	-0.177314	0.223638
H212	H	-0.674790	-0.181314	0.153749
C213	C	-0.621462	-0.309490	0.076290
C214	C	-0.589669	-0.287814	0.150668
H215	H	-0.612358	-0.366763	0.068631
H216	H	-0.593516	-0.278310	0.041265
H217	H	-0.680089	-0.298107	0.068522
H218	H	-0.531041	-0.299188	0.158431
H219	H	-0.617605	-0.318998	0.185693
O220	O	-0.888900	-0.632494	0.013152
C221	C	-0.831661	-0.582463	0.059288
H222	H	-0.857625	-0.569473	0.115447
H223	H	-0.768718	-0.615843	0.070866
C224	C	-0.787198	-0.516224	-0.050793
C225	C	-0.819091	-0.500263	0.018180
H226	H	-0.779441	-0.465521	-0.076151
H227	H	-0.825759	-0.549932	-0.081876
H228	H	-0.734749	-0.544043	-0.041135
H229	H	-0.871544	-0.472455	0.008521
H230	H	-0.780538	-0.466548	0.049261
H231	H	-0.545358	-0.081835	0.206926
H232	H	-1.080862	-0.796350	0.186930
