data_functionalizedCrystal
_audit_creation_method	'MofGen! by Chris Wilmer'
_symmetry_space_group_name_H-M	'P1'
_symmetry_Int_Tables_number	1
_symmetry_cell_setting	triclinic
loop_
_symmetry_equiv_pos_as_xyz
  x,y,z
_cell_length_a	6.817900
_cell_length_b	9.582860
_cell_length_c	13.212919
_cell_angle_alpha	87.054132
_cell_angle_beta	106.298290
_cell_angle_gamma	111.206767
loop_
_atom_site_label
_atom_site_type_symbol
_atom_site_fract_x
_atom_site_fract_y
_atom_site_fract_z
V1	V	-4.074148	-0.163027	-0.325376
O2	O	-4.019665	0.053167	-0.319379
O3	O	-4.064864	-0.366855	-0.322961
O4	O	-4.028383	-0.140628	-0.467370
O5	O	-4.056399	-0.174626	-0.173970
V6	V	-4.552366	-0.139518	-0.307289
O7	O	-4.347043	-0.214596	-0.365050
O8	O	-4.729668	-0.087949	-0.267616
O9	O	-4.338443	0.064310	-0.309704
O10	O	-4.724246	-0.355712	-0.313286
O11	O	-4.687512	-0.127919	-0.458695
O12	O	-4.374925	-0.161917	-0.165295
C13	C	-3.919296	-0.417165	-0.317779
C14	C	-3.993010	-0.583669	-0.316751
C15	C	-3.872758	-0.128588	-0.501986
C16	C	-3.916882	-0.111624	-0.618065
C17	C	-4.133801	-0.349869	-0.865771
C18	C	-4.175263	-0.333936	-0.974839
C19	C	-4.041284	-0.063827	-0.945271
C20	C	-3.999822	-0.079760	-0.836204
C21	C	-4.046081	-0.222785	-0.796458
C22	C	-4.004603	-0.238716	-0.687387
C23	C	-3.870641	0.031391	-0.657822
C24	C	-3.912103	0.047324	-0.766890
C25	C	-4.147355	0.114612	-0.314883
C26	C	-4.052880	0.281115	-0.315918
C27	C	-4.193892	-0.173962	-0.130674
C28	C	-4.129005	-0.190919	-0.014594
H29	H	-4.042261	-0.355175	-0.655028
H30	H	-3.874455	0.163771	-0.799267
H31	H	-4.246689	-0.437421	-1.031272
H32	H	-4.171442	-0.466325	-0.833409
H33	H	-4.003650	0.052617	-0.977653
H34	H	-3.799188	0.134873	-0.601374
