data_functionalizedCrystal
_audit_creation_method	'MofGen! by Chris Wilmer'
_symmetry_space_group_name_H-M	'P1'
_symmetry_Int_Tables_number	1
_symmetry_cell_setting	triclinic
loop_
_symmetry_equiv_pos_as_xyz
  x,y,z
_cell_length_a	18.050589
_cell_length_b	18.050591
_cell_length_c	11.169409
_cell_angle_alpha	90.031003
_cell_angle_beta	89.967150
_cell_angle_gamma	89.978346
loop_
_atom_site_label
_atom_site_type_symbol
_atom_site_fract_x
_atom_site_fract_y
_atom_site_fract_z
Zn1	Zn	-0.295729	-1.135353	-0.678896
Zn2	Zn	-0.419944	-1.135246	-0.478211
Zn3	Zn	-0.295758	-1.011154	-0.478191
Zn4	Zn	-0.419868	-1.011120	-0.678817
O5	O	-0.357825	-1.073218	-0.578529
O6	O	-0.312227	-1.239263	-0.652316
O7	O	-0.403515	-1.118754	-0.310259
O8	O	-0.191830	-1.027689	-0.504840
O9	O	-0.403487	-1.239185	-0.504874
O10	O	-0.191809	-1.118937	-0.652297
O11	O	-0.312276	-1.027585	-0.310244
O12	O	-0.312202	-0.907225	-0.504763
O13	O	-0.403356	-1.027631	-0.846777
O14	O	-0.403385	-0.907200	-0.652162
O15	O	-0.312152	-1.118904	-0.846836
O16	O	-0.523859	-1.118721	-0.504797
O17	O	-0.523803	-1.027527	-0.652181
C18	C	-0.357789	-0.880266	-0.578453
C19	C	-0.357791	-0.797721	-0.578449
C20	C	-0.308142	-0.548887	-0.498462
C21	C	-0.290046	-0.598329	-0.607995
C22	C	-0.357813	-0.500600	-0.578522
C23	C	-0.375863	-0.598240	-0.468959
C24	C	-0.357801	-0.646585	-0.578480
C25	C	-0.339683	-0.548955	-0.688113
C26	C	-0.425531	-0.548862	-0.549003
C27	C	-0.407461	-0.598281	-0.658612
C28	C	-0.357819	-0.416502	-0.578544
C29	C	-0.357795	-0.730682	-0.578470
C30	C	-0.550777	-1.073129	-0.578509
C31	C	-0.633323	-1.073158	-0.578541
C32	C	-0.832770	-1.023616	-0.658660
C33	C	-0.882219	-1.005508	-0.549139
C34	C	-0.784453	-1.073231	-0.578556
C35	C	-0.882086	-1.091375	-0.688090
C36	C	-0.930438	-1.073300	-0.578581
C37	C	-0.832815	-1.055088	-0.468977
C38	C	-0.832677	-1.140987	-0.608002
C39	C	-0.882104	-1.122905	-0.498406
C40	C	-0.700355	-1.073190	-0.578544
C41	C	-1.014535	-1.073342	-0.578582
C42	C	-0.164119	-1.073329	-0.578575
C43	C	-0.081574	-1.073376	-0.578595
C44	C	-0.357743	-1.073275	-0.891572
C45	C	-0.357707	-1.073300	-1.024972
C46	C	-0.357849	-0.266924	-0.578585
C47	C	-0.357825	-0.349470	-0.578555
C48	C	-0.357854	-1.073204	-0.266704
C49	C	-0.357679	-1.073324	-0.133305
H50	H	-0.232770	-0.620043	-0.632966
H51	H	-0.903630	-1.164893	-0.430597
H52	H	-0.449462	-0.619831	-0.726376
H53	H	-0.391135	-0.619892	-0.376321
H54	H	-0.266109	-0.527201	-0.430859
H55	H	-0.324344	-0.527395	-0.780778
H56	H	-0.482788	-0.527118	-0.524014
C57	C	-0.863348	-0.931487	-0.805549
C58	C	-0.803520	-0.966893	-0.749977
H59	H	-0.845288	-0.896466	-0.861913
H60	H	-0.892975	-0.967226	-0.845565
H61	H	-0.892350	-0.906747	-0.746853
H62	H	-0.774521	-0.991639	-0.808672
H63	H	-0.773880	-0.931149	-0.709960
C64	C	-0.989166	-0.929242	-0.514834
C65	C	-0.911601	-0.928199	-0.515518
H66	H	-1.007301	-0.881515	-0.494077
H67	H	-1.006754	-0.942444	-0.592081
H68	H	-1.006044	-0.964467	-0.457863
H69	H	-0.894723	-0.892978	-0.572496
H70	H	-0.894006	-0.914988	-0.438260
H71	H	-0.811262	-1.039703	-0.376331
C72	C	-0.829271	-1.270437	-0.558959
C73	C	-0.803278	-1.218278	-0.641662
H74	H	-0.811124	-1.318153	-0.579756
H75	H	-0.812428	-1.257637	-0.481103
H76	H	-0.881892	-1.270903	-0.559946
H77	H	-0.750657	-1.217808	-0.640668
H78	H	-0.820117	-1.231081	-0.719537
C79	C	-0.851453	-1.124136	-0.890528
C80	C	-0.911303	-1.112064	-0.813121
H81	H	-0.869491	-1.136908	-0.967715
H82	H	-0.822545	-1.080304	-0.895866
H83	H	-0.821741	-1.163394	-0.860507
H84	H	-0.941012	-1.072802	-0.843137
H85	H	-0.940224	-1.155901	-0.807787
