data_functionalizedCrystal
_audit_creation_method	'MofGen! by Chris Wilmer'
_symmetry_space_group_name_H-M	'P1'
_symmetry_Int_Tables_number	1
_symmetry_cell_setting	triclinic
loop_
_symmetry_equiv_pos_as_xyz
  x,y,z
_cell_length_a	17.699083
_cell_length_b	13.339070
_cell_length_c	16.776229
_cell_angle_alpha	89.996888
_cell_angle_beta	89.998886
_cell_angle_gamma	99.456154
loop_
_atom_site_label
_atom_site_type_symbol
_atom_site_fract_x
_atom_site_fract_y
_atom_site_fract_z
O1	O	1.031106	0.127864	-0.066171
O2	O	0.814244	0.144499	-0.066196
O3	O	0.897786	-0.011021	-0.066184
O4	O	0.947563	0.283384	-0.066183
O5	O	0.897768	-0.011031	0.066392
O6	O	0.814226	0.144489	0.066380
O7	O	1.031088	0.127854	0.066406
Zn8	Zn	0.922654	0.136170	0.087442
Zn9	Zn	0.922677	0.136183	-0.087233
O10	O	0.947546	0.283374	0.066394
C11	C	0.785912	0.143898	0.000089
C12	C	0.701516	0.142110	0.000079
C13	C	0.889369	-0.048694	0.000102
C14	C	0.864305	-0.160935	0.000096
C15	C	0.672191	0.233397	0.000079
C16	C	0.592891	0.231710	0.000090
C17	C	0.542918	0.138736	0.000094
C18	C	0.572248	0.047442	0.000096
C19	C	0.651546	0.049129	0.000091
C20	C	0.252446	0.040635	0.000115
C21	C	0.173143	0.038955	0.000117
C22	C	0.193791	0.223216	0.000114
C23	C	0.273089	0.224904	0.000109
C24	C	0.302412	0.133610	0.000115
C25	C	0.388398	0.135440	0.000106
C26	C	0.456933	0.136906	0.000098
C27	C	1.059185	-0.526207	0.000119
C28	C	1.082736	-0.420752	0.000129
C29	C	1.028130	-0.355792	0.000121
C30	C	0.949970	-0.396298	0.000102
C31	C	0.926417	-0.501763	0.000098
C32	C	0.895362	-0.331349	0.000100
C33	C	0.817202	-0.371855	0.000082
C34	C	0.793652	-0.477310	0.000077
C35	C	0.848258	-0.542269	0.000086
C36	C	0.918915	-0.225884	0.000104
C37	C	0.786147	-0.201441	0.000083
C38	C	0.762596	-0.306895	0.000073
C39	C	1.059420	0.128455	0.000119
C40	C	1.143816	0.130243	0.000124
C41	C	0.955963	0.321047	0.000106
C42	C	0.981027	0.433288	0.000107
N43	N	0.922644	0.136161	0.206654
N44	N	0.922692	0.136184	-0.206444
C45	C	0.959658	0.067325	0.248376
C46	C	0.959662	0.067324	0.331828
C47	C	0.922656	0.136165	0.373556
C48	C	0.885638	0.205004	0.331828
C49	C	0.885629	0.204999	0.248378
C50	C	0.885669	0.205024	0.668375
C51	C	0.885682	0.205026	0.751832
C52	C	0.959702	0.067349	0.751826
C53	C	0.959694	0.067344	0.668375
C54	C	0.922672	0.136179	0.626654
C55	C	0.922667	0.136178	0.536166
C56	C	0.922666	0.136172	0.464043
H57	H	0.712875	0.309107	0.000075
C58	C	1.119244	-0.597655	0.000131
H59	H	1.169167	-0.558432	0.000145
H60	H	1.112823	-0.639302	-0.046100
H61	H	1.112805	-0.639303	0.046370
H62	H	0.132455	-0.036760	0.000122
C63	C	0.560636	0.332126	0.000088
H64	H	0.601756	0.387739	0.000075
H65	H	0.530134	0.335301	0.046323
H66	H	0.530129	0.335298	-0.046148
H67	H	0.855502	0.261052	0.365808
C68	C	0.676623	-0.351455	0.000054
H69	H	0.647471	-0.297670	0.000043
H70	H	0.664666	-0.392096	0.046281
H71	H	0.664692	-0.392077	-0.046189
H72	H	0.741682	-0.148550	0.000080
C73	C	0.328056	0.327175	0.000108
H74	H	0.299233	0.381302	0.000118
H75	H	0.359421	0.331670	-0.046124
H76	H	0.359417	0.331654	0.046347
H77	H	0.989801	0.011272	0.365798
C78	C	0.161533	0.323639	0.000118
H79	H	0.107149	0.309324	0.000130
H80	H	0.178768	0.361773	-0.046116
H81	H	0.178775	0.361767	0.046354
C82	C	0.284696	-0.059780	0.000110
H83	H	0.339080	-0.045467	0.000114
H84	H	0.267456	-0.097905	-0.046123
H85	H	0.267458	-0.097916	0.046348
C86	C	1.168703	-0.376197	0.000153
H87	H	1.174910	-0.304086	0.000164
H88	H	1.192134	-0.398493	-0.046073
H89	H	1.192104	-0.398511	0.046397
H90	H	0.989797	0.011271	0.214406
H91	H	0.989845	0.011296	0.785804
H92	H	0.989831	0.011291	0.634403
C93	C	0.844955	0.280748	0.622493
H94	H	0.822926	0.321754	0.659299
H95	H	0.805820	0.244432	0.589945
H96	H	0.881009	0.322795	0.589933
C97	C	0.844918	0.280723	0.202483
H98	H	0.822886	0.321730	0.239285
H99	H	0.805785	0.244402	0.169935
H100	H	0.880973	0.322769	0.169923
C101	C	0.683804	-0.051286	0.000082
H102	H	0.642685	-0.106900	0.000077
H103	H	0.714311	-0.054465	0.046311
H104	H	0.714306	-0.054450	-0.046159
C105	C	0.517283	-0.054830	0.000099
H106	H	0.546107	-0.108956	0.000105
H107	H	0.485919	-0.059316	-0.046132
H108	H	0.485920	-0.059321	0.046338
C109	C	1.004883	-0.181334	0.000121
H110	H	1.011093	-0.109223	0.000129
H111	H	1.028308	-0.203636	-0.046106
H112	H	1.028286	-0.203647	0.046365
C113	C	0.822354	-0.658271	0.000079
H114	H	0.866071	-0.691152	0.000089
H115	H	0.792515	-0.677610	-0.046156
H116	H	0.792506	-0.677619	0.046315
C117	C	0.707679	-0.521864	0.000063
H118	H	0.678530	-0.468076	0.000052
H119	H	0.695723	-0.562502	0.046293
H120	H	0.695742	-0.562489	-0.046178
C121	C	0.844956	0.280736	0.797732
H122	H	0.822896	0.321721	0.760933
H123	H	0.881002	0.322790	0.830284
H124	H	0.805831	0.244391	0.830288
H125	H	1.047310	-0.269927	0.000129
