data_functionalizedCrystal
_audit_creation_method	'MofGen! by Chris Wilmer'
_symmetry_space_group_name_H-M	'P1'
_symmetry_Int_Tables_number	1
_symmetry_cell_setting	triclinic
loop_
_symmetry_equiv_pos_as_xyz
  x,y,z
_cell_length_a	21.295417
_cell_length_b	13.897449
_cell_length_c	13.897441
_cell_angle_alpha	89.979267
_cell_angle_beta	90.036423
_cell_angle_gamma	89.968214
loop_
_atom_site_label
_atom_site_type_symbol
_atom_site_fract_x
_atom_site_fract_y
_atom_site_fract_z
Zn1	Zn	-0.250568	-1.474617	0.545342
Zn2	Zn	-0.355847	-1.474475	0.384027
Zn3	Zn	-0.250598	-1.313306	0.384060
Zn4	Zn	-0.355805	-1.313252	0.545280
O5	O	-0.303204	-1.393912	0.464677
O6	O	-0.264538	-1.609579	0.523955
O7	O	-0.341915	-1.453059	0.249050
O8	O	-0.162504	-1.334786	0.405495
O9	O	-0.341886	-1.609475	0.405438
O10	O	-0.162482	-1.453301	0.523988
O11	O	-0.264589	-1.334649	0.249074
O12	O	-0.264549	-1.178317	0.405434
O13	O	-0.341815	-1.334694	0.680270
O14	O	-0.341844	-1.178277	0.523881
O15	O	-0.264498	-1.453248	0.680316
O16	O	-0.443931	-1.453006	0.405378
O17	O	-0.443900	-1.334556	0.523849
C18	C	-0.303196	-1.143298	0.464655
C19	C	-0.303207	-1.036084	0.464669
C20	C	-0.466756	-1.393786	0.464624
C21	C	-0.536724	-1.393820	0.464633
C22	C	-0.303149	-1.393981	0.716270
C23	C	-0.303125	-1.394010	0.823484
C24	C	-0.569586	-1.455552	0.403008
C25	C	-0.635328	-1.455597	0.403030
C26	C	-0.668207	-1.393893	0.464667
C27	C	-0.635337	-1.332157	0.526304
C28	C	-0.569596	-1.332120	0.526287
N29	N	-0.771473	-1.309512	0.472013
N30	N	-0.833925	-1.309550	0.472023
C31	C	-0.866281	-1.394001	0.464722
N32	N	-0.833827	-1.478416	0.457392
N33	N	-0.771370	-1.478377	0.457376
C34	C	-0.739492	-1.393926	0.464692
C35	C	-0.970428	-1.455787	0.403117
C36	C	-1.036172	-1.455834	0.403146
C37	C	-1.036180	-1.332386	0.526414
C38	C	-0.970437	-1.332347	0.526391
C39	C	-0.937565	-1.394047	0.464737
C40	C	-0.139014	-1.394065	0.464752
C41	C	-0.069046	-1.394131	0.464784
C42	C	-0.303213	-1.645505	0.464700
C43	C	-0.303217	-1.752719	0.464710
C44	C	-0.303210	-0.839789	0.464694
C45	C	-0.303207	-0.949021	0.464677
C46	C	-0.303214	-1.393900	0.214063
C47	C	-0.303061	-1.394057	0.106850
C48	C	-0.303082	-1.394036	1.019780
C49	C	-0.303108	-1.394018	0.910547
H50	H	-0.542823	-1.505793	0.352809
H51	H	-0.943663	-1.506030	0.352918
H52	H	-0.662089	-1.505870	0.352848
H53	H	-1.062927	-1.506109	0.352965
H54	H	-1.062949	-1.282149	0.576604
H55	H	-0.662111	-1.281919	0.576490
H56	H	-0.542839	-1.281850	0.576471
H57	H	-0.943680	-1.282075	0.576567
