data_functionalizedCrystal
_audit_creation_method	'MofGen! by Chris Wilmer'
_symmetry_space_group_name_H-M	'P1'
_symmetry_Int_Tables_number	1
_symmetry_cell_setting	triclinic
loop_
_symmetry_equiv_pos_as_xyz
  x,y,z
_cell_length_a	14.519709
_cell_length_b	10.654550
_cell_length_c	9.130313
_cell_angle_alpha	90.000110
_cell_angle_beta	89.994624
_cell_angle_gamma	84.082524
loop_
_atom_site_label
_atom_site_type_symbol
_atom_site_fract_x
_atom_site_fract_y
_atom_site_fract_z
O1	O	-1.224716	-0.164617	-0.121605
O2	O	-0.956339	-0.184004	-0.121649
O3	O	-1.096698	0.008488	-0.121620
O4	O	-1.084357	-0.357109	-0.121633
O5	O	-1.096696	0.008483	0.121978
O6	O	-0.956338	-0.184009	0.121950
O7	O	-1.224714	-0.164623	0.121994
Cu8	Cu	-1.090526	-0.174316	0.144215
Cu9	Cu	-1.090528	-0.174310	-0.143869
O10	O	-1.084355	-0.357114	0.121966
C11	C	-0.921974	-0.183103	0.000145
C12	C	-0.819579	-0.180396	0.000128
C13	C	-1.259079	-0.165524	0.000197
C14	C	-1.361475	-0.168231	0.000205
C15	C	-0.444631	-0.170428	0.000195
C16	C	-0.548954	-0.173196	0.000176
C17	C	-0.632102	-0.175412	0.000160
C18	C	-0.736431	-0.178180	0.000144
C19	C	-1.095791	0.055275	0.000177
C20	C	-1.093080	0.194692	0.000172
C21	C	-1.085262	-0.403901	0.000165
C22	C	-1.087973	-0.543318	0.000161
N23	N	-1.090531	-0.174320	0.346837
C24	C	-1.175721	0.274972	0.000190
C25	C	-1.173168	0.405968	0.000179
C26	C	-1.005326	0.376391	0.000138
C27	C	-1.007880	0.245397	0.000138
C28	C	-1.272623	0.292049	0.000219
C29	C	-1.270070	0.423046	0.000209
N30	N	-1.090530	-0.174297	-0.346492
C31	C	-1.152698	-0.089113	0.423502
C32	C	-1.152695	-0.089098	0.576839
C33	C	-1.028356	-0.259507	0.576833
C34	C	-1.028355	-0.259515	0.423499
C35	C	-1.224487	0.009267	0.423506
C36	C	-1.224485	0.009283	0.576843
H37	H	-0.940586	0.180037	0.000103
C38	C	-0.959978	-0.353246	0.339165
H39	H	-0.968878	-0.341049	0.236865
H40	H	-0.970527	-0.437088	0.364310
H41	H	-0.898340	-0.339412	0.364277
H42	H	-1.202078	0.100290	0.624389
C43	C	-1.309629	0.485105	-0.141862
H44	H	-1.306505	0.573636	-0.137027
H45	H	-1.372298	0.468610	-0.153081
H46	H	-1.274468	0.451366	-0.223130
C47	C	-1.314303	0.244301	0.142309
H48	H	-1.314641	0.155279	0.137470
H49	H	-1.375901	0.282694	0.153569
H50	H	-1.278061	0.265455	0.223555
H51	H	-1.295354	-0.011554	0.618471
C52	C	-1.323823	0.252867	-0.137473
H53	H	-1.325563	0.163976	-0.137455
H54	H	-1.292263	0.277025	-0.222444
H55	H	-1.385242	0.293417	-0.137445
C56	C	-0.911614	0.432172	0.000114
H57	H	-0.921927	0.521686	0.000123
H58	H	-0.877552	0.404625	-0.084839
H59	H	-0.877552	0.404631	0.085068
H60	H	-1.306581	0.465155	0.102158
H61	H	-0.977733	-0.328870	0.639267
C62	C	-1.203209	0.139459	0.367270
H63	H	-1.194449	0.193005	0.448195
H64	H	-1.253506	0.175630	0.309474
H65	H	-1.148526	0.130056	0.309464
C66	C	-1.314940	-0.031171	0.359261
H67	H	-1.355224	-0.049167	0.436757
H68	H	-1.301347	-0.104434	0.300699
H69	H	-1.344064	0.035160	0.300707
