data_functionalizedCrystal
_audit_creation_method	'MofGen! by Chris Wilmer'
_symmetry_space_group_name_H-M	'P1'
_symmetry_Int_Tables_number	1
_symmetry_cell_setting	triclinic
loop_
_symmetry_equiv_pos_as_xyz
  x,y,z
_cell_length_a	11.169416
_cell_length_b	11.169417
_cell_length_c	12.759393
_cell_angle_alpha	89.983089
_cell_angle_beta	89.971151
_cell_angle_gamma	90.011589
loop_
_atom_site_label
_atom_site_type_symbol
_atom_site_fract_x
_atom_site_fract_y
_atom_site_fract_z
Zn1	Zn	-0.477694	1.834931	-0.593990
Zn2	Zn	-0.678427	1.834830	-0.418319
Zn3	Zn	-0.477761	1.634226	-0.418330
Zn4	Zn	-0.678338	1.634225	-0.593962
O5	O	-0.578055	1.734553	-0.506150
O6	O	-0.504331	2.002868	-0.570693
O7	O	-0.651874	1.808178	-0.271299
O8	O	-0.309803	1.660894	-0.441649
O9	O	-0.651809	2.002793	-0.441629
O10	O	-0.309753	1.808351	-0.570705
O11	O	-0.504446	1.660795	-0.271308
O12	O	-0.504359	1.466277	-0.441621
O13	O	-0.651657	1.660891	-0.740986
O14	O	-0.651722	1.466275	-0.570657
O15	O	-0.504244	1.808349	-0.741007
O16	O	-0.846365	1.808176	-0.441601
O17	O	-0.846300	1.660792	-0.570645
C18	C	-0.578039	1.422729	-0.506138
C19	C	-0.578061	1.289329	-0.506158
C20	C	-0.889880	1.734506	-0.506142
C21	C	-1.023280	1.734595	-0.506174
C22	C	-0.265013	1.734634	-0.506181
C23	C	-0.131613	1.734668	-0.506194
C24	C	-0.577933	1.734631	-0.780183
C25	C	-0.577881	1.734664	-0.896960
C26	C	-0.578072	2.047596	-0.506163
C27	C	-0.578080	2.180995	-0.506168
C28	C	-0.501101	1.657955	-0.951833
C29	C	-0.501065	1.657991	-1.061557
C30	C	-0.654593	1.811457	-1.061526
C31	C	-0.654634	1.811414	-0.951804
C32	C	-0.412459	1.569356	-0.951851
C33	C	-0.412423	1.569392	-1.061576
C34	C	-0.578090	1.734545	-0.233183
C35	C	-0.577804	1.734744	-0.116407
H36	H	-0.717173	1.873860	-0.907131
O37	O	-0.452317	1.464156	-1.102222
C38	C	-0.554439	1.485549	-1.164372
H39	H	-0.598579	1.572774	-1.138722
H40	H	-0.620477	1.408534	-1.154465
H41	H	-0.526840	1.492638	-1.250183
H42	H	-0.319456	1.594308	-1.091368
H43	H	-0.437351	1.476383	-0.922076
O44	O	-0.728969	1.886142	-1.114850
C45	C	-0.660625	1.963681	-1.178348
H46	H	-0.566110	1.971108	-1.145300
H47	H	-0.704038	2.056033	-1.179582
H48	H	-0.656461	1.926606	-1.261506
H49	H	-0.324179	1.602665	-0.917831
