data_functionalizedCrystal
_audit_creation_method	'MofGen! by Chris Wilmer'
_symmetry_space_group_name_H-M	'P1'
_symmetry_Int_Tables_number	1
_symmetry_cell_setting	triclinic
loop_
_symmetry_equiv_pos_as_xyz
  x,y,z
_cell_length_a	6.817900
_cell_length_b	14.858572
_cell_length_c	15.185311
_cell_angle_alpha	94.808882
_cell_angle_beta	104.261569
_cell_angle_gamma	104.524003
loop_
_atom_site_label
_atom_site_type_symbol
_atom_site_fract_x
_atom_site_fract_y
_atom_site_fract_z
V1	V	-4.042239	-0.290234	-0.126328
O2	O	-4.025442	-0.284429	0.005482
O3	O	-3.997512	-0.288519	-0.249921
O4	O	-3.998827	-0.416692	-0.124643
O5	O	-4.024119	-0.155368	-0.120663
V6	V	-4.524745	-0.274070	-0.110532
O7	O	-4.305729	-0.325691	-0.160979
O8	O	-4.711452	-0.238614	-0.075881
O9	O	-4.346265	-0.275785	0.013062
O10	O	-4.658939	-0.279876	-0.242342
O11	O	-4.660262	-0.408936	-0.116196
O12	O	-4.344951	-0.147612	-0.112216
C13	C	-3.843245	-0.284010	-0.280043
C14	C	-3.887996	-0.283451	-0.381083
C15	C	-4.033279	-0.195919	-0.795170
C16	C	-4.121373	-0.366313	-0.821451
C17	C	-4.079299	-0.366833	-0.726516
C18	C	-4.014216	-0.281895	-0.665904
C19	C	-3.991206	-0.196437	-0.700227
C20	C	-4.102325	-0.452290	-0.692187
C21	C	-4.060253	-0.452814	-0.597247
C22	C	-3.995154	-0.367875	-0.536633
C23	C	-3.972143	-0.282413	-0.570961
C24	C	-3.907059	-0.197475	-0.510349
C25	C	-3.884032	-0.112012	-0.544675
C26	C	-3.926107	-0.111498	-0.639613
C27	C	-3.953080	-0.368389	-0.441695
C28	C	-3.864986	-0.197993	-0.415406
C29	C	-3.844921	-0.447507	-0.120237
C30	C	-3.890735	-0.550888	-0.119677
C31	C	-4.058413	-0.929452	-0.117631
C32	C	-4.011752	-0.824124	-0.118200
C33	C	-3.974576	-0.740174	-0.118655
C34	C	-3.927911	-0.634839	-0.119222
C35	C	-4.163874	-0.280292	0.043178
C36	C	-4.098362	-0.280857	0.144218
C37	C	-4.162198	-0.116793	-0.116626
C38	C	-4.095623	-0.013410	-0.117181
H39	H	-4.174382	-0.435466	-0.870806
Br40	Br	-4.190676	-0.567556	-0.774448
Br41	Br	-4.091497	-0.568796	-0.550670
H42	H	-3.811978	-0.128825	-0.366060
Br43	Br	-3.795761	0.003255	-0.462407
H44	H	-3.971864	-0.437972	-0.413752
H45	H	-4.014525	-0.126337	-0.823122
Br46	Br	-3.894875	0.004477	-0.686204
