data_functionalizedCrystal
_audit_creation_method	'MofGen! by Chris Wilmer'
_symmetry_space_group_name_H-M	'P1'
_symmetry_Int_Tables_number	1
_symmetry_cell_setting	triclinic
loop_
_symmetry_equiv_pos_as_xyz
  x,y,z
_cell_length_a	25.639242
_cell_length_b	25.639240
_cell_length_c	13.033109
_cell_angle_alpha	97.144236
_cell_angle_beta	82.796926
_cell_angle_gamma	90.025061
loop_
_atom_site_label
_atom_site_type_symbol
_atom_site_fract_x
_atom_site_fract_y
_atom_site_fract_z
Zn1	Zn	0.836813	-0.245790	-0.590812
Zn2	Zn	1.336813	0.254210	-0.090812
Zn3	Zn	0.825632	-0.322125	-0.416038
Zn4	Zn	1.325632	0.177875	0.083962
Zn5	Zn	0.738279	-0.234696	-0.416083
Zn6	Zn	1.238279	0.265304	0.083917
Zn7	Zn	0.749338	-0.333179	-0.590722
Zn8	Zn	1.249338	0.166821	-0.090722
O9	O	0.787516	-0.283947	-0.503414
O10	O	1.287516	0.216053	-0.003414
O11	O	0.908496	-0.255932	-0.567646
O12	O	1.408496	0.244068	-0.067646
O13	O	0.804738	-0.301258	-0.269813
O14	O	1.304738	0.198742	0.230187
O15	O	0.751401	-0.163006	-0.439317
O16	O	1.251401	0.336994	0.060683
O17	O	0.900282	-0.312015	-0.439240
O18	O	1.400282	0.187985	0.060760
O19	O	0.823793	-0.171157	-0.567690
O20	O	1.323793	0.328843	-0.067690
O21	O	0.740560	-0.237025	-0.269846
O22	O	1.240560	0.262975	0.230154
O23	O	0.666580	-0.247744	-0.439231
O24	O	1.166580	0.252256	0.060769
O25	O	0.770248	-0.330855	-0.736965
O26	O	1.270248	0.169145	-0.236965
O27	O	0.674704	-0.320098	-0.567538
O28	O	1.174704	0.179902	-0.067538
O29	O	0.834516	-0.266651	-0.737031
O30	O	1.334516	0.233349	-0.237031
O31	O	0.815461	-0.396753	-0.439154
O32	O	1.315461	0.103247	0.060846
O33	O	0.759407	-0.404874	-0.567494
O34	O	1.259407	0.095126	-0.067494
C35	C	0.651671	-0.283917	-0.503380
C36	C	1.151671	0.216083	-0.003380
C37	C	0.593557	-0.283918	-0.503390
C38	C	1.093557	0.216082	-0.003390
C39	C	0.787436	-0.419785	-0.503332
C40	C	1.287436	0.080215	-0.003332
C41	C	0.787453	-0.477899	-0.503332
C42	C	1.287453	0.022101	-0.003332
C43	C	0.346658	-0.254812	-0.570397
C44	C	0.846658	0.245188	-0.070397
C45	C	0.401262	-0.254807	-0.570391
C46	C	0.901262	0.245193	-0.070391
O47	O	0.433150	-0.230036	-0.627354
O48	O	0.933150	0.269964	-0.127354
N49	N	0.424286	-0.283942	-0.503426
N50	N	0.924286	0.216058	-0.003426
C51	C	0.392703	-0.313089	-0.436470
C52	C	0.892703	0.186911	0.063530
O53	O	0.417300	-0.337871	-0.379511
O54	O	0.917300	0.162129	0.120489
C55	C	0.338100	-0.313097	-0.436482
C56	C	0.838100	0.186903	0.063518
C57	C	0.315079	-0.283956	-0.503444
C58	C	0.815079	0.216044	-0.003444
C59	C	0.323637	-0.225673	-0.637354
C60	C	0.823637	0.274327	-0.137354
C61	C	0.269037	-0.225678	-0.637358
C62	C	0.769037	0.274322	-0.137358
C63	C	0.237458	-0.254822	-0.570405
C64	C	0.737458	0.245178	-0.070405
C65	C	0.260479	-0.283961	-0.503448
C66	C	0.760479	0.216039	-0.003448
C67	C	0.306518	-0.342247	-0.369532
C68	C	0.806518	0.157753	0.130468
C69	C	0.251913	-0.342253	-0.369550
C70	C	0.751913	0.157747	0.130450
C71	C	0.228892	-0.313112	-0.436512
C72	C	0.728892	0.186888	0.063488
C73	C	0.174300	-0.313109	-0.436499
C74	C	0.674300	0.186891	0.063501
N75	N	0.151276	-0.283974	-0.503464
N76	N	0.651276	0.216026	-0.003464
C77	C	0.182855	-0.254830	-0.570417
C78	C	0.682855	0.245170	-0.070417
C79	C	0.507372	-0.313071	-0.436451
C80	C	1.007372	0.186929	0.063549
C81	C	0.561973	-0.313060	-0.436433
C82	C	1.061973	0.186940	0.063567
C83	C	0.570529	-0.254778	-0.570355
C84	C	1.070529	0.245222	-0.070355
C85	C	0.515927	-0.254786	-0.570367
C86	C	1.015927	0.245214	-0.070367
C87	C	0.484349	-0.283935	-0.503416
C88	C	0.984349	0.216065	-0.003416
C89	C	0.068190	-0.254842	-0.570421
C90	C	0.568190	0.245158	-0.070421
C91	C	0.013585	-0.254848	-0.570416
C92	C	0.513585	0.245152	-0.070416
C93	C	0.005034	-0.313132	-0.436498
C94	C	0.505034	0.186868	0.063502
C95	C	0.059634	-0.313124	-0.436498
C96	C	0.559634	0.186876	0.063502
C97	C	0.091212	-0.283978	-0.503468
C98	C	0.591212	0.216022	-0.003468
O99	O	0.142380	-0.337869	-0.379568
O100	O	0.642380	0.162131	0.120432
O101	O	0.158251	-0.230058	-0.627376
O102	O	0.658251	0.269942	-0.127376
C103	C	0.825234	-0.842480	-0.570378
C104	C	1.325234	-0.342480	-0.070378
C105	C	0.825251	-0.897086	-0.570399
C106	C	1.325251	-0.397086	-0.070399
O107	O	0.857281	-0.928904	-0.627320
O108	O	1.357281	-0.428904	-0.127320
N109	N	0.787594	-0.920193	-0.503515
N110	N	1.287594	-0.420193	-0.003515
C111	C	0.749915	-0.888692	-0.436612
C112	C	1.249915	-0.388692	0.063388
O113	O	0.717887	-0.913360	-0.379724
O114	O	1.217887	-0.413360	0.120276
C115	C	0.749897	-0.834087	-0.436597
C116	C	1.249897	-0.334087	0.063403
C117	C	0.787559	-0.810983	-0.503478
C118	C	1.287559	-0.310983	-0.003478
C119	C	0.862894	-0.819375	-0.637255
C120	C	1.362894	-0.319375	-0.137255
C121	C	0.862877	-0.764773	-0.637232
C122	C	1.362877	-0.264773	-0.137232
C123	C	0.825202	-0.733276	-0.570332
C124	C	1.325202	-0.233276	-0.070332
C125	C	0.787543	-0.756381	-0.503455
C126	C	1.287543	-0.256381	-0.003455
C127	C	0.712216	-0.802588	-0.369700
C128	C	1.212216	-0.302588	0.130300
C129	C	0.712200	-0.747980	-0.369692
C130	C	1.212200	-0.247980	0.130308
C131	C	0.749862	-0.724876	-0.436573
C132	C	1.249862	-0.224876	0.063427
C133	C	0.749851	-0.670282	-0.436533
C134	C	1.249851	-0.170282	0.063467
N135	N	0.787508	-0.647175	-0.503417
N136	N	1.287508	-0.147175	-0.003417
C137	C	0.825183	-0.678672	-0.570317
C138	C	1.325183	-0.178672	-0.070317
C139	C	0.749957	-1.003365	-0.436650
C140	C	1.249957	-0.503365	0.063350
C141	C	0.749977	-1.057968	-0.436659
C142	C	1.249977	-0.557968	0.063341
C143	C	0.825313	-1.066358	-0.570448
C144	C	1.325313	-0.566358	-0.070448
C145	C	0.825294	-1.011754	-0.570433
C146	C	1.325294	-0.511754	-0.070433
C147	C	0.787613	-0.980258	-0.503535
C148	C	1.287613	-0.480258	-0.003535
C149	C	0.825146	-0.564003	-0.570263
C150	C	1.325146	-0.064003	-0.070263
C151	C	0.825128	-0.509396	-0.570231
C152	C	1.325128	-0.009396	-0.070231
C153	C	0.749791	-0.501011	-0.436447
C154	C	1.249791	-0.001011	0.063553
C155	C	0.749811	-0.555613	-0.436475
C156	C	1.249811	-0.055613	0.063525
C157	C	0.787491	-0.587109	-0.503391
C158	C	1.287491	-0.087109	-0.003391
O159	O	0.717836	-0.638431	-0.379644
O160	O	1.217836	-0.138431	0.120356
O161	O	0.857202	-0.653997	-0.627205
O162	O	1.357202	-0.153997	-0.127205
C163	C	0.923891	-0.283978	-0.503448
C164	C	1.423891	0.216022	-0.003448
C165	C	0.982006	-0.283992	-0.503463
C166	C	1.482006	0.216008	-0.003463
C167	C	0.804863	-0.301223	-0.775974
C168	C	1.304863	0.198777	-0.275974
C169	C	0.812255	-0.308586	-0.892123
C170	C	1.312255	0.191414	-0.392123
C171	C	0.787611	-0.147581	-0.503519
C172	C	1.287611	0.352419	-0.003519
C173	C	0.787651	-0.089470	-0.503563
C174	C	1.287651	0.410530	-0.003563
C175	C	0.783797	-0.280086	-0.943922
C176	C	1.283797	0.219914	-0.443922
C177	C	0.791437	-0.287695	-1.063969
C178	C	1.291437	0.212305	-0.563969
C179	C	0.770266	-0.266701	-0.231914
C180	C	1.270266	0.233299	0.268086
C181	C	0.762975	-0.259192	-0.115765
C182	C	1.262975	0.240808	0.384235
H183	H	0.093895	-0.231108	-0.624953
H184	H	0.593895	0.268892	-0.124953
H185	H	0.497187	-0.231056	-0.624893
H186	H	0.997187	0.268944	-0.124893
H187	H	0.580711	-0.336783	-0.381894
H188	H	1.080711	0.163217	0.118106
O189	O	0.865751	-0.484475	-0.642369
O190	O	1.365751	0.015525	-0.142369
H191	H	0.889392	-0.456636	-0.595632
H192	H	1.389392	0.043364	-0.095632
H193	H	0.821458	-0.317729	-1.108491
H194	H	1.321458	0.182271	-0.608491
H195	H	0.753775	-0.250057	-0.899396
H196	H	1.253775	0.249943	-0.399396
H197	H	0.349344	-0.201941	-0.691880
H198	H	0.849344	0.298059	-0.191880
H199	H	0.596251	-0.231048	-0.624873
H200	H	1.096251	0.268952	-0.124873
H201	H	0.481664	-0.336806	-0.381922
H202	H	0.981664	0.163194	0.118078
O203	O	0.723212	-0.219401	-1.056798
O204	O	1.223212	0.280599	-0.556798
H205	H	0.703528	-0.199683	-1.113005
H206	H	1.203528	0.300317	-0.613005
O207	O	0.903498	-0.739861	-0.709378
O208	O	1.403498	-0.239861	-0.209378
H209	H	0.897165	-0.696598	-0.698133
H210	H	1.397165	-0.196598	-0.198133
H211	H	0.842275	-0.338618	-0.936649
H212	H	1.342275	0.161382	-0.436649
O213	O	0.244210	-0.194251	-0.709588
O214	O	0.744210	0.305749	-0.209588
H215	H	0.275350	-0.173991	-0.756144
H216	H	0.775350	0.326009	-0.256144
H217	H	-0.005156	-0.231115	-0.624944
H218	H	0.494844	0.268885	-0.124944
O219	O	0.709359	-1.082886	-0.364518
O220	O	1.209359	-0.582886	0.135482
H221	H	0.683158	-1.051805	-0.318004
H222	H	1.183158	-0.551805	0.181996
H223	H	0.325252	-0.365978	-0.315004
H224	H	0.825252	0.134022	0.184996
H225	H	0.226204	-0.365992	-0.315032
H226	H	0.726204	0.134008	0.184968
O227	O	0.709157	-0.467034	-0.364290
O228	O	1.209157	0.032966	0.135710
H229	H	0.685504	-0.445128	-0.411011
H230	H	1.185504	0.054872	0.088989
H231	H	0.078378	-0.336848	-0.381963
H232	H	0.578378	0.163152	0.118037
H233	H	0.855826	-0.589642	-0.624760
H234	H	1.355826	-0.089642	-0.124760
O235	O	-0.029032	-0.344562	-0.364282
O236	O	0.470968	0.155438	0.135718
H237	H	-0.050940	-0.374160	-0.410960
H238	H	0.449060	0.125840	0.089040
O239	O	0.903534	-0.853344	-0.709412
O240	O	1.403534	-0.353344	-0.209412
H241	H	0.929715	-0.828094	-0.755900
H242	H	1.429715	-0.328094	-0.255900
O243	O	0.865916	-0.986834	-0.642564
O244	O	1.365916	-0.486834	-0.142564
H245	H	0.892115	-1.017915	-0.689081
H246	H	1.392115	-0.517915	-0.189081
O247	O	0.865945	-1.100335	-0.642622
O248	O	1.365945	-0.600335	-0.142622
H249	H	0.859623	-1.142186	-0.631401
H250	H	1.359623	-0.642186	-0.131401
H251	H	0.719274	-0.977722	-0.382165
H252	H	1.219274	-0.477722	0.117835
O253	O	0.671588	-0.827496	-0.297567
O254	O	1.171588	-0.327496	0.202433
H255	H	0.691629	-0.849000	-0.244435
H256	H	1.191629	-0.349000	0.255565
O257	O	0.671562	-0.714007	-0.297526
O258	O	1.171562	-0.214007	0.202474
H259	H	0.645383	-0.739251	-0.251020
H260	H	1.145383	-0.239251	0.248980
O261	O	0.709192	-0.580538	-0.364339
O262	O	1.209192	-0.080538	0.135661
H263	H	0.682990	-0.549460	-0.317820
H264	H	1.182990	-0.049460	0.182180
