data_functionalizedCrystal
_audit_creation_method	'MofGen! by Chris Wilmer'
_symmetry_space_group_name_H-M	'P1'
_symmetry_Int_Tables_number	1
_symmetry_cell_setting	triclinic
loop_
_symmetry_equiv_pos_as_xyz
  x,y,z
_cell_length_a	14.044220
_cell_length_b	27.732064
_cell_length_c	12.503572
_cell_angle_alpha	93.498303
_cell_angle_beta	86.164750
_cell_angle_gamma	87.919150
loop_
_atom_site_label
_atom_site_type_symbol
_atom_site_fract_x
_atom_site_fract_y
_atom_site_fract_z
O1	O	1.261509	0.113904	-0.089188
O2	O	0.985603	0.109701	-0.089216
O3	O	1.132117	0.041808	-0.089205
O4	O	1.114995	0.181797	-0.089199
O5	O	1.121098	0.046923	0.089436
O6	O	0.974584	0.114816	0.089425
O7	O	1.250491	0.119019	0.089453
Cu8	Cu	1.111531	0.117384	0.105751
Cu9	Cu	1.124562	0.111335	-0.105513
O10	O	1.103976	0.186912	0.089443
C11	C	0.944806	0.110418	0.000101
C12	C	0.839661	0.104931	0.000090
C13	C	1.126246	0.026341	0.000112
C14	C	1.125157	-0.027364	0.000102
C15	C	0.647144	0.094900	0.000111
C16	C	0.588945	0.133817	0.000117
C17	C	0.481822	0.128236	0.000129
C18	C	0.754277	0.100481	0.000099
C19	C	1.031158	-0.408849	0.000088
C20	C	1.035168	-0.207000	0.000087
O21	O	0.962230	-0.179172	0.000037
N22	N	1.122048	-0.183796	0.000096
C23	C	1.207933	-0.211056	0.000098
O24	O	1.281922	-0.186688	0.000094
C25	C	1.203922	-0.412904	0.000091
C26	C	1.117036	-0.436106	0.000093
C27	C	0.944279	-0.432051	0.000089
C28	C	0.943277	-0.482510	0.000095
C29	C	1.029154	-0.509767	0.000100
C30	C	1.116034	-0.486565	0.000099
C31	C	1.289806	-0.440164	0.000085
C32	C	1.288796	-0.490629	0.000081
C33	C	1.201909	-0.513831	0.000083
C34	C	1.200909	-0.564281	0.000110
N35	N	1.114029	-0.587485	0.000102
C36	C	1.028152	-0.560229	0.000097
C37	C	1.210032	-0.105083	0.000103
C38	C	1.211035	-0.054621	0.000107
C39	C	1.038270	-0.050569	0.000094
C40	C	1.037268	-0.101032	0.000098
C41	C	1.123152	-0.128288	0.000095
C42	C	1.026054	-0.666196	0.000110
C43	C	1.025059	-0.716659	0.000121
C44	C	1.197824	-0.720707	0.000128
C45	C	1.198819	-0.670248	0.000123
C46	C	1.112926	-0.642994	0.000111
O47	O	1.273809	-0.592139	0.000149
O48	O	0.954174	-0.584607	0.000077
C49	C	1.032160	-0.358390	0.000082
C50	C	1.119040	-0.335188	0.000081
C51	C	1.204917	-0.362445	0.000086
C52	C	1.120042	-0.284726	0.000085
C53	C	1.034165	-0.257469	0.000079
C54	C	0.947285	-0.280674	0.000071
C55	C	0.946283	-0.331133	0.000077
C56	C	1.291797	-0.339240	0.000095
C57	C	1.292792	-0.288781	0.000090
C58	C	1.206915	-0.261524	0.000085
C59	C	1.291288	0.118301	0.000134
C60	C	1.396433	0.123788	0.000138
C61	C	1.109847	0.202378	0.000123
C62	C	1.110937	0.256084	0.000126
N63	N	1.102373	0.121639	0.254342
N64	N	1.133728	0.107077	-0.254105
C65	C	1.088900	0.127902	0.473456
C66	C	1.147198	0.100815	0.526788
C67	C	1.139701	0.104300	0.648710
C68	C	1.096395	0.124418	0.351523
H69	H	0.619571	0.171327	0.000114
C70	C	1.306616	-0.029105	0.000119
N71	N	1.378611	-0.009888	0.000121
H72	H	0.616519	0.057393	0.000115
C73	C	1.222241	0.065957	0.464770
N74	N	1.278767	0.039705	0.418053
C75	C	1.013871	0.162763	0.535474
N76	N	0.957361	0.189021	0.582198
C77	C	0.929474	-0.742178	0.000120
N78	N	0.857481	-0.761398	0.000115
C79	C	0.931567	-0.636223	0.000104
N80	N	0.860399	-0.613647	0.000107
H81	H	0.966517	-0.119919	0.000105
H82	H	1.360558	-0.421282	0.000082
C83	C	0.847695	-0.508025	0.000084
N84	N	0.775698	-0.527241	0.000071
H85	H	0.874343	-0.409864	0.000081
C86	C	0.943805	-0.020577	0.000080
N87	N	0.872658	0.002014	0.000060
H88	H	1.279973	-0.127271	0.000102
H89	H	1.358735	-0.512819	0.000072
C90	C	1.294397	-0.644725	0.000127
N91	N	1.366389	-0.625505	0.000117
H92	H	0.875531	-0.350019	0.000080
C93	C	1.292284	-0.750700	0.000131
N94	N	1.363433	-0.773291	0.000126
C95	C	1.388381	-0.263265	0.000089
N96	N	1.460377	-0.244048	0.000079
C97	C	1.386274	-0.369215	0.000115
N98	N	1.457439	-0.391791	0.000141
C99	C	0.852820	-0.250682	0.000061
N100	N	0.781673	-0.228090	0.000046
