data_functionalizedCrystal
_audit_creation_method	'MofGen! by Chris Wilmer'
_symmetry_space_group_name_H-M	'P1'
_symmetry_Int_Tables_number	1
_symmetry_cell_setting	triclinic
loop_
_symmetry_equiv_pos_as_xyz
  x,y,z
_cell_length_a	6.817900
_cell_length_b	11.102244
_cell_length_c	9.582880
_cell_angle_alpha	90.972146
_cell_angle_beta	111.207034
_cell_angle_gamma	108.604870
loop_
_atom_site_label
_atom_site_type_symbol
_atom_site_fract_x
_atom_site_fract_y
_atom_site_fract_z
V1	V	-4.142609	-0.175302	-0.466597
O2	O	-4.101056	0.008976	-0.457719
O3	O	-4.119167	-0.348125	-0.463402
O4	O	-4.132947	-0.172364	-0.670098
O5	O	-4.087181	-0.168003	-0.249592
V6	V	-4.617983	-0.153289	-0.440642
O7	O	-4.421742	-0.223590	-0.523532
O8	O	-4.789047	-0.105001	-0.383708
O9	O	-4.418218	0.019534	-0.443837
O10	O	-4.776932	-0.337567	-0.449520
O11	O	-4.790808	-0.160588	-0.657647
O12	O	-4.404438	-0.156228	-0.237141
C13	C	-3.968986	-0.390264	-0.456041
C14	C	-4.031364	-0.531547	-0.454785
C15	C	-3.991368	-0.579940	-0.317155
C16	C	-4.049996	-0.712694	-0.315993
C17	C	-4.188606	-0.748651	-0.590101
C18	C	-4.129994	-0.615900	-0.591263
C19	C	-3.911334	-0.559181	-0.158901
C20	C	-3.969961	-0.691935	-0.157738
C21	C	-3.986562	-0.166060	-0.719700
C22	C	-4.060111	-0.164801	-0.886063
C23	C	-4.231742	0.061666	-0.451195
C24	C	-4.148604	0.202948	-0.452461
C25	C	-4.214164	-0.162535	-0.187532
C26	C	-4.119852	-0.163788	-0.021167
H27	H	-4.162583	-0.576506	-0.703334
C28	C	-4.158392	-0.745776	-0.098873
C29	C	-4.388638	-0.732059	-0.181411
C30	C	-4.577064	-0.785899	-0.122547
C31	C	-4.535243	-0.853456	0.018855
C32	C	-4.304986	-0.867176	0.101401
C33	C	-4.116561	-0.813336	0.042537
H34	H	-4.419605	-0.682046	-0.286092
H35	H	-4.747515	-0.775742	-0.183653
H36	H	-4.674727	-0.893312	0.062429
H37	H	-4.274019	-0.917189	0.206082
H38	H	-3.946109	-0.823493	0.103644
H39	H	-4.268915	-0.817347	-0.701216
H40	H	-4.006348	-0.520149	-0.104179
H41	H	-3.722175	-0.506443	-0.104245
H42	H	-3.813490	-0.715031	-0.090939
