data_functionalizedCrystal
_audit_creation_method	'MofGen! by Chris Wilmer'
_symmetry_space_group_name_H-M	'P1'
_symmetry_Int_Tables_number	1
_symmetry_cell_setting	triclinic
loop_
_symmetry_equiv_pos_as_xyz
  x,y,z
_cell_length_a	10.654550
_cell_length_b	17.699083
_cell_length_c	16.776229
_cell_angle_alpha	90.004308
_cell_angle_beta	90.009291
_cell_angle_gamma	83.883958
loop_
_atom_site_label
_atom_site_type_symbol
_atom_site_fract_x
_atom_site_fract_y
_atom_site_fract_z
O1	O	1.665983	0.106301	0.066355
O2	O	2.165983	0.606301	0.566355
O3	O	1.300327	0.116429	0.066343
O4	O	1.800327	0.616429	0.566343
O5	O	1.493486	0.001241	0.066343
O6	O	1.993486	0.501241	0.566343
O7	O	1.472825	0.221488	0.066356
O8	O	1.972825	0.721488	0.566356
O9	O	1.493464	0.001241	-0.066234
O10	O	1.993464	0.501241	0.433766
O11	O	1.300306	0.116428	-0.066234
O12	O	1.800306	0.616428	0.433766
O13	O	1.665961	0.106300	-0.066221
O14	O	2.165961	0.606300	0.433779
Zn15	Zn	1.483130	0.111364	-0.087277
Zn16	Zn	1.983130	0.611364	0.412723
Zn17	Zn	1.483159	0.111365	0.087399
Zn18	Zn	1.983159	0.611365	0.587399
O19	O	1.472803	0.221488	-0.066221
O20	O	1.972803	0.721488	0.433779
C21	C	1.253531	0.115685	0.000053
C22	C	1.753531	0.615685	0.500053
C23	C	1.114127	0.113460	0.000048
C24	C	1.614127	0.613460	0.500048
C25	C	1.492735	-0.026961	0.000054
C26	C	1.992735	0.473039	0.500054
C27	C	1.490514	-0.110993	0.000054
C28	C	1.990514	0.389007	0.500054
C29	C	1.033454	0.181281	0.000064
C30	C	1.533454	0.681281	0.500064
C31	C	0.902470	0.179185	0.000077
C32	C	1.402470	0.679185	0.500077
C33	C	0.932845	0.041443	0.000063
C34	C	1.432845	0.541443	0.500063
C35	C	1.063826	0.043539	0.000043
C36	C	1.563826	0.543539	0.500043
C37	C	1.015917	0.260805	0.000075
C38	C	1.515917	0.760805	0.500075
C39	C	0.884933	0.258710	0.000089
C40	C	1.384933	0.758710	0.500089
C41	C	1.603894	-0.158893	0.000057
C42	C	2.103894	0.341107	0.500057
C43	C	1.601799	-0.237850	0.000063
C44	C	2.101799	0.262150	0.500063
C45	C	1.486324	-0.268905	0.000062
C46	C	1.986324	0.231095	0.500062
C47	C	1.372935	-0.220998	0.000062
C48	C	1.872935	0.279002	0.500062
C49	C	1.375031	-0.142043	0.000060
C50	C	1.875031	0.357957	0.500060
C51	C	1.364481	-0.539415	0.000068
C52	C	1.864481	-0.039415	0.500068
C53	C	1.362394	-0.618376	0.000067
C54	C	1.862394	-0.118376	0.500067
C55	C	1.591249	-0.635222	0.000071
C56	C	2.091249	-0.135222	0.500071
C57	C	1.593345	-0.556266	0.000070
C58	C	2.093345	-0.056266	0.500070
C59	C	1.479957	-0.508367	0.000073
C60	C	1.979957	-0.008367	0.500073
C61	C	1.482229	-0.422753	0.000067
C62	C	1.982229	0.077247	0.500067
C63	C	1.484050	-0.354517	0.000062
C64	C	1.984050	0.145483	0.500062
C65	C	1.712757	0.107044	0.000071
C66	C	2.212757	0.607044	0.500071
C67	C	1.852161	0.109269	0.000081
C68	C	2.352161	0.609269	0.500081
C69	C	1.473554	0.249690	0.000069
C70	C	1.973554	0.749690	0.500069
C71	C	1.475775	0.333722	0.000075
C72	C	1.975775	0.833722	0.500075
N73	N	1.483119	0.111363	-0.206488
N74	N	1.983119	0.611363	0.293512
C75	C	1.559137	0.157695	-0.248196
C76	C	2.059137	0.657695	0.251804
C77	C	1.559151	0.157693	-0.331648
C78	C	2.059151	0.657693	0.168352
C79	C	1.483140	0.111361	-0.373391
C80	C	1.983140	0.611361	0.126609
C81	C	1.407120	0.065024	-0.331677
C82	C	1.907120	0.565024	0.168323
C83	C	1.407113	0.065024	-0.248226
C84	C	1.907113	0.565024	0.251774
C85	C	1.407145	0.065025	-0.668224
C86	C	1.907145	0.565025	-0.168224
C87	C	1.407154	0.065031	-0.751681
C88	C	1.907154	0.565031	-0.251681
C89	C	1.559182	0.157694	-0.751646
C90	C	2.059182	0.657694	-0.251646
C91	C	1.559176	0.157694	-0.668195
C92	C	2.059176	0.657694	-0.168195
C93	C	1.483161	0.111354	-0.626489
C94	C	1.983161	0.611354	-0.126489
C95	C	1.483149	0.111356	-0.536000
C96	C	1.983149	0.611356	-0.036000
C97	C	1.483145	0.111362	-0.463878
C98	C	1.983145	0.611362	0.036122
N99	N	1.483179	0.111360	0.206610
N100	N	1.983179	0.611360	0.706610
H101	H	0.891873	-0.015484	0.000071
H102	H	1.391873	0.484516	0.500071
H103	H	1.051138	0.286127	0.057316
H104	H	1.551138	0.786127	0.557316
O105	O	0.823846	0.290545	-0.075719
O106	O	1.323846	0.790545	0.424281
H107	H	0.897386	0.309121	-0.115921
H108	H	1.397386	0.809121	0.384079
H109	H	1.694125	-0.276847	0.000064
H110	H	2.194125	0.223153	0.500064
O111	O	1.728443	-0.125399	0.000066
O112	O	2.228443	0.374601	0.500066
H113	H	1.806930	-0.171975	0.000079
H114	H	2.306930	0.328025	0.500079
H115	H	0.842685	0.288674	0.055578
H116	H	1.342685	0.788674	0.555578
H117	H	1.345237	0.027297	-0.365671
H118	H	1.845237	0.527297	0.134329
O119	O	1.325148	0.015018	-0.203261
O120	O	1.825148	0.515018	0.296739
H121	H	1.385510	-0.025327	-0.165262
H122	H	1.885510	0.474673	0.334738
O123	O	1.242183	-0.487763	0.000052
O124	O	1.742183	0.012237	0.500052
H125	H	1.186906	-0.498881	0.054079
H126	H	1.686906	0.001119	0.554079
O127	O	1.641151	0.207669	-0.623171
O128	O	2.141151	0.707669	-0.123171
H129	H	1.741573	0.191760	-0.639169
H130	H	2.241573	0.691760	-0.139169
O131	O	1.641185	0.207665	-0.796637
O132	O	2.141185	0.707665	-0.296637
H133	H	1.613659	0.268006	-0.780628
H134	H	2.113659	0.768006	-0.280628
O135	O	1.237840	-0.651876	0.000071
O136	O	1.737840	-0.151876	0.500071
H137	H	1.159345	-0.605305	0.000082
H138	H	1.659345	-0.105305	0.500082
O139	O	1.717892	-0.522769	0.000083
O140	O	2.217892	-0.022769	0.500083
H141	H	1.796383	-0.569343	0.000097
H142	H	2.296383	-0.069343	0.500097
H143	H	1.683575	-0.674231	0.000072
H144	H	2.183575	-0.174231	0.500072
H145	H	1.278912	-0.246289	0.000065
H146	H	1.778912	0.253711	0.500065
O147	O	1.325207	0.015035	-0.796709
O148	O	1.825207	0.515035	-0.296709
H149	H	1.272368	-0.017201	-0.753689
H150	H	1.772368	0.482799	-0.253689
O151	O	1.252744	-0.090373	0.000049
O152	O	1.752744	0.409627	0.500049
H153	H	1.172093	-0.125231	0.000038
H154	H	1.672093	0.374769	0.500038
O155	O	1.641119	0.207668	-0.203174
O156	O	2.141119	0.707668	0.296826
H157	H	1.693989	0.239879	-0.246200
H158	H	2.193989	0.739879	0.253800
O159	O	1.641135	0.207667	-0.376636
O160	O	2.141135	0.707667	0.123364
H161	H	1.693976	0.239891	-0.333590
H162	H	2.193976	0.739891	0.166410
O163	O	1.054011	0.301954	-0.073457
O164	O	1.554011	0.801954	0.426543
H165	H	1.006241	0.360832	-0.073444
H166	H	1.506241	0.860832	0.426556
O167	O	1.325146	0.015053	-0.623250
O168	O	1.825146	0.515053	-0.123250
H169	H	1.224733	0.030972	-0.639280
H170	H	1.724733	0.530972	-0.139280
O171	O	1.150844	-0.029609	0.000013
O172	O	1.650844	0.470391	0.500013
H173	H	1.093857	-0.078578	0.000018
H174	H	1.593857	0.421422	0.500018
