data_functionalizedCrystal
_audit_creation_method	'MofGen! by Chris Wilmer'
_symmetry_space_group_name_H-M	'P1'
_symmetry_Int_Tables_number	1
_symmetry_cell_setting	triclinic
loop_
_symmetry_equiv_pos_as_xyz
  x,y,z
_cell_length_a	17.077404
_cell_length_b	10.686285
_cell_length_c	17.077396
_cell_angle_alpha	85.608118
_cell_angle_beta	89.980223
_cell_angle_gamma	85.626964
loop_
_atom_site_label
_atom_site_type_symbol
_atom_site_fract_x
_atom_site_fract_y
_atom_site_fract_z
Zn1	Zn	1.224122	-0.502505	-0.419933
Zn2	Zn	1.234137	-0.713526	-0.278623
Zn3	Zn	1.092856	-0.502532	-0.288679
Zn4	Zn	1.102925	-0.713434	-0.409851
O5	O	1.163510	-0.607999	-0.349271
O6	O	1.335299	-0.530525	-0.401199
O7	O	1.215372	-0.685587	-0.170108
O8	O	1.101863	-0.325952	-0.314517
O9	O	1.342656	-0.685562	-0.297379
O10	O	1.198305	-0.325932	-0.410949
O11	O	1.111574	-0.530570	-0.177495
O12	O	0.984343	-0.530481	-0.304741
O13	O	1.119025	-0.685404	-0.521038
O14	O	0.991741	-0.685429	-0.393766
O15	O	1.208068	-0.530435	-0.528445
O16	O	1.225136	-0.890091	-0.287604
O17	O	1.128735	-0.890023	-0.384016
C18	C	0.959560	-0.607949	-0.349251
C19	C	0.872310	-0.607957	-0.349260
C20	C	0.500379	-0.688862	-0.395561
C21	C	0.582359	-0.688845	-0.395550
C22	C	0.619465	-0.608033	-0.349282
C23	C	0.574587	-0.527240	-0.303016
C24	C	0.492609	-0.527264	-0.303024
C25	C	0.745455	-0.527194	-0.303006
C26	C	0.827439	-0.527169	-0.302999
C27	C	0.835204	-0.688776	-0.395532
C28	C	0.753227	-0.688799	-0.395540
C29	C	0.708355	-0.608005	-0.349275
C30	C	1.179136	-0.935841	-0.333642
C31	C	1.185893	-1.076093	-0.326981
C32	C	1.368257	-0.608051	-0.349292
C33	C	1.455507	-0.608073	-0.349301
C34	C	1.163553	-0.607906	-0.554020
C35	C	1.163571	-0.607867	-0.641272
C36	C	1.147844	-0.278877	-0.364979
C37	C	1.141168	-0.138625	-0.371673
C38	C	1.209938	-0.527168	-0.686120
C39	C	1.209945	-0.527126	-0.768103
C40	C	1.163590	-0.607790	-0.805235
C41	C	1.117218	-0.688492	-0.760381
C42	C	1.117207	-0.688527	-0.678400
C43	C	1.117246	-0.688416	-0.931254
C44	C	1.117258	-0.688384	-1.013241
C45	C	1.209984	-0.527015	-1.020957
C46	C	1.209973	-0.527050	-0.938977
C47	C	1.163602	-0.607754	-0.894128
C48	C	1.163508	-0.608001	-0.145323
C49	C	1.163624	-0.607685	-0.058089
H50	H	0.618890	-0.754634	-0.433218
O51	O	1.089260	-1.074694	-0.423424
C52	C	1.049048	-1.160989	-0.463655
H53	H	1.050819	-1.255003	-0.427084
H54	H	0.985383	-1.122875	-0.473765
H55	H	1.078424	-1.174870	-0.522644
O56	O	1.072158	-0.767053	-0.634946
C57	C	1.031236	-0.838229	-0.685298
H58	H	1.063600	-0.842567	-0.743537
H59	H	1.027604	-0.937660	-0.656866
H60	H	0.969415	-0.792018	-0.696205
H61	H	1.247740	-0.461301	-1.057478
H62	H	1.229350	-1.129860	-0.283615
H63	H	0.470173	-0.754662	-0.433243
H64	H	1.247688	-0.461486	-0.655894
O65	O	1.254942	-0.448558	-0.811585
C66	C	1.231786	-0.322802	-0.797557
H67	H	1.201474	-0.320217	-0.738154
H68	H	1.285747	-0.266241	-0.797454
H69	H	1.189415	-0.280258	-0.845718
H70	H	1.247724	-0.461373	-0.908746
O71	O	0.717307	-0.767420	-0.440501
C72	C	0.774488	-0.838707	-0.481347
H73	H	0.833119	-0.842992	-0.448985
H74	H	0.755557	-0.938149	-0.484874
H75	H	0.781026	-0.792627	-0.543211
H76	H	1.079510	-0.754065	-1.043471
O77	O	1.072196	-0.766952	-0.887802
C78	C	1.031279	-0.838134	-0.938153
H79	H	1.063638	-0.842457	-0.996395
H80	H	1.027659	-0.937569	-0.909725
H81	H	0.969453	-0.791938	-0.949054
H82	H	1.079472	-0.754166	-0.790620
O83	O	0.701778	-0.448643	-0.258179
C84	C	0.650505	-0.367234	-0.306849
H85	H	0.640383	-0.411876	-0.364160
H86	H	0.592031	-0.350261	-0.275710
H87	H	0.677637	-0.273739	-0.320032
O88	O	0.878865	-0.767089	-0.440522
C89	C	0.922863	-0.695337	-0.494723
H90	H	0.930563	-0.599656	-0.471692
H91	H	0.982971	-0.746745	-0.502737
H92	H	0.890636	-0.681592	-0.553565
O93	O	0.863363	-0.448651	-0.257968
C94	C	0.806181	-0.377340	-0.217138
H95	H	0.750208	-0.429023	-0.211921
H96	H	0.829191	-0.363783	-0.155945
H97	H	0.792905	-0.281551	-0.250530
O98	O	0.610604	-0.448880	-0.257949
C99	C	0.591834	-0.476284	-0.178382
H100	H	0.574112	-0.577085	-0.169514
H101	H	0.645206	-0.465326	-0.140131
H102	H	0.541006	-0.408602	-0.161161
O103	O	0.448993	-0.448965	-0.257993
C104	C	0.404969	-0.520717	-0.203816
H105	H	0.434424	-0.620080	-0.194129
H106	H	0.401827	-0.474958	-0.145634
H107	H	0.343060	-0.525132	-0.227875
