data_functionalizedCrystal
_audit_creation_method	'MofGen! by Chris Wilmer'
_symmetry_space_group_name_H-M	'P1'
_symmetry_Int_Tables_number	1
_symmetry_cell_setting	triclinic
loop_
_symmetry_equiv_pos_as_xyz
  x,y,z
_cell_length_a	14.519709
_cell_length_b	18.366186
_cell_length_c	19.288865
_cell_angle_alpha	89.988521
_cell_angle_beta	83.408197
_cell_angle_gamma	89.996571
loop_
_atom_site_label
_atom_site_type_symbol
_atom_site_fract_x
_atom_site_fract_y
_atom_site_fract_z
O1	O	1.223296	-0.060464	0.091051
O2	O	1.723296	0.439536	0.591051
O3	O	0.954751	-0.060487	0.101773
O4	O	1.454751	0.439513	0.601773
O5	O	1.096783	-0.060460	-0.004690
O6	O	1.596783	0.439540	0.495310
O7	O	1.081264	-0.060490	0.197514
O8	O	1.581264	0.439510	0.697514
O9	O	1.096759	0.060639	-0.004696
O10	O	1.596759	0.560639	0.495304
O11	O	0.954727	0.060613	0.101768
O12	O	1.454727	0.560613	0.601768
O13	O	1.223272	0.060636	0.091046
O14	O	1.723272	0.560636	0.591046
Zn15	Zn	1.088995	0.079851	0.096406
Zn16	Zn	1.588995	0.579851	0.596406
Zn17	Zn	1.089027	-0.079702	0.096413
Zn18	Zn	1.589027	0.420298	0.596413
O19	O	1.081240	0.060609	0.197509
O20	O	1.581240	0.560609	0.697509
C21	C	0.920382	0.000060	0.101271
C22	C	1.420382	0.500060	0.601271
C23	C	0.818010	0.000052	0.099773
C24	C	1.318010	0.500052	0.599773
N25	N	1.088981	0.188742	0.096401
N26	N	1.588981	0.688742	0.596401
N27	N	1.089049	-0.188594	0.096413
N28	N	1.589049	0.311406	0.596413
C29	C	0.443150	0.000086	0.094261
C30	C	0.943150	0.500086	0.594261
C31	C	0.547448	0.000076	0.095792
C32	C	1.047448	0.500076	0.595792
C33	C	0.630577	0.000068	0.097017
C34	C	1.130577	0.500068	0.597017
C35	C	0.734882	0.000060	0.098548
C36	C	1.234882	0.500060	0.598548
C37	C	1.257640	0.000087	0.091548
C38	C	1.757640	0.500087	0.591548
C39	C	1.360012	0.000091	0.093045
C40	C	1.860012	0.500091	0.593045
C41	C	1.096272	0.000092	-0.030571
C42	C	1.596272	0.500092	0.469429
C43	C	1.094773	0.000098	-0.107680
C44	C	1.594773	0.500098	0.392320
C45	C	1.151893	0.226855	0.049282
C46	C	1.651893	0.726855	0.549282
C47	C	1.151899	0.303082	0.049279
C48	C	1.651899	0.803082	0.549279
C49	C	1.089001	0.341195	0.096406
C50	C	1.589001	0.841195	0.596406
C51	C	1.026077	0.303074	0.143529
C52	C	1.526077	0.803074	0.643529
C53	C	1.026067	0.226847	0.143526
C54	C	1.526067	0.726847	0.643526
C55	C	1.076656	0.461945	0.159650
C56	C	1.576656	0.961945	0.659650
C57	C	1.076672	0.538170	0.159654
C58	C	1.576672	1.038170	0.659654
C59	C	1.089027	0.576303	0.096415
C60	C	1.589027	1.076303	0.596415
C61	C	1.101385	0.538201	0.033170
C62	C	1.601385	1.038201	0.533170
C63	C	1.101375	0.461974	0.033167
C64	C	1.601375	0.961974	0.533167
C65	C	1.089005	0.423850	0.096415
C66	C	1.589005	0.923850	0.596415
C67	C	1.151949	0.697070	0.049289
C68	C	1.651949	1.197070	0.549289
C69	C	1.151949	0.773299	0.049285
C70	C	1.651949	1.273299	0.549285
C71	C	1.026131	0.773289	0.143541
C72	C	1.526131	1.273289	0.643541
C73	C	1.026128	0.697061	0.143539
C74	C	1.526128	1.197061	0.643539
C75	C	1.089041	0.658956	0.096414
C76	C	1.589041	1.158956	0.596414
C77	C	1.178111	0.000109	-0.152077
C78	C	1.678111	0.500109	0.347923
C79	C	1.176702	0.000097	-0.224529
C80	C	1.676702	0.500097	0.275471
C81	C	1.091951	0.000089	-0.252581
C82	C	1.591951	0.500089	0.247419
C83	C	1.008602	0.000074	-0.208175
C84	C	1.508602	0.500074	0.291825
C85	C	1.010013	0.000079	-0.135725
C86	C	1.510013	0.500079	0.364275
C87	C	1.025319	0.042502	-0.361110
C88	C	1.525319	0.542502	0.138890
C89	C	1.023911	0.042502	-0.433560
C90	C	1.523911	0.542502	0.066440
C91	C	1.087597	0.000073	-0.476043
C92	C	1.587597	0.500073	0.023957
C93	C	1.152705	-0.042348	-0.446068
C94	C	1.652705	0.457652	0.053932
C95	C	1.154116	-0.042343	-0.373618
C96	C	1.654116	0.457657	0.126382
C97	C	1.090412	0.000084	-0.331141
C98	C	1.590412	0.500084	0.168859
C99	C	1.169414	0.000070	-0.599000
C100	C	1.669414	0.500070	-0.099000
C101	C	1.168002	0.000054	-0.671454
C102	C	1.668002	0.500054	-0.171454
C103	C	0.999899	0.000038	-0.655098
C104	C	1.499899	0.500038	-0.155098
C105	C	1.001314	0.000047	-0.582647
C106	C	1.501314	0.500047	-0.082647
C107	C	1.086073	0.000066	-0.554602
C108	C	1.586073	0.500066	-0.054602
C109	C	1.081751	0.000056	0.223390
C110	C	1.581751	0.500056	0.723390
C111	C	1.083250	0.000045	0.300499
C112	C	1.583250	0.500045	0.800499
H113	H	1.203119	0.195832	0.010908
H114	H	1.703119	0.695832	0.510908
C115	C	1.262650	0.000080	-0.568149
C116	C	1.762650	0.500080	-0.068149
N117	N	1.332876	0.000085	-0.544914
N118	N	1.832876	0.500085	-0.044914
H119	H	0.973456	0.077057	-0.326526
H120	H	1.473456	0.577057	0.173474
H121	H	1.111435	0.430955	-0.018329
H122	H	1.611435	0.930955	0.481671
C123	C	0.956985	0.655136	0.195425
C124	C	1.456985	1.155136	0.695425
N125	N	0.904923	0.623558	0.234523
N126	N	1.404923	1.123558	0.734523
H127	H	0.970893	0.077039	-0.457959
H128	H	1.470893	0.577039	0.042041
H129	H	1.066616	0.569187	0.211151
H130	H	1.566616	1.069187	0.711151
C131	C	1.225727	-0.089010	-0.340648
C132	C	1.725727	0.410990	0.159352
N133	N	1.279662	-0.124164	-0.315815
N134	N	1.779662	0.375836	0.184185
C135	C	1.063064	0.420008	0.229222
C136	C	1.563064	0.920008	0.729222
N137	N	1.052827	0.388421	0.281622
N138	N	1.552827	0.888421	0.781622
C139	C	0.956885	0.344999	0.195366
C140	C	1.456885	0.844999	0.695366
N141	N	0.904765	0.376577	0.234410
N142	N	1.404765	0.876577	0.734410
C143	C	0.915376	0.000071	-0.239034
C144	C	1.415376	0.500071	0.260966
N145	N	0.845155	0.000068	-0.262277
N146	N	1.345155	0.500068	0.237723
H147	H	0.942147	0.000070	-0.099576
H148	H	1.442147	0.500070	0.400424
H149	H	1.235869	0.000058	-0.707601
H150	H	1.735869	0.500058	-0.207601
H151	H	0.974835	0.195816	0.181896
H152	H	1.474835	0.695816	0.681896
C153	C	0.906672	0.000027	-0.685952
C154	C	1.406672	0.500027	-0.185952
N155	N	0.836450	0.000017	-0.709194
N156	N	1.336450	0.500017	-0.209194
C157	C	1.271349	0.000124	-0.121232
C158	C	1.771349	0.500124	0.378768
N159	N	1.341577	0.000133	-0.097999
N160	N	1.841577	0.500133	0.402001
C161	C	1.268384	0.000114	-0.273374
C162	C	1.768384	0.500114	0.226626
N163	N	1.337439	0.000128	-0.310162
N164	N	1.837439	0.500128	0.189838
H165	H	1.204564	-0.076898	-0.480657
H166	H	1.704564	0.423102	0.019343
C167	C	1.114974	0.580140	-0.036398
C168	C	1.614974	1.080140	0.463602
N169	N	1.125210	0.611733	-0.088795
N170	N	1.625210	1.111733	0.411205
H171	H	1.203131	0.334119	0.010907
H172	H	1.703131	0.834119	0.510907
H173	H	0.974915	0.804320	0.181911
H174	H	1.474915	1.304320	0.681911
H175	H	0.933451	0.000042	-0.546498
H176	H	1.433451	0.500042	-0.046498
H177	H	1.203175	0.666044	0.010915
H178	H	1.703175	1.166044	0.510915
H179	H	1.203177	0.804331	0.010912
H180	H	1.703177	1.304331	0.510912
