data_functionalizedCrystal
_audit_creation_method	'MofGen! by Chris Wilmer'
_symmetry_space_group_name_H-M	'P1'
_symmetry_Int_Tables_number	1
_symmetry_cell_setting	triclinic
loop_
_symmetry_equiv_pos_as_xyz
  x,y,z
_cell_length_a	15.297327
_cell_length_b	15.297621
_cell_length_c	15.296720
_cell_angle_alpha	88.384271
_cell_angle_beta	107.319222
_cell_angle_gamma	88.375711
loop_
_atom_site_label
_atom_site_type_symbol
_atom_site_fract_x
_atom_site_fract_y
_atom_site_fract_z
Zn1	Zn	-0.695117	-1.116329	-0.823160
Zn2	Zn	-0.823718	-1.116234	-0.694534
Zn3	Zn	-0.644940	-1.005101	-0.644430
Zn4	Zn	-0.814934	-0.946193	-0.814438
O5	O	-0.744677	-1.045964	-0.744141
O6	O	-0.736851	-1.234028	-0.830717
O7	O	-0.782680	-1.126105	-0.562908
O8	O	-0.526633	-1.044550	-0.650820
O9	O	-0.831334	-1.233958	-0.736216
O10	O	-0.563497	-1.126268	-0.782133
O11	O	-0.651333	-1.044457	-0.526097
O12	O	-0.642815	-0.879575	-0.642363
O13	O	-0.816362	-0.944148	-0.940574
O14	O	-0.767709	-0.836295	-0.767267
O15	O	-0.728333	-1.069147	-0.946983
O16	O	-0.947516	-1.068984	-0.727758
O17	O	-0.941062	-0.944056	-0.815851
C18	C	-0.698864	-0.827414	-0.698432
C19	C	-0.679290	-0.733908	-0.678902
C20	C	-0.976698	-1.000136	-0.776320
C21	C	-1.075978	-0.980601	-0.790132
C22	C	-0.884543	-0.380291	-0.883684
C23	C	-0.902940	-0.468144	-0.902032
C24	C	-0.847029	-0.534589	-0.846251
C25	C	-0.772718	-0.513174	-0.772119
C26	C	-0.754323	-0.425313	-0.753765
C27	C	-0.716809	-0.579611	-0.716332
C28	C	-0.642498	-0.558196	-0.642199
C29	C	-0.624106	-0.470343	-0.623849
C30	C	-0.680017	-0.403898	-0.679630
C31	C	-0.735204	-0.667471	-0.734686
C32	C	-0.604984	-0.712493	-0.604767
C33	C	-0.586587	-0.624641	-0.586419
C34	C	-1.369207	-1.185867	-0.645799
C35	C	-1.275928	-1.204221	-0.632817
C36	C	-1.225936	-1.148318	-0.672145
C37	C	-1.269232	-1.074057	-0.724456
C38	C	-1.362518	-1.055697	-0.737434
C39	C	-1.219247	-1.018149	-0.763780
C40	C	-1.262543	-0.943888	-0.816091
C41	C	-1.355821	-0.925532	-0.829067
C42	C	-1.405813	-0.981435	-0.789739
C43	C	-1.125961	-1.036508	-0.750802
C44	C	-1.119272	-0.906339	-0.842437
C45	C	-1.212551	-0.887985	-0.855419
C46	C	-0.511758	-1.091991	-0.711860
C47	C	-0.412501	-1.111604	-0.698104
C48	C	-0.776965	-1.000087	-0.977090
C49	C	-0.790724	-0.980537	-1.076360
C50	C	-0.790662	-0.265371	-0.790020
C51	C	-0.810237	-0.358876	-0.809549
C52	C	-0.646189	-1.185754	-1.369531
C53	C	-0.633264	-1.204127	-1.276264
C54	C	-0.672627	-1.148231	-1.226284
C55	C	-0.724919	-1.073959	-1.269579
C56	C	-0.737851	-1.055587	-1.362857
C57	C	-0.764290	-1.018065	-1.219609
C58	C	-0.816581	-0.943792	-1.262905
C59	C	-0.829510	-0.925424	-1.356173
C60	C	-0.790146	-0.981320	-1.406154
C61	C	-0.751358	-1.036436	-1.126331
C62	C	-0.843020	-0.906269	-1.119657
C63	C	-0.855944	-0.887896	-1.212924
C64	C	-0.712461	-1.091724	-0.512098
C65	C	-0.698484	-1.111487	-0.412829
H66	H	-0.795709	-0.684898	-0.795046
N67	N	-0.543967	-0.447242	-0.543884
H68	H	-0.511338	-0.502663	-0.511332
H69	H	-0.500115	-0.411770	-0.566968
N70	N	-0.506448	-0.601540	-0.506454
H71	H	-0.514575	-0.626674	-0.447724
H72	H	-0.447838	-0.626671	-0.514856
H73	H	-1.391066	-0.865056	-0.871650
N74	N	-1.065358	-0.846042	-0.884857
H75	H	-1.093129	-0.843299	-0.953657
H76	H	-1.067138	-0.785520	-0.860564
N77	N	-0.544677	-0.784149	-0.544593
H78	H	-0.567603	-0.843054	-0.567470
H79	H	-0.479644	-0.778625	-0.546546
N80	N	-0.660185	-0.309139	-0.659836
H81	H	-0.596809	-0.296808	-0.663438
H82	H	-0.706937	-0.270368	-0.706439
N83	N	-0.912328	-0.807781	-1.259621
H84	H	-0.914538	-0.804625	-1.326289
H85	H	-0.976593	-0.811463	-1.254901
N86	N	-0.804074	-0.961517	-1.506753
H87	H	-0.871685	-0.960449	-1.540956
H88	H	-0.778622	-0.902643	-1.514797
N89	N	-1.506422	-0.961636	-0.803735
H90	H	-1.526266	-0.906108	-0.842836
H91	H	-1.543135	-1.011725	-0.835354
N92	N	-1.423135	-1.246146	-0.603389
H93	H	-1.421375	-1.306705	-0.627607
H94	H	-1.395335	-1.248811	-0.534596
H95	H	-1.247816	-0.827521	-0.898011
H96	H	-0.708781	-1.096909	-1.091089
H97	H	-1.090718	-1.096972	-0.708210
N98	N	-0.658690	-1.168044	-1.125688
H99	H	-0.619590	-1.223575	-1.105844
H100	H	-0.627090	-1.117962	-1.088947
H101	H	-1.149984	-1.163266	-0.661571
H102	H	-1.240679	-1.264683	-0.590225
N103	N	-0.576872	-1.284231	-1.229569
H104	H	-0.553896	-1.316852	-1.275382
H105	H	-0.523003	-1.265782	-1.177980
N106	N	-0.603745	-1.246041	-1.423438
H107	H	-0.619876	-1.223132	-1.489096
H108	H	-0.534963	-1.248766	-1.395566
N109	N	-0.885916	-0.845324	-1.402879
H110	H	-0.950207	-0.848976	-1.398218
H111	H	-0.857122	-0.791201	-1.372131
H112	H	-0.875075	-0.860755	-1.078963
H113	H	-0.862013	-0.606121	-0.861195
H114	H	-0.963446	-0.485573	-0.962389
N115	N	-0.944848	-0.308631	-0.943833
H116	H	-0.921920	-0.249727	-0.920953
H117	H	-0.943116	-0.314149	-1.008940
