data_functionalizedCrystal
_audit_creation_method	'MofGen! by Chris Wilmer'
_symmetry_space_group_name_H-M	'P1'
_symmetry_Int_Tables_number	1
_symmetry_cell_setting	triclinic
loop_
_symmetry_equiv_pos_as_xyz
  x,y,z
_cell_length_a	29.839134
_cell_length_b	29.839131
_cell_length_c	29.839125
_cell_angle_alpha	90.025363
_cell_angle_beta	90.024313
_cell_angle_gamma	90.027971
loop_
_atom_site_label
_atom_site_type_symbol
_atom_site_fract_x
_atom_site_fract_y
_atom_site_fract_z
Zn1	Zn	0.686739	-0.179003	0.254129
Zn2	Zn	0.686679	-0.254115	0.178989
Zn3	Zn	0.611622	-0.178991	0.178996
Zn4	Zn	0.611578	-0.254097	0.254074
O5	O	0.649154	-0.216552	0.216547
O6	O	0.749598	-0.188980	0.244182
O7	O	0.676716	-0.244152	0.116123
O8	O	0.621630	-0.116125	0.188988
O9	O	0.749554	-0.244164	0.188977
O10	O	0.676818	-0.116134	0.244188
O11	O	0.621572	-0.188958	0.116128
O12	O	0.548749	-0.188941	0.188935
O13	O	0.621554	-0.244134	0.316949
O14	O	0.548716	-0.244122	0.244095
O15	O	0.676775	-0.188962	0.316989
O16	O	0.676673	-0.316980	0.188924
O17	O	0.621497	-0.316967	0.244088
C18	C	0.532432	-0.216528	0.216510
C19	C	0.482497	-0.216529	0.216505
C20	C	0.125915	-0.187777	0.187884
C21	C	0.313588	-0.187764	0.187857
O22	O	0.337856	-0.163279	0.163480
N23	N	0.337052	-0.216536	0.216527
C24	C	0.313596	-0.245312	0.245209
O25	O	0.337860	-0.269781	0.269598
C26	C	0.125923	-0.245322	0.245238
C27	C	0.102461	-0.216551	0.216562
C28	C	0.102452	-0.159007	0.159211
C29	C	0.055537	-0.159013	0.159216
C30	C	0.032084	-0.187787	0.187895
C31	C	0.055546	-0.216556	0.216568
C32	C	0.102468	-0.274095	0.273922
C33	C	0.055547	-0.274094	0.273927
C34	C	0.032085	-0.245323	0.245251
C35	C	-0.014823	-0.245336	0.245251
N36	N	-0.038287	-0.216563	0.216581
C37	C	-0.014834	-0.187789	0.187902
C38	C	0.412126	-0.245305	0.245191
C39	C	0.459044	-0.245303	0.245183
C40	C	0.459033	-0.187755	0.187831
C41	C	0.412114	-0.187759	0.187837
C42	C	0.388662	-0.216533	0.216520
C43	C	-0.113360	-0.187802	0.187916
C44	C	-0.160280	-0.187811	0.187922
C45	C	-0.160264	-0.245358	0.245275
C46	C	-0.113349	-0.245351	0.245267
C47	C	-0.089898	-0.216569	0.216586
O48	O	-0.039120	-0.269804	0.269618
O49	O	-0.039107	-0.163316	0.163524
C50	C	0.172830	-0.187771	0.187878
C51	C	0.196292	-0.216541	0.216552
C52	C	0.172839	-0.245315	0.245230
C53	C	0.243210	-0.216539	0.216544
C54	C	0.266663	-0.187764	0.187865
C55	C	0.243199	-0.158992	0.159195
C56	C	0.196283	-0.158997	0.159200
C57	C	0.196304	-0.274087	0.273901
C58	C	0.243219	-0.274080	0.273892
C59	C	0.266672	-0.245306	0.245214
C60	C	0.649086	-0.333274	0.216509
C61	C	0.649098	-0.383209	0.216508
C62	C	0.677885	-0.692822	0.245331
C63	C	0.677933	-0.880495	0.245358
O64	O	0.702342	-0.904734	0.269836
N65	N	0.649231	-0.903994	0.216597
C66	C	0.620512	-0.880571	0.187829
O67	O	0.596096	-0.904865	0.163370
C68	C	0.620461	-0.692899	0.187805
C69	C	0.649169	-0.669403	0.216564
C70	C	0.706590	-0.669326	0.274088
C71	C	0.706579	-0.622410	0.274079
C72	C	0.677863	-0.598991	0.245313
C73	C	0.649158	-0.622487	0.216556
C74	C	0.591740	-0.669477	0.159040
C75	C	0.591729	-0.622556	0.159037
C76	C	0.620437	-0.599060	0.187797
C77	C	0.620431	-0.552153	0.187781
N78	N	0.649134	-0.528654	0.216541
C79	C	0.677850	-0.552073	0.245308
C80	C	0.620541	-0.979102	0.187844
C81	C	0.620554	-1.026020	0.187849
C82	C	0.677975	-1.025940	0.245378
C83	C	0.677964	-0.979022	0.245370
C84	C	0.649244	-0.955603	0.216604
C85	C	0.677826	-0.453547	0.245287
C86	C	0.677814	-0.406628	0.245274
C87	C	0.620391	-0.406711	0.187747
C88	C	0.620404	-0.453627	0.187758
C89	C	0.649123	-0.477044	0.216531
O90	O	0.596032	-0.527885	0.163319
O91	O	0.702255	-0.527772	0.269770
C92	C	0.677895	-0.739737	0.245339
C93	C	0.649190	-0.763234	0.216582
C94	C	0.620474	-0.739815	0.187816
C95	C	0.649203	-0.810152	0.216587
C96	C	0.677919	-0.833571	0.245354
C97	C	0.706622	-0.810072	0.274115
C98	C	0.706611	-0.763157	0.274106
C99	C	0.591772	-0.763313	0.159055
C100	C	0.591785	-0.810229	0.159066
C101	C	0.620501	-0.833648	0.187832
C102	C	0.766333	-0.216575	0.216585
C103	C	0.816267	-0.216586	0.216601
C104	C	0.649167	-0.216548	0.333725
C105	C	0.649172	-0.216546	0.383660
C106	C	0.649235	-0.099373	0.216595
C107	C	0.649270	-0.049439	0.216615
C108	C	0.649168	-0.216523	0.099825
C109	C	0.649250	-0.216398	0.049890
C110	C	0.677955	-0.187743	0.693327
C111	C	0.677978	-0.187705	0.881000
O112	O	0.702417	-0.163258	0.905286
N113	N	0.649231	-0.216426	0.904445
C114	C	0.620475	-0.245156	0.880969
O115	O	0.596022	-0.269581	0.905216
C116	C	0.620451	-0.245192	0.693296
C117	C	0.649202	-0.216472	0.669854
C118	C	0.706704	-0.159025	0.669885
C119	C	0.706700	-0.159037	0.622970
C120	C	0.677947	-0.187766	0.599496
C121	C	0.649198	-0.216484	0.622939
C122	C	0.591693	-0.273920	0.669821
C123	C	0.591689	-0.273925	0.622900
C124	C	0.620440	-0.245206	0.599458
C125	C	0.620441	-0.245225	0.552550
N126	N	0.649188	-0.216504	0.529105
C127	C	0.677941	-0.187774	0.552578
C128	C	0.620491	-0.245136	0.979499
C129	C	0.620497	-0.245128	1.026417
C130	C	0.677999	-0.187675	1.026446
C131	C	0.677994	-0.187686	0.979527
C132	C	0.649237	-0.216415	0.956055
C133	C	0.677930	-0.187801	0.454053
C134	C	0.677925	-0.187817	0.407133
C135	C	0.620421	-0.245267	0.407109
C136	C	0.620428	-0.245253	0.454024
C137	C	0.649184	-0.216517	0.477495
O138	O	0.596011	-0.269655	0.528236
O139	O	0.702383	-0.163346	0.528323
C140	C	0.677959	-0.187731	0.740243
C141	C	0.649211	-0.216449	0.763685
C142	C	0.620458	-0.245178	0.740212
C143	C	0.649217	-0.216441	0.810603
C144	C	0.677970	-0.187711	0.834076
C145	C	0.706717	-0.158990	0.810631
C146	C	0.706712	-0.159002	0.763716
C147	C	0.591711	-0.273899	0.763657
C148	C	0.591718	-0.273886	0.810572
C149	C	0.620471	-0.245156	0.834045
H150	H	0.478143	-0.268737	0.268529
H151	H	0.730125	-0.135615	0.744633
H152	H	0.729988	-0.744029	0.297525
H153	H	0.597032	-0.472758	0.164336
O154	O	0.705863	-0.159715	1.049271
C155	C	0.680300	-0.130703	1.076416
H156	H	0.644918	-0.127931	1.062263
H157	H	0.678746	-0.144587	1.111969
C158	C	0.745726	-0.087404	1.094542
C159	C	0.702271	-0.083996	1.077156
H160	H	0.759279	-0.058594	1.095001
H161	H	0.762949	-0.106951	1.076255
H162	H	0.744425	-0.098976	1.124168
H163	H	0.703572	-0.072430	1.047529
H164	H	0.685048	-0.064446	1.095438
O165	O	-0.090603	-0.159895	0.159988
C166	C	-0.102111	-0.169648	0.115198
H167	H	-0.115022	-0.205537	0.112870
H168	H	-0.129345	-0.145550	0.103506
C169	C	-0.044594	-0.120294	0.088075
C170	C	-0.060448	-0.164374	0.085214
H171	H	-0.018895	-0.117039	0.069578
H172	H	-0.036842	-0.113722	0.118250
H173	H	-0.067293	-0.100217	0.078331
H174	H	-0.037751	-0.184449	0.094962
H175	H	-0.068195	-0.170949	0.055039
O176	O	0.592529	-0.273044	1.049117
C177	C	0.567159	-0.298408	1.018332
H178	H	0.565616	-0.280010	0.984893
H179	H	0.583587	-0.332532	1.013337
C180	C	0.521238	-0.327467	1.077693
C181	C	0.519339	-0.304869	1.036623
H182	H	0.491740	-0.331454	1.088976
H183	H	0.538331	-0.310380	1.098434
H184	H	0.534929	-0.355901	1.073525
H185	H	0.505653	-0.276433	1.040793
H186	H	0.502242	-0.321951	1.015884
O187	O	0.592617	-0.273070	0.956654
C188	C	0.618169	-0.302107	0.929523
H189	H	0.652223	-0.286270	0.922500
H190	H	0.623089	-0.335394	0.947603
C191	C	0.551607	-0.329705	0.893578
C192	C	0.593431	-0.310252	0.884949
H193	H	0.536347	-0.334731	0.866084
H194	H	0.534392	-0.310143	0.911857
H195	H	0.555713	-0.357442	0.908646
H196	H	0.589324	-0.282513	0.869887
H197	H	0.610645	-0.329809	0.866666
O198	O	0.563843	-0.301832	0.740810
C199	C	0.589397	-0.330870	0.713684
H200	H	0.623451	-0.315033	0.706663
H201	H	0.594316	-0.364156	0.731766
C202	C	0.522838	-0.358472	0.677735
C203	C	0.564663	-0.339018	0.669108
H204	H	0.507581	-0.363500	0.650239
H205	H	0.505622	-0.338909	0.696011
H206	H	0.526944	-0.386208	0.692804
H207	H	0.560557	-0.311280	0.654044
H208	H	0.581879	-0.358576	0.650828
H209	H	0.036454	-0.297524	0.297286
H210	H	0.121563	-0.297524	0.297272
H211	H	0.262303	-0.135564	0.135842
O212	O	0.734451	-0.832848	0.302107
C213	C	0.708852	-0.859995	0.331085
H214	H	0.673466	-0.845874	0.333816
H215	H	0.707318	-0.895561	0.317194
C216	C	0.774225	-0.878026	0.374460
C217	C	0.730764	-0.860680	0.377818
H218	H	0.787741	-0.878450	0.403287
H219	H	0.791472	-0.859738	0.354936
H220	H	0.772940	-0.907662	0.362883
H221	H	0.732050	-0.831042	0.389390
H222	H	0.713518	-0.878964	0.397345
H223	H	-0.094245	-0.268782	0.268614
H224	H	-0.179368	-0.268787	0.268623
H225	H	0.597013	-0.268659	0.387988
O226	O	0.173565	-0.131004	0.131332
C227	C	0.204334	-0.105617	0.106014
H228	H	0.237788	-0.104092	0.124418
H229	H	0.209300	-0.122018	0.071862
C230	C	0.144958	-0.059667	0.077029
C231	C	0.186046	-0.057790	0.099635
H232	H	0.133677	-0.030165	0.073092
H233	H	0.124228	-0.076771	0.094085
H234	H	0.149102	-0.073336	0.048572
H235	H	0.181901	-0.044126	0.128093
H236	H	0.206775	-0.040682	0.082584
O237	O	0.032819	-0.131018	0.131350
C238	C	0.063588	-0.105630	0.106033
H239	H	0.097042	-0.104107	0.124436
H240	H	0.068552	-0.122029	0.071880
C241	C	0.004212	-0.059676	0.077053
C242	C	0.045301	-0.057801	0.099657
H243	H	-0.007068	-0.030173	0.073118
H244	H	-0.016518	-0.076781	0.094108
H245	H	0.008355	-0.073343	0.048595
H246	H	0.041157	-0.044140	0.128117
H247	H	0.066030	-0.040693	0.082607
H248	H	0.568363	-0.688600	0.135621
H249	H	0.393036	-0.268738	0.268549
H250	H	0.262318	-0.297513	0.297243
H251	H	0.121543	-0.135573	0.135857
H252	H	0.730118	-0.135628	0.688992
O253	O	0.563706	-0.301772	0.600082
C254	C	0.534709	-0.276200	0.572929
H255	H	0.531961	-0.240811	0.587069
H256	H	0.548594	-0.274669	0.537374
C257	C	0.491367	-0.341605	0.554829
C258	C	0.487989	-0.298141	0.572198
H259	H	0.462548	-0.355140	0.554376
H260	H	0.510904	-0.358834	0.573121
H261	H	0.502939	-0.340324	0.525201
H262	H	0.476422	-0.299424	0.601827
H263	H	0.468449	-0.280913	0.553911
H264	H	0.597020	-0.268643	0.473112
O265	O	0.563854	-0.832981	0.131111
C266	C	0.538516	-0.802244	0.105715
H267	H	0.536946	-0.768789	0.124110
H268	H	0.554988	-0.797264	0.071611
C269	C	0.492636	-0.861675	0.076600
C270	C	0.490705	-0.820587	0.099195
H271	H	0.463144	-0.872991	0.072576
H272	H	0.509707	-0.882384	0.093709
H273	H	0.506364	-0.857520	0.048183
H274	H	0.476982	-0.824744	0.127614
H275	H	0.473629	-0.799879	0.082091
O276	O	0.592734	-1.048862	0.159862
C277	C	0.618334	-1.076008	0.130883
H278	H	0.653716	-1.061847	0.128144
H279	H	0.619879	-1.111558	0.144779
C280	C	0.552958	-1.094162	0.087522
C281	C	0.596414	-1.076767	0.084155
H282	H	0.539436	-1.094632	0.058698
H283	H	0.535710	-1.075875	0.107047
H284	H	0.554251	-1.123785	0.099104
H285	H	0.595119	-1.047143	0.072579
H286	H	0.613661	-1.095050	0.064627
H287	H	0.177213	-0.297519	0.297255
H288	H	0.568280	-0.297306	0.688899
H289	H	0.568340	-0.603491	0.135613
H290	H	0.568387	-0.744249	0.135630
O291	O	0.734582	-0.131033	0.833457
C292	C	0.709022	-0.102018	0.860602
H293	H	0.673641	-0.099241	0.846447
H294	H	0.707465	-0.115903	0.896155
C295	C	0.774453	-0.058728	0.878732
C296	C	0.730999	-0.055314	0.861345
H297	H	0.788010	-0.029920	0.879192
H298	H	0.791675	-0.078277	0.860445
H299	H	0.773150	-0.070300	0.908358
H300	H	0.732303	-0.043747	0.831717
H301	H	0.713778	-0.035762	0.879626
O302	O	0.705715	-0.383874	0.273256
C303	C	0.731068	-0.414609	0.298640
H304	H	0.712672	-0.448065	0.300179
H305	H	0.765201	-0.419585	0.282229
C306	C	0.760098	-0.355175	0.344570
C307	C	0.737502	-0.396265	0.346463
H308	H	0.764070	-0.343859	0.374069
H309	H	0.743019	-0.334467	0.327468
H310	H	0.788540	-0.359327	0.330892
H311	H	0.709059	-0.392111	0.360135
H312	H	0.754577	-0.416972	0.363569
H313	H	0.701339	-0.164429	0.388048
O314	O	0.389394	-0.159767	0.159970
C315	C	0.420162	-0.134381	0.134649
H316	H	0.453617	-0.132855	0.153049
H317	H	0.425124	-0.150783	0.100497
C318	C	0.360783	-0.088431	0.105668
C319	C	0.401873	-0.086553	0.128269
H320	H	0.349502	-0.058929	0.101730
H321	H	0.340055	-0.105534	0.122725
H322	H	0.364924	-0.102101	0.077210
H323	H	0.397731	-0.072888	0.156728
H324	H	0.422601	-0.069446	0.111216
H325	H	0.701406	-0.164299	0.960443
O326	O	0.705907	-0.159874	0.476778
C327	C	0.731269	-0.134525	0.446019
H328	H	0.732803	-0.152939	0.412573
H329	H	0.714843	-0.100403	0.441030
C330	C	0.777209	-0.105442	0.505419
C331	C	0.779096	-0.128059	0.464341
H332	H	0.806710	-0.101451	0.516721
H333	H	0.760121	-0.122518	0.526143
H334	H	0.763518	-0.077009	0.501255
H335	H	0.792781	-0.156494	0.468506
H336	H	0.796187	-0.110987	0.443618
O337	O	0.734509	-0.599568	0.301956
C338	C	0.763534	-0.572412	0.276415
H339	H	0.766341	-0.586565	0.241036
H340	H	0.749637	-0.536864	0.274850
C341	C	0.806770	-0.554266	0.341876
C342	C	0.810221	-0.571651	0.298423
H343	H	0.835569	-0.553794	0.355451
H344	H	0.787215	-0.572560	0.359084
H345	H	0.795188	-0.524644	0.340565
H346	H	0.821798	-0.601274	0.299734
H347	H	0.829779	-0.553362	0.281216
O348	O	0.734530	-0.692001	0.302048
C349	C	0.759850	-0.661193	0.327433
H350	H	0.761401	-0.627759	0.309025
H351	H	0.743376	-0.656196	0.361534
C352	C	0.805764	-0.720517	0.356571
C353	C	0.807672	-0.679454	0.333960
H354	H	0.835263	-0.731781	0.360599
H355	H	0.788705	-0.741273	0.339470
H356	H	0.792033	-0.716347	0.384986
H357	H	0.821398	-0.683625	0.305543
H358	H	0.824735	-0.658698	0.351057
H359	H	-0.179380	-0.164382	0.164570
H360	H	0.568306	-0.297277	0.829655
H361	H	0.478136	-0.164326	0.164480
H362	H	0.701208	-0.472608	0.268720
H363	H	0.701340	-0.959894	0.268789
O364	O	0.705846	-1.048645	0.273387
C365	C	0.695980	-1.037173	0.318149
H366	H	0.678704	-1.003118	0.319057
H367	H	0.672873	-1.063586	0.333252
C368	C	0.760970	-1.076791	0.344305
C369	C	0.739756	-1.034963	0.345420
H370	H	0.787972	-1.075430	0.361128
H371	H	0.767617	-1.084522	0.314148
H372	H	0.741710	-1.098798	0.356890
H373	H	0.759014	-1.012958	0.332830
H374	H	0.733113	-1.027228	0.375575
O375	O	0.592629	-0.956426	0.159853
C376	C	0.567295	-0.987233	0.134479
H377	H	0.585710	-1.020663	0.132956
H378	H	0.533163	-0.992241	0.150890
C379	C	0.538234	-0.927903	0.088524
C380	C	0.560854	-0.968961	0.086649
H381	H	0.534258	-0.916631	0.059020
H382	H	0.555300	-0.907147	0.105619
H383	H	0.509793	-0.932081	0.102201
H384	H	0.589295	-0.964781	0.072977
H385	H	0.543792	-0.989715	0.069550
O386	O	0.734640	-0.131092	0.600270
C387	C	0.760022	-0.105743	0.631057
H388	H	0.741623	-0.104184	0.664495
H389	H	0.794132	-0.122199	0.636054
C390	C	0.789124	-0.059846	0.571699
C391	C	0.766524	-0.057928	0.612767
H392	H	0.793137	-0.030352	0.560416
H393	H	0.772025	-0.076925	0.550957
H394	H	0.817547	-0.073561	0.575869
H395	H	0.738100	-0.044219	0.608596
H396	H	0.783619	-0.040845	0.633508
H397	H	0.597012	-0.387636	0.164324
