data_functionalizedCrystal
_audit_creation_method	'MofGen! by Chris Wilmer'
_symmetry_space_group_name_H-M	'P1'
_symmetry_Int_Tables_number	1
_symmetry_cell_setting	triclinic
loop_
_symmetry_equiv_pos_as_xyz
  x,y,z
_cell_length_a	15.944551
_cell_length_b	10.540539
_cell_length_c	9.016244
_cell_angle_alpha	90.005301
_cell_angle_beta	89.996810
_cell_angle_gamma	95.987885
loop_
_atom_site_label
_atom_site_type_symbol
_atom_site_fract_x
_atom_site_fract_y
_atom_site_fract_z
O1	O	0.118370	-1.684281	-0.123274
O2	O	0.129523	-1.314716	-0.123293
O3	O	0.001731	-1.509591	-0.123269
O4	O	0.246161	-1.489407	-0.123297
O5	O	0.001734	-1.509562	0.123411
O6	O	0.129525	-1.314688	0.123388
O7	O	0.118372	-1.684253	0.123407
Cu8	Cu	0.123949	-1.499468	0.145921
Cu9	Cu	0.123946	-1.499502	-0.145807
O10	O	0.246164	-1.489378	0.123384
C11	C	0.128688	-1.267411	0.000046
C12	C	0.126185	-1.126497	0.000039
C13	C	-0.029566	-1.508739	0.000071
C14	C	-0.122827	-1.506227	0.000072
C15	C	0.119207	-1.731559	0.000065
C16	C	0.121710	-1.872473	0.000062
C17	C	-0.338440	-1.379430	0.000045
C18	C	-0.399105	-1.438296	0.121677
C19	C	-0.293580	-1.501682	0.000060
C20	C	-0.399091	-1.438353	-0.121531
C21	C	-0.458519	-1.497283	0.000043
C22	C	-0.353017	-1.560582	0.121792
C23	C	-0.352996	-1.560622	-0.121525
C24	C	-0.413643	-1.619577	0.000136
C25	C	-0.198563	-1.504213	0.000072
C26	C	-0.553535	-1.494762	0.000042
C27	C	0.277461	-1.490231	0.000040
C28	C	0.370722	-1.492743	0.000029
N29	N	0.123951	-1.499453	0.351108
C30	C	0.030298	-0.944375	0.000626
C31	C	0.032835	-1.090959	0.000054
C32	C	0.171108	-1.064229	-0.140828
C33	C	0.167922	-0.917728	-0.140930
C34	C	0.169824	-0.917181	0.139592
C35	C	0.170684	-1.064151	0.141438
N36	N	0.123937	-1.499526	-0.350993
C37	C	0.192082	-1.394894	0.586128
C38	C	0.192337	-1.395120	0.414237
C39	C	0.143889	-1.631905	0.413450
C40	C	0.144372	-1.631333	0.585395
C41	C	0.035659	-1.472882	0.585659
C42	C	0.036231	-1.469829	0.413705
H43	H	-0.305737	-1.277955	0.000161
F44	F	0.277951	-1.417309	0.360440
H45	H	-0.446196	-1.721141	0.000210
H46	H	-0.419520	-1.386576	0.224501
H47	H	0.180269	-1.296130	0.627518
H48	H	-0.419477	-1.386641	-0.224368
F49	F	0.255672	-0.853831	-0.149298
H50	H	0.134718	-0.889981	-0.246221
H51	H	0.208777	-1.654810	0.625478
F52	F	-0.326282	-1.628167	-0.255931
F53	F	0.130317	-1.120462	-0.277849
H54	H	0.239662	-1.085649	-0.146076
F55	F	-0.326487	-1.628100	0.256344
H56	H	-0.002512	-1.134043	0.101034
H57	H	-0.006580	-0.916281	0.101649
H58	H	0.237251	-0.869036	0.140536
F59	F	-0.017708	-0.905555	-0.130665
H60	H	-0.002764	-1.133201	-0.101092
H61	H	0.016683	-1.378403	0.629105
H62	H	0.139615	-0.886034	0.246368
F63	F	0.127721	-1.118134	0.277651
H64	H	0.207567	-1.655936	0.370366
H65	H	0.238743	-1.087450	0.149936
F66	F	0.176699	-1.266417	0.359142
F67	F	0.277207	-1.416838	0.642550
H68	H	0.096739	-1.711623	0.626986
F69	F	0.080787	-1.736098	0.360005
H70	H	0.021118	-1.372396	0.372960
F71	F	-0.033236	-1.562967	0.357561
F72	F	-0.030636	-1.572612	0.638806
