data_functionalizedCrystal
_audit_creation_method	'MofGen! by Chris Wilmer'
_symmetry_space_group_name_H-M	'P1'
_symmetry_Int_Tables_number	1
_symmetry_cell_setting	triclinic
loop_
_symmetry_equiv_pos_as_xyz
  x,y,z
_cell_length_a	6.817900
_cell_length_b	17.982723
_cell_length_c	17.078481
_cell_angle_alpha	96.488097
_cell_angle_beta	99.306161
_cell_angle_gamma	102.447564
loop_
_atom_site_label
_atom_site_type_symbol
_atom_site_fract_x
_atom_site_fract_y
_atom_site_fract_z
V1	V	-3.974462	-0.105235	-0.247698
V2	V	-3.474462	0.394765	0.252302
O3	O	-3.968303	0.005240	-0.242636
O4	O	-3.468303	0.505240	0.257364
O5	O	-3.921209	-0.208839	-0.246338
O6	O	-3.421209	0.291161	0.253662
O7	O	-3.905591	-0.103536	-0.355576
O8	O	-3.405591	0.396464	0.144424
O9	O	-3.984028	-0.100792	-0.132642
O10	O	-3.484028	0.399208	0.367358
V11	V	-4.461371	-0.092030	-0.233896
V12	V	-3.961371	0.407970	0.266104
O13	O	-4.228292	-0.134200	-0.277975
O14	O	-3.728292	0.365800	0.222025
O15	O	-4.657739	-0.063065	-0.203620
O16	O	-4.157739	0.436935	0.296380
O17	O	-4.291418	0.011574	-0.235256
O18	O	-3.791418	0.511574	0.264744
O19	O	-4.584928	-0.202505	-0.238958
O20	O	-4.084928	0.297495	0.261042
O21	O	-4.569202	-0.096473	-0.348952
O22	O	-4.069202	0.403527	0.151048
O23	O	-4.307036	-0.093729	-0.126019
O24	O	-3.807036	0.406271	0.373981
C25	C	-3.765691	-0.234098	-0.242517
C26	C	-3.265691	0.265902	0.257483
C27	C	-3.803301	-0.318796	-0.242124
C28	C	-3.303301	0.181204	0.257876
C29	C	-4.215401	-0.842560	-0.243636
C30	C	-3.715401	-0.342560	0.256364
C31	C	-4.180052	-0.762978	-0.244009
C32	C	-3.680052	-0.262978	0.255991
C33	C	-3.981209	-0.719313	-0.240225
C34	C	-3.481209	-0.219313	0.259775
C35	C	-3.817701	-0.755233	-0.236060
C36	C	-3.317701	-0.255233	0.263940
C37	C	-3.853049	-0.834812	-0.235682
C38	C	-3.353049	-0.334812	0.264318
C39	C	-3.675142	-0.434297	-0.237586
C40	C	-3.175142	0.065703	0.262414
C41	C	-3.639806	-0.354712	-0.237967
C42	C	-3.139806	0.145288	0.262033
C43	C	-4.002145	-0.362463	-0.245913
C44	C	-3.502145	0.137537	0.254087
C45	C	-4.037493	-0.442042	-0.245535
C46	C	-3.537493	0.057958	0.254465
C47	C	-3.873982	-0.477954	-0.241365
C48	C	-3.373982	0.022046	0.258635
C49	C	-3.912313	-0.564246	-0.240960
C50	C	-3.412313	-0.064246	0.259040
C51	C	-3.942879	-0.633024	-0.240637
C52	C	-3.442879	-0.133024	0.259363
C53	C	-3.745769	-0.099772	-0.381859
C54	C	-3.245769	0.400228	0.118141
C55	C	-3.770711	-0.099069	-0.470052
C56	C	-3.270711	0.400931	0.029948
C57	C	-3.963583	-0.102542	-0.515539
C58	C	-3.463583	0.397458	-0.015539
C59	C	-3.987006	-0.101880	-0.598405
C60	C	-3.487006	0.398120	-0.098405
C61	C	-3.817558	-0.097751	-0.635783
C62	C	-3.317558	0.402249	-0.135783
C63	C	-3.624670	-0.094276	-0.590290
C64	C	-3.124670	0.405724	-0.090290
C65	C	-3.601246	-0.094932	-0.507425
C66	C	-3.101246	0.405068	-0.007425
C67	C	-3.868185	-0.095376	-0.883179
C68	C	-3.368185	0.404624	-0.383179
C69	C	-3.891626	-0.094722	-0.966051
C70	C	-3.391626	0.405278	-0.466051
C71	C	-4.253961	-0.102325	-0.974160
C72	C	-3.753961	0.397675	-0.474160
C73	C	-4.230522	-0.102986	-0.891293
C74	C	-3.730522	0.397014	-0.391293
C75	C	-4.037635	-0.099506	-0.845806
C76	C	-3.537635	0.400494	-0.345806
N77	N	-3.841498	-0.097077	-0.720486
N78	N	-3.341498	0.402923	-0.220486
N79	N	-4.013695	-0.100175	-0.761104
N80	N	-3.513695	0.399825	-0.261104
C81	C	-4.110278	0.036829	-0.239076
C82	C	-3.610278	0.536829	0.260924
C83	C	-4.051906	0.121525	-0.239474
C84	C	-3.551906	0.621525	0.260526
C85	C	-4.130201	-0.097495	-0.099731
C86	C	-3.630201	0.402505	0.400269
C87	C	-4.084498	-0.098195	-0.011538
C88	C	-3.584498	0.401805	0.488462
H89	H	-4.199410	-0.477592	-0.248620
H90	H	-3.699410	0.022408	0.251380
H91	H	-4.135279	-0.333213	-0.249304
H92	H	-3.635279	0.166787	0.250696
C93	C	-4.359932	-0.723483	-0.248638
C94	C	-3.859932	-0.223483	0.251362
N95	N	-4.495432	-0.693739	-0.252141
N96	N	-3.995432	-0.193739	0.247859
C97	C	-3.389075	-0.091114	-0.457390
C98	C	-2.889075	0.408886	0.042610
N99	N	-3.229260	-0.088237	-0.419704
N100	N	-2.729260	0.411763	0.080296
C101	C	-3.705207	-0.090176	-1.007164
C102	C	-3.205207	0.409824	-0.507164
N103	N	-3.564804	-0.086752	-1.038131
N104	N	-3.064804	0.413248	-0.538131
H105	H	-3.477877	-0.319162	-0.234885
H106	H	-2.977877	0.180838	0.265115
H107	H	-3.655794	-0.719673	-0.232974
H108	H	-3.155794	-0.219673	0.267026
H109	H	-3.541992	-0.463525	-0.234181
H110	H	-3.041992	0.036475	0.265819
H111	H	-4.144057	-0.104703	-0.635436
H112	H	-3.644057	0.395297	-0.135436
H113	H	-3.711142	-0.092570	-0.846158
H114	H	-3.211142	0.407430	-0.346158
C115	C	-4.416927	-0.107518	-0.850182
C116	C	-3.916927	0.392482	-0.350182
N117	N	-4.557331	-0.110932	-0.819217
N118	N	-4.057331	0.389068	-0.319217
C119	C	-3.673190	-0.874318	-0.231105
C120	C	-3.173190	-0.374318	0.268895
N121	N	-3.537713	-0.904072	-0.227656
N122	N	-3.037713	-0.404072	0.272344
C123	C	-3.438236	-0.089653	-0.631396
C124	C	-2.938236	0.410347	-0.131396
N125	N	-3.297796	-0.086145	-0.662352
N126	N	-2.797796	0.413855	-0.162352
H127	H	-4.101573	-0.105909	-0.485112
H128	H	-3.601573	0.394091	0.014888
H129	H	-4.377320	-0.878107	-0.246722
H130	H	-3.877320	-0.378107	0.253278
H131	H	-4.411003	-0.105157	-1.011204
H132	H	-3.911003	0.394843	-0.511204
