data_functionalizedCrystal
_audit_creation_method	'MofGen! by Chris Wilmer'
_symmetry_space_group_name_H-M	'P1'
_symmetry_Int_Tables_number	1
_symmetry_cell_setting	triclinic
loop_
_symmetry_equiv_pos_as_xyz
  x,y,z
_cell_length_a	14.519731
_cell_length_b	10.654550
_cell_length_c	9.730223
_cell_angle_alpha	90.003749
_cell_angle_beta	89.997677
_cell_angle_gamma	95.913122
loop_
_atom_site_label
_atom_site_type_symbol
_atom_site_fract_x
_atom_site_fract_y
_atom_site_fract_z
O1	O	0.129527	-1.666602	-0.114406
O2	O	0.629527	-1.166602	0.385594
O3	O	0.141868	-1.301006	-0.114385
O4	O	0.641868	-0.801006	0.385615
O5	O	0.001510	-1.493483	-0.114384
O6	O	0.501510	-0.993483	0.385616
O7	O	0.269884	-1.474125	-0.114407
O8	O	0.769884	-0.974125	0.385593
O9	O	0.001514	-1.493481	0.114196
O10	O	0.501514	-0.993481	0.614196
O11	O	0.141871	-1.301004	0.114195
O12	O	0.641871	-0.801004	0.614195
O13	O	0.129531	-1.666600	0.114174
O14	O	0.629531	-1.166600	0.614174
Zn15	Zn	0.135702	-1.483802	0.150476
Zn16	Zn	0.635702	-0.983802	0.650476
Zn17	Zn	0.135697	-1.483804	-0.150687
Zn18	Zn	0.635697	-0.983804	0.349313
O19	O	0.269888	-1.474123	0.114173
O20	O	0.769888	-0.974123	0.614173
C21	C	0.140964	-1.254216	-0.000092
C22	C	0.640964	-0.754216	0.499908
C23	C	0.138253	-1.114798	-0.000083
C24	C	0.638253	-0.614798	0.499917
C25	C	-0.032852	-1.492575	-0.000093
C26	C	0.467148	-0.992575	0.499907
C27	C	-0.135246	-1.489857	-0.000092
C28	C	0.364754	-0.989857	0.499908
C29	C	0.130435	-1.713390	-0.000122
C30	C	0.630435	-1.213390	0.499878
C31	C	0.133146	-1.852808	-0.000140
C32	C	0.633146	-1.352808	0.499860
C33	C	-0.218402	-1.487649	-0.000095
C34	C	0.281598	-0.987649	0.499905
C35	C	-0.322725	-1.484889	-0.000106
C36	C	0.177275	-0.984889	0.499894
C37	C	-0.405875	-1.482699	-0.000114
C38	C	0.094125	-0.982699	0.499886
C39	C	-0.510205	-1.479939	-0.000122
C40	C	-0.010205	-0.979939	0.499878
C41	C	0.304250	-1.475031	-0.000121
C42	C	0.804250	-0.975031	0.499879
C43	C	0.406645	-1.477749	-0.000131
C44	C	0.906645	-0.977749	0.499869
N45	N	0.135704	-1.483809	0.356013
N46	N	0.635704	-0.983809	0.856013
C47	C	0.220893	-1.034527	-0.000110
C48	C	0.720893	-0.534527	0.499890
C49	C	0.218340	-0.903530	-0.000134
C50	C	0.718340	-0.403530	0.499866
C51	C	0.050499	-0.933090	-0.000108
C52	C	0.550499	-0.433090	0.499892
C53	C	0.053053	-1.064084	-0.000075
C54	C	0.553053	-0.564084	0.499925
C55	C	0.306092	-1.085241	-0.000118
C56	C	0.806092	-0.585241	0.499882
C57	C	0.388739	-1.004968	-0.000147
C58	C	0.888739	-0.504968	0.499853
C59	C	0.386186	-0.873971	-0.000171
C60	C	0.886186	-0.373971	0.499829
C61	C	0.300986	-0.823248	-0.000165
C62	C	0.800986	-0.323248	0.499835
N63	N	0.135687	-1.483807	-0.356224
N64	N	0.635687	-0.983807	0.143776
C65	C	0.073575	-1.569059	0.427939
C66	C	0.573575	-1.069059	0.927939
C67	C	0.073564	-1.569056	0.571822
C68	C	0.573564	-1.069056	1.071822
C69	C	0.197819	-1.398547	0.571840
C70	C	0.697819	-0.898547	1.071840
C71	C	0.197825	-1.398546	0.427959
C72	C	0.697825	-0.898546	0.927959
C73	C	0.011454	-1.654322	0.355993
C74	C	0.511454	-1.154322	0.855993
C75	C	-0.050679	-1.739581	0.427920
C76	C	0.449321	-1.239581	0.927920
C77	C	-0.050690	-1.739578	0.571803
C78	C	0.449310	-1.239578	1.071803
C79	C	0.011432	-1.654316	0.643759
C80	C	0.511432	-1.154316	1.143759
H81	H	0.308180	-1.191903	-0.000105
H82	H	0.808180	-0.691903	0.499895
F83	F	-0.116823	-1.830305	0.648350
F84	F	0.383177	-1.330305	1.148350
F85	F	0.011408	-1.654309	0.796894
F86	F	0.511408	-1.154309	1.296894
H87	H	-0.101262	-1.808992	0.369325
H88	H	0.398738	-1.308992	0.869325
H89	H	0.248397	-1.329132	0.630436
H90	H	0.748397	-0.829132	1.130436
H91	H	0.458106	-1.046276	-0.000140
H92	H	0.958106	-0.546276	0.499860
F93	F	0.474144	-0.788543	-0.000188
F94	F	0.974144	-0.288543	0.499812
H95	H	-0.018866	-0.891780	-0.000127
H96	H	0.481134	-0.391780	0.499873
F97	F	0.298274	-0.683827	-0.000172
F98	F	0.798274	-0.183827	0.499828
H99	H	0.248415	-1.329126	0.369396
H100	H	0.748415	-0.829126	0.869396
H101	H	-0.014240	-1.129444	-0.000056
H102	H	0.485760	-0.629444	0.499944
H103	H	0.011460	-1.654335	0.238836
H104	H	0.511460	-1.154335	0.738836
