data_functionalizedCrystal
_audit_creation_method	'MofGen! by Chris Wilmer'
_symmetry_space_group_name_H-M	'P1'
_symmetry_Int_Tables_number	1
_symmetry_cell_setting	triclinic
loop_
_symmetry_equiv_pos_as_xyz
  x,y,z
_cell_length_a	15.995292
_cell_length_b	15.995350
_cell_length_c	13.930277
_cell_angle_alpha	89.999456
_cell_angle_beta	90.005974
_cell_angle_gamma	83.480495
loop_
_atom_site_label
_atom_site_type_symbol
_atom_site_fract_x
_atom_site_fract_y
_atom_site_fract_z
O1	O	1.111017	0.107691	0.079852
O2	O	0.867235	0.121069	0.079848
O3	O	0.995790	-0.007509	0.079849
O4	O	0.982462	0.236269	0.079851
O5	O	0.995777	-0.007505	-0.079813
O6	O	0.867222	0.121073	-0.079814
O7	O	1.111004	0.107695	-0.079810
Zn8	Zn	0.989111	0.114384	-0.105162
Zn9	Zn	0.989128	0.114380	0.105200
O10	O	0.982449	0.236273	-0.079811
C11	C	0.836033	0.120527	0.000016
C12	C	0.743080	0.118894	0.000015
C13	C	0.995232	-0.038702	0.000020
C14	C	0.993580	-0.131652	0.000025
C15	C	0.405341	0.112893	0.000026
C16	C	0.428654	0.205697	0.000383
C17	C	0.525329	0.207461	0.000019
C18	C	0.572897	0.115871	0.000021
C19	C	0.543788	0.069475	-0.091151
C20	C	0.446998	0.068358	-0.091223
C21	C	0.447157	0.066459	0.090342
C22	C	0.543649	0.069898	0.091543
C23	C	0.667593	0.117549	0.000015
C24	C	0.310646	0.111212	0.000025
C25	C	0.987648	-0.469398	0.000022
C26	C	0.896094	-0.421945	0.000378
C27	C	0.897746	-0.325255	0.000019
C28	C	0.990591	-0.301838	0.000024
C29	C	1.035741	-0.342923	-0.091148
C30	C	1.033441	-0.439558	-0.091224
C31	C	1.035347	-0.439921	0.090341
C32	C	1.035325	-0.342975	0.091546
C33	C	0.992259	-0.207141	0.000022
C34	C	0.985983	-0.564095	0.000018
C35	C	1.142206	0.108237	0.000024
C36	C	1.235159	0.109870	0.000032
C37	C	0.983006	0.267466	0.000020
C38	C	0.984658	0.360416	0.000021
N39	N	0.989106	0.114387	-0.248728
C40	C	0.932174	0.171304	-0.298992
C41	C	1.046043	0.057467	-0.298969
C42	C	1.046052	0.057463	-0.399465
C43	C	0.989120	0.114380	-0.449729
C44	C	0.932179	0.171301	-0.399497
C45	C	1.102986	0.000538	-0.449704
C46	C	1.102996	0.000532	-0.550206
C47	C	1.046068	0.057454	-0.600472
C48	C	0.989125	0.114377	-0.550234
C49	C	0.932194	0.171294	-0.600498
C50	C	0.875255	0.228222	-0.550261
C51	C	0.875251	0.228223	-0.449762
C52	C	1.046071	0.057453	-0.700970
C53	C	0.932199	0.171291	-0.701003
N54	N	0.989140	0.114370	0.248766
H55	H	0.400663	0.241467	0.065766
H56	H	1.149359	-0.045821	-0.591102
H57	H	0.433164	-0.001851	0.090960
C58	C	0.812615	0.290825	-0.394502
H59	H	0.820759	0.282666	-0.327450
H60	H	0.821701	0.346714	-0.410964
H61	H	0.756736	0.281702	-0.410987
H62	H	1.092391	0.011122	-0.258041
H63	H	1.092427	0.011099	-0.741868
H64	H	1.000507	-0.457851	-0.159381
C65	C	0.846657	-0.446965	0.088699
H66	H	0.791579	-0.417640	0.087573
H67	H	0.843152	-0.505843	0.087492
H68	H	0.874739	-0.432833	0.145527
C69	C	0.570867	0.113001	-0.182817
H70	H	0.552965	0.084463	-0.237608
H71	H	0.545948	0.169808	-0.183635
H72	H	0.630398	0.111575	-0.183766
H73	H	0.544361	0.243792	0.065377
C74	C	0.993359	-0.304586	-0.182811
H75	H	0.948155	-0.263553	-0.165714
H76	H	1.033344	-0.278855	-0.219701
H77	H	0.972410	-0.347706	-0.219560
C78	C	0.586835	-0.021573	-0.095742
H79	H	0.568339	-0.048465	-0.151401
H80	H	0.646118	-0.021082	-0.098476
H81	H	0.572591	-0.051349	-0.040179
C82	C	0.568742	0.115523	0.182665
H83	H	0.550875	0.087417	0.237785
H84	H	0.628130	0.115368	0.184345
H85	H	0.542689	0.171934	0.182088
C86	C	0.869576	0.233900	-0.756290
H87	H	0.877734	0.225750	-0.823339
H88	H	0.813694	0.224795	-0.739827
H89	H	0.878678	0.289788	-0.739822
C90	C	0.389460	0.253755	-0.087453
H91	H	0.358953	0.217507	-0.124343
H92	H	0.352447	0.300867	-0.066493
H93	H	0.432809	0.272525	-0.125726
C94	C	0.409000	0.105732	0.183698
H95	H	0.367206	0.150820	0.168463
H96	H	0.384240	0.064269	0.219302
H97	H	0.452017	0.126357	0.220912
C98	C	1.127888	-0.323868	-0.095732
H99	H	1.154001	-0.349299	-0.151391
H100	H	1.129493	-0.264731	-0.098464
H101	H	1.157025	-0.345836	-0.040169
H102	H	0.862254	-0.296827	0.065374
H103	H	1.100659	-0.471820	-0.095357
H104	H	0.543728	0.244019	-0.065448
H105	H	0.862005	-0.297381	-0.065450
C106	C	0.846871	-0.448390	-0.087459
H107	H	0.881874	-0.488222	-0.124349
H108	H	0.798673	-0.472925	-0.066500
H109	H	0.829713	-0.400332	-0.125731
C110	C	0.994916	-0.467654	0.183694
H111	H	0.948561	-0.497472	0.168457
H112	H	1.035317	-0.503138	0.219298
H113	H	0.975904	-0.419452	0.220912
C114	C	0.990797	-0.306088	0.182666
H115	H	0.945136	-0.265780	0.165017
H116	H	0.970233	-0.349984	0.218465
H117	H	1.029553	-0.279721	0.220722
C118	C	1.126793	-0.322250	0.098990
H119	H	1.138953	-0.288090	0.046140
H120	H	1.133890	-0.292908	0.157182
H121	H	1.163973	-0.372974	0.098217
H122	H	1.102850	-0.471696	0.090958
H123	H	0.828897	0.274561	-0.591198
H124	H	0.420175	0.100493	-0.159378
C125	C	0.869544	0.233918	-0.243738
H126	H	0.877688	0.225769	-0.176685
H127	H	0.878635	0.289802	-0.260214
H128	H	0.813662	0.224798	-0.260219
H129	H	0.576620	0.003046	0.097051
C130	C	1.165586	-0.062082	-0.394415
H131	H	1.157428	-0.053924	-0.327367
H132	H	1.156476	-0.117961	-0.410889
H133	H	1.221478	-0.052986	-0.410865
H134	H	0.432447	0.000314	-0.095364
