data_functionalizedCrystal
_audit_creation_method	'MofGen! by Chris Wilmer'
_symmetry_space_group_name_H-M	'P1'
_symmetry_Int_Tables_number	1
_symmetry_cell_setting	triclinic
loop_
_symmetry_equiv_pos_as_xyz
  x,y,z
_cell_length_a	25.639243
_cell_length_b	25.639239
_cell_length_c	19.076919
_cell_angle_alpha	92.267829
_cell_angle_beta	92.278295
_cell_angle_gamma	90.042008
loop_
_atom_site_label
_atom_site_type_symbol
_atom_site_fract_x
_atom_site_fract_y
_atom_site_fract_z
Zn1	Zn	0.787360	-0.220002	-0.397983
Zn2	Zn	1.287360	0.279998	0.102017
Zn3	Zn	0.790791	-0.303924	-0.280284
Zn4	Zn	1.290791	0.196076	0.219716
Zn5	Zn	0.703444	-0.216509	-0.280297
Zn6	Zn	1.203444	0.283491	0.219703
Zn7	Zn	0.699882	-0.307411	-0.397933
Zn8	Zn	1.199882	0.192589	0.102067
O9	O	0.745369	-0.261962	-0.339124
O10	O	1.245369	0.238038	0.160876
O11	O	0.860980	-0.231137	-0.382385
O12	O	1.360980	0.268863	0.117615
O13	O	0.782131	-0.289406	-0.181797
O14	O	1.282131	0.210594	0.318203
O15	O	0.714631	-0.143808	-0.295935
O16	O	1.214631	0.356192	0.204065
O17	O	0.863501	-0.292794	-0.295912
O18	O	1.363501	0.207206	0.204088
O19	O	0.776283	-0.146375	-0.382399
O20	O	1.276283	0.353625	0.117601
O21	O	0.717958	-0.225183	-0.181807
O22	O	1.217958	0.274817	0.318193
O23	O	0.629807	-0.228565	-0.295887
O24	O	1.129807	0.271435	0.204113
O25	O	0.708560	-0.298738	-0.496429
O26	O	1.208560	0.201262	0.003571
O27	O	0.627190	-0.295350	-0.382313
O28	O	1.127190	0.204650	0.117687
O29	O	0.772829	-0.234519	-0.496465
O30	O	1.272829	0.265481	0.003535
O31	O	0.778677	-0.377551	-0.295864
O32	O	1.278677	0.122449	0.204136
O33	O	0.711886	-0.380113	-0.382300
O34	O	1.211886	0.119887	0.117700
C35	C	0.609528	-0.261957	-0.339097
C36	C	1.109528	0.238043	0.160903
C37	C	0.551413	-0.261968	-0.339101
C38	C	1.051413	0.238032	0.160899
C39	C	0.189729	-0.229912	-0.384226
C40	C	0.689729	0.270088	0.115774
C41	C	0.135125	-0.229911	-0.384231
C42	C	0.635125	0.270089	0.115769
O43	O	0.105766	-0.202645	-0.422563
O44	O	0.605766	0.297355	0.077437
N45	N	0.109130	-0.261961	-0.339144
N46	N	0.609130	0.238039	0.160856
C47	C	0.137742	-0.294008	-0.294045
C48	C	0.637742	0.205992	0.205955
O49	O	0.110617	-0.321268	-0.255695
O50	O	0.610617	0.178732	0.244305
C51	C	0.192346	-0.294006	-0.294037
C52	C	0.692346	0.205994	0.205963
C53	C	0.218338	-0.261958	-0.339132
C54	C	0.718338	0.238042	0.160868
C55	C	0.215722	-0.197866	-0.429317
C56	C	0.715722	0.302134	0.070683
C57	C	0.270322	-0.197868	-0.429313
C58	C	0.770322	0.302132	0.070687
C59	C	0.298931	-0.229914	-0.384219
C60	C	0.798931	0.270086	0.115781
C61	C	0.272938	-0.261959	-0.339128
C62	C	0.772938	0.238041	0.160872
C63	C	0.220957	-0.326050	-0.248935
C64	C	0.720957	0.173950	0.251065
C65	C	0.275564	-0.326044	-0.248931
C66	C	0.775564	0.173956	0.251069
C67	C	0.301556	-0.293997	-0.294026
C68	C	0.801556	0.206003	0.205974
C69	C	0.356147	-0.294007	-0.294031
C70	C	0.856147	0.205993	0.205969
N71	N	0.382143	-0.261958	-0.339117
N72	N	0.882143	0.238042	0.160883
C73	C	0.353534	-0.229911	-0.384212
C74	C	0.853534	0.270089	0.115788
C75	C	0.023071	-0.294011	-0.294063
C76	C	0.523071	0.205989	0.205937
C77	C	-0.031532	-0.294017	-0.294073
C78	C	0.468468	0.205983	0.205927
C79	C	-0.034145	-0.229919	-0.384258
C80	C	0.465855	0.270081	0.115742
C81	C	0.020458	-0.229916	-0.384251
C82	C	0.520458	0.270084	0.115749
C83	C	0.049066	-0.261962	-0.339150
C84	C	0.549066	0.238038	0.160850
C85	C	0.468200	-0.229916	-0.384201
C86	C	0.968200	0.270084	0.115799
C87	C	0.522805	-0.229922	-0.384195
C88	C	1.022805	0.270078	0.115805
C89	C	0.525414	-0.294018	-0.294008
C90	C	1.025414	0.205982	0.205992
C91	C	0.470813	-0.294014	-0.294016
C92	C	0.970813	0.205986	0.205984
C93	C	0.442207	-0.261959	-0.339115
C94	C	0.942207	0.238041	0.160885
O95	O	0.385540	-0.321258	-0.255716
O96	O	0.885540	0.178742	0.244284
O97	O	0.380666	-0.202651	-0.422548
O98	O	0.880666	0.297349	0.077452
C99	C	0.745281	-0.397803	-0.339090
C100	C	1.245281	0.102197	0.160910
C101	C	0.745290	-0.455917	-0.339099
C102	C	1.245290	0.044083	0.160901
C103	C	0.710586	-0.708458	-0.384118
C104	C	1.210586	-0.208458	0.115882
C105	C	0.710567	-0.653853	-0.384109
C106	C	1.210567	-0.153853	0.115891
O107	O	0.680974	-0.626761	-0.422362
O108	O	1.180974	-0.126761	0.077638
N109	N	0.745355	-0.625192	-0.339136
N110	N	1.245355	-0.125192	0.160864
C111	C	0.780169	-0.651139	-0.294173
C112	C	1.280169	-0.151139	0.205827
O113	O	0.809757	-0.621747	-0.255920
O114	O	1.309757	-0.121747	0.244080
C115	C	0.780190	-0.705743	-0.294186
C116	C	1.280190	-0.205743	0.205814
C117	C	0.745395	-0.734401	-0.339157
C118	C	1.245395	-0.234401	0.160843
C119	C	0.675795	-0.737116	-0.429086
C120	C	1.175795	-0.237116	0.070914
C121	C	0.675813	-0.791716	-0.429093
C122	C	1.175813	-0.291716	0.070907
C123	C	0.710623	-0.817659	-0.384132
C124	C	1.210623	-0.317659	0.115868
C125	C	0.745414	-0.789001	-0.339164
C126	C	1.245414	-0.289001	0.160836
C127	C	0.815005	-0.731688	-0.249227
C128	C	1.315005	-0.231688	0.250773
C129	C	0.815024	-0.786296	-0.249243
C130	C	1.315024	-0.286296	0.250757
C131	C	0.780230	-0.814954	-0.294214
C132	C	1.280230	-0.314954	0.205786
C133	C	0.780242	-0.869545	-0.294210
C134	C	1.280242	-0.369545	0.205790
N135	N	0.745454	-0.898206	-0.339183
N136	N	1.245454	-0.398206	0.160817
C137	C	0.710644	-0.872263	-0.384144
C138	C	1.210644	-0.372263	0.115856
C139	C	0.780122	-0.536468	-0.294152
C140	C	1.280122	-0.036468	0.205848
C141	C	0.780098	-0.481865	-0.294136
C142	C	1.280098	0.018135	0.205864
C143	C	0.710497	-0.484583	-0.384073
C144	C	1.210497	0.015417	0.115927
C145	C	0.710518	-0.539187	-0.384085
C146	C	1.210518	-0.039187	0.115915
C147	C	0.745333	-0.565129	-0.339125
C148	C	1.245333	-0.065129	0.160875
C149	C	0.710686	-0.986928	-0.384155
C150	C	1.210686	-0.486928	0.115845
C151	C	0.710706	-1.041534	-0.384156
C152	C	1.210706	-0.541534	0.115844
C153	C	0.780309	-1.038811	-0.294222
C154	C	1.280309	-0.538811	0.205778
C155	C	0.780287	-0.984210	-0.294218
C156	C	1.280287	-0.484210	0.205782
C157	C	0.745473	-0.958270	-0.339190
C158	C	1.245473	-0.458270	0.160810
O159	O	0.809821	-0.896672	-0.255979
O160	O	1.309821	-0.396672	0.244021
O161	O	0.681065	-0.901662	-0.422398
O162	O	1.181065	-0.401662	0.077602
C163	C	0.881742	-0.261966	-0.339153
C164	C	1.381742	0.238034	0.160847
C165	C	0.939855	-0.261968	-0.339165
C166	C	1.439855	0.238032	0.160835
C167	C	0.739914	-0.267407	-0.522698
C168	C	1.239914	0.232593	-0.022698
C169	C	0.737590	-0.269728	-0.600926
C170	C	1.237590	0.230272	-0.100926
C171	C	0.745472	-0.125590	-0.339174
C172	C	1.245472	0.374410	0.160826
C173	C	0.745516	-0.067477	-0.339195
C174	C	1.245516	0.432523	0.160805
C175	C	0.769958	-0.237384	-0.637698
C176	C	1.269958	0.262616	-0.137698
C177	C	0.767767	-0.239563	-0.711202
C178	C	1.267767	0.260437	-0.211202
C179	C	0.733211	-0.274088	-0.747932
C180	C	1.233211	0.225912	-0.247932
C181	C	0.700840	-0.306433	-0.711155
C182	C	1.200840	0.193567	-0.211155
C183	C	0.703028	-0.304251	-0.637653
C184	C	1.203028	0.195749	-0.137653
C185	C	0.723076	-0.284195	-0.967758
C186	C	1.223076	0.215805	-0.467758
C187	C	0.720891	-0.286375	-1.041266
C188	C	1.220891	0.213625	-0.541266
C189	C	0.787819	-0.219504	-1.041307
C190	C	1.287819	0.280496	-0.541307
C191	C	0.790006	-0.217328	-0.967804
C192	C	1.290006	0.282672	-0.467804
C193	C	0.757633	-0.249671	-0.931033
C194	C	1.257633	0.250329	-0.431033
N195	N	0.730972	-0.276317	-0.823064
N196	N	1.230972	0.223683	-0.323064
N197	N	0.759869	-0.247439	-0.855902
N198	N	1.259869	0.252561	-0.355902
C199	C	0.750833	-0.256499	-0.156265
C200	C	1.250833	0.243501	0.343735
C201	C	0.753259	-0.254031	-0.078037
C202	C	1.253259	0.245969	0.421963
H203	H	0.291480	-0.171770	-0.466033
H204	H	0.791480	0.328230	0.033967
O205	O	0.799189	-0.208068	-0.746839
O206	O	1.299189	0.291932	-0.246839
C207	C	0.788329	-0.155426	-0.728899
C208	C	1.288329	0.344574	-0.228899
H209	H	0.769817	-0.152763	-0.675527
H210	H	1.269817	0.347237	-0.175527
H211	H	0.826156	-0.131911	-0.726396
H212	H	1.326156	0.368089	-0.226396
H213	H	0.760233	-0.139037	-0.770264
H214	H	1.260233	0.360963	-0.270264
H215	H	0.798099	-0.209272	-0.607798
H216	H	1.298099	0.290728	-0.107798
H217	H	0.676665	-0.330584	-0.607714
H218	H	1.176665	0.169416	-0.107714
O219	O	0.548074	-0.198866	-0.428076
O220	O	1.048074	0.301134	0.071924
C221	C	0.578305	-0.230029	-0.473449
C222	C	1.078305	0.269971	0.026551
H223	H	0.561695	-0.271340	-0.477697
H224	H	1.061695	0.228660	0.022303
H225	H	0.577333	-0.212789	-0.527659
H226	H	1.077333	0.287211	-0.027659
H227	H	0.620331	-0.231158	-0.451685
H228	H	1.120331	0.268842	0.048315
O229	O	0.440496	-0.198767	-0.428079
O230	O	0.940496	0.301233	0.071921
C231	C	0.475156	-0.170479	-0.467860
C232	C	0.975156	0.329521	0.032140
H233	H	0.513991	-0.191971	-0.470230
H234	H	1.013991	0.308029	0.029770
H235	H	0.457751	-0.166613	-0.523331
H236	H	0.957751	0.333387	-0.023331
H237	H	0.481752	-0.129977	-0.442188
H238	H	0.981752	0.370023	0.057812
H239	H	0.192434	-0.171768	-0.466038
H240	H	0.692434	0.328232	0.033962
H241	H	0.818147	-0.189215	-0.937903
H242	H	1.318147	0.310785	-0.437903
O243	O	0.848859	-0.703939	-0.205524
O244	O	1.348859	-0.203939	0.294476
C245	C	0.879577	-0.738556	-0.165842
C246	C	1.379577	-0.238556	0.334158
H247	H	0.880515	-0.778323	-0.194685
H248	H	1.380515	-0.278323	0.305315
H249	H	0.920996	-0.722525	-0.158394
H250	H	1.420996	-0.222525	0.341606
H251	H	0.862061	-0.742814	-0.112361
H252	H	1.362061	-0.242814	0.387639
H253	H	0.548716	-0.320110	-0.257295
H254	H	1.048716	0.179890	0.242705
O255	O	0.195800	-0.357193	-0.205059
O256	O	0.695800	0.142807	0.294941
C257	C	0.232769	-0.385478	-0.165271
C258	C	0.732769	0.114522	0.334729
H259	H	0.271776	-0.363985	-0.162898
H260	H	0.771776	0.136015	0.337102
H261	H	0.218637	-0.389341	-0.109801
H262	H	0.718637	0.110659	0.390199
H263	H	0.237790	-0.425981	-0.190938
H264	H	0.737790	0.074019	0.309062
O265	O	0.814092	-1.064100	-0.250599
O266	O	1.314092	-0.564100	0.249401
C267	C	0.806629	-1.118438	-0.260236
C268	C	1.306629	-0.618438	0.239764
H269	H	0.787874	-1.127507	-0.314537
H270	H	1.287874	-0.627507	0.185463
H271	H	0.845937	-1.139018	-0.255497
H272	H	1.345937	-0.639018	0.244503
H273	H	0.780043	-1.132728	-0.218467
H274	H	1.280043	-0.632728	0.281533
H275	H	-0.057448	-0.203824	-0.420975
H276	H	0.442552	0.296176	0.079025
H277	H	0.449649	-0.320116	-0.257304
H278	H	0.949649	0.179884	0.242696
H279	H	0.041618	-0.203819	-0.420970
H280	H	0.541618	0.296181	0.079030
H281	H	0.814174	-0.193172	-1.071254
H282	H	1.314174	0.306828	-0.571254
H283	H	0.808472	-0.557586	-0.257534
H284	H	1.308472	-0.057586	0.242466
O285	O	0.848775	-0.811554	-0.205539
O286	O	1.348775	-0.311554	0.294461
C287	C	0.820406	-0.841828	-0.160031
C288	C	1.320406	-0.341828	0.339969
H289	H	0.780032	-0.850779	-0.184793
H290	H	1.280032	-0.350779	0.315207
H291	H	0.842003	-0.879926	-0.150642
H292	H	1.342003	-0.379926	0.349358
H293	H	0.816242	-0.819261	-0.107860
H294	H	1.316242	-0.319261	0.392140
H295	H	0.672701	-0.334542	-0.741067
H296	H	1.172701	0.165458	-0.241067
H297	H	-0.052690	-0.320119	-0.257360
H298	H	0.447310	0.179881	0.242640
H299	H	0.692750	-0.314491	-1.071169
H300	H	1.192750	0.185509	-0.571169
O301	O	0.691603	-0.315658	-0.932154
O302	O	1.191603	0.184342	-0.432154
C303	C	0.660623	-0.346584	-0.980337
C304	C	1.160623	0.153416	-0.480337
H305	H	0.680485	-0.349961	-1.032732
H306	H	1.180485	0.150039	-0.532732
H307	H	0.655630	-0.387144	-0.959078
H308	H	1.155630	0.112856	-0.459078
H309	H	0.620703	-0.327657	-0.988164
H310	H	1.120703	0.172343	-0.488164
O311	O	0.303378	-0.357099	-0.205045
O312	O	0.803378	0.142901	0.294955
C313	C	0.336336	-0.325936	-0.159669
C314	C	0.836336	0.174064	0.340331
H315	H	0.320040	-0.284625	-0.155426
H316	H	0.820040	0.215375	0.344574
H317	H	0.338540	-0.343175	-0.105459
H318	H	0.838540	0.156825	0.394541
H319	H	0.377078	-0.324810	-0.181428
H320	H	0.877078	0.175190	0.318572
O321	O	0.050778	-0.325197	-0.250234
O322	O	0.550778	0.174803	0.249766
C323	C	0.016120	-0.353473	-0.210434
C324	C	0.516120	0.146527	0.289566
H325	H	-0.023654	-0.356166	-0.239266
H326	H	0.476346	0.143834	0.260734
H327	H	0.032087	-0.394435	-0.202826
H328	H	0.532087	0.105565	0.297174
H329	H	0.011903	-0.332683	-0.157027
H330	H	0.511903	0.167317	0.342973
H331	H	0.808615	-0.960876	-0.257591
H332	H	1.308615	-0.460876	0.242409
O333	O	0.676757	-0.459356	-0.427829
O334	O	1.176757	0.040644	0.072171
C335	C	0.705140	-0.429065	-0.473302
C336	C	1.205140	0.070935	0.026698
H337	H	0.746190	-0.445608	-0.477703
H338	H	1.246190	0.054392	0.022297
H339	H	0.684591	-0.430051	-0.527443
H340	H	1.184591	0.069949	-0.027443
H341	H	0.707589	-0.387042	-0.451532
H342	H	1.207589	0.112958	0.048468
O343	O	0.676887	-1.069293	-0.427911
O344	O	1.176887	-0.569293	0.072089
C345	C	0.646153	-1.034681	-0.467581
C346	C	1.146153	-0.534681	0.032419
H347	H	0.667483	-0.995808	-0.470037
H348	H	1.167483	-0.495808	0.029963
H349	H	0.638901	-1.052091	-0.523030
H350	H	1.138901	-0.552091	-0.023030
H351	H	0.607225	-1.028157	-0.441756
H352	H	1.107225	-0.528157	0.058244
H353	H	0.682338	-0.965814	-0.420777
H354	H	1.182338	-0.465814	0.079223
H355	H	0.647448	-0.715998	-0.465702
H356	H	1.147448	-0.215998	0.034298
O357	O	0.642070	-0.819529	-0.472886
O358	O	1.142070	-0.319529	0.027114
C359	C	0.651363	-0.808215	-0.543038
C360	C	1.151363	-0.308215	-0.043038
H361	H	0.693019	-0.793269	-0.546634
H362	H	1.193019	-0.293269	-0.046634
H363	H	0.645816	-0.845145	-0.577820
H364	H	1.145816	-0.345145	-0.077820
H365	H	0.622768	-0.777084	-0.561388
H366	H	1.122768	-0.277084	-0.061388
O367	O	0.676704	-0.566944	-0.427840
O368	O	1.176704	-0.066944	0.072160
C369	C	0.645968	-0.532330	-0.467503
C370	C	1.145968	-0.032330	0.032497
H371	H	0.667296	-0.493455	-0.469952
H372	H	1.167296	0.006545	0.030048
H373	H	0.638716	-0.549735	-0.522955
H374	H	1.138716	-0.049735	-0.022955
H375	H	0.607040	-0.525810	-0.441677
H376	H	1.107040	-0.025810	0.058323
O377	O	0.813943	-0.454110	-0.250422
O378	O	1.313943	0.045890	0.249578
C379	C	0.844659	-0.488723	-0.210730
C380	C	1.344659	0.011277	0.289270
H381	H	0.845605	-0.528490	-0.239570
H382	H	1.345605	-0.028490	0.260430
H383	H	0.886075	-0.472687	-0.203270
H384	H	1.386075	0.027313	0.296730
H385	H	0.827134	-0.492982	-0.157254
H386	H	1.327134	0.007018	0.342746
