data_functionalizedCrystal
_audit_creation_method	'MofGen! by Chris Wilmer'
_symmetry_space_group_name_H-M	'P1'
_symmetry_Int_Tables_number	1
_symmetry_cell_setting	triclinic
loop_
_symmetry_equiv_pos_as_xyz
  x,y,z
_cell_length_a	21.295120
_cell_length_b	16.625548
_cell_length_c	16.625545
_cell_angle_alpha	89.971982
_cell_angle_beta	89.645918
_cell_angle_gamma	90.067019
loop_
_atom_site_label
_atom_site_type_symbol
_atom_site_fract_x
_atom_site_fract_y
_atom_site_fract_z
Zn1	Zn	0.355956	1.233026	0.318364
Zn2	Zn	0.250692	1.232809	0.453980
Zn3	Zn	0.250697	1.098078	0.319168
Zn4	Zn	0.355927	1.098148	0.453162
O5	O	0.303318	1.165515	0.386169
O6	O	0.342002	1.345830	0.336361
O7	O	0.162600	1.214817	0.436776
O8	O	0.264675	1.116041	0.206229
O9	O	0.264665	1.345670	0.435997
O10	O	0.342008	1.215187	0.205639
O11	O	0.162604	1.115831	0.337730
O12	O	0.264647	0.985255	0.336936
O13	O	0.444023	1.116160	0.434602
O14	O	0.341958	0.985306	0.435381
O15	O	0.444044	1.215254	0.335567
O16	O	0.264637	1.214884	0.566704
O17	O	0.341953	1.115949	0.566103
C18	C	0.303300	0.956025	0.386157
C19	C	0.303308	0.866403	0.386172
C20	C	0.303335	0.538228	0.386177
C21	C	0.303325	0.629536	0.386173
C22	C	0.303321	0.702313	0.386175
C23	C	0.303312	0.793627	0.386170
C24	C	0.139761	1.165339	0.387371
C25	C	0.069791	1.165400	0.387683
C26	C	0.037446	1.216637	0.335539
C27	C	-0.028295	1.216696	0.335131
C28	C	-0.061688	1.165504	0.386860
C29	C	-0.029335	1.114265	0.439014
C30	C	0.036405	1.114212	0.439425
N31	N	-0.165061	1.095050	0.392907
N32	N	-0.227510	1.095102	0.392511
C33	C	-0.259757	1.165660	0.385624
N34	N	-0.227194	1.236165	0.379132
N35	N	-0.164739	1.236112	0.379524
C36	C	-0.132971	1.165556	0.386420
C37	C	-0.363386	1.216964	0.333036
C38	C	-0.429127	1.217025	0.332634
C39	C	-0.430166	1.114587	0.436512
C40	C	-0.364425	1.114533	0.436918
C41	C	-0.331039	1.165721	0.385176
C42	C	0.467514	1.165739	0.384903
C43	C	0.537484	1.165834	0.384364
C44	C	0.303305	1.165423	0.595659
C45	C	0.303320	1.165457	0.685280
C46	C	0.303336	1.375824	0.386181
C47	C	0.303344	1.465445	0.386186
C48	C	0.303335	1.165486	0.758063
C49	C	0.303352	1.165531	0.849371
C50	C	0.303362	1.165571	0.922147
C51	C	0.303378	1.165615	1.013462
C52	C	0.303353	1.165624	1.175859
C53	C	0.303388	1.165655	1.086238
H54	H	0.064625	1.258321	0.293409
H55	H	-0.054636	1.258418	0.292667
H56	H	-0.056527	1.072585	0.481133
N57	N	0.071296	1.058949	0.495669
H58	H	0.040169	1.026529	0.528381
H59	H	0.098799	1.021391	0.463288
H60	H	-0.336201	1.258644	0.290903
N61	N	-0.464018	1.272296	0.276397
H62	H	-0.432890	1.304712	0.243682
H63	H	-0.491022	1.239246	0.239154
H64	H	-0.457354	1.072909	0.478634
N65	N	-0.329533	1.059268	0.493157
H66	H	-0.360661	1.026846	0.525865
H67	H	-0.302029	1.021712	0.460776
