data_functionalizedCrystal
_audit_creation_method	'MofGen! by Chris Wilmer'
_symmetry_space_group_name_H-M	'P1'
_symmetry_Int_Tables_number	1
_symmetry_cell_setting	triclinic
loop_
_symmetry_equiv_pos_as_xyz
  x,y,z
_cell_length_a	11.792241
_cell_length_b	13.339070
_cell_length_c	12.376457
_cell_angle_alpha	104.410245
_cell_angle_beta	101.354533
_cell_angle_gamma	80.088645
loop_
_atom_site_label
_atom_site_type_symbol
_atom_site_fract_x
_atom_site_fract_y
_atom_site_fract_z
O1	O	0.554298	-1.364732	-0.094048
O2	O	0.479486	-1.069793	-0.094041
O3	O	0.353927	-1.224419	-0.094037
O4	O	0.679857	-1.210107	-0.094053
O5	O	0.385262	-1.185776	0.093974
O6	O	0.510821	-1.031151	0.093970
O7	O	0.585633	-1.326090	0.093963
Zn8	Zn	0.553202	-1.172485	0.123817
Zn9	Zn	0.511917	-1.223398	-0.123896
O10	O	0.711191	-1.171464	0.093958
C11	C	0.327027	-1.204198	-0.000032
C12	C	0.200184	-1.201507	-0.000033
C13	C	0.482516	-1.012713	-0.000035
C14	C	0.444848	-0.900204	-0.000032
C15	C	0.582602	-1.383170	-0.000046
C16	C	0.620269	-1.495681	-0.000057
C17	C	-0.032056	-1.196562	-0.000052
C18	C	0.097178	-1.199310	-0.000042
C19	C	0.738092	-1.191685	-0.000049
C20	C	0.864933	-1.194378	-0.000056
N21	N	0.581379	-1.137745	0.292874
C22	C	0.737736	-0.537024	-0.000064
C23	C	0.773131	-0.642733	-0.000070
C24	C	0.691063	-0.707105	-0.000060
C25	C	0.573595	-0.665760	-0.000045
C26	C	0.538195	-0.560044	-0.000047
C27	C	0.491522	-0.730125	-0.000044
C28	C	0.374054	-0.688780	-0.000028
C29	C	0.338661	-0.583073	-0.000030
C30	C	0.420728	-0.518700	-0.000040
C31	C	0.526922	-0.835841	-0.000041
C32	C	0.327381	-0.858861	-0.000025
C33	C	0.291986	-0.753152	-0.000018
N34	N	0.483733	-1.258146	-0.292953
C35	C	0.418302	-1.338788	0.647865
C36	C	0.398579	-1.363097	0.529526
C37	C	0.444277	-1.306760	0.470357
C38	C	0.509702	-1.226112	0.529539
C39	C	0.529435	-1.201806	0.647890
C40	C	0.555410	-1.169779	0.470382
C41	C	0.620835	-1.089130	0.529564
C42	C	0.640564	-1.064828	0.647903
C43	C	0.594866	-1.121164	0.707072
C44	C	0.535677	-1.194085	0.352031
C45	C	0.646810	-1.057103	0.352056
C46	C	0.666533	-1.032794	0.470396
H47	H	0.719888	-0.793178	-0.000068
O48	O	0.704288	-0.986622	0.705447
C49	C	0.802950	-1.027210	0.773906
H50	H	0.824144	-1.114461	0.738220
H51	H	0.783995	-1.013912	0.863597
C52	C	0.881667	-0.864483	0.819564
C53	C	0.907704	-0.971645	0.775729
H54	H	0.946283	-0.830205	0.820694
H55	H	0.815194	-0.837136	0.773446
H56	H	0.865869	-0.853416	0.894303
H57	H	0.923486	-0.982711	0.700987
H58	H	0.974182	-0.998992	0.821835
O59	O	0.641013	-0.876088	0.000096
C60	C	0.683705	-0.916507	0.097482
H61	H	0.607800	-0.935666	0.129957
H62	H	0.730664	-0.856069	0.165659
C63	C	0.862664	-0.992888	0.028009
C64	C	0.769438	-1.016428	0.067890
H65	H	0.915553	-1.054521	0.009758
H66	H	0.833905	-0.965654	-0.037600
H67	H	0.901784	-0.942521	0.084830
H68	H	0.730311	-1.066784	0.011064
H69	H	0.798193	-1.043673	0.133489
H70	H	0.381108	-1.384655	0.696048
H71	H	0.345312	-1.428760	0.481344
H72	H	0.719805	-0.967129	0.518596
H73	H	0.804541	-0.484605	-0.000082
H74	H	0.684024	-1.011231	0.303882
H75	H	0.243008	-0.549416	-0.000030
O76	O	0.177860	-0.712978	-0.000212
C77	C	0.135199	-0.672510	-0.097570
H78	H	0.191136	-0.711830	-0.165632
H79	H	0.138855	-0.584777	-0.075558
C80	C	-0.060606	-0.645412	-0.058119
C81	C	0.008092	-0.693712	-0.141717
H82	H	-0.139013	-0.658485	-0.085349
H83	H	-0.031864	-0.672672	0.007476
H84	H	-0.057546	-0.572305	-0.039783
H85	H	0.005043	-0.766819	-0.160042
H86	H	-0.020653	-0.666465	-0.207316
H87	H	0.391916	-0.432622	-0.000035
H88	H	0.868772	-0.676390	-0.000091
H89	H	0.260553	-0.911274	-0.000021
H90	H	0.482408	-1.259749	0.303856
O91	O	0.424960	-1.330471	0.355403
C92	C	0.357439	-1.413749	0.315855
H93	H	0.306666	-1.417056	0.384057
H94	H	0.417245	-1.490292	0.294832
C95	C	0.333839	-1.392788	0.125155
C96	C	0.271471	-1.396845	0.208919
H97	H	0.280814	-1.382365	0.059189
H98	H	0.379333	-1.336685	0.151798
H99	H	0.383675	-1.456576	0.107649
H100	H	0.221649	-1.333053	0.226433
H101	H	0.225967	-1.452937	0.182276
H102	H	0.610920	-1.101370	0.803434
