data_functionalizedCrystal
_audit_creation_method	'MofGen! by Chris Wilmer'
_symmetry_space_group_name_H-M	'P1'
_symmetry_Int_Tables_number	1
_symmetry_cell_setting	triclinic
loop_
_symmetry_equiv_pos_as_xyz
  x,y,z
_cell_length_a	12.759401
_cell_length_b	18.101395
_cell_length_c	12.759393
_cell_angle_alpha	90.032461
_cell_angle_beta	90.017068
_cell_angle_gamma	90.031265
loop_
_atom_site_label
_atom_site_type_symbol
_atom_site_fract_x
_atom_site_fract_y
_atom_site_fract_z
Zn1	Zn	1.606121	-0.294790	0.593968
Zn2	Zn	1.605969	-0.418649	0.418282
Zn3	Zn	1.430427	-0.294827	0.418307
Zn4	Zn	1.430361	-0.418595	0.593923
O5	O	1.518220	-0.356715	0.506120
O6	O	1.753122	-0.311228	0.570671
O7	O	1.582647	-0.402262	0.271264
O8	O	1.453824	-0.191189	0.441638
O9	O	1.753010	-0.402227	0.441595
O10	O	1.582906	-0.191162	0.570695
O11	O	1.453677	-0.311290	0.271283
O12	O	1.283397	-0.311237	0.441595
O13	O	1.453712	-0.402133	0.740950
O14	O	1.283349	-0.402169	0.570619
O15	O	1.582842	-0.311175	0.740983
O16	O	1.582583	-0.522275	0.441552
O17	O	1.453565	-0.522235	0.570595
C18	C	1.245252	-0.356701	0.506106
C19	C	1.128476	-0.356713	0.506125
C20	C	1.073616	-0.404137	0.573197
C21	C	0.963892	-0.404147	0.573208
C22	C	0.963897	-0.309306	0.439066
C23	C	1.073619	-0.309294	0.439061
C24	C	1.073612	-0.458895	0.650639
C25	C	0.963888	-0.458905	0.650650
C26	C	1.518079	-0.549126	0.506089
C27	C	1.518115	-0.631440	0.506111
C28	C	1.518346	-0.930531	0.506168
C29	C	1.437359	-0.899211	0.587559
C30	C	1.436974	-0.813593	0.587305
C31	C	1.518231	-0.782148	0.506140
C32	C	1.488253	-0.813307	0.395415
C33	C	1.487731	-0.898952	0.395903
C34	C	1.629487	-0.898872	0.534526
C35	C	1.628834	-0.813221	0.536954
C36	C	1.518168	-0.698289	0.506118
C37	C	1.518406	-1.014390	0.506182
C38	C	1.792253	-0.356729	0.506135
C39	C	1.909029	-0.356735	0.506141
C40	C	1.518286	-0.356644	0.780153
C41	C	1.518315	-0.356613	0.896930
C42	C	1.518389	-0.163553	0.506174
C43	C	1.518462	-0.081239	0.506197
C44	C	1.518214	-0.356733	0.233153
C45	C	1.518389	-0.356555	0.116376
C46	C	1.585519	-0.403931	1.061504
C47	C	1.585480	-0.403963	0.951779
C48	C	1.451177	-0.309234	0.951811
C49	C	1.451211	-0.309207	1.061533
C50	C	1.663062	-0.458620	1.061484
C51	C	1.663023	-0.458652	0.951760
H52	H	1.455929	-0.919753	0.669927
N53	N	1.760065	-0.432859	1.104196
N54	N	1.813214	-0.474072	1.162063
H55	H	1.881723	-0.455877	1.192230
N56	N	1.382653	-0.260812	1.117601
N57	N	1.382698	-0.260789	1.215566
H58	H	1.334279	-0.226607	1.255167
N59	N	1.708551	-0.786382	0.468011
N60	N	1.801728	-0.805590	0.481055
H61	H	1.858029	-0.786636	0.432357
N62	N	1.116264	-0.527200	0.613886
N63	N	1.095658	-0.549373	0.523398
H64	H	1.125782	-0.597613	0.497436
H65	H	1.396483	-0.270686	0.907144
N66	N	0.907876	-0.260874	0.370548
N67	N	0.956875	-0.218536	0.310664
H68	H	0.917314	-0.184330	0.262270
H69	H	1.744395	-0.443296	0.921984
N70	N	0.921218	-0.433218	0.747672
N71	N	0.824118	-0.430007	0.759796
H72	H	0.793979	-0.411858	0.828311
N73	N	1.333635	-0.787945	0.563771
N74	N	1.318187	-0.748530	0.484862
H75	H	1.245199	-0.730408	0.468258
H76	H	1.355479	-0.920799	0.569012
N77	N	1.626384	-0.527013	0.909057
N78	N	1.598981	-0.578182	0.968831
H79	H	1.573102	-0.626461	0.938672
H80	H	1.641231	-0.515969	1.091243
N81	N	0.926454	-0.530832	0.623136
N82	N	0.870137	-0.566102	0.685739
H83	H	0.843698	-0.616899	0.666308
H84	H	1.118282	-0.270672	0.384452
N85	N	1.385811	-0.924091	0.365758
N86	N	1.315560	-0.878384	0.344509
H87	H	1.243575	-0.896134	0.323219
H88	H	1.455730	-0.792524	0.669407
N89	N	1.111004	-0.439712	0.752766
N90	N	1.047369	-0.426201	0.824723
H91	H	1.073776	-0.412653	0.896850
N92	N	1.705171	-0.924279	0.460150
N93	N	1.677519	-0.965520	0.386548
H94	H	1.730962	-0.983466	0.334014
H95	H	1.544160	-0.919673	0.333192
N96	N	1.559931	-0.787758	0.317272
N97	N	1.634084	-0.746200	0.342375
H98	H	1.684709	-0.728155	0.287188
H99	H	1.407870	-0.791924	0.370962
H100	H	1.651440	-0.792853	0.618442
N101	N	1.663767	-0.925905	0.634085
N102	N	1.606692	-0.968839	0.685352
H103	H	1.630892	-0.987933	0.755668
