data_functionalizedCrystal
_audit_creation_method	'MofGen! by Chris Wilmer'
_symmetry_space_group_name_H-M	'P1'
_symmetry_Int_Tables_number	1
_symmetry_cell_setting	triclinic
loop_
_symmetry_equiv_pos_as_xyz
  x,y,z
_cell_length_a	16.120484
_cell_length_b	16.120530
_cell_length_c	13.032268
_cell_angle_alpha	94.642656
_cell_angle_beta	99.642751
_cell_angle_gamma	90.167327
loop_
_atom_site_label
_atom_site_type_symbol
_atom_site_fract_x
_atom_site_fract_y
_atom_site_fract_z
Zn1	Zn	-0.462249	1.180624	-0.695147
Zn2	Zn	-0.585370	1.191130	-0.528888
Zn3	Zn	-0.437588	1.061098	-0.511269
Zn4	Zn	-0.594110	1.034578	-0.694191
O5	O	-0.519829	1.116858	-0.607374
O6	O	-0.485244	1.297558	-0.680866
O7	O	-0.551788	1.189377	-0.380417
O8	O	-0.323828	1.083656	-0.528687
O9	O	-0.575700	1.305276	-0.558716
O10	O	-0.341946	1.171471	-0.663781
O11	O	-0.443213	1.093843	-0.367472
O12	O	-0.451688	0.942041	-0.527760
O13	O	-0.590597	1.038456	-0.840451
O14	O	-0.566685	0.922556	-0.662153
O15	O	-0.493719	1.145755	-0.841153
O16	O	-0.703561	1.163661	-0.557790
O17	O	-0.709983	1.048643	-0.679237
C18	C	-0.737120	1.104434	-0.620346
C19	C	-0.830086	1.099191	-0.625935
C20	C	-0.507460	0.902340	-0.592941
C21	C	-0.502190	0.810565	-0.586793
C22	C	-1.000297	1.089621	-0.636162
C23	C	-1.038531	1.144240	-0.578612
C24	C	-1.133242	1.138915	-0.584302
C25	C	-0.905577	1.094945	-0.630473
C26	C	-0.492551	0.642529	-0.575576
C27	C	-0.547176	0.592015	-0.639251
C28	C	-0.541813	0.498514	-0.633010
C29	C	-0.497913	0.736039	-0.581816
C30	C	-0.301693	1.129350	-0.594375
C31	C	-0.208737	1.134673	-0.588836
C32	C	-0.545884	1.087976	-0.879753
C33	C	-0.556987	1.075668	-0.995824
C34	C	-0.532248	1.332213	-0.621863
C35	C	-0.537540	1.423984	-0.628037
C36	C	-0.514004	1.123270	-1.047920
C37	C	-0.525478	1.110551	-1.167886
C38	C	-0.493818	1.145678	-0.336054
C39	C	-0.482489	1.158160	-0.219979
H40	H	-1.000132	1.194999	-0.525067
H41	H	-1.038693	1.038865	-0.689701
C42	C	-0.615804	0.628449	-0.719221
C43	C	-0.621146	0.723320	-0.725424
C44	C	-0.689774	0.759758	-0.805386
C45	C	-0.753061	0.701326	-0.879145
C46	C	-0.747721	0.606449	-0.872944
C47	C	-0.679093	0.570010	-0.792982
H48	H	-0.574296	0.766580	-0.670822
H49	H	-0.693727	0.829993	-0.809976
H50	H	-0.803864	0.728300	-0.938337
H51	H	-0.794572	0.563188	-0.927547
H52	H	-0.675140	0.499776	-0.788392
C53	C	-0.586674	1.042766	-1.227600
C54	C	-0.573023	0.950863	-1.205985
C55	C	-0.634217	0.883081	-1.265699
C56	C	-0.709062	0.907201	-1.347029
C57	C	-0.722717	0.999109	-1.368648
C58	C	-0.661523	1.066891	-1.308934
H59	H	-0.517615	0.933004	-1.145776
H60	H	-0.624109	0.815045	-1.249695
H61	H	-0.754362	0.857025	-1.391234
H62	H	-0.778125	1.016968	-1.428857
H63	H	-0.671631	1.134927	-1.324938
H64	H	-0.441762	0.615557	-0.516379
C65	C	-0.452813	1.191052	-0.988200
C66	C	-0.377969	1.166933	-0.906868
C67	C	-0.316777	1.234716	-0.847151
C68	C	-0.330431	1.326619	-0.868765
C69	C	-0.405279	1.350743	-0.950101
C70	C	-0.466470	1.282959	-1.009819
H71	H	-0.367859	1.098897	-0.890865
H72	H	-0.261370	1.216858	-0.786941
H73	H	-0.285133	1.376797	-0.824559
H74	H	-0.415388	1.418779	-0.966105
H75	H	-0.521877	1.300817	-1.070029
H76	H	-0.437186	1.208330	-1.175771
H77	H	-0.602276	1.025492	-1.040037
