data_functionalizedCrystal
_audit_creation_method	'MofGen! by Chris Wilmer'
_symmetry_space_group_name_H-M	'P1'
_symmetry_Int_Tables_number	1
_symmetry_cell_setting	triclinic
loop_
_symmetry_equiv_pos_as_xyz
  x,y,z
_cell_length_a	19.077105
_cell_length_b	10.686285
_cell_length_c	19.076919
_cell_angle_alpha	91.918800
_cell_angle_beta	89.923776
_cell_angle_gamma	83.162422
loop_
_atom_site_label
_atom_site_type_symbol
_atom_site_fract_x
_atom_site_fract_y
_atom_site_fract_z
Zn1	Zn	1.085506	-0.610610	0.415453
Zn2	Zn	1.099198	-0.813548	0.289649
Zn3	Zn	0.971970	-0.593702	0.293938
Zn4	Zn	0.976985	-0.812786	0.402433
O5	O	1.033415	-0.707661	0.350368
O6	O	1.185984	-0.644924	0.402419
O7	O	1.085952	-0.777627	0.192163
O8	O	0.979201	-0.419327	0.317301
O9	O	1.196043	-0.794022	0.309992
O10	O	1.062616	-0.431749	0.406578
O11	O	0.992478	-0.616107	0.195314
O12	O	0.873973	-0.615369	0.304676
O13	O	0.987750	-0.792725	0.502215
O14	O	0.877659	-0.776330	0.384387
O15	O	1.067480	-0.644186	0.511781
O16	O	1.090815	-0.990065	0.297367
O17	O	1.001026	-0.989505	0.380228
C18	C	0.850234	-0.693933	0.343584
C19	C	0.771869	-0.688092	0.340697
C20	C	0.736999	-0.769268	0.380767
C21	C	0.663366	-0.763763	0.378058
C22	C	0.624605	-0.677087	0.335276
C23	C	0.659481	-0.595902	0.295205
C24	C	0.733112	-0.601402	0.297918
C25	C	0.404183	-0.651633	0.322724
C26	C	0.330547	-0.646142	0.320013
C27	C	0.334437	-0.814001	0.402867
C28	C	0.408069	-0.819499	0.405573
C29	C	0.442938	-0.738310	0.365505
N30	N	0.549341	-0.671460	0.332505
N31	N	0.518201	-0.743931	0.368280
C32	C	1.047969	-1.035583	0.336935
C33	C	1.054260	-1.175875	0.331214
C34	C	1.217311	-0.721444	0.357180
C35	C	1.295676	-0.727318	0.360082
C36	C	1.026647	-0.720257	0.533134
C37	C	1.023763	-0.725624	0.611017
C38	C	1.018822	-0.378462	0.363870
C39	C	1.012603	-0.238177	0.369624
C40	C	1.040193	-0.695027	0.168319
C41	C	1.043197	-0.689314	0.090456
C42	C	1.063917	-0.650813	0.652589
C43	C	1.061198	-0.655851	0.725768
C44	C	1.018329	-0.735707	0.757375
C45	C	0.978171	-0.810521	0.715799
C46	C	0.980886	-0.805476	0.642621
C47	C	1.005754	-0.759083	0.975701
C48	C	1.003043	-0.764125	1.048885
C49	C	1.086070	-0.609453	1.058849
C50	C	1.088785	-0.604420	0.985669
C51	C	1.048624	-0.679229	0.944099
N52	N	1.015551	-0.740861	0.832177
N53	N	1.051398	-0.674067	0.869299
H54	H	0.439623	-0.890082	0.440409
H55	H	1.094733	-1.229869	0.293946
H56	H	0.306038	-0.880099	0.435489
C57	C	0.957924	-1.165252	0.419967
C58	C	0.961457	-1.189117	0.499116
C59	C	0.906777	-1.116183	0.549461
C60	C	0.848565	-1.019385	0.520657
C61	C	0.845030	-0.995515	0.441504
C62	C	0.899710	-1.068449	0.391159
H63	H	1.004551	-1.260777	0.520442
H64	H	0.909395	-1.133854	0.608055
H65	H	0.808088	-0.965395	0.557925
H66	H	0.801936	-0.923855	0.420178
H67	H	0.897093	-1.050779	0.332565
C68	C	1.111074	-0.562969	0.617824
C69	C	1.098584	-0.419751	0.633557
C70	C	1.145741	-0.331901	0.598795
C71	C	1.205387	-0.387268	0.548299
C72	C	1.217879	-0.530493	0.532563
C73	C	1.170723	-0.618343	0.567326
H74	H	1.054429	-0.378759	0.670940
H75	H	1.136493	-0.225877	0.610444
H76	H	1.240295	-0.322236	0.522566
H77	H	1.262035	-0.571486	0.495181
H78	H	1.179971	-0.724368	0.555676
C79	C	0.287907	-0.550766	0.272965
C80	C	0.326258	-0.461442	0.228902
C81	C	0.283617	-0.366064	0.181863
C82	C	0.202625	-0.360010	0.178887
C83	C	0.164270	-0.449338	0.222951
C84	C	0.206910	-0.544715	0.269990
H85	H	0.386217	-0.465920	0.231105
H86	H	0.312010	-0.299938	0.149244
H87	H	0.171060	-0.289406	0.144065
H88	H	0.104311	-0.444859	0.220749
H89	H	0.178517	-0.610841	0.302610
H90	H	1.093898	-0.594935	0.759613
C91	C	1.135941	-0.516576	0.950903
C92	C	1.180111	-0.434282	0.996631
C93	C	1.227271	-0.346443	0.961865
C94	C	1.230262	-0.340897	0.881371
C95	C	1.186091	-0.423194	0.835639
C96	C	1.138931	-0.511033	0.870405
H97	H	1.177898	-0.438384	1.056221
H98	H	1.259969	-0.285521	0.995719
H99	H	1.265173	-0.275873	0.855635
H100	H	1.188303	-0.419092	0.776049
H101	H	1.106232	-0.571955	0.836551
H102	H	0.761502	-0.535293	0.265293
C103	C	0.955908	-0.852013	1.083653
C104	C	0.911750	-0.934333	1.037929
C105	C	0.864632	-1.022240	1.072698
C106	C	0.861671	-1.027827	1.153191
C107	C	0.905831	-0.945505	1.198919
C108	C	0.952949	-0.857598	1.164151
H109	H	0.913940	-0.930199	0.978340
H110	H	0.831942	-1.083180	1.038846
H111	H	0.826792	-1.092901	1.178929
H112	H	0.903641	-0.949639	1.258509
H113	H	0.985639	-0.796657	1.198002
C114	C	0.961570	-0.841380	0.929995
C115	C	0.880593	-0.825751	0.937534
C116	C	0.836401	-0.908054	0.891830
C117	C	0.873187	-1.005987	0.838588
C118	C	0.954169	-1.021620	0.831047
C119	C	0.998360	-0.939317	0.876750
H120	H	0.853358	-0.753252	0.976949
H121	H	0.776453	-0.896481	0.897413
H122	H	0.840474	-1.066912	0.804756
H123	H	0.981404	-1.094119	0.791632
H124	H	1.058308	-0.950890	0.871167
H125	H	0.768552	-0.839853	0.415602
C126	C	0.442526	-0.562349	0.278629
C127	C	0.425811	-0.418527	0.289960
C128	C	0.464154	-0.329246	0.245854
C129	C	0.519213	-0.383786	0.190417
C130	C	0.535931	-0.527615	0.179084
C131	C	0.497588	-0.616896	0.223190
H132	H	0.385050	-0.378147	0.330999
H133	H	0.451778	-0.222774	0.254244
H134	H	0.547597	-0.317695	0.157767
H135	H	0.576692	-0.567995	0.138044
H136	H	0.509964	-0.723368	0.214800
H137	H	0.634977	-0.829866	0.410686
H138	H	0.627916	-0.525323	0.260374
H139	H	1.118766	-0.548546	1.092703
H140	H	0.948181	-0.866381	0.608774
H141	H	0.943263	-0.875537	0.741539
