data_functionalizedCrystal
_audit_creation_method	'MofGen! by Chris Wilmer'
_symmetry_space_group_name_H-M	'P1'
_symmetry_Int_Tables_number	1
_symmetry_cell_setting	triclinic
loop_
_symmetry_equiv_pos_as_xyz
  x,y,z
_cell_length_a	8.559649
_cell_length_b	14.185569
_cell_length_c	8.634740
_cell_angle_alpha	105.242342
_cell_angle_beta	85.174486
_cell_angle_gamma	78.725084
loop_
_atom_site_label
_atom_site_type_symbol
_atom_site_fract_x
_atom_site_fract_y
_atom_site_fract_z
O1	O	2.081914	0.083402	-0.012832
O2	O	1.628749	0.083406	0.065381
O3	O	1.833881	0.083402	-0.195662
O4	O	1.876782	0.083406	0.248211
O5	O	1.894480	-0.083434	-0.272769
O6	O	1.689348	-0.083430	-0.011726
O7	O	2.142513	-0.083434	-0.089939
Cu8	Cu	1.921464	-0.098665	-0.057873
Cu9	Cu	1.849798	0.098637	0.033315
O10	O	1.937381	-0.083430	0.171104
C11	C	1.600431	-0.000011	0.032754
C12	C	1.425767	-0.000010	0.050398
N13	N	1.971880	-0.237437	-0.122012
C14	C	1.651258	-0.605081	0.285815
C15	C	1.689460	-0.710103	0.237239
C16	C	1.871159	-0.710068	0.006157
C17	C	1.832966	-0.605043	0.054709
C18	C	1.723016	-0.552558	0.194540
C19	C	1.904724	-0.552521	-0.036566
C20	C	1.866540	-0.447505	0.011987
C21	C	1.756598	-0.395013	0.151815
C22	C	1.684832	-0.447543	0.243093
C23	C	2.014683	-0.605008	-0.176390
C24	C	2.086441	-0.552485	-0.267665
C25	C	2.048249	-0.447468	-0.219119
C26	C	1.938306	-0.394975	-0.079291
C27	C	2.120015	-0.394938	-0.310396
C28	C	2.081831	-0.289923	-0.261843
C29	C	1.900122	-0.289960	-0.030737
C30	C	2.170830	-0.000014	-0.057312
C31	C	2.345492	-0.000009	-0.074952
C32	C	1.854461	-0.000014	-0.290514
C33	C	1.825481	-0.000010	-0.458264
N34	N	1.799392	0.237410	0.097440
C35	C	1.916800	-0.000011	0.265957
C36	C	1.945778	-0.000009	0.433709
H37	H	1.360859	-0.000003	0.171223
O38	O	1.422641	0.000033	-0.219184
C39	C	1.400669	-0.000029	-0.495599
C40	C	1.313082	-0.000055	-0.332338
H41	H	1.312137	-0.000122	-0.587138
H42	H	1.451974	0.069807	-0.478099
H43	H	1.502787	-0.069834	-0.542455
H44	H	1.210898	0.069702	-0.285391
H45	H	1.261892	-0.069938	-0.349935
H46	H	2.070926	0.000024	-0.530427
H47	H	1.810577	-0.247224	0.083118
O48	O	1.676264	-0.000049	-0.501308
C49	C	1.510321	0.000024	-0.713310
C50	C	1.679390	0.000045	-0.664790
H51	H	1.512784	0.000122	-0.845477
H52	H	1.471817	-0.069813	-0.697535
H53	H	1.421159	0.069828	-0.632783
H54	H	1.768667	-0.069712	-0.745280
H55	H	1.717758	0.069928	-0.680522
H56	H	1.725515	-0.309502	0.191350
O57	O	2.193154	-0.603629	-0.403490
C58	C	2.332583	-0.765393	-0.580661
C59	C	2.211681	-0.707602	-0.426823
H60	H	2.347626	-0.849466	-0.599555
H61	H	2.285970	-0.744822	-0.690070
H62	H	2.453757	-0.744665	-0.566181
H63	H	2.090471	-0.728300	-0.441144
H64	H	2.258427	-0.728178	-0.317471
H65	H	1.960687	-0.752813	-0.107692
H66	H	2.209549	-0.437685	-0.424239
H67	H	1.595286	-0.404807	0.356948
H68	H	1.561712	-0.562345	0.399670
H69	H	1.631017	-0.752862	0.311580
O70	O	2.151621	-0.239051	-0.350730
C71	C	2.335950	-0.250087	-0.585023
C72	C	2.256994	-0.307824	-0.484533
H73	H	2.421186	-0.305665	-0.693205
H74	H	2.238751	-0.200956	-0.630087
H75	H	2.406451	-0.200885	-0.506088
H76	H	2.186502	-0.357081	-0.563366
H77	H	2.354268	-0.356892	-0.439452
H78	H	2.045774	-0.690518	-0.215912
