data_functionalizedCrystal
_audit_creation_method	'MofGen! by Chris Wilmer'
_symmetry_space_group_name_H-M	'P1'
_symmetry_Int_Tables_number	1
_symmetry_cell_setting	triclinic
loop_
_symmetry_equiv_pos_as_xyz
  x,y,z
_cell_length_a	10.540539
_cell_length_b	15.500215
_cell_length_c	10.540539
_cell_angle_alpha	86.845005
_cell_angle_beta	95.474508
_cell_angle_gamma	93.155258
loop_
_atom_site_label
_atom_site_type_symbol
_atom_site_fract_x
_atom_site_fract_y
_atom_site_fract_z
O1	O	1.691196	0.071899	-0.184208
O2	O	1.321784	0.071909	-0.201065
O3	O	1.514918	0.071903	-0.007930
O4	O	1.498062	0.071906	-0.377343
O5	O	1.504277	-0.071986	0.002699
O6	O	1.311143	-0.071980	-0.190436
O7	O	1.680555	-0.071990	-0.173580
Cu8	Cu	1.494877	-0.085123	-0.181038
Cu9	Cu	1.507461	0.085043	-0.193607
O10	O	1.487421	-0.071983	-0.366715
C11	C	1.269160	-0.000034	-0.194487
C12	C	1.128213	-0.000030	-0.190705
N13	N	1.486035	-0.204808	-0.172196
C14	C	0.944761	-0.000367	-0.045763
C15	C	1.091404	-0.000033	-0.049621
C16	C	1.072616	0.082135	-0.264670
C17	C	0.926076	0.082195	-0.259859
C18	C	0.913487	-0.081433	-0.250643
C19	C	1.060389	-0.082511	-0.251862
C20	C	1.560378	-0.250083	-0.246592
C21	C	1.553708	-0.340656	-0.239898
C22	C	1.472688	-0.385952	-0.158813
C23	C	1.398342	-0.340671	-0.084409
C24	C	1.405020	-0.250100	-0.091097
C25	C	1.448645	-0.659420	-0.134723
C26	C	1.441970	-0.749998	-0.128043
C27	C	1.597339	-0.749976	-0.283530
C28	C	1.604004	-0.659403	-0.290217
C29	C	1.529663	-0.614129	-0.215808
C30	C	1.465865	-0.478533	-0.151971
C31	C	1.536494	-0.521551	-0.222644
C32	C	1.733179	-0.000045	-0.180158
C33	C	1.874127	-0.000043	-0.183940
C34	C	1.508333	-0.000040	0.044687
C35	C	1.504552	-0.000035	0.185635
N36	N	1.516313	0.204728	-0.202439
C37	C	1.494006	-0.000039	-0.419332
C38	C	1.497788	-0.000038	-0.560280
C39	C	1.359659	0.000292	0.369038
C40	C	1.363468	-0.000032	0.222443
C41	C	1.566371	-0.082205	0.253362
C42	C	1.561551	-0.082274	0.399912
C43	C	1.576521	0.081355	0.388343
C44	C	1.577901	0.082441	0.241281
H45	H	1.129662	-0.058933	0.008152
C46	C	0.861643	0.087253	-0.397303
N47	N	0.813118	0.091071	-0.500825
H48	H	1.308285	0.059217	0.393285
H49	H	1.657864	-0.786847	-0.344109
C50	C	1.717362	0.089138	0.208075
N51	N	1.822410	0.094174	0.183070
C52	C	1.496539	-0.164811	0.201925
N53	N	1.443934	-0.227028	0.163185
C54	C	1.323233	-0.200298	-0.009259
N55	N	1.261631	-0.162789	0.052387
C56	C	0.864660	-0.165572	-0.182736
N57	N	0.827887	-0.228942	-0.131575
C58	C	0.900243	-0.079970	0.035416
N59	N	0.866702	-0.139929	0.096562
C60	C	1.521051	0.165492	0.424748
N61	N	1.479257	0.228859	0.452167
H62	H	0.918887	0.058230	0.005409
H63	H	1.137512	0.058967	-0.000180
C64	C	1.635442	-0.390454	-0.321790
N65	N	1.696990	-0.427961	-0.383492
H66	H	1.532717	0.143228	0.195933
H67	H	1.314401	0.058870	0.175489
H68	H	0.902408	0.143614	-0.214215
C69	C	1.092642	-0.089223	-0.390319
N70	N	1.116942	-0.094276	-0.494607
H71	H	1.095195	0.085193	-0.368503
C72	C	1.366856	-0.609631	-0.052880
N73	N	1.305245	-0.572128	0.008764
C74	C	1.352849	-0.799822	-0.038828
N75	N	1.285729	-0.837350	0.028367
H76	H	1.119727	0.143284	-0.222022
H77	H	1.096856	-0.143296	-0.197773
H78	H	0.866219	-0.081988	-0.352505
H79	H	1.626346	-0.213209	-0.312627
C80	C	1.278832	-0.078882	0.415654
N81	N	1.217962	-0.138523	0.450756
H82	H	1.669983	-0.622528	-0.356241
C83	C	1.284899	-0.079738	0.171915
N84	N	1.225719	-0.139777	0.133859
H85	H	1.332380	-0.377559	-0.018382
H86	H	1.678465	0.081905	0.435529
C87	C	1.698248	-0.087327	0.465091
N88	N	1.801207	-0.091139	0.514179
C89	C	1.487612	-0.165245	0.444138
N90	N	1.431915	-0.227739	0.477442
H91	H	1.602465	-0.484667	-0.288658
H92	H	1.399897	-0.515423	-0.085953
H93	H	1.669752	-0.085263	0.231234
