data_functionalizedCrystal
_audit_creation_method	'MofGen! by Chris Wilmer'
_symmetry_space_group_name_H-M	'P1'
_symmetry_Int_Tables_number	1
_symmetry_cell_setting	triclinic
loop_
_symmetry_equiv_pos_as_xyz
  x,y,z
_cell_length_a	29.839135
_cell_length_b	29.839132
_cell_length_c	16.625539
_cell_angle_alpha	90.034308
_cell_angle_beta	89.976179
_cell_angle_gamma	89.952207
loop_
_atom_site_label
_atom_site_type_symbol
_atom_site_fract_x
_atom_site_fract_y
_atom_site_fract_z
Zn1	Zn	0.686745	0.178822	-0.455946
Zn2	Zn	0.686661	0.253953	-0.321099
Zn3	Zn	0.611616	0.178841	-0.321119
Zn4	Zn	0.611570	0.253929	-0.455881
O5	O	0.649148	0.216386	-0.388511
O6	O	0.749601	0.188791	-0.438077
O7	O	0.676690	0.244007	-0.208269
O8	O	0.621637	0.115972	-0.339039
O9	O	0.749539	0.243989	-0.339005
O10	O	0.676833	0.115958	-0.438096
O11	O	0.621556	0.188823	-0.208283
O12	O	0.548743	0.188800	-0.338976
O13	O	0.621558	0.243948	-0.568722
O14	O	0.548709	0.243967	-0.437986
O15	O	0.676788	0.188767	-0.568770
O16	O	0.676645	0.316817	-0.338943
O17	O	0.621477	0.316800	-0.437966
C18	C	0.532425	0.216383	-0.388477
C19	C	0.482491	0.216392	-0.388481
C20	C	0.172877	0.187688	-0.440173
C21	C	-0.014796	0.187691	-0.440196
O22	O	-0.039036	0.163276	-0.484109
N23	N	-0.038294	0.216387	-0.388541
C24	C	-0.014871	0.245082	-0.336872
O25	O	-0.039163	0.269486	-0.292930
C26	C	0.172802	0.245076	-0.336845
C27	C	0.196297	0.216382	-0.388510
C28	C	0.196372	0.158996	-0.491834
C29	C	0.243288	0.158997	-0.491830
C30	C	0.266708	0.187691	-0.440167
C31	C	0.243212	0.216383	-0.388507
C32	C	0.196224	0.273768	-0.285173
C33	C	0.243145	0.273763	-0.285169
C34	C	0.266640	0.245069	-0.336834
C35	C	0.313548	0.245078	-0.336841
N36	N	0.337046	0.216382	-0.388496
C37	C	0.313625	0.187689	-0.440160
C38	C	-0.113401	0.245083	-0.336890
C39	C	-0.160319	0.245085	-0.336898
C40	C	-0.160242	0.187694	-0.440222
C41	C	-0.113323	0.187695	-0.440218
C42	C	-0.089904	0.216388	-0.388546
C43	C	0.412151	0.187694	-0.440150
C44	C	0.459071	0.187699	-0.440144
C45	C	0.458989	0.245088	-0.336818
C46	C	0.412074	0.245085	-0.336826
C47	C	0.388656	0.216384	-0.388494
O48	O	0.337817	0.269477	-0.292945
O49	O	0.337926	0.163281	-0.484082
C50	C	0.125961	0.187687	-0.440177
C51	C	0.102466	0.216379	-0.388516
C52	C	0.125886	0.245073	-0.336853
C53	C	0.055548	0.216381	-0.388524
C54	C	0.032128	0.187688	-0.440187
C55	C	0.055626	0.158992	-0.491843
C56	C	0.102541	0.158993	-0.491840
C57	C	0.102388	0.273768	-0.285197
C58	C	0.055473	0.273765	-0.285205
C59	C	0.032053	0.245072	-0.336869
C60	C	0.649059	0.333109	-0.388463
C61	C	0.649062	0.383043	-0.388469
C62	C	0.677895	0.692683	-0.336992
C63	C	0.677938	0.880356	-0.337010
O64	O	0.702404	0.904618	-0.293227
N65	N	0.649195	0.903828	-0.388524
C66	C	0.620442	0.880380	-0.440041
O67	O	0.595999	0.904650	-0.483864
C68	C	0.620402	0.692707	-0.440026
C69	C	0.649143	0.669238	-0.388503
C70	C	0.706634	0.669214	-0.285473
C71	C	0.706621	0.622298	-0.285466
C72	C	0.677869	0.598852	-0.336977
C73	C	0.649130	0.622322	-0.388496
C74	C	0.591651	0.669259	-0.491547
C75	C	0.591644	0.622338	-0.491540
C76	C	0.620385	0.598868	-0.440017
C77	C	0.620365	0.551961	-0.440000
N78	N	0.649108	0.528489	-0.388486
C79	C	0.677860	0.551935	-0.336974
C80	C	0.620464	0.978910	-0.440044
C81	C	0.620474	1.025828	-0.440047
C82	C	0.677970	1.025802	-0.337016
C83	C	0.677958	0.978883	-0.337010
C84	C	0.649207	0.955438	-0.388530
C85	C	0.677831	0.453409	-0.336963
C86	C	0.677814	0.406489	-0.336958
C87	C	0.620319	0.406520	-0.439991
C88	C	0.620334	0.453435	-0.439993
C89	C	0.649093	0.476879	-0.388477
O90	O	0.595916	0.527670	-0.483766
O91	O	0.702306	0.527656	-0.293171
C92	C	0.677907	0.739599	-0.336999
C93	C	0.649168	0.763069	-0.388517
C94	C	0.620416	0.739623	-0.440029
C95	C	0.649178	0.809986	-0.388520
C96	C	0.677930	0.833432	-0.337009
C97	C	0.706672	0.809960	-0.285494
C98	C	0.706659	0.763044	-0.285487
C99	C	0.591674	0.763095	-0.491543
C100	C	0.591689	0.810010	-0.491545
C101	C	0.620440	0.833456	-0.440034
C102	C	0.766326	0.216390	-0.388546
C103	C	0.816261	0.216392	-0.388561
C104	C	0.649177	0.216353	-0.598820
C105	C	0.649190	0.216339	-0.688441
C106	C	0.649233	1.099208	-0.388559
C107	C	0.649226	1.049274	-0.388536
C108	C	0.649210	0.216288	-1.016617
C109	C	0.649203	0.216304	-0.925308
C110	C	0.649200	0.216314	-0.852532
C111	C	0.649193	0.216329	-0.761218
C112	C	0.649145	0.216387	-0.179020
C113	C	0.649219	0.216275	-0.089400
H114	H	0.393090	0.164321	-0.482221
H115	H	0.730050	0.688298	-0.243526
H116	H	0.121667	0.135627	-0.533910
H117	H	0.596909	0.387423	-0.481929
H118	H	0.177102	0.297134	-0.243101
H119	H	0.036549	0.135630	-0.533912
Br120	Br	0.275167	0.120052	-0.561949
Br121	Br	0.274926	0.312706	-0.215040
Br122	Br	0.581317	0.485288	-0.509899
H123	H	0.177308	0.135628	-0.533904
H124	H	0.730082	0.829058	-0.243550
H125	H	0.568261	0.744009	-0.533491
Br126	Br	-0.192200	0.284035	-0.266788
H127	H	0.121452	0.297134	-0.243125
H128	H	-0.094338	0.268450	-0.294811
H129	H	0.730063	0.743939	-0.243532
Br130	Br	0.581441	0.947099	-0.509971
H131	H	0.392943	0.268455	-0.294765
Br132	Br	0.716965	0.947036	-0.267083
H133	H	0.478066	0.268451	-0.294756
Br134	Br	0.552677	0.841856	-0.561475
Br135	Br	0.023592	0.312711	-0.215081
Br136	Br	-0.081441	0.148751	-0.510336
H137	H	-0.179318	0.164331	-0.482288
H138	H	0.701218	0.387382	-0.294998
H139	H	0.701250	0.472491	-0.295015
H140	H	0.730026	0.603192	-0.243513
H141	H	0.568245	0.688360	-0.533499
Br142	Br	0.716989	1.057630	-0.267105
H143	H	0.568232	0.603252	-0.533496
Br144	Br	0.490955	0.148756	-0.510270
H145	H	0.597066	1.044933	-0.481995
