data_functionalizedCrystal
_audit_creation_method	'MofGen! by Chris Wilmer'
_symmetry_space_group_name_H-M	'P1'
_symmetry_Int_Tables_number	1
_symmetry_cell_setting	triclinic
loop_
_symmetry_equiv_pos_as_xyz
  x,y,z
_cell_length_a	16.956984
_cell_length_b	16.992695
_cell_length_c	16.053802
_cell_angle_alpha	87.258926
_cell_angle_beta	87.610701
_cell_angle_gamma	96.639179
loop_
_atom_site_label
_atom_site_type_symbol
_atom_site_fract_x
_atom_site_fract_y
_atom_site_fract_z
O1	O	1.063242	-0.028849	-0.069433
O2	O	1.396575	0.304485	0.263900
O3	O	1.729909	0.637818	0.597233
O4	O	0.832831	-0.056264	-0.069434
O5	O	1.166165	0.277069	0.263899
O6	O	1.499498	0.610402	0.597232
O7	O	0.947113	0.071526	-0.069427
O8	O	1.280446	0.404859	0.263906
O9	O	1.613779	0.738193	0.597239
O10	O	0.948961	-0.156639	-0.069441
O11	O	1.282294	0.176694	0.263893
O12	O	1.615627	0.510028	0.597226
O13	O	0.940821	0.064519	0.069431
O14	O	1.274154	0.397853	0.402765
O15	O	1.607487	0.731186	0.736098
O16	O	0.826539	-0.063271	0.069424
O17	O	1.159873	0.270062	0.402757
O18	O	1.493206	0.603396	0.736091
O19	O	1.056950	-0.035855	0.069425
O20	O	1.390283	0.297478	0.402759
O21	O	1.723617	0.630811	0.736092
Zn22	Zn	0.940746	-0.050676	0.091471
Zn23	Zn	1.274079	0.282658	0.424805
Zn24	Zn	1.607412	0.615991	0.758138
Zn25	Zn	0.949036	-0.041444	-0.091481
Zn26	Zn	1.282369	0.291889	0.241853
Zn27	Zn	1.615702	0.625223	0.575186
O28	O	0.942669	-0.163646	0.069418
O29	O	1.276002	0.169688	0.402751
O30	O	1.609335	0.503021	0.736085
C31	C	0.800067	-0.061171	-0.000005
C32	C	1.133400	0.272162	0.333328
C33	C	1.466733	0.605495	0.666661
C34	C	0.711812	-0.065345	-0.000006
C35	C	1.045145	0.267988	0.333328
C36	C	1.378479	0.601321	0.666661
C37	C	0.675280	0.004440	0.000000
C38	C	1.008614	0.337773	0.333333
C39	C	1.341947	0.671107	0.666667
C40	C	0.592356	0.000514	-0.000006
C41	C	0.925689	0.333847	0.333327
C42	C	1.259022	0.667180	0.666660
C43	C	0.545964	-0.073198	-0.000012
C44	C	0.879297	0.260135	0.333321
C45	C	1.212630	0.593468	0.666655
C46	C	0.582501	-0.142989	-0.000020
C47	C	0.915834	0.190345	0.333313
C48	C	1.249168	0.523678	0.666647
C49	C	0.665424	-0.139062	-0.000020
C50	C	0.998758	0.194272	0.333314
C51	C	1.332091	0.527605	0.666647
C52	C	0.297430	-0.092637	-0.000019
C53	C	0.630764	0.240696	0.333314
C54	C	0.964097	0.574030	0.666648
C55	C	0.214501	-0.096559	-0.000017
C56	C	0.547834	0.236774	0.333317
C57	C	0.881168	0.570108	0.666650
C58	C	0.224362	0.046944	-0.000004
C59	C	0.557695	0.380277	0.333329
C60	C	0.891028	0.713611	0.666662
C61	C	0.307286	0.050864	0.000001
C62	C	0.640620	0.384198	0.333334
C63	C	0.973953	0.717531	0.666668
C64	C	0.343816	-0.018925	-0.000012
C65	C	0.677150	0.314408	0.333322
C66	C	1.010483	0.647741	0.666655
N67	N	0.461201	-0.077213	-0.000016
N68	N	0.794535	0.256120	0.333318
N69	N	1.127868	0.589453	0.666651
N70	N	0.428578	-0.014909	-0.000014
N71	N	0.761911	0.318424	0.333320
N72	N	1.095244	0.651757	0.666653
C73	C	0.941590	0.097081	0.000002
C74	C	1.274924	0.430415	0.333335
C75	C	1.608257	0.763748	0.666669
C76	C	0.934500	0.183666	0.000002
C77	C	1.267833	0.516999	0.333335
C78	C	1.601166	0.850332	0.666668
C79	C	1.089715	-0.030948	-0.000006
C80	C	1.423048	0.302385	0.333327
C81	C	1.756381	0.635719	0.666661
C82	C	1.177970	-0.026774	-0.000011
C83	C	1.511303	0.306559	0.333322
C84	C	1.844636	0.639893	0.666656
C85	C	0.948191	-0.189201	-0.000013
C86	C	1.281524	0.144133	0.333320
C87	C	1.614858	0.477466	0.666654
C88	C	0.955282	-0.275785	-0.000018
C89	C	1.288615	0.057548	0.333315
C90	C	1.621949	0.390882	0.666648
N91	N	0.935094	-0.056975	0.216331
N92	N	1.268427	0.276358	0.549665
N93	N	1.601760	0.609692	0.882998
C94	C	1.002914	0.238341	0.000003
C95	C	1.336248	0.571674	0.333336
C96	C	1.669581	0.905007	0.666669
C97	C	0.996248	0.319696	-0.000005
C98	C	1.329581	0.653029	0.333328
C99	C	1.662914	0.986362	0.666662
C100	C	0.921165	0.346374	-0.000008
C101	C	1.254498	0.679707	0.333325
C102	C	1.587832	1.013040	0.666658
C103	C	0.852745	0.291692	-0.000012
C104	C	1.186078	0.625025	0.333321
C105	C	1.519412	0.958359	0.666655
C106	C	0.859413	0.210339	-0.000010
C107	C	1.192746	0.543672	0.333323
C108	C	1.526080	0.877006	0.666657
C109	C	0.893530	0.588181	-0.000020
C110	C	1.226863	0.921514	0.333313
C111	C	1.560197	1.254847	0.666647
C112	C	0.886867	0.669540	-0.000019
C113	C	1.220200	1.002873	0.333314
C114	C	1.553534	1.336207	0.666647
C115	C	1.030371	0.697538	-0.000014
C116	C	1.363704	1.030872	0.333319
C117	C	1.697037	1.364205	0.666653
C118	C	1.037031	0.616182	-0.000007
C119	C	1.370365	0.949516	0.333326
C120	C	1.703698	1.282849	0.666660
C121	C	0.968612	0.561508	-0.000015
C122	C	1.301945	0.894841	0.333318
C123	C	1.635278	1.228175	0.666651
N124	N	0.914349	0.429531	-0.000014
N125	N	1.247682	0.762864	0.333320
N126	N	1.581015	1.096197	0.666653
N127	N	0.975429	0.478353	-0.000016
N128	N	1.308762	0.811686	0.333318
N129	N	1.642096	1.145019	0.666651
N130	N	0.954694	-0.035138	-0.216341
N131	N	1.288027	0.298196	0.116993
N132	N	1.621360	0.631529	0.450326
C133	C	0.983741	-0.002617	0.260028
C134	C	1.317074	0.330716	0.593362
C135	C	1.650407	0.664050	0.926695
C136	C	0.979795	-0.007031	0.347435
C137	C	1.313128	0.326303	0.680768
C138	C	1.646461	0.659636	1.014102
C139	C	0.927206	-0.065806	0.391143
C140	C	1.260539	0.267527	0.724476
C141	C	1.593872	0.600860	1.057809
C142	C	0.878553	-0.120167	0.347440
C143	C	1.211887	0.213166	0.680773
C144	C	1.545220	0.546500	1.014106
C145	C	0.882496	-0.115749	0.260035
C146	C	1.215829	0.217584	0.593368
C147	C	1.549162	0.550917	0.926701
C148	C	0.909984	-0.085081	0.652551
C149	C	1.243317	0.248253	0.985885
C150	C	1.576650	0.581586	1.319218
C151	C	0.906047	-0.089496	0.739962
C152	C	1.239380	0.243837	1.073296
C153	C	1.572713	0.577171	1.406629
C154	C	1.007288	0.023642	0.739952
C155	C	1.340621	0.356975	1.073285
C156	C	1.673954	0.690309	1.406618
C157	C	1.011229	0.028051	0.652545
C158	C	1.344562	0.361385	0.985878
C159	C	1.677895	0.694718	1.319212
C160	C	0.962573	-0.026307	0.608849
C161	C	1.295907	0.307027	0.942183
C162	C	1.629240	0.640360	1.275516
N163	N	0.923173	-0.070321	0.480486
N164	N	1.256506	0.263013	0.813820
N165	N	1.589839	0.596346	1.147153
N166	N	0.966603	-0.021788	0.519508
N167	N	1.299936	0.311545	0.852841
N168	N	1.633269	0.644878	1.186174
H169	H	0.345053	0.110889	0.000009
H170	H	0.678387	0.444222	0.333343
H171	H	1.011720	0.777555	0.666676
H172	H	0.194610	0.103764	-0.000004
H173	H	0.527944	0.437097	0.333330
H174	H	0.861277	0.770430	0.666663
H175	H	0.835730	-0.168021	0.383032
H176	H	1.169063	0.165312	0.716365
H177	H	1.502396	0.498646	1.049698
Cl178	Cl	0.156180	-0.189233	-0.000016
Cl179	Cl	0.489513	0.144100	0.333317
Cl180	Cl	0.822847	0.477433	0.666651
Cl181	Cl	0.343343	-0.180374	-0.000033
Cl182	Cl	0.676676	0.152960	0.333300
Cl183	Cl	1.010010	0.486293	0.666633
Cl184	Cl	0.773402	0.141604	-0.000015
Cl185	Cl	1.106735	0.474937	0.333319
Cl186	Cl	1.440068	0.808270	0.666652
H187	H	0.544722	-0.203006	-0.000030
H188	H	0.878055	0.130327	0.333303
H189	H	1.211389	0.463660	0.666636
H190	H	1.098172	0.594468	-0.000004
H191	H	1.431505	0.927802	0.333329
H192	H	1.764838	1.261135	0.666662
H193	H	1.019406	0.037232	0.383013
H194	H	1.352740	0.370566	0.716346
H195	H	1.686073	0.703899	1.049679
H196	H	0.695167	-0.195888	-0.000021
H197	H	1.028500	0.137445	0.333313
H198	H	1.361833	0.470778	0.666646
Cl199	Cl	1.097309	0.204812	0.000015
Cl200	Cl	1.430642	0.538145	0.333349
Cl201	Cl	1.763975	0.871478	0.666682
H202	H	1.051959	0.364210	-0.000002
H203	H	1.385292	0.697543	0.333331
H204	H	1.718625	1.030876	0.666664
Cl205	Cl	0.792470	0.703075	-0.000018
Cl206	Cl	1.125803	1.036409	0.333315
Cl207	Cl	1.459137	1.369742	0.666648
Cl208	Cl	0.807515	0.519458	-0.000032
Cl209	Cl	1.140849	0.852791	0.333301
Cl210	Cl	1.474182	1.186124	0.666634
H211	H	0.842881	-0.160012	0.224457
H212	H	1.176214	0.173321	0.557791
H213	H	1.509548	0.506654	0.891124
Cl214	Cl	0.839929	-0.163394	0.794904
Cl215	Cl	1.173262	0.169940	1.128237
Cl216	Cl	1.506596	0.503273	1.461570
H217	H	1.086074	0.742062	-0.000009
H218	H	1.419407	1.075396	0.333324
H219	H	1.752740	1.408729	0.666658
H220	H	0.791611	0.313420	-0.000020
H221	H	1.124945	0.646753	0.333313
H222	H	1.458278	0.980086	0.666647
H223	H	0.713047	0.064464	0.000008
H224	H	1.046381	0.397798	0.333342
H225	H	1.379714	0.731131	0.666675
Cl226	Cl	0.848822	-0.153418	0.597626
Cl227	Cl	1.182155	0.179916	0.930959
Cl228	Cl	1.515489	0.513249	1.264292
Cl229	Cl	1.049860	0.071273	0.205090
Cl230	Cl	1.383194	0.404606	0.538424
Cl231	Cl	1.716527	0.737940	0.871757
Cl232	Cl	1.077342	0.101941	0.597598
Cl233	Cl	1.410676	0.435274	0.930931
Cl234	Cl	1.744009	0.768607	1.264264
Cl235	Cl	1.068447	0.091976	0.794887
Cl236	Cl	1.401781	0.425310	1.128220
Cl237	Cl	1.735114	0.758643	1.461553
H238	H	0.562616	0.057340	-0.000002
H239	H	0.895949	0.390674	0.333331
H240	H	1.229283	0.724007	0.666664
