data_functionalizedCrystal
_audit_creation_method	'MofGen! by Chris Wilmer'
_symmetry_space_group_name_H-M	'P1'
_symmetry_Int_Tables_number	1
_symmetry_cell_setting	triclinic
loop_
_symmetry_equiv_pos_as_xyz
  x,y,z
_cell_length_a	16.992701
_cell_length_b	14.971506
_cell_length_c	14.048226
_cell_angle_alpha	90.001102
_cell_angle_beta	89.995125
_cell_angle_gamma	92.855221
loop_
_atom_site_label
_atom_site_type_symbol
_atom_site_fract_x
_atom_site_fract_y
_atom_site_fract_z
O1	O	1.040582	-0.189660	-0.079162
O2	O	1.540582	0.310340	0.420838
O3	O	0.812294	-0.187581	-0.079163
O4	O	1.312294	0.312419	0.420837
O5	O	0.932549	-0.058851	-0.079160
O6	O	1.432549	0.441149	0.420840
O7	O	0.920328	-0.318390	-0.079165
O8	O	1.420328	0.181610	0.420835
O9	O	0.932537	-0.058851	0.079161
O10	O	1.432537	0.441149	0.579161
O11	O	0.812283	-0.187582	0.079159
O12	O	1.312283	0.312418	0.579159
O13	O	1.040570	-0.189660	0.079159
O14	O	1.540570	0.310340	0.579159
Zn15	Zn	0.926425	-0.188621	0.104296
Zn16	Zn	1.426425	0.311379	0.604296
Zn17	Zn	0.926440	-0.188620	-0.104299
Zn18	Zn	1.426440	0.311380	0.395701
O19	O	0.920316	-0.318390	0.079157
O20	O	1.420316	0.181610	0.579157
C21	C	0.783073	-0.184905	-0.000002
C22	C	1.283073	0.315095	0.499998
C23	C	0.696021	-0.176919	-0.000002
C24	C	1.196021	0.323081	0.499998
C25	C	0.207008	-0.123259	-0.000005
C26	C	0.707008	0.376741	0.499995
C27	C	0.288802	-0.130770	0.000001
C28	C	0.788802	0.369230	0.500001
C29	C	0.320430	-0.215345	-0.000005
C30	C	0.820430	0.284655	0.499995
C31	C	0.270259	-0.292414	-0.000007
C32	C	0.770259	0.207586	0.499993
C33	C	0.188467	-0.284903	-0.000006
C34	C	0.688467	0.215097	0.499994
C35	C	0.564058	-0.246476	-0.000003
C36	C	1.064058	0.253524	0.499997
C37	C	0.645857	-0.253982	-0.000007
C38	C	1.145857	0.246018	0.499993
C39	C	0.664394	-0.092337	0.000003
C40	C	1.164394	0.407663	0.500003
C41	C	0.582599	-0.084833	-0.000002
C42	C	1.082599	0.415167	0.499998
C43	C	0.532436	-0.161902	0.000001
C44	C	1.032436	0.338098	0.500001
N45	N	0.404036	-0.223024	-0.000002
N46	N	0.904036	0.276976	0.499998
N47	N	0.448831	-0.154222	0.000005
N48	N	0.948831	0.345778	0.500005
C49	C	0.931993	-0.025488	-0.000001
C50	C	1.431993	0.474512	0.499999
C51	C	0.930347	0.073924	-0.000005
C52	C	1.430347	0.573924	0.499995
C53	C	1.069791	-0.192336	-0.000003
C54	C	1.569791	0.307664	0.499997
C55	C	1.156844	-0.200323	-0.000009
C56	C	1.656844	0.299677	0.499991
C57	C	0.920871	-0.351753	-0.000005
C58	C	1.420871	0.148247	0.499995
C59	C	0.922518	-0.451165	-0.000007
C60	C	1.422518	0.048835	0.499993
C61	C	0.994711	0.507685	-0.000004
C62	C	1.494711	1.007685	0.499996
C63	C	0.996252	0.414276	0.000002
C64	C	1.496252	0.914276	0.500002
C65	C	0.925598	0.362020	-0.000001
C66	C	1.425598	0.862020	0.499999
C67	C	0.853399	0.403176	-0.000001
C68	C	1.353399	0.903176	0.499999
C69	C	0.851859	0.496583	-0.000001
C70	C	1.351859	0.996583	0.499999
C71	C	0.856614	0.208487	-0.000005
C72	C	1.356614	0.708487	0.499995
C73	C	0.858153	0.115074	-0.000008
C74	C	1.358153	0.615074	0.499992
C75	C	1.001007	0.126181	-0.000002
C76	C	1.501007	0.626181	0.499998
C77	C	0.999467	0.219587	-0.000002
C78	C	1.499467	0.719587	0.499998
C79	C	0.927267	0.260737	-0.000003
C80	C	1.427267	0.760737	0.499997
N81	N	0.926420	-0.188621	0.246657
N82	N	1.426420	0.311379	0.746657
N83	N	0.926451	-0.188613	-0.246660
N84	N	1.426451	0.311387	0.253340
C85	C	0.878841	-0.130929	0.703525
C86	C	1.378841	0.369071	1.203525
C87	C	0.878838	-0.130926	0.603867
C88	C	1.378838	0.369074	1.103867
C89	C	0.926441	-0.188613	0.554027
C90	C	1.426441	0.311387	1.054027
C91	C	0.974056	-0.246300	0.603849
C92	C	1.474056	0.253700	1.103849
C93	C	0.974063	-0.246298	0.703504
C94	C	1.474063	0.253702	1.203504
C95	C	0.974037	-0.246302	0.396134
C96	C	1.474037	0.253698	0.896134
C97	C	0.974030	-0.246306	0.296472
C98	C	1.474030	0.253694	0.796472
C99	C	0.878813	-0.130930	0.296497
C100	C	1.378813	0.369070	0.796497
C101	C	0.878820	-0.130928	0.396153
C102	C	1.378820	0.369072	0.896153
C103	C	0.926434	-0.188617	0.445968
C104	C	1.426434	0.311383	0.945968
H105	H	0.556855	-0.015963	0.000003
H106	H	1.056855	0.484037	0.500003
H107	H	0.671604	-0.322857	0.000002
H108	H	1.171604	0.177143	0.500002
H109	H	1.012831	-0.293270	0.744063
H110	H	1.512831	0.206730	1.244063
H111	H	0.793071	0.530086	0.000005
H112	H	1.293071	1.030086	0.500005
H113	H	0.800621	0.072529	-0.000005
H114	H	1.300621	0.572529	0.499995
H115	H	1.057000	0.262133	-0.000005
H116	H	1.557000	0.762133	0.499995
H117	H	0.705246	-0.029592	0.000001
H118	H	1.205246	0.470408	0.500001
H119	H	0.296017	-0.361277	-0.000006
H120	H	0.796017	0.138723	0.499994
H121	H	1.012790	-0.293282	0.255894
H122	H	1.512790	0.206718	0.755894
H123	H	0.181263	-0.054389	-0.000006
H124	H	0.681263	0.445611	0.499994
H125	H	1.055040	0.380776	0.000005
H126	H	1.555040	0.880776	0.500005
H127	H	1.012819	-0.293265	0.563260
H128	H	1.512819	0.206735	1.063260
H129	H	0.797821	0.241988	0.000007
H130	H	1.297821	0.741988	0.500007
H131	H	0.329643	-0.068016	0.000009
H132	H	0.829643	0.431984	0.500009
H133	H	0.523224	-0.309232	-0.000005
H134	H	1.023224	0.190768	0.499995
H135	H	0.795871	0.360622	0.000001
H136	H	1.295871	0.860622	0.500001
H137	H	0.840073	-0.083958	0.744098
H138	H	1.340073	0.416042	1.244098
H139	H	0.147623	-0.347656	-0.000006
H140	H	0.647623	0.152344	0.499994
H141	H	1.052246	0.550226	-0.000009
H142	H	1.552246	1.050226	0.499991
H143	H	0.840053	-0.083959	0.436731
H144	H	1.340053	0.416041	0.936731
H145	H	1.059794	0.092672	-0.000089
H146	H	1.559794	0.592672	0.499911
H147	H	0.840072	-0.083951	0.563312
H148	H	1.340072	0.416049	1.063312
H149	H	0.840042	-0.083960	0.255933
H150	H	1.340042	0.416040	0.755933
H151	H	1.012812	-0.293276	0.436691
H152	H	1.512812	0.206724	0.936691
