data_functionalizedCrystal
_audit_creation_method	'MofGen! by Chris Wilmer'
_symmetry_space_group_name_H-M	'P1'
_symmetry_Int_Tables_number	1
_symmetry_cell_setting	triclinic
loop_
_symmetry_equiv_pos_as_xyz
  x,y,z
_cell_length_a	17.699083
_cell_length_b	17.019234
_cell_length_c	16.176319
_cell_angle_alpha	86.125122
_cell_angle_beta	90.002310
_cell_angle_gamma	83.335110
loop_
_atom_site_label
_atom_site_type_symbol
_atom_site_fract_x
_atom_site_fract_y
_atom_site_fract_z
O1	O	-1.004138	-0.099742	0.075734
O2	O	-0.504138	0.400258	0.575734
O3	O	-0.783768	-0.112721	0.076685
O4	O	-0.283768	0.387279	0.576685
O5	O	-0.900108	0.008613	0.068025
O6	O	-0.400108	0.508613	0.568025
O7	O	-0.887797	-0.221076	0.084395
O8	O	-0.387797	0.278924	0.584395
O9	O	-0.900097	0.008591	-0.069467
O10	O	-0.400097	0.508591	0.430533
O11	O	-0.783756	-0.112743	-0.060806
O12	O	-0.283756	0.387257	0.439194
O13	O	-1.004127	-0.099764	-0.061758
O14	O	-0.504127	0.400236	0.438242
Cu15	Cu	-0.893941	-0.106255	-0.073836
Cu16	Cu	-0.393941	0.393745	0.426164
Cu17	Cu	-0.893954	-0.106230	0.088764
Cu18	Cu	-0.393954	0.393770	0.588764
O19	O	-0.887786	-0.221098	-0.053097
O20	O	-0.387786	0.278902	0.446903
C21	C	-0.755565	-0.112267	0.007910
C22	C	-0.255565	0.387733	0.507910
C23	C	-0.671546	-0.110872	0.007821
C24	C	-0.171546	0.389128	0.507821
C25	C	-0.899638	0.037991	-0.002814
C26	C	-0.399638	0.537991	0.497186
C27	C	-0.898246	0.125558	-0.009049
C28	C	-0.398246	0.625558	0.490951
C29	C	-1.032330	-0.100218	0.007020
C30	C	-0.532330	0.399782	0.507020
C31	C	-1.116349	-0.101613	0.007114
C32	C	-0.616349	0.398387	0.507114
C33	C	-0.888256	-0.250476	0.017743
C34	C	-0.388256	0.249524	0.517743
C35	C	-0.889649	-0.338043	0.023984
C36	C	-0.389649	0.161957	0.523984
C37	C	-0.622969	-0.182092	0.012896
C38	C	-0.122969	0.317908	0.512896
C39	C	-0.544025	-0.180777	0.012792
C40	C	-0.044025	0.319223	0.512792
C41	C	-0.513659	-0.108240	0.007618
C42	C	-0.013659	0.391760	0.507618
C43	C	-0.562242	-0.037014	0.002539
C44	C	-0.062242	0.462986	0.502539
C45	C	-0.641185	-0.038330	0.002638
C46	C	-0.141185	0.461670	0.502638
C47	C	-0.243876	-0.031703	0.002140
C48	C	0.256124	0.468297	0.502140
C49	C	-0.164927	-0.030392	0.002044
C50	C	0.335073	0.469608	0.502044
C51	C	-0.146716	-0.174150	0.012294
C52	C	0.353284	0.325850	0.512294
C53	C	-0.225658	-0.175466	0.012393
C54	C	0.274342	0.324534	0.512393
C55	C	-0.274235	-0.104240	0.007310
C56	C	0.225765	0.395760	0.507310
C57	C	-0.359835	-0.105668	0.007422
C58	C	0.140165	0.394332	0.507422
C59	C	-0.428061	-0.106811	0.007512
C60	C	0.071939	0.393189	0.507512
C61	C	-0.890300	0.620816	-0.048037
C62	C	-0.390300	1.120816	0.451963
C63	C	-0.891616	0.538537	-0.042182
C64	C	-0.391616	1.038537	0.457818
C65	C	-0.892286	0.497402	0.035693
C66	C	-0.392286	0.997402	0.535693
C67	C	-0.891632	0.538549	0.107719
C68	C	-0.391632	1.038549	0.607719
C69	C	-0.890311	0.620825	0.101864
C70	C	-0.390311	1.120825	0.601864
C71	C	-0.896271	0.248981	0.057122
C72	C	-0.396271	0.748981	0.557122
C73	C	-0.897594	0.166699	0.062972
C74	C	-0.397594	0.666699	0.562972
C75	C	-0.897577	0.166694	-0.086931
C76	C	-0.397577	0.666694	0.413069
C77	C	-0.896260	0.248972	-0.092779
C78	C	-0.396260	0.748972	0.407221
C79	C	-0.895602	0.290111	-0.020753
C80	C	-0.395602	0.790111	0.479247
C81	C	-0.893633	0.413301	0.041680
C82	C	-0.393633	0.913301	0.541680
C83	C	-0.894249	0.374210	-0.026740
C84	C	-0.394249	0.874210	0.473260
N85	N	-0.893937	-0.106273	-0.188200
N86	N	-0.393937	0.393727	0.311800
C87	C	-0.848116	-0.058428	-0.756994
C88	C	-0.348116	0.441572	-0.256994
C89	C	-0.848115	-0.058434	-0.670447
C90	C	-0.348115	0.441566	-0.170447
C91	C	-0.893957	-0.106223	-0.623779
C92	C	-0.393957	0.393777	-0.123779
C93	C	-0.939809	-0.154002	-0.663664
C94	C	-0.439809	0.345998	-0.163664
C95	C	-0.939814	-0.153991	-0.750210
C96	C	-0.439814	0.346009	-0.250210
C97	C	-0.939791	-0.154047	-0.314632
C98	C	-0.439791	0.345953	0.185368
C99	C	-0.939780	-0.154056	-0.228080
C100	C	-0.439780	0.345944	0.271920
C101	C	-0.848091	-0.058489	-0.234869
C102	C	-0.348091	0.441511	0.265131
C103	C	-0.848096	-0.058478	-0.321415
C104	C	-0.348096	0.441522	0.178585
C105	C	-0.893951	-0.106255	-0.361292
C106	C	-0.393951	0.393745	0.138708
C107	C	-0.893953	-0.106246	-0.455137
C108	C	-0.393953	0.393754	0.044863
C109	C	-0.893951	-0.106236	-0.529935
C110	C	-0.393951	0.393764	-0.029935
N111	N	-0.893964	-0.106205	0.203127
N112	N	-0.393964	0.393795	0.703127
H113	H	-0.647686	-0.241160	0.017111
H114	H	-0.147686	0.258840	0.517111
H115	H	-0.893700	0.407705	-0.090146
H116	H	-0.393700	0.907705	0.409854
H117	H	-0.810784	-0.019526	-0.637982
H118	H	-0.310784	0.480474	-0.137982
H119	H	-0.895742	0.282467	0.115771
H120	H	-0.395742	0.782467	0.615771
C121	C	-0.895519	0.294214	-0.178442
C122	C	-0.395519	0.794214	0.321558
H123	H	-0.896089	0.257927	-0.220498
H124	H	-0.396089	0.757927	0.279502
H125	H	-0.939118	0.332418	-0.184285
H126	H	-0.439118	0.832418	0.315715
H127	H	-0.850882	0.320201	-0.183397
H128	H	-0.350882	0.820201	0.316603
H129	H	-0.977139	-0.192909	-0.625660
H130	H	-0.477139	0.307091	-0.125660
C131	C	-0.797672	-0.005909	-0.372745
C132	C	-0.297672	0.494091	0.127255
H133	H	-0.770372	0.022552	-0.336599
H134	H	-0.270372	0.522552	0.163401
H135	H	-0.762805	-0.038274	-0.404213
H136	H	-0.262805	0.461726	0.095787
H137	H	-0.828740	0.030443	-0.409083
H138	H	-0.328740	0.530443	0.090917
C139	C	-0.528846	0.042778	-0.003152
C140	C	-0.028846	0.542778	0.496848
H141	H	-0.569085	0.085006	-0.006168
H142	H	-0.069085	0.585006	0.493832
H143	H	-0.498427	0.046288	0.044544
H144	H	0.001573	0.546288	0.544544
H145	H	-0.498432	0.046271	-0.051355
H146	H	0.001568	0.546271	0.448645
C147	C	-0.797655	-0.005928	-0.191006
C148	C	-0.297655	0.494072	0.308994
H149	H	-0.770348	0.022526	-0.231196
H150	H	-0.270348	0.522526	0.268804
H151	H	-0.828706	0.030416	-0.159824
H152	H	-0.328706	0.530416	0.340176
H153	H	-0.762781	-0.038311	-0.154948
H154	H	-0.262781	0.461689	0.345052
H155	H	-0.977113	-0.192973	-0.190085
H156	H	-0.477113	0.307027	0.309915
H157	H	-0.680736	0.019665	-0.001495
H158	H	-0.180736	0.519665	0.498505
H159	H	-0.889758	0.654302	-0.111452
H160	H	-0.389758	1.154302	0.388548
H161	H	-0.977128	-0.192950	-0.347090
H162	H	-0.477128	0.307050	0.152910
C163	C	-0.797683	-0.005866	-0.808321
C164	C	-0.297683	0.494134	-0.308321
H165	H	-0.770381	0.022591	-0.772172
H166	H	-0.270381	0.522591	-0.272172
H167	H	-0.762816	-0.038237	-0.839782
H168	H	-0.262816	0.461763	-0.339782
H169	H	-0.828742	0.030489	-0.844663
H170	H	-0.328742	0.530489	-0.344663
C171	C	-0.894379	0.368054	0.127340
C172	C	-0.394379	0.868054	0.627340
H173	H	-0.893801	0.404337	0.169400
H174	H	-0.393801	0.904337	0.669400
H175	H	-0.939010	0.342064	0.132289
H176	H	-0.439010	0.842064	0.632289
H177	H	-0.850774	0.329852	0.133183
H178	H	-0.350774	0.829852	0.633183
C179	C	-0.990242	-0.206551	-0.794076
C180	C	-0.490242	0.293449	-0.294076
H181	H	-1.017538	-0.235020	-0.753888
H182	H	-0.517538	0.264980	-0.253888
H183	H	-1.025114	-0.174176	-0.830136
H184	H	-0.525114	0.325824	-0.330136
H185	H	-0.959181	-0.242895	-0.825257
H186	H	-0.459181	0.257105	-0.325257
H187	H	-0.898111	0.133189	-0.145570
H188	H	-0.398111	0.633189	0.354430
C189	C	-0.898326	0.121448	0.148637
C190	C	-0.398326	0.621448	0.648637
H191	H	-0.899215	0.066557	0.141805
H192	H	-0.399215	0.566557	0.641805
H193	H	-0.853996	0.128822	0.178915
H194	H	-0.353996	0.628822	0.678915
H195	H	-0.942232	0.141041	0.178033
H196	H	-0.442232	0.641041	0.678033
C197	C	-0.490593	-0.259119	0.018378
C198	C	0.009407	0.240881	0.518378
H199	H	-0.519984	-0.302507	0.021484
H200	H	-0.019984	0.197493	0.521484
H201	H	-0.459423	-0.261606	-0.029394
H202	H	0.040577	0.238394	0.470606
H203	H	-0.459415	-0.261583	0.066504
H204	H	0.040585	0.238417	0.566504
C205	C	-0.892370	0.493306	0.193383
C206	C	-0.392370	0.993306	0.693383
H207	H	-0.891786	0.529594	0.235437
H208	H	-0.391786	1.029594	0.735437
H209	H	-0.937002	0.467319	0.198340
H210	H	-0.437002	0.967319	0.698340
H211	H	-0.848766	0.455103	0.199226
H212	H	-0.348766	0.955103	0.699226
C213	C	-0.892341	0.493286	-0.121405
C214	C	-0.392341	0.993286	0.378595
H215	H	-0.891764	0.529570	-0.168623
H216	H	-0.391764	1.029570	0.331377
H217	H	-0.848742	0.455083	-0.121802
H218	H	-0.348742	0.955083	0.378198
H219	H	-0.936978	0.467300	-0.122674
H220	H	-0.436978	0.967300	0.377326
C221	C	-0.131527	0.049402	-0.003656
C222	C	0.368473	0.549402	0.496344
H223	H	-0.171763	0.091634	-0.006677
H224	H	0.328237	0.591634	0.493323
H225	H	-0.101107	0.052916	0.044039
H226	H	0.398893	0.552916	0.544039
H227	H	-0.101112	0.052886	-0.051859
H228	H	0.398888	0.552886	0.448141
C229	C	-0.259057	-0.255256	0.018081
C230	C	0.240943	0.244744	0.518081
H231	H	-0.218818	-0.297485	0.021081
H232	H	0.281182	0.202515	0.521081
H233	H	-0.289472	-0.258753	0.066277
H234	H	0.210528	0.241247	0.566277
H235	H	-0.289474	-0.258761	-0.029622
H236	H	0.210526	0.241239	0.470378
C237	C	-0.093280	-0.252498	0.017874
C238	C	0.406720	0.247502	0.517874
H239	H	-0.041915	-0.241329	0.017066
H240	H	0.458085	0.258671	0.517066
H241	H	-0.102471	-0.282239	0.067943
H242	H	0.397529	0.217761	0.567943
H243	H	-0.102482	-0.282254	-0.027956
H244	H	0.397518	0.217746	0.472044
C245	C	-0.889595	0.666084	0.181084
C246	C	-0.389595	1.166084	0.681084
H247	H	-0.888704	0.720974	0.166444
H248	H	-0.388704	1.220974	0.666444
H249	H	-0.933929	0.658711	0.212400
H250	H	-0.433929	1.158711	0.712400
H251	H	-0.845693	0.646492	0.213278
H252	H	-0.345693	1.146492	0.713278
H253	H	-0.283418	0.026293	-0.001999
H254	H	0.216582	0.526293	0.498001
