data_functionalizedCrystal
_audit_creation_method	'MofGen! by Chris Wilmer'
_symmetry_space_group_name_H-M	'P1'
_symmetry_Int_Tables_number	1
_symmetry_cell_setting	triclinic
loop_
_symmetry_equiv_pos_as_xyz
  x,y,z
_cell_length_a	11.792241
_cell_length_b	10.489716
_cell_length_c	10.268362
_cell_angle_alpha	89.998762
_cell_angle_beta	89.999626
_cell_angle_gamma	84.361276
loop_
_atom_site_label
_atom_site_type_symbol
_atom_site_fract_x
_atom_site_fract_y
_atom_site_fract_z
O1	O	1.507367	0.174835	-0.108161
O2	O	1.177073	0.192853	-0.108190
O3	O	1.349750	-0.001782	-0.108180
O4	O	1.334690	0.369469	-0.108172
O5	O	1.349735	-0.001790	0.108421
O6	O	1.177058	0.192845	0.108410
O7	O	1.507352	0.174826	0.108439
Cu8	Cu	1.342203	0.183835	0.128202
Cu9	Cu	1.342221	0.183845	-0.127953
O10	O	1.334674	0.369461	0.108429
C11	C	1.134771	0.191717	0.000106
C12	C	1.008749	0.188329	0.000094
C13	C	0.778020	0.182100	0.000132
C14	C	0.906415	0.185561	0.000111
C15	C	1.348611	-0.049314	0.000116
C16	C	1.345225	-0.190934	0.000104
C17	C	1.451116	-0.288968	0.000125
C18	C	1.395169	-0.366134	-0.106671
C19	C	1.395129	-0.366106	0.106880
C20	C	1.289322	-0.266234	-0.106781
C21	C	1.289298	-0.266201	0.106866
C22	C	1.233272	-0.343318	0.000043
C23	C	1.549653	0.175962	0.000140
C24	C	1.675676	0.179350	0.000143
C25	C	1.335814	0.416994	0.000130
C26	C	1.339199	0.558613	0.000133
N27	N	1.342199	0.183827	0.308368
N28	N	1.342235	0.183842	-0.308119
C29	C	1.342215	0.183842	0.574039
C30	C	1.342203	0.183838	0.426201
H31	H	1.543223	-0.264606	0.000025
Br32	Br	1.214870	-0.193809	-0.257439
Br33	Br	1.079641	-0.383519	-0.000057
Br34	Br	1.469679	-0.438880	-0.257149
Br35	Br	1.214872	-0.193382	0.257352
H36	H	1.439846	-0.409734	0.197166
