data_functionalizedCrystal
_audit_creation_method	'MofGen! by Chris Wilmer'
_symmetry_space_group_name_H-M	'P1'
_symmetry_Int_Tables_number	1
_symmetry_cell_setting	triclinic
loop_
_symmetry_equiv_pos_as_xyz
  x,y,z
_cell_length_a	12.827893
_cell_length_b	12.827892
_cell_length_c	19.805399
_cell_angle_alpha	89.977281
_cell_angle_beta	89.983356
_cell_angle_gamma	90.015362
loop_
_atom_site_label
_atom_site_type_symbol
_atom_site_fract_x
_atom_site_fract_y
_atom_site_fract_z
Zn1	Zn	1.597642	-0.416058	-0.382690
Zn2	Zn	1.597545	-0.590813	-0.269511
Zn3	Zn	1.422892	-0.416087	-0.269520
Zn4	Zn	1.422869	-0.590758	-0.382664
O5	O	1.510237	-0.503429	-0.326096
O6	O	1.743866	-0.439251	-0.367683
O7	O	1.574345	-0.567671	-0.174796
O8	O	1.446123	-0.269847	-0.284547
O9	O	1.743794	-0.567643	-0.284532
O10	O	1.574512	-0.269826	-0.367692
O11	O	1.446029	-0.439300	-0.174802
O12	O	1.276653	-0.439246	-0.284522
O13	O	1.446085	-0.567548	-0.477384
O14	O	1.276636	-0.567576	-0.367648
O15	O	1.574490	-0.439197	-0.477403
O16	O	1.574323	-0.737042	-0.284506
O17	O	1.445990	-0.737001	-0.367639
C18	C	1.238727	-0.503409	-0.326083
C19	C	1.122574	-0.503425	-0.326094
C20	C	1.510172	-0.774939	-0.326084
C21	C	1.510239	-0.891092	-0.326101
C22	C	1.070809	-0.567026	-0.367164
C23	C	0.950758	-0.567045	-0.367176
C24	C	1.446869	-1.063015	-0.284955
C25	C	1.446797	-0.942964	-0.284936
C26	C	1.782807	-0.503450	-0.326109
C27	C	1.898960	-0.503459	-0.326115
C28	C	1.510296	-0.503363	-0.502639
C29	C	1.510321	-0.503335	-0.577871
C30	C	1.510331	-0.230859	-0.326123
C31	C	1.510371	-0.114706	-0.326135
C32	C	1.577183	-0.436499	-0.613226
C33	C	1.577193	-0.436469	-0.683915
C34	C	1.510347	-0.503281	-0.719247
C35	C	1.443477	-0.570119	-0.683886
C36	C	1.443462	-0.570143	-0.613199
C37	C	1.443536	-0.570022	-0.968960
C38	C	1.443559	-0.569995	-1.039652
C39	C	1.577268	-0.436347	-1.039675
C40	C	1.577252	-0.436372	-0.968988
C41	C	1.510380	-0.503206	-0.933634
C42	C	1.510367	-0.503237	-0.856986
C43	C	1.510363	-0.503256	-0.795894
C44	C	1.510239	-0.503419	-0.150240
C45	C	1.510416	-0.503153	-0.075008
H46	H	1.115367	-0.621460	-0.402319
H47	H	1.631642	-0.382047	-0.712698
Cl48	Cl	1.362997	-1.131899	-0.230549
Cl49	Cl	0.882033	-0.651124	-0.421462
H50	H	1.631690	-0.381970	-0.940224
Cl51	Cl	0.967678	-0.419389	-0.271820
Cl52	Cl	1.594226	-1.045821	-0.380552
H53	H	1.392434	-0.898512	-0.249678
Cl54	Cl	1.359515	-0.653992	-1.084068
Cl55	Cl	1.053788	-0.419368	-0.271821
Cl56	Cl	1.359437	-0.654108	-0.728304
Cl57	Cl	1.594191	-0.959712	-0.380534
H58	H	1.631621	-0.382097	-0.584464
Cl59	Cl	1.359468	-0.654043	-0.924524
Cl60	Cl	1.661334	-0.352321	-1.084125
Cl61	Cl	1.359400	-0.654166	-0.568752
