data_functionalizedCrystal
_audit_creation_method	'MofGen! by Chris Wilmer'
_symmetry_space_group_name_H-M	'P1'
_symmetry_Int_Tables_number	1
_symmetry_cell_setting	triclinic
loop_
_symmetry_equiv_pos_as_xyz
  x,y,z
_cell_length_a	11.169417
_cell_length_b	11.169416
_cell_length_c	18.215399
_cell_angle_alpha	90.021626
_cell_angle_beta	90.018200
_cell_angle_gamma	90.009278
loop_
_atom_site_label
_atom_site_type_symbol
_atom_site_fract_x
_atom_site_fract_y
_atom_site_fract_z
Zn1	Zn	-1.834921	0.477853	-0.416116
Zn2	Zn	-1.834823	0.678562	-0.293063
Zn3	Zn	-1.634219	0.477887	-0.293067
Zn4	Zn	-1.634214	0.678489	-0.416092
O5	O	-1.734544	0.578198	-0.354585
O6	O	-2.002858	0.504494	-0.399802
O7	O	-1.808173	0.651986	-0.190080
O8	O	-1.660886	0.309933	-0.309401
O9	O	-2.002785	0.651953	-0.309395
O10	O	-1.808341	0.309908	-0.399805
O11	O	-1.660790	0.504552	-0.190082
O12	O	-1.466269	0.504482	-0.309378
O13	O	-1.660878	0.651830	-0.519079
O14	O	-1.466265	0.651863	-0.399764
O15	O	-1.808336	0.504424	-0.519097
O16	O	-1.808168	0.846502	-0.309372
O17	O	-1.660782	0.846449	-0.399760
C18	C	-1.422720	0.578169	-0.354569
C19	C	-1.289320	0.578186	-0.354580
C20	C	-1.734497	0.890023	-0.354579
C21	C	-1.734586	1.023423	-0.354601
C22	C	-1.047587	0.578218	-0.354595
C23	C	-1.180987	0.578200	-0.354584
C24	C	-1.734617	0.578115	-0.546538
C25	C	-1.734649	0.578080	-0.628337
C26	C	-1.734625	0.265156	-0.354606
C27	C	-1.734659	0.131756	-0.354616
C28	C	-1.811458	0.501254	-0.816541
C29	C	-1.811472	0.501219	-0.893400
C30	C	-1.657924	0.654721	-0.893370
C31	C	-1.657905	0.654749	-0.816513
C32	C	-1.734678	0.578017	-0.778100
C33	C	-1.734712	0.577954	-0.931816
C34	C	-1.734727	0.577917	-1.015150
C35	C	-1.734662	0.578052	-0.694761
C36	C	-1.734541	0.578194	-0.163378
C37	C	-1.734742	0.577891	-0.081580
H38	H	-1.873968	0.438770	-0.785268
H39	H	-1.595421	0.717196	-0.924655
H40	H	-1.595373	0.717258	-0.785213
H41	H	-1.873992	0.438708	-0.924695
