data_functionalizedCrystal
_audit_creation_method	'MofGen! by Chris Wilmer'
_symmetry_space_group_name_H-M	'P1'
_symmetry_Int_Tables_number	1
_symmetry_cell_setting	triclinic
loop_
_symmetry_equiv_pos_as_xyz
  x,y,z
_cell_length_a	10.968094
_cell_length_b	9.482934
_cell_length_c	16.992695
_cell_angle_alpha	80.039672
_cell_angle_beta	92.378106
_cell_angle_gamma	68.685465
loop_
_atom_site_label
_atom_site_type_symbol
_atom_site_fract_x
_atom_site_fract_y
_atom_site_fract_z
O1	O	1.713227	-0.308272	-0.079015
O2	O	1.336728	-0.213955	-0.099035
O3	O	1.523470	-0.260747	0.025089
O4	O	1.526485	-0.261480	-0.203138
O5	O	1.561472	-0.512062	0.050358
O6	O	1.374730	-0.465269	-0.073766
O7	O	1.751229	-0.559587	-0.053746
Cu8	Cu	1.566450	-0.535375	-0.061449
Cu9	Cu	1.521508	-0.238166	-0.091332
O10	O	1.564487	-0.512795	-0.177869
C11	C	1.307332	-0.327488	-0.086853
C12	C	1.163121	-0.291361	-0.088194
C13	C	0.969455	-0.368096	-0.077081
C14	C	1.118506	-0.405449	-0.075699
N15	N	1.489898	-0.029126	-0.112345
C16	C	1.557129	0.026227	-0.067655
C17	C	1.530819	0.200237	-0.085132
C18	C	1.780625	-0.446051	-0.065927
C19	C	1.924834	-0.482167	-0.064587
C20	C	1.538588	-0.385432	0.066858
C21	C	1.527001	-0.382529	0.153670
N22	N	1.598059	0.255584	-0.040436
C23	C	1.549369	-0.388107	-0.219639
C24	C	1.560954	-0.391000	-0.306452
C25	C	1.638794	-0.410536	0.206150
C26	C	1.627897	-0.407792	0.287717
C27	C	1.505209	-0.377052	0.316804
C28	C	1.393407	-0.349039	0.264317
C29	C	1.404303	-0.351772	0.182751
C30	C	1.460048	-0.365719	0.559495
C31	C	1.449161	-0.362993	0.641069
C32	C	1.683652	-0.421744	0.664462
C33	C	1.694539	-0.424483	0.582894
C34	C	1.582736	-0.396462	0.530414
N35	N	1.494069	-0.374252	0.400179
N36	N	1.593876	-0.399251	0.447040
H37	H	1.634171	-0.055206	-0.016458
H38	H	0.897310	-0.242781	-0.088795
H39	H	1.190649	-0.530772	-0.063975
O40	O	1.771121	-0.443677	0.174776
H41	H	1.847022	-0.462671	0.224973
O42	O	1.428745	0.308087	-0.152948
H43	H	1.424081	0.427841	-0.156025
O44	O	1.748471	-0.437997	0.344322
H45	H	1.764589	-0.540576	0.392353
O46	O	1.826861	-0.457602	0.551516
H47	H	1.902766	-0.476594	0.601711
H48	H	0.996981	-0.607482	-0.052864
H49	H	1.675106	0.174153	0.010764
H50	H	1.412866	0.052307	-0.163547
O51	O	1.804228	-0.451959	0.721068
H52	H	1.891372	-0.473805	0.687139
O53	O	1.316825	-0.329819	0.672444
H54	H	1.240908	-0.310775	0.622247
O55	O	1.339473	-0.335536	0.502900
H56	H	1.252338	-0.313730	0.536835
H57	H	1.293510	-0.324000	0.288006
H58	H	1.313270	-0.328965	0.140022
O59	O	1.067578	-0.125349	-0.103724
H60	H	0.965499	-0.122056	-0.102380
