data_functionalizedCrystal
_audit_creation_method	'MofGen! by Chris Wilmer'
_symmetry_space_group_name_H-M	'P1'
_symmetry_Int_Tables_number	1
_symmetry_cell_setting	triclinic
loop_
_symmetry_equiv_pos_as_xyz
  x,y,z
_cell_length_a	21.295418
_cell_length_b	18.050582
_cell_length_c	18.050589
_cell_angle_alpha	90.018205
_cell_angle_beta	90.044036
_cell_angle_gamma	90.034107
loop_
_atom_site_label
_atom_site_type_symbol
_atom_site_fract_x
_atom_site_fract_y
_atom_site_fract_z
Zn1	Zn	0.962306	0.420315	-0.295393
Zn2	Zn	0.962230	0.296135	-0.419576
Zn3	Zn	0.857047	0.296098	-0.295439
Zn4	Zn	0.857003	0.420242	-0.419580
O5	O	0.909646	0.358197	-0.357497
O6	O	1.050385	0.403889	-0.311846
O7	O	0.948264	0.192205	-0.403127
O8	O	0.871060	0.312591	-0.191508
O9	O	1.050330	0.312654	-0.403083
O10	O	0.948393	0.403853	-0.191475
O11	O	0.870986	0.192178	-0.311924
O12	O	0.768952	0.312520	-0.311927
O13	O	0.870985	0.524176	-0.403089
O14	O	0.768919	0.403727	-0.403133
O15	O	0.948350	0.524230	-0.311849
O16	O	0.948221	0.312582	-0.523502
O17	O	0.870911	0.403763	-0.523504
C18	C	0.746095	0.358112	-0.357536
C19	C	0.676127	0.358093	-0.357571
C20	C	0.909570	0.358185	-0.550449
C21	C	0.909596	0.358205	-0.632995
C22	C	0.909671	0.551903	-0.357464
C23	C	0.909682	0.634449	-0.357450
C24	C	0.643260	0.405514	-0.405125
C25	C	0.577517	0.405547	-0.405106
C26	C	0.544644	0.358146	-0.357542
C27	C	0.577519	0.310722	-0.309979
C28	C	0.643260	0.310695	-0.309993
N29	N	0.441377	0.293191	-0.351735
N30	N	0.378926	0.293218	-0.351726
C31	C	0.346570	0.358225	-0.357495
N32	N	0.379024	0.423205	-0.363288
N33	N	0.441481	0.423177	-0.363301
C34	C	0.473359	0.358170	-0.357521
C35	C	0.242417	0.405686	-0.405031
C36	C	0.176673	0.405721	-0.405008
C37	C	0.176677	0.310889	-0.309884
C38	C	0.242419	0.310861	-0.309904
C39	C	0.275285	0.358259	-0.357481
C40	C	1.073837	0.358284	-0.357459
C41	C	1.143805	0.358320	-0.357442
C42	C	0.909658	0.165245	-0.357476
C43	C	0.909770	0.082700	-0.357281
C44	C	0.867642	0.833870	-0.406999
C45	C	0.925074	0.883286	-0.425133
C46	C	0.909713	0.785579	-0.357394
C47	C	0.852313	0.883246	-0.339238
C48	C	0.909738	0.931565	-0.357340
C49	C	0.967174	0.833908	-0.375564
C50	C	0.894375	0.833863	-0.289637
C51	C	0.951846	0.883256	-0.307746
C52	C	0.909697	0.701481	-0.357426
C53	C	0.909759	1.015661	-0.357307
C54	C	0.867596	0.407771	-0.832474
C55	C	0.852255	0.339998	-0.881913
C56	C	0.909657	0.358214	-0.784125
C57	C	0.925029	0.425995	-0.881768
C58	C	0.909716	0.358230	-0.930111
C59	C	0.894287	0.290405	-0.832477
C60	C	0.967087	0.376448	-0.832328
C61	C	0.951768	0.308628	-0.881745
C62	C	0.909622	0.358206	-0.700027
C63	C	0.909751	0.358230	-1.014207
C64	C	0.909740	0.358226	-0.163792
C65	C	0.909780	0.358238	-0.081246
H66	H	0.670015	0.444110	-0.443865
C67	C	0.999854	0.251956	-0.910794
N68	N	1.036069	0.209268	-0.932677
C69	C	0.541358	0.258581	-0.257658
N70	N	0.514121	0.219308	-0.218247
H71	H	0.881370	0.812138	-0.232376
H72	H	0.149912	0.272298	-0.271153
C73	C	1.032785	0.804754	-0.396374
N74	N	1.082201	0.782793	-0.412052
H75	H	0.938006	0.483311	-0.903420
C76	C	0.278572	0.457833	-0.457358
N77	N	0.305802	0.497111	-0.496770
H78	H	0.269180	0.272242	-0.271184
C79	C	0.679415	0.258522	-0.257682
N80	N	0.706648	0.219223	-0.218282
C81	C	0.819633	0.804558	-0.463745
N82	N	0.783478	0.782475	-0.506489
H83	H	1.015615	0.391889	-0.810534
C84	C	0.942618	0.912617	-0.502511
N85	N	0.955829	0.934708	-0.560794
C86	C	0.999978	0.912368	-0.251043
N87	N	1.036233	0.934296	-0.208337
C88	C	0.786678	0.319166	-0.911337
N89	N	0.737284	0.303480	-0.933496
H90	H	0.149914	0.444341	-0.443730
C91	C	0.819472	0.464305	-0.803238
N92	N	0.783224	0.506881	-0.781215
C93	C	0.786720	0.912522	-0.318519
N94	N	0.737314	0.934569	-0.302919
C95	C	0.541356	0.457714	-0.457424
N96	N	0.514121	0.497004	-0.496831
C97	C	0.876675	0.212953	-0.803350
N98	N	0.863408	0.154618	-0.781410
