data_functionalizedCrystal
_audit_creation_method	'MofGen! by Chris Wilmer'
_symmetry_space_group_name_H-M	'P1'
_symmetry_Int_Tables_number	1
_symmetry_cell_setting	triclinic
loop_
_symmetry_equiv_pos_as_xyz
  x,y,z
_cell_length_a	18.215407
_cell_length_b	21.295417
_cell_length_c	18.215399
_cell_angle_alpha	89.968895
_cell_angle_beta	89.982187
_cell_angle_gamma	90.024215
loop_
_atom_site_label
_atom_site_type_symbol
_atom_site_fract_x
_atom_site_fract_y
_atom_site_fract_z
Zn1	Zn	1.125047	-0.250708	-0.416060
Zn2	Zn	1.625047	0.249292	0.083940
Zn3	Zn	1.124945	-0.355979	-0.292987
Zn4	Zn	1.624945	0.144021	0.207013
Zn5	Zn	1.001980	-0.250718	-0.293012
Zn6	Zn	1.501980	0.249282	0.206988
Zn7	Zn	1.001935	-0.355933	-0.416016
Zn8	Zn	1.501935	0.144067	0.083984
O9	O	1.063477	-0.303334	-0.354519
O10	O	1.563477	0.196666	0.145481
O11	O	1.228018	-0.264687	-0.399742
O12	O	1.728018	0.235313	0.100258
O13	O	1.108610	-0.342039	-0.190006
O14	O	1.608610	0.157961	0.309994
O15	O	1.018366	-0.162627	-0.309363
O16	O	1.518366	0.337373	0.190637
O17	O	1.227943	-0.342030	-0.309321
O18	O	1.727943	0.157970	0.190679
O19	O	1.108783	-0.162620	-0.399766
O20	O	1.608783	0.337380	0.100234
O21	O	1.018267	-0.264704	-0.190024
O22	O	1.518267	0.235296	0.309976
O23	O	0.898990	-0.264659	-0.309321
O24	O	1.398990	0.235341	0.190679
O25	O	1.018290	-0.341951	-0.519006
O26	O	1.518290	0.158049	-0.019006
O27	O	0.898957	-0.341961	-0.399691
O28	O	1.398957	0.158039	0.100309
O29	O	1.108740	-0.264643	-0.519039
O30	O	1.608740	0.235357	-0.019039
O31	O	1.108567	-0.444062	-0.309278
O32	O	1.608567	0.055938	0.190722
O33	O	1.018192	-0.444029	-0.399667
O34	O	1.518192	0.055971	0.100333
C35	C	0.872271	-0.303307	-0.354504
C36	C	1.372271	0.196693	0.145496
C37	C	0.790472	-0.303310	-0.354516
C38	C	1.290472	0.196690	0.145484
C39	C	0.525448	-0.263140	-0.401676
C40	C	1.025448	0.236860	0.098324
C41	C	0.602306	-0.263130	-0.401674
C42	C	1.102306	0.236870	0.098326
C43	C	0.602248	-0.343549	-0.307377
C44	C	1.102248	0.156451	0.192623
C45	C	0.525390	-0.343562	-0.307384
C46	C	1.025390	0.156438	0.192616
C47	C	0.486992	-0.303354	-0.354532
C48	C	0.986992	0.196646	0.145468
C49	C	0.640708	-0.303331	-0.354523
C50	C	1.140708	0.196669	0.145477
C51	C	0.724042	-0.303320	-0.354520
C52	C	1.224042	0.196680	0.145480
C53	C	0.403653	-0.303365	-0.354536
C54	C	0.903653	0.196635	0.145464
C55	C	1.063383	-0.466886	-0.354481
C56	C	1.563383	0.033114	0.145519
C57	C	1.063410	-0.536854	-0.354490
C58	C	1.563410	-0.036854	0.145510
C59	C	1.110464	-0.569660	-0.401597
C60	C	1.610464	-0.069660	0.098403
C61	C	1.110490	-0.635402	-0.401615
C62	C	1.610490	-0.135402	0.098385
C63	C	1.063470	-0.668337	-0.354513
C64	C	1.563470	-0.168337	0.145487
C65	C	1.016408	-0.635523	-0.307404
C66	C	1.516408	-0.135523	0.192596
C67	C	1.016378	-0.569782	-0.307392
C68	C	1.516378	-0.069782	0.192608
N69	N	1.057911	-0.771599	-0.290107
N70	N	1.557911	-0.271599	0.209893
N71	N	1.057944	-0.834050	-0.290120
N72	N	1.557944	-0.334050	0.209880
C73	C	1.063556	-0.866411	-0.354547
C74	C	1.563556	-0.366411	0.145453
N75	N	1.069149	-0.833962	-0.418961
N76	N	1.569149	-0.333962	0.081039
N77	N	1.069120	-0.771505	-0.418947
N78	N	1.569120	-0.271505	0.081053
C79	C	1.063497	-0.739622	-0.354521
C80	C	1.563497	-0.239622	0.145479
C81	C	1.110640	-0.970503	-0.401677
C82	C	1.610640	-0.470503	0.098323
C83	C	1.110661	-1.036246	-0.401696
C84	C	1.610661	-0.536246	0.098304
C85	C	1.016583	-1.036366	-0.307478
C86	C	1.516583	-0.536366	0.192522
C87	C	1.016558	-0.970623	-0.307465
C88	C	1.516558	-0.470623	0.192535
C89	C	1.063591	-0.937696	-0.354564
C90	C	1.563591	-0.437696	0.145436
C91	C	1.255430	-0.303363	-0.354534
C92	C	1.755430	0.196637	0.145466
C93	C	1.337229	-0.303375	-0.354540
C94	C	1.837229	0.196625	0.145460
C95	C	1.063522	-0.303291	-0.546472
C96	C	1.563522	0.196709	-0.046472
C97	C	1.063541	-0.303272	-0.628271
C98	C	1.563541	0.196728	-0.128271
C99	C	1.063591	-0.139144	-0.354572
C100	C	1.563591	0.360856	0.145428
C101	C	1.063640	-0.069176	-0.354595
C102	C	1.563640	0.430824	0.145405
C103	C	1.110655	-0.262980	-0.816483
C104	C	1.610655	0.237020	-0.316483
C105	C	1.110664	-0.262962	-0.893341
C106	C	1.610664	0.237038	-0.393341
C107	C	1.016479	-0.343467	-0.893297
C108	C	1.516479	0.156533	-0.393297
C109	C	1.016467	-0.343482	-0.816439
C110	C	1.516467	0.156518	-0.316439
C111	C	1.063559	-0.303239	-0.778034
C112	C	1.563559	0.196761	-0.278034
C113	C	1.063580	-0.303206	-0.931750
C114	C	1.563580	0.196794	-0.431750
C115	C	1.063589	-0.303187	-1.015084
C116	C	1.563589	0.196813	-0.515084
C117	C	1.063549	-0.303258	-0.694695
C118	C	1.563549	0.196742	-0.194695
C119	C	1.063475	-0.303332	-0.163312
C120	C	1.563475	0.196668	0.336688
C121	C	1.063598	-0.303173	-0.081514
C122	C	1.563598	0.196827	0.418486
H123	H	0.494079	-0.376313	-0.268993
H124	H	0.994079	0.123687	0.231007
H125	H	0.978140	-0.376233	-0.924575
H126	H	1.478140	0.123767	-0.424575
H127	H	0.978111	-0.376265	-0.785134
H128	H	1.478111	0.123735	-0.285134
N129	N	0.641474	-0.384603	-0.259202
N130	N	1.141474	0.115397	0.240798
N131	N	0.632863	-0.380353	-0.191305
N132	N	1.132863	0.119647	0.308695
H133	H	0.660566	-0.409346	-0.157277
H134	H	1.160566	0.090654	0.342723
H135	H	0.494186	-0.230399	-0.440067
H136	H	0.994186	0.269601	0.059933
N137	N	1.158740	-0.221861	-0.777252
N138	N	1.658740	0.278139	-0.277252
N139	N	1.132862	-0.181753	-0.734379
N140	N	1.632862	0.318247	-0.234379
H141	H	1.166820	-0.152708	-0.706674
H142	H	1.666820	0.347292	-0.206674
N143	N	0.641575	-0.222041	-0.449828
N144	N	1.141575	0.277959	0.050172
N145	N	0.633002	-0.163952	-0.445063
N146	N	1.133002	0.336048	0.054937
H147	H	0.660734	-0.134931	-0.479075
H148	H	1.160734	0.365069	0.020925
N149	N	1.158509	-0.536036	-0.449710
N150	N	1.658509	-0.036036	0.050290
N151	N	1.200518	-0.565340	-0.491767
N152	N	1.700518	-0.065340	0.008233
H153	H	1.234450	-0.541593	-0.525749
H154	H	1.734450	-0.041593	-0.025749
N155	N	1.158560	-0.668912	-0.449740
N156	N	1.658560	-0.168912	0.050260
N157	N	1.200546	-0.639505	-0.491788
N158	N	1.700546	-0.139505	0.008212
H159	H	1.234497	-0.663169	-0.525777
H160	H	1.734497	-0.163169	-0.025777
H161	H	0.978061	-0.543071	-0.269031
H162	H	1.478061	-0.043071	0.230969
N163	N	0.968378	-0.669171	-0.259300
N164	N	1.468378	-0.169171	0.240700
N165	N	0.968411	-0.727868	-0.259316
N166	N	1.468411	-0.227868	0.240684
H167	H	0.934486	-0.751632	-0.225343
H168	H	1.434486	-0.251632	0.274657
H169	H	1.149013	-0.230178	-0.924643
H170	H	1.649013	0.269822	-0.424643
H171	H	1.148934	-0.943692	-0.440029
H172	H	1.648934	-0.443692	0.059971
N173	N	0.968540	-1.069990	-0.259368
N174	N	1.468540	-0.569990	0.240632
N175	N	0.900627	-1.062688	-0.264192
N176	N	1.400627	-0.562688	0.235808
H177	H	0.866692	-1.086437	-0.230216
H178	H	1.366692	-0.586437	0.269784
H179	H	1.148977	-1.062956	-0.440059
H180	H	1.648977	-0.562956	0.059941
N181	N	0.968490	-0.937119	-0.259341
N182	N	1.468490	-0.437119	0.240659
N183	N	0.926508	-0.966529	-0.217291
N184	N	1.426508	-0.466529	0.282709
H185	H	0.892555	-0.942867	-0.183302
H186	H	1.392555	-0.442867	0.316698
