data_functionalizedCrystal
_audit_creation_method	'MofGen! by Chris Wilmer'
_symmetry_space_group_name_H-M	'P1'
_symmetry_Int_Tables_number	1
_symmetry_cell_setting	triclinic
loop_
_symmetry_equiv_pos_as_xyz
  x,y,z
_cell_length_a	23.532361
_cell_length_b	23.532407
_cell_length_c	22.610064
_cell_angle_alpha	89.989507
_cell_angle_beta	90.010993
_cell_angle_gamma	97.160831
loop_
_atom_site_label
_atom_site_type_symbol
_atom_site_fract_x
_atom_site_fract_y
_atom_site_fract_z
O1	O	0.755286	-0.069007	0.049133
O2	O	0.589419	-0.079038	0.049148
O3	O	0.677354	0.008910	0.049127
O4	O	0.667350	-0.156955	0.049154
O5	O	0.677328	0.008910	-0.049242
O6	O	0.589393	-0.079038	-0.049221
O7	O	0.755260	-0.069007	-0.049236
Zn8	Zn	0.672322	-0.074023	-0.064847
Zn9	Zn	0.672356	-0.074023	0.064759
O10	O	0.667325	-0.156955	-0.049215
C11	C	0.568189	-0.078787	-0.000035
C12	C	0.504971	-0.078032	-0.000029
C13	C	0.231741	-0.074728	0.053588
C14	C	0.291141	-0.075443	0.053589
O15	O	0.321879	-0.075793	0.099191
N16	N	0.320832	-0.075804	-0.000032
C17	C	0.291122	-0.075445	-0.053658
O18	O	0.321832	-0.075817	-0.099267
C19	C	0.231724	-0.074726	-0.053659
C20	C	0.202035	-0.074370	-0.000035
C21	C	0.202052	-0.074372	0.107208
C22	C	0.142656	-0.073658	0.107206
C23	C	0.112949	-0.073301	0.053584
C24	C	0.142639	-0.073657	-0.000036
C25	C	0.202015	-0.074362	-0.107285
C26	C	0.142613	-0.073642	-0.107281
C27	C	0.112924	-0.073287	-0.053657
C28	C	0.053537	-0.072585	-0.053660
N29	N	0.023845	-0.072224	-0.000039
C30	C	0.053551	-0.072582	0.053583
C31	C	0.415862	-0.076954	-0.053652
C32	C	0.475259	-0.077677	-0.053652
C33	C	0.475273	-0.077674	0.053596
C34	C	0.415875	-0.076955	0.053595
C35	C	0.386171	-0.076593	-0.000031
C36	C	-0.071184	-0.071083	0.053575
C37	C	-0.130586	-0.070372	0.053569
C38	C	-0.130595	-0.070371	-0.053679
C39	C	-0.071199	-0.071086	-0.053673
C40	C	-0.041495	-0.071440	-0.000041
O41	O	0.022761	-0.072232	-0.099239
O42	O	0.022836	-0.072202	0.099184
C43	C	0.677086	0.030126	-0.000059
C44	C	0.676320	0.093343	-0.000065
C45	C	0.723555	0.492454	-0.000047
C46	C	0.722844	0.551854	-0.000044
O47	O	0.766630	0.588606	-0.000027
N48	N	0.670566	0.574471	-0.000040
C49	C	0.618997	0.537685	-0.000033
O50	O	0.574465	0.562377	-0.000029
C51	C	0.619709	0.478286	-0.000032
C52	C	0.671990	0.455672	-0.000042
C53	C	0.775832	0.469839	-0.000056
C54	C	0.776543	0.410443	-0.000060
C55	C	0.724977	0.373662	-0.000055
C56	C	0.672701	0.396276	-0.000046
C57	C	0.568140	0.441501	-0.000021
C58	C	0.568857	0.382099	-0.000020
C59	C	0.621137	0.359485	-0.000030
C60	C	0.621847	0.300099	-0.000046
N61	N	0.674124	0.277481	-0.000049
C62	C	0.725690	0.314263	-0.000054
C63	C	0.617505	0.662427	-0.000035
C64	C	0.616793	0.721825	-0.000040
C65	C	0.720640	0.735990	-0.000049
C66	C	0.721352	0.676591	-0.000048
C67	C	0.669783	0.639810	-0.000039
C68	C	0.727179	0.189526	-0.000064
C69	C	0.727886	0.130124	-0.000070
C70	C	0.624039	0.115965	-0.000058
C71	C	0.623332	0.175361	-0.000054
C72	C	0.674907	0.212141	-0.000055
O73	O	0.578083	0.263312	-0.000060
O74	O	0.770214	0.289562	-0.000051
C75	C	0.776489	-0.069258	-0.000052
C76	C	0.839708	-0.070014	-0.000054
N77	N	0.672304	-0.074022	-0.153299
C78	C	0.667592	0.821829	-0.000034
C79	C	0.668358	0.758612	-0.000042
C80	C	0.706702	-0.108377	-0.561938
C81	C	0.706709	-0.108376	-0.623858
O82	O	0.735933	-0.137582	-0.655875
N83	N	0.672367	-0.074016	-0.654836
C84	C	0.638021	-0.039651	-0.623892
O85	O	0.608811	-0.010425	-0.655927
C86	C	0.638017	-0.039650	-0.561973
C87	C	0.672356	-0.074016	-0.530998
C88	C	0.741039	-0.142741	-0.530963
C89	C	0.741031	-0.142743	-0.469048
C90	C	0.706685	-0.108382	-0.438107
C91	C	0.672348	-0.074018	-0.469082
C92	C	0.603674	-0.005282	-0.531029
C93	C	0.603673	-0.005284	-0.469106
C94	C	0.638013	-0.039650	-0.438131
C95	C	0.637995	-0.039659	-0.376226
N96	N	0.672336	-0.074019	-0.345248
C97	C	0.706682	-0.108380	-0.376188
C98	C	0.638032	-0.039656	-0.753925
C99	C	0.638032	-0.039659	-0.815843
C100	C	0.706721	-0.108384	-0.815805
C101	C	0.706717	-0.108382	-0.753886
C102	C	0.672373	-0.074015	-0.722947
C103	C	0.706662	-0.108383	-0.246161
C104	C	0.706649	-0.108383	-0.184240
C105	C	0.637962	-0.039657	-0.184283
C106	C	0.637973	-0.039658	-0.246199
C107	C	0.672327	-0.074023	-0.277136
O108	O	0.608788	-0.010466	-0.344170
O109	O	0.735892	-0.137596	-0.344146
N110	N	0.672380	-0.074018	0.153211
H111	H	-0.047006	-0.071372	0.097247
O112	O	0.574003	0.080149	-0.000026
C113	C	0.585848	0.022875	-0.000044
H114	H	0.630576	0.020854	0.018570
H115	H	0.583574	0.005689	-0.047236
C116	C	0.486503	-0.011262	0.015681
C117	C	0.541437	-0.013744	0.038547
H118	H	0.459107	-0.033851	0.039483
H119	H	0.478522	0.027325	0.015690
H120	H	0.484616	-0.025582	-0.023646
H121	H	0.543325	0.000583	0.077870
H122	H	0.549417	-0.052329	0.038545
H123	H	0.819115	0.392037	-0.000066
H124	H	0.817825	0.499782	-0.000058
H125	H	-0.154756	-0.070084	0.097238
O126	O	0.740046	-0.141818	-0.276116
C127	C	0.770358	-0.172134	-0.235489
H128	H	0.746754	-0.175575	-0.191361
H129	H	0.815194	-0.148439	-0.228891
C130	C	0.803779	-0.228382	-0.313832
C131	C	0.774785	-0.232613	-0.259634
H132	H	0.806513	-0.265687	-0.328726
H133	H	0.783359	-0.207956	-0.341204
H134	H	0.841140	-0.208634	-0.308327
H135	H	0.737423	-0.252354	-0.265141
H136	H	0.795199	-0.253043	-0.232263
H137	H	0.734686	-0.136363	-0.841008
O138	O	0.772151	0.654653	0.000053
C139	C	0.803581	0.673488	0.050988
H140	H	0.773011	0.685666	0.086598
H141	H	0.835536	0.712388	0.039464
C142	C	0.873586	0.610109	0.030354
C143	C	0.836040	0.625061	0.074093
H144	H	0.893611	0.580238	0.044605
H145	H	0.852413	0.597420	-0.003963
H146	H	0.900211	0.642529	0.020755
H147	H	0.809412	0.592643	0.083685
H148	H	0.857210	0.637743	0.108412
H149	H	0.734679	-0.136367	-0.728671
O150	O	0.770680	0.771807	-0.000021
C151	C	0.758835	0.829081	-0.000031
H152	H	0.714116	0.831095	0.018592
H153	H	0.761085	0.846284	-0.047222
C154	C	0.858188	0.863211	0.015676
C155	C	0.803266	0.865685	0.038554
H156	H	0.885596	0.885792	0.039475
H157	H	0.866169	0.824625	0.015681
H158	H	0.860055	0.877546	-0.023649
H159	H	0.801398	0.851344	0.077876
H160	H	0.795285	0.904270	0.038557
O161	O	0.113783	-0.073408	0.159283
C162	C	0.072679	-0.122314	0.162506
H163	H	0.085859	-0.157014	0.132083
H164	H	0.029180	-0.110617	0.148106
C165	C	0.052550	-0.102047	0.263944
C166	C	0.068740	-0.144667	0.226581
H167	H	0.050117	-0.115834	0.303468
H168	H	0.080241	-0.069096	0.261772
H169	H	0.016302	-0.092303	0.251937
H170	H	0.104990	-0.154405	0.238583
H171	H	0.041055	-0.177620	0.228756
O172	O	0.113686	-0.073367	-0.159338
C173	C	0.072604	-0.122291	-0.162551
H174	H	0.061464	-0.138633	-0.115993
H175	H	0.090778	-0.157109	-0.189007
C176	C	0.031905	-0.086554	-0.250400
C177	C	0.018220	-0.106623	-0.193216
H178	H	-0.001641	-0.076891	-0.269317
H179	H	0.059584	-0.053594	-0.248236
H180	H	0.047052	-0.115572	-0.272439
H181	H	0.003081	-0.077602	-0.171176
H182	H	-0.009463	-0.139578	-0.195376
O183	O	0.604677	-0.006194	-0.276263
C184	C	0.620775	0.051694	-0.261119
H185	H	0.666731	0.057439	-0.244083
H186	H	0.590991	0.064752	-0.225188
C187	C	0.560073	0.082474	-0.337051
C188	C	0.616518	0.089530	-0.316132
H189	H	0.557445	0.105814	-0.370984
H190	H	0.549226	0.043474	-0.347252
H191	H	0.535259	0.093355	-0.307103
H192	H	0.641330	0.078643	-0.346076
H193	H	0.627370	0.128530	-0.305936
H194	H	0.575706	0.022703	-0.443918
O195	O	0.518708	0.346451	-0.000037
C196	C	0.472417	0.379154	-0.000012
H197	H	0.487128	0.423575	-0.018636
H198	H	0.456393	0.383286	0.047184
C199	C	0.405555	0.294731	-0.015705
C200	C	0.423623	0.349288	-0.038585
H201	H	0.375455	0.276307	-0.039497
H202	H	0.436742	0.272698	-0.015720
H203	H	0.392206	0.298182	0.023624
H204	H	0.436979	0.345835	-0.077911
H205	H	0.392437	0.371320	-0.038578
H206	H	0.734612	-0.136371	-0.159023
H207	H	0.226233	-0.074662	0.150876
O208	O	0.774447	-0.176136	-0.439054
C209	C	0.804749	-0.206468	-0.479652
H210	H	0.808202	-0.182871	-0.523791
H211	H	0.781036	-0.251297	-0.486235
C212	C	0.860977	-0.239904	-0.401265
C213	C	0.865222	-0.210919	-0.455477
H214	H	0.898279	-0.242652	-0.386353
H215	H	0.840561	-0.219471	-0.373914
H216	H	0.841214	-0.277259	-0.406759
H217	H	0.884978	-0.173563	-0.449982
H218	H	0.885643	-0.231346	-0.482827
H219	H	0.609997	-0.011683	-0.159080
H220	H	0.575509	0.632483	-0.000032
H221	H	-0.047026	-0.071386	-0.097338
O222	O	0.774471	-0.176037	-0.561039
C223	C	0.813528	-0.141118	-0.596865
H224	H	0.819903	-0.095762	-0.578222
H225	H	0.795945	-0.140257	-0.643800
C226	C	0.863507	-0.221111	-0.620677
C227	C	0.871339	-0.165405	-0.597777
H228	H	0.899166	-0.236093	-0.621242
H229	H	0.837192	-0.244637	-0.596542
H230	H	0.848852	-0.220386	-0.659787
H231	H	0.885986	-0.166132	-0.558665
H232	H	0.897658	-0.141879	-0.621905
O233	O	0.565992	0.743761	0.000068
C234	C	0.534588	0.724911	0.051009
H235	H	0.565176	0.712724	0.086613
H236	H	0.502628	0.686014	0.039492
C237	C	0.464571	0.788294	0.030387
C238	C	0.502139	0.773330	0.074119
H239	H	0.444552	0.818160	0.044641
H240	H	0.485727	0.800992	-0.003934
H241	H	0.437942	0.755876	0.020793
H242	H	0.528771	0.805746	0.083706
H243	H	0.480987	0.760639	0.108442
O244	O	0.387129	-0.076583	0.105738
C245	C	0.426091	-0.077071	0.153062
H246	H	0.470890	-0.059551	0.137335
H247	H	0.426172	-0.122845	0.169555
C248	C	0.353002	-0.060957	0.223038
C249	C	0.408024	-0.039434	0.203723
H250	H	0.341856	-0.037743	0.254289
H251	H	0.326751	-0.060630	0.191155
H252	H	0.353076	-0.099101	0.236778
H253	H	0.407947	-0.001294	0.189977
H254	H	0.434274	-0.039754	0.235605
O255	O	-0.159470	-0.069921	-0.105749
C256	C	-0.187106	-0.020182	-0.108950
H257	H	-0.164489	0.014078	-0.078526
H258	H	-0.233641	-0.030793	-0.094536
C259	C	-0.212764	-0.039878	-0.210383
C260	C	-0.184982	0.002204	-0.173020
H261	H	-0.211456	-0.026070	-0.249904
H262	H	-0.194147	-0.073389	-0.208226
H263	H	-0.251540	-0.048716	-0.198364
H264	H	-0.146205	0.011036	-0.185034
H265	H	-0.203592	0.035717	-0.175180
O266	O	0.504189	-0.078094	0.105649
C267	C	0.531803	-0.127846	0.108873
H268	H	0.538443	-0.144402	0.062319
H269	H	0.504205	-0.162111	0.135346
C270	C	0.582125	-0.093202	0.196699
C271	C	0.590285	-0.113535	0.139520
H272	H	0.618198	-0.084376	0.215606
H273	H	0.563519	-0.059685	0.194529
H274	H	0.559124	-0.121760	0.218752
H275	H	0.613279	-0.084974	0.117466
H276	H	0.608896	-0.147047	0.141687
H277	H	0.525567	0.459902	-0.000010
H278	H	0.499426	-0.077975	-0.097319
O279	O	0.572498	0.197237	-0.000021
C280	C	0.527138	0.152032	-0.000035
H281	H	0.542875	0.111762	0.018577
H282	H	0.511232	0.143552	-0.047226
C283	C	0.458489	0.217968	0.015698
C284	C	0.477816	0.168509	0.038561
H285	H	0.428064	0.228132	0.039503
H286	H	0.489048	0.248424	0.015705
H287	H	0.445239	0.210895	-0.023628
H288	H	0.491073	0.175585	0.077883
H289	H	0.447258	0.138054	0.038562
H290	H	0.391679	-0.076666	-0.097324
H291	H	0.610062	-0.011682	-0.841058
H292	H	0.610059	-0.011672	-0.728738
H293	H	0.575711	0.022703	-0.556238
O294	O	0.230762	-0.074678	-0.159430
C295	C	0.191792	-0.074218	-0.206750
H296	H	0.151917	-0.055678	-0.191022
H297	H	0.179233	-0.119836	-0.223235
C298	C	0.269029	-0.059909	-0.276736
C299	C	0.220056	-0.037133	-0.257420
H300	H	0.286464	-0.037035	-0.307993
H301	H	0.295284	-0.060221	-0.244856
H302	H	0.258556	-0.097924	-0.290469
H303	H	0.230531	0.000878	-0.243680
H304	H	0.193803	-0.036814	-0.289299
H305	H	0.770461	0.111716	-0.000080
O306	O	0.777315	0.225191	0.000012
C307	C	0.809085	0.214982	0.050959
H308	H	0.794836	0.169839	0.067945
H309	H	0.801504	0.247427	0.086636
C310	C	0.890777	0.276428	0.014608
C311	C	0.873280	0.220981	0.035469
H312	H	0.930376	0.280131	0.005055
H313	H	0.869373	0.283308	-0.019715
H314	H	0.884455	0.303459	0.044343
H315	H	0.879595	0.193951	0.005732
H316	H	0.894686	0.214096	0.069787
