data_functionalizedCrystal
_audit_creation_method	'MofGen! by Chris Wilmer'
_symmetry_space_group_name_H-M	'P1'
_symmetry_Int_Tables_number	1
_symmetry_cell_setting	triclinic
loop_
_symmetry_equiv_pos_as_xyz
  x,y,z
_cell_length_a	12.594517
_cell_length_b	12.594516
_cell_length_c	17.077396
_cell_angle_alpha	89.976855
_cell_angle_beta	89.987112
_cell_angle_gamma	90.016010
loop_
_atom_site_label
_atom_site_type_symbol
_atom_site_fract_x
_atom_site_fract_y
_atom_site_fract_z
Zn1	Zn	1.627252	-0.423743	-0.443733
Zn2	Zn	1.960585	-0.090410	-0.110400
Zn3	Zn	2.293919	0.242923	0.222933
Zn4	Zn	1.627147	-0.601744	-0.312480
Zn5	Zn	1.960481	-0.268411	0.020854
Zn6	Zn	2.293814	0.064923	0.354187
Zn7	Zn	1.449260	-0.423780	-0.312496
Zn8	Zn	1.782594	-0.090447	0.020837
Zn9	Zn	2.115927	0.242887	0.354170
Zn10	Zn	1.449238	-0.601680	-0.443718
Zn11	Zn	1.782571	-0.268347	-0.110385
Zn12	Zn	2.115905	0.064987	0.222948
O13	O	1.538224	-0.512737	-0.378107
O14	O	1.871558	-0.179404	-0.044774
O15	O	2.204891	0.153930	0.288560
O16	O	1.776184	-0.447367	-0.426321
O17	O	2.109517	-0.114034	-0.092988
O18	O	2.442851	0.219300	0.240345
O19	O	1.603516	-0.578179	-0.202635
O20	O	1.936849	-0.244846	0.130699
O21	O	2.270182	0.088488	0.464032
O22	O	1.472924	-0.274829	-0.329919
O23	O	1.806258	0.058504	0.003415
O24	O	2.139591	0.391837	0.336748
O25	O	1.776107	-0.578143	-0.329890
O26	O	2.109440	-0.244810	0.003443
O27	O	2.442774	0.088523	0.336777
O28	O	1.603694	-0.274802	-0.426338
O29	O	1.937027	0.058531	-0.093004
O30	O	2.270361	0.391864	0.240329
O31	O	1.472823	-0.447429	-0.202647
O32	O	1.806156	-0.114096	0.130686
O33	O	2.139489	0.219237	0.464019
O34	O	1.300312	-0.447367	-0.329904
O35	O	1.633645	-0.114034	0.003429
O36	O	1.966978	0.219299	0.336763
O37	O	1.472887	-0.578034	-0.553567
O38	O	1.806220	-0.244701	-0.220234
O39	O	2.139553	0.088632	0.113099
O40	O	1.300295	-0.578070	-0.426312
O41	O	1.633629	-0.244736	-0.092979
O42	O	1.966962	0.088597	0.240354
O43	O	1.603673	-0.447305	-0.553578
O44	O	1.937006	-0.113972	-0.220245
O45	O	2.270339	0.219362	0.113088
O46	O	1.603494	-0.750681	-0.329875
O47	O	1.936827	-0.417348	0.003458
O48	O	2.270161	-0.084015	0.336791
O49	O	1.472785	-0.750634	-0.426296
O50	O	1.806118	-0.417301	-0.092962
O51	O	2.139452	-0.083968	0.240371
C52	C	1.261683	-0.512716	-0.378109
C53	C	1.595017	-0.179383	-0.044775
C54	C	1.928350	0.153950	0.288558
C55	C	1.143378	-0.512733	-0.378128
C56	C	1.476711	-0.179400	-0.044795
C57	C	1.810045	0.153934	0.288538
C58	C	1.003383	-0.583951	-0.430467
C59	C	1.336717	-0.250618	-0.097134
C60	C	1.670050	0.082716	0.236199
C61	C	1.074156	-0.609854	-0.358827
C62	C	1.407490	-0.276520	-0.025493
C63	C	1.740823	0.056813	0.307840
C64	C	1.074177	-0.486878	-0.449761
C65	C	1.407510	-0.153545	-0.116428
C66	C	1.740843	0.179789	0.216906
C67	C	1.003365	-0.538720	-0.306426
C68	C	1.336699	-0.205387	0.026907
C69	C	1.670032	0.127946	0.360241
C70	C	1.003380	-0.415700	-0.397409
C71	C	1.336713	-0.082366	-0.064076
C72	C	1.670046	0.250967	0.269258
C73	C	1.074121	-0.441565	-0.325719
C74	C	1.407454	-0.108232	0.007615
C75	C	1.740787	0.225101	0.340948
C76	C	1.538155	-0.789278	-0.378099
C77	C	1.871488	-0.455945	-0.044766
C78	C	2.204821	-0.122611	0.288567
C79	C	1.538222	-0.907583	-0.378122
C80	C	1.871556	-0.574250	-0.044789
C81	C	2.204889	-0.240917	0.288545
C82	C	1.467123	-0.976850	-0.430528
C83	C	1.800456	-0.643516	-0.097195
C84	C	2.133789	-0.310183	0.236138
C85	C	1.441192	-1.047710	-0.358903
C86	C	1.774525	-0.714376	-0.025570
C87	C	2.107858	-0.381043	0.307764
C88	C	1.564250	-1.047522	-0.449760
C89	C	1.897583	-0.714189	-0.116427
C90	C	2.230917	-0.380855	0.216907
C91	C	1.512240	-0.976885	-0.306459
C92	C	1.845573	-0.643552	0.026875
C93	C	2.178907	-0.310219	0.360208
C94	C	1.635344	-0.976691	-0.397364
C95	C	1.968677	-0.643358	-0.064031
C96	C	2.302010	-0.310025	0.269303
C97	C	1.609449	-1.047520	-0.325689
C98	C	1.942783	-0.714186	0.007644
C99	C	2.276116	-0.380853	0.340978
C100	C	1.815845	-0.512758	-0.378105
C101	C	2.149179	-0.179425	-0.044772
C102	C	2.482512	0.153908	0.288561
C103	C	1.934151	-0.512767	-0.378105
C104	C	2.267484	-0.179434	-0.044772
C105	C	2.600817	0.153899	0.288562
C106	C	1.538289	-0.512658	-0.582851
C107	C	1.871622	-0.179325	-0.249518
C108	C	2.204955	0.154008	0.083815
C109	C	1.538316	-0.512625	-0.670101
C110	C	1.871650	-0.179292	-0.336768
C111	C	2.204983	0.154042	-0.003434
C112	C	1.538323	-0.235116	-0.378132
C113	C	1.871657	0.098217	-0.044798
C114	C	2.204990	0.431551	0.288535
C115	C	1.538366	-0.116811	-0.378142
C116	C	1.871699	0.216523	-0.044809
C117	C	2.205032	0.549856	0.288524
C118	C	1.606419	-0.444549	-0.711098
C119	C	1.939752	-0.111215	-0.377765
C120	C	2.273086	0.222118	-0.044432
C121	C	1.606432	-0.444513	-0.793079
C122	C	1.939765	-0.111180	-0.459745
C123	C	2.273098	0.222153	-0.126412
C124	C	1.538346	-0.512560	-0.834061
C125	C	1.871680	-0.179227	-0.500727
C126	C	2.205013	0.154106	-0.167394
C127	C	1.470236	-0.580640	-0.793058
C128	C	1.803569	-0.247306	-0.459724
C129	C	2.136903	0.086027	-0.126391
C130	C	1.470219	-0.580669	-0.711079
C131	C	1.803552	-0.247336	-0.377745
C132	C	2.136885	0.085998	-0.044412
C133	C	1.470279	-0.580576	-0.963928
C134	C	1.803612	-0.247242	-0.630594
C135	C	2.136946	0.086091	-0.297261
C136	C	1.470297	-0.580548	-1.045912
C137	C	1.803631	-0.247215	-0.712579
C138	C	2.136964	0.086118	-0.379246
C139	C	1.606492	-0.444420	-1.045928
C140	C	1.939825	-0.111087	-0.712595
C141	C	2.273159	0.222247	-0.379261
C142	C	1.606475	-0.444449	-0.963949
C143	C	1.939808	-0.111116	-0.630616
C144	C	2.273141	0.222217	-0.297282
C145	C	1.538366	-0.512530	-0.922952
C146	C	1.871699	-0.179197	-0.589618
C147	C	2.205032	0.154136	-0.256285
C148	C	1.538222	-0.512738	-0.174159
C149	C	1.871555	-0.179405	0.159174
C150	C	2.204888	0.153928	0.492508
C151	C	1.538400	-0.512472	-0.086910
C152	C	1.871734	-0.179138	0.246424
C153	C	2.205067	0.154195	0.579757
H154	H	0.972267	-0.333650	-0.413753
H155	H	1.305600	-0.000316	-0.080419
H156	H	1.638934	0.333017	0.252914
H157	H	1.406889	-0.945818	-0.474782
H158	H	1.740222	-0.612485	-0.141449
H159	H	2.073555	-0.279151	0.191884
H160	H	1.661922	-0.389045	-0.930584
H161	H	1.995255	-0.055712	-0.597250
H162	H	2.328588	0.277622	-0.263917
F163	F	1.678953	-0.372093	-0.836707
F164	F	2.012286	-0.038760	-0.503374
F165	F	2.345619	0.294573	-0.170041
H166	H	1.717392	-0.945476	-0.413657
H167	H	2.050725	-0.612143	-0.080324
H168	H	2.384059	-0.278810	0.253010
H169	H	1.586207	-1.078550	-0.510335
H170	H	1.919540	-0.745217	-0.177002
H171	H	2.252873	-0.411884	0.156331
H172	H	1.105281	-0.464995	-0.510350
H173	H	1.438615	-0.131661	-0.177017
H174	H	1.771948	0.201672	0.156317
F175	F	1.688122	-1.087824	-0.267709
F176	F	2.021456	-0.754490	0.065624
F177	F	2.354789	-0.421157	0.398958
F178	F	1.333919	-1.088481	-0.337633
F179	F	1.667252	-0.755147	-0.004300
F180	F	2.000586	-0.421814	0.329033
F181	F	1.483420	-0.936501	-0.227259
F182	F	1.816753	-0.603168	0.106074
F183	F	2.150086	-0.269835	0.439407
H184	H	1.661865	-0.389140	-0.677737
H185	H	1.995199	-0.055807	-0.344403
H186	H	2.328532	0.277527	-0.011070
F187	F	1.678980	-0.371963	-1.089561
F188	F	2.012314	-0.038630	-0.756227
F189	F	2.345647	0.294703	-0.422894
H190	H	1.414801	-0.635998	-0.930550
H191	H	1.748134	-0.302665	-0.597217
H192	H	2.081467	0.030669	-0.263884
F193	F	1.397825	-0.652963	-1.089527
F194	F	1.731158	-0.319629	-0.756194
F195	F	2.064491	0.013704	-0.422860
H196	H	1.414796	-0.636041	-0.826432
H197	H	1.748129	-0.302708	-0.493098
H198	H	2.081463	0.030626	-0.159765
F199	F	1.397732	-0.653123	-0.667447
F200	F	1.731065	-0.319789	-0.334113
F201	F	2.064398	0.013544	-0.000780
F202	F	1.114797	-0.717128	-0.337492
F203	F	1.448130	-0.383794	-0.004158
F204	F	1.781463	-0.050461	0.329175
H205	H	0.972392	-0.560703	-0.245821
H206	H	1.305725	-0.227370	0.087513
H207	H	1.639058	0.105964	0.420846
H208	H	1.104984	-0.381353	-0.281396
H209	H	1.438317	-0.048020	0.051937
H210	H	1.771650	0.285314	0.385270
F211	F	0.962783	-0.662709	-0.488261
F212	F	1.296117	-0.329376	-0.154928
F213	F	1.629450	0.003957	0.178406
