data_functionalizedCrystal
_audit_creation_method	'MofGen! by Chris Wilmer'
_symmetry_space_group_name_H-M	'P1'
_symmetry_Int_Tables_number	1
_symmetry_cell_setting	triclinic
loop_
_symmetry_equiv_pos_as_xyz
  x,y,z
_cell_length_a	16.120490
_cell_length_b	16.120444
_cell_length_c	16.120256
_cell_angle_alpha	84.383140
_cell_angle_beta	89.870193
_cell_angle_gamma	90.165174
loop_
_atom_site_label
_atom_site_type_symbol
_atom_site_fract_x
_atom_site_fract_y
_atom_site_fract_z
Zn1	Zn	1.224981	-0.422349	0.554795
Zn2	Zn	1.224874	-0.555030	0.422101
Zn3	Zn	1.093720	-0.408253	0.408039
Zn4	Zn	1.078871	-0.554258	0.554037
O5	O	1.155612	-0.484973	0.484743
O6	O	1.341003	-0.446172	0.543395
O7	O	1.213646	-0.529983	0.303602
O8	O	1.117392	-0.293492	0.421939
O9	O	1.340924	-0.543652	0.445905
O10	O	1.213828	-0.303849	0.529760
O11	O	1.117288	-0.422147	0.293271
O12	O	0.975715	-0.421399	0.421205
O13	O	1.092083	-0.542337	0.670771
O14	O	0.964805	-0.528668	0.528468
O15	O	1.199429	-0.445424	0.671328
O16	O	1.199247	-0.671558	0.445170
O17	O	1.091979	-0.670992	0.542103
C18	C	1.144012	-0.701518	0.495099
C19	C	1.139124	-0.794163	0.499562
C20	C	0.940173	-0.473421	0.473229
C21	C	0.848005	-0.468500	0.468324
C22	C	1.181162	-1.005322	0.461784
C23	C	1.130214	-0.963781	0.507719
C24	C	1.135173	-0.869396	0.503179
C25	C	1.176204	-1.099715	0.466323
C26	C	0.632810	-0.510491	0.510188
C27	C	0.679258	-0.459524	0.459368
C28	C	0.773157	-0.464520	0.464352
C29	C	0.538901	-0.505496	0.505204
C30	C	1.371892	-0.496570	0.496303
C31	C	1.464057	-0.501512	0.501229
C32	C	1.144111	-0.495366	0.702137
C33	C	1.139211	-0.499796	0.794777
C34	C	1.167278	-0.267584	0.474366
C35	C	1.172250	-0.174946	0.469944
C36	C	1.167118	-0.474562	0.268195
C37	C	1.172192	-0.469906	0.175552
C38	C	1.181168	-0.461853	1.005940
C39	C	1.130237	-0.507846	0.964384
C40	C	1.135232	-0.503366	0.870006
C41	C	1.176175	-0.466333	1.100327
H42	H	1.228500	-0.970005	0.419051
H43	H	0.663563	-0.557875	0.557436
N44	N	1.067502	-1.010558	0.564328
H45	H	1.072802	-1.072330	0.559587
H46	H	1.009760	-0.991662	0.547425
N47	N	0.638528	-0.396753	0.396774
H48	H	0.576250	-0.402036	0.402039
H49	H	0.656066	-0.407577	0.338630
N50	N	1.067510	-0.564464	1.011137
H51	H	1.072789	-0.559682	1.072907
H52	H	1.078013	-0.623974	0.999519
N53	N	1.243912	-0.405264	0.959190
H54	H	1.238638	-0.410060	0.897421
H55	H	1.301639	-0.422145	0.978161
