data_functionalizedCrystal
_audit_creation_method	'MofGen! by Chris Wilmer'
_symmetry_space_group_name_H-M	'P1'
_symmetry_Int_Tables_number	1
_symmetry_cell_setting	triclinic
loop_
_symmetry_equiv_pos_as_xyz
  x,y,z
_cell_length_a	11.792241
_cell_length_b	8.634740
_cell_length_c	7.088929
_cell_angle_alpha	82.825325
_cell_angle_beta	83.733449
_cell_angle_gamma	87.618139
loop_
_atom_site_label
_atom_site_type_symbol
_atom_site_fract_x
_atom_site_fract_y
_atom_site_fract_z
O1	O	0.380327	-2.033409	-0.159001
O2	O	0.880327	-1.533409	0.340999
O3	O	0.349270	-1.584198	-0.159002
O4	O	0.849270	-1.084198	0.340998
O5	O	0.200770	-1.819706	-0.158988
O6	O	0.700770	-1.319706	0.341012
O7	O	0.528827	-1.797901	-0.159015
O8	O	1.028827	-1.297901	0.340985
O9	O	0.180872	-1.851179	0.158989
O10	O	0.680872	-1.351179	0.658989
O11	O	0.329371	-1.615671	0.158975
O12	O	0.829371	-1.115671	0.658975
O13	O	0.360429	-2.064882	0.158976
O14	O	0.860429	-1.564882	0.658976
Cu15	Cu	0.343083	-1.843150	0.188009
Cu16	Cu	0.843083	-1.343150	0.688009
Cu17	Cu	0.366615	-1.805930	-0.188036
Cu18	Cu	0.866615	-1.305930	0.311964
O19	O	0.508929	-1.829374	0.158962
O20	O	1.008929	-1.329374	0.658962
C21	C	0.148386	-1.834073	-0.000000
C22	C	0.648386	-1.334073	0.500000
C23	C	0.021943	-1.829974	-0.000002
C24	C	0.521943	-1.329974	0.499998
C25	C	0.332285	-1.542425	-0.000014
C26	C	0.832285	-1.042425	0.499986
C27	C	0.311307	-1.371067	-0.000014
C28	C	0.811307	-0.871067	0.499986
C29	C	0.377414	-2.106654	-0.000017
C30	C	0.877414	-1.606654	0.499983
C31	C	0.398393	-2.278012	-0.000029
C32	C	0.898393	-1.778012	0.499971
C33	C	-0.209557	-1.822433	-0.000034
C34	C	0.290443	-1.322433	0.499966
C35	C	-0.080734	-1.826623	-0.000017
C36	C	0.419266	-1.326623	0.499983
C37	C	0.561313	-1.815007	-0.000030
C38	C	1.061313	-1.315007	0.499970
C39	C	0.687757	-1.819105	-0.000041
C40	C	1.187757	-1.319105	0.499959
N41	N	0.326533	-1.869340	0.452499
N42	N	0.826533	-1.369340	0.952499
N43	N	0.383158	-1.779752	-0.452525
N44	N	0.883158	-1.279752	0.047475
H45	H	0.488999	-1.329441	-0.000019
H46	H	0.988999	-0.829441	0.499981
O47	O	0.203280	-1.309456	-0.000100
O48	O	0.703280	-0.809456	0.499900
C49	C	0.205672	-1.146342	-0.000065
C50	C	0.705672	-0.646342	0.499935
H51	H	0.293999	-1.103473	-0.060269
H52	H	0.793999	-0.603473	0.439731
H53	H	0.139193	-1.087095	-0.092384
H54	H	0.639193	-0.587095	0.407616
H55	H	0.185760	-1.116559	0.152482
H56	H	0.685760	-0.616559	0.652482
O57	O	0.256376	-1.980033	0.549698
O58	O	0.756376	-1.480033	1.049698
C59	C	0.144208	-1.948969	0.500977
C60	C	0.644208	-1.448969	1.000977
H61	H	0.146904	-1.875172	0.355604
H62	H	0.646904	-1.375172	0.855604
H63	H	0.101287	-2.063767	0.494313
H64	H	0.601287	-1.563767	0.994313
H65	H	0.093730	-1.882850	0.613615
H66	H	0.593730	-1.382850	1.113615
H67	H	0.441838	-1.686904	0.465823
H68	H	0.941838	-1.186904	0.965823
