data_functionalizedCrystal
_audit_creation_method	'MofGen! by Chris Wilmer'
_symmetry_space_group_name_H-M	'P1'
_symmetry_Int_Tables_number	1
_symmetry_cell_setting	triclinic
loop_
_symmetry_equiv_pos_as_xyz
  x,y,z
_cell_length_a	21.295420
_cell_length_b	21.295417
_cell_length_c	16.959447
_cell_angle_alpha	89.964725
_cell_angle_beta	89.981879
_cell_angle_gamma	90.026289
loop_
_atom_site_label
_atom_site_type_symbol
_atom_site_fract_x
_atom_site_fract_y
_atom_site_fract_z
Zn1	Zn	0.962315	-0.250667	-0.446907
Zn2	Zn	1.295648	0.082666	-0.113573
Zn3	Zn	1.628982	0.416000	0.219760
Zn4	Zn	0.962229	-0.355944	-0.314717
Zn5	Zn	1.295563	-0.022611	0.018616
Zn6	Zn	1.628896	0.310723	0.351950
Zn7	Zn	0.857050	-0.250685	-0.314742
Zn8	Zn	1.190384	0.082648	0.018592
Zn9	Zn	1.523717	0.415982	0.351925
Zn10	Zn	0.857008	-0.355895	-0.446853
Zn11	Zn	1.190341	-0.022561	-0.113519
Zn12	Zn	1.523674	0.310772	0.219814
O13	O	0.909651	-0.303298	-0.380804
O14	O	1.242984	0.030036	-0.047471
O15	O	1.576317	0.363369	0.285862
O16	O	1.050393	-0.264646	-0.429384
O17	O	1.383726	0.068688	-0.096050
O18	O	1.717060	0.402021	0.237283
O19	O	0.948259	-0.342009	-0.204109
O20	O	1.281592	-0.008676	0.129224
O21	O	1.614926	0.324657	0.462557
O22	O	0.871068	-0.162593	-0.332306
O23	O	1.204401	0.170740	0.001027
O24	O	1.537734	0.504074	0.334360
O25	O	1.050330	-0.341992	-0.332264
O26	O	1.383663	-0.008659	0.001069
O27	O	1.716997	0.324675	0.334402
O28	O	0.948405	-0.162580	-0.429408
O29	O	1.281739	0.170753	-0.096074
O30	O	1.615072	0.504087	0.237259
O31	O	0.870984	-0.264676	-0.204127
O32	O	1.204318	0.068658	0.129206
O33	O	1.537651	0.401991	0.462539
O34	O	0.768955	-0.264628	-0.332254
O35	O	1.102289	0.068705	0.001079
O36	O	1.435622	0.402039	0.334413
O37	O	0.870995	-0.341908	-0.557471
O38	O	1.204328	-0.008575	-0.224138
O39	O	1.537662	0.324759	0.109196
O40	O	0.768924	-0.341925	-0.429316
O41	O	1.102257	-0.008592	-0.095982
O42	O	1.435591	0.324742	0.237351
O43	O	0.948364	-0.264598	-0.557511
O44	O	1.281697	0.068736	-0.224177
O45	O	1.615031	0.402069	0.109156
O46	O	0.948218	-0.444027	-0.332212
O47	O	1.281551	-0.110694	0.001121
O48	O	1.614885	0.222640	0.334454
O49	O	0.870912	-0.443991	-0.429292
O50	O	1.204245	-0.110657	-0.095959
O51	O	1.537579	0.222676	0.237375
C52	C	0.746099	-0.303274	-0.380782
C53	C	1.079432	0.030060	-0.047449
C54	C	1.412766	0.363393	0.285885
C55	C	0.676131	-0.303278	-0.380791
C56	C	1.009464	0.030055	-0.047458
C57	C	1.342798	0.363388	0.285875
C58	C	0.176705	-0.263118	-0.431469
C59	C	0.510038	0.070215	-0.098135
C60	C	0.843372	0.403548	0.235198
C61	C	0.242448	-0.263114	-0.431468
C62	C	0.575781	0.070220	-0.098135
C63	C	0.909114	0.403553	0.235198
C64	C	0.275291	-0.303317	-0.380823
C65	C	0.608625	0.030017	-0.047490
C66	C	0.941958	0.363350	0.285844
C67	C	0.242387	-0.343539	-0.330188
C68	C	0.575721	-0.010206	0.003145
C69	C	0.909054	0.323128	0.336479
C70	C	0.176646	-0.343547	-0.330195
C71	C	0.509979	-0.010214	0.003138
C72	C	0.843313	0.323120	0.336472
N73	N	0.378488	-0.308066	-0.311611
N74	N	0.711821	0.025268	0.021722
N75	N	1.045154	0.358601	0.355056
N76	N	0.440939	-0.308054	-0.311606
N77	N	0.774272	0.025279	0.021727
N78	N	1.107606	0.358612	0.355060
C79	C	0.473366	-0.303296	-0.380800
C80	C	0.806700	0.030037	-0.047466
C81	C	1.140033	0.363371	0.285867
N82	N	0.440983	-0.298537	-0.449999
N83	N	0.774316	0.034796	-0.116666
N84	N	1.107649	0.368129	0.216668
N85	N	0.378526	-0.298545	-0.450003
N86	N	0.711859	0.034788	-0.116669
N87	N	1.045192	0.368121	0.216664
C88	C	0.346577	-0.303313	-0.380810
C89	C	0.679910	0.030020	-0.047477
C90	C	1.013244	0.363354	0.285857
C91	C	0.577548	-0.263074	-0.431435
C92	C	0.910881	0.070259	-0.098102
C93	C	1.244215	0.403592	0.235231
C94	C	0.643292	-0.263074	-0.431436
C95	C	0.976625	0.070259	-0.098103
C96	C	1.309958	0.403593	0.235230
C97	C	0.643230	-0.343496	-0.330149
C98	C	0.976563	-0.010163	0.003184
C99	C	1.309897	0.323170	0.336518
C100	C	0.577488	-0.343500	-0.330155
C101	C	0.910821	-0.010167	0.003179
C102	C	1.244154	0.323167	0.336512
C103	C	0.544651	-0.303286	-0.380797
C104	C	0.877984	0.030048	-0.047463
C105	C	1.211317	0.363381	0.285870
C106	C	0.909568	-0.466849	-0.380761
C107	C	1.242901	-0.133516	-0.047427
C108	C	1.576235	0.199817	0.285906
C109	C	0.909590	-0.536817	-0.380768
C110	C	1.242924	-0.203484	-0.047435
C111	C	1.576257	0.129849	0.285898
C112	C	0.949879	-0.569682	-0.330271
C113	C	1.283213	-0.236349	0.003062
C114	C	1.616546	0.096985	0.336396
C115	C	0.949909	-0.635425	-0.330289
C116	C	1.283242	-0.302091	0.003045
C117	C	1.616576	0.031242	0.336378
C118	C	0.909638	-0.668300	-0.380796
C119	C	1.242972	-0.334967	-0.047462
C120	C	1.576305	-0.001633	0.285871
C121	C	0.869346	-0.635427	-0.431303
C122	C	1.202680	-0.302094	-0.097970
C123	C	1.536013	0.031239	0.235364
C124	C	0.869323	-0.569686	-0.431289
C125	C	1.202656	-0.236353	-0.097956
C126	C	1.535989	0.096981	0.235377
N127	N	0.854571	-0.771561	-0.386814
N128	N	1.187904	-0.438228	-0.053481
N129	N	1.521237	-0.104895	0.279853
N130	N	0.854595	-0.834013	-0.386822
N131	N	1.187928	-0.500679	-0.053489
N132	N	1.521262	-0.167346	0.279844
C133	C	0.909709	-0.866375	-0.380841
C134	C	1.243042	-0.533041	-0.047508
C135	C	1.576375	-0.199708	0.285826
N136	N	0.964798	-0.833926	-0.374836
N137	N	1.298131	-0.500592	-0.041502
N138	N	1.631465	-0.167259	0.291831
N139	N	0.964773	-0.771469	-0.374823
N140	N	1.298106	-0.438135	-0.041490
N141	N	1.631440	-0.104802	0.291844
C142	C	0.909660	-0.739585	-0.380816
C143	C	1.242993	-0.406252	-0.047483
C144	C	1.576327	-0.072919	0.285850
C145	C	0.950033	-0.970525	-0.330360
C146	C	1.283366	-0.637191	0.002973
C147	C	1.616700	-0.303858	0.336307
C148	C	0.950064	-1.036268	-0.330383
C149	C	1.283397	-0.702935	0.002950
C150	C	1.616730	-0.369602	0.336283
C151	C	0.869496	-1.036270	-0.431394
C152	C	1.202829	-0.702937	-0.098060
C153	C	1.536162	-0.369603	0.235273
C154	C	0.869471	-0.970528	-0.431374
C155	C	1.202804	-0.637194	-0.098041
C156	C	1.536137	-0.303861	0.235292
C157	C	0.909738	-0.937659	-0.380853
C158	C	1.243072	-0.604326	-0.047520
C159	C	1.576405	-0.270992	0.285813
C160	C	1.073841	-0.303322	-0.380827
C161	C	1.407174	0.030011	-0.047494
C162	C	1.740508	0.363344	0.285839
C163	C	1.143809	-0.303333	-0.380837
C164	C	1.477142	0.030001	-0.047504
C165	C	1.810476	0.363334	0.285830
C166	C	0.909684	-0.303245	-0.586973
C167	C	1.243018	0.030088	-0.253639
C168	C	1.576351	0.363421	0.079694
C169	C	0.909699	-0.303223	-0.674829
C170	C	1.243032	0.030110	-0.341496
C171	C	1.576365	0.363444	-0.008163
C172	C	0.909751	-0.139107	-0.380866
C173	C	1.243084	0.194226	-0.047532
C174	C	1.576417	0.527559	0.285801
C175	C	0.909793	-0.069139	-0.380892
C176	C	1.243127	0.264194	-0.047558
C177	C	1.576460	0.597527	0.285775
C178	C	0.869521	-0.262893	-1.046321
C179	C	1.202854	0.070441	-0.712988
C180	C	1.536188	0.403774	-0.379654
C181	C	0.949988	-0.343421	-1.046290
C182	C	1.283321	-0.010087	-0.712956
C183	C	1.616654	0.323246	-0.379623
C184	C	0.949977	-0.343435	-0.963744
C185	C	1.283310	-0.010102	-0.630410
C186	C	1.616643	0.323231	-0.297077
C187	C	0.909737	-0.303179	-0.922483
C188	C	1.243070	0.030155	-0.589149
C189	C	1.576403	0.363488	-0.255816
C190	C	0.869507	-0.262907	-0.963767
C191	C	1.202841	0.070426	-0.630434
C192	C	1.536174	0.403759	-0.297101
C193	C	0.990201	-0.383710	-0.922453
C194	C	1.323534	-0.050377	-0.589119
C195	C	1.656867	0.282956	-0.255786
C196	C	0.990191	-0.383727	-0.839902
C197	C	1.323524	-0.050394	-0.506568
C198	C	1.656857	0.282939	-0.173235
C199	C	0.949953	-0.343467	-0.798639
C200	C	1.283287	-0.010134	-0.465306
C201	C	1.616620	0.323200	-0.131972
C202	C	0.909723	-0.303194	-0.839929
C203	C	1.243056	0.030140	-0.506596
C204	C	1.576390	0.363473	-0.173262
C205	C	0.869483	-0.262937	-0.798668
C206	C	1.202816	0.070396	-0.465335
C207	C	1.536150	0.403730	-0.132001
C208	C	0.829255	-0.222660	-0.839956
C209	C	1.162589	0.110673	-0.506623
C210	C	1.495922	0.444007	-0.173290
C211	C	0.829270	-0.222647	-0.922505
C212	C	1.162603	0.110686	-0.589171
C213	C	1.495937	0.444019	-0.255838
C214	C	0.949939	-0.343480	-0.716091
C215	C	1.283272	-0.010146	-0.382757
C216	C	1.616605	0.323187	-0.049424
C217	C	0.869470	-0.262952	-0.716114
C218	C	1.202803	0.070382	-0.382781
C219	C	1.536136	0.403715	-0.049448
C220	C	0.909653	-0.303304	-0.175438
C221	C	1.242987	0.030029	0.157895
C222	C	1.576320	0.363362	0.491228
C223	C	0.909761	-0.303149	-0.087582
C224	C	1.243094	0.030184	0.245751
C225	C	1.576428	0.363517	0.579085
H226	H	0.269133	-0.376275	-0.288954
H227	H	0.602466	-0.042941	0.044379
H228	H	0.935800	0.290392	0.377713
Br229	Br	1.004591	-0.680037	-0.261752
Br230	Br	1.337924	-0.346703	0.071582
Br231	Br	1.671257	-0.013370	0.404915
H232	H	0.982669	-0.542922	-0.289136
H233	H	1.316003	-0.209589	0.044198
H234	H	1.649336	0.123744	0.377531
H235	H	0.550810	-0.230329	-0.472671
H236	H	0.884144	0.103004	-0.139338
H237	H	1.217477	0.436337	0.193996
Br238	Br	0.687797	-0.398066	-0.261423
Br239	Br	1.021130	-0.064733	0.071910
Br240	Br	1.354463	0.268600	0.405243
H241	H	0.836704	-0.230166	-0.682525
H242	H	1.170037	0.103167	-0.349192
H243	H	1.503370	0.436500	-0.015859
H244	H	0.149862	-0.376296	-0.288964
H245	H	0.483196	-0.042963	0.044369
H246	H	0.816529	0.290371	0.377703
Br247	Br	0.687938	-0.208499	-0.500166
Br248	Br	1.021271	0.124834	-0.166833
Br249	Br	1.354605	0.458167	0.166501
Br250	Br	1.004679	-0.925913	-0.261795
Br251	Br	1.338012	-0.592580	0.071538
Br252	Br	1.671345	-0.259247	0.404871
H253	H	0.836559	-0.662199	-0.472428
H254	H	1.169892	-0.328865	-0.139094
H255	H	1.503226	0.004468	0.194239
H256	H	0.836514	-0.542927	-0.472412
H257	H	1.169847	-0.209594	-0.139078
H258	H	1.503180	0.123740	0.194255
Br259	Br	0.532840	-0.398071	-0.261425
Br260	Br	0.866173	-0.064737	0.071908
Br261	Br	1.199506	0.268596	0.405241
Br262	Br	0.287102	-0.208532	-0.500187
Br263	Br	0.620436	0.124801	-0.166853
Br264	Br	0.953769	0.458134	0.166480
Br265	Br	1.004753	-1.080872	-0.261853
Br266	Br	1.338086	-0.747539	0.071481
Br267	Br	1.671420	-0.414205	0.404814
Br268	Br	1.044800	-0.438350	-0.978452
Br269	Br	1.378133	-0.105016	-0.645119
Br270	Br	1.711467	0.228317	-0.311786
Br271	Br	0.774646	-0.168028	-0.783949
Br272	Br	1.107979	0.165305	-0.450616
Br273	Br	1.441312	0.498638	-0.117283
Br274	Br	0.814788	-0.925922	-0.499909
Br275	Br	1.148121	-0.592589	-0.166576
Br276	Br	1.481455	-0.259256	0.166758
Br277	Br	0.814848	-1.080879	-0.499949
Br278	Br	1.148181	-0.747546	-0.166615
Br279	Br	1.481514	-0.414213	0.166718
H280	H	0.796518	-0.189857	-0.956129
H281	H	1.129851	0.143477	-0.622796
H282	H	1.463185	0.476810	-0.289462
H283	H	0.836770	-0.230098	-1.079942
H284	H	1.170104	0.103235	-0.746608
H285	H	1.503437	0.436568	-0.413275
H286	H	0.982744	-0.376201	-1.079889
H287	H	1.316078	-0.042867	-0.746556
H288	H	1.649411	0.290466	-0.413223
H289	H	0.982696	-0.376268	-0.682477
H290	H	1.316029	-0.042935	-0.349144
H291	H	1.649362	0.290398	-0.015811
Br292	Br	0.132143	-0.208546	-0.500202
Br293	Br	0.465476	0.124787	-0.166869
Br294	Br	0.798810	0.458120	0.166465
Br295	Br	1.044786	-0.438386	-0.783875
Br296	Br	1.378119	-0.105052	-0.450541
Br297	Br	1.711452	0.228281	-0.117208
