data_functionalizedCrystal
_audit_creation_method	'MofGen! by Chris Wilmer'
_symmetry_space_group_name_H-M	'P1'
_symmetry_Int_Tables_number	1
_symmetry_cell_setting	triclinic
loop_
_symmetry_equiv_pos_as_xyz
  x,y,z
_cell_length_a	17.000371
_cell_length_b	17.019370
_cell_length_c	15.186229
_cell_angle_alpha	93.874485
_cell_angle_beta	89.996233
_cell_angle_gamma	79.506162
loop_
_atom_site_label
_atom_site_type_symbol
_atom_site_fract_x
_atom_site_fract_y
_atom_site_fract_z
O1	O	1.056069	0.028426	-0.071078
O2	O	1.556069	0.528426	0.428922
O3	O	0.824304	0.057057	-0.068908
O4	O	1.324304	0.557057	0.431092
O5	O	0.946652	-0.072538	-0.078725
O6	O	1.446652	0.427462	0.421275
O7	O	0.933721	0.158021	-0.061260
O8	O	1.433721	0.658021	0.438740
O9	O	0.946644	-0.072539	0.067732
O10	O	1.446644	0.427461	0.567732
O11	O	0.824296	0.057056	0.077549
O12	O	1.324296	0.557056	0.577549
O13	O	1.056061	0.028425	0.075380
O14	O	1.556061	0.528425	0.575380
Zn15	Zn	0.940177	0.042740	0.099718
Zn16	Zn	1.440177	0.542740	0.599718
Zn17	Zn	0.940188	0.042742	-0.093246
Zn18	Zn	1.440188	0.542742	0.406754
O19	O	0.933712	0.158020	0.085197
O20	O	1.433712	0.658020	0.585197
C21	C	0.794644	0.058595	0.004437
C22	C	1.294644	0.558595	0.504437
C23	C	0.706280	0.063168	0.004783
C24	C	1.206280	0.563168	0.504783
C25	C	0.946158	-0.101893	-0.007722
C26	C	1.446158	0.398107	0.492278
C27	C	0.944687	-0.189360	-0.014353
C28	C	1.444687	0.310640	0.485647
C29	C	0.674335	-0.007205	-0.000546
C30	C	1.174335	0.492795	0.499454
C31	C	0.591307	-0.002903	-0.000226
C32	C	1.091307	0.497097	0.499774
C33	C	0.540226	0.071772	0.005429
C34	C	1.040226	0.571772	0.505429
C35	C	0.572177	0.142150	0.010756
C36	C	1.072177	0.642150	0.510756
C37	C	0.655203	0.137847	0.010430
C38	C	1.155203	0.637847	0.510430
C39	C	0.289061	0.088390	0.006681
C40	C	0.789061	0.588390	0.506681
C41	C	0.206030	0.092687	0.007010
C42	C	0.706030	0.592687	0.507010
C43	C	0.225166	-0.052367	-0.003974
C44	C	0.725166	0.447633	0.496026
C45	C	0.308193	-0.056662	-0.004294
C46	C	0.808193	0.443338	0.495706
C47	C	0.340136	0.013716	0.001028
C48	C	0.840136	0.513716	0.501028
C49	C	0.455358	0.076170	0.005758
C50	C	0.955358	0.576170	0.505758
C51	C	0.425003	0.009316	0.000692
C52	C	0.925003	0.509316	0.500692
C53	C	0.943990	-0.230460	0.062361
C54	C	1.443990	0.269540	0.562361
C55	C	0.942613	-0.312646	0.056123
C56	C	1.442613	0.187354	0.556123
C57	C	0.941928	-0.353729	-0.026831
C58	C	1.441928	0.146271	0.473169
C59	C	0.942628	-0.312624	-0.103552
C60	C	1.442628	0.187376	0.396448
C61	C	0.944010	-0.230441	-0.097312
C62	C	1.444010	0.269559	0.402688
C63	C	0.937760	-0.601870	-0.049664
C64	C	1.437760	-0.101870	0.450336
C65	C	0.936375	-0.684058	-0.055897
C66	C	1.436375	-0.184058	0.444103
C67	C	0.936362	-0.684074	0.103777
C68	C	1.436362	-0.184074	0.603777
C69	C	0.937739	-0.601889	0.110009
C70	C	1.437739	-0.101889	0.610009
C71	C	0.938443	-0.560792	0.033289
C72	C	1.438443	-0.060792	0.533289
C73	C	0.940518	-0.437736	-0.033210
C74	C	1.440518	0.062264	0.466790
C75	C	0.939859	-0.476788	0.039669
C76	C	1.439859	0.023212	0.539669
C77	C	1.085720	0.026887	0.002033
C78	C	1.585720	0.526887	0.502033
C79	C	1.174084	0.022314	0.001680
C80	C	1.674084	0.522314	0.501680
C81	C	0.934207	0.187375	0.014192
C82	C	1.434207	0.687375	0.514192
C83	C	0.935677	0.274842	0.020817
C84	C	1.435677	0.774842	0.520817
N85	N	0.940175	0.042738	0.231410
N86	N	1.440175	0.542738	0.731410
N87	N	0.940196	0.042737	-0.224939
N88	N	1.440196	0.542737	0.275061
C89	C	0.994370	-0.014630	0.452787
C90	C	1.494370	0.485370	0.952787
C91	C	0.994372	-0.014632	0.544977
C92	C	1.494372	0.485368	1.044977
C93	C	0.885995	0.100108	0.553677
C94	C	1.385995	0.600108	1.053677
C95	C	0.885990	0.100106	0.461489
C96	C	1.385990	0.600106	0.961489
C97	C	0.940181	0.042738	0.411047
C98	C	1.440181	0.542738	0.911047
C99	C	0.940190	0.042738	0.595424
C100	C	1.440190	0.542738	1.095424
C101	C	0.940192	0.042736	0.695380
C102	C	1.440192	0.542736	1.195380
C103	C	0.940178	0.042738	0.311084
C104	C	1.440178	0.542738	0.811084
H105	H	0.715920	-0.068014	-0.005147
H106	H	1.215920	0.431986	0.494853
H107	H	1.038495	-0.061344	0.411718
H108	H	1.538495	0.438656	0.911718
H109	H	0.940421	-0.443335	0.107209
H110	H	1.440421	0.056665	0.607209
C111	C	1.053982	-0.077733	0.590888
C112	C	1.553982	0.422267	1.090888
H113	H	1.086257	-0.111894	0.547640
H114	H	1.586257	0.388106	1.047640
H115	H	1.025393	-0.108605	0.624518
H116	H	1.525393	0.391395	1.124518
H117	H	1.087087	-0.051627	0.628821
H118	H	1.587087	0.448373	1.128821
H119	H	0.841875	0.146817	0.594757
H120	H	1.341875	0.646817	1.094757
C121	C	0.941842	-0.357851	0.140509
C122	C	1.441842	0.142149	0.640509
H123	H	0.942437	-0.321611	0.190806
H124	H	1.442437	0.178389	0.690806
H125	H	0.987698	-0.399144	0.140701
H126	H	1.487698	0.100856	0.640701
H127	H	0.894900	-0.380677	0.142089
H128	H	1.394900	0.119323	0.642089
H129	H	0.349779	-0.117471	-0.008895
H130	H	0.849779	0.382529	0.491105
C131	C	0.826382	0.163215	0.415572
C132	C	1.326382	0.663215	0.915572
H133	H	0.794116	0.197389	0.458816
H134	H	1.294116	0.697389	0.958816
H135	H	0.793280	0.137115	0.377638
H136	H	1.293280	0.637115	0.877638
H137	H	0.854981	0.194084	0.381942
H138	H	1.354981	0.694084	0.881942
H139	H	0.935790	-0.717544	0.166239
H140	H	1.435790	-0.217544	0.666239
C141	C	0.941898	-0.357815	-0.194801
C142	C	1.441898	0.142185	0.305199
H143	H	0.942525	-0.321567	-0.239596
H144	H	1.442525	0.178433	0.260404
H145	H	0.894969	-0.380650	-0.199874
H146	H	1.394969	0.119350	0.300126
H147	H	0.987768	-0.399101	-0.201235
H148	H	1.487768	0.100899	0.298765
H149	H	0.565302	-0.060208	-0.004567
H150	H	1.065302	0.439792	0.495433
H151	H	0.199148	-0.109664	-0.008317
H152	H	0.699148	0.390336	0.491683
H153	H	0.164440	0.153500	0.011619
H154	H	0.664440	0.653500	0.511619
H155	H	0.315059	0.145697	0.011009
H156	H	0.815059	0.645697	0.511009
H157	H	0.530580	0.202951	0.015354
H158	H	1.030580	0.702951	0.515354
C159	C	0.690343	0.215257	0.016293
C160	C	1.190343	0.715257	0.516293
H161	H	0.648031	0.260347	0.019715
H162	H	1.148031	0.760347	0.519715
H163	H	0.722337	0.216593	-0.034679
H164	H	1.222337	0.716593	0.465321
H165	H	0.722331	0.216594	0.067473
H166	H	1.222331	0.716594	0.567473
H167	H	0.466597	-0.051484	-0.003917
H168	H	0.966597	0.448516	0.496083
C169	C	0.944744	-0.185276	0.153611
C170	C	1.444744	0.314724	0.653611
H171	H	0.944139	-0.221529	0.198405
H172	H	1.444139	0.278471	0.698405
H173	H	0.898887	-0.143982	0.160067
H174	H	1.398887	0.356018	0.660067
H175	H	0.991686	-0.162453	0.158663
H176	H	1.491686	0.337547	0.658663
C177	C	0.399170	0.158310	0.011979
C178	C	0.899170	0.658310	0.511979
H179	H	0.430083	0.199610	0.015103
H180	H	0.930083	0.699610	0.515103
H181	H	0.366376	0.163001	0.063404
H182	H	0.866376	0.663001	0.563404
H183	H	0.366393	0.162997	-0.038749
H184	H	0.866393	0.662997	0.461251
H185	H	0.938314	-0.568448	0.177559
H186	H	1.438314	-0.068448	0.677559
C187	C	0.935665	-0.729257	-0.147151
C188	C	1.435665	-0.229257	0.352849
H189	H	0.936301	-0.693015	-0.191950
H190	H	1.436301	-0.193015	0.308050
H191	H	0.888740	-0.752098	-0.152235
H192	H	1.388740	-0.252098	0.347765
H193	H	0.981539	-0.770540	-0.153567
H194	H	1.481539	-0.270540	0.346433
C195	C	0.938520	-0.556670	-0.134053
C196	C	1.438520	-0.056670	0.365947
H197	H	0.937902	-0.592908	-0.184348
H198	H	1.437902	-0.092908	0.315652
H199	H	0.985454	-0.533842	-0.135646
H200	H	1.485454	-0.033842	0.364354
H201	H	0.892655	-0.515378	-0.134235
H202	H	1.392655	-0.015378	0.365765
H203	H	0.944579	-0.196979	-0.159782
H204	H	1.444579	0.303021	0.340218
H205	H	0.939959	-0.471194	-0.100751
H206	H	1.439959	0.028806	0.399249
