data_functionalizedCrystal
_audit_creation_method	'MofGen! by Chris Wilmer'
_symmetry_space_group_name_H-M	'P1'
_symmetry_Int_Tables_number	1
_symmetry_cell_setting	triclinic
loop_
_symmetry_equiv_pos_as_xyz
  x,y,z
_cell_length_a	16.176319
_cell_length_b	10.967916
_cell_length_c	10.908925
_cell_angle_alpha	72.685692
_cell_angle_beta	89.993291
_cell_angle_gamma	102.127769
loop_
_atom_site_label
_atom_site_type_symbol
_atom_site_fract_x
_atom_site_fract_y
_atom_site_fract_z
O1	O	-0.161811	-1.618375	-0.179744
O2	O	-0.109545	-1.251510	-0.196960
O3	O	-0.142610	-1.483572	-0.001849
O4	O	-0.128747	-1.386313	-0.374855
O5	O	-0.280103	-1.483572	-0.001831
O6	O	-0.247039	-1.251510	-0.196942
O7	O	-0.299304	-1.618376	-0.179726
Cu8	Cu	-0.285726	-1.434943	-0.188332
Cu9	Cu	-0.123124	-1.434943	-0.188354
O10	O	-0.266240	-1.386314	-0.374837
C11	C	-0.171706	-1.205281	-0.195700
C12	C	-0.152082	-1.067536	-0.191956
N13	N	-0.400092	-1.434953	-0.188316
N14	N	-0.008759	-1.434945	-0.188359
C15	C	-0.214559	-1.006125	-0.190278
C16	C	-0.194278	-0.863758	-0.186409
C17	C	0.019847	-1.537824	-0.102138
C18	C	0.106393	-1.537830	-0.102135
C19	C	0.164333	-1.434950	-0.188349
C20	C	0.135722	-1.332065	-0.274580
C21	C	0.049176	-1.332066	-0.274588
C22	C	0.484750	-1.332062	-0.274550
C23	C	0.571301	-1.332068	-0.274533
C24	C	0.541967	-1.537826	-0.102097
C25	C	0.455422	-1.537827	-0.102105
C26	C	0.426818	-1.434946	-0.188340
C27	C	0.332974	-1.434942	-0.188344
C28	C	0.258176	-1.434948	-0.188340
C29	C	-0.212650	-1.492661	0.045921
C30	C	-0.216504	-1.519729	0.188235
C31	C	-0.237143	-0.664605	-0.180986
C32	C	-0.256763	-0.802350	-0.184731
C33	C	-0.206415	-1.448922	0.385199
C34	C	-0.202430	-1.420944	0.238110
C35	C	-0.196199	-1.377223	0.577393
C36	C	-0.192343	-1.350150	0.435079
H37	H	-0.125771	-0.810942	-0.184978
H38	H	-0.231506	-1.625012	0.254419
O39	O	0.134042	-1.637836	-0.018251
C40	C	0.095809	-1.841960	0.152744
C41	C	0.064385	-1.728764	0.057832
H42	H	0.039505	-1.915518	0.214264
H43	H	0.142030	-1.801718	0.217487
H44	H	0.129157	-1.892489	0.096672
H45	H	0.030998	-1.678189	0.113800
H46	H	0.018205	-1.769084	-0.006910
O47	O	-0.224158	-1.574496	0.464205
C48	C	-0.176306	-1.738408	0.631944
C49	C	-0.156095	-1.596172	0.542526
H50	H	-0.121296	-1.755971	0.695307
H51	H	-0.186237	-1.808489	0.571578
H52	H	-0.236385	-1.756040	0.695208
H53	H	-0.096007	-1.578415	0.479244
H54	H	-0.146217	-1.526166	0.602968
O55	O	-0.174331	-1.224498	0.356257
C56	C	-0.073561	-1.017362	0.290616
C57	C	-0.093862	-1.159625	0.379972
H58	H	-0.008495	-0.964879	0.309739
H59	H	-0.123561	-0.964711	0.309814
H60	H	-0.073581	-1.017208	0.186067
H61	H	-0.093831	-1.159900	0.484552
H62	H	-0.043859	-1.212217	0.360663
H63	H	-0.283062	-1.058949	-0.191698
H64	H	-0.187437	-1.315661	0.171924
O65	O	0.457118	-1.231997	-0.358360
C66	C	0.495348	-1.027951	-0.529457
C67	C	0.526763	-1.141181	-0.434584
H68	H	0.551638	-0.954511	-0.591127
H69	H	0.462061	-0.977260	-0.473482
H70	H	0.449071	-1.068313	-0.594062
H71	H	0.573069	-1.100926	-0.369956
H72	H	0.560000	-1.191854	-0.490639
H73	H	-0.027323	-1.621596	-0.031927
H74	H	-0.325271	-0.855167	-0.186154
O75	O	-0.070315	-1.004609	-0.190431
C76	C	0.068727	-0.927547	-0.300261
C77	C	-0.023844	-0.998858	-0.302134
H78	H	0.106321	-0.922851	-0.390575
H79	H	0.097878	-0.982924	-0.211473
H80	H	0.070498	-0.823982	-0.297381
H81	H	-0.025690	-1.102425	-0.305059
H82	H	-0.052956	-0.943381	-0.390911
H83	H	0.408249	-1.621597	-0.031898
O84	O	0.569710	-1.637694	-0.018133
C85	C	0.579025	-1.757317	0.203992
C86	C	0.547593	-1.644162	0.109031
H87	H	0.561140	-1.762600	0.306824
H88	H	0.650839	-1.739712	0.189339
H89	H	0.548312	-1.853477	0.186101
H90	H	0.578244	-1.547953	0.126864
H91	H	0.475774	-1.661880	0.123706
O92	O	0.192119	-1.232199	-0.358205
C93	C	0.338441	-1.141037	-0.434663
C94	C	0.274666	-1.254206	-0.339872
H95	H	0.405192	-1.158804	-0.419892
H96	H	0.335185	-1.044827	-0.416827
H97	H	0.322143	-1.135742	-0.537522
H98	H	0.290920	-1.259624	-0.236977
H99	H	0.277934	-1.350361	-0.357820
H100	H	0.618476	-1.248288	-0.344744
H101	H	0.025887	-1.248293	-0.344800
