data_functionalizedCrystal
_audit_creation_method	'MofGen! by Chris Wilmer'
_symmetry_space_group_name_H-M	'P1'
_symmetry_Int_Tables_number	1
_symmetry_cell_setting	triclinic
loop_
_symmetry_equiv_pos_as_xyz
  x,y,z
_cell_length_a	16.992694
_cell_length_b	11.892095
_cell_length_c	16.992695
_cell_angle_alpha	85.845109
_cell_angle_beta	90.668223
_cell_angle_gamma	94.159293
loop_
_atom_site_label
_atom_site_type_symbol
_atom_site_fract_x
_atom_site_fract_y
_atom_site_fract_z
O1	O	1.055561	0.093862	0.162207
O2	O	0.827163	0.093895	0.160374
O3	O	0.940446	0.093870	0.047091
O4	O	0.942278	0.093887	0.275490
O5	O	0.931000	-0.094136	0.056520
O6	O	0.817717	-0.094110	0.169803
O7	O	1.046115	-0.094143	0.171636
Zn8	Zn	0.930416	-0.123977	0.172217
Zn9	Zn	0.942862	0.123729	0.159793
O10	O	0.932832	-0.094118	0.284920
C11	C	0.793080	-0.000103	0.162733
C12	C	0.705596	-0.000091	0.155703
N13	N	0.921928	-0.293029	0.180696
C14	C	0.659605	-0.000086	0.223521
C15	C	0.577404	-0.000102	0.216913
C16	C	0.541195	-0.000115	0.142486
C17	C	0.587191	-0.000123	0.074663
C18	C	0.669391	-0.000115	0.081272
C19	C	0.295879	-0.000147	0.115093
C20	C	0.213673	-0.000152	0.108489
C21	C	0.203891	-0.000134	0.250739
C22	C	0.286093	-0.000119	0.257341
C23	C	0.332082	-0.000133	0.189519
N24	N	0.457172	-0.000128	0.135729
N25	N	0.416103	-0.000128	0.196277
C26	C	1.010419	-0.529697	0.092262
C27	C	1.004491	-0.648037	0.098195
C28	C	0.904143	-0.648053	0.198490
C29	C	0.910070	-0.529712	0.192557
C30	C	0.963210	-0.470538	0.139442
C31	C	0.969141	-0.352195	0.133514
C32	C	0.868789	-0.352213	0.233805
C33	C	0.862862	-0.470554	0.239738
C34	C	1.080198	-0.000142	0.169277
C35	C	1.167683	-0.000147	0.176306
C36	C	0.933367	-0.000132	0.022445
C37	C	0.926339	-0.000131	-0.065039
N38	N	0.951356	0.292781	0.151308
C39	C	0.994156	-0.000142	-0.111030
C40	C	0.987548	-0.000130	-0.193231
C41	C	0.913121	-0.000116	-0.229440
C42	C	0.845298	-0.000101	-0.183444
C43	C	0.851908	-0.000105	-0.101244
C44	C	0.885727	-0.000096	-0.474755
C45	C	0.879123	-0.000096	-0.556961
C46	C	1.021373	-0.000123	-0.566742
C47	C	1.027975	-0.000133	-0.484541
C48	C	0.960153	-0.000113	-0.438552
N49	N	0.906364	-0.000107	-0.313463
N50	N	0.966911	-0.000113	-0.354531
C51	C	0.939911	-0.000113	0.309565
C52	C	0.946940	-0.000107	0.397049
H53	H	0.689080	-0.000075	0.284127
H54	H	1.088581	-0.000146	-0.455065
H55	H	0.184195	-0.000161	0.047878
H56	H	1.042932	-0.696201	0.059775
O57	O	0.846830	-0.711883	0.255776
H58	H	0.850645	-0.804111	0.251974
O59	O	0.805553	-0.534377	0.297030
H60	H	0.809365	-0.626606	0.293235
O61	O	1.060692	-0.000161	-0.242837
H62	H	1.113554	-0.000192	-0.203848
H63	H	0.830351	-0.304033	0.272225
H64	H	1.012413	-0.304017	0.090267
O65	O	0.527803	-0.000096	0.290062
H66	H	0.464560	-0.000119	0.272967
H67	H	1.054762	-0.000161	-0.081554
O68	O	0.812579	-0.000103	-0.425156
H69	H	0.759716	-0.000113	-0.464146
O70	O	0.345474	-0.000164	0.041943
H71	H	0.335890	0.076462	0.002726
H72	H	1.076589	-0.000138	-0.604195
H73	H	0.784699	-0.000082	-0.212932
O74	O	0.798845	-0.000067	-0.596020
H75	H	0.752794	-0.000041	-0.550233
H76	H	0.796684	-0.000096	-0.063800
O77	O	1.067731	-0.465861	0.034978
H78	H	1.099561	-0.526880	0.003164
H79	H	0.315569	-0.000096	0.317947
H80	H	0.166438	-0.000125	0.305956
H81	H	0.706836	-0.000117	0.026048
O82	O	0.548143	-0.000140	-0.005615
H83	H	0.483259	-0.000134	0.001181
