data_functionalizedCrystal
_audit_creation_method	'MofGen! by Chris Wilmer'
_symmetry_space_group_name_H-M	'P1'
_symmetry_Int_Tables_number	1
_symmetry_cell_setting	triclinic
loop_
_symmetry_equiv_pos_as_xyz
  x,y,z
_cell_length_a	10.540510
_cell_length_b	15.995292
_cell_length_c	9.616153
_cell_angle_alpha	90.000932
_cell_angle_beta	89.992871
_cell_angle_gamma	83.990964
loop_
_atom_site_label
_atom_site_type_symbol
_atom_site_fract_x
_atom_site_fract_y
_atom_site_fract_z
O1	O	1.684257	0.117879	-0.115643
O2	O	1.314682	0.129023	-0.115643
O3	O	1.509610	0.001620	-0.115646
O4	O	1.489328	0.245282	-0.115641
O5	O	1.509584	0.001622	0.115646
O6	O	1.314656	0.129025	0.115648
O7	O	1.684230	0.117881	0.115648
Zn8	Zn	1.499439	0.123454	0.152371
Zn9	Zn	1.499474	0.123450	-0.152366
O10	O	1.489302	0.245284	0.115650
C11	C	1.267377	0.128194	0.000002
C12	C	1.126462	0.125709	0.000002
C13	C	0.907762	0.214215	-0.000528
C14	C	1.054320	0.216866	0.000002
C15	C	1.082343	0.079047	0.132077
C16	C	0.935610	0.077043	0.132179
C17	C	0.935861	0.075141	-0.130843
C18	C	1.082142	0.079465	-0.132580
C19	C	1.508772	-0.029579	-0.000003
C20	C	1.506297	-0.122547	-0.000014
C21	C	1.497199	-0.460339	-0.000001
C22	C	1.637893	-0.436196	0.000516
C23	C	1.640567	-0.339504	-0.000011
C24	C	1.501713	-0.292757	-0.000007
C25	C	1.431388	-0.322275	-0.132081
C26	C	1.429695	-0.419075	-0.132187
C27	C	1.426791	-0.418946	0.130835
C28	C	1.432005	-0.322423	0.132576
C29	C	1.504257	-0.198045	-0.000014
C30	C	1.494651	-0.555050	-0.000003
C31	C	1.731535	0.118711	-0.000001
C32	C	1.872450	0.121195	-0.000009
C33	C	1.490141	0.276484	0.000005
C34	C	1.492615	0.369451	0.000006
N35	N	1.499424	0.123456	0.360345
N36	N	1.499499	0.123442	-0.360340
C37	C	1.394838	0.191379	0.580716
C38	C	1.395062	0.191634	0.419549
C39	C	1.631870	0.143322	0.418795
C40	C	1.631298	0.143803	0.580013
C41	C	1.472889	0.035443	0.580255
C42	C	1.469834	0.036014	0.419028
H43	H	0.863748	0.249526	0.093655
H44	H	1.296612	0.179681	0.380033
H45	H	1.083164	0.253370	-0.094678
H46	H	1.655875	0.206798	0.378405
O47	O	1.091333	0.265480	0.125631
H48	H	1.157808	0.224234	0.191600
H49	H	1.695645	-0.320152	0.094663
O50	O	1.119427	0.124429	-0.262016
H51	H	1.032452	0.145992	-0.322532
O52	O	1.485162	-0.456018	0.263444
H53	H	1.477227	-0.524658	0.265346
H54	H	1.296077	0.179611	0.619527
O55	O	1.417023	0.277376	0.634341
H56	H	1.502270	0.271942	0.702790
H57	H	1.132146	0.012914	-0.140557
O58	O	0.907791	-0.015515	-0.132047
H59	H	0.848971	-0.027753	-0.039970
O60	O	1.573935	-0.031568	0.630755
H61	H	1.669051	-0.016590	0.594849
O62	O	1.347731	0.010405	0.634179
H63	H	1.331175	-0.051837	0.590803
O64	O	1.709716	-0.472827	0.125998
H65	H	1.645914	-0.508644	0.189332
O66	O	1.494342	-0.454421	-0.262778
H67	H	1.577844	-0.499219	-0.234141
O68	O	0.881711	0.119294	0.262942
H69	H	0.960488	0.140966	0.325507
O70	O	1.709355	-0.474204	-0.124241
H71	H	1.660873	-0.450039	-0.220828
O72	O	1.293061	-0.439169	-0.140154
H73	H	1.228487	-0.379767	-0.143926
O74	O	1.296044	-0.280861	-0.138608
H75	H	1.277424	-0.238696	-0.047571
O76	O	1.340772	0.016063	0.368455
H77	H	1.297873	0.068198	0.301791
H78	H	0.865320	0.249728	-0.095247
H79	H	1.480246	-0.301927	-0.230373
O80	O	1.417563	0.278110	0.368426
H81	H	1.428339	0.319909	0.458855
O82	O	1.713961	-0.314678	-0.125649
H83	H	1.747670	-0.371768	-0.186274
H84	H	1.483212	-0.303554	0.230283
H85	H	1.541107	-0.016970	0.378732
H86	H	1.654751	0.208004	0.617602
O87	O	1.297766	-0.279525	0.143161
H88	H	1.242690	-0.294767	0.049814
H89	H	1.323230	-0.433549	0.131728
H90	H	1.711610	0.096314	0.619000
H91	H	1.130676	0.011939	0.136988
H92	H	0.913573	0.008863	0.138177
H93	H	1.112730	0.111455	0.230368
O94	O	0.879139	0.113302	-0.263458
H95	H	0.805110	0.165525	-0.237592
O96	O	1.737498	0.079573	0.368001
H97	H	1.696618	0.032945	0.300389
