data_functionalizedCrystal
_audit_creation_method	'MofGen! by Chris Wilmer'
_symmetry_space_group_name_H-M	'P1'
_symmetry_Int_Tables_number	1
_symmetry_cell_setting	triclinic
loop_
_symmetry_equiv_pos_as_xyz
  x,y,z
_cell_length_a	14.971482
_cell_length_b	16.109304
_cell_length_c	13.448316
_cell_angle_alpha	89.996206
_cell_angle_beta	89.993798
_cell_angle_gamma	83.537623
loop_
_atom_site_label
_atom_site_type_symbol
_atom_site_fract_x
_atom_site_fract_y
_atom_site_fract_z
O1	O	1.186794	0.108333	-0.082673
O2	O	0.926375	0.121311	-0.082677
O3	O	1.063737	-0.006200	-0.082675
O4	O	1.049432	0.235844	-0.082674
O5	O	1.063720	-0.006208	0.082709
O6	O	0.926358	0.121303	0.082707
O7	O	1.186777	0.108325	0.082711
Cu8	Cu	1.056566	0.114814	0.097810
Cu9	Cu	1.056586	0.114823	-0.097776
O10	O	1.049415	0.235836	0.082710
C11	C	0.893043	0.120727	0.000015
C12	C	0.793748	0.118990	0.000013
C13	C	0.747095	0.118167	0.090165
C14	C	0.653799	0.116521	0.090166
C15	C	0.607157	0.115704	0.000014
C16	C	0.653816	0.116524	-0.090145
C17	C	0.747112	0.118164	-0.090145
C18	C	0.459359	0.113108	-0.090138
C19	C	0.366057	0.111469	-0.090139
C20	C	0.366047	0.111465	0.090172
C21	C	0.459342	0.113105	0.090172
C22	C	0.505995	0.113927	0.000013
C23	C	1.063149	-0.037179	0.000015
C24	C	1.061410	-0.129477	0.000008
C25	C	1.057403	-0.341815	-0.090139
C26	C	1.055761	-0.428537	-0.090138
C27	C	1.055747	-0.428543	0.090172
C28	C	1.057382	-0.341821	0.090170
C29	C	1.058215	-0.298460	0.000011
C30	C	1.054938	-0.471904	0.000014
C31	C	1.053157	-0.565932	0.000016
C32	C	1.059993	-0.204426	0.000009
C33	C	1.220110	0.108909	0.000018
C34	C	1.319404	0.110647	0.000013
C35	C	1.050003	0.266816	0.000018
C36	C	1.051742	0.359113	0.000018
N37	N	1.056558	0.114806	0.235374
N38	N	1.056601	0.114823	-0.235340
C39	C	1.117401	0.058368	0.287415
C40	C	1.117407	0.058367	0.391519
C41	C	1.056573	0.114810	0.443579
C42	C	0.995724	0.171251	0.391531
C43	C	0.995714	0.171247	0.287429
C44	C	0.995748	0.171257	0.608511
C45	C	0.995758	0.171262	0.712619
C46	C	1.117441	0.058377	0.712600
C47	C	1.117431	0.058373	0.608499
C48	C	1.056583	0.114815	0.556458
H49	H	0.497315	0.113775	0.163582
H50	H	0.328057	0.110796	0.163583
O51	O	0.504620	0.114059	-0.177743
C52	C	0.471654	0.185603	-0.232591
H53	H	0.438900	0.235433	-0.179836
H54	H	0.419805	0.168389	-0.288810
C55	C	0.590160	0.158494	-0.352619
C56	C	0.549937	0.219699	-0.287824
H57	H	0.638447	0.179525	-0.386694
H58	H	0.612369	0.110291	-0.315669
H59	H	0.546944	0.144155	-0.399459
H60	H	0.593150	0.234029	-0.240978
H61	H	0.527738	0.267905	-0.324767
H62	H	1.058038	-0.306520	0.163586
O63	O	0.792289	0.119004	-0.177807
C64	C	0.731121	0.117913	-0.257379
H65	H	0.660901	0.143043	-0.230949
H66	H	0.730609	0.051091	-0.285101
C67	C	0.846094	0.142174	-0.375014
C68	C	0.759850	0.173046	-0.342555
H69	H	0.863816	0.176179	-0.427557
H70	H	0.887305	0.142906	-0.321406
H71	H	0.845656	0.086490	-0.398109
H72	H	0.760291	0.228725	-0.319449
H73	H	0.718639	0.172325	-0.396161
H74	H	1.055071	-0.463858	0.163576
O75	O	1.058161	-0.299816	-0.177804
C76	C	1.057114	-0.356685	-0.257372
H77	H	1.027646	-0.415089	-0.230938
H78	H	1.128656	-0.374560	-0.285097
C79	C	1.035325	-0.244033	-0.375013
C80	C	0.999125	-0.315762	-0.342548
H81	H	0.999559	-0.218789	-0.427556
H82	H	1.036034	-0.205718	-0.321408
H83	H	1.094943	-0.258939	-0.398111
H84	H	0.939513	-0.300854	-0.319440
H85	H	0.998404	-0.354074	-0.396152
O86	O	1.054816	-0.470670	-0.177685
C87	C	0.976460	-0.511506	-0.183071
H88	H	0.922836	-0.478843	-0.131913
H89	H	0.992718	-0.579343	-0.158850
C90	C	1.007203	-0.548714	-0.353614
C91	C	0.941339	-0.508592	-0.290786
H92	H	0.985540	-0.546921	-0.420058
H93	H	1.059995	-0.521205	-0.349985
H94	H	1.020746	-0.605241	-0.333417
H95	H	0.927805	-0.452063	-0.310975
H96	H	0.888543	-0.536092	-0.294421
O97	O	1.176530	0.003459	0.237003
C98	C	1.230246	-0.046342	0.305264
H99	H	1.193581	-0.047333	0.379479
H100	H	1.296680	-0.019244	0.316317
C101	C	1.293740	-0.134790	0.173494
C102	C	1.248704	-0.136013	0.264644
H103	H	1.305130	-0.190103	0.148437
H104	H	1.257553	-0.101237	0.127504
H105	H	1.349097	-0.112205	0.182717
H106	H	1.193344	-0.158588	0.255418
H107	H	1.284882	-0.169573	0.310632
H108	H	0.946220	0.217223	0.755001
H109	H	0.615833	0.115853	-0.163548
H110	H	0.328083	0.110804	-0.163548
H111	H	1.166949	0.012410	0.433890
H112	H	1.166971	0.012417	0.566111
H113	H	1.166985	0.012419	0.754978
O114	O	0.936609	0.226167	0.558110
C115	C	0.882905	0.275975	0.626380
H116	H	0.919579	0.276970	0.700580
H117	H	0.816470	0.248881	0.637469
C118	C	0.819397	0.364415	0.494611
C119	C	0.864446	0.365643	0.585742
H120	H	0.808007	0.419726	0.469543
H121	H	0.855576	0.330857	0.448616
H122	H	0.764040	0.341833	0.503864
H123	H	0.919806	0.388215	0.576486
H124	H	0.828275	0.399207	0.631735
O125	O	0.792514	0.118851	0.177676
C126	C	0.856620	0.047838	0.183081
H127	H	0.873990	0.024102	0.104806
H128	H	0.827771	-0.003179	0.227568
C129	C	0.920815	0.100401	0.330765
C130	C	0.942156	0.071252	0.234626
H131	H	0.973577	0.114842	0.362565
H132	H	0.877624	0.148242	0.327127
H133	H	0.896773	0.057882	0.367825
H134	H	0.966187	0.113775	0.197564
H135	H	0.985353	0.023418	0.238259
H136	H	0.946187	0.217205	0.433924
O137	O	0.936580	0.226154	0.237027
C138	C	0.882874	0.275960	0.305297
H139	H	0.919551	0.276960	0.379495
H140	H	0.816443	0.248861	0.316389
C141	C	0.819355	0.364393	0.173527
C142	C	0.864406	0.365627	0.264656
H143	H	0.807959	0.419703	0.148457
H144	H	0.855535	0.330836	0.127531
H145	H	0.764001	0.341807	0.182783
H146	H	0.919763	0.388203	0.255396
H147	H	0.828234	0.399190	0.310649
H148	H	0.615820	0.115837	0.163576
