data_functionalizedCrystal
_audit_creation_method	'MofGen! by Chris Wilmer'
_symmetry_space_group_name_H-M	'P1'
_symmetry_Int_Tables_number	1
_symmetry_cell_setting	triclinic
loop_
_symmetry_equiv_pos_as_xyz
  x,y,z
_cell_length_a	16.120484
_cell_length_b	18.215407
_cell_length_c	18.215399
_cell_angle_alpha	90.018561
_cell_angle_beta	92.869789
_cell_angle_gamma	87.082750
loop_
_atom_site_label
_atom_site_type_symbol
_atom_site_fract_x
_atom_site_fract_y
_atom_site_fract_z
Zn1	Zn	-0.332098	-1.110204	-0.430944
Zn2	Zn	0.167902	-0.610204	0.069056
Zn3	Zn	-0.471518	-1.103870	-0.314113
Zn4	Zn	0.028482	-0.603870	0.185887
Zn5	Zn	-0.332104	-0.987136	-0.307894
Zn6	Zn	0.167896	-0.487136	0.192106
Zn7	Zn	-0.471451	-0.980864	-0.437138
Zn8	Zn	0.028549	-0.480864	0.062862
O9	O	-0.401793	-1.045519	-0.372522
O10	O	0.098207	-0.545519	0.127478
O11	O	-0.350618	-1.212347	-0.415456
O12	O	0.149382	-0.712347	0.084544
O13	O	-0.453055	-1.088360	-0.210305
O14	O	0.046945	-0.588360	0.289695
O15	O	-0.215438	-1.008737	-0.319022
O16	O	0.284562	-0.508737	0.180978
O17	O	-0.453049	-1.207694	-0.329621
O18	O	0.046951	-0.707694	0.170379
O19	O	-0.215433	-1.099154	-0.409426
O20	O	0.284567	-0.599154	0.090574
O21	O	-0.350628	-1.002596	-0.205736
O22	O	0.149372	-0.502596	0.294264
O23	O	-0.350563	-0.883321	-0.325028
O24	O	0.149437	-0.383321	0.174972
O25	O	-0.452934	-0.998046	-0.539299
O26	O	0.047066	-0.498046	-0.039299
O27	O	-0.452940	-0.878713	-0.419983
O28	O	0.047060	-0.378713	0.080017
O29	O	-0.350552	-1.093072	-0.534748
O30	O	0.149448	-0.593072	-0.034748
O31	O	-0.588174	-1.082278	-0.335627
O32	O	-0.088174	-0.582278	0.164373
O33	O	-0.588125	-0.991905	-0.426013
O34	O	-0.088125	-0.491905	0.073987
C35	C	-0.401745	-0.854314	-0.372503
C36	C	0.098255	-0.354314	0.127497
C37	C	-0.401745	-0.772516	-0.372513
C38	C	0.098255	-0.272516	0.127487
C39	C	-0.348530	-0.509870	-0.417288
C40	C	0.151470	-0.009870	0.082712
C41	C	-0.348520	-0.586729	-0.417286
C42	C	0.151480	-0.086729	0.082714
C43	C	-0.455028	-0.581910	-0.327758
C44	C	0.044972	-0.081910	0.172242
C45	C	-0.455040	-0.505052	-0.327764
C46	C	0.044960	-0.005052	0.172236
C47	C	-0.401787	-0.469034	-0.372528
C48	C	0.098213	0.030966	0.127472
C49	C	-0.401765	-0.622751	-0.372520
C50	C	0.098235	-0.122751	0.127480
C51	C	-0.401755	-0.706085	-0.372518
C52	C	0.098245	-0.206085	0.127482
C53	C	-0.401797	-0.385695	-0.372531
C54	C	0.098203	0.114305	0.127469
C55	C	-0.618399	-1.035743	-0.382183
C56	C	-0.118399	-0.535743	0.117817
C57	C	-0.711065	-1.031629	-0.386341
C58	C	-0.211065	-0.531629	0.113659
C59	C	-0.880725	-1.024121	-0.393946
C60	C	-0.380725	-0.524121	0.106054
C61	C	-0.922019	-1.067048	-0.351110
C62	C	-0.422019	-0.567048	0.148890
C63	C	-1.016424	-1.062871	-0.355342
C64	C	-0.516424	-0.562871	0.144658
C65	C	-0.786312	-1.028297	-0.389715
C66	C	-0.286312	-0.528297	0.110285
C67	C	-0.184340	-1.055352	-0.362840
C68	C	0.315660	-0.555352	0.137160
C69	C	-0.091675	-1.059542	-0.358713
C70	C	0.408325	-0.559542	0.141287
C71	C	-0.401735	-1.045566	-0.564472
C72	C	0.098265	-0.545566	-0.064472
C73	C	-0.401711	-1.045586	-0.646270
C74	C	0.098289	-0.545586	-0.146270
C75	C	-0.401827	-0.237470	-0.372538
C76	C	0.098173	0.262530	0.127462
C77	C	-0.401806	-0.319270	-0.372534
C78	C	0.098194	0.180730	0.127466
C79	C	-0.348350	-1.095085	-0.832094
C80	C	0.151650	-0.595085	-0.332094
C81	C	-0.348326	-1.095095	-0.908952
C82	C	0.151674	-0.595095	-0.408952
C83	C	-0.454942	-0.996145	-0.913679
C84	C	0.045058	-0.496145	-0.413679
C85	C	-0.454961	-0.996132	-0.836822
C86	C	0.045039	-0.496132	-0.336822
C87	C	-0.401667	-1.045606	-0.796032
C88	C	0.098333	-0.545606	-0.296032
C89	C	-0.401623	-1.045629	-0.949746
C90	C	0.098377	-0.545629	-0.449746
C91	C	-0.401597	-1.045639	-1.033079
C92	C	0.098403	-0.545639	-0.533079
C93	C	-0.401691	-1.045595	-0.712694
C94	C	0.098309	-0.545595	-0.212694
C95	C	-0.401790	-1.045516	-0.181316
C96	C	0.098210	-0.545516	0.318684
C97	C	-0.401579	-1.045649	-0.099508
C98	C	0.098421	-0.545649	0.400492
H99	H	-0.498383	-0.611245	-0.291312
H100	H	0.001617	-0.111245	0.208688
O101	O	-0.296533	-1.143036	-0.792388
O102	O	0.203467	-0.643036	-0.292388
C103	C	-0.242677	-1.103559	-0.745543
C104	C	0.257323	-0.603559	-0.245543
H105	H	-0.272077	-1.046460	-0.735324
H106	H	0.227923	-0.546460	-0.235324
H107	H	-0.231517	-1.134032	-0.691006
H108	H	0.268483	-0.634032	-0.191006
H109	H	-0.180888	-1.098264	-0.772416
H110	H	0.319112	-0.598264	-0.272416
O111	O	-0.923033	-0.976435	-0.441444
O112	O	-0.423033	-0.476435	0.058556
C113	C	-0.901923	-0.904012	-0.424348
C114	C	-0.401923	-0.404012	0.075652
H115	H	-0.838695	-0.905246	-0.393282
H116	H	-0.338695	-0.405246	0.106718
H117	H	-0.899043	-0.871101	-0.477302
H118	H	-0.399043	-0.371101	0.022698
H119	H	-0.950959	-0.877125	-0.388639
H120	H	-0.450959	-0.377125	0.111361
O121	O	-0.506868	-0.465343	-0.284391
O122	O	-0.006868	0.034657	0.215609
C123	C	-0.560763	-0.418471	-0.328626
C124	C	-0.060763	0.081529	0.171374
H125	H	-0.565987	-0.441424	-0.386811
H126	H	-0.065987	0.058576	0.113189
H127	H	-0.624888	-0.414707	-0.304783
H128	H	-0.124888	0.085293	0.195217
H129	H	-0.534999	-0.361380	-0.330054
H130	H	-0.034999	0.138620	0.169946
H131	H	-0.886472	-1.106935	-0.311258
H132	H	-0.386472	-0.606935	0.188742
O133	O	-0.296650	-1.143188	-0.944070
O134	O	0.203350	-0.643188	-0.444070
C135	C	-0.344111	-1.188593	-0.990639
C136	C	0.155889	-0.688593	-0.490639
H137	H	-0.407283	-1.159786	-1.004959
H138	H	0.092717	-0.659786	-0.504959
H139	H	-0.310137	-1.199994	-1.043174
H140	H	0.189863	-0.699994	-0.543174
H141	H	-0.353289	-1.242714	-0.961440
H142	H	0.146711	-0.742714	-0.461440
H143	H	-0.305154	-0.619974	-0.453735
H144	H	0.194846	-0.119974	0.046265
O145	O	-0.506686	-0.948162	-0.953417
O146	O	-0.006686	-0.448162	-0.453417
C147	C	-0.495224	-0.958770	-1.028986
C148	C	0.004776	-0.458770	-0.528986
H149	H	-0.467930	-1.016800	-1.038278
H150	H	0.032070	-0.516800	-0.538278
H151	H	-0.557664	-0.950961	-1.060972
H152	H	-0.057664	-0.450961	-0.560972
H153	H	-0.450813	-0.917129	-1.048814
H154	H	0.049187	-0.417129	-0.548814
O155	O	-0.506877	-0.948140	-0.801825
O156	O	-0.006877	-0.448140	-0.301825
C157	C	-0.589968	-0.960458	-0.824315
C158	C	-0.089968	-0.460458	-0.324315
H159	H	-0.594185	-1.019062	-0.845643
H160	H	-0.094185	-0.519062	-0.345643
H161	H	-0.631164	-0.952251	-0.775600
H162	H	-0.131164	-0.452251	-0.275600
H163	H	-0.611743	-0.920023	-0.869887
H164	H	-0.111743	-0.420023	-0.369887
O165	O	-0.296781	-0.474996	-0.460843
O166	O	0.203219	0.025004	0.039157
C167	C	-0.249761	-0.527525	-0.500336
C168	C	0.250239	-0.027525	-0.000336
H169	H	-0.283904	-0.580779	-0.504353
H170	H	0.216096	-0.080779	-0.004353
H171	H	-0.240955	-0.505738	-0.557942
H172	H	0.259045	-0.005738	-0.057942
H173	H	-0.186403	-0.538532	-0.470651
H174	H	0.313597	-0.038532	0.029349
