data_functionalizedCrystal
_audit_creation_method	'MofGen! by Chris Wilmer'
_symmetry_space_group_name_H-M	'P1'
_symmetry_Int_Tables_number	1
_symmetry_cell_setting	triclinic
loop_
_symmetry_equiv_pos_as_xyz
  x,y,z
_cell_length_a	19.077105
_cell_length_b	25.639239
_cell_length_c	19.077174
_cell_angle_alpha	92.270789
_cell_angle_beta	85.483752
_cell_angle_gamma	87.734929
loop_
_atom_site_label
_atom_site_type_symbol
_atom_site_fract_x
_atom_site_fract_y
_atom_site_fract_z
Zn1	Zn	1.093621	-0.254037	-0.441824
Zn2	Zn	1.088778	-0.337809	-0.323930
Zn3	Zn	0.971008	-0.246728	-0.319222
Zn4	Zn	0.975672	-0.337775	-0.437048
O5	O	1.032270	-0.294087	-0.380506
O6	O	1.191628	-0.268222	-0.430154
O7	O	1.069177	-0.322682	-0.224656
O8	O	0.987348	-0.174535	-0.335514
O9	O	1.188069	-0.329769	-0.343538
O10	O	1.077431	-0.179905	-0.425589
O11	O	0.982652	-0.255766	-0.221197
O12	O	0.872978	-0.255733	-0.330883
O13	O	0.995296	-0.329711	-0.536331
O14	O	0.876404	-0.322624	-0.417449
O15	O	1.081953	-0.268189	-0.539840
O16	O	1.073699	-0.410966	-0.338907
O17	O	0.990600	-0.410941	-0.422014
C18	C	0.849112	-0.288382	-0.373137
C19	C	0.770758	-0.285954	-0.370001
C20	C	0.735746	-0.319689	-0.413528
C21	C	0.662123	-0.317401	-0.410585
C22	C	0.623514	-0.281381	-0.364112
C23	C	0.658531	-0.247643	-0.320584
C24	C	0.732152	-0.249928	-0.323531
C25	C	0.403136	-0.270803	-0.350476
C26	C	0.329510	-0.268521	-0.347530
C27	C	0.333107	-0.338279	-0.437533
C28	C	0.406730	-0.340563	-0.440473
C29	C	0.441741	-0.306824	-0.396948
N30	N	0.548259	-0.279043	-0.361101
N31	N	0.516994	-0.309160	-0.399962
C32	C	1.032150	-0.429925	-0.380469
C33	C	1.032164	-0.488040	-0.380479
C34	C	1.075660	-0.848413	-0.337314
C35	C	1.075688	-0.903019	-0.337324
O36	O	1.112545	-0.931259	-0.300583
N37	N	1.032395	-0.930331	-0.380558
C38	C	0.989078	-0.903036	-0.423789
O39	O	0.952258	-0.931282	-0.460564
C40	C	0.989055	-0.848432	-0.423781
C41	C	1.032344	-0.821122	-0.380540
C42	C	1.118947	-0.821103	-0.294076
C43	C	1.118918	-0.766501	-0.294065
C44	C	1.075602	-0.739210	-0.337291
C45	C	1.032315	-0.766520	-0.380529
C46	C	0.945742	-0.821138	-0.467016
C47	C	0.945722	-0.766530	-0.467005
C48	C	0.989012	-0.739220	-0.423764
C49	C	0.988971	-0.684627	-0.423743
N50	N	1.032263	-0.657314	-0.380510
C51	C	1.075579	-0.684606	-0.337284
C52	C	0.989132	-1.017709	-0.423802
C53	C	0.989151	-1.072312	-0.423806
C54	C	1.075762	-1.072291	-0.337342
C55	C	1.075738	-1.017686	-0.337335
C56	C	1.032424	-0.990396	-0.380568
C57	C	1.075514	-0.569938	-0.337263
C58	C	1.075480	-0.515331	-0.337253
C59	C	0.988872	-0.515357	-0.423719
C60	C	0.988904	-0.569959	-0.423727
C61	C	1.032231	-0.597248	-0.380496
O62	O	0.952135	-0.656351	-0.460468
O63	O	1.112400	-0.656354	-0.300522
C64	C	1.216142	-0.299815	-0.387904
C65	C	1.294498	-0.302256	-0.391057
C66	C	1.039685	-0.299761	-0.564379
C67	C	1.042845	-0.302179	-0.642735
C68	C	1.032410	-0.157720	-0.380559
C69	C	1.032470	-0.099608	-0.380582
C70	C	0.999283	-0.268476	-0.677746
C71	C	1.002250	-0.270753	-0.751369
C72	C	1.048782	-0.306730	-0.789981
C73	C	1.092346	-0.340437	-0.754966
C74	C	1.089376	-0.338163	-0.681343
C75	C	1.062494	-0.317270	-1.010362
C76	C	1.065462	-0.319540	-1.083989
C77	C	0.975364	-0.249857	-1.080388
C78	C	0.972401	-0.247584	-1.006764
C79	C	1.015962	-0.281292	-0.971755
N80	N	1.051817	-0.309056	-0.865236
N81	N	1.012923	-0.278968	-0.896501
C82	C	1.024924	-0.288398	-0.197350
C83	C	1.021900	-0.285837	-0.119000
H84	H	0.304594	-0.365747	-0.472970
C85	C	0.898123	-0.851172	-0.514583
C86	C	0.930875	-0.891329	-0.571190
C87	C	0.883255	-0.921363	-0.618759
C88	C	0.802882	-0.911240	-0.609723
C89	C	0.770126	-0.871082	-0.553114
C90	C	0.817747	-0.841048	-0.505544
H91	H	0.990376	-0.898823	-0.577881
H92	H	0.907503	-0.951091	-0.660665
H93	H	0.767630	-0.933473	-0.644937
H94	H	0.710625	-0.863587	-0.546422
H95	H	0.793498	-0.811319	-0.463638
H96	H	1.110797	-0.592150	-0.302062
C97	C	1.116648	-0.359127	-1.126451
C98	C	1.174073	-0.339775	-1.179298
C99	C	1.225256	-0.379362	-1.221754
C100	C	1.219015	-0.438302	-1.211363
C101	C	1.161588	-0.457658	-1.158514
C102	C	1.110405	-0.418071	-1.116058
H103	H	1.178695	-0.296141	-1.186992
H104	H	1.267768	-0.365034	-1.260876
H105	H	1.256904	-0.467608	-1.242791
H106	H	1.156966	-0.501292	-1.150820
H107	H	1.067893	-0.432399	-1.076936
C108	C	1.166596	-0.851117	-0.246519
C109	C	1.133880	-0.886030	-0.189919
C110	C	1.181528	-0.916039	-0.142353
C111	C	1.261894	-0.911133	-0.151387
C112	C	1.294615	-0.876218	-0.207989
C113	C	1.246966	-0.846210	-0.255555
H114	H	1.074384	-0.889663	-0.183229
H115	H	1.157306	-0.941885	-0.100452
H116	H	1.297166	-0.933347	-0.116176
H117	H	1.354110	-0.872585	-0.214679
H118	H	1.271189	-0.820363	-0.297456
C119	C	0.948096	-0.228900	-0.635276
C120	C	0.900175	-0.191830	-0.673790
C121	C	0.848984	-0.152253	-0.631323
C122	C	0.845714	-0.149748	-0.550341
C123	C	0.893636	-0.186819	-0.511822
C124	C	0.944827	-0.226396	-0.554290
H125	H	0.902594	-0.193683	-0.733742
H126	H	0.813509	-0.124811	-0.659837
H127	H	0.807820	-0.120451	-0.518904
H128	H	0.891217	-0.184966	-0.451871
H129	H	0.980302	-0.253839	-0.525775
C130	C	0.927443	-0.212783	-1.118898
C131	C	0.932845	-0.153214	-1.109033
C132	C	0.884919	-0.116141	-1.147542
C133	C	0.831589	-0.138636	-1.195916
C134	C	0.826184	-0.198208	-1.205783
C135	C	0.874111	-0.235281	-1.167274
H136	H	0.972325	-0.136560	-1.073221
H137	H	0.888920	-0.072042	-1.140237
H138	H	0.796111	-0.111192	-1.224422
H139	H	0.786705	-0.214862	-1.241595
H140	H	0.870110	-0.279380	-1.174579
H141	H	0.953854	-0.995491	-0.459005
H142	H	0.298076	-0.239183	-0.309691
H143	H	1.110989	-0.995454	-0.302124
H144	H	0.910451	-0.744313	-0.502213
C145	C	0.921217	-0.208006	-0.964293
C146	C	0.917954	-0.205500	-0.883312
C147	C	0.866774	-0.165918	-0.840841
C148	C	0.818857	-0.128842	-0.879351
C149	C	0.822118	-0.131347	-0.960337
C150	C	0.873298	-0.170929	-1.002808
H151	H	0.953427	-0.232946	-0.854800
H152	H	0.864360	-0.164064	-0.780889
H153	H	0.780970	-0.099542	-0.847911
H154	H	0.786645	-0.103901	-0.988849
H155	H	0.875712	-0.172783	-1.062760
C156	C	0.441650	-0.233699	-0.302594
C157	C	0.490000	-0.256159	-0.249224
C158	C	0.528521	-0.219057	-0.201339
C159	C	0.518692	-0.159494	-0.206823
C160	C	0.470339	-0.137031	-0.260195
C161	C	0.431818	-0.174133	-0.308080
H162	H	0.497278	-0.300254	-0.245162
H163	H	0.564315	-0.235686	-0.161829
H164	H	0.547207	-0.132029	-0.171375
H165	H	0.463061	-0.092936	-0.264256
H166	H	0.396025	-0.157504	-0.347589
H167	H	1.097957	-0.344723	-0.981866
H168	H	0.953656	-0.592196	-0.458940
H169	H	1.130231	-0.369733	-0.786409
H170	H	0.953893	-1.094543	-0.459011
H171	H	0.627089	-0.218312	-0.282747
H172	H	0.438161	-0.369896	-0.478315
C173	C	1.166546	-0.736467	-0.246504
C174	C	1.157636	-0.741360	-0.166132
C175	C	1.205270	-0.711331	-0.118570
C176	C	1.261814	-0.676410	-0.151380
C177	C	1.270726	-0.671517	-0.231755
C178	C	1.223092	-0.701545	-0.279317
H179	H	1.115777	-0.767211	-0.141841
H180	H	1.198673	-0.714954	-0.059071
H181	H	1.297075	-0.654182	-0.116171
H182	H	1.312585	-0.645665	-0.256046
H183	H	1.229689	-0.697922	-0.338817
H184	H	0.953603	-0.493128	-0.458912
H185	H	0.760658	-0.222456	-0.288090
H186	H	1.124854	-0.365603	-0.652839
H187	H	0.966774	-0.243310	-0.779871
C188	C	0.778213	-0.359312	-0.464650
C189	C	0.767800	-0.418245	-0.458347
C190	C	0.810265	-0.457868	-0.509473
C191	C	0.863144	-0.438558	-0.566900
C192	C	0.873560	-0.379622	-0.573205
C193	C	0.831094	-0.339999	-0.522080
H194	H	0.728654	-0.432542	-0.415834
H195	H	0.802555	-0.501496	-0.504805
H196	H	0.894579	-0.467889	-0.604746
H197	H	0.912706	-0.365325	-0.615718
H198	H	0.838805	-0.296371	-0.526747
C199	C	0.623613	-0.354512	-0.458464
C200	C	0.633448	-0.414073	-0.452962
C201	C	0.594940	-0.451186	-0.500845
C202	C	0.546597	-0.428738	-0.554230
C203	C	0.536760	-0.369174	-0.559734
C204	C	0.575268	-0.332061	-0.511851
H205	H	0.669236	-0.430693	-0.413442
H206	H	0.602222	-0.495279	-0.496771
H207	H	0.518091	-0.456211	-0.589676
H208	H	0.500972	-0.352554	-0.599255
H209	H	0.567986	-0.287968	-0.515926
C210	C	1.123415	-1.102318	-0.289796
C211	C	1.123441	-1.162381	-0.289814
C212	C	1.171091	-1.192410	-0.242271
C213	C	1.218715	-1.162377	-0.194709
C214	C	1.218691	-1.102310	-0.194690
C215	C	1.171041	-1.072281	-0.242233
H216	H	1.088186	-1.184617	-0.325023
H217	H	1.171109	-1.236875	-0.242286
H218	H	1.253989	-1.184606	-0.159515
H219	H	1.253946	-1.080075	-0.159480
H220	H	1.171023	-1.027816	-0.242218
H221	H	1.110731	-0.493097	-0.302038
