data_functionalizedCrystal
_audit_creation_method	'MofGen! by Chris Wilmer'
_symmetry_space_group_name_H-M	'P1'
_symmetry_Int_Tables_number	1
_symmetry_cell_setting	triclinic
loop_
_symmetry_equiv_pos_as_xyz
  x,y,z
_cell_length_a	12.759401
_cell_length_b	12.759399
_cell_length_c	12.759393
_cell_angle_alpha	90.031980
_cell_angle_beta	90.018567
_cell_angle_gamma	90.014160
loop_
_atom_site_label
_atom_site_type_symbol
_atom_site_fract_x
_atom_site_fract_y
_atom_site_fract_z
Zn1	Zn	1.606252	-0.418231	0.593980
Zn2	Zn	1.606145	-0.593950	0.418299
Zn3	Zn	1.430554	-0.418283	0.418319
Zn4	Zn	1.430542	-0.593866	0.593940
O5	O	1.518373	-0.506082	0.506135
O6	O	1.753259	-0.441554	0.570684
O7	O	1.582813	-0.570704	0.271281
O8	O	1.453911	-0.271255	0.441646
O9	O	1.753181	-0.570654	0.441612
O10	O	1.582996	-0.271217	0.570704
O11	O	1.453807	-0.441642	0.271296
O12	O	1.283532	-0.441560	0.441608
O13	O	1.453890	-0.570511	0.740967
O14	O	1.283522	-0.570561	0.570636
O15	O	1.582983	-0.441473	0.740996
O16	O	1.582801	-0.740960	0.441573
O17	O	1.453786	-0.740898	0.570616
C18	C	1.245406	-0.506058	0.506120
C19	C	1.128629	-0.506072	0.506139
C20	C	1.073801	-0.438977	0.573451
C21	C	0.964077	-0.438997	0.573458
C22	C	0.964019	-0.573217	0.438837
C23	C	1.073741	-0.573191	0.438826
C24	C	1.073834	-0.361489	0.651176
C25	C	0.964110	-0.361509	0.651183
C26	C	1.518309	-0.779050	0.506111
C27	C	1.518378	-0.895826	0.506136
C28	C	1.585633	-0.950686	0.439020
C29	C	1.585700	-1.060410	0.439055
C30	C	1.451249	-1.060405	0.573325
C31	C	1.451187	-0.950683	0.573295
C32	C	1.709709	-1.210291	0.401664
C33	C	1.776955	-1.265154	0.334532
C34	C	1.793120	-1.229616	0.232021
C35	C	1.742023	-1.139217	0.196622
C36	C	1.674770	-1.084360	0.263749
C37	C	1.658625	-1.119896	0.366275
C38	C	1.327177	-0.800800	0.610674
C39	C	1.259917	-0.745941	0.677797
C40	C	1.243742	-0.781476	0.780309
C41	C	1.294820	-0.871879	0.815704
C42	C	1.362079	-0.926738	0.748582
C43	C	1.378256	-0.891195	0.646070
C44	C	1.792407	-0.506108	0.506150
C45	C	1.909183	-0.506119	0.506157
C46	C	1.518447	-0.505976	0.780168
C47	C	1.518478	-0.505931	0.896945
C48	C	1.518467	-0.232049	0.506182
C49	C	1.518506	-0.115272	0.506202
C50	C	1.518361	-0.506112	0.233167
C51	C	1.518533	-0.505861	0.116391
C52	C	1.585707	-0.438735	0.951824
C53	C	1.585732	-0.438697	1.061548
C54	C	1.451297	-0.573061	1.061505
C55	C	1.451267	-0.573093	0.951782
C56	C	1.663325	-0.361164	0.951850
C57	C	1.663350	-0.361126	1.061574
H58	H	0.934365	-0.383404	0.732519
C59	C	1.867087	-1.289960	0.158174
H60	H	1.869389	-1.255854	0.092046
H61	H	1.935464	-1.291736	0.187590
H62	H	1.842025	-1.359521	0.149317
C63	C	1.114061	-0.251529	0.621926
H64	H	1.188518	-0.251515	0.621931
H65	H	1.089224	-0.233274	0.554161
H66	H	1.089269	-0.201962	0.671658
C67	C	1.833166	-1.364580	0.373472
H68	H	1.813926	-1.377880	0.444148
H69	H	1.813415	-1.422497	0.331021
H70	H	1.906844	-1.354691	0.369282
H71	H	1.188970	-0.736801	0.834958
H72	H	1.107899	-0.390722	0.728414
H73	H	1.641557	-0.279799	0.922095
H74	H	1.740597	-0.390334	0.917814
H75	H	0.930069	-0.284182	0.622184
H76	H	1.634237	-0.283816	1.095623
C77	C	1.759786	-1.100138	0.083852
H78	H	1.719716	-1.038452	0.072383
H79	H	1.832005	-1.085025	0.073925
H80	H	1.738571	-1.152826	0.035670
C81	C	1.134049	-0.646987	0.364774
H82	H	1.085642	-0.686967	0.324695
H83	H	1.176832	-0.606727	0.319069
H84	H	1.176867	-0.692810	0.404879
C85	C	0.903639	-0.647049	0.364807
H86	H	0.830439	-0.637461	0.374457
H87	H	0.921592	-0.631590	0.294241
H88	H	0.921625	-0.717657	0.380068
C89	C	1.659548	-0.890346	0.365158
H90	H	1.699619	-0.938737	0.325199
H91	H	1.619364	-0.847612	0.319333
H92	H	1.705283	-0.847476	0.405384
C93	C	1.418271	-1.026178	0.787511
H94	H	1.460637	-1.053764	0.732851
H95	H	1.461132	-1.009173	0.845988
H96	H	1.367702	-1.076957	0.807693
H97	H	1.633170	-1.010757	0.234929
H98	H	1.396520	-0.627807	0.907104
C99	C	1.377373	-0.646938	1.121824
H100	H	1.337325	-0.686958	1.073422
H101	H	1.417553	-0.692706	1.164622
H102	H	1.331617	-0.606721	1.164629
C103	C	1.691939	-1.249374	0.514432
H104	H	1.644581	-1.203750	0.549349
H105	H	1.663422	-1.318130	0.512631
H106	H	1.756858	-1.250338	0.550897
H107	H	1.744720	-0.382920	1.091352
H108	H	1.396543	-1.105083	0.628002
C109	C	1.344951	-0.761720	0.497901
H110	H	1.304879	-0.700036	0.486428
H111	H	1.417170	-0.746606	0.487974
H112	H	1.323738	-0.814412	0.449723
H113	H	1.281650	-0.900813	0.899179
H114	H	1.218333	-0.672325	0.648972
