data_functionalizedCrystal
_audit_creation_method	'MofGen! by Chris Wilmer'
_symmetry_space_group_name_H-M	'P1'
_symmetry_Int_Tables_number	1
_symmetry_cell_setting	triclinic
loop_
_symmetry_equiv_pos_as_xyz
  x,y,z
_cell_length_a	11.792254
_cell_length_b	11.792254
_cell_length_c	9.130307
_cell_angle_alpha	89.996518
_cell_angle_beta	89.998530
_cell_angle_gamma	84.198598
loop_
_atom_site_label
_atom_site_type_symbol
_atom_site_fract_x
_atom_site_fract_y
_atom_site_fract_z
O1	O	1.506903	0.155634	-0.121799
O2	O	1.176564	0.171651	-0.121802
O3	O	1.349742	-0.001527	-0.121790
O4	O	1.333724	0.328812	-0.121811
O5	O	1.349737	-0.001528	0.121809
O6	O	1.176558	0.171650	0.121797
O7	O	1.506897	0.155632	0.121800
Cu8	Cu	1.341727	0.163641	0.144041
Cu9	Cu	1.341734	0.163643	-0.144043
O10	O	1.333719	0.328810	0.121788
C11	C	1.348730	-0.043818	0.000009
C12	C	1.345710	-0.169832	0.000008
C13	C	1.134271	0.170642	-0.000003
C14	C	1.008257	0.167621	-0.000004
C15	C	1.343256	-0.272168	0.000002
C16	C	1.340188	-0.400555	-0.000011
C17	C	0.905921	0.165168	-0.000010
C18	C	0.777534	0.162099	-0.000011
C19	C	1.549190	0.156642	-0.000002
C20	C	1.675204	0.159662	-0.000011
C21	C	1.334731	0.371102	-0.000014
C22	C	1.337751	0.497115	-0.000022
N23	N	1.341731	0.163639	0.346664
N24	N	1.341739	0.163636	-0.346666
C25	C	1.495143	0.010334	0.346665
C26	C	1.571856	-0.066315	0.423332
C27	C	1.571868	-0.066316	0.576665
C28	C	1.495155	0.010339	0.653335
C29	C	1.418441	0.086988	0.576668
C30	C	1.418441	0.086982	0.423331
C31	C	1.265026	0.240285	0.576667
C32	C	1.265018	0.240293	0.423334
C33	C	1.188313	0.316939	0.653337
C34	C	1.111603	0.393595	0.576670
C35	C	1.111596	0.393594	0.423327
C36	C	1.188304	0.316942	0.346667
H37	H	1.634313	-0.128728	0.360894
C38	C	1.027213	0.477909	0.338998
H39	H	1.038187	0.466931	0.236696
H40	H	1.039995	0.553745	0.364125
H41	H	0.951391	0.465050	0.364136
H42	H	1.495151	0.010336	0.221812
H43	H	1.634330	-0.128734	0.639088
C44	C	1.188299	0.316936	0.178004
H45	H	1.244966	0.260302	0.143329
H46	H	1.204264	0.389586	0.143299
H47	H	1.115662	0.300889	0.143331
C48	C	1.027201	0.477877	0.660999
H49	H	0.981501	0.523519	0.593383
H50	H	1.068288	0.525412	0.720835
H51	H	0.979718	0.436683	0.720794
C52	C	1.495149	0.010326	0.821997
H53	H	1.438472	0.066948	0.856678
H54	H	1.567780	0.026352	0.856694
H55	H	1.479165	-0.062332	0.856673
C56	C	1.188326	0.316941	0.821999
H57	H	1.245008	0.260323	0.856681
H58	H	1.115698	0.300909	0.856704
H59	H	1.204305	0.389601	0.856666
