data_functionalizedCrystal
_audit_creation_method	'MofGen! by Chris Wilmer'
_symmetry_space_group_name_H-M	'P1'
_symmetry_Int_Tables_number	1
_symmetry_cell_setting	triclinic
loop_
_symmetry_equiv_pos_as_xyz
  x,y,z
_cell_length_a	17.077404
_cell_length_b	19.121063
_cell_length_c	17.077396
_cell_angle_alpha	87.591200
_cell_angle_beta	90.019777
_cell_angle_gamma	92.464390
loop_
_atom_site_label
_atom_site_type_symbol
_atom_site_fract_x
_atom_site_fract_y
_atom_site_fract_z
Zn1	Zn	1.186693	-0.279699	0.457162
Zn2	Zn	1.180989	-0.397156	0.331486
Zn3	Zn	1.055424	-0.279714	0.325910
Zn4	Zn	1.049784	-0.397104	0.462707
O5	O	1.118223	-0.338418	0.394316
O6	O	1.295783	-0.295296	0.440504
O7	O	1.164306	-0.381605	0.220901
O8	O	1.077585	-0.181428	0.338666
O9	O	1.291592	-0.381591	0.348170
O10	O	1.174027	-0.181417	0.435096
O11	O	1.072054	-0.295321	0.216804
O12	O	0.944830	-0.295271	0.344043
O13	O	1.067972	-0.381503	0.571817
O14	O	0.940686	-0.381517	0.444547
O15	O	1.168559	-0.295246	0.567743
O16	O	1.158837	-0.495433	0.353547
O17	O	1.062441	-0.495395	0.449955
C18	C	0.914276	-0.338390	0.394292
C19	C	0.827026	-0.338395	0.394301
C20	C	0.449069	-0.383427	0.446597
C21	C	0.531050	-0.383418	0.446585
C22	C	0.574175	-0.338437	0.394329
C23	C	0.535315	-0.293467	0.342078
C24	C	0.453336	-0.293481	0.342087
C25	C	0.706187	-0.293442	0.342064
C26	C	0.788172	-0.293427	0.342055
C27	C	0.783900	-0.383379	0.446561
C28	C	0.701921	-0.383393	0.446570
C29	C	0.663067	-0.338422	0.394320
C30	C	1.109430	-0.520898	0.402975
C31	C	1.105740	-0.598964	0.406706
C32	C	1.154233	-0.635636	0.358306
C33	C	1.150768	-0.708987	0.361819
C34	C	1.098804	-0.745665	0.413729
C35	C	1.050308	-0.708988	0.462134
C36	C	1.053778	-0.635638	0.458624
C37	C	1.085817	-0.967134	0.426839
C38	C	1.082349	-1.040488	0.430343
C39	C	1.182809	-1.040483	0.330029
C40	C	1.186272	-0.967131	0.326521
C41	C	1.137779	-0.930461	0.374929
C42	C	1.095258	-0.820641	0.417319
C43	C	1.141329	-0.855486	0.371341
C44	C	1.322965	-0.338447	0.394341
C45	C	1.410215	-0.338459	0.394351
C46	C	1.118273	-0.338367	0.599058
C47	C	1.118294	-0.338345	0.686307
C48	C	1.127071	-0.155226	0.385640
C49	C	1.130842	-0.077160	0.381943
C50	C	1.118220	-0.338419	0.190368
C51	C	1.118361	-0.338244	0.103110
C52	C	1.170671	-0.293427	0.725177
C53	C	1.170682	-0.293404	0.807156
C54	C	1.118318	-0.338302	0.850264
C55	C	1.065935	-0.383222	0.811389
C56	C	1.065922	-0.383241	0.729411
C57	C	1.065969	-0.383179	0.982257
C58	C	1.065983	-0.383161	1.064241
C59	C	1.170729	-0.293342	1.060002
C60	C	1.170715	-0.293361	0.978024
C61	C	1.118333	-0.338282	0.939154
H62	H	0.823283	-0.256793	0.299512
H63	H	1.008002	-0.738857	0.504403
C64	C	1.008348	-0.432597	0.939502
N65	N	0.964953	-0.469822	0.907299
C66	C	0.582757	-0.243982	0.284602
N67	N	0.618489	-0.206705	0.241315
H68	H	1.213379	-0.256765	1.091654
C69	C	0.654484	-0.432880	0.504047
N70	N	0.618754	-0.470159	0.547335
C71	C	1.204110	-0.749323	0.308570
N72	N	1.244288	-0.779703	0.268459
H73	H	1.222290	-1.070348	0.290619
C74	C	1.038091	-0.860994	0.474410
N75	N	0.995031	-0.891391	0.517409
H76	H	1.228585	-0.937270	0.284252
C77	C	0.410597	-0.244011	0.284614
N78	N	0.378407	-0.206749	0.241323
H79	H	0.674555	-0.256820	0.299517
C80	C	1.228302	-0.243992	0.849909
N81	N	1.271705	-0.206772	0.882110
H82	H	0.815539	-0.419995	0.489108
C83	C	1.008376	-0.432547	1.111658
N84	N	0.964985	-0.469745	1.147373
H85	H	1.040043	-1.070349	0.472628
C86	C	1.211396	-0.595297	0.301199
N87	N	1.254455	-0.564916	0.258186
C88	C	1.228275	-0.244034	0.677765
N89	N	1.271662	-0.206826	0.642056
H90	H	1.183641	-0.825620	0.329079
C91	C	1.000432	-0.595299	0.511868
N92	N	0.960252	-0.564917	0.551975
C93	C	0.401638	-0.432912	0.504081
N94	N	0.365915	-0.470189	0.547377
C95	C	1.008304	-0.432655	0.686654
N96	N	0.964903	-0.469874	0.654451
H97	H	0.562681	-0.420037	0.489127
H98	H	1.046331	-0.937282	0.466253
H99	H	1.213359	-0.256805	0.942928
H100	H	1.023297	-0.419776	0.846494
