data_functionalizedCrystal
_audit_creation_method	'MofGen! by Chris Wilmer'
_symmetry_space_group_name_H-M	'P1'
_symmetry_Int_Tables_number	1
_symmetry_cell_setting	triclinic
loop_
_symmetry_equiv_pos_as_xyz
  x,y,z
_cell_length_a	13.032831
_cell_length_b	21.395361
_cell_length_c	21.395355
_cell_angle_alpha	90.021511
_cell_angle_beta	82.805728
_cell_angle_gamma	97.165429
loop_
_atom_site_label
_atom_site_type_symbol
_atom_site_fract_x
_atom_site_fract_y
_atom_site_fract_z
Zn1	Zn	1.597615	0.371368	-0.475667
Zn2	Zn	1.597453	0.476115	-0.370872
Zn3	Zn	1.422844	0.358037	-0.357621
Zn4	Zn	1.422793	0.462777	-0.462338
O5	O	1.510176	0.417074	-0.416624
O6	O	1.743832	0.396423	-0.472889
O7	O	1.574244	0.460455	-0.281432
O8	O	1.446117	0.272134	-0.373313
O9	O	1.743712	0.473381	-0.395897
O10	O	1.574521	0.281928	-0.460041
O11	O	1.445960	0.373704	-0.271697
O12	O	1.276599	0.360770	-0.360388
O13	O	1.446030	0.450648	-0.551787
O14	O	1.276561	0.437722	-0.437323
O15	O	1.574471	0.383490	-0.561580
O16	O	1.574194	0.562017	-0.382972
O17	O	1.445872	0.552217	-0.450172
C18	C	1.510038	0.579851	-0.416579
C19	C	1.510075	0.649495	-0.416588
C20	C	1.238662	0.396353	-0.395972
C21	C	1.122508	0.387503	-0.387151
C22	C	1.510263	0.417068	-0.580054
C23	C	1.510300	0.417066	-0.649698
C24	C	1.070731	0.421693	-0.421228
C25	C	0.950679	0.412547	-0.412112
C26	C	1.782750	0.437877	-0.437358
C27	C	1.898905	0.446742	-0.446193
C28	C	1.510343	0.253664	-0.416686
C29	C	1.510414	0.184028	-0.416712
C30	C	1.576951	0.687295	-0.381642
C31	C	1.577000	0.752734	-0.381660
C32	C	1.510153	0.780370	-0.416615
C33	C	1.443272	0.742562	-0.451568
C34	C	1.443233	0.677125	-0.451554
C35	C	1.416059	0.876908	-0.414374
C36	C	1.416097	0.942344	-0.414383
C37	C	1.510275	0.982200	-0.416661
C38	C	1.604419	0.956612	-0.418917
C39	C	1.604380	0.891175	-0.418903
C40	C	1.510189	0.851325	-0.416634
C41	C	1.577210	1.090956	-0.381733
C42	C	1.577260	1.156396	-0.381756
C43	C	1.443523	1.146223	-0.451660
C44	C	1.443482	1.080784	-0.451641
C45	C	1.510324	1.053155	-0.416675
C46	C	1.577176	0.382094	-0.687511
C47	C	1.577175	0.382067	-0.752947
C48	C	1.510308	0.417023	-0.780567
C49	C	1.443419	0.451996	-0.742745
C50	C	1.443414	0.452017	-0.677311
C51	C	1.502009	0.472806	-0.883599
C52	C	1.502020	0.472786	-0.949033
C53	C	1.510315	0.416958	-0.982389
C54	C	1.518620	0.361149	-0.950304
C55	C	1.518615	0.361170	-0.884870
C56	C	1.510305	0.417004	-0.851520
C57	C	1.577193	0.381954	-1.091155
C58	C	1.577184	0.381926	-1.156591
C59	C	1.443433	0.451861	-1.146388
C60	C	1.443437	0.451883	-1.080953
C61	C	1.510322	0.416931	-1.053341
C62	C	1.510150	0.417040	-0.253835
C63	C	1.510315	0.416881	-0.184206
H64	H	1.115281	0.457733	-0.457152
Cl65	Cl	1.661237	1.056219	-0.337776
Cl66	Cl	1.529048	0.291012	-0.844536
Cl67	Cl	0.881910	0.356893	-0.356650
H68	H	0.943450	0.482783	-0.482122
H69	H	1.388978	0.480315	-1.168875
Cl70	Cl	1.359362	0.495852	-1.033414
Cl71	Cl	1.661282	0.337969	-1.204130
Cl72	Cl	1.053734	0.331852	-0.331691
Cl73	Cl	1.491590	0.542947	-0.989362
H74	H	1.631380	0.664801	-0.353172
H75	H	1.631462	0.783516	-0.353204
Cl76	Cl	1.297652	0.826809	-0.411510
H77	H	1.681034	0.870343	-0.420742
Cl78	Cl	1.359335	0.495985	-0.629772
H79	H	1.388847	0.765067	-0.480030
Cl80	Cl	1.359494	1.180959	-0.495609
Cl81	Cl	1.359152	0.629603	-0.495489
H82	H	1.681108	0.989062	-0.420772
Cl83	Cl	1.491612	0.543001	-0.841676
Cl84	Cl	1.661255	0.338151	-0.652802
Cl85	Cl	1.661349	1.203918	-0.337825
H86	H	1.389021	1.050005	-0.480094
H87	H	1.339439	0.963172	-0.412540
H88	H	1.631632	0.353586	-0.783740
Cl89	Cl	1.529052	0.290959	-0.992230
Cl90	Cl	1.661270	0.338012	-1.056438
H91	H	1.388972	0.480456	-0.765238
