data_functionalizedCrystal
_audit_creation_method	'MofGen! by Chris Wilmer'
_symmetry_space_group_name_H-M	'P1'
_symmetry_Int_Tables_number	1
_symmetry_cell_setting	triclinic
loop_
_symmetry_equiv_pos_as_xyz
  x,y,z
_cell_length_a	19.188930
_cell_length_b	14.519709
_cell_length_c	13.596369
_cell_angle_alpha	90.006934
_cell_angle_beta	89.980792
_cell_angle_gamma	96.587538
loop_
_atom_site_label
_atom_site_type_symbol
_atom_site_fract_x
_atom_site_fract_y
_atom_site_fract_z
O1	O	0.926555	-0.115137	-0.082110
O2	O	1.259889	0.218196	0.251224
O3	O	1.593222	0.551530	0.584557
O4	O	0.723299	-0.130636	-0.082043
O5	O	1.056633	0.202697	0.251291
O6	O	1.389966	0.536031	0.584624
O7	O	0.830316	0.011385	-0.082069
O8	O	1.163650	0.344719	0.251264
O9	O	1.496983	0.678052	0.584598
O10	O	0.819538	-0.257158	-0.082083
O11	O	1.152872	0.076175	0.251250
O12	O	1.486205	0.409508	0.584583
O13	O	0.830306	0.011393	0.081514
O14	O	1.163639	0.344726	0.414847
O15	O	1.496972	0.678059	0.748180
O16	O	0.723289	-0.130629	0.081540
O17	O	1.056622	0.202705	0.414874
O18	O	1.389955	0.536038	0.748207
O19	O	0.926545	-0.115130	0.081473
O20	O	1.259878	0.218204	0.414806
O21	O	1.593211	0.551537	0.748140
Zn22	Zn	0.824915	-0.122878	0.107479
Zn23	Zn	1.158248	0.210455	0.440812
Zn24	Zn	1.491582	0.543789	0.774146
Zn25	Zn	0.824929	-0.122888	-0.108049
Zn26	Zn	1.158262	0.210446	0.225285
Zn27	Zn	1.491596	0.543779	0.558618
O28	O	0.819528	-0.257151	0.081500
O29	O	1.152861	0.076182	0.414833
O30	O	1.486194	0.409516	0.748166
C31	C	0.697281	-0.130131	-0.000242
C32	C	1.030615	0.203203	0.333091
C33	C	1.363948	0.536536	0.666424
C34	C	0.619771	-0.128624	-0.000217
C35	C	0.953105	0.204710	0.333117
C36	C	1.286438	0.538043	0.666450
N37	N	0.824911	-0.122871	0.254571
N38	N	1.158244	0.210463	0.587904
N39	N	1.491577	0.543796	0.921238
C40	C	0.829809	0.045746	-0.000277
C41	C	1.163142	0.379079	0.333056
C42	C	1.496475	0.712412	0.666389
C43	C	0.828304	0.148118	-0.000276
C44	C	1.161637	0.481451	0.333057
C45	C	1.494970	0.814784	0.666390
C46	C	0.575144	-0.211957	-0.000236
C47	C	0.908477	0.121376	0.333097
C48	C	1.241811	0.454709	0.666430
C49	C	0.502315	-0.210542	-0.000247
C50	C	0.835649	0.122791	0.333086
C51	C	1.168982	0.456125	0.666419
C52	C	0.474117	-0.125788	-0.000258
C53	C	0.807450	0.207545	0.333076
C54	C	1.140784	0.540879	0.666409
C55	C	0.518754	-0.042444	-0.000232
C56	C	0.852087	0.290890	0.333101
C57	C	1.185421	0.624223	0.666434
C58	C	0.591581	-0.043861	-0.000212
C59	C	0.924915	0.289472	0.333121
C60	C	1.258248	0.622805	0.666455
N61	N	0.365910	-0.061007	-0.055968
N62	N	0.699243	0.272326	0.277365
N63	N	1.032576	0.605660	0.610698
N64	N	0.296726	-0.059666	-0.055990
N65	N	0.630060	0.273668	0.277343
N66	N	0.963393	0.607001	0.610677
C67	C	0.254693	-0.121511	-0.000318
C68	C	0.588026	0.211822	0.333016
C69	C	0.921360	0.545156	0.666349
N70	N	0.284455	-0.184762	0.055365
N71	N	0.617789	0.148571	0.388698
N72	N	0.951122	0.481904	0.722031
N73	N	0.353645	-0.186106	0.055382
N74	N	0.686978	0.147227	0.388715
N75	N	1.020312	0.480560	0.722049
C76	C	0.395149	-0.124241	-0.000280
C77	C	0.728482	0.209092	0.333054
C78	C	1.061816	0.542425	0.666387
C79	C	0.131096	-0.203315	-0.000348
C80	C	0.464429	0.130018	0.332986
C81	C	0.797763	0.463351	0.666319
C82	C	0.058266	-0.201896	-0.000352
C83	C	0.391599	0.131437	0.332981
C84	C	0.724933	0.464770	0.666314
C85	C	0.074706	-0.033796	-0.000348
C86	C	0.408040	0.299538	0.332986
C87	C	0.741373	0.632871	0.666319
C88	C	0.147535	-0.035217	-0.000333
C89	C	0.480868	0.298116	0.333000
C90	C	0.814201	0.631450	0.666334
C91	C	0.175725	-0.119980	-0.000338
C92	C	0.509058	0.213354	0.332995
C93	C	0.842391	0.546687	0.666329
C94	C	0.952563	-0.115635	-0.000329
C95	C	1.285896	0.217698	0.333004
C96	C	1.619230	0.551032	0.666338
C97	C	1.030073	-0.117142	-0.000361
C98	C	1.363406	0.216191	0.332972
C99	C	1.696739	0.549525	0.666305
C100	C	0.820035	-0.291511	-0.000294
C101	C	1.153369	0.041822	0.333039
C102	C	1.486702	0.375155	0.666372
C103	C	0.821541	-0.393883	-0.000302
C104	C	1.154874	-0.060550	0.333032
C105	C	1.488207	0.272783	0.666365
C106	C	0.822762	0.522979	-0.000300
C107	C	1.156096	0.856312	0.333033
C108	C	1.489429	1.189646	0.666367
C109	C	0.824301	0.418681	-0.000293
C110	C	1.157634	0.752014	0.333040
C111	C	1.490968	1.085347	0.666374
C112	C	0.825533	0.335552	-0.000287
C113	C	1.158866	0.668885	0.333046
C114	C	1.492199	1.002218	0.666379
C115	C	0.827072	0.231247	-0.000282
C116	C	1.160405	0.564580	0.333051
C117	C	1.493739	0.897913	0.666384
N118	N	0.824939	-0.122888	-0.255140
N119	N	1.158272	0.210446	0.078193
N120	N	1.491606	0.543779	0.411526
C121	C	0.824928	-0.122889	0.655862
C122	C	1.158262	0.210445	0.989195
C123	C	1.491595	0.543778	1.322528
C124	C	0.824921	-0.122887	0.544210
C125	C	1.158255	0.210447	0.877544
C126	C	1.491588	0.543780	1.210877
C127	C	0.824920	-0.122880	0.455220
C128	C	1.158253	0.210453	0.788553
C129	C	1.491586	0.543786	1.121887
C130	C	0.824912	-0.122877	0.343561
C131	C	1.158245	0.210456	0.676895
C132	C	1.491579	0.543790	1.010228
H133	H	0.598091	-0.280978	-0.000242
H134	H	0.931425	0.052356	0.333091
H135	H	1.264758	0.385689	0.666424
H136	H	0.627917	0.024001	-0.000196
H137	H	0.961251	0.357334	0.333137
H138	H	1.294584	0.690668	0.666470
H139	H	0.465973	-0.278404	-0.000261
H140	H	0.799306	0.054929	0.333073
H141	H	1.132640	0.388262	0.666406
Cl142	Cl	0.483306	0.064104	-0.000240
Cl143	Cl	0.816639	0.397438	0.333093
Cl144	Cl	1.149972	0.730771	0.666427
Cl145	Cl	0.166539	-0.309871	-0.000344
Cl146	Cl	0.499872	0.023462	0.332989
Cl147	Cl	0.833205	0.356795	0.666323
Cl148	Cl	0.039264	0.072753	-0.000349
Cl149	Cl	0.372597	0.406087	0.332984
Cl150	Cl	0.705931	0.739420	0.666317
H151	H	0.021931	-0.269760	-0.000363
H152	H	0.355264	0.063574	0.332970
H153	H	0.688597	0.396907	0.666304
Cl154	Cl	0.203641	0.069552	-0.000314
Cl155	Cl	0.536974	0.402885	0.333019
Cl156	Cl	0.870307	0.736218	0.666353
