data_functionalizedCrystal
_audit_creation_method	'MofGen! by Chris Wilmer'
_symmetry_space_group_name_H-M	'P1'
_symmetry_Int_Tables_number	1
_symmetry_cell_setting	triclinic
loop_
_symmetry_equiv_pos_as_xyz
  x,y,z
_cell_length_a	21.295418
_cell_length_b	19.077068
_cell_length_c	19.076919
_cell_angle_alpha	94.470751
_cell_angle_beta	92.261150
_cell_angle_gamma	92.343619
loop_
_atom_site_label
_atom_site_type_symbol
_atom_site_fract_x
_atom_site_fract_y
_atom_site_fract_z
Zn1	Zn	0.936930	-0.296407	-0.410191
Zn2	Zn	1.270264	0.036926	-0.076857
Zn3	Zn	1.603597	0.370259	0.256476
Zn4	Zn	0.936852	-0.409561	-0.297035
Zn5	Zn	1.270186	-0.076227	0.036298
Zn6	Zn	1.603519	0.257106	0.369632
Zn7	Zn	0.836073	-0.291721	-0.292284
Zn8	Zn	1.169406	0.041612	0.041050
Zn9	Zn	1.502740	0.374945	0.374383
Zn10	Zn	0.827225	-0.414290	-0.414839
Zn11	Zn	1.160559	-0.080956	-0.081505
Zn12	Zn	1.493892	0.252377	0.251828
O13	O	0.884270	-0.352995	-0.353587
O14	O	1.217604	-0.019661	-0.020254
O15	O	1.550937	0.313672	0.313080
O16	O	1.025008	-0.311399	-0.395223
O17	O	1.358342	0.021934	-0.061890
O18	O	1.691675	0.355267	0.271443
O19	O	0.927154	-0.389989	-0.197759
O20	O	1.260487	-0.056655	0.135574
O21	O	1.593821	0.276678	0.468908
O22	O	0.853187	-0.193692	-0.303991
O23	O	1.186520	0.139641	0.029343
O24	O	1.519854	0.472974	0.362676
O25	O	1.024951	-0.394533	-0.312089
O26	O	1.358285	-0.061199	0.021245
O27	O	1.691618	0.272134	0.354578
O28	O	0.927287	-0.197135	-0.390616
O29	O	1.260620	0.136198	-0.057283
O30	O	1.593953	0.469531	0.276050
O31	O	0.853112	-0.303413	-0.194268
O32	O	1.186445	0.029921	0.139065
O33	O	1.519778	0.363254	0.472398
O34	O	0.746811	-0.307998	-0.308498
O35	O	1.080144	0.025335	0.024836
O36	O	1.413477	0.358669	0.358169
O37	O	0.838108	-0.402592	-0.512868
O38	O	1.171441	-0.069259	-0.179535
O39	O	1.504775	0.264074	0.153799
O40	O	0.740311	-0.398049	-0.398538
O41	O	1.073644	-0.064715	-0.065205
O42	O	1.406977	0.268618	0.268128
O43	O	0.918708	-0.315985	-0.509453
O44	O	1.252041	0.017348	-0.176120
O45	O	1.585374	0.350682	0.157214
O46	O	0.918575	-0.508838	-0.316596
O47	O	1.251908	-0.175505	0.016738
O48	O	1.585242	0.157828	0.350071
O49	O	0.838032	-0.512313	-0.403146
O50	O	1.171366	-0.178979	-0.069812
O51	O	1.504699	0.154354	0.263521
C52	C	0.877352	-0.536155	-0.360906
C53	C	1.210685	-0.202822	-0.027573
C54	C	1.544018	0.130512	0.305761
C55	C	0.874449	-0.614513	-0.364061
C56	C	1.207782	-0.281179	-0.030727
C57	C	1.541115	0.052154	0.302606
C58	C	0.720720	-0.353028	-0.353507
C59	C	1.054054	-0.019695	-0.020174
C60	C	1.387387	0.313638	0.313159
C61	C	0.650752	-0.353061	-0.353491
C62	C	0.984085	-0.019727	-0.020157
C63	C	1.317418	0.313606	0.313176
C64	C	0.915049	-0.649495	-0.320518
C65	C	1.248382	-0.316161	0.012815
C66	C	1.581715	0.017172	0.346148
C67	C	0.912322	-0.723120	-0.323490
C68	C	1.245655	-0.389787	0.009844
C69	C	1.578988	-0.056454	0.343177
C70	C	0.868991	-0.761763	-0.370000
C71	C	1.202324	-0.428429	-0.036667
C72	C	1.535658	-0.095096	0.296666
C73	C	0.828389	-0.726776	-0.413548
C74	C	1.161723	-0.393442	-0.080214
C75	C	1.495056	-0.060109	0.253119
C76	C	0.831120	-0.653152	-0.410579
C77	C	1.164453	-0.319818	-0.077246
C78	C	1.497786	0.013515	0.256087
C79	C	0.856328	-0.982152	-0.383709
C80	C	1.189661	-0.648819	-0.050376
C81	C	1.522995	-0.315485	0.282957
C82	C	0.853599	-1.055781	-0.386673
C83	C	1.186933	-0.722448	-0.053339
C84	C	1.520266	-0.389115	0.279994
C85	C	0.937533	-1.052121	-0.296615
C86	C	1.270866	-0.718787	0.036718
C87	C	1.604200	-0.385454	0.370051
C88	C	0.940257	-0.978495	-0.293648
C89	C	1.273590	-0.645162	0.039685
C90	C	1.606924	-0.311828	0.373018
C91	C	0.899657	-0.943515	-0.337198
C92	C	1.232991	-0.610181	-0.003865
C93	C	1.566324	-0.276848	0.329469
N94	N	0.866201	-0.837020	-0.373037
N95	N	1.199535	-0.503687	-0.039704
N96	N	1.532868	-0.170353	0.293630
N97	N	0.902451	-0.868259	-0.334164
N98	N	1.235784	-0.534926	-0.000831
N99	N	1.569117	-0.201592	0.332502
C100	C	0.614517	-0.400007	-0.400310
C101	C	0.947850	-0.066674	-0.066977
C102	C	1.281184	0.266660	0.266357
C103	C	0.548774	-0.399991	-0.400341
C104	C	0.882107	-0.066657	-0.067008
C105	C	1.215441	0.266676	0.266326
C106	C	0.519268	-0.353035	-0.353540
C107	C	0.852602	-0.019702	-0.020207
C108	C	1.185935	0.313631	0.313126
C109	C	0.555511	-0.306080	-0.306718
C110	C	0.888844	0.027253	0.026616
C111	C	1.222178	0.360587	0.359949
C112	C	0.621253	-0.306093	-0.306693
C113	C	0.954586	0.027241	0.026641
C114	C	1.287919	0.360574	0.359974
N115	N	0.418510	-0.345050	-0.291663
N116	N	0.751843	-0.011716	0.041670
N117	N	1.085176	0.321617	0.375004
N118	N	0.356058	-0.345042	-0.291689
N119	N	0.689391	-0.011709	0.041645
N120	N	1.022724	0.321625	0.374978
C121	C	0.321192	-0.352993	-0.353613
C122	C	0.654526	-0.019660	-0.020280
C123	C	0.987859	0.313673	0.313053
N124	N	0.351138	-0.360967	-0.415513
N125	N	0.684471	-0.027633	-0.082180
N126	N	1.017805	0.305700	0.251154
N127	N	0.413596	-0.360978	-0.415487
N128	N	0.746929	-0.027645	-0.082153
N129	N	1.080262	0.305689	0.251180
C130	C	0.447983	-0.353016	-0.353562
C131	C	0.781316	-0.019683	-0.020229
C132	C	1.114649	0.313651	0.313104
C133	C	0.213672	-0.399925	-0.400470
C134	C	0.547005	-0.066591	-0.067137
C135	C	0.880338	0.266742	0.266197
C136	C	0.147927	-0.399904	-0.400502
C137	C	0.481261	-0.066570	-0.067169
C138	C	0.814594	0.266763	0.266165
C139	C	0.154666	-0.305997	-0.306873
C140	C	0.487999	0.027337	0.026461
C141	C	0.821333	0.360670	0.359794
C142	C	0.220409	-0.306014	-0.306847
C143	C	0.553742	0.027319	0.026487
C144	C	0.887075	0.360653	0.359820
C145	C	0.249907	-0.352982	-0.353645
C146	C	0.583241	-0.019649	-0.020311
C147	C	0.916574	0.313685	0.313022
C148	C	1.048459	-0.352961	-0.353667
C149	C	1.381792	-0.019628	-0.020334
C150	C	1.715126	0.313705	0.312999
C151	C	1.118426	-0.352947	-0.353702
C152	C	1.451760	-0.019614	-0.020368
C153	C	1.785093	0.313720	0.312965
C154	C	0.877430	-0.360339	-0.537453
C155	C	1.210763	-0.027006	-0.204120
C156	C	1.544096	0.306328	0.129213
C157	C	0.874514	-0.363469	-0.615806
C158	C	1.207848	-0.030135	-0.282473
C159	C	1.541181	0.303198	0.050861
C160	C	0.891232	-0.169120	-0.346255
C161	C	1.224566	0.164214	-0.012922
C162	C	1.557899	0.497547	0.320412
C163	C	0.894199	-0.090763	-0.343130
C164	C	1.227533	0.242570	-0.009797
C165	C	1.560866	0.575904	0.323536
C166	C	0.915107	-0.319849	-0.650840
C167	C	1.248440	0.013484	-0.317506
C168	C	1.581773	0.346818	0.015827
C169	C	0.912360	-0.322787	-0.724460
C170	C	1.245693	0.010546	-0.391127
C171	C	1.579027	0.343880	-0.057794
C172	C	0.869024	-0.369349	-0.763046
C173	C	1.202357	-0.036015	-0.429713
C174	C	1.535690	0.297318	-0.096380
C175	C	0.828427	-0.412970	-0.728008
C176	C	1.161760	-0.079637	-0.394674
C177	C	1.495094	0.253697	-0.061341
C178	C	0.831171	-0.410028	-0.654388
C179	C	1.164505	-0.076695	-0.321055
C180	C	1.497838	0.256639	0.012278
C181	C	0.856314	-0.382979	-0.983416
C182	C	1.189648	-0.049646	-0.650082
C183	C	1.522981	0.283687	-0.316749
C184	C	0.853575	-0.385919	-1.057040
C185	C	1.186908	-0.052586	-0.723707
C186	C	1.520241	0.280747	-0.390374
C187	C	0.937507	-0.295735	-1.053488
C188	C	1.270841	0.037598	-0.720154
C189	C	1.604174	0.370931	-0.386821
C190	C	0.940250	-0.292800	-0.979867
C191	C	1.273583	0.040533	-0.646534
C192	C	1.606917	0.373866	-0.313200
C193	C	0.899651	-0.336419	-0.944835
C194	C	1.232984	-0.003086	-0.611501
C195	C	1.566318	0.330248	-0.278168
N196	N	0.866217	-0.372354	-0.838299
N197	N	1.199550	-0.039021	-0.504965
N198	N	1.532883	0.294312	-0.171632
N199	N	0.902456	-0.333409	-0.869584
N200	N	1.235789	-0.000076	-0.536250
N201	N	1.569122	0.333258	-0.202917
C202	C	0.891122	-0.345628	-0.170434
C203	C	1.224456	-0.012295	0.162899
C204	C	1.557789	0.321039	0.496233
C205	C	0.894167	-0.342300	-0.092074
C206	C	1.227500	-0.008967	0.241260
C207	C	1.560834	0.324367	0.574593
H208	H	0.950330	-0.618036	-0.282641
H209	H	1.283664	-0.284703	0.050692
H210	H	1.616997	0.048630	0.384025
H211	H	0.970588	-1.080610	-0.261161
H212	H	1.303921	-0.747276	0.072173
H213	H	1.637254	-0.413943	0.405506
H214	H	0.950398	-0.281936	-0.619428
H215	H	1.283731	0.051398	-0.286095
H216	H	1.617064	0.384731	0.047239
H217	H	0.823269	-0.953677	-0.419168
H218	H	1.156602	-0.620344	-0.085834
H219	H	1.489936	-0.287010	0.247499
C220	C	0.811645	-0.430943	-0.944889
C221	C	1.144979	-0.097610	-0.611555
C222	C	1.478312	0.235723	-0.278222
H223	H	0.785444	-0.459094	-0.978415
H224	H	1.118777	-0.125760	-0.645082
H225	H	1.452111	0.207573	-0.311748
H226	H	0.786313	-0.402819	-0.915089
H227	H	1.119647	-0.069486	-0.581756
H228	H	1.452980	0.263848	-0.248423
H229	H	0.835619	-0.460517	-0.917398
H230	H	1.168952	-0.127183	-0.584065
H231	H	1.502285	0.206150	-0.250732
C232	C	0.780725	-0.769280	-0.464707
C233	C	1.114059	-0.435947	-0.131373
C234	C	1.447392	-0.102614	0.201960
H235	H	0.784908	-0.818139	-0.460233
H236	H	1.118242	-0.484805	-0.126900
H237	H	1.451575	-0.151472	0.206433
H238	H	0.788587	-0.759077	-0.511596
H239	H	1.121920	-0.425744	-0.178263
H240	H	1.455254	-0.092410	0.155070
H241	H	0.739268	-0.756853	-0.453840
H242	H	1.072601	-0.423520	-0.120506
H243	H	1.405934	-0.090187	0.212827
C244	C	0.508905	-0.451635	-0.451840
C245	C	0.842239	-0.118301	-0.118507
C246	C	1.175572	0.215032	0.214827
H247	H	0.465527	-0.444897	-0.445154
H248	H	0.798861	-0.111563	-0.111820
H249	H	1.132194	0.221770	0.221513
H250	H	0.518249	-0.498571	-0.443331
H251	H	0.851583	-0.165237	-0.109997
H252	H	1.184916	0.168096	0.223336
H253	H	0.518338	-0.443287	-0.498812
H254	H	0.851672	-0.109953	-0.165478
H255	H	1.185005	0.223380	0.167855
H256	H	0.118426	-0.438132	-0.438632
H257	H	0.451759	-0.104799	-0.105299
H258	H	0.785093	0.228535	0.228035
C259	C	0.646965	-0.451681	-0.451771
C260	C	0.980299	-0.118348	-0.118437
C261	C	1.313632	0.214986	0.214896
H262	H	0.691309	-0.444975	-0.445043
H263	H	1.024642	-0.111642	-0.111710
H264	H	1.357976	0.221691	0.221623
H265	H	0.634860	-0.443349	-0.498753
H266	H	0.968193	-0.110016	-0.165420
H267	H	1.301526	0.223318	0.167914
H268	H	0.634754	-0.498609	-0.443248
H269	H	0.968087	-0.165275	-0.109914
H270	H	1.301420	0.168058	0.223419
H271	H	0.798060	-0.624670	-0.446037
H272	H	1.131393	-0.291337	-0.112704
H273	H	1.464726	0.041996	0.220630
C274	C	0.260269	-0.254381	-0.255336
C275	C	0.593602	0.078952	0.077997
C276	C	0.926935	0.412286	0.411330
H277	H	0.233282	-0.226417	-0.227463
H278	H	0.566615	0.106916	0.105870
H279	H	0.899949	0.440249	0.439204
H280	H	0.286103	-0.224790	-0.281113
H281	H	0.619436	0.108543	0.052220
H282	H	0.952770	0.441876	0.385553
H283	H	0.286005	-0.280084	-0.225642
H284	H	0.619339	0.053249	0.107691
H285	H	0.952672	0.386582	0.441024
C286	C	0.786521	-0.458008	-0.615848
C287	C	1.119855	-0.124675	-0.282515
C288	C	1.453188	0.208659	0.050819
H289	H	0.794357	-0.449583	-0.566477
H290	H	1.127691	-0.116249	-0.233144
H291	H	1.461024	0.217084	0.100190
H292	H	0.793487	-0.505855	-0.629804
H293	H	1.126821	-0.172522	-0.296471
H294	H	1.460154	0.160811	0.036862
H295	H	0.744166	-0.448174	-0.627479
H296	H	1.077500	-0.114841	-0.294146
H297	H	1.410833	0.218492	0.039188
C298	C	0.523058	-0.254431	-0.255238
C299	C	0.856391	0.078903	0.078095
C300	C	1.189724	0.412236	0.411428
H301	H	0.478714	-0.261151	-0.261954
H302	H	0.812047	0.072182	0.071379
H303	H	1.145381	0.405516	0.404713
H304	H	0.535260	-0.207498	-0.263737
H305	H	0.868594	0.125835	0.069596
H306	H	1.201927	0.459169	0.402930
H307	H	0.535171	-0.262787	-0.208261
H308	H	0.868504	0.070547	0.125073
H309	H	1.201837	0.403880	0.458406
C310	C	0.805899	-0.437133	-1.099487
C311	C	1.139233	-0.103800	-0.766154
C312	C	1.472566	0.229534	-0.432820
H313	H	0.810086	-0.432641	-1.148349
H314	H	1.143419	-0.099308	-0.815016
H315	H	1.476753	0.234026	-0.481683
H316	H	0.764446	-0.426338	-1.086990
H317	H	1.097779	-0.093005	-0.753656
H318	H	1.431112	0.240329	-0.420323
H319	H	0.813766	-0.484019	-1.089316
H320	H	1.147099	-0.150686	-0.755983
H321	H	1.480433	0.182647	-0.422650
H322	H	0.130643	-0.267761	-0.268770
H323	H	0.463976	0.065572	0.064564
H324	H	0.797310	0.398905	0.397897
H325	H	0.818321	-1.087243	-0.424560
H326	H	1.151655	-0.753909	-0.091226
H327	H	1.484988	-0.420576	0.242107
C328	C	0.957025	-0.274824	-0.762998
C329	C	1.290359	0.058509	-0.429665
C330	C	1.623692	0.391842	-0.096332
H331	H	0.949185	-0.283242	-0.812369
H332	H	1.282518	0.050091	-0.479036
H333	H	1.615852	0.383424	-0.145703
H334	H	0.999373	-0.284668	-0.751362
H335	H	1.332707	0.048665	-0.418029
H336	H	1.666040	0.381999	-0.084696
H337	H	0.950068	-0.226970	-0.749045
H338	H	1.283401	0.106363	-0.415712
H339	H	1.616735	0.439696	-0.082379
H340	H	0.945382	-0.751599	-0.288032
H341	H	1.278716	-0.418266	0.045301
H342	H	1.612049	-0.084932	0.378634
C343	C	0.661112	-0.254453	-0.255186
C344	C	0.994446	0.078880	0.078148
C345	C	1.327779	0.412213	0.411481
H346	H	0.634127	-0.226487	-0.227314
H347	H	0.967460	0.106847	0.106019
H348	H	1.300793	0.440180	0.439353
H349	H	0.686947	-0.224866	-0.280965
H350	H	1.020281	0.108468	0.052368
H351	H	1.353614	0.441801	0.385702
H352	H	0.686849	-0.280155	-0.225490
H353	H	1.020182	0.053178	0.107844
H354	H	1.353515	0.386511	0.441177
H355	H	0.970560	-0.260222	-1.082019
H356	H	1.303893	0.073111	-0.748686
H357	H	1.637226	0.406444	-0.415352
C358	C	0.246123	-0.451579	-0.451951
C359	C	0.579456	-0.118245	-0.118618
C360	C	0.912790	0.215088	0.214715
H361	H	0.215125	-0.479529	-0.479848
H362	H	0.548458	-0.146196	-0.146515
H363	H	0.881791	0.187137	0.186818
H364	H	0.271582	-0.481181	-0.426153
H365	H	0.604915	-0.147848	-0.092820
H366	H	0.938249	0.185486	0.240513
H367	H	0.271675	-0.425887	-0.481625
H368	H	0.605009	-0.092554	-0.148292
H369	H	0.938342	0.240779	0.185042
H370	H	0.975541	-0.254887	-0.948455
H371	H	1.308874	0.078447	-0.615122
H372	H	1.642207	0.411780	-0.281788
C373	C	0.987924	-0.935994	-0.242491
C374	C	1.321258	-0.602660	0.090842
C375	C	1.654591	-0.269327	0.424176
H376	H	1.011718	-0.967373	-0.216988
H377	H	1.345052	-0.634040	0.116345
H378	H	1.678385	-0.300707	0.449679
H379	H	0.966076	-0.906086	-0.210587
H380	H	1.299409	-0.572753	0.122747
H381	H	1.632742	-0.239419	0.456080
H382	H	1.015396	-0.908309	-0.268343
H383	H	1.348729	-0.574975	0.064991
H384	H	1.682062	-0.241642	0.398324
C385	C	0.780759	-0.464187	-0.770450
C386	C	1.114092	-0.130854	-0.437117
C387	C	1.447425	0.202479	-0.103784
H388	H	0.784942	-0.459698	-0.819314
H389	H	1.118275	-0.126365	-0.485980
H390	H	1.451609	0.206968	-0.152647
H391	H	0.739304	-0.453398	-0.757952
H392	H	1.072637	-0.120065	-0.424618
H393	H	1.405971	0.213268	-0.091285
H394	H	0.788632	-0.511071	-0.760276
H395	H	1.121966	-0.177738	-0.426943
H396	H	1.455299	0.155596	-0.093610
