data_functionalizedCrystal
_audit_creation_method	'MofGen! by Chris Wilmer'
_symmetry_space_group_name_H-M	'P1'
_symmetry_Int_Tables_number	1
_symmetry_cell_setting	triclinic
loop_
_symmetry_equiv_pos_as_xyz
  x,y,z
_cell_length_a	10.654562
_cell_length_b	10.654548
_cell_length_c	16.053789
_cell_angle_alpha	92.863862
_cell_angle_beta	92.868557
_cell_angle_gamma	84.487202
loop_
_atom_site_label
_atom_site_type_symbol
_atom_site_fract_x
_atom_site_fract_y
_atom_site_fract_z
O1	O	1.672599	0.181242	0.069481
O2	O	1.307122	0.198031	0.069470
O3	O	1.498264	0.006897	0.069474
O4	O	1.481456	0.372376	0.069477
O5	O	1.488719	-0.002636	-0.069385
O6	O	1.297576	0.188497	-0.069389
O7	O	1.663053	0.171708	-0.069379
Zn8	Zn	1.478799	0.178589	-0.091431
Zn9	Zn	1.491376	0.191150	0.091523
O10	O	1.471911	0.362842	-0.069383
C11	C	1.492258	-0.044667	0.000046
C12	C	1.488567	-0.184111	0.000050
C13	C	1.255551	0.192028	0.000039
C14	C	1.116108	0.188329	0.000035
C15	C	1.488548	-0.375446	0.075743
C16	C	1.492031	-0.244425	0.075743
C17	C	1.481631	-0.254825	-0.075649
C18	C	1.478156	-0.385843	-0.075649
C19	C	1.492000	-0.435752	0.151441
C20	C	1.498938	-0.365047	0.227140
C21	C	1.502422	-0.234027	0.227141
C22	C	1.498967	-0.173711	0.151442
C23	C	1.045375	0.181408	-0.075651
C24	C	0.914354	0.177944	-0.075637
C25	C	0.924811	0.188329	0.075756
C26	C	1.055831	0.191784	0.075741
C27	C	1.105653	0.177954	-0.151356
C28	C	1.034918	0.171033	-0.227049
C29	C	0.903897	0.167569	-0.227035
C30	C	0.843610	0.171026	-0.151329
C31	C	1.714624	0.177712	0.000054
C32	C	1.854067	0.181411	0.000064
C33	C	1.477917	0.414407	0.000048
C34	C	1.481609	0.553850	0.000049
N35	N	1.470225	0.170016	-0.216292
C36	C	1.544056	0.243903	-0.259980
C37	C	1.538075	0.237898	-0.347387
C38	C	1.458256	0.158011	-0.391105
C39	C	1.384422	0.084115	-0.347411
C40	C	1.390411	0.090114	-0.260006
C41	C	1.432114	0.131817	-0.652517
C42	C	1.426129	0.125826	-0.739929
C43	C	1.579784	0.279608	-0.739898
C44	C	1.585760	0.285606	-0.652491
C45	C	1.511931	0.211705	-0.608805
N46	N	1.452138	0.151874	-0.480449
N47	N	1.518057	0.217837	-0.519462
N48	N	1.499960	0.199714	0.216384
H49	H	1.489159	-0.542434	0.151449
Cl50	Cl	1.644404	0.344340	-0.205028
H51	H	1.501760	-0.414166	0.288771
H52	H	1.598199	0.298063	-0.382953
Cl53	Cl	1.144760	0.200482	0.170891
H54	H	1.472503	-0.443412	-0.137285
H55	H	1.212336	0.180778	-0.151376
H56	H	1.501816	-0.067027	0.151449
H57	H	1.478817	-0.205705	-0.137280
Cl58	Cl	1.339251	0.038962	-0.597609
Cl59	Cl	1.325779	0.025387	-0.794888
Cl60	Cl	1.110707	0.166674	-0.322216
H61	H	0.846310	0.161924	-0.288667
H62	H	1.508083	-0.176464	0.288779
H63	H	0.736924	0.168202	-0.151323
H64	H	1.650761	0.350655	-0.616901
H65	H	1.639892	0.339773	-0.775477
Cl66	Cl	0.849021	0.192665	0.170922
H67	H	1.319438	0.019063	-0.383014
H68	H	1.330289	0.029947	-0.224436
