data_functionalizedCrystal
_audit_creation_method	'MofGen! by Chris Wilmer'
_symmetry_space_group_name_H-M	'P1'
_symmetry_Int_Tables_number	1
_symmetry_cell_setting	triclinic
loop_
_symmetry_equiv_pos_as_xyz
  x,y,z
_cell_length_a	19.805407
_cell_length_b	10.685194
_cell_length_c	19.805399
_cell_angle_alpha	94.395351
_cell_angle_beta	90.019573
_cell_angle_gamma	94.376925
loop_
_atom_site_label
_atom_site_type_symbol
_atom_site_fract_x
_atom_site_fract_y
_atom_site_fract_z
Zn1	Zn	1.014165	-0.502437	0.362068
Zn2	Zn	1.514165	-0.002437	0.862068
Zn3	Zn	1.005440	-0.713475	0.240206
Zn4	Zn	1.505440	-0.213475	0.740206
Zn5	Zn	0.900979	-0.502472	0.248891
Zn6	Zn	1.400979	-0.002472	0.748891
Zn7	Zn	0.892306	-0.713407	0.353355
Zn8	Zn	1.392306	-0.213407	0.853355
O9	O	0.953223	-0.607948	0.301130
O10	O	1.453223	-0.107948	0.801130
O11	O	1.107724	-0.530445	0.345914
O12	O	1.607724	-0.030445	0.845914
O13	O	0.991561	-0.685527	0.146639
O14	O	1.491561	-0.185527	0.646639
O15	O	0.923274	-0.325871	0.271186
O16	O	1.423274	0.174129	0.771186
O17	O	1.101314	-0.685493	0.256382
O18	O	1.601314	-0.185493	0.756382
O19	O	1.006432	-0.325845	0.354336
O20	O	1.506432	0.174155	0.854336
O21	O	0.914814	-0.530505	0.153021
O22	O	1.414814	-0.030505	0.653021
O23	O	0.805112	-0.530440	0.262737
O24	O	1.305112	-0.030440	0.762737
O25	O	0.908493	-0.685379	0.449229
O26	O	1.408493	-0.185379	0.949229
O27	O	0.798741	-0.685413	0.339486
O28	O	1.298741	-0.185413	0.839486
O29	O	0.998023	-0.530380	0.455631
O30	O	1.498023	-0.030380	0.955631
O31	O	0.983152	-0.890063	0.247934
O32	O	1.483152	-0.390063	0.747934
O33	O	0.900033	-0.890013	0.331064
O34	O	1.400033	-0.390013	0.831064
C35	C	0.777368	-0.607924	0.301109
C36	C	1.277368	-0.107924	0.801109
C37	C	0.702135	-0.607944	0.301115
C38	C	1.202135	-0.107944	0.801115
C39	C	0.663486	-0.688760	0.341003
C40	C	1.163486	-0.188760	0.841003
C41	C	0.592797	-0.688762	0.341013
C42	C	1.092797	-0.188762	0.841013
C43	C	0.560759	-0.607954	0.301130
C44	C	1.060759	-0.107954	0.801130
C45	C	0.599413	-0.527129	0.261240
C46	C	1.099413	-0.027129	0.761240
C47	C	0.670101	-0.527121	0.261235
C48	C	1.170101	-0.027121	0.761235
C49	C	0.314339	-0.527157	0.261261
C50	C	0.814339	-0.027157	0.761261
C51	C	0.243646	-0.527173	0.261268
C52	C	0.743646	-0.027173	0.761268
C53	C	0.237035	-0.688798	0.341039
C54	C	0.737035	-0.188798	0.841039
C55	C	0.307723	-0.688790	0.341034
C56	C	0.807723	-0.188790	0.841034
C57	C	0.346371	-0.607961	0.301147
C58	C	0.846371	-0.107961	0.801147
C59	C	0.423020	-0.607958	0.301138
C60	C	0.923020	-0.107958	0.801138
C61	C	0.484111	-0.607962	0.301134
C62	C	0.984111	-0.107962	0.801134
C63	C	0.939723	-0.935828	0.287626
C64	C	1.439723	-0.435828	0.787626
C65	C	0.934010	-1.076096	0.281871
C66	C	1.434010	-0.576096	0.781871
C67	C	1.129764	-0.607973	0.301151
C68	C	1.629764	-0.107973	0.801151
C69	C	1.204996	-0.607984	0.301160
C70	C	1.704996	-0.107984	0.801160
C71	C	0.953264	-0.607868	0.477676
C72	C	1.453264	-0.107868	0.977676
C73	C	0.953282	-0.607834	0.552909
C74	C	1.453282	-0.107834	1.052909
C75	C	0.966794	-0.278788	0.314702
C76	C	1.466794	0.221212	0.814702
C77	C	0.972577	-0.138519	0.320485
C78	C	1.472577	0.361481	0.820485
C79	C	0.953224	-0.607936	0.125275
C80	C	1.453224	-0.107936	0.625275
C81	C	0.953352	-0.607614	0.050056
C82	C	1.453352	-0.107614	0.550056
C83	C	0.999901	-0.527123	0.591588
C84	C	1.499901	-0.027123	1.091588
C85	C	0.999909	-0.527086	0.662278
C86	C	1.499909	-0.027086	1.162278
C87	C	0.953301	-0.607769	0.694288
C88	C	1.453301	-0.107769	1.194288
C89	C	0.906677	-0.688484	0.655604
C90	C	1.406677	-0.188484	1.155604
C91	C	0.906666	-0.688513	0.584916
C92	C	1.406666	-0.188513	1.084916
C93	C	0.906720	-0.688366	0.940682
C94	C	1.406720	-0.188366	1.440682
C95	C	0.906736	-0.688334	1.011376
C96	C	1.406736	-0.188334	1.511376
C97	C	0.999963	-0.526939	1.018045
C98	C	1.499963	-0.026939	1.518045
C99	C	0.999952	-0.526968	0.947356
C100	C	1.499952	-0.026968	1.447356
C101	C	0.953326	-0.607679	0.908679
C102	C	1.453326	-0.107679	1.408679
C103	C	0.953317	-0.607716	0.832029
C104	C	1.453317	-0.107716	1.332029
C105	C	0.953313	-0.607739	0.770936
C106	C	1.453313	-0.107739	1.270936
H107	H	0.689566	-0.754568	0.373478
H108	H	1.189566	-0.254568	0.873478
H109	H	0.896611	-1.129968	0.244410
H110	H	1.396611	-0.629968	0.744410
Cl111	Cl	0.203370	-0.425575	0.211127
Cl112	Cl	0.703370	0.074425	0.711127
H113	H	0.561332	-0.754572	0.373493
H114	H	1.061332	-0.254572	0.873493
Cl115	Cl	1.058500	-0.425693	0.551354
Cl116	Cl	1.558500	0.074307	1.051354
Cl117	Cl	1.058549	-0.425539	0.907119
Cl118	Cl	1.558549	0.074461	1.407119
Cl119	Cl	1.058546	-0.425671	0.710898
Cl120	Cl	1.558546	0.074329	1.210898
H121	H	1.037926	-0.461216	1.049545
H122	H	1.537926	0.038784	1.549545
H123	H	0.333805	-0.754597	0.373508
H124	H	0.833805	-0.254597	0.873508
Cl125	Cl	0.848105	-0.789832	0.892069
Cl126	Cl	1.348105	-0.289832	1.392069
Cl127	Cl	0.362916	-0.425539	0.211120
Cl128	Cl	0.862916	0.074461	0.711120
H129	H	0.868779	-0.754038	1.037436
H130	H	1.368779	-0.254038	1.537436
H131	H	0.701569	-0.461306	0.228757
H132	H	1.201569	0.038694	0.728757
H133	H	1.009968	-1.084655	0.357950
H134	H	1.509968	-0.584655	0.857950
Cl135	Cl	0.848081	-0.789910	0.695845
Cl136	Cl	1.348081	-0.289910	1.195845
H137	H	0.205559	-0.754608	0.373520
H138	H	0.705559	-0.254608	0.873520
Cl139	Cl	0.848055	-0.789980	0.536291
Cl140	Cl	1.348055	-0.289980	1.036291
H141	H	0.573322	-0.461328	0.228770
H142	H	1.073322	0.038672	0.728770
