data_functionalizedCrystal
_audit_creation_method	'MofGen! by Chris Wilmer'
_symmetry_space_group_name_H-M	'P1'
_symmetry_Int_Tables_number	1
_symmetry_cell_setting	triclinic
loop_
_symmetry_equiv_pos_as_xyz
  x,y,z
_cell_length_a	19.077105
_cell_length_b	12.594516
_cell_length_c	19.076919
_cell_angle_alpha	87.722761
_cell_angle_beta	89.923776
_cell_angle_gamma	87.712633
loop_
_atom_site_label
_atom_site_type_symbol
_atom_site_fract_x
_atom_site_fract_y
_atom_site_fract_z
Zn1	Zn	1.058319	-0.514930	0.440450
Zn2	Zn	1.558319	-0.014930	0.940450
Zn3	Zn	1.062975	-0.686069	0.322954
Zn4	Zn	1.562975	-0.186069	0.822954
Zn5	Zn	0.945535	-0.500672	0.318243
Zn6	Zn	1.445535	-0.000672	0.818243
Zn7	Zn	0.940797	-0.685427	0.435707
Zn8	Zn	1.440797	-0.185427	0.935707
O9	O	1.001907	-0.596775	0.379338
O10	O	1.501907	-0.096775	0.879338
O11	O	1.157269	-0.543868	0.428821
O12	O	1.657269	-0.043868	0.928821
O13	O	1.051328	-0.655777	0.223998
O14	O	1.551328	-0.155777	0.723998
O15	O	0.960531	-0.353620	0.334467
O16	O	1.460531	0.146380	0.834467
O17	O	1.160690	-0.669603	0.342497
O18	O	1.660690	-0.169603	0.842497
O19	O	1.043393	-0.364096	0.424253
O20	O	1.543393	0.135904	0.924253
O21	O	0.965046	-0.519567	0.220536
O22	O	1.465046	-0.019567	0.720536
O23	O	0.846574	-0.518944	0.329868
O24	O	1.346574	-0.018944	0.829868
O25	O	0.952455	-0.668509	0.534668
O26	O	1.452455	-0.168509	1.034668
O27	O	0.843093	-0.654683	0.416168
O28	O	1.343093	-0.154683	0.916168
O29	O	1.038798	-0.543246	0.538153
O30	O	1.538798	-0.043246	1.038153
O31	O	1.046733	-0.834927	0.337898
O32	O	1.546733	-0.334927	0.837898
O33	O	0.956969	-0.834455	0.420737
O34	O	1.456969	-0.334455	0.920737
C35	C	0.819337	-0.585197	0.371992
C36	C	1.319337	-0.085197	0.871992
C37	C	0.741233	-0.580271	0.368866
C38	C	1.241233	-0.080271	0.868866
C39	C	0.702747	-0.648728	0.412259
C40	C	1.202747	-0.148728	0.912259
C41	C	0.629360	-0.644085	0.409325
C42	C	1.129360	-0.144085	0.909325
C43	C	0.594459	-0.570991	0.362994
C44	C	1.094459	-0.070991	0.862994
C45	C	0.632949	-0.502527	0.319600
C46	C	1.132949	-0.002527	0.819600
C47	C	0.706335	-0.507165	0.322538
C48	C	1.206335	-0.007165	0.822538
C49	C	0.375169	-0.549525	0.349400
C50	C	0.875169	-0.049525	0.849400
C51	C	0.301778	-0.544895	0.346464
C52	C	0.801778	-0.044895	0.846464
C53	C	0.298194	-0.686452	0.436191
C54	C	0.798194	-0.186452	0.936191
C55	C	0.371582	-0.691088	0.439121
C56	C	0.871582	-0.191088	0.939121
C57	C	0.410065	-0.622620	0.395730
C58	C	0.910065	-0.122620	0.895730
N59	N	0.519445	-0.566246	0.359993
N60	N	1.019445	-0.066246	0.859993
N61	N	0.485078	-0.627361	0.398735
N62	N	0.985078	-0.127361	0.898735
C63	C	1.001861	-0.873312	0.379330
C64	C	1.501861	-0.373312	0.879330
C65	C	1.001905	-0.991622	0.379352
C66	C	1.501905	-0.491622	0.879352
C67	C	0.953079	-1.060655	0.424375
C68	C	1.453079	-0.560655	0.924375
C69	C	0.938538	-1.126689	0.359570
C70	C	1.438538	-0.626689	0.859570
C71	C	1.016509	-1.136391	0.444171
C72	C	1.516509	-0.636391	0.944171
C73	C	0.987331	-1.056094	0.314511
C74	C	1.487331	-0.556094	0.814511
C75	C	1.065330	-1.065794	0.399157
C76	C	1.565330	-0.565794	0.899157
C77	C	1.050816	-1.131795	0.334309
C78	C	1.550816	-0.631795	0.834309
C79	C	1.185189	-0.608398	0.386714
C80	C	1.685189	-0.108398	0.886714
C81	C	1.263293	-0.613351	0.389857
C82	C	1.763293	-0.113351	0.889857
C83	C	0.994578	-0.607396	0.562619
C84	C	1.494578	-0.107396	1.062619
C85	C	0.991455	-0.611923	0.640723
C86	C	1.491455	-0.111923	1.140723
C87	C	1.001971	-0.319159	0.379363
C88	C	1.501971	0.180841	0.879363
C89	C	1.001998	-0.200856	0.379374
C90	C	1.501998	0.299144	0.879374
C91	C	1.009247	-0.586120	0.196772
C92	C	1.509247	-0.086120	0.696772
C93	C	1.012506	-0.581302	0.118675
C94	C	1.512506	-0.081302	0.618675
C95	C	1.034940	-0.548834	0.679231
C96	C	1.534940	-0.048834	1.179231
C97	C	1.031997	-0.553083	0.752617
C98	C	1.531997	-0.053083	1.252617
C99	C	0.985572	-0.620426	0.787494
C100	C	1.485572	-0.120426	1.287494
C101	C	0.942083	-0.683517	0.748980
C102	C	1.442083	-0.183517	1.248980
C103	C	0.945023	-0.679262	0.675595
C104	C	1.445023	-0.179262	1.175595
C105	C	0.971956	-0.640139	1.006776
C106	C	1.471956	-0.140139	1.506776
C107	C	0.969021	-0.644391	1.080166
C108	C	1.469021	-0.144391	1.580166
C109	C	1.058935	-0.513955	1.083799
C110	C	1.558935	-0.013955	1.583799
C111	C	1.061873	-0.509711	1.010412
C112	C	1.561873	-0.009711	1.510412
C113	C	1.018381	-0.572798	0.971905
C114	C	1.518381	-0.072798	1.471905
N115	N	0.982565	-0.624772	0.862506
N116	N	1.482565	-0.124772	1.362506
N117	N	1.021386	-0.568445	0.896894
N118	N	1.521386	-0.068445	1.396894
H119	H	0.737669	-0.451416	0.287206
H120	H	1.237669	0.048584	0.787206
H121	H	1.099679	-0.454876	0.982021
H122	H	1.599679	0.045124	1.482021
H123	H	0.909606	-0.730624	0.644242
H124	H	1.409606	-0.230624	1.144242
H125	H	1.092148	-1.162827	0.296198
H126	H	1.592148	-0.662827	0.796198
H127	H	1.118911	-1.038859	0.415922
H128	H	1.618911	-0.538859	0.915922
H129	H	0.936552	-0.691524	0.975432
H130	H	1.436552	-0.191524	1.475432
H131	H	0.931215	-0.699232	1.108560
H132	H	1.431215	-0.199232	1.608560
H133	H	1.072746	-0.494000	0.650841
H134	H	1.572746	0.006000	1.150841
H135	H	0.904280	-0.738345	0.777382
H136	H	1.404280	-0.238345	1.277382
H137	H	0.911720	-1.029418	0.462389
H138	H	1.411720	-0.529418	0.962389
H139	H	1.028824	-1.171502	0.498979
H140	H	1.528824	-0.671502	0.998979
H141	H	1.067409	-0.501712	0.783968
H142	H	1.567409	-0.001712	1.283968
H143	H	0.273363	-0.485360	0.308740
H144	H	0.773363	0.014640	0.808740
H145	H	0.731159	-0.708252	0.449984
H146	H	1.231159	-0.208252	0.949984
H147	H	0.406494	-0.493782	0.314062
H148	H	0.906494	0.006218	0.814062
H149	H	0.598028	-0.699830	0.444659
H150	H	1.098028	-0.199830	0.944659
H151	H	0.884944	-1.153628	0.342835
H152	H	1.384944	-0.653628	0.842835
H153	H	0.399993	-0.750611	0.476847
H154	H	0.899993	-0.250611	0.976847
H155	H	0.974954	-1.021106	0.259686
H156	H	1.474954	-0.521106	0.759686
H157	H	0.266852	-0.742192	0.471519
H158	H	0.766852	-0.242192	0.971519
H159	H	0.604527	-0.443008	0.281879
H160	H	1.104527	0.056992	0.781879
H161	H	1.094343	-0.462592	1.115159
H162	H	1.594343	0.037408	1.615159
