data_functionalizedCrystal
_audit_creation_method	'MofGen! by Chris Wilmer'
_symmetry_space_group_name_H-M	'P1'
_symmetry_Int_Tables_number	1
_symmetry_cell_setting	triclinic
loop_
_symmetry_equiv_pos_as_xyz
  x,y,z
_cell_length_a	18.215407
_cell_length_b	15.299816
_cell_length_c	18.215399
_cell_angle_alpha	99.655517
_cell_angle_beta	89.985640
_cell_angle_gamma	80.347944
loop_
_atom_site_label
_atom_site_type_symbol
_atom_site_fract_x
_atom_site_fract_y
_atom_site_fract_z
Zn1	Zn	1.175750	-0.359112	-0.466826
Zn2	Zn	1.675750	0.140888	0.033174
Zn3	Zn	1.196960	-0.509946	-0.365080
Zn4	Zn	1.696960	-0.009946	0.134920
Zn5	Zn	1.052693	-0.359140	-0.343783
Zn6	Zn	1.552693	0.140860	0.156217
Zn7	Zn	1.073934	-0.509882	-0.488101
Zn8	Zn	1.573934	-0.009882	0.011899
O9	O	1.124834	-0.434520	-0.415948
O10	O	1.624834	0.065480	0.084052
O11	O	1.281550	-0.379136	-0.453339
O12	O	1.781550	0.120864	0.046661
O13	O	1.177809	-0.489980	-0.259276
O14	O	1.677809	0.010020	0.240724
O15	O	1.051251	-0.232925	-0.342289
O16	O	1.551251	0.267075	0.157711
O17	O	1.297133	-0.489953	-0.378586
O18	O	1.797133	0.010047	0.121414
O19	O	1.141660	-0.232905	-0.432688
O20	O	1.641660	0.267095	0.067312
O21	O	1.071817	-0.379183	-0.243629
O22	O	1.571817	0.120817	0.256371
O23	O	0.952524	-0.379121	-0.362918
O24	O	1.452524	0.120879	0.137082
O25	O	1.087454	-0.489843	-0.588258
O26	O	1.587454	0.010157	-0.088258
O27	O	0.968130	-0.489870	-0.468947
O28	O	1.468130	0.010130	0.031053
O29	O	1.162257	-0.379073	-0.572627
O30	O	1.662257	0.120927	-0.072627
O31	O	1.198406	-0.636148	-0.399215
O32	O	1.698406	-0.136148	0.100785
O33	O	1.108020	-0.636101	-0.489598
O34	O	1.608020	-0.136101	0.010402
C35	C	0.933624	-0.434492	-0.415931
C36	C	1.433624	0.065508	0.084069
C37	C	0.851827	-0.434502	-0.415944
C38	C	1.351827	0.065498	0.084056
C39	C	0.655534	-0.376918	-0.454959
C40	C	1.155534	0.123082	0.045041
C41	C	0.578677	-0.376926	-0.454962
C42	C	1.078677	0.123074	0.045038
C43	C	0.594890	-0.492147	-0.376953
C44	C	1.094890	0.007853	0.123047
C45	C	0.671745	-0.492134	-0.376945
C46	C	1.171745	0.007866	0.123055
C47	C	0.702066	-0.434521	-0.415953
C48	C	1.202066	0.065479	0.084047
C49	C	0.548353	-0.434542	-0.415964
C50	C	1.048353	0.065458	0.084036
C51	C	0.465020	-0.434550	-0.415967
C52	C	0.965020	0.065450	0.084033
C53	C	0.785403	-0.434511	-0.415948
C54	C	1.285403	0.065489	0.084052
C55	C	1.157839	-0.668850	-0.449042
C56	C	1.657839	-0.168850	0.050958
C57	C	1.172027	-0.769097	-0.463225
C58	C	1.672027	-0.269097	0.036775
C59	C	1.023919	-1.052019	-0.314832
C60	C	1.523919	-0.552019	0.185168
C61	C	1.010586	-0.957832	-0.301508
C62	C	1.510586	-0.457832	0.198492
C63	C	1.050945	-0.910644	-0.341936
C64	C	1.550945	-0.410644	0.158064
C65	C	1.104640	-0.957652	-0.395690
C66	C	1.604640	-0.457652	0.104310
C67	C	1.117970	-1.051848	-0.409019
C68	C	1.617970	-0.551848	0.090981
C69	C	1.144996	-0.910473	-0.436123
C70	C	1.644996	-0.410473	0.063877
C71	C	1.198690	-0.957481	-0.489878
C72	C	1.698690	-0.457481	0.010122
C73	C	1.212019	-1.051668	-0.503204
C74	C	1.712019	-0.551668	-0.003204
C75	C	1.171660	-1.098857	-0.462776
C76	C	1.671660	-0.598857	0.037224
C77	C	1.131665	-0.816276	-0.422794
C78	C	1.631665	-0.316276	0.077206
C79	C	1.225716	-0.816105	-0.516982
C80	C	1.725716	-0.316105	-0.016982
C81	C	1.239049	-0.910293	-0.530305
C82	C	1.739049	-0.410293	-0.030305
C83	C	1.316791	-0.434548	-0.415965
C84	C	1.816791	0.065452	0.084035
C85	C	1.398592	-0.434560	-0.415972
C86	C	1.898592	0.065440	0.084028
C87	C	1.124859	-0.434448	-0.607890
C88	C	1.624859	0.065552	-0.107890
C89	C	1.124869	-0.434417	-0.689685
C90	C	1.624869	0.065583	-0.189685
C91	C	1.091720	-0.199275	-0.382740
C92	C	1.591720	0.300725	0.117260
C93	C	1.077609	-0.099027	-0.368588
C94	C	1.577609	0.400973	0.131412
C95	C	1.069713	-0.376686	-0.869727
C96	C	1.569713	0.123314	-0.369727
C97	C	1.069724	-0.376668	-0.946583
C98	C	1.569724	0.123332	-0.446583
C99	C	1.180098	-0.492040	-0.962865
C100	C	1.680098	0.007960	-0.462865
C101	C	1.180084	-0.492062	-0.886011
C102	C	1.680084	0.007938	-0.386011
C103	C	1.124892	-0.434380	-0.839443
C104	C	1.624892	0.065620	-0.339443
C105	C	1.124916	-0.434340	-0.993154
C106	C	1.624916	0.065660	-0.493154
C107	C	1.124928	-0.434321	-1.076485
C108	C	1.624928	0.065679	-0.576485
C109	C	1.124880	-0.434400	-0.756107
C110	C	1.624880	0.065600	-0.256107
C111	C	1.124843	-0.434527	-0.224742
C112	C	1.624843	0.065473	0.275258
C113	C	1.124939	-0.434303	-0.142912
C114	C	1.624939	0.065697	0.357088
H115	H	0.709633	-0.539042	-0.345178
H116	H	1.209633	-0.039042	0.154822
Br117	Br	0.515529	-0.298744	-0.507899
Br118	Br	1.015529	0.201256	-0.007899
H119	H	0.570193	-0.539054	-0.345195
H120	H	1.070193	-0.039054	0.154805
Br121	Br	0.696682	-0.298727	-0.507895
Br122	Br	1.196682	0.201273	-0.007895
Br123	Br	1.058796	-0.752491	-0.349845
Br124	Br	1.558796	-0.252491	0.150155
Br125	Br	0.937708	-0.894041	-0.228570
Br126	Br	1.437708	-0.394041	0.271430
Br127	Br	1.284872	-1.115464	-0.576173
Br128	Br	1.784872	-0.615464	-0.076173
H129	H	1.225034	-0.539003	-1.000790
H130	H	1.725034	-0.039003	-0.500790
Br131	Br	1.280490	-0.752072	-0.571855
Br132	Br	1.780490	-0.252072	-0.071855
Br133	Br	0.969138	-1.116063	-0.259986
Br134	Br	1.469138	-0.616063	0.240014
H135	H	1.282768	-0.948580	-0.574073
H136	H	1.782768	-0.448580	-0.074073
H137	H	1.225020	-0.539047	-0.861355
H138	H	1.725020	-0.039047	-0.361355
H139	H	1.182515	-1.175552	-0.473618
H140	H	1.682515	-0.675552	0.026382
Br141	Br	0.994809	-0.298406	-0.806530
Br142	Br	1.494809	0.201594	-0.306530
H143	H	1.040087	-0.833952	-0.331084
H144	H	1.540087	-0.333952	0.168916
H145	H	1.024791	-0.329689	-0.971236
H146	H	1.524791	0.170311	-0.471236
