data_functionalizedCrystal
_audit_creation_method	'MofGen! by Chris Wilmer'
_symmetry_space_group_name_H-M	'P1'
_symmetry_Int_Tables_number	1
_symmetry_cell_setting	triclinic
loop_
_symmetry_equiv_pos_as_xyz
  x,y,z
_cell_length_a	12.594517
_cell_length_b	13.897449
_cell_length_c	13.897441
_cell_angle_alpha	89.981404
_cell_angle_beta	90.022260
_cell_angle_gamma	89.992087
loop_
_atom_site_label
_atom_site_type_symbol
_atom_site_fract_x
_atom_site_fract_y
_atom_site_fract_z
Zn1	Zn	0.423682	1.474756	-0.545431
Zn2	Zn	0.601690	1.474688	-0.384153
Zn3	Zn	0.423730	1.313452	-0.384149
Zn4	Zn	0.601623	1.313458	-0.545405
O5	O	0.512681	1.394088	-0.464784
O6	O	0.447303	1.609729	-0.524049
O7	O	0.578131	1.453268	-0.249171
O8	O	0.274778	1.334875	-0.405552
O9	O	0.578085	1.609678	-0.405559
O10	O	0.274743	1.453385	-0.524045
O11	O	0.447384	1.334808	-0.249168
O12	O	0.447319	1.178471	-0.405528
O13	O	0.577971	1.334887	-0.680390
O14	O	0.578017	1.178476	-0.524002
O15	O	0.447238	1.453392	-0.680409
O16	O	0.750627	1.453274	-0.405534
O17	O	0.750577	1.334820	-0.524006
C18	C	0.512667	1.143474	-0.464762
C19	C	0.512686	1.036260	-0.464776
C20	C	0.235060	1.394137	-0.464801
C21	C	0.116755	1.394157	-0.464808
C22	C	0.512690	0.839965	-0.464801
C23	C	0.512685	0.949198	-0.464784
C24	C	0.047483	1.458608	-0.529260
C25	C	-0.023276	1.482178	-0.441264
C26	C	-0.023286	1.370618	-0.552810
C27	C	0.047555	1.417774	-0.376765
C28	C	0.047551	1.306172	-0.488371
C29	C	-0.023176	1.329709	-0.400313
C30	C	0.789222	1.394066	-0.464789
C31	C	0.907527	1.394145	-0.464823
C32	C	0.512592	1.394147	-0.716377
C33	C	0.512554	1.394173	-0.823591
C34	C	0.512696	1.645681	-0.464807
C35	C	0.512702	1.752895	-0.464817
C36	C	0.512523	1.394192	-0.910661
C37	C	0.512476	1.394220	-1.019894
C38	C	0.512693	1.394085	-0.214170
C39	C	0.512431	1.394247	-0.106957
H40	H	-0.054385	1.556580	-0.421334
O41	O	-0.060267	1.346967	-0.641661
C42	C	-0.024279	1.415126	-0.709367
H43	H	0.050240	1.451877	-0.680775
H44	H	-0.088776	1.471294	-0.722011
C45	C	-0.090030	1.318921	-0.839984
C46	C	0.001500	1.364054	-0.804870
H47	H	-0.074133	1.287419	-0.898897
H48	H	-0.114280	1.273002	-0.794370
H49	H	-0.143770	1.365736	-0.850513
H50	H	0.055233	1.317237	-0.794330
H51	H	0.025760	1.409963	-0.850485
H52	H	0.078508	1.513158	-0.583692
O53	O	-0.059916	1.264790	-0.335095
C54	C	-0.023601	1.289946	-0.242481
H55	H	-0.003855	1.369975	-0.240653
H56	H	0.050583	1.246465	-0.224557
C57	C	-0.135068	1.169762	-0.170241
C58	C	-0.110825	1.268057	-0.167994
H59	H	-0.188869	1.156256	-0.124293
H60	H	-0.159532	1.152811	-0.232637
H61	H	-0.073241	1.133540	-0.155307
H62	H	-0.172648	1.304277	-0.182940
H63	H	-0.086373	1.285014	-0.105599
H64	H	0.078541	1.437770	-0.302329
H65	H	0.078682	1.231791	-0.508325
