data_functionalizedCrystal
_audit_creation_method	'MofGen! by Chris Wilmer'
_symmetry_space_group_name_H-M	'P1'
_symmetry_Int_Tables_number	1
_symmetry_cell_setting	triclinic
loop_
_symmetry_equiv_pos_as_xyz
  x,y,z
_cell_length_a	15.711784
_cell_length_b	16.992695
_cell_length_c	15.455313
_cell_angle_alpha	87.152573
_cell_angle_beta	86.521979
_cell_angle_gamma	74.871488
loop_
_atom_site_label
_atom_site_type_symbol
_atom_site_fract_x
_atom_site_fract_y
_atom_site_fract_z
O1	O	1.180870	-0.436352	-0.072176
O2	O	0.924998	-0.375440	-0.072169
O3	O	1.051908	-0.291460	-0.072166
O4	O	1.053960	-0.520333	-0.072179
O5	O	1.044649	-0.296233	0.072096
O6	O	0.917739	-0.380214	0.072093
O7	O	1.173611	-0.441126	0.072086
Cu8	Cu	1.045012	-0.411106	0.085262
Cu9	Cu	1.053597	-0.405460	-0.085345
O10	O	1.046701	-0.525106	0.072083
C11	C	0.888477	-0.367877	-0.000037
C12	C	0.790470	-0.338218	-0.000033
C13	C	0.657809	-0.226563	-0.000026
C14	C	0.749901	-0.254440	-0.000028
C15	C	0.738956	-0.394152	-0.000040
C16	C	0.646861	-0.366286	-0.000042
C17	C	0.606295	-0.282491	-0.000034
C18	C	0.595348	-0.422215	-0.000050
C19	C	0.503261	-0.394351	-0.000047
C20	C	0.462688	-0.310560	-0.000036
C21	C	0.514208	-0.254628	-0.000031
C22	C	0.635915	-0.506010	-0.000052
C23	C	0.584401	-0.561938	-0.000060
C24	C	0.492313	-0.534075	-0.000063
C25	C	0.451740	-0.450283	-0.000052
C26	C	0.440793	-0.590006	-0.000068
C27	C	0.348706	-0.562143	-0.000066
C28	C	0.359653	-0.422420	-0.000049
C29	C	1.045640	-0.263877	-0.000035
C30	C	1.037765	-0.174574	-0.000035
C31	C	1.210132	-0.448689	-0.000048
C32	C	1.308140	-0.478348	-0.000057
C33	C	1.052970	-0.552689	-0.000050
C34	C	1.060844	-0.641992	-0.000056
N35	N	1.038980	-0.415077	0.205257
C36	C	1.113740	-0.146126	-0.000036
C37	C	1.106337	-0.062215	-0.000044
C38	C	1.022957	-0.006755	-0.000044
C39	C	0.946977	-0.035207	-0.000046
C40	C	0.954381	-0.119116	-0.000044
C41	C	0.992268	0.245646	-0.000055
C42	C	0.984869	0.329560	-0.000055
C43	C	1.144230	0.302546	-0.000055
C44	C	1.151627	0.218637	-0.000048
C45	C	1.075647	0.190191	-0.000053
N46	N	1.015388	0.079016	-0.000050
N47	N	1.083218	0.104423	-0.000054
N48	N	1.059635	-0.401484	-0.205340
C49	C	1.092917	-0.379424	0.250652
C50	C	1.088365	-0.382438	0.341460
C51	C	1.029878	-0.421110	0.386871
C52	C	0.975935	-0.456763	0.341469
C53	C	0.980484	-0.453744	0.250663
C54	C	1.010242	-0.434119	0.658452
C55	C	1.005698	-0.437137	0.749264
C56	C	1.118127	-0.362810	0.749249
C57	C	1.122675	-0.359799	0.658441
C58	C	1.068728	-0.395449	0.613048
N59	N	1.025225	-0.424193	0.479691
N60	N	1.073378	-0.392360	0.520229
H61	H	0.617443	-0.630165	-0.000063
H62	H	0.928310	-0.488247	0.378448
H63	H	1.206089	0.325717	-0.000052
O64	O	0.782718	-0.484527	-0.000051
H65	H	0.759464	-0.514626	0.058747
H66	H	0.892514	-0.142277	-0.000043
O67	O	0.922315	-0.492203	0.201694
H68	H	0.880888	-0.519609	0.248524
H69	H	0.958070	-0.468631	0.786234
O70	O	0.894935	0.389385	-0.000065
H71	H	0.843345	0.355509	-0.000078
H72	H	1.170299	-0.328309	0.621470
H73	H	0.306762	-0.607686	-0.000068
O74	O	0.952068	-0.472582	0.609501
H75	H	0.908945	-0.425219	0.568153
H76	H	1.181637	-0.191278	-0.000030
H77	H	0.473835	-0.658233	-0.000067
H78	H	1.132284	-0.353406	0.378421
H79	H	0.710898	-0.528694	-0.000051
O80	O	1.155992	-0.337696	0.201688
H81	H	1.118246	-0.286778	0.160339
O82	O	0.805470	-0.194117	-0.000021
H83	H	0.793388	-0.153325	-0.058818
O84	O	1.188280	-0.031529	-0.000031
H85	H	1.247501	-0.084192	-0.000015
O86	O	0.614050	-0.136182	-0.000018
H87	H	0.541362	-0.126207	-0.000020
O88	O	1.176303	-0.324351	0.798207
H89	H	1.163311	-0.332939	0.868979
H90	H	0.879087	0.009956	-0.000051
O91	O	0.315889	-0.332039	-0.000038
H92	H	0.339145	-0.301936	-0.058831
O93	O	0.363364	-0.280506	-0.000025
H94	H	0.343812	-0.212844	-0.000009
O95	O	0.470447	-0.164247	-0.000019
H96	H	0.431716	-0.146263	-0.058818
O97	O	1.241559	0.158818	-0.000068
H98	H	1.293148	0.192698	-0.000084
H99	H	0.930399	0.222497	-0.000060
