data_functionalizedCrystal
_audit_creation_method	'MofGen! by Chris Wilmer'
_symmetry_space_group_name_H-M	'P1'
_symmetry_Int_Tables_number	1
_symmetry_cell_setting	triclinic
loop_
_symmetry_equiv_pos_as_xyz
  x,y,z
_cell_length_a	12.017431
_cell_length_b	16.994746
_cell_length_c	12.594517
_cell_angle_alpha	90.010064
_cell_angle_beta	89.970324
_cell_angle_gamma	134.907073
loop_
_atom_site_label
_atom_site_type_symbol
_atom_site_fract_x
_atom_site_fract_y
_atom_site_fract_z
Zn1	Zn	-0.890571	-0.758602	1.627495
Zn2	Zn	-0.627328	-0.759105	1.627350
Zn3	Zn	-0.627255	-0.627182	1.449445
Zn4	Zn	-0.890648	-0.890507	1.449500
O5	O	-0.758950	-0.758849	1.538448
O6	O	-0.855650	-0.758677	1.776422
O7	O	-0.406919	-0.631613	1.603667
O8	O	-0.662121	-0.534202	1.473101
O9	O	-0.662246	-0.759046	1.776315
O10	O	-0.855578	-0.630756	1.603914
O11	O	-0.406865	-0.534689	1.472960
O12	O	-0.662196	-0.662105	1.300506
O13	O	-1.111037	-0.983001	1.473195
O14	O	-0.855710	-0.855568	1.300547
O15	O	-1.110980	-0.886092	1.603968
O16	O	-0.662321	-0.886948	1.603720
O17	O	-0.855781	-0.983488	1.473055
C18	C	-0.758954	-0.758835	1.261907
C19	C	-0.758993	-0.758867	1.143601
C20	C	-0.864051	-0.864090	1.003637
C21	C	-0.720325	-0.811538	1.074381
C22	C	-0.902703	-0.811447	1.074429
C23	C	-0.615144	-0.706317	1.003559
C24	C	-0.797620	-0.706240	1.003601
C25	C	-0.653795	-0.653611	1.074313
C26	C	-1.348100	-1.052879	1.538694
C27	C	-1.169750	-0.963869	1.538611
C28	C	-0.759063	-0.963845	1.538391
C29	C	-0.759076	-1.053173	1.538400
Zn30	Zn	-0.626984	-1.258111	1.449620
Zn31	Zn	-0.627504	-1.126432	1.627516
Zn32	Zn	-0.890706	-1.389757	1.627396
Zn33	Zn	-0.890417	-1.257799	1.449392
O34	O	-0.758903	-1.258025	1.538481
O35	O	-0.406654	-1.130571	1.473364
O36	O	-0.662756	-1.161479	1.776446
O37	O	-0.855626	-1.482626	1.603858
O38	O	-0.407036	-1.033827	1.604064
O39	O	-0.661870	-1.385907	1.473247
O40	O	-0.856130	-1.354942	1.776358
O41	O	-1.111066	-1.482324	1.603638
O42	O	-0.855134	-1.257725	1.300476
O43	O	-1.110854	-1.385376	1.472859
O44	O	-0.661591	-1.257953	1.300644
O45	O	-0.662476	-1.033525	1.603843
O46	O	-0.855638	-1.130040	1.472976
C47	C	-0.758948	-0.758863	1.816068
C48	C	-0.758946	-0.758869	1.934374
C49	C	-0.758829	-0.553048	1.538510
C50	C	-0.758777	-0.463700	1.538541
C51	C	-1.346453	-1.551430	1.538071
C52	C	-1.168103	-1.462385	1.538217
C53	C	-0.758272	-1.257808	1.260860
C54	C	-0.758003	-1.257716	1.142555
C55	C	-0.759442	-1.258252	1.815022
C56	C	-0.759409	-1.258414	1.933327
C57	C	-0.863104	-1.257543	1.073211
C58	C	-0.719257	-1.166441	1.002519
C59	C	-0.901327	-1.348621	1.002447
C60	C	-0.614085	-1.166540	1.073422
C61	C	-0.796252	-1.348801	1.073356
C62	C	-0.652306	-1.257678	1.002697
H63	H	-1.024257	-0.855909	1.105559
H64	H	-0.952080	-1.257367	1.104183
H65	H	-0.828872	-1.425908	1.104495
O66	O	-1.046051	-1.440451	0.965133
C67	C	-1.035010	-1.504060	0.903652
H68	H	-0.909611	-1.448436	0.873227
H69	H	-1.119050	-1.541908	0.833421
H70	H	-1.067440	-1.573270	0.954588
O71	O	-0.470188	-0.653524	0.966539
C72	C	-0.481085	-0.727681	0.904234
H73	H	-0.590745	-0.816765	0.927794
H74	H	-0.372650	-0.711619	0.917758
H75	H	-0.488672	-0.714625	0.816772
O76	O	-0.680650	-1.074541	0.965440
C77	C	-0.791987	-1.074744	1.001378
H78	H	-0.906690	-1.163389	1.021179
H79	H	-0.813952	-1.040211	0.936562
H80	H	-0.745351	-1.020799	1.075450
O81	O	-0.469303	-1.074672	1.110624
C82	C	-0.471328	-1.075855	1.222564
H83	H	-0.596913	-1.129787	1.251770
H84	H	-0.394134	-0.987532	1.253501
H85	H	-0.424573	-1.111200	1.252940
H86	H	-0.952802	-0.953052	0.972604
O87	O	-0.836952	-0.653359	0.966521
C88	C	-0.988635	-0.709083	1.002590
H89	H	-1.056449	-0.798871	1.022491
H90	H	-1.053306	-0.707544	0.937814
H91	H	-0.978808	-0.665893	1.076629
O92	O	-0.681565	-0.864797	1.111426
C93	C	-0.792617	-0.975693	1.075401
H94	H	-0.907377	-1.001689	1.055574
H95	H	-0.814592	-1.032206	1.140175
H96	H	-0.745685	-0.982859	1.001327
O97	O	-0.547453	-0.547381	1.111064
C98	C	-0.396173	-0.492359	1.074734
H99	H	-0.393012	-0.556224	1.054967
H100	H	-0.306186	-0.434136	1.139300
H101	H	-0.366990	-0.442224	1.000560
H102	H	-0.563109	-1.257708	0.971928
