data_functionalizedCrystal
_audit_creation_method	'MofGen! by Chris Wilmer'
_symmetry_space_group_name_H-M	'P1'
_symmetry_Int_Tables_number	1
_symmetry_cell_setting	triclinic
loop_
_symmetry_equiv_pos_as_xyz
  x,y,z
_cell_length_a	10.654549
_cell_length_b	10.654551
_cell_length_c	9.130313
_cell_angle_alpha	89.997246
_cell_angle_beta	89.997498
_cell_angle_gamma	84.485103
loop_
_atom_site_label
_atom_site_type_symbol
_atom_site_fract_x
_atom_site_fract_y
_atom_site_fract_z
O1	O	1.667840	0.176396	-0.121759
O2	O	1.302362	0.193203	-0.121769
O3	O	1.493503	0.002061	-0.121761
O4	O	1.476699	0.367539	-0.121768
O5	O	1.493490	0.002055	0.121838
O6	O	1.302349	0.193197	0.121830
O7	O	1.667827	0.176391	0.121839
Cu8	Cu	1.485087	0.184794	0.144077
Cu9	Cu	1.485102	0.184800	-0.144007
O10	O	1.476686	0.367533	0.121831
C11	C	1.255557	0.191966	0.000029
C12	C	1.116114	0.188275	0.000025
C13	C	0.905600	0.297338	0.000029
C14	C	1.036621	0.300816	0.000020
C15	C	1.064581	0.072247	0.000024
C16	C	0.933563	0.068770	0.000022
C17	C	1.492263	-0.044740	0.000036
C18	C	1.488570	-0.184183	0.000029
C19	C	1.486844	-0.249684	-0.132758
C20	C	1.483364	-0.380704	-0.132759
C21	C	1.483341	-0.380712	0.132826
C22	C	1.486812	-0.249693	0.132825
C23	C	1.714632	0.177628	0.000038
C24	C	1.854075	0.181319	0.000032
C25	C	1.477927	0.414334	0.000031
C26	C	1.481619	0.553777	0.000028
N27	N	1.485085	0.184788	0.346700
N28	N	1.485114	0.184796	-0.346629
C29	C	1.569751	0.100186	0.423355
C30	C	1.569763	0.100187	0.576692
C31	C	1.400439	0.269402	0.576704
C32	C	1.400422	0.269394	0.423370
H33	H	1.488272	-0.196349	-0.240889
H34	H	1.638688	0.031293	0.360934
H35	H	1.331470	0.338288	0.360953
H36	H	1.638705	0.031295	0.639101
H37	H	1.481956	-0.434029	-0.240888
O38	O	0.883297	-0.043830	-0.000040
C39	C	0.693840	-0.150474	0.000033
C40	C	0.750600	-0.022878	0.000080
H41	H	0.586548	-0.133578	0.000161
H42	H	0.726408	-0.206163	-0.101937
H43	H	0.726559	-0.206152	0.101955
H44	H	0.717908	0.032903	-0.101773
H45	H	0.718039	0.032715	0.102117
O46	O	0.828333	0.406629	0.000282
C47	C	0.664125	0.535331	0.126421
C48	C	0.751572	0.411522	0.126341
H49	H	0.602023	0.539315	0.228313
H50	H	0.723401	0.618897	0.126506
H51	H	0.602151	0.539399	0.024426
H52	H	0.813564	0.407330	0.228318
H53	H	0.692221	0.328013	0.126179
O54	O	1.141928	-0.036992	-0.000168
C55	C	1.306037	-0.165750	-0.126400
C56	C	1.218539	-0.041974	-0.126353
H57	H	1.367981	-0.169830	-0.228425
H58	H	1.368155	-0.169851	-0.024520
H59	H	1.246678	-0.249251	-0.126329
H60	H	1.277799	0.041596	-0.126476
H61	H	1.156415	-0.037984	-0.228224
O62	O	1.318033	0.351461	0.651123
C63	C	1.100305	0.423064	0.698017
C64	C	1.193490	0.330039	0.613675
H65	H	0.999593	0.405795	0.667748
H66	H	1.114754	0.408537	0.820794
H67	H	1.117596	0.523800	0.667871
H68	H	1.176255	0.229266	0.643699
H69	H	1.179019	0.344676	0.490919
H70	H	1.481913	-0.434067	0.240943
H71	H	1.078565	0.395290	0.000016
O72	O	1.488539	-0.186258	0.261954
C73	C	1.488068	-0.200071	0.525379
C74	C	1.486146	-0.272071	0.379257
H75	H	1.486107	-0.269416	0.620256
H76	H	1.577447	-0.149493	0.532124
H77	H	1.401974	-0.127973	0.531924
H78	H	1.572178	-0.344230	0.372614
H79	H	1.396711	-0.322563	0.372574
