data_functionalizedCrystal
_audit_creation_method	'MofGen! by Chris Wilmer'
_symmetry_space_group_name_H-M	'P1'
_symmetry_Int_Tables_number	1
_symmetry_cell_setting	triclinic
loop_
_symmetry_equiv_pos_as_xyz
  x,y,z
_cell_length_a	6.817900
_cell_length_b	10.992421
_cell_length_c	10.992410
_cell_angle_alpha	91.831025
_cell_angle_beta	108.764651
_cell_angle_gamma	108.764763
loop_
_atom_site_label
_atom_site_type_symbol
_atom_site_fract_x
_atom_site_fract_y
_atom_site_fract_z
V1	V	-4.114248	-0.177761	-0.400575
O2	O	-4.072376	0.008542	-0.392968
O3	O	-4.091827	-0.352470	-0.397818
O4	O	-4.091840	-0.175026	-0.575288
O5	O	-4.072363	-0.170129	-0.214270
V6	V	-4.591142	-0.155477	-0.378294
O7	O	-4.390048	-0.226642	-0.449452
O8	O	-4.765539	-0.106595	-0.329417
O9	O	-4.390356	0.019232	-0.381051
O10	O	-4.750411	-0.341780	-0.385901
O11	O	-4.750424	-0.163108	-0.564599
O12	O	-4.390343	-0.158211	-0.203581
C13	C	-3.942307	-0.395060	-0.391494
C14	C	-4.005435	-0.537887	-0.390404
C15	C	-3.873099	-0.733174	-0.381618
C16	C	-3.807017	-0.584530	-0.382242
C17	C	-4.076044	-0.576522	-0.270588
C18	C	-4.140279	-0.725065	-0.269320
C19	C	-4.271785	-0.763647	-0.514935
C20	C	-4.202731	-0.615133	-0.517535
C21	C	-3.942322	-0.168712	-0.617873
C22	C	-4.005457	-0.167632	-0.760702
C23	C	-3.872580	-0.157795	-0.955826
C24	C	-3.807029	-0.159451	-0.807343
C25	C	-4.203473	-0.294312	-0.837793
C26	C	-4.267786	-0.293192	-0.986360
C27	C	-4.145552	-0.047893	-0.948352
C28	C	-4.074843	-0.047293	-0.799340
C29	C	-4.203219	0.061816	-0.387371
C30	C	-4.119331	0.204641	-0.388470
C31	C	-4.203203	-0.164530	-0.160989
C32	C	-4.119306	-0.165603	-0.018159
H33	H	-4.221676	-0.546286	-0.271970
H34	H	-3.658574	-0.068362	-0.754011
C35	C	-4.136554	-0.582858	-0.637297
C36	C	-4.302434	-0.646609	-0.774558
C37	C	-4.236249	-0.614324	-0.894317
C38	C	-4.004183	-0.518288	-0.876815
C39	C	-3.838288	-0.454531	-0.739549
C40	C	-3.904474	-0.486816	-0.619789
H41	H	-4.474237	-0.717706	-0.787519
H42	H	-4.359056	-0.661521	-0.995931
H43	H	-3.955188	-0.494388	-0.965468
H44	H	-3.666486	-0.383435	-0.726588
H45	H	-3.781666	-0.439619	-0.518176
H46	H	-4.029479	-0.742580	-0.174188
C47	C	-3.714239	-0.033905	-0.981293
C48	C	-3.563930	-0.044626	-1.056789
C49	C	-3.405596	0.079267	-1.082273
C50	C	-3.397572	0.213880	-1.032261
C51	C	-3.547887	0.224606	-0.956761
C52	C	-3.706220	0.100713	-0.931277
H53	H	-3.569865	-0.144280	-1.093815
H54	H	-3.294324	0.071326	-1.138163
H55	H	-3.280364	0.305593	-1.051126
H56	H	-3.541951	0.324260	-0.919735
H57	H	-3.817493	0.108654	-0.875386
H58	H	-3.749893	-0.558765	-0.467855
H59	H	-3.749849	-0.245200	-0.782519
C60	C	-4.406626	-0.308595	-0.798881
C61	C	-4.625476	-0.313466	-0.902050
C62	C	-4.828626	-0.327746	-0.863136
C63	C	-4.812926	-0.337154	-0.721052
C64	C	-4.594067	-0.332282	-0.617874
C65	C	-4.390918	-0.318003	-0.656789
H66	H	-4.637106	-0.306502	-1.007237
H67	H	-4.990639	-0.331352	-0.939516
H68	H	-4.963309	-0.347724	-0.692245
H69	H	-4.582438	-0.339247	-0.512687
H70	H	-4.228904	-0.314397	-0.580409
C71	C	-4.006477	0.082070	-0.975832
C72	C	-3.867296	0.082970	-1.062031
C73	C	-3.728181	0.212926	-1.089500
C74	C	-3.728245	0.341983	-1.030771
C75	C	-3.867431	0.341088	-0.944566
C76	C	-4.006547	0.211132	-0.917097
H77	H	-3.867244	-0.012570	-1.105511
H78	H	-3.625147	0.213588	-1.153315
H79	H	-3.625264	0.438185	-1.051105
H80	H	-3.867484	0.436628	-0.901086
H81	H	-4.109581	0.210470	-0.853283
C82	C	-4.514750	-0.819181	-0.523423
C83	C	-4.574644	-0.892944	-0.416190
C84	C	-4.817596	-0.948484	-0.424665
C85	C	-5.000653	-0.930261	-0.540373
C86	C	-4.940763	-0.856494	-0.647614
C87	C	-4.697812	-0.800954	-0.639139
H88	H	-4.439130	-0.906438	-0.330528
H89	H	-4.861929	-1.003091	-0.345277
H90	H	-5.180500	-0.971375	-0.546647
H91	H	-5.076277	-0.843001	-0.733276
H92	H	-4.653478	-0.746347	-0.718527
H93	H	-3.847276	-0.779594	-0.466700
H94	H	-3.757306	-0.753734	-0.290415
H95	H	-3.658336	-0.532087	-0.290964
H96	H	-4.316491	-0.765948	-0.269130
H97	H	-3.935455	-0.522284	-0.176470
H98	H	-4.265447	-0.813163	-0.605597
H99	H	-4.352513	-0.584926	-0.530916
H100	H	-3.847642	-0.242371	-1.003810
H101	H	-4.252224	-0.382320	-1.032621
H102	H	-4.449788	-0.304208	-1.028990
H103	H	-4.157711	-0.383659	-0.812179
H104	H	-3.931589	0.046420	-0.746991
H105	H	-4.216956	-0.045805	-0.766828
H106	H	-4.324536	-0.052498	-0.989193
