data_functionalizedCrystal
_audit_creation_method	'MofGen! by Chris Wilmer'
_symmetry_space_group_name_H-M	'P1'
_symmetry_Int_Tables_number	1
_symmetry_cell_setting	triclinic
loop_
_symmetry_equiv_pos_as_xyz
  x,y,z
_cell_length_a	16.109302
_cell_length_b	16.109304
_cell_length_c	15.186229
_cell_angle_alpha	90.000934
_cell_angle_beta	90.005299
_cell_angle_gamma	83.462209
loop_
_atom_site_label
_atom_site_type_symbol
_atom_site_fract_x
_atom_site_fract_y
_atom_site_fract_z
O1	O	1.103131	0.106869	0.073263
O2	O	1.603131	0.606869	0.573263
O3	O	0.861070	0.120167	0.073255
O4	O	1.361070	0.620167	0.573255
O5	O	0.988749	-0.007513	0.073259
O6	O	1.488749	0.492487	0.573259
O7	O	0.975452	0.234549	0.073258
O8	O	1.475452	0.734549	0.573258
O9	O	0.988740	-0.007514	-0.073198
O10	O	1.488740	0.492486	0.426802
O11	O	0.861061	0.120166	-0.073202
O12	O	1.361061	0.620166	0.426798
O13	O	1.103123	0.106867	-0.073195
O14	O	1.603123	0.606867	0.426805
Zn15	Zn	0.982091	0.113516	-0.096452
Zn16	Zn	1.482091	0.613516	0.403548
Zn17	Zn	0.982102	0.113518	0.096512
Zn18	Zn	1.482102	0.613518	0.596512
O19	O	0.975444	0.234547	-0.073199
O20	O	1.475444	0.734547	0.426801
C21	C	0.830090	0.119628	0.000025
C22	C	1.330090	0.619628	0.500025
C23	C	0.737795	0.118012	0.000023
C24	C	1.237795	0.618012	0.500023
C25	C	0.525450	0.114276	-0.079802
C26	C	1.025450	0.614276	0.420198
C27	C	0.438729	0.112750	-0.079799
C28	C	0.938729	0.612750	0.420201
C29	C	0.438749	0.112756	0.079876
C30	C	0.938749	0.612756	0.579876
C31	C	0.525468	0.114277	0.079872
C32	C	1.025468	0.614277	0.579872
C33	C	0.568816	0.115041	0.000030
C34	C	1.068816	0.615041	0.500030
C35	C	0.395377	0.111994	0.000038
C36	C	0.895377	0.611994	0.500038
C37	C	0.301351	0.110338	0.000041
C38	C	0.801351	0.610338	0.500041
C39	C	0.662848	0.116695	0.000026
C40	C	1.162848	0.616695	0.500026
C41	C	0.988206	-0.038488	0.000033
C42	C	1.488206	0.461512	0.500033
C43	C	0.986590	-0.130784	0.000039
C44	C	1.486590	0.369216	0.500039
C45	C	0.982861	-0.343120	0.079869
C46	C	1.482861	0.156880	0.579869
C47	C	0.981334	-0.429840	0.079868
C48	C	1.481334	0.070160	0.579868
C49	C	0.981329	-0.429839	-0.079807
C50	C	1.481329	0.070161	0.420193
C51	C	0.982849	-0.343120	-0.079806
C52	C	1.482849	0.156880	0.420194
C53	C	0.983619	-0.299763	0.000035
C54	C	1.483619	0.200237	0.500035
C55	C	0.980573	-0.473202	0.000033
C56	C	1.480573	0.026798	0.500033
C57	C	0.978918	-0.567228	0.000031
C58	C	1.478918	-0.067228	0.500031
C59	C	0.985272	-0.205731	0.000037
C60	C	1.485272	0.294269	0.500037
C61	C	1.134102	0.107407	0.000037
C62	C	1.634102	0.607407	0.500037
C63	C	1.226397	0.109022	0.000045
C64	C	1.726397	0.609022	0.500045
C65	C	0.975987	0.265523	0.000029
C66	C	1.475987	0.765523	0.500029
C67	C	0.977603	0.357818	0.000029
C68	C	1.477603	0.857818	0.500029
N69	N	0.982089	0.113514	-0.228144
N70	N	1.482089	0.613514	0.271856
C71	C	1.038645	0.056996	-0.453865
C72	C	1.538645	0.556996	0.046135
C73	C	1.038647	0.056994	-0.546055
C74	C	1.538647	0.556994	-0.046055
C75	C	0.925548	0.170034	-0.546068
C76	C	1.425548	0.670034	-0.046068
C77	C	0.925542	0.170032	-0.453880
C78	C	1.425542	0.670032	0.046120
C79	C	0.982095	0.113514	-0.407781
C80	C	1.482095	0.613514	0.092219
C81	C	0.982104	0.113514	-0.592159
C82	C	1.482104	0.613514	-0.092159
C83	C	0.982106	0.113513	-0.692115
C84	C	1.482106	0.613513	-0.192115
C85	C	0.982092	0.113514	-0.307819
C86	C	1.482092	0.613514	0.192181
N87	N	0.982110	0.113514	0.228205
N88	N	1.482110	0.613514	0.728205
H89	H	0.403424	0.112127	-0.144807
H90	H	0.903424	0.612127	0.355193
Cl91	Cl	0.983794	-0.288608	-0.180177
Cl92	Cl	1.483794	0.211392	0.319823
Cl93	Cl	0.579941	0.115232	-0.180175
Cl94	Cl	1.079941	0.615232	0.319825
Cl95	Cl	0.579991	0.115231	0.180242
Cl96	Cl	1.079991	0.615231	0.680242
Cl97	Cl	1.109739	-0.014061	-0.603987
Cl98	Cl	1.609739	0.485939	-0.103987
Cl99	Cl	1.109736	-0.014058	-0.395916
Cl100	Cl	1.609736	0.485942	0.104084
H101	H	0.403445	0.112134	0.144881
H102	H	0.903445	0.612134	0.644881
H103	H	0.983485	-0.307821	0.144881
H104	H	1.483485	0.192179	0.644881
Cl105	Cl	0.854442	0.241084	-0.395940
Cl106	Cl	1.354442	0.741084	0.104060
H107	H	0.879505	0.216051	-0.583611
H108	H	1.379505	0.716051	-0.083611
H109	H	0.980715	-0.465137	0.144877
H110	H	1.480715	0.034863	0.644877
H111	H	0.980704	-0.465151	-0.144811
H112	H	1.480704	0.034849	0.355189
