data_functionalizedCrystal
_audit_creation_method	'MofGen! by Chris Wilmer'
_symmetry_space_group_name_H-M	'P1'
_symmetry_Int_Tables_number	1
_symmetry_cell_setting	triclinic
loop_
_symmetry_equiv_pos_as_xyz
  x,y,z
_cell_length_a	16.109301
_cell_length_b	19.188930
_cell_length_c	14.586319
_cell_angle_alpha	89.991095
_cell_angle_beta	89.999213
_cell_angle_gamma	83.303131
loop_
_atom_site_label
_atom_site_type_symbol
_atom_site_fract_x
_atom_site_fract_y
_atom_site_fract_z
O1	O	1.102833	0.089744	-0.076193
O2	O	1.352833	0.339744	0.173807
O3	O	1.602833	0.589744	0.423807
O4	O	1.852833	0.839744	0.673807
O5	O	0.860734	0.100912	-0.076209
O6	O	1.110734	0.350912	0.173791
O7	O	1.360734	0.600912	0.423791
O8	O	1.610734	0.850912	0.673791
O9	O	0.988770	-0.006311	-0.076182
O10	O	1.238770	0.243689	0.173818
O11	O	1.488770	0.493689	0.423818
O12	O	1.738770	0.743689	0.673818
O13	O	0.974797	0.196968	-0.076219
O14	O	1.224797	0.446968	0.173781
O15	O	1.474797	0.696968	0.423781
O16	O	1.724797	0.946968	0.673781
O17	O	0.988762	-0.006313	0.076298
O18	O	1.238762	0.243687	0.326298
O19	O	1.488762	0.493687	0.576298
O20	O	1.738762	0.743687	0.826298
O21	O	0.860726	0.100911	0.076272
O22	O	1.110726	0.350911	0.326272
O23	O	1.360726	0.600911	0.576272
O24	O	1.610726	0.850911	0.826272
O25	O	1.102825	0.089742	0.076288
O26	O	1.352825	0.339742	0.326288
O27	O	1.602825	0.589742	0.576288
O28	O	1.852825	0.839742	0.826288
Cu29	Cu	0.981774	0.095326	0.090203
Cu30	Cu	1.231774	0.345326	0.340203
Cu31	Cu	1.481774	0.595326	0.590203
Cu32	Cu	1.731774	0.845326	0.840203
Cu33	Cu	0.981785	0.095328	-0.090124
Cu34	Cu	1.231785	0.345328	0.159876
Cu35	Cu	1.481785	0.595328	0.409876
Cu36	Cu	1.731785	0.845328	0.659876
O37	O	0.974789	0.196966	0.076262
O38	O	1.224789	0.446966	0.326262
O39	O	1.474789	0.696966	0.576262
O40	O	1.724789	0.946966	0.826262
C41	C	0.829757	0.100459	0.000030
C42	C	1.079757	0.350459	0.250030
C43	C	1.329757	0.600459	0.500030
C44	C	1.579757	0.850459	0.750030
C45	C	0.737466	0.099103	0.000025
C46	C	0.987466	0.349103	0.250025
C47	C	1.237466	0.599103	0.500025
C48	C	1.487466	0.849103	0.750025
C49	C	0.514993	0.159573	0.000024
C50	C	0.764993	0.409573	0.250024
C51	C	1.014993	0.659573	0.500024
C52	C	1.264993	0.909573	0.750024
C53	C	0.428277	0.158294	0.000030
C54	C	0.678277	0.408294	0.250030
C55	C	0.928277	0.658294	0.500030
C56	C	1.178277	0.908294	0.750030
C57	C	0.448573	0.031076	0.000050
C58	C	0.698573	0.281076	0.250050
C59	C	0.948573	0.531076	0.500050
C60	C	1.198573	0.781076	0.750050
C61	C	0.535287	0.032357	0.000050
C62	C	0.785287	0.282357	0.250050
C63	C	1.035287	0.532357	0.500050
C64	C	1.285287	0.782357	0.750050
C65	C	0.568495	0.096608	0.000033
C66	C	0.818495	0.346608	0.250033
C67	C	1.068495	0.596608	0.500033
C68	C	1.318495	0.846608	0.750033
C69	C	0.395064	0.094047	0.000038
C70	C	0.645064	0.344047	0.250038
C71	C	0.895064	0.594047	0.500038
C72	C	1.145064	0.844047	0.750038
C73	C	0.301043	0.092659	0.000045
C74	C	0.551043	0.342659	0.250045
C75	C	0.801043	0.592659	0.500045
C76	C	1.051043	0.842659	0.750045
C77	C	0.662522	0.097996	0.000028
C78	C	0.912522	0.347996	0.250028
C79	C	1.162522	0.597996	0.500028
C80	C	1.412522	0.847996	0.750028
C81	C	0.988313	-0.032324	0.000061
C82	C	1.238313	0.217676	0.250061
C83	C	1.488313	0.467676	0.500061
C84	C	1.738313	0.717676	0.750061
C85	C	0.986955	-0.109832	0.000068
C86	C	1.236955	0.140168	0.250068
C87	C	1.486955	0.390168	0.500068
C88	C	1.736955	0.640168	0.750068
C89	C	1.062082	-0.154580	0.000078
C90	C	1.312082	0.095420	0.250078
C91	C	1.562082	0.345420	0.500078
C92	C	1.812082	0.595420	0.750078
C93	C	1.060806	-0.227407	0.000063
C94	C	1.310806	0.022593	0.250063
C95	C	1.560806	0.272593	0.500063
C96	C	1.810806	0.522593	0.750063
C97	C	0.984399	-0.255482	0.000057
C98	C	1.234399	-0.005482	0.250057
C99	C	1.484399	0.244518	0.500057
C100	C	1.734399	0.494518	0.750057
C101	C	0.909261	-0.210724	0.000043
C102	C	1.159261	0.039276	0.250043
C103	C	1.409261	0.289276	0.500043
C104	C	1.659261	0.539276	0.750043
C105	C	0.910540	-0.137899	0.000048
C106	C	1.160540	0.112101	0.250048
C107	C	1.410540	0.362101	0.500048
C108	C	1.660540	0.612101	0.750048
N109	N	0.925991	-0.363624	0.051945
N110	N	1.175991	-0.113624	0.301945
N111	N	1.425991	0.136376	0.551945
N112	N	1.675991	0.386376	0.801945
N113	N	0.924782	-0.432805	0.051942
N114	N	1.174782	-0.182805	0.301942
N115	N	1.424782	0.067195	0.551942
N116	N	1.674782	0.317195	0.801942
C117	C	0.980543	-0.474900	0.000038
C118	C	1.230543	-0.224900	0.250038
C119	C	1.480543	0.025100	0.500038
C120	C	1.730543	0.275100	0.750038
N121	N	1.037571	-0.445200	-0.051850
N122	N	1.287571	-0.195200	0.198150
N123	N	1.537571	0.054800	0.448150
N124	N	1.787571	0.304800	0.698150
N125	N	1.038783	-0.376013	-0.051843
N126	N	1.288783	-0.126013	0.198157
N127	N	1.538783	0.123987	0.448157
N128	N	1.788783	0.373987	0.698157
C129	C	0.983004	-0.334448	0.000051
C130	C	1.233004	-0.084448	0.250051
C131	C	1.483004	0.165552	0.500051
C132	C	1.733004	0.415552	0.750051
C133	C	1.054292	-0.598616	0.000030
C134	C	1.304292	-0.348616	0.250030
C135	C	1.554292	-0.098616	0.500030
C136	C	1.804292	0.151384	0.750030
C137	C	1.053012	-0.671443	0.000010
C138	C	1.303012	-0.421443	0.250010
C139	C	1.553012	-0.171443	0.500010
C140	C	1.803012	0.078557	0.750010
C141	C	0.901465	-0.654759	-0.000001
C142	C	1.151465	-0.404759	0.249999
C143	C	1.401465	-0.154759	0.499999
C144	C	1.651465	0.095241	0.749999
C145	C	0.902747	-0.581933	0.000010
C146	C	1.152747	-0.331933	0.250010
C147	C	1.402747	-0.081933	0.500010
C148	C	1.652747	0.168067	0.750010
C149	C	0.979162	-0.553866	0.000030
C150	C	1.229162	-0.303866	0.250030
C151	C	1.479162	-0.053866	0.500030
C152	C	1.729162	0.196134	0.750030
C153	C	1.133802	0.090196	0.000047
C154	C	1.383802	0.340196	0.250047
C155	C	1.633802	0.590196	0.500047
C156	C	1.883802	0.840196	0.750047
C157	C	1.226093	0.091552	0.000046
C158	C	1.476093	0.341552	0.250046
C159	C	1.726093	0.591552	0.500046
C160	C	1.976093	0.841552	0.750046
C161	C	0.975246	0.222979	0.000017
C162	C	1.225246	0.472979	0.250017
C163	C	1.475246	0.722979	0.500017
C164	C	1.725246	0.972979	0.750017
C165	C	0.976604	0.300486	0.000003
C166	C	1.226604	0.550486	0.250003
C167	C	1.476604	0.800486	0.500003
C168	C	1.726604	1.050486	0.750003
N169	N	0.981773	0.095325	0.217034
N170	N	1.231773	0.345325	0.467034
N171	N	1.481773	0.595325	0.717034
N172	N	1.731773	0.845325	0.967034
N173	N	0.981793	0.095325	-0.216955
N174	N	1.231793	0.345325	0.033045
N175	N	1.481793	0.595325	0.283045
N176	N	1.731793	0.845325	0.533045
C177	C	1.038486	0.047862	0.452052
C178	C	1.288486	0.297862	0.702052
C179	C	1.538486	0.547862	0.952052
C180	C	1.788486	0.797862	1.202052
C181	C	1.038488	0.047860	0.548034
C182	C	1.288488	0.297860	0.798034
C183	C	1.538488	0.547860	1.048034
C184	C	1.788488	0.797860	1.298034
C185	C	0.925074	0.142790	0.548020
C186	C	1.175074	0.392790	0.798020
C187	C	1.425074	0.642790	1.048020
C188	C	1.675074	0.892790	1.298020
C189	C	0.925068	0.142787	0.452040
C190	C	1.175068	0.392787	0.702040
C191	C	1.425068	0.642787	0.952040
C192	C	1.675068	0.892787	1.202040
C193	C	0.981779	0.095324	0.404059
C194	C	1.231779	0.345324	0.654059
C195	C	1.481779	0.595324	0.904059
C196	C	1.731779	0.845324	1.154059
C197	C	0.981787	0.095325	0.596020
C198	C	1.231787	0.345325	0.846020
C199	C	1.481787	0.595325	1.096020
C200	C	1.731787	0.845325	1.346020
C201	C	0.981789	0.095323	0.700087
C202	C	1.231789	0.345323	0.950087
C203	C	1.481789	0.595323	1.200087
C204	C	1.731789	0.845323	1.450087
C205	C	0.981776	0.095325	0.299985
C206	C	1.231776	0.345325	0.549985
C207	C	1.481776	0.595325	0.799985
C208	C	1.731776	0.845325	1.049985
H209	H	0.384719	0.209567	0.000025
H210	H	0.634719	0.459567	0.250025
H211	H	0.884719	0.709567	0.500025
H212	H	1.134719	0.959567	0.750025
C213	C	0.862720	0.195034	0.399245
C214	C	1.112720	0.445034	0.649245
C215	C	1.362720	0.695034	0.899245
C216	C	1.612720	0.945034	1.149245
N217	N	0.815774	0.234395	0.359479
N218	N	1.065774	0.484395	0.609479
N219	N	1.315774	0.734395	0.859479
N220	N	1.565774	0.984395	1.109479
C221	C	0.412036	-0.039595	0.000060
C222	C	0.662036	0.210405	0.250060
C223	C	0.912036	0.460405	0.500060
C224	C	1.162036	0.710405	0.750060
N225	N	0.384517	-0.092827	0.000064
N226	N	0.634517	0.157173	0.250064
N227	N	0.884517	0.407173	0.500064
N228	N	1.134517	0.657173	0.750064
C229	C	0.820099	-0.532707	0.000005
C230	C	1.070099	-0.282707	0.250005
C231	C	1.320099	-0.032707	0.500005
C232	C	1.570099	0.217293	0.750005
N233	N	0.757846	-0.495630	-0.000002
N234	N	1.007846	-0.245630	0.249998
N235	N	1.257846	0.004370	0.499998
N236	N	1.507846	0.254370	0.749998
H237	H	0.578851	-0.018920	0.000059
H238	H	0.828851	0.231080	0.250059
H239	H	1.078851	0.481080	0.500059
H240	H	1.328851	0.731080	0.750059
H241	H	1.084662	0.009214	0.412988
H242	H	1.334662	0.259214	0.662988
H243	H	1.584662	0.509214	0.912988
H244	H	1.834662	0.759214	1.162988
H245	H	0.878902	0.181434	0.587096
H246	H	1.128902	0.431434	0.837096
H247	H	1.378902	0.681434	1.087096
H248	H	1.628902	0.931434	1.337096
H249	H	1.121986	-0.263848	0.000067
H250	H	1.371986	-0.013848	0.250067
H251	H	1.621986	0.236152	0.500067
H252	H	1.871986	0.486152	0.750067
C253	C	0.551518	0.230251	0.000017
C254	C	0.801518	0.480251	0.250017
C255	C	1.051518	0.730251	0.500017
C256	C	1.301518	0.980251	0.750017
N257	N	0.579026	0.283487	0.000016
N258	N	0.829026	0.533487	0.250016
N259	N	1.079026	0.783487	0.500016
N260	N	1.329026	1.033487	0.750016
H261	H	1.124306	-0.131733	0.000091
H262	H	1.374306	0.118267	0.250091
H263	H	1.624306	0.368267	0.500091
H264	H	1.874306	0.618267	0.750091
C265	C	0.827890	-0.088673	0.000041
C266	C	1.077890	0.161327	0.250041
C267	C	1.327890	0.411327	0.500041
C268	C	1.577890	0.661327	0.750041
N269	N	0.765637	-0.051595	0.000037
N270	N	1.015637	0.198405	0.250037
N271	N	1.265637	0.448405	0.500037
N272	N	1.515637	0.698405	0.750037
C273	C	0.817415	-0.685637	-0.000010
C274	C	1.067415	-0.435637	0.249990
C275	C	1.317415	-0.185637	0.499990
C276	C	1.567415	0.064363	0.749990
N277	N	0.754107	-0.708898	-0.000020
N278	N	1.004107	-0.458898	0.249980
N279	N	1.254107	-0.208898	0.499980
N280	N	1.504107	0.041102	0.749980
C281	C	1.138349	-0.567740	0.000038
C282	C	1.388349	-0.317740	0.250038
C283	C	1.638349	-0.067740	0.500038
C284	C	1.888349	0.182260	0.750038
N285	N	1.201662	-0.544486	0.000042
N286	N	1.451662	-0.294486	0.250042
N287	N	1.701662	-0.044486	0.500042
N288	N	1.951662	0.205514	0.750042
C289	C	1.100864	-0.004358	0.600822
C290	C	1.350864	0.245642	0.850822
C291	C	1.600864	0.495642	1.100822
C292	C	1.850864	0.745642	1.350822
N293	N	1.147845	-0.043693	0.640582
N294	N	1.397845	0.206307	0.890582
N295	N	1.647845	0.456307	1.140582
N296	N	1.897845	0.706307	1.390582
C297	C	0.825213	-0.241608	0.000043
C298	C	1.075213	0.008392	0.250043
C299	C	1.325213	0.258392	0.500043
C300	C	1.575213	0.508392	0.750043
N301	N	0.761905	-0.264869	0.000043
N302	N	1.011905	-0.014869	0.250043
N303	N	1.261905	0.235131	0.500043
N304	N	1.511905	0.485131	0.750043
H305	H	1.114193	-0.707878	0.000012
H306	H	1.364193	-0.457878	0.250012
H307	H	1.614193	-0.207878	0.500012
H308	H	1.864193	0.042122	0.750012
