data_functionalizedCrystal
_audit_creation_method	'MofGen! by Chris Wilmer'
_symmetry_space_group_name_H-M	'P1'
_symmetry_Int_Tables_number	1
_symmetry_cell_setting	triclinic
loop_
_symmetry_equiv_pos_as_xyz
  x,y,z
_cell_length_a	19.121241
_cell_length_b	29.839131
_cell_length_c	19.120915
_cell_angle_alpha	92.398903
_cell_angle_beta	89.877787
_cell_angle_gamma	92.469032
loop_
_atom_site_label
_atom_site_type_symbol
_atom_site_fract_x
_atom_site_fract_y
_atom_site_fract_z
Zn1	Zn	1.054809	-0.162191	-0.442143
Zn2	Zn	1.304809	0.087809	-0.192143
Zn3	Zn	1.554809	0.337809	0.057857
Zn4	Zn	1.804809	0.587809	0.307857
Zn5	Zn	1.059714	-0.233989	-0.324885
Zn6	Zn	1.309714	0.016011	-0.074885
Zn7	Zn	1.559714	0.266011	0.175115
Zn8	Zn	1.809714	0.516011	0.425115
Zn9	Zn	0.942580	-0.161928	-0.319913
Zn10	Zn	1.192580	0.088072	-0.069913
Zn11	Zn	1.442580	0.338072	0.180087
Zn12	Zn	1.692580	0.588072	0.430087
Zn13	Zn	0.937517	-0.240351	-0.437069
Zn14	Zn	1.187517	0.009649	-0.187069
Zn15	Zn	1.437517	0.259649	0.062931
Zn16	Zn	1.687517	0.509649	0.312931
O17	O	0.998655	-0.199615	-0.381003
O18	O	1.248655	0.050385	-0.131003
O19	O	1.498655	0.300385	0.118997
O20	O	1.748655	0.550385	0.368997
O21	O	1.153567	-0.169163	-0.430793
O22	O	1.403567	0.080837	-0.180793
O23	O	1.653567	0.330837	0.069207
O24	O	1.903567	0.580837	0.319207
O25	O	1.048348	-0.221658	-0.226122
O26	O	1.298348	0.028342	0.023878
O27	O	1.548348	0.278342	0.273878
O28	O	1.798348	0.528342	0.523878
O29	O	0.957533	-0.099095	-0.336170
O30	O	1.207533	0.150905	-0.086170
O31	O	1.457533	0.400905	0.163830
O32	O	1.707533	0.650905	0.413830
O33	O	1.157171	-0.221913	-0.344643
O34	O	1.407171	0.028087	-0.094643
O35	O	1.657171	0.278087	0.155357
O36	O	1.907171	0.528087	0.405357
O37	O	1.039987	-0.099289	-0.425972
O38	O	1.289987	0.150711	-0.175972
O39	O	1.539987	0.400711	0.074028
O40	O	1.789987	0.650711	0.324028
O41	O	0.962290	-0.168715	-0.222470
O42	O	1.212290	0.081285	0.027530
O43	O	1.462290	0.331285	0.277530
O44	O	1.712290	0.581285	0.527530
O45	O	0.843800	-0.174883	-0.331250
O46	O	1.093800	0.075117	-0.081250
O47	O	1.343800	0.325117	0.168750
O48	O	1.593800	0.575117	0.418750
O49	O	0.948904	-0.232755	-0.535846
O50	O	1.198904	0.017245	-0.285846
O51	O	1.448904	0.267245	-0.035846
O52	O	1.698904	0.517245	0.214154
O53	O	0.840080	-0.232500	-0.417324
O54	O	1.090080	0.017500	-0.167324
O55	O	1.340080	0.267500	0.082676
O56	O	1.590080	0.517500	0.332676
O57	O	1.035078	-0.175331	-0.539574
O58	O	1.285078	0.074669	-0.289574
O59	O	1.535078	0.324669	-0.039574
O60	O	1.785078	0.574669	0.210426
O61	O	1.043438	-0.297701	-0.339723
O62	O	1.293438	-0.047701	-0.089723
O63	O	1.543438	0.202299	0.160277
O64	O	1.793438	0.452299	0.410277
O65	O	0.953660	-0.302374	-0.422145
O66	O	1.203660	-0.052374	-0.172145
O67	O	1.453660	0.197626	0.077855
O68	O	1.703660	0.447626	0.327855
C69	C	0.816502	-0.204354	-0.373198
C70	C	1.066502	0.045646	-0.123198
C71	C	1.316502	0.295646	0.126802
C72	C	1.566502	0.545646	0.376802
C73	C	0.738575	-0.206392	-0.369875
C74	C	0.988575	0.043608	-0.119875
C75	C	1.238575	0.293608	0.130125
C76	C	1.488575	0.543608	0.380125
C77	C	0.700087	-0.179933	-0.413236
C78	C	0.950087	0.070067	-0.163236
C79	C	1.200087	0.320067	0.086764
C80	C	1.450087	0.570067	0.336764
C81	C	0.626867	-0.181847	-0.410108
C82	C	0.876867	0.068153	-0.160108
C83	C	1.126867	0.318153	0.089892
C84	C	1.376867	0.568153	0.339892
C85	C	0.592137	-0.210221	-0.363623
C86	C	0.842137	0.039779	-0.113623
C87	C	1.092137	0.289779	0.136377
C88	C	1.342137	0.539779	0.386377
C89	C	0.630631	-0.236681	-0.320257
C90	C	0.880631	0.013319	-0.070257
C91	C	1.130631	0.263319	0.179743
C92	C	1.380631	0.513319	0.429743
C93	C	0.703849	-0.234765	-0.323382
C94	C	0.953849	0.015235	-0.073382
C95	C	1.203849	0.265235	0.176618
C96	C	1.453849	0.515235	0.426618
C97	C	0.371157	-0.217375	-0.351937
C98	C	0.621157	0.032625	-0.101937
C99	C	0.871157	0.282625	0.148063
C100	C	1.121157	0.532625	0.398063
C101	C	0.297933	-0.219290	-0.348817
C102	C	0.547933	0.030710	-0.098817
C103	C	0.797933	0.280710	0.151183
C104	C	1.047933	0.530710	0.401183
C105	C	0.294175	-0.164454	-0.438668
C106	C	0.544175	0.085546	-0.188668
C107	C	0.794175	0.335546	0.061332
C108	C	1.044175	0.585546	0.311332
C109	C	0.367395	-0.162543	-0.441791
C110	C	0.617395	0.087457	-0.191791
C111	C	0.867395	0.337457	0.058209
C112	C	1.117395	0.587457	0.308209
C113	C	0.405882	-0.189001	-0.398423
C114	C	0.655882	0.060999	-0.148423
C115	C	0.905882	0.310999	0.101577
C116	C	1.155882	0.560999	0.351577
C117	C	0.517294	-0.212178	-0.360426
C118	C	0.767294	0.037822	-0.110426
C119	C	1.017294	0.287822	0.139574
C120	C	1.267294	0.537822	0.389574
C121	C	0.480724	-0.187041	-0.401617
C122	C	0.730724	0.062959	-0.151617
C123	C	0.980724	0.312959	0.098383
C124	C	1.230724	0.562959	0.348383
C125	C	0.998550	-0.316339	-0.380939
C126	C	1.248550	-0.066339	-0.130939
C127	C	1.498550	0.183661	0.119061
C128	C	1.748550	0.433661	0.369061
C129	C	0.998569	-0.366272	-0.380938
C130	C	1.248569	-0.116272	-0.130938
C131	C	1.498569	0.133728	0.119062
C132	C	1.748569	0.383728	0.369062
C133	C	1.041576	-0.675983	-0.427826
C134	C	1.291576	-0.425983	-0.177826
C135	C	1.541576	-0.175983	0.072174
C136	C	1.791576	0.074017	0.322174
C137	C	1.041650	-0.863655	-0.427871
C138	C	1.291650	-0.613655	-0.177871
C139	C	1.541650	-0.363655	0.072129
C140	C	1.791650	-0.113655	0.322129
O141	O	1.078114	-0.887979	-0.467689
O142	O	1.328114	-0.637979	-0.217689
O143	O	1.578114	-0.387979	0.032311
O144	O	1.828114	-0.137979	0.282311
N145	N	0.998771	-0.887056	-0.381086
N146	N	1.248771	-0.637056	-0.131086
N147	N	1.498771	-0.387056	0.118914
N148	N	1.748771	-0.137056	0.368914
C149	C	0.955866	-0.863536	-0.334288
C150	C	1.205866	-0.613536	-0.084288
C151	C	1.455866	-0.363536	0.165712
C152	C	1.705866	-0.113536	0.415712
O153	O	0.919390	-0.887746	-0.294500
O154	O	1.169390	-0.637746	-0.044500
O155	O	1.419390	-0.387746	0.205500
O156	O	1.669390	-0.137746	0.455500
C157	C	0.955788	-0.675865	-0.334247
C158	C	1.205788	-0.425865	-0.084247
C159	C	1.455788	-0.175865	0.165753
C160	C	1.705788	0.074135	0.415753
C161	C	0.998676	-0.652466	-0.381031
C162	C	1.248676	-0.402466	-0.131031
C163	C	1.498676	-0.152466	0.118969
C164	C	1.748676	0.097534	0.368969
C165	C	1.084460	-0.652584	-0.474607
C166	C	1.334460	-0.402584	-0.224607
C167	C	1.584460	-0.152584	0.025393
C168	C	1.834460	0.097416	0.275393
C169	C	1.084444	-0.605669	-0.474592
C170	C	1.334444	-0.355669	-0.224592
C171	C	1.584444	-0.105669	0.025408
C172	C	1.834444	0.144331	0.275408
C173	C	1.041544	-0.582152	-0.427797
C174	C	1.291544	-0.332152	-0.177797
C175	C	1.541544	-0.082152	0.072203
C176	C	1.791544	0.167848	0.322203
C177	C	0.998660	-0.605551	-0.381016
C178	C	1.248660	-0.355551	-0.131016
C179	C	1.498660	-0.105551	0.118984
C180	C	1.748660	0.144449	0.368984
C181	C	0.912880	-0.652346	-0.287453
C182	C	1.162880	-0.402346	-0.037453
C183	C	1.412880	-0.152346	0.212547
C184	C	1.662880	0.097654	0.462547
C185	C	0.912863	-0.605425	-0.287448
C186	C	1.162863	-0.355425	-0.037448
C187	C	1.412863	-0.105425	0.212552
C188	C	1.662863	0.144575	0.462552
C189	C	0.955751	-0.582027	-0.334232
C190	C	1.205751	-0.332027	-0.084232
C191	C	1.455751	-0.082027	0.165768
C192	C	1.705751	0.167973	0.415768
C193	C	0.955744	-0.535119	-0.334207
C194	C	1.205744	-0.285119	-0.084207
C195	C	1.455744	-0.035119	0.165793
C196	C	1.705744	0.214881	0.415793
N197	N	0.998624	-0.511718	-0.380993
N198	N	1.248624	-0.261718	-0.130993
N199	N	1.498624	-0.011718	0.119007
N200	N	1.748624	0.238282	0.369007
C201	C	1.041524	-0.535235	-0.427788
C202	C	1.291524	-0.285235	-0.177788
C203	C	1.541524	-0.035235	0.072212
C204	C	1.791524	0.214765	0.322212
C205	C	0.955910	-0.962066	-0.334312
C206	C	1.205910	-0.712066	-0.084312
C207	C	1.455910	-0.462066	0.165688
C208	C	1.705910	-0.212066	0.415688
C209	C	0.955931	-1.008984	-0.334322
C210	C	1.205931	-0.758984	-0.084322
C211	C	1.455931	-0.508984	0.165678
C212	C	1.705931	-0.258984	0.415678
C213	C	1.041714	-1.009100	-0.427906
C214	C	1.291714	-0.759100	-0.177906
C215	C	1.541714	-0.509100	0.072094
C216	C	1.791714	-0.259100	0.322094
C217	C	1.041697	-0.962181	-0.427893
C218	C	1.291697	-0.712181	-0.177893
C219	C	1.541697	-0.462181	0.072107
C220	C	1.791697	-0.212181	0.322107
C221	C	0.998790	-0.938665	-0.381098
C222	C	1.248790	-0.688665	-0.131098
C223	C	1.498790	-0.438665	0.118902
C224	C	1.748790	-0.188665	0.368902
C225	C	1.041487	-0.436709	-0.427754
C226	C	1.291487	-0.186709	-0.177754
C227	C	1.541487	0.063291	0.072246
C228	C	1.791487	0.313291	0.322246
C229	C	1.041469	-0.389789	-0.427733
C230	C	1.291469	-0.139789	-0.177733
C231	C	1.541469	0.110211	0.072267
C232	C	1.791469	0.360211	0.322267
C233	C	0.955683	-0.389678	-0.334152
C234	C	1.205683	-0.139678	-0.084152
C235	C	1.455683	0.110322	0.165848
C236	C	1.705683	0.360322	0.415848
C237	C	0.955703	-0.436593	-0.334169
C238	C	1.205703	-0.186593	-0.084169
C239	C	1.455703	0.063407	0.165831
C240	C	1.705703	0.313407	0.415831
C241	C	0.998607	-0.460108	-0.380976
C242	C	1.248607	-0.210108	-0.130976
C243	C	1.498607	0.039892	0.119024
C244	C	1.748607	0.289892	0.369024
O245	O	0.919294	-0.510767	-0.294416
O246	O	1.169294	-0.260767	-0.044416
O247	O	1.419294	-0.010767	0.205584
O248	O	1.669294	0.239233	0.455584
O249	O	1.077982	-0.511017	-0.467581
O250	O	1.327982	-0.261017	-0.217581
O251	O	1.577982	-0.011017	0.032419
O252	O	1.827982	0.238983	0.282419
C253	C	1.041592	-0.722898	-0.427840
C254	C	1.291592	-0.472898	-0.177840
C255	C	1.541592	-0.222898	0.072160
C256	C	1.791592	0.027102	0.322160
C257	C	0.998708	-0.746297	-0.381060
C258	C	1.248708	-0.496297	-0.131060
C259	C	1.498708	-0.246297	0.118940
C260	C	1.748708	0.003703	0.368940
C261	C	0.955808	-0.722780	-0.334264
C262	C	1.205808	-0.472780	-0.084264
C263	C	1.455808	-0.222780	0.165736
C264	C	1.705808	0.027220	0.415736
C265	C	0.998729	-0.793215	-0.381069
C266	C	1.248729	-0.543215	-0.131069
C267	C	1.498729	-0.293215	0.118931
C268	C	1.748729	-0.043215	0.368931
C269	C	1.041629	-0.816731	-0.427864
C270	C	1.291629	-0.566731	-0.177864
C271	C	1.541629	-0.316731	0.072136
C272	C	1.791629	-0.066731	0.322136
C273	C	1.084508	-0.793331	-0.474650
C274	C	1.334508	-0.543331	-0.224650
C275	C	1.584508	-0.293331	0.025350
C276	C	1.834508	-0.043331	0.275350
C277	C	1.084492	-0.746415	-0.474636
C278	C	1.334492	-0.496415	-0.224636
C279	C	1.584492	-0.246415	0.025364
C280	C	1.834492	0.003585	0.275364
C281	C	0.912929	-0.746181	-0.287479
C282	C	1.162929	-0.496181	-0.037479
C283	C	1.412929	-0.246181	0.212521
C284	C	1.662929	0.003819	0.462521
C285	C	0.912949	-0.793096	-0.287496
C286	C	1.162949	-0.543096	-0.037496
C287	C	1.412949	-0.293096	0.212504
C288	C	1.662949	-0.043096	0.462504
C289	C	0.955849	-0.816613	-0.334292
C290	C	1.205849	-0.566613	-0.084292
C291	C	1.455849	-0.316613	0.165708
C292	C	1.705849	-0.066613	0.415708
C293	C	1.181519	-0.194858	-0.388839
C294	C	1.431519	0.055142	-0.138839
C295	C	1.681519	0.305142	0.111161
C296	C	1.931519	0.555142	0.361161
C297	C	1.259445	-0.192831	-0.392178
C298	C	1.509445	0.057169	-0.142178
C299	C	1.759445	0.307169	0.107822
C300	C	2.009445	0.557169	0.357822
C301	C	0.990879	-0.204782	-0.563858
C302	C	1.240879	0.045218	-0.313858
C303	C	1.490879	0.295218	-0.063858
C304	C	1.740879	0.545218	0.186142
C305	C	0.987565	-0.206984	-0.641780
C306	C	1.237565	0.043016	-0.391780
C307	C	1.487565	0.293016	-0.141780
C308	C	1.737565	0.543016	0.108220
C309	C	0.998778	-0.082435	-0.381083
C310	C	1.248778	0.167565	-0.131083
C311	C	1.498778	0.417565	0.118917
C312	C	1.748778	0.667565	0.368917
C313	C	0.998831	-0.032500	-0.381117
C314	C	1.248831	0.217500	-0.131117
C315	C	1.498831	0.467500	0.118883
C316	C	1.748831	0.717500	0.368883
C317	C	0.966580	-0.220962	-1.082394
C318	C	1.216580	0.029038	-0.832394
C319	C	1.466580	0.279038	-0.582394
C320	C	1.716580	0.529038	-0.332394
C321	C	0.969691	-0.218886	-1.009178
C322	C	1.219691	0.031114	-0.759178
C323	C	1.469691	0.281114	-0.509178
C324	C	1.719691	0.531114	-0.259178
C325	C	1.016116	-0.187954	-0.974514
C326	C	1.266116	0.062046	-0.724514
C327	C	1.516116	0.312046	-0.474514
C328	C	1.766116	0.562046	-0.224514
C329	C	1.059428	-0.159092	-1.013071
C330	C	1.309428	0.090908	-0.763071
C331	C	1.559428	0.340908	-0.513071
C332	C	1.809428	0.590908	-0.263071
C333	C	1.056313	-0.161165	-1.086285
C334	C	1.306313	0.088835	-0.836285
C335	C	1.556313	0.338835	-0.586285
C336	C	1.806313	0.588835	-0.336285
C337	C	1.027762	-0.180195	-0.753551
C338	C	1.277762	0.069805	-0.503551
C339	C	1.527762	0.319805	-0.253551
C340	C	1.777762	0.569805	-0.003551
C341	C	1.030875	-0.178125	-0.680331
C342	C	1.280875	0.071875	-0.430331
C343	C	1.530875	0.321875	-0.180331
C344	C	1.780875	0.571875	0.069669
C345	C	0.941137	-0.237919	-0.676443
C346	C	1.191137	0.012081	-0.426443
C347	C	1.441137	0.262081	-0.176443
C348	C	1.691137	0.512081	0.073557
C349	C	0.938029	-0.239992	-0.749659
C350	C	1.188029	0.010008	-0.499659
C351	C	1.438029	0.260008	-0.249659
C352	C	1.688029	0.510008	0.000341
C353	C	0.981339	-0.211128	-0.788209
C354	C	1.231339	0.038872	-0.538209
C355	C	1.481339	0.288872	-0.288209
C356	C	1.731339	0.538872	-0.038209
C357	C	1.019298	-0.185832	-0.899676
C358	C	1.269298	0.064168	-0.649676
C359	C	1.519298	0.314168	-0.399676
C360	C	1.769298	0.564168	-0.149676
C361	C	0.978152	-0.213247	-0.863046
C362	C	1.228152	0.036753	-0.613046
C363	C	1.478152	0.286753	-0.363046
C364	C	1.728152	0.536753	-0.113046
C365	C	1.006441	-0.194435	-0.198861
C366	C	1.256441	0.055565	0.051139
C367	C	1.506441	0.305565	0.301139
C368	C	1.756441	0.555565	0.551139
C369	C	1.009890	-0.192103	-0.120945
C370	C	1.259890	0.057897	0.129055
C371	C	1.509890	0.307897	0.379055
C372	C	1.759890	0.557897	0.629055
H373	H	0.402485	-0.238919	-0.316624
H374	H	0.652485	0.011081	-0.066624
H375	H	0.902485	0.261081	0.183376
H376	H	1.152485	0.511081	0.433376
H377	H	0.595532	-0.160302	-0.445419
H378	H	0.845532	0.089698	-0.195419
H379	H	1.095532	0.339698	0.054581
H380	H	1.345532	0.589698	0.304581
F381	F	1.080291	-0.145202	-0.643441
F382	F	1.330291	0.104798	-0.393441
F383	F	1.580291	0.354798	-0.143441
F384	F	1.830291	0.604798	0.106559
F385	F	0.917171	-0.253886	-1.119279
F386	F	1.167171	-0.003886	-0.869279
F387	F	1.417171	0.246114	-0.619279
F388	F	1.667171	0.496114	-0.369279
H389	H	0.920786	-0.455645	-0.296069
H390	H	1.170786	-0.205645	-0.046069
H391	H	1.420786	0.044355	0.203931
H392	H	1.670786	0.294355	0.453931
H393	H	0.602348	-0.259782	-0.282404
H394	H	0.852348	-0.009782	-0.032404
H395	H	1.102348	0.240218	0.217596
H396	H	1.352348	0.490218	0.467596
F397	F	0.888624	-0.272918	-0.786546
F398	F	1.138624	-0.022918	-0.536546
F399	F	1.388624	0.227082	-0.286546
F400	F	1.638624	0.477082	-0.036546
F401	F	0.480325	-0.242376	-0.310955
F402	F	0.730325	0.007624	-0.060955
F403	F	0.980325	0.257624	0.189045
F404	F	1.230325	0.507624	0.439045
F405	F	1.087343	-0.937283	-0.477687
F406	F	1.337343	-0.687283	-0.227687
F407	F	1.587343	-0.437283	0.022313
F408	F	1.837343	-0.187283	0.272313
F409	F	0.895045	-0.268634	-0.635411
F410	F	1.145045	-0.018634	-0.385411
F411	F	1.395045	0.231366	-0.135411
F412	F	1.645045	0.481366	0.114589
F413	F	1.108823	-0.126162	-0.976177
F414	F	1.358823	0.123838	-0.726177
F415	F	1.608823	0.373838	-0.476177
F416	F	1.858823	0.623838	-0.226177
F417	F	1.073885	-0.149494	-0.794570
F418	F	1.323885	0.100506	-0.544570
F419	F	1.573885	0.350506	-0.294570
F420	F	1.823885	0.600506	-0.044570
F421	F	0.404352	-0.132346	-0.491271
F422	F	0.654352	0.117654	-0.241271
F423	F	0.904352	0.367654	0.008729
F424	F	1.154352	0.617654	0.258729
H425	H	1.091578	-0.137664	-1.117673
H426	H	1.341578	0.112336	-0.867673
H427	H	1.591578	0.362336	-0.617673
H428	H	1.841578	0.612336	-0.367673
H429	H	0.262830	-0.142913	-0.473975
H430	H	0.512830	0.107087	-0.223975
H431	H	0.762830	0.357087	0.026025
H432	H	1.012830	0.607087	0.276025
F433	F	1.087372	-1.034136	-0.477709
F434	F	1.337372	-0.784136	-0.227709
F435	F	1.587372	-0.534136	0.022291
F436	F	1.837372	-0.284136	0.272291
H437	H	0.877921	-0.586281	-0.249343
H438	H	1.127921	-0.336281	0.000657
H439	H	1.377921	-0.086281	0.250657
H440	H	1.627921	0.163719	0.500657
F441	F	0.910237	-0.937045	-0.284506
F442	F	1.160237	-0.687045	-0.034506
F443	F	1.410237	-0.437045	0.215494
F444	F	1.660237	-0.187045	0.465494
H445	H	1.076396	-0.370739	-0.465830
H446	H	1.326396	-0.120739	-0.215830
H447	H	1.576396	0.129261	0.034170
H448	H	1.826396	0.379261	0.284170
F449	F	1.087151	-0.461728	-0.477570
F450	F	1.337151	-0.211728	-0.227570
F451	F	1.587151	0.038272	0.022430
F452	F	1.837151	0.288272	0.272430
F453	F	1.068691	-0.152903	-0.862777
F454	F	1.318691	0.097097	-0.612777
F455	F	1.568691	0.347097	-0.362777
F456	F	1.818691	0.597097	-0.112777
H457	H	0.934431	-0.242391	-0.977793
H458	H	1.184431	0.007609	-0.727793
H459	H	1.434431	0.257609	-0.477793
H460	H	1.684431	0.507609	-0.227793
H461	H	1.119364	-0.586621	-0.512690
H462	H	1.369364	-0.336621	-0.262690
H463	H	1.619364	-0.086621	-0.012690
H464	H	1.869364	0.163379	0.237310
H465	H	0.940350	-0.238430	-0.891272
H466	H	1.190350	0.011570	-0.641272
H467	H	1.440350	0.261570	-0.391272
H468	H	1.690350	0.511570	-0.141272
H469	H	0.728359	-0.156829	-0.451092
H470	H	0.978359	0.093171	-0.201092
H471	H	1.228359	0.343171	0.048908
H472	H	1.478359	0.593171	0.298908
H473	H	0.877993	-0.727037	-0.249373
H474	H	1.127993	-0.477037	0.000627
H475	H	1.377993	-0.227037	0.250627
H476	H	1.627993	0.022963	0.500627
F477	F	0.260972	-0.249500	-0.299351
F478	F	0.510972	0.000500	-0.049351
F479	F	0.760972	0.250500	0.200649
F480	F	1.010972	0.500500	0.450649
H481	H	0.509004	-0.163937	-0.439462
H482	H	0.759004	0.086063	-0.189462
H483	H	1.009004	0.336063	0.060538
H484	H	1.259004	0.586063	0.310538
F485	F	0.744812	-0.262926	-0.277231
F486	F	0.994812	-0.012926	-0.027231
F487	F	1.244812	0.237074	0.222769
F488	F	1.494812	0.487074	0.472769
H489	H	1.119394	-0.671727	-0.512717
H490	H	1.369394	-0.421727	-0.262717
H491	H	1.619394	-0.171727	-0.012717
H492	H	1.869394	0.078273	0.237283
F493	F	0.910293	-1.033881	-0.284519
F494	F	1.160293	-0.783881	-0.034519
F495	F	1.410293	-0.533881	0.215481
F496	F	1.660293	-0.283881	0.465481
H497	H	0.877956	-0.671389	-0.249357
H498	H	1.127956	-0.421389	0.000643
H499	H	1.377956	-0.171389	0.250643
H500	H	1.627956	0.078611	0.500643
F501	F	0.910029	-0.364641	-0.284351
F502	F	1.160029	-0.114641	-0.034351
F503	F	1.410029	0.135359	0.215649
F504	F	1.660029	0.385359	0.465649
H505	H	1.119415	-0.727367	-0.512732
H506	H	1.369415	-0.477367	-0.262732
H507	H	1.619415	-0.227367	-0.012732
H508	H	1.869415	0.022633	0.237268
H509	H	0.878026	-0.812143	-0.249393
H510	H	1.128026	-0.562143	0.000607
H511	H	1.378026	-0.312143	0.250607
H512	H	1.628026	-0.062143	0.500607
F513	F	1.130168	-0.818367	-0.524451
F514	F	1.380168	-0.568367	-0.274451
F515	F	1.630168	-0.318367	-0.024451
F516	F	1.880168	-0.068367	0.225549
