data_functionalizedCrystal
_audit_creation_method	'MofGen! by Chris Wilmer'
_symmetry_space_group_name_H-M	'P1'
_symmetry_Int_Tables_number	1
_symmetry_cell_setting	triclinic
loop_
_symmetry_equiv_pos_as_xyz
  x,y,z
_cell_length_a	10.654559
_cell_length_b	16.053789
_cell_length_c	16.992695
_cell_angle_alpha	87.278479
_cell_angle_beta	87.578423
_cell_angle_gamma	87.135112
loop_
_atom_site_label
_atom_site_type_symbol
_atom_site_fract_x
_atom_site_fract_y
_atom_site_fract_z
O1	O	-1.682380	0.069414	-0.113199
O2	O	-1.317810	0.069419	-0.123690
O3	O	-1.498633	0.069410	-0.004294
O4	O	-1.501557	0.069423	-0.232596
O5	O	-1.488573	-0.069450	0.001662
O6	O	-1.307750	-0.069440	-0.117735
O7	O	-1.672320	-0.069446	-0.107244
Zn8	Zn	-1.488438	-0.091490	-0.111544
Zn9	Zn	-1.501692	0.091464	-0.119390
O10	O	-1.491497	-0.069436	-0.226640
C11	C	-1.265916	-0.000010	-0.119941
C12	C	-1.126274	-0.000008	-0.117632
N13	N	-1.479401	-0.216351	-0.106188
C14	C	-0.934938	0.075685	-0.117632
C15	C	-1.066148	0.075686	-0.119795
C16	C	-1.055183	-0.075707	-0.113298
C17	C	-0.923977	-0.075706	-0.111130
C18	C	-0.874819	0.151383	-0.119804
C19	C	-0.945901	0.227083	-0.124136
C20	C	-1.077110	0.227083	-0.126299
C21	C	-1.137238	0.151384	-0.124129
C22	C	-1.557221	-0.260040	-0.152343
C23	C	-1.550916	-0.347447	-0.148591
C24	C	-1.466784	-0.391164	-0.098690
C25	C	-1.388961	-0.347469	-0.052530
C26	C	-1.395273	-0.260063	-0.056278
C27	C	-1.439228	-0.652575	-0.082327
C28	C	-1.432919	-0.739987	-0.078585
C29	C	-1.594876	-0.739959	-0.174646
C30	C	-1.601176	-0.652552	-0.178393
C31	C	-1.523358	-0.608864	-0.132230
N32	N	-1.460334	-0.480508	-0.094856
N33	N	-1.529814	-0.519522	-0.136060
C34	C	-0.724215	-0.000014	-0.110993
C35	C	-0.863858	-0.000008	-0.113301
C36	C	-1.489843	-0.000020	0.027917
C37	C	-1.478624	-0.000019	0.115022
N38	N	-1.510739	0.216324	-0.124739
C39	C	-1.500287	-0.000005	-0.258851
C40	C	-1.511507	0.000000	-0.345957
C41	C	-1.586874	-0.000022	0.164672
C42	C	-1.576325	-0.000014	0.246516
C43	C	-1.457525	-0.000009	0.278709
C44	C	-1.349267	-0.000004	0.229053
C45	C	-1.359817	-0.000006	0.147210
C46	C	-1.413799	0.000003	0.522545
C47	C	-1.403257	0.000003	0.604394
C48	C	-1.630317	-0.000005	0.621851
C49	C	-1.640856	-0.000012	0.540007
C50	C	-1.532598	-0.000003	0.490358
N51	N	-1.446740	-0.000003	0.362366
N52	N	-1.543385	-0.000003	0.406701
H53	H	-0.896936	0.288714	-0.125897
H54	H	-0.767982	0.151392	-0.118045
H55	H	-1.134982	0.288721	-0.129819
H56	H	-1.244079	0.151391	-0.125886
H57	H	-1.375863	-0.617015	-0.044738
H58	H	-1.658232	-0.775538	-0.212228
H59	H	-1.625723	-0.224452	-0.192983
C60	C	-1.801819	-0.000041	0.255552
C61	C	-1.695318	-0.000026	0.301092
H62	H	-1.875281	-0.000054	0.289247
H63	H	-1.804729	0.048379	0.221190
H64	H	-1.797681	-0.048469	0.225345
H65	H	-1.699450	0.048405	0.331295
H66	H	-1.692408	-0.048451	0.335467
H67	H	-1.669689	-0.616963	-0.219026
H68	H	-1.364402	-0.775579	-0.037949
C69	C	-1.864236	-0.000019	0.565487
C70	C	-1.771446	-0.000019	0.504623
H71	H	-1.944856	-0.000022	0.543641
H72	H	-1.851886	-0.048437	0.599126
H73	H	-1.858907	0.048411	0.594964
H74	H	-1.776769	-0.048452	0.475150
H75	H	-1.783801	0.048404	0.470971
H76	H	-1.718454	-0.000011	0.662284
H77	H	-1.320464	-0.383070	-0.011895
H78	H	-1.271668	-0.000004	0.106785
H79	H	-1.614287	-0.383014	-0.186174
C80	C	-1.234541	-0.268864	0.039043
C81	C	-1.309725	-0.212037	-0.005547
H82	H	-1.181725	-0.239214	0.070360
H83	H	-1.286680	-0.302952	0.072313
H84	H	-1.184214	-0.302958	0.004691
H85	H	-1.360060	-0.177947	0.028805
H86	H	-1.257581	-0.177935	-0.038821
H87	H	-1.683614	-0.000031	0.138468
C88	C	-1.251448	-0.142925	-0.113745
C89	C	-1.121273	-0.158910	-0.110923
H90	H	-1.292244	-0.194294	-0.112286
H91	H	-1.280187	-0.111834	-0.069768
H92	H	-1.270194	-0.111818	-0.161106
H93	H	-1.102526	-0.190013	-0.063560
H94	H	-1.092524	-0.190015	-0.154904
H95	H	-0.866099	-0.137342	-0.107617
H96	H	-1.306509	-0.000007	0.630602
C97	C	-1.188303	-0.000008	0.513522
C98	C	-1.294801	-0.000003	0.467978
H99	H	-1.114837	-0.000019	0.479831
H100	H	-1.192415	0.048414	0.543723
H101	H	-1.185423	-0.048433	0.547891
H102	H	-1.297686	0.048426	0.433613
H103	H	-1.290688	-0.048430	0.437764
H104	H	-1.252537	0.000005	0.255270
