data_functionalizedCrystal
_audit_creation_method	'MofGen! by Chris Wilmer'
_symmetry_space_group_name_H-M	'P1'
_symmetry_Int_Tables_number	1
_symmetry_cell_setting	triclinic
loop_
_symmetry_equiv_pos_as_xyz
  x,y,z
_cell_length_a	13.897448
_cell_length_b	12.759401
_cell_length_c	12.759393
_cell_angle_alpha	89.977503
_cell_angle_beta	90.032272
_cell_angle_gamma	89.981486
loop_
_atom_site_label
_atom_site_type_symbol
_atom_site_fract_x
_atom_site_fract_y
_atom_site_fract_z
Zn1	Zn	-0.383947	-1.606245	0.594051
Zn2	Zn	0.116053	-1.106245	1.094051
Zn3	Zn	-0.545273	-1.606126	0.418366
Zn4	Zn	-0.045273	-1.106126	0.918366
Zn5	Zn	-0.383996	-1.430543	0.418381
Zn6	Zn	0.116004	-0.930543	0.918381
Zn7	Zn	-0.545204	-1.430526	0.593998
Zn8	Zn	-0.045204	-0.930526	1.093998
O9	O	-0.464605	-1.518360	0.506199
O10	O	0.035395	-1.018360	1.006199
O11	O	-0.405356	-1.753250	0.570761
O12	O	0.094644	-1.253250	1.070761
O13	O	-0.523929	-1.582793	0.271346
O14	O	-0.023929	-1.082793	0.771346
O15	O	-0.249008	-1.453907	0.441713
O16	O	0.250992	-0.953907	0.941713
O17	O	-0.523882	-1.753163	0.441686
O18	O	-0.023882	-1.253163	0.941686
O19	O	-0.248972	-1.582994	0.570777
O20	O	0.251028	-1.082994	1.070777
O21	O	-0.405440	-1.453793	0.271358
O22	O	0.094560	-0.953793	0.771358
O23	O	-0.405373	-1.283520	0.441662
O24	O	0.094627	-0.783520	0.941662
O25	O	-0.523763	-1.453878	0.741026
O26	O	-0.023763	-0.953878	1.241026
O27	O	-0.523811	-1.283507	0.570686
O28	O	-0.023811	-0.783507	1.070686
O29	O	-0.405288	-1.582977	0.741065
O30	O	0.094712	-1.082977	1.241065
O31	O	-0.680246	-1.582776	0.441635
O32	O	-0.180246	-1.082776	0.941635
O33	O	-0.680195	-1.453763	0.570671
O34	O	-0.180195	-0.953763	1.070671
C35	C	-0.464590	-1.245393	0.506171
C36	C	0.035410	-0.745393	1.006171
C37	C	-0.464607	-1.128616	0.506183
C38	C	0.035393	-0.628616	1.006183
C39	C	-0.715220	-1.518283	0.506168
C40	C	-0.215220	-1.018283	1.006168
C41	C	-0.822433	-1.518347	0.506191
C42	C	-0.322433	-1.018347	1.006191
C43	C	-0.526371	-1.073775	0.573259
C44	C	-0.026371	-0.573775	1.073259
C45	C	-0.526374	-0.964051	0.573277
C46	C	-0.026374	-0.464051	1.073277
C47	C	-0.402845	-0.964019	0.439134
C48	C	0.097155	-0.464019	0.939134
C49	C	-0.402839	-1.073741	0.439122
C50	C	0.097161	-0.573741	0.939122
C51	C	-1.018729	-1.518457	0.506256
C52	C	-0.518729	-1.018457	1.006256
C53	C	-0.909496	-1.518393	0.506223
C54	C	-0.409496	-1.018393	1.006223
C55	C	-0.213012	-1.518466	0.506252
C56	C	0.286988	-1.018466	1.006252
C57	C	-0.105798	-1.518511	0.506275
C58	C	0.394202	-1.018511	1.006275
C59	C	-0.464513	-1.518439	0.780232
C60	C	0.035487	-1.018439	1.280232
C61	C	-0.464473	-1.518472	0.897009
C62	C	0.035527	-1.018472	1.397009
C63	C	-0.464618	-0.792393	0.506221
C64	C	0.035382	-0.292393	1.006221
C65	C	-0.464616	-0.909170	0.506213
C66	C	0.035384	-0.409170	1.006213
C67	C	-0.464628	-1.518342	0.233232
C68	C	0.035372	-1.018342	0.733232
C69	C	-0.464396	-1.518512	0.116455
C70	C	0.035604	-1.018512	0.616455
C71	C	-0.402773	-1.585699	0.951893
C72	C	0.097227	-1.085699	1.451893
C73	C	-0.402732	-1.585717	1.061617
C74	C	0.097268	-1.085717	1.561617
C75	C	-0.526098	-1.451278	1.061564
C76	C	-0.026098	-0.951278	1.561564
C77	C	-0.526134	-1.451255	0.951842
C78	C	-0.026134	-0.951255	1.451842
H79	H	-0.576665	-1.118451	0.627868
H80	H	-0.076665	-0.618451	1.127868
N81	N	-0.592599	-1.378796	1.120724
N82	N	-0.092599	-0.878796	1.620724
H83	H	-0.661528	-1.395073	1.101622
H84	H	-0.161528	-0.895073	1.601622
H85	H	-0.577536	-1.303759	1.101603
H86	H	-0.077536	-0.803759	1.601603
N87	N	-0.336225	-1.132909	0.366773
N88	N	0.163775	-0.632909	0.866773
H89	H	-0.291573	-1.178464	0.409558
H90	H	0.208427	-0.678464	0.909558
H91	H	-0.297162	-1.081439	0.324296
H92	H	0.202838	-0.581439	0.824296
N93	N	-0.336192	-1.658237	1.120811
N94	N	0.163808	-1.158237	1.620811
H95	H	-0.345521	-1.648053	1.198640
H96	H	0.154479	-1.148053	1.698640
H97	H	-0.267307	-1.641917	1.101641
H98	H	0.232693	-1.141917	1.601641
H99	H	-0.352563	-1.640429	0.907252
H100	H	0.147437	-1.140429	1.407252
N101	N	-0.592677	-1.378721	0.892652
N102	N	-0.092677	-0.878721	1.392652
H103	H	-0.661595	-1.394999	0.911729
H104	H	-0.161595	-0.894999	1.411729
H105	H	-0.583261	-1.388924	0.814841
H106	H	-0.083261	-0.888924	1.314841
N107	N	-0.592995	-0.904900	0.645619
N108	N	-0.092995	-0.404900	1.145619
H109	H	-0.632123	-0.956316	0.688094
H110	H	-0.132123	-0.456316	1.188094
H111	H	-0.637585	-0.859342	0.602765
H112	H	-0.137585	-0.359342	1.102765
H113	H	-0.352557	-0.919326	0.384534
H114	H	0.147443	-0.419326	0.884534
