data_functionalizedCrystal
_audit_creation_method	'MofGen! by Chris Wilmer'
_symmetry_space_group_name_H-M	'P1'
_symmetry_Int_Tables_number	1
_symmetry_cell_setting	triclinic
loop_
_symmetry_equiv_pos_as_xyz
  x,y,z
_cell_length_a	10.723023
_cell_length_b	10.723024
_cell_length_c	15.455313
_cell_angle_alpha	92.691723
_cell_angle_beta	87.293778
_cell_angle_gamma	84.467709
loop_
_atom_site_label
_atom_site_type_symbol
_atom_site_fract_x
_atom_site_fract_y
_atom_site_fract_z
O1	O	1.662611	0.169612	-0.072120
O2	O	1.299459	0.186366	-0.072123
O3	O	1.489412	-0.003587	-0.072118
O4	O	1.472659	0.359565	-0.072125
O5	O	1.478549	0.007230	0.072144
O6	O	1.288596	0.197183	0.072139
O7	O	1.651749	0.180429	0.072142
Cu8	Cu	1.469181	0.189794	0.085313
Cu9	Cu	1.482027	0.177001	-0.085294
O10	O	1.461796	0.370382	0.072137
C11	C	1.247528	0.190555	0.000007
C12	C	1.108974	0.186908	0.000006
C13	C	1.041575	0.190886	0.074737
C14	C	0.898372	0.187116	0.074738
C15	C	1.482761	-0.044678	0.000012
C16	C	1.479114	-0.183233	0.000009
C17	C	1.585401	-0.258216	0.000009
C18	C	1.581634	-0.401419	0.000005
C19	C	1.703680	0.176239	0.000010
C20	C	1.842234	0.179886	0.000005
C21	C	1.468447	0.411473	0.000005
C22	C	1.472095	0.550027	0.000003
N23	N	1.460154	0.198791	0.205308
N24	N	1.491063	0.167994	-0.205289
C25	C	1.540881	0.118122	0.250704
C26	C	1.534067	0.124938	0.341512
C27	C	1.446530	0.212429	0.386922
C28	C	1.365794	0.293101	0.341519
C29	C	1.372604	0.286278	0.250713
C30	C	1.417137	0.241844	0.658502
C31	C	1.410336	0.248663	0.749315
C32	C	1.578608	0.080497	0.749301
C33	C	1.585415	0.073688	0.658494
C34	C	1.504675	0.154355	0.613099
N35	N	1.439565	0.219400	0.479742
N36	N	1.511634	0.147377	0.520281
H37	H	1.060660	0.180709	-0.063974
H38	H	1.679187	-0.216393	0.000015
O39	O	1.285511	0.373269	0.201750
H40	H	1.304935	0.353811	0.130979
O41	O	1.354875	-0.238615	0.000004
H42	H	1.296618	-0.202616	0.058801
H43	H	1.672624	-0.465852	0.000009
O44	O	0.821578	0.192125	0.159494
H45	H	0.721121	0.188634	0.146194
O46	O	1.105556	0.199106	0.159493
H47	H	1.174998	0.116046	0.163205
H48	H	0.900166	0.176494	-0.063978
O49	O	1.351549	-0.364648	0.000008
H50	H	1.352171	-0.309082	-0.058791
O51	O	1.635291	0.023751	0.201727
H52	H	1.690270	-0.031206	0.248554
O53	O	1.330062	0.328856	0.609550
H54	H	1.386210	0.386873	0.568160
H55	H	1.294514	0.364334	0.378497
H56	H	1.656694	0.002446	0.621523
O57	O	1.621158	0.037955	0.390479
H58	H	1.683189	-0.024010	0.343647
O59	O	1.665679	-0.006517	0.798260
H60	H	1.646235	0.012914	0.869032
H61	H	1.339050	0.319914	0.786283
