data_functionalizedCrystal
_audit_creation_method	'MofGen! by Chris Wilmer'
_symmetry_space_group_name_H-M	'P1'
_symmetry_Int_Tables_number	1
_symmetry_cell_setting	triclinic
loop_
_symmetry_equiv_pos_as_xyz
  x,y,z
_cell_length_a	17.077404
_cell_length_b	12.594516
_cell_length_c	17.077396
_cell_angle_alpha	90.023494
_cell_angle_beta	89.981638
_cell_angle_gamma	89.975299
loop_
_atom_site_label
_atom_site_type_symbol
_atom_site_fract_x
_atom_site_fract_y
_atom_site_fract_z
Zn1	Zn	1.200034	0.423800	-0.443846
Zn2	Zn	1.199932	0.601801	-0.312591
Zn3	Zn	1.068765	0.423830	-0.312597
Zn4	Zn	1.068725	0.601730	-0.443818
O5	O	1.134364	0.512790	-0.378213
O6	O	1.309867	0.447429	-0.426445
O7	O	1.182507	0.578234	-0.202745
O8	O	1.086238	0.274880	-0.330021
O9	O	1.309792	0.578205	-0.330012
O10	O	1.182680	0.274858	-0.426450
O11	O	1.086139	0.447480	-0.202749
O12	O	0.958913	0.447412	-0.329994
O13	O	1.086169	0.578085	-0.553668
O14	O	0.958883	0.578115	-0.426401
O15	O	1.182641	0.447361	-0.553689
O16	O	1.182467	0.750737	-0.329985
O17	O	1.086070	0.750686	-0.426396
C18	C	0.930416	0.512760	-0.378195
C19	C	0.843166	0.512773	-0.378206
C20	C	0.802216	0.444799	-0.428495
C21	C	0.720235	0.444805	-0.428499
C22	C	0.679207	0.512793	-0.378217
C23	C	0.720163	0.580770	-0.327923
C24	C	0.802142	0.580757	-0.327916
C25	C	0.549293	0.580794	-0.327942
C26	C	0.467308	0.580809	-0.327950
C27	C	0.467386	0.444843	-0.428525
C28	C	0.549365	0.444830	-0.428518
C29	C	0.590316	0.512808	-0.378225
C30	C	1.134274	0.789331	-0.378204
C31	C	1.134308	0.907637	-0.378226
C32	C	1.081863	0.976900	-0.430627
C33	C	1.062729	1.047760	-0.359000
C34	C	1.153484	1.047576	-0.449865
C35	C	1.115137	0.976938	-0.306561
C36	C	1.205925	0.976748	-0.397475
C37	C	1.186819	1.047575	-0.325798
C38	C	1.339108	0.512821	-0.378231
C39	C	1.426358	0.512835	-0.378239
C40	C	1.134411	0.512712	-0.582957
C41	C	1.134432	0.512678	-0.670207
C42	C	1.134441	1.235169	-0.378238
C43	C	1.134385	1.116864	-0.378246
C44	C	1.184667	0.444604	-0.711209
C45	C	1.184676	0.444569	-0.793190
C46	C	1.134454	0.512614	-0.834167
C47	C	1.084214	0.580691	-0.793159
C48	C	1.084201	0.580720	-0.711180
C49	C	1.084245	0.580627	-0.964029
C50	C	1.084259	0.580599	-1.046013
C51	C	1.184720	0.444476	-1.046039
C52	C	1.184708	0.444505	-0.964060
C53	C	1.134468	0.512584	-0.923058
C54	C	1.134362	0.512792	-0.174265
C55	C	1.134494	0.512525	-0.087016
H56	H	0.433905	0.636171	-0.287006
H57	H	0.582632	0.636147	-0.286986
Cl58	Cl	0.668584	0.666234	-0.264706
Cl59	Cl	0.853786	0.359328	-0.491714
H60	H	1.043362	0.636005	-1.079374
Cl61	Cl	1.021043	0.666299	-0.659634
Cl62	Cl	1.021085	0.666212	-0.912484
H63	H	0.582768	0.389475	-0.469467
Cl64	Cl	0.668758	0.359351	-0.491725
Cl65	Cl	0.853623	0.666215	-0.264693
H66	H	0.434040	0.389490	-0.469475
H67	H	1.169673	1.078605	-0.510442
H68	H	1.266440	0.945536	-0.413774
H69	H	1.231203	1.078412	-0.281441
Cl70	Cl	1.021074	0.666230	-0.844672
H71	H	1.225566	0.389197	-0.677852
Cl72	Cl	1.013289	0.928983	-0.498946
H73	H	1.002201	1.078975	-0.342735
H74	H	1.098878	0.946037	-0.245968
Cl75	Cl	1.247866	0.359033	-0.844732
H76	H	1.225607	0.389103	-0.930699
Cl77	Cl	1.247880	0.358892	-1.097584
