data_functionalizedCrystal
_audit_creation_method	'MofGen! by Chris Wilmer'
_symmetry_space_group_name_H-M	'P1'
_symmetry_Int_Tables_number	1
_symmetry_cell_setting	triclinic
loop_
_symmetry_equiv_pos_as_xyz
  x,y,z
_cell_length_a	16.109301
_cell_length_b	15.944493
_cell_length_c	14.586319
_cell_angle_alpha	90.002083
_cell_angle_beta	89.999213
_cell_angle_gamma	83.468262
loop_
_atom_site_label
_atom_site_type_symbol
_atom_site_fract_x
_atom_site_fract_y
_atom_site_fract_z
O1	O	1.103144	0.107969	-0.076170
O2	O	1.603144	0.607969	0.423830
O3	O	0.861083	0.121406	-0.076183
O4	O	1.361083	0.621406	0.423817
O5	O	0.988749	-0.007593	-0.076184
O6	O	1.488749	0.492407	0.423816
O7	O	0.975478	0.236968	-0.076170
O8	O	1.475478	0.736968	0.423830
O9	O	0.988740	-0.007595	0.076297
O10	O	1.488740	0.492405	0.576297
O11	O	0.861074	0.121404	0.076297
O12	O	1.361074	0.621404	0.576297
O13	O	1.103135	0.107967	0.076311
O14	O	1.603135	0.607967	0.576311
Cu15	Cu	0.982104	0.114685	0.090227
Cu16	Cu	1.482104	0.614685	0.590227
Cu17	Cu	0.982114	0.114688	-0.090100
Cu18	Cu	1.482114	0.614688	0.409900
O19	O	0.975469	0.236966	0.076311
O20	O	1.475469	0.736966	0.576311
C21	C	0.830104	0.120861	0.000055
C22	C	1.330104	0.620861	0.500055
C23	C	0.737808	0.119229	0.000050
C24	C	1.237808	0.619229	0.500050
C25	C	0.515544	0.191980	0.000065
C26	C	1.015544	0.691980	0.500065
C27	C	0.428824	0.190440	0.000070
C28	C	0.928824	0.690440	0.500070
C29	C	0.448680	0.037388	0.000057
C30	C	0.948680	0.537388	0.500057
C31	C	0.535399	0.038928	0.000058
C32	C	1.035399	0.538928	0.500058
C33	C	0.568829	0.116227	0.000057
C34	C	1.068829	0.616227	0.500057
C35	C	0.395389	0.113146	0.000062
C36	C	0.895389	0.613146	0.500062
C37	C	0.301363	0.111476	0.000068
C38	C	0.801363	0.611476	0.500068
C39	C	0.662861	0.117897	0.000053
C40	C	1.162861	0.617897	0.500053
C41	C	0.988202	-0.038888	0.000052
C42	C	1.488202	0.461112	0.500052
C43	C	0.986576	-0.132136	0.000041
C44	C	1.486576	0.367864	0.500041
C45	C	1.061722	-0.367921	0.000062
C46	C	1.561722	0.132079	0.500062
C47	C	1.021203	-0.418475	-0.075121
C48	C	1.521203	0.081525	0.424879
C49	C	0.983563	-0.302856	0.000052
C50	C	1.483563	0.197144	0.500052
C51	C	1.021176	-0.418453	0.075213
C52	C	1.521176	0.081547	0.575213
C53	C	0.980658	-0.467765	0.000066
C54	C	1.480658	0.032235	0.500066
C55	C	0.943064	-0.352182	-0.075193
C56	C	1.443064	0.147818	0.424807
C57	C	0.943049	-0.352157	0.075209
C58	C	1.443049	0.147843	0.575209
C59	C	0.902472	-0.402677	0.000008
C60	C	1.402472	0.097323	0.500008
C61	C	0.985238	-0.207857	0.000042
C62	C	1.485238	0.292143	0.500042
C63	C	0.978976	-0.562762	0.000069
C64	C	1.478976	-0.062762	0.500069
C65	C	1.134114	0.108513	0.000070
C66	C	1.634114	0.608513	0.500070
C67	C	1.226410	0.110144	0.000070
C68	C	1.726410	0.610144	0.500070
C69	C	0.976016	0.268262	0.000073
C70	C	1.476016	0.768262	0.500073
C71	C	0.977642	0.361510	0.000079
C72	C	1.477642	0.861510	0.500079
N73	N	0.982102	0.114683	0.217058
N74	N	1.482102	0.614683	0.717058
N75	N	0.982122	0.114683	-0.216931
N76	N	1.482122	0.614683	0.283069
C77	C	1.038651	0.057582	0.452065
C78	C	1.538651	0.557582	0.952065
C79	C	1.038654	0.057580	0.548046
C80	C	1.538654	0.557580	1.048046
C81	C	0.925567	0.171787	0.548056
C82	C	1.425567	0.671787	1.048056
C83	C	0.925561	0.171785	0.452076
C84	C	1.425561	0.671785	0.952076
C85	C	0.982108	0.114683	0.404083
C86	C	1.482108	0.614683	0.904083
C87	C	0.982116	0.114684	0.596044
C88	C	1.482116	0.614684	1.096044
C89	C	0.982118	0.114682	0.700111
C90	C	1.482118	0.614682	1.200111
C91	C	0.982105	0.114683	0.300009
C92	C	1.482105	0.614683	0.800009
H93	H	0.385443	0.252126	0.000078
H94	H	0.885443	0.752126	0.500078
C95	C	1.065801	-0.457601	-0.160981
C96	C	1.565801	0.042399	0.339019
N97	N	1.099399	-0.487072	-0.225646
N98	N	1.599399	0.012928	0.274354
H99	H	0.910065	-0.323186	0.138769
H100	H	1.410065	0.176814	0.638769
H101	H	0.542760	0.254921	0.000071
H102	H	1.042760	0.754921	0.500071
C103	C	0.594016	-0.044410	0.000050
C104	C	1.094016	0.455590	0.500050
N105	N	0.638166	-0.107178	0.000047
N106	N	1.138166	0.392822	0.500047
C107	C	1.065782	-0.457544	0.161082
C108	C	1.565782	0.042456	0.661082
N109	N	1.099384	-0.486984	0.225756
N110	N	1.599384	0.013016	0.725756
C111	C	0.411899	-0.047637	0.000050
C112	C	0.911899	0.452363	0.500050
N113	N	0.384196	-0.111679	0.000041
N114	N	0.884196	0.388321	0.500041
H115	H	1.084694	0.011085	0.412991
H116	H	1.584694	0.511085	0.912991
C117	C	1.152673	-0.346834	-0.000034
C118	C	1.652673	0.153166	0.499966
N119	N	1.221176	-0.330949	-0.000111
N120	N	1.721176	0.169051	0.499889
C121	C	1.100849	-0.005243	0.600821
C122	C	1.600849	0.494757	1.100821
N123	N	1.147694	-0.052567	0.640571
N124	N	1.647694	0.447433	1.140571
C125	C	0.863367	0.234594	0.600857
C126	C	1.363367	0.734594	1.100857
N127	N	0.816517	0.281902	0.640627
N128	N	1.316517	0.781902	1.140627
H129	H	0.910079	-0.323351	-0.138822
H130	H	1.410079	0.176649	0.361178
H131	H	0.835095	-0.418121	-0.000037
H132	H	1.335095	0.081879	0.499963
H133	H	0.879513	0.218284	0.413007
H134	H	1.379513	0.718284	0.913007
