data_functionalizedCrystal
_audit_creation_method	'MofGen! by Chris Wilmer'
_symmetry_space_group_name_H-M	'P1'
_symmetry_Int_Tables_number	1
_symmetry_cell_setting	triclinic
loop_
_symmetry_equiv_pos_as_xyz
  x,y,z
_cell_length_a	15.944551
_cell_length_b	17.699083
_cell_length_c	16.776229
_cell_angle_alpha	90.001114
_cell_angle_beta	89.992397
_cell_angle_gamma	96.609123
loop_
_atom_site_label
_atom_site_type_symbol
_atom_site_fract_x
_atom_site_fract_y
_atom_site_fract_z
O1	O	0.106222	-1.004260	-0.066178
O2	O	0.120042	-0.783905	-0.066204
O3	O	-0.009156	-0.900100	-0.066183
O4	O	0.235419	-0.888065	-0.066199
O5	O	-0.009164	-0.900084	0.066393
O6	O	0.120034	-0.783890	0.066372
O7	O	0.106214	-1.004244	0.066398
Zn8	Zn	0.113123	-0.894065	0.087435
Zn9	Zn	0.113133	-0.894085	-0.087241
O10	O	0.235411	-0.888050	0.066377
C11	C	0.119542	-0.755700	0.000080
C12	C	0.118057	-0.671679	0.000071
C13	C	-0.040453	-0.899593	0.000105
C14	C	-0.133696	-0.898095	0.000105
C15	C	0.106713	-1.032450	0.000112
C16	C	0.108199	-1.116471	0.000116
C17	C	-0.348393	-0.822492	0.000085
C18	C	-0.409488	-0.857592	0.065458
C19	C	-0.304416	-0.895385	0.000099
C20	C	-0.409464	-0.857624	-0.065252
C21	C	-0.469323	-0.892762	0.000089
C22	C	-0.364283	-0.930505	0.065525
C23	C	-0.364252	-0.930527	-0.065244
C24	C	-0.425329	-0.965680	0.000145
C25	C	-0.209417	-0.896894	0.000105
C26	C	-0.564321	-0.891259	0.000089
C27	C	0.266708	-0.888557	0.000087
C28	C	0.359951	-0.890055	0.000082
N29	N	0.113115	-0.894056	0.206646
C30	C	0.193893	-0.623187	0.000066
C31	C	0.192492	-0.544242	0.000076
C32	C	0.115254	-0.513789	0.000086
C33	C	0.039412	-0.562287	0.000093
C34	C	0.040814	-0.641231	0.000088
C35	C	0.033758	-0.243914	0.000113
C36	C	0.032362	-0.164964	0.000115
C37	C	0.185436	-0.146925	0.000101
C38	C	0.186837	-0.225869	0.000096
C39	C	0.110996	-0.274360	0.000108
C40	C	0.112516	-0.359962	0.000098
C41	C	0.113733	-0.428189	0.000090
N42	N	0.113134	-0.894099	-0.206452
C43	C	0.055930	-0.945523	0.248372
C44	C	0.055929	-0.945527	0.331824
C45	C	0.113118	-0.894068	0.373549
C46	C	0.170306	-0.842595	0.331816
C47	C	0.170302	-0.842588	0.248366
C48	C	0.170323	-0.842623	0.668364
C49	C	0.170324	-0.842636	0.751820
C50	C	0.055949	-0.945562	0.751822
C51	C	0.055945	-0.945555	0.668372
C52	C	0.113130	-0.894080	0.626647
C53	C	0.113129	-0.894075	0.536158
C54	C	0.113124	-0.894076	0.464036
H55	H	-0.314958	-0.761987	0.000143
O56	O	-0.048038	-0.296211	0.000125
H57	H	-0.101979	-0.261769	0.000125
O58	O	-0.005770	-1.001021	0.203383
H59	H	-0.046546	-0.969148	0.165378
O60	O	-0.043896	-0.529443	0.000111
H61	H	-0.080332	-0.548925	-0.053918
H62	H	-0.429535	-0.826754	0.120718
O63	O	-0.469363	-1.045916	0.000205
H64	H	-0.450382	-1.076334	-0.053546
H65	H	0.216896	-0.800728	0.785791
O66	O	-0.005733	-1.001077	0.796833
H67	H	0.004900	-1.060072	0.780812
H68	H	-0.344360	-0.961304	0.120853
H69	H	-0.020940	-0.680713	0.000091
H70	H	-0.030538	-0.140173	0.000124
H71	H	0.009364	-0.987435	0.365798
H72	H	0.216886	-0.800712	0.634398
O73	O	-0.005741	-1.001052	0.623367
H74	H	-0.045513	-1.036836	0.666402
O75	O	0.231995	-0.787093	0.376813
H76	H	0.222399	-0.795750	0.441852
O77	O	-0.337695	-0.971385	-0.138427
H78	H	-0.268262	-0.972621	-0.137452
H79	H	0.249732	-0.250659	0.000085
H80	H	-0.429473	-0.826790	-0.120524
H81	H	0.256789	-0.647975	0.000058
H82	H	0.254246	-0.504763	0.000072
O83	O	0.231984	-0.787082	0.203354
H84	H	0.271758	-0.751305	0.246386
O85	O	0.267242	-0.094625	0.000106
H86	H	0.253296	-0.034613	0.000123
