data_functionalizedCrystal
_audit_creation_method	'MofGen! by Chris Wilmer'
_symmetry_space_group_name_H-M	'P1'
_symmetry_Int_Tables_number	1
_symmetry_cell_setting	triclinic
loop_
_symmetry_equiv_pos_as_xyz
  x,y,z
_cell_length_a	14.908782
_cell_length_b	14.908520
_cell_length_c	12.759393
_cell_angle_alpha	86.736394
_cell_angle_beta	86.720934
_cell_angle_gamma	89.837842
loop_
_atom_site_label
_atom_site_type_symbol
_atom_site_fract_x
_atom_site_fract_y
_atom_site_fract_z
Zn1	Zn	1.353929	-0.437191	0.532248
Zn2	Zn	1.687263	-0.103857	0.865581
Zn3	Zn	2.020596	0.229476	1.198914
Zn4	Zn	1.345139	-0.587568	0.367252
Zn5	Zn	1.678472	-0.254234	0.700585
Zn6	Zn	2.011805	0.079099	1.033918
Zn7	Zn	1.203563	-0.428564	0.366123
Zn8	Zn	1.536896	-0.095230	0.699456
Zn9	Zn	1.870230	0.238103	1.032789
Zn10	Zn	1.194865	-0.578835	0.552416
Zn11	Zn	1.528198	-0.245501	0.885749
Zn12	Zn	1.861532	0.087832	1.219082
O13	O	1.274374	-0.508039	0.454509
O14	O	1.607707	-0.174706	0.787843
O15	O	1.941041	0.158628	1.121176
O16	O	1.478582	-0.464404	0.502393
O17	O	1.811915	-0.131070	0.835726
O18	O	2.145249	0.202263	1.169059
O19	O	1.326320	-0.566520	0.220086
O20	O	1.659653	-0.233186	0.553420
O21	O	1.992986	0.100147	0.886753
O22	O	1.230828	-0.303886	0.379247
O23	O	1.564162	0.029448	0.712580
O24	O	1.897495	0.362781	1.045913
O25	O	1.472124	-0.574885	0.381171
O26	O	1.805457	-0.241552	0.714504
O27	O	2.138790	0.091782	1.047837
O28	O	1.341302	-0.310224	0.501298
O29	O	1.674635	0.023109	0.834631
O30	O	2.007968	0.356443	1.167965
O31	O	1.222305	-0.449700	0.219257
O32	O	1.555638	-0.116367	0.552590
O33	O	1.888971	0.216967	0.885924
O34	O	1.076590	-0.441232	0.398803
O35	O	1.409924	-0.107899	0.732136
O36	O	1.743257	0.225435	1.065470
O37	O	1.216004	-0.560001	0.696756
O38	O	1.549337	-0.226668	1.030089
O39	O	1.882671	0.106666	1.363422
O40	O	1.070200	-0.551636	0.535671
O41	O	1.403533	-0.218302	0.869005
O42	O	1.736867	0.115031	1.202338
O43	O	1.332868	-0.455936	0.681938
O44	O	1.666201	-0.122603	1.015272
O45	O	1.999534	0.210731	1.348605
O46	O	1.317886	-0.712231	0.400727
O47	O	1.651219	-0.378898	0.734060
O48	O	1.984552	-0.045565	1.067394
O49	O	1.207480	-0.705815	0.536766
O50	O	1.540814	-0.372482	0.870099
O51	O	1.874147	-0.039149	1.203433
C52	C	1.040772	-0.494551	0.469304
C53	C	1.374105	-0.161217	0.802637
C54	C	1.707438	0.172116	1.135970
C55	C	0.940834	-0.488802	0.475659
C56	C	1.274168	-0.155469	0.808993
C57	C	1.607501	0.177865	1.142326
C58	C	0.746324	-0.592886	0.361158
C59	C	1.079657	-0.259553	0.694491
C60	C	1.412991	0.073781	1.027824
C61	C	0.652424	-0.587488	0.367126
C62	C	0.985757	-0.254154	0.700460
C63	C	1.319091	0.079179	1.033793
C64	C	0.659132	-0.472612	0.493570
C65	C	0.992465	-0.139278	0.826903
C66	C	1.325799	0.194055	1.160237
C67	C	0.753032	-0.478010	0.487601
C68	C	1.086365	-0.144677	0.820935
C69	C	1.419699	0.188656	1.154268
C70	C	0.796625	-0.538148	0.421392
C71	C	1.129958	-0.204815	0.754725
C72	C	1.463291	0.128518	1.088059
C73	C	0.890527	-0.543542	0.415418
C74	C	1.223860	-0.210208	0.748752
C75	C	1.557194	0.123125	1.082085
C76	C	0.897233	-0.428671	0.541867
C77	C	1.230566	-0.095338	0.875200
C78	C	1.563900	0.237996	1.208534
C79	C	0.803333	-0.423273	0.547836
C80	C	1.136666	-0.089939	0.881169
C81	C	1.469999	0.243394	1.214502
C82	C	1.260810	-0.741649	0.471079
C83	C	1.594143	-0.408316	0.804412
C84	C	1.927476	-0.074982	1.137745
C85	C	1.255089	-0.841593	0.478197
C86	C	1.588422	-0.508260	0.811531
C87	C	1.921756	-0.174926	1.144864
C88	C	1.359423	-1.036025	0.350017
C89	C	1.692756	-0.702692	0.683350
C90	C	2.026089	-0.369359	1.016683
C91	C	1.354050	-1.129932	0.356701
C92	C	1.687384	-0.796598	0.690035
C93	C	2.020717	-0.463265	1.023368
C94	C	1.238978	-1.123315	0.498256
C95	C	1.572311	-0.789981	0.831589
C96	C	1.905645	-0.456648	1.164922
C97	C	1.244350	-1.029408	0.491571
C98	C	1.577683	-0.696075	0.824904
C99	C	1.911017	-0.362741	1.158238
C100	C	1.304573	-0.985767	0.417448
C101	C	1.637907	-0.652433	0.750781
C102	C	1.971240	-0.319100	1.084115
C103	C	1.309940	-0.891858	0.410759
C104	C	1.643274	-0.558525	0.744092
C105	C	1.976607	-0.225192	1.077425
C106	C	1.194873	-0.885243	0.552317
C107	C	1.528206	-0.551910	0.885651
C108	C	1.861539	-0.218576	1.218984
C109	C	1.189501	-0.979150	0.559002
C110	C	1.522834	-0.645816	0.892336
C111	C	1.856167	-0.312483	1.225669
C112	C	1.508888	-0.521581	0.439658
C113	C	1.842222	-0.188248	0.772991
C114	C	2.175555	0.145086	1.106325
C115	C	1.608824	-0.527352	0.433329
C116	C	1.942158	-0.194018	0.766662
C117	C	2.275491	0.139315	1.099996
C118	C	1.274446	-0.507957	0.728532
C119	C	1.607780	-0.174623	1.061866
C120	C	1.941113	0.158710	1.395199
C121	C	1.274477	-0.507922	0.845305
C122	C	1.607810	-0.174588	1.178638
C123	C	1.941144	0.158745	1.511971
C124	C	1.288016	-0.273518	0.437897
C125	C	1.621349	0.059815	0.771230
C126	C	1.954683	0.393148	1.104563
C127	C	1.293829	-0.173580	0.430817
C128	C	1.627163	0.159754	0.764151
C129	C	1.960496	0.493087	1.097484
C130	C	1.274357	-0.508059	0.181544
C131	C	1.607691	-0.174726	0.514878
C132	C	1.941024	0.158607	0.848211
C133	C	1.274516	-0.507851	0.064744
C134	C	1.607849	-0.174518	0.398077
C135	C	1.941182	0.158815	0.731410
C136	C	1.335333	-0.453726	0.892452
C137	C	1.668666	-0.120393	1.225785
C138	C	2.001999	0.212941	1.559119
C139	C	1.335350	-0.453688	1.002173
C140	C	1.668684	-0.120355	1.335506
C141	C	2.002017	0.212979	1.668839
C142	C	1.213653	-0.562049	1.017589
C143	C	1.546987	-0.228716	1.350923
C144	C	1.880320	0.104618	1.684256
C145	C	1.213632	-0.562082	0.907871
C146	C	1.546966	-0.228748	1.241204
C147	C	1.880299	0.104585	1.574537
H148	H	0.781818	-0.641847	0.307240
H149	H	1.115152	-0.308514	0.640574
H150	H	1.448485	0.024819	0.973907
H151	H	1.408453	-1.000492	0.289656
H152	H	1.741786	-0.667158	0.622989
H153	H	2.075119	-0.333825	0.956322
H154	H	0.938198	-0.384096	0.590909
H155	H	1.271532	-0.050762	0.924243
H156	H	1.604865	0.282571	1.257576
Cl157	Cl	1.423009	-1.193111	0.271929
Cl158	Cl	1.756342	-0.859778	0.605262
Cl159	Cl	2.089676	-0.526445	0.938596
H160	H	0.611472	-0.632062	0.318079
H161	H	0.944805	-0.298729	0.651412
H162	H	1.278139	0.034605	0.984746
Cl163	Cl	1.411866	-0.385561	1.061439
Cl164	Cl	1.745199	-0.052228	1.394772
Cl165	Cl	2.078532	0.281105	1.728105
Cl166	Cl	1.385645	-0.836996	0.317573
Cl167	Cl	1.718978	-0.503662	0.650907
Cl168	Cl	2.052312	-0.170329	0.984240
Cl169	Cl	1.411820	-0.385635	0.813801
Cl170	Cl	1.745153	-0.052302	1.147135
Cl171	Cl	2.078486	0.281031	1.480468
Cl172	Cl	1.125903	-0.822055	0.637080
Cl173	Cl	1.459237	-0.488721	0.970413
Cl174	Cl	1.792570	-0.155388	1.303747
Cl175	Cl	1.113799	-1.034022	0.652183
Cl176	Cl	1.447132	-0.700689	0.985516
Cl177	Cl	1.780465	-0.367355	1.318850
H178	H	0.767826	-0.374313	0.601745
H179	H	1.101160	-0.040979	0.935078
H180	H	1.434493	0.292354	1.268411
Cl181	Cl	1.137172	-0.630137	1.096251
Cl182	Cl	1.470505	-0.296804	1.429584
Cl183	Cl	1.803838	0.036529	1.762917
Cl184	Cl	0.604313	-0.397032	0.576817
Cl185	Cl	0.937646	-0.063699	0.910150
Cl186	Cl	1.270980	0.269634	1.243484
H187	H	1.189953	-1.158864	0.558609
H188	H	1.523286	-0.825531	0.891943
H189	H	1.856620	-0.492197	1.225276
Cl190	Cl	1.137117	-0.630214	0.848595
Cl191	Cl	1.470450	-0.296880	1.181929
Cl192	Cl	1.803783	0.036453	1.515262
Cl193	Cl	0.945328	-0.619143	0.332185
Cl194	Cl	1.278662	-0.285810	0.665519
Cl195	Cl	1.611995	0.047523	0.998852
