data_functionalizedCrystal
_audit_creation_method	'MofGen! by Chris Wilmer'
_symmetry_space_group_name_H-M	'P1'
_symmetry_Int_Tables_number	1
_symmetry_cell_setting	triclinic
loop_
_symmetry_equiv_pos_as_xyz
  x,y,z
_cell_length_a	6.817900
_cell_length_b	11.168121
_cell_length_c	16.856660
_cell_angle_alpha	82.080460
_cell_angle_beta	89.301276
_cell_angle_gamma	108.508496
loop_
_atom_site_label
_atom_site_type_symbol
_atom_site_fract_x
_atom_site_fract_y
_atom_site_fract_z
V1	V	-3.912216	-0.173968	0.247301
O2	O	-3.875569	0.009118	0.242587
O3	O	-3.889850	-0.345678	0.245617
O4	O	-3.802300	-0.170959	0.355155
O5	O	-3.963725	-0.166810	0.132290
V6	V	-4.400442	-0.152108	0.233544
O7	O	-4.163159	-0.221919	0.277479
O8	O	-4.599696	-0.104157	0.203367
O9	O	-4.199601	0.019602	0.235229
O10	O	-4.554486	-0.335194	0.238259
O11	O	-4.466330	-0.159265	0.348556
O12	O	-4.287151	-0.155117	0.125691
C13	C	-3.743175	-0.387548	0.241717
C14	C	-3.805765	-0.527921	0.241058
C15	C	-3.631495	-0.164675	0.381443
C16	C	-3.623083	-0.163351	0.469614
C17	C	-4.005502	-0.596603	0.244527
C18	C	-4.070196	-0.741686	0.243846
C19	C	-4.121286	-0.161403	0.099398
C20	C	-4.108707	-0.162750	0.009570
V21	V	-3.829558	-0.172052	-0.124572
O22	O	-3.763666	-0.164893	-0.239583
O23	O	-3.942854	-0.169046	-0.016719
O24	O	-4.030393	-0.343764	-0.126258
O25	O	-3.675521	0.011035	-0.129286
V26	V	-3.317765	-0.150184	-0.138328
O27	O	-3.630301	-0.220000	-0.094394
O28	O	-3.066821	-0.102228	-0.168504
O29	O	-3.427678	-0.153194	-0.246182
O30	O	-3.266259	-0.157341	-0.023316
O31	O	-3.354405	-0.333269	-0.133613
O32	O	-3.340139	0.021525	-0.136643
C33	C	-4.009620	0.061465	0.239127
C34	C	-3.926266	0.201837	0.239791
C35	C	-4.220373	-0.385630	-0.130156
C36	C	-4.303722	-0.526002	-0.130820
C37	C	-3.598483	-0.159480	-0.272471
C38	C	-3.606892	-0.160803	-0.360642
C39	C	-3.791104	-0.168738	0.512762
C40	C	-3.782413	-0.167370	0.603892
C41	C	-3.486816	0.063391	-0.132743
C42	C	-3.424224	0.203764	-0.132081
C43	C	-4.175618	-0.594681	-0.127353
C44	C	-4.261761	-0.739763	-0.128039
H45	H	-4.128609	-0.547996	0.248004
Br46	Br	-4.592818	-0.607005	-0.136622
Br47	Br	-4.022169	-0.175070	0.665709
Br48	Br	-3.641056	-0.699770	0.234833
H49	H	-3.472797	-0.157718	0.500139
Br50	Br	-4.041600	-0.178116	0.461894
H51	H	-4.002169	-0.546070	-0.123882
H52	H	-3.682658	-0.576530	0.237590
H53	H	-4.152230	-0.798803	-0.125068
H54	H	-4.241305	-0.800726	0.246806
H55	H	-3.463053	-0.156199	0.602272
H56	H	-4.573724	-0.737211	-0.135060
