data_functionalizedCrystal
_audit_creation_method	'MofGen! by Chris Wilmer'
_symmetry_space_group_name_H-M	'P1'
_symmetry_Int_Tables_number	1
_symmetry_cell_setting	triclinic
loop_
_symmetry_equiv_pos_as_xyz
  x,y,z
_cell_length_a	13.032831
_cell_length_b	12.594516
_cell_length_c	13.032268
_cell_angle_alpha	97.152436
_cell_angle_beta	90.886977
_cell_angle_gamma	82.821304
loop_
_atom_site_label
_atom_site_type_symbol
_atom_site_fract_x
_atom_site_fract_y
_atom_site_fract_z
Zn1	Zn	1.498496	-0.718822	-0.780872
Zn2	Zn	1.998496	-0.218822	-0.280872
Zn3	Zn	1.520242	-0.877407	-0.608900
Zn4	Zn	2.020242	-0.377407	-0.108900
Zn5	Zn	1.348353	-0.674358	-0.587111
Zn6	Zn	1.848353	-0.174358	-0.087111
Zn7	Zn	1.326490	-0.871652	-0.759025
Zn8	Zn	1.826490	-0.371652	-0.259025
O9	O	1.423395	-0.785560	-0.683977
O10	O	1.923395	-0.285560	-0.183977
O11	O	1.645302	-0.760876	-0.776322
O12	O	2.145302	-0.260876	-0.276322
O13	O	1.515691	-0.834272	-0.462092
O14	O	2.015691	-0.334272	0.037908
O15	O	1.368319	-0.531320	-0.612838
O16	O	1.868319	-0.031320	-0.112838
O17	O	1.661279	-0.877387	-0.649975
O18	O	2.161279	-0.377387	-0.149975
O19	O	1.478628	-0.563987	-0.755193
O20	O	1.978628	-0.063987	-0.255193
O21	O	1.389406	-0.685093	-0.446084
O22	O	1.889406	-0.185093	0.053916
O23	O	1.201532	-0.679512	-0.591654
O24	O	1.701532	-0.179512	-0.091654
O25	O	1.331056	-0.867579	-0.905841
O26	O	1.831056	-0.367579	-0.405841
O27	O	1.185469	-0.824463	-0.717958
O28	O	1.685469	-0.324463	-0.217958
O29	O	1.457428	-0.755295	-0.921892
O30	O	1.957428	-0.255295	-0.421892
O31	O	1.494491	-1.025580	-0.628791
O32	O	1.994491	-0.525580	-0.128791
O33	O	1.352143	-1.021351	-0.739087
O34	O	1.852143	-0.521351	-0.239087
C35	C	1.156183	-0.746539	-0.650071
C36	C	1.656183	-0.246539	-0.150071
C37	C	1.041866	-0.729875	-0.635591
C38	C	1.541866	-0.229875	-0.135591
C39	C	1.423329	-1.062090	-0.683958
C40	C	1.923329	-0.562090	-0.183958
C41	C	1.423391	-1.180408	-0.683997
C42	C	1.923391	-0.680408	-0.183997
C43	C	0.982991	-0.794257	-0.691535
C44	C	1.482991	-0.294257	-0.191535
C45	C	0.864838	-0.777035	-0.676569
C46	C	1.364838	-0.277035	-0.176569
C47	C	1.345967	-1.247394	-0.743938
C48	C	1.845967	-0.747394	-0.243938
C49	C	1.332833	-1.304009	-0.646920
C50	C	1.832833	-0.804009	-0.146920
C51	C	1.436617	-1.334607	-0.781043
C52	C	1.936617	-0.834607	-0.281043
C53	C	1.410213	-1.235453	-0.586923
C54	C	1.910213	-0.735453	-0.086923
C55	C	1.514033	-1.266057	-0.721115
C56	C	2.014033	-0.766057	-0.221115
C57	C	1.500943	-1.322639	-0.624037
C58	C	2.000943	-0.822639	-0.124037
C59	C	1.691651	-0.824733	-0.718016
C60	C	2.191651	-0.324733	-0.218016
C61	C	1.805965	-0.841426	-0.732521
C62	C	2.305965	-0.341426	-0.232521
C63	C	1.389378	-0.815755	-0.952226
C64	C	1.889378	-0.315755	-0.452226
C65	C	1.374882	-0.828622	-1.066537
C66	C	1.874882	-0.328622	-0.566537
C67	C	1.423487	-0.507956	-0.684022
C68	C	1.923487	-0.007956	-0.184022
C69	C	1.423526	-0.389658	-0.684041
C70	C	1.923526	0.110342	-0.184041
C71	C	1.430945	-0.778803	-1.125443
C72	C	1.930945	-0.278803	-0.625443
C73	C	1.415964	-0.792101	-1.243590
C74	C	1.915964	-0.292101	-0.743590
C75	C	1.457340	-0.755414	-0.416779
C76	C	1.957340	-0.255414	0.083221
C77	C	1.472035	-0.742276	-0.302494
C78	C	1.972035	-0.242276	0.197506
H79	H	1.020059	-0.862124	-0.750512
H80	H	1.520059	-0.362124	-0.250512
H81	H	1.490030	-0.726303	-1.088406
H82	H	1.990030	-0.226303	-0.588406
C83	C	0.856030	-0.933124	-0.812200
C84	C	1.356030	-0.433124	-0.312200
N85	N	0.893740	-1.002191	-0.872212
N86	N	1.393740	-0.502191	-0.372212
H87	H	1.004798	-0.662001	-0.576621
H88	H	1.504798	-0.162001	-0.076621
C89	C	1.589483	-1.366913	-0.555492
C90	C	2.089483	-0.866913	-0.055492
N91	N	1.656166	-1.400263	-0.503861
N92	N	2.156166	-0.900263	-0.003861
C93	C	1.229358	-1.327266	-0.604526
C94	C	1.729358	-0.827266	-0.104526
N95	N	1.151417	-1.344781	-0.572602
N96	N	1.651417	-0.844781	-0.072602
H97	H	0.827774	-0.709156	-0.617595
H98	H	1.327774	-0.209156	-0.117595
H99	H	1.280399	-1.214409	-0.794530
H100	H	1.780399	-0.714409	-0.294530
H101	H	1.315786	-0.881111	-1.103573
H102	H	1.815786	-0.381111	-0.603573
H103	H	1.356864	-0.844593	-1.280621
H104	H	1.856864	-0.344593	-0.780621
H105	H	1.531123	-0.689768	-1.265462
H106	H	2.031123	-0.189768	-0.765462
C107	C	1.617464	-1.242750	-0.763551
C108	C	2.117464	-0.742750	-0.263551
N109	N	1.695364	-1.225188	-0.795528
N110	N	2.195364	-0.725188	-0.295528
C111	C	1.395047	-1.177410	-0.476027
C112	C	1.895047	-0.677410	0.023973
N113	N	1.383620	-1.133690	-0.392503
N114	N	1.883620	-0.633690	0.107497
H115	H	1.447750	-1.377685	-0.863096
H116	H	1.947750	-0.877685	-0.363096
