data_functionalizedCrystal
_audit_creation_method	'MofGen! by Chris Wilmer'
_symmetry_space_group_name_H-M	'P1'
_symmetry_Int_Tables_number	1
_symmetry_cell_setting	triclinic
loop_
_symmetry_equiv_pos_as_xyz
  x,y,z
_cell_length_a	17.699083
_cell_length_b	22.010155
_cell_length_c	23.532357
_cell_angle_alpha	90.001303
_cell_angle_beta	83.055654
_cell_angle_gamma	90.002416
loop_
_atom_site_label
_atom_site_type_symbol
_atom_site_fract_x
_atom_site_fract_y
_atom_site_fract_z
O1	O	1.003699	0.050447	0.072012
O2	O	1.503699	0.550447	0.572012
O3	O	0.783271	0.050468	0.081382
O4	O	1.283271	0.550468	0.581382
O5	O	0.900151	0.050445	-0.006217
O6	O	1.400151	0.550445	0.493783
O7	O	0.886818	0.050471	0.159612
O8	O	1.386818	0.550471	0.659612
O9	O	0.900130	-0.050606	-0.006204
O10	O	1.400130	0.449394	0.493796
O11	O	0.783249	-0.050582	0.081396
O12	O	1.283249	0.449418	0.581396
O13	O	1.003678	-0.050603	0.072025
O14	O	1.503678	0.449397	0.572025
Cu15	Cu	0.893462	-0.059819	0.076712
Cu16	Cu	1.393462	0.440181	0.576712
Cu17	Cu	0.893487	0.059685	0.076696
Cu18	Cu	1.393487	0.559685	0.576696
O19	O	0.886797	-0.050579	0.159625
O20	O	1.386797	0.449421	0.659625
C21	C	0.755065	-0.000054	0.081053
C22	C	1.255065	0.499946	0.581053
C23	C	0.671052	-0.000047	0.080046
C24	C	1.171052	0.499953	0.580046
N25	N	0.893449	-0.143872	0.076722
N26	N	1.393449	0.356128	0.576722
C27	C	0.622158	-0.000039	0.131465
C28	C	1.122158	0.499961	0.631465
C29	C	0.543220	-0.000047	0.130515
C30	C	1.043220	0.499953	0.630515
C31	C	0.513177	-0.000059	0.078146
C32	C	1.013177	0.499941	0.578146
C33	C	0.562077	-0.000068	0.026723
C34	C	1.062077	0.499932	0.526723
C35	C	0.641014	-0.000065	0.027673
C36	C	1.141014	0.499935	0.527673
C37	C	0.243735	-0.000084	0.022889
C38	C	0.743735	0.499916	0.522889
C39	C	0.164792	-0.000086	0.021942
C40	C	0.664792	0.499914	0.521942
C41	C	0.145940	-0.000066	0.125731
C42	C	0.645940	0.499934	0.625731
C43	C	0.224877	-0.000063	0.126681
C44	C	0.724877	0.499937	0.626681
C45	C	0.273770	-0.000076	0.075259
C46	C	0.773770	0.499924	0.575259
C47	C	0.359364	-0.000068	0.076289
C48	C	0.859364	0.499932	0.576289
C49	C	0.427585	-0.000062	0.077115
C50	C	0.927585	0.499938	0.577115
C51	C	0.945244	-0.563661	0.037913
C52	C	1.445244	-0.063661	0.537913
C53	C	0.945248	-0.627269	0.037909
C54	C	1.445248	-0.127269	0.537909
O55	O	0.989255	-0.660169	0.004919
O56	O	1.489255	-0.160169	0.504919
N57	N	0.893486	-0.659079	0.076684
N58	N	1.393486	-0.159079	0.576684
C59	C	0.841713	-0.627278	0.115462
C60	C	1.341713	-0.127278	0.615462
O61	O	0.797685	-0.660175	0.148443
O62	O	1.297685	-0.160175	0.648443
C63	C	0.841706	-0.563671	0.115463
C64	C	1.341706	-0.063671	0.615463
C65	C	0.893476	-0.531865	0.076689
C66	C	1.393476	-0.031865	0.576689
C67	C	0.997010	-0.531855	-0.000859
C68	C	1.497010	-0.031855	0.499141
C69	C	0.997007	-0.468252	-0.000854
C70	C	1.497007	0.031748	0.499146
C71	C	0.945239	-0.436455	0.037922
C72	C	1.445239	0.063545	0.537922
C73	C	0.893473	-0.468262	0.076694
C74	C	1.393473	0.031738	0.576694
C75	C	0.789929	-0.531871	0.154238
C76	C	1.289929	-0.031871	0.654238
C77	C	0.789927	-0.468260	0.154235
C78	C	1.289927	0.031740	0.654235
C79	C	0.841697	-0.436454	0.115461
C80	C	1.341697	0.063546	0.615461
C81	C	0.841702	-0.372862	0.115475
C82	C	1.341702	0.127138	0.615475
N83	N	0.893464	-0.341052	0.076699
N84	N	1.393464	0.158948	0.576699
C85	C	0.945232	-0.372849	0.037923
C86	C	1.445232	0.127151	0.537923
C87	C	0.841729	-0.760855	0.115457
C88	C	1.341729	-0.260855	0.615457
C89	C	0.841739	-0.824461	0.115460
C90	C	1.341739	-0.324461	0.615460
C91	C	0.945274	-0.824448	0.037905
C92	C	1.445274	-0.324448	0.537905
C93	C	0.945267	-0.760841	0.037906
C94	C	1.445267	-0.260841	0.537906
C95	C	0.893491	-0.729046	0.076682
C96	C	1.393491	-0.229046	0.576682
C97	C	0.945223	-0.239277	0.037936
C98	C	1.445223	0.260723	0.537936
C99	C	0.945218	-0.175668	0.037946
C100	C	1.445218	0.324332	0.537946
C101	C	0.841681	-0.175687	0.115498
C102	C	1.341681	0.324313	0.615498
C103	C	0.841688	-0.239290	0.115491
C104	C	1.341688	0.260710	0.615491
C105	C	0.893462	-0.271084	0.076705
C106	C	1.393462	0.228916	0.576705
O107	O	0.797715	-0.339921	0.148446
O108	O	1.297715	0.160079	0.648446
O109	O	0.989246	-0.339944	0.004942
O110	O	1.489246	0.160056	0.504942
C111	C	1.031883	-0.000079	0.072355
C112	C	1.531883	0.499921	0.572355
C113	C	1.115896	-0.000082	0.073362
C114	C	1.615896	0.499918	0.573362
C115	C	0.899807	-0.000082	-0.027428
C116	C	1.399807	0.499918	0.472572
C117	C	0.898805	-0.000088	-0.090650
C118	C	1.398805	0.499912	0.409350
N119	N	0.893505	0.143737	0.076681
N120	N	1.393505	0.643737	0.576681
C121	C	0.892521	0.055028	-0.482686
C122	C	1.392521	0.555028	0.017314
C123	C	0.891568	0.055032	-0.542088
C124	C	1.391568	0.555032	-0.042088
O125	O	0.891059	0.101877	-0.572812
O126	O	1.391059	0.601877	-0.072812
N127	N	0.891084	-0.000050	-0.571794
N128	N	1.391084	0.499950	-0.071794
C129	C	0.891545	-0.055139	-0.542093
C130	C	1.391545	0.444861	-0.042093
O131	O	0.891045	-0.101990	-0.572814
O132	O	1.391045	0.398010	-0.072814
C133	C	0.892493	-0.055142	-0.482691
C134	C	1.392493	0.444858	0.017309
C135	C	0.892985	-0.000057	-0.452990
C136	C	1.392985	0.499943	0.047010
C137	C	0.893012	0.110109	-0.452984
C138	C	1.393012	0.610109	0.047016
C139	C	0.893967	0.110105	-0.393586
C140	C	1.393967	0.610105	0.106414
C141	C	0.894430	0.055020	-0.363890
C142	C	1.394430	0.555020	0.136110
C143	C	0.893939	-0.000060	-0.393592
C144	C	1.393939	0.499940	0.106408
C145	C	0.892949	-0.110230	-0.452991
C146	C	1.392949	0.389770	0.047009
C147	C	0.893896	-0.110228	-0.393586
C148	C	1.393896	0.389772	0.106414
C149	C	0.894388	-0.055143	-0.363884
C150	C	1.394388	0.444857	0.136116
C151	C	0.895357	-0.055149	-0.304498
C152	C	1.395357	0.444851	0.195502
N153	N	0.895842	-0.000067	-0.274792
N154	N	1.395842	0.499933	0.225208
C155	C	0.895378	0.055018	-0.304489
C156	C	1.395378	0.555018	0.195511
C157	C	0.889553	-0.055129	-0.666840
C158	C	1.389553	0.444871	-0.166840
C159	C	0.888611	-0.055126	-0.726241
C160	C	1.388611	0.444874	-0.226241
C161	C	0.888633	0.055044	-0.726232
C162	C	1.388633	0.555044	-0.226232
C163	C	0.889581	0.055042	-0.666831
C164	C	1.389581	0.555042	-0.166831
C165	C	0.890038	-0.000047	-0.637135
C166	C	1.390038	0.499953	-0.137135
C167	C	0.897383	0.055005	-0.179749
C168	C	1.397383	0.555005	0.320251
C169	C	0.898341	0.054997	-0.120346
C170	C	1.398341	0.554997	0.379654
C171	C	0.898315	-0.055174	-0.120360
C172	C	1.398315	0.444826	0.379640
C173	C	0.897362	-0.055165	-0.179758
C174	C	1.397362	0.444835	0.320242
C175	C	0.896893	-0.000071	-0.209451
C176	C	1.396893	0.499929	0.290549
O177	O	0.895864	-0.101971	-0.273736
O178	O	1.395864	0.398029	0.226264
O179	O	0.895868	0.101861	-0.273759
O180	O	1.395868	0.601861	0.226241
C181	C	0.887141	-0.000051	0.180836
C182	C	1.387141	0.499949	0.680836
C183	C	0.888144	-0.000041	0.244058
C184	C	1.388144	0.499959	0.744058
H185	H	0.503413	-0.000040	0.172386
H186	H	1.003413	0.499960	0.672386
C187	C	0.681398	0.051872	-0.060506
C188	C	1.181398	0.551872	0.439494
C189	C	0.694764	-0.000069	-0.028847
C190	C	1.194764	0.499931	0.471153
H191	H	0.714585	0.051869	-0.095398
H192	H	1.214585	0.551869	0.404602
H193	H	0.630094	0.051864	-0.068567
H194	H	1.130094	0.551864	0.431433
H195	H	0.690463	0.087110	-0.039025
H196	H	1.190463	0.587110	0.460975
H197	H	0.685694	-0.035307	-0.050327
H198	H	1.185694	0.464693	0.449673
H199	H	0.746080	-0.000066	-0.020788
H200	H	1.246080	0.499934	0.479212
H201	H	0.537611	-0.000087	-0.015918
H202	H	1.037611	0.499913	0.484082
H203	H	0.889980	0.099897	-0.642652
H204	H	1.389980	0.599897	-0.142652
H205	H	0.987425	-0.850348	0.006330
H206	H	1.487425	-0.350348	0.506330
C207	C	0.824691	-0.689332	0.192994
C208	C	1.324691	-0.189332	0.692994
C209	C	0.784823	-0.725907	0.158091
C210	C	1.284823	-0.225907	0.658091
H211	H	0.789558	-0.667758	0.219312
H212	H	1.289558	-0.167758	0.719312
H213	H	0.856034	-0.714145	0.213444
H214	H	1.356034	-0.214145	0.713444
H215	H	0.855509	-0.661283	0.169897
H216	H	1.355509	-0.161283	0.669897
H217	H	0.754008	-0.753960	0.181188
H218	H	1.254008	-0.253960	0.681188
H219	H	0.753466	-0.701093	0.137640
H220	H	1.253466	-0.201093	0.637640
C221	C	1.047565	-0.232858	-0.038721
C222	C	1.547565	0.267142	0.461279
C223	C	1.002134	-0.274218	-0.004697
C224	C	1.502134	0.225782	0.495303
H225	H	1.082703	-0.254430	-0.065037
H226	H	1.582703	0.245570	0.434963
H227	H	1.016217	-0.208052	-0.059173
H228	H	1.516217	0.291948	0.440827
H229	H	1.074595	-0.208048	-0.015028
H230	H	1.574595	0.291952	0.484972
H231	H	0.975100	-0.299026	-0.028389
H232	H	1.475100	0.200974	0.471611
H233	H	1.033486	-0.299035	0.015756
H234	H	1.533486	0.200965	0.515756
C235	C	0.337511	-0.000031	0.174222
C236	C	0.837511	0.499969	0.674222
C237	C	0.257900	-0.000039	0.184247
C238	C	0.757900	0.499961	0.684247
H239	H	0.357895	-0.000011	0.209762
H240	H	0.857895	0.499989	0.709762
H241	H	0.354318	-0.035273	0.153069
H242	H	0.854318	0.464727	0.653069
H243	H	0.354309	0.035204	0.153044
H244	H	0.854309	0.535204	0.653044
H245	H	0.241101	-0.035277	0.205422
H246	H	0.741101	0.464723	0.705422
H247	H	0.241085	0.035207	0.205409
H248	H	0.741085	0.535207	0.705409
C249	C	1.099335	-0.474648	-0.077517
C250	C	1.599335	0.025352	0.422483
C251	C	1.053906	-0.433296	-0.043483
C252	C	1.553906	0.066704	0.456517
H253	H	1.134459	-0.453069	-0.103840
H254	H	1.634459	0.046931	0.396160
H255	H	1.126375	-0.499450	-0.053836
H256	H	1.626375	0.000550	0.446164
H257	H	1.067979	-0.499462	-0.097967
H258	H	1.567979	0.000538	0.402033
H259	H	1.085262	-0.408484	-0.023031
H260	H	1.585262	0.091516	0.476969
H261	H	1.026865	-0.408483	-0.067168
H262	H	1.526865	0.091517	0.432832
C263	C	1.014070	-0.603375	-0.078398
C264	C	1.514070	-0.103375	0.421602
C265	C	1.053922	-0.566798	-0.043486
C266	C	1.553922	-0.066798	0.456514
H267	H	1.049213	-0.624940	-0.104716
H268	H	1.549213	-0.124940	0.395284
H269	H	0.983256	-0.631427	-0.055312
H270	H	1.483256	-0.131427	0.444688
H271	H	0.982724	-0.578560	-0.098852
H272	H	1.482724	-0.078560	0.401148
H273	H	1.085265	-0.591613	-0.023029
H274	H	1.585265	-0.091613	0.476971
H275	H	1.084750	-0.538743	-0.066576
H276	H	1.584750	-0.038743	0.433424
H277	H	0.894365	0.154961	-0.369408
H278	H	1.394365	0.654961	0.130592
C279	C	1.047604	-0.767232	-0.038752
C280	C	1.547604	-0.267232	0.461248
C281	C	1.002168	-0.725883	-0.004720
C282	C	1.502168	-0.225883	0.495280
H283	H	1.082729	-0.745651	-0.065072
H284	H	1.582729	-0.245651	0.434928
H285	H	1.074642	-0.792034	-0.015069
H286	H	1.574642	-0.292034	0.484931
H287	H	1.016253	-0.792048	-0.059205
H288	H	1.516253	-0.292048	0.440795
H289	H	1.033518	-0.701070	0.015735
H290	H	1.533518	-0.201070	0.515735
H291	H	0.975127	-0.701071	-0.028407
H292	H	1.475127	-0.201071	0.471593
H293	H	0.799591	-0.850353	0.147039
H294	H	1.299591	-0.350353	0.647039
H295	H	0.747773	-0.557759	0.185811
H296	H	1.247773	-0.057759	0.685811
H297	H	0.888253	0.099897	-0.750422
H298	H	1.388253	0.599897	-0.250422
H299	H	0.889928	-0.099991	-0.642666
H300	H	1.389928	0.400009	-0.142666
C301	C	0.687584	-0.474667	0.230894
C302	C	1.187584	0.025333	0.730894
C303	C	0.733016	-0.433312	0.196863
C304	C	1.233016	0.066688	0.696863
H305	H	0.652455	-0.453091	0.257213
H306	H	1.152455	0.046909	0.757213
H307	H	0.660550	-0.499474	0.207209
H308	H	1.160550	0.000526	0.707209
H309	H	0.718938	-0.499477	0.251346
H310	H	1.218938	0.000523	0.751346
H311	H	0.701662	-0.408505	0.176408
H312	H	1.201662	0.091495	0.676408
H313	H	0.760051	-0.408495	0.220552
H314	H	1.260051	0.091505	0.720552
C315	C	0.739338	-0.182073	0.192157
C316	C	1.239338	0.317927	0.692157
C317	C	0.784778	-0.140728	0.158121
C318	C	1.284778	0.359272	0.658121
H319	H	0.704210	-0.160489	0.218470
H320	H	1.204210	0.339511	0.718470
H321	H	0.712302	-0.206882	0.168475
H322	H	1.212302	0.293118	0.668475
H323	H	0.770685	-0.206881	0.212616
H324	H	1.270685	0.293119	0.712616
H325	H	0.753431	-0.115923	0.137658
H326	H	1.253431	0.384077	0.637658
H327	H	0.811815	-0.115908	0.181806
H328	H	1.311815	0.384092	0.681806
C329	C	0.888684	-0.164024	-0.720269
C330	C	1.388684	0.335976	-0.220269
C331	C	0.888077	-0.115678	-0.758886
C332	C	1.388077	0.384322	-0.258886
H333	H	0.888347	-0.201406	-0.740421
H334	H	1.388347	0.298594	-0.240421
H335	H	0.933197	-0.161736	-0.701511
H336	H	1.433197	0.338264	-0.201511
H337	H	0.844912	-0.161721	-0.692690
H338	H	1.344912	0.338279	-0.192690
H339	H	0.931853	-0.117978	-0.786463
H340	H	1.431853	0.382022	-0.286463
H341	H	0.843560	-0.117967	-0.777653
H342	H	1.343560	0.382033	-0.277653
C343	C	0.738599	-0.310830	0.127939
C344	C	1.238599	0.189170	0.627939
C345	C	0.784789	-0.274260	0.158112
C346	C	1.284789	0.225740	0.658112
H347	H	0.703472	-0.332419	0.154250
H348	H	1.203472	0.167581	0.654250
H349	H	0.711563	-0.286013	0.104267
H350	H	1.211563	0.213987	0.604267
H351	H	0.769439	-0.338867	0.104844
H352	H	1.269439	0.161133	0.604844
H353	H	0.753950	-0.246220	0.181204
H354	H	1.253950	0.253780	0.681204
H355	H	0.811827	-0.299080	0.181794
H356	H	1.311827	0.200920	0.681794
H357	H	0.898743	0.099856	-0.096166
H358	H	1.398743	0.599856	0.403834
H359	H	0.896968	-0.100020	-0.203943
H360	H	1.396968	0.399980	0.296057
C361	C	0.135236	-0.000040	0.228424
C362	C	0.635236	0.499960	0.728424
C363	C	0.092195	-0.000057	0.182258
C364	C	0.592195	0.499943	0.682258
H365	H	0.102055	-0.000028	0.263319
H366	H	0.602055	0.499972	0.763319
H367	H	0.166414	-0.035275	0.226642
H368	H	0.666414	0.464725	0.726642
H369	H	0.166419	0.035202	0.226622
H370	H	0.666419	0.535202	0.726622
H371	H	0.061015	-0.035301	0.184057
H372	H	0.561015	0.464699	0.684057
H373	H	0.061003	0.035182	0.184040
H374	H	0.561003	0.535182	0.684040
C375	C	0.826891	0.174053	-0.513279
C376	C	1.326891	0.674053	-0.013279
C377	C	0.892506	0.170666	-0.485620
C378	C	1.392506	0.670666	0.014380
H379	H	0.826583	0.211443	-0.533421
H380	H	1.326583	0.711443	-0.033421
H381	H	0.826470	0.141260	-0.539476
H382	H	1.326470	0.641260	-0.039476
H383	H	0.783122	0.171763	-0.485696
H384	H	1.283122	0.671763	0.014304
H385	H	0.936275	0.172951	-0.513203
H386	H	1.436275	0.672951	-0.013203
H387	H	0.892934	0.203468	-0.459420
H388	H	1.392934	0.703468	0.040580
H389	H	0.892549	-0.155087	-0.477164
H390	H	1.392549	0.344913	0.022836
C391	C	0.699981	0.051928	0.192744
C392	C	1.199981	0.551928	0.692744
C393	C	0.655174	-0.000023	0.189033
C394	C	1.155174	0.499977	0.689033
H395	H	0.720357	0.051938	0.228287
H396	H	1.220357	0.551938	0.728287
H397	H	0.740398	0.051920	0.162262
H398	H	1.240398	0.551920	0.662262
H399	H	0.669570	0.087159	0.190208
H400	H	1.169570	0.587159	0.690208
H401	H	0.685587	-0.035255	0.191565
H402	H	1.185587	0.464745	0.691565
H403	H	0.614752	-0.000020	0.219524
H404	H	1.114752	0.499980	0.719524
H405	H	0.896998	0.099869	-0.203917
H406	H	1.396998	0.599869	0.296083
H407	H	0.987378	-0.149774	0.006371
H408	H	1.487378	0.350226	0.506371
C409	C	0.893757	-0.219129	-0.399564
C410	C	1.393757	0.280871	0.100436
C411	C	0.894392	-0.170785	-0.360944
C412	C	1.394392	0.329215	0.139056
H413	H	0.894065	-0.256512	-0.379412
H414	H	1.394065	0.243488	0.120588
H415	H	0.849249	-0.216823	-0.418325
H416	H	1.349249	0.283177	0.081675
H417	H	0.937534	-0.216841	-0.427139
H418	H	1.437534	0.283159	0.072861
H419	H	0.850611	-0.173070	-0.333371
H420	H	1.350611	0.326930	0.166629
H421	H	0.938904	-0.173092	-0.342173
H422	H	1.438904	0.326908	0.157827
C423	C	0.899754	-0.104085	-0.029299
C424	C	1.399754	0.395915	0.470701
C425	C	0.898820	-0.115721	-0.087709
C426	C	1.398820	0.384279	0.412291
H427	H	0.900056	-0.141465	-0.009141
H428	H	1.400056	0.358535	0.490859
H429	H	0.944057	-0.081465	-0.023976
H430	H	1.444057	0.418535	0.476024
H431	H	0.855772	-0.081440	-0.015166
H432	H	1.355772	0.418560	0.484834
H433	H	0.942804	-0.138362	-0.101843
H434	H	1.442804	0.361638	0.398157
H435	H	0.854511	-0.138351	-0.093036
H436	H	1.354511	0.361649	0.406964
H437	H	0.140335	-0.000096	-0.020706
H438	H	0.640335	0.499904	0.479294
H439	H	0.283535	-0.000095	-0.018983
H440	H	0.783535	0.499905	0.481017
