data_functionalizedCrystal
_audit_creation_method	'MofGen! by Chris Wilmer'
_symmetry_space_group_name_H-M	'P1'
_symmetry_Int_Tables_number	1
_symmetry_cell_setting	triclinic
loop_
_symmetry_equiv_pos_as_xyz
  x,y,z
_cell_length_a	12.811457
_cell_length_b	15.995292
_cell_length_c	11.295483
_cell_angle_alpha	94.097347
_cell_angle_beta	91.289320
_cell_angle_gamma	83.757111
loop_
_atom_site_label
_atom_site_type_symbol
_atom_site_fract_x
_atom_site_fract_y
_atom_site_fract_z
O1	O	1.388988	0.115662	0.050985
O2	O	1.085743	0.126071	0.018235
O3	O	1.245687	-0.000944	0.035507
O4	O	1.229044	0.242678	0.033713
O5	O	1.231638	0.010194	0.232040
O6	O	1.071695	0.137210	0.214769
O7	O	1.374940	0.126801	0.247518
Cu8	Cu	1.222035	0.133022	0.249089
Cu9	Cu	1.238648	0.119850	0.016665
O10	O	1.214996	0.253816	0.230247
C11	C	1.039915	0.130716	0.112311
C12	C	0.924290	0.127951	0.099823
C13	C	0.691704	0.134884	0.290643
C14	C	0.583064	0.132286	0.278916
C15	C	0.598370	0.120151	0.064643
C16	C	0.707010	0.122749	0.076370
C17	C	0.753672	0.130117	0.189374
C18	C	0.862313	0.132721	0.201100
C19	C	0.877618	0.120580	-0.013172
C20	C	0.768978	0.117982	-0.024899
C21	C	1.237985	-0.026577	0.133697
C22	C	1.235955	-0.119550	0.133469
C23	C	1.228489	-0.457360	0.132674
C24	C	1.343901	-0.432911	0.145580
C25	C	1.346127	-0.336240	0.145370
C26	C	1.232194	-0.289769	0.133069
C27	C	1.182500	-0.325786	0.014609
C28	C	1.181117	-0.422595	0.014369
C29	C	1.162784	-0.409808	0.237611
C30	C	1.166956	-0.313190	0.239551
C31	C	1.234282	-0.195053	0.133288
C32	C	1.226399	-0.552076	0.132447
C33	C	1.420768	0.122156	0.153440
C34	C	1.536393	0.124921	0.165920
C35	C	1.222698	0.279449	0.132053
C36	C	1.224728	0.372422	0.132274
N37	N	1.210357	0.142287	0.412564
N38	N	1.250334	0.110579	-0.146810
C39	C	1.334395	0.043841	0.675248
C40	C	1.325578	0.050848	0.798959
C41	C	1.183900	0.163304	0.783700
C42	C	1.192718	0.156297	0.659989
C43	C	1.267969	0.096564	0.605767
C44	C	1.276791	0.089561	0.482054
C45	C	1.135109	0.202013	0.466797
C46	C	1.126291	0.209021	0.590508
H47	H	1.385578	-0.312220	0.230699
C48	C	1.203430	-0.440994	0.357805
N49	N	1.234058	-0.464484	0.448331
H50	H	1.397356	-0.321965	0.069691
C51	C	1.062035	0.260013	0.390357
N52	N	1.006998	0.303698	0.332782
H53	H	1.395674	-0.004791	0.631101
H54	H	1.393872	-0.466039	0.070328
H55	H	1.227085	-0.453781	-0.065208
C56	C	0.913641	0.140822	0.325405
N57	N	0.952298	0.146920	0.419036
H58	H	0.729695	0.140894	0.382655
H59	H	0.532612	0.136172	0.361380
C60	C	1.244716	-0.304568	-0.092378
N61	N	1.291585	-0.288590	-0.172957
H62	H	0.560361	0.114138	-0.027359
C63	C	0.717637	0.109878	-0.149197
N64	N	0.678967	0.103776	-0.242821
C65	C	1.359565	0.023852	0.422412
N66	N	1.421909	-0.025645	0.377493
H67	H	1.065021	0.257652	0.634669
H68	H	1.379668	0.007914	0.855528
C69	C	1.101106	0.228985	0.843363
N70	N	1.038738	0.278451	0.888302
C71	C	0.945793	0.115336	-0.124576
N72	N	0.997142	0.111389	-0.208482
H73	H	1.382645	-0.455919	0.230869
H74	H	1.096836	-0.438248	0.000146
C75	C	1.069642	-0.284139	-0.003267
N76	N	0.984638	-0.252767	-0.016730
C77	C	1.215688	-0.281177	0.357846
N78	N	1.252388	-0.257050	0.446944
H79	H	1.083312	-0.280637	0.237351
C80	C	1.047918	-0.429768	0.226251
N81	N	0.961407	-0.444811	0.217690
