data_functionalizedCrystal
_audit_creation_method	'MofGen! by Chris Wilmer'
_symmetry_space_group_name_H-M	'P1'
_symmetry_Int_Tables_number	1
_symmetry_cell_setting	triclinic
loop_
_symmetry_equiv_pos_as_xyz
  x,y,z
_cell_length_a	10.654550
_cell_length_b	10.654550
_cell_length_c	9.730223
_cell_angle_alpha	90.000242
_cell_angle_beta	90.001808
_cell_angle_gamma	84.484917
loop_
_atom_site_label
_atom_site_type_symbol
_atom_site_fract_x
_atom_site_fract_y
_atom_site_fract_z
O1	O	0.176396	1.667840	0.114183
O2	O	0.193202	1.302361	0.114208
O3	O	0.002060	1.493503	0.114190
O4	O	0.367538	1.476697	0.114202
O5	O	0.002060	1.493490	-0.114390
O6	O	0.193202	1.302348	-0.114372
O7	O	0.176396	1.667826	-0.114396
Zn8	Zn	0.184799	1.485085	-0.150676
Zn9	Zn	0.184799	1.485103	0.150488
O10	O	0.367538	1.476684	-0.114378
C11	C	0.191968	1.255556	-0.000078
C12	C	0.188276	1.116113	-0.000069
C13	C	-0.044738	1.492263	-0.000098
C14	C	-0.184181	1.488571	-0.000093
C15	C	0.300818	1.036627	-0.000069
C16	C	0.297341	0.905607	-0.000093
C17	C	0.068772	0.933570	-0.000111
C18	C	0.072250	1.064588	-0.000097
C19	C	-0.263667	1.601112	-0.000105
C20	C	-0.394688	1.597636	-0.000095
C21	C	-0.366725	1.369066	-0.000067
C22	C	-0.235706	1.372544	-0.000067
C23	C	-0.212142	1.717139	-0.000130
C24	C	-0.291629	1.829690	-0.000144
C25	C	-0.422650	1.826213	-0.000134
C26	C	-0.474184	1.710186	-0.000111
C27	C	0.414336	1.477924	-0.000087
C28	C	0.553779	1.481616	-0.000083
C29	C	0.177630	1.714631	-0.000107
C30	C	0.181322	1.854074	-0.000107
N31	N	0.184798	1.485082	-0.356212
C32	C	0.261680	1.561913	-0.428136
C33	C	0.261673	1.561934	-0.572019
C34	C	0.107899	1.408281	-0.572042
C35	C	0.107900	1.408268	-0.428161
N36	N	0.184790	1.485115	0.356024
H37	H	0.395294	1.078574	-0.000057
H38	H	-0.249661	1.924155	-0.000128
H39	H	0.045293	1.345740	-0.630640
H40	H	-0.019401	1.129309	-0.000100
F41	F	0.343500	1.643710	-0.648560
F42	F	0.026069	1.326487	-0.351610
H43	H	-0.487366	1.917857	-0.000131
H44	H	0.388984	0.840894	-0.000097
F45	F	-0.613630	1.706492	-0.000146
H46	H	-0.170986	1.280903	-0.000059
F47	F	-0.054705	0.878722	-0.000134
F48	F	0.343515	1.643672	-0.351568
H49	H	-0.105460	1.719983	-0.000143
F50	F	-0.421576	1.245591	-0.000044
