data_functionalizedCrystal
_audit_creation_method	'MofGen! by Chris Wilmer'
_symmetry_space_group_name_H-M	'P1'
_symmetry_Int_Tables_number	1
_symmetry_cell_setting	triclinic
loop_
_symmetry_equiv_pos_as_xyz
  x,y,z
_cell_length_a	12.759401
_cell_length_b	10.686551
_cell_length_c	12.759399
_cell_angle_alpha	94.406015
_cell_angle_beta	89.977277
_cell_angle_gamma	85.605786
loop_
_atom_site_label
_atom_site_type_symbol
_atom_site_fract_x
_atom_site_fract_y
_atom_site_fract_z
Zn1	Zn	1.651794	-0.713408	0.372645
Zn2	Zn	1.638173	-0.502403	0.561847
Zn3	Zn	1.462609	-0.502428	0.386178
Zn4	Zn	1.476054	-0.713358	0.548283
O5	O	1.557158	-0.607899	0.467238
O6	O	1.797009	-0.685428	0.397756
O7	O	1.603557	-0.325825	0.549884
O8	O	1.487779	-0.530447	0.237360
O9	O	1.787001	-0.530404	0.536762
O10	O	1.626772	-0.685453	0.227417
O11	O	1.474571	-0.325844	0.420821
O12	O	1.317371	-0.530398	0.407669
O13	O	1.510694	-0.889946	0.513644
O14	O	1.327249	-0.685367	0.526767
O15	O	1.639809	-0.889983	0.384604
O16	O	1.616593	-0.530355	0.707071
O17	O	1.497486	-0.685343	0.697105
C18	C	1.284189	-0.607881	0.467215
C19	C	1.167414	-0.607903	0.467228
C20	C	1.008035	-0.688757	0.394985
C21	C	1.117758	-0.688749	0.394965
C22	C	1.107340	-0.527069	0.539523
C23	C	0.997619	-0.527084	0.539547
C24	C	1.277287	-0.837624	0.348026
C25	C	1.337355	-0.918444	0.275723
C26	C	1.303022	-0.938037	0.171984
C27	C	1.208620	-0.876792	0.140528
C28	C	1.148556	-0.795964	0.212826
C29	C	1.182890	-0.776394	0.316578
C30	C	0.838089	-0.378208	0.586476
C31	C	0.778023	-0.297372	0.658769
C32	C	0.812354	-0.277765	0.762511
C33	C	0.906758	-0.338988	0.793965
C34	C	0.966824	-0.419824	0.721671
C35	C	0.932485	-0.439432	0.617930
C36	C	1.578271	-0.937030	0.446102
C37	C	1.587268	-1.077286	0.437094
C38	C	1.831192	-0.607919	0.467262
C39	C	1.947969	-0.607927	0.467273
C40	C	1.557051	-0.607868	0.740208
C41	C	1.557104	-0.607897	0.856982
C42	C	1.536187	-0.280049	0.488217
C43	C	1.527394	-0.139794	0.496928
C44	C	1.629444	-0.688675	0.906573
C45	C	1.629488	-0.688706	1.016295
C46	C	1.484847	-0.527169	1.026827
C47	C	1.484800	-0.527146	0.917106
C48	C	1.676541	-0.837595	1.156609
C49	C	1.748897	-0.918362	1.206204
C50	C	1.852632	-0.937834	1.169253
C51	C	1.884031	-0.876519	1.082710
C52	C	1.811681	-0.795742	1.033121
C53	C	1.707932	-0.776295	1.070069
C54	C	1.437757	-0.378255	0.776791
C55	C	1.365410	-0.297471	0.727200
C56	C	1.261672	-0.277987	0.764150
C57	C	1.230275	-0.339279	0.850698
C58	C	1.302622	-0.420063	0.900288
C59	C	1.406359	-0.439549	0.863331
C60	C	1.557255	-0.607950	1.193202
C61	C	1.557195	-0.607951	1.076425
H62	H	1.147779	-0.461247	0.598365
F63	F	1.451398	-1.069497	0.572897
H64	H	1.723322	-0.968285	1.276668
H65	H	1.351938	-1.003843	0.113115
F66	F	1.437821	-0.983624	0.309205
H67	H	1.390984	-0.247558	0.656732
F68	F	1.663278	-1.147589	0.361132
H69	H	1.180679	-0.892740	0.056049
F70	F	1.706394	-0.774621	0.842588
H71	H	1.592069	-0.821761	1.186695
F72	F	1.929637	-1.023791	1.222041
F73	F	1.994447	-0.897232	1.043400
F74	F	1.845092	-0.730487	0.941023
F75	F	0.801544	-0.399070	0.476060
H76	H	1.425982	-0.461422	1.075793
F77	F	1.548170	-0.398986	0.737460
H78	H	1.277050	-0.469971	0.970761
H79	H	1.145804	-0.323412	0.880785
H80	H	0.967613	-0.754584	0.336134
F81	F	1.313827	-0.816794	0.458442
F82	F	1.067299	-0.484980	0.755149
F83	F	1.048094	-0.730783	0.179354
F84	F	0.943325	-0.318074	0.904365
H85	H	1.202768	-0.212201	0.723764
H86	H	0.700923	-0.247955	0.633272
F87	F	0.748427	-0.191717	0.839448
