data_functionalizedCrystal
_audit_creation_method	'MofGen! by Chris Wilmer'
_symmetry_space_group_name_H-M	'P1'
_symmetry_Int_Tables_number	1
_symmetry_cell_setting	triclinic
loop_
_symmetry_equiv_pos_as_xyz
  x,y,z
_cell_length_a	16.959455
_cell_length_b	12.594516
_cell_length_c	16.959447
_cell_angle_alpha	89.974772
_cell_angle_beta	89.980656
_cell_angle_gamma	90.015001
loop_
_atom_site_label
_atom_site_type_symbol
_atom_site_fract_x
_atom_site_fract_y
_atom_site_fract_z
Zn1	Zn	1.208426	-0.423750	-0.446988
Zn2	Zn	1.208352	-0.601757	-0.314821
Zn3	Zn	1.076249	-0.423790	-0.314820
Zn4	Zn	1.076229	-0.601684	-0.446954
O5	O	1.142314	-0.512745	-0.380896
O6	O	1.319027	-0.447377	-0.429470
O7	O	1.190806	-0.578197	-0.204210
O8	O	1.093822	-0.274839	-0.332366
O9	O	1.318973	-0.578158	-0.332368
O10	O	1.190932	-0.274810	-0.429469
O11	O	1.093750	-0.447445	-0.204209
O12	O	0.965635	-0.447374	-0.332333
O13	O	1.093788	-0.578033	-0.557570
O14	O	0.965621	-0.578072	-0.429412
O15	O	1.190913	-0.447306	-0.557594
O16	O	1.190786	-0.750693	-0.332335
O17	O	1.093716	-0.750639	-0.429413
C18	C	0.936948	-0.512720	-0.380869
C19	C	0.849091	-0.512735	-0.380876
C20	C	0.807801	-0.444589	-0.330413
C21	C	0.807827	-0.580888	-0.431351
C22	C	0.725282	-0.580900	-0.431363
C23	C	0.683992	-0.512755	-0.380900
C24	C	0.725248	-0.444597	-0.330425
C25	C	0.684019	-0.649049	-0.481843
C26	C	0.601468	-0.649063	-0.481857
C27	C	0.560177	-0.580922	-0.431389
C28	C	0.601438	-0.512763	-0.380911
C29	C	0.560148	-0.444617	-0.330448
C30	C	0.601408	-0.376462	-0.279966
C31	C	0.683956	-0.376456	-0.279957
C32	C	0.477629	-0.580928	-0.431398
C33	C	0.477595	-0.444625	-0.330460
C34	C	1.142262	-0.789286	-0.380888
C35	C	1.142312	-0.907592	-0.380911
C36	C	1.089511	-0.976854	-0.433674
C37	C	1.070256	-1.047717	-0.361548
C38	C	1.161639	-1.047527	-0.453050
C39	C	1.123019	-0.976897	-0.308746
C40	C	1.214437	-0.976701	-0.400297
C41	C	1.195209	-1.047532	-0.328121
C42	C	1.348482	-0.512772	-0.380923
C43	C	1.436339	-0.512783	-0.380935
C44	C	1.142356	-0.512657	-0.587064
C45	C	1.142374	-0.512619	-0.674921
C46	C	1.142388	-0.235124	-0.380921
C47	C	1.142419	-0.116819	-0.380931
C48	C	1.091912	-0.444430	-1.046402
C49	C	1.192976	-0.580584	-1.046391
C50	C	1.192963	-0.580608	-0.963845
C51	C	1.142422	-0.512544	-0.922574
C52	C	1.091895	-0.444455	-0.963849
C53	C	1.243483	-0.648704	-0.922564
C54	C	1.243471	-0.648732	-0.840013
C55	C	1.192934	-0.580662	-0.798740
C56	C	1.142405	-0.512569	-0.840020
C57	C	1.091864	-0.444505	-0.798749
C58	C	1.041339	-0.376406	-0.840028
C59	C	1.041357	-0.376385	-0.922576
C60	C	1.192915	-0.580683	-0.716192
C61	C	1.091847	-0.444530	-0.716196
C62	C	1.142317	-0.512757	-0.175529
C63	C	1.142452	-0.512494	-0.087673
H64	H	0.717557	-0.320967	-0.238857
F65	F	0.433658	-0.372099	-0.276744
F66	F	0.987552	-0.303970	-0.796094
F67	F	0.851773	-0.653414	-0.485051
H68	H	1.284622	-0.704130	-0.956173
F69	F	0.987588	-0.303919	-0.966513
F70	F	1.031045	-0.936287	-0.491913
H71	H	0.567779	-0.320973	-0.238882
H72	H	0.717643	-0.704526	-0.522930
F73	F	1.182949	-1.088085	-0.532778
H74	H	1.106645	-0.945999	-0.247731
F75	F	1.038057	-0.372080	-0.672278
H76	H	1.284611	-0.704183	-0.806411
H77	H	1.009311	-1.078935	-0.345168
H78	H	1.239907	-1.078370	-0.283458
H79	H	0.841399	-0.389102	-0.289309
F80	F	1.294078	-0.935898	-0.421751
F81	F	0.557564	-0.721601	-0.535582
H82	H	0.444039	-0.636412	-0.472505
F83	F	1.038144	-0.371955	-1.090333
F84	F	1.246756	-0.653026	-1.090316
H85	H	1.234057	-0.636121	-0.682587
