data_functionalizedCrystal
_audit_creation_method	'MofGen! by Chris Wilmer'
_symmetry_space_group_name_H-M	'P1'
_symmetry_Int_Tables_number	1
_symmetry_cell_setting	triclinic
loop_
_symmetry_equiv_pos_as_xyz
  x,y,z
_cell_length_a	16.625546
_cell_length_b	16.120566
_cell_length_c	16.625539
_cell_angle_alpha	92.920705
_cell_angle_beta	89.969603
_cell_angle_gamma	92.881503
loop_
_atom_site_label
_atom_site_type_symbol
_atom_site_fract_x
_atom_site_fract_y
_atom_site_fract_z
Zn1	Zn	-0.383577	-1.274562	-0.518393
Zn2	Zn	-0.133577	-1.024562	-0.268393
Zn3	Zn	0.116423	-0.774562	-0.018393
Zn4	Zn	0.366423	-0.524562	0.231607
Zn5	Zn	-0.518415	-1.274462	-0.383551
Zn6	Zn	-0.268415	-1.024462	-0.133551
Zn7	Zn	-0.018415	-0.774462	0.116449
Zn8	Zn	0.231585	-0.524462	0.366449
Zn9	Zn	-0.376760	-1.135142	-0.376738
Zn10	Zn	-0.126760	-0.885142	-0.126738
Zn11	Zn	0.123240	-0.635142	0.123262
Zn12	Zn	0.373240	-0.385142	0.373262
Zn13	Zn	-0.511525	-1.135112	-0.511508
Zn14	Zn	-0.261525	-0.885112	-0.261508
Zn15	Zn	-0.011525	-0.635112	-0.011508
Zn16	Zn	0.238475	-0.385112	0.238492
O17	O	-0.447569	-1.204819	-0.447547
O18	O	-0.197569	-0.954819	-0.197547
O19	O	0.052431	-0.704819	0.052453
O20	O	0.302431	-0.454819	0.302453
O21	O	-0.407200	-1.391215	-0.506239
O22	O	-0.157200	-1.141215	-0.256239
O23	O	0.092800	-0.891215	-0.006239
O24	O	0.342800	-0.641215	0.243761
O25	O	-0.499655	-1.255952	-0.269813
O26	O	-0.249655	-1.005952	-0.019813
O27	O	0.000345	-0.755952	0.230187
O28	O	0.250345	-0.505952	0.480187
O29	O	-0.264835	-1.153691	-0.395559
O30	O	-0.014835	-0.903691	-0.145559
O31	O	0.235165	-0.653691	0.104441
O32	O	0.485165	-0.403691	0.354441
O33	O	-0.506265	-1.391141	-0.407171
O34	O	-0.256265	-1.141141	-0.157171
O35	O	-0.006265	-0.891141	0.092829
O36	O	0.243735	-0.641141	0.342829
O37	O	-0.269843	-1.256122	-0.499633
O38	O	-0.019843	-1.006122	-0.249633
O39	O	0.230157	-0.756122	0.000367
O40	O	0.480157	-0.506122	0.250367
O41	O	-0.395582	-1.153594	-0.264807
O42	O	-0.145582	-0.903594	-0.014807
O43	O	0.104418	-0.653594	0.235193
O44	O	0.354418	-0.403594	0.485193
O45	O	-0.388901	-1.018472	-0.388882
O46	O	-0.138901	-0.768472	-0.138882
O47	O	0.111099	-0.518472	0.111118
O48	O	0.361099	-0.268472	0.361118
O49	O	-0.494522	-1.153639	-0.625255
O50	O	-0.244522	-0.903639	-0.375255
O51	O	0.005478	-0.653639	-0.125255
O52	O	0.255478	-0.403639	0.124745
O53	O	-0.487912	-1.018450	-0.487897
O54	O	-0.237912	-0.768450	-0.237897
O55	O	0.012088	-0.518450	0.012103
O56	O	0.262088	-0.268450	0.262103
O57	O	-0.400519	-1.256093	-0.630314
O58	O	-0.150519	-1.006093	-0.380314
O59	O	0.099481	-0.756093	-0.130314
O60	O	0.349481	-0.506093	0.119686
O61	O	-0.630331	-1.255922	-0.400494
O62	O	-0.380331	-1.005922	-0.150494
O63	O	-0.130331	-0.755922	0.099506
O64	O	0.119669	-0.505922	0.349506
O65	O	-0.625269	-1.153542	-0.494504
O66	O	-0.375269	-0.903542	-0.244504
O67	O	-0.125269	-0.653542	0.005496
O68	O	0.124731	-0.403542	0.255496
C69	C	-0.436919	-0.988211	-0.436904
C70	C	-0.186919	-0.738211	-0.186904
C71	C	0.063081	-0.488211	0.063096
C72	C	0.313081	-0.238211	0.313096
C73	C	-0.432382	-0.895545	-0.432370
C74	C	-0.182382	-0.645545	-0.182370
C75	C	0.067618	-0.395545	0.067630
C76	C	0.317618	-0.145545	0.317630
C77	C	-0.657056	-1.204741	-0.447510
C78	C	-0.407056	-0.954741	-0.197510
C79	C	-0.157056	-0.704741	0.052490
C80	C	0.092944	-0.454741	0.302490
C81	C	-0.746680	-1.204783	-0.447524
C82	C	-0.496680	-0.954783	-0.197524
C83	C	-0.246680	-0.704783	0.052476
C84	C	0.003320	-0.454783	0.302476
C85	C	-0.424081	-0.725883	-0.424098
C86	C	-0.174081	-0.475883	-0.174098
C87	C	0.075919	-0.225883	0.075902
C88	C	0.325919	0.024117	0.325902
C89	C	-0.471128	-0.684596	-0.471003
C90	C	-0.221128	-0.434596	-0.221003
C91	C	0.028872	-0.184596	0.028997
C92	C	0.278872	0.065404	0.278997
C93	C	-0.466509	-0.590191	-0.466401
C94	C	-0.216509	-0.340191	-0.216401
C95	C	0.033491	-0.090191	0.033599
C96	C	0.283491	0.159809	0.283599
C97	C	-0.428699	-0.820297	-0.428699
C98	C	-0.178699	-0.570297	-0.178699
C99	C	0.071301	-0.320297	0.071301
C100	C	0.321301	-0.070297	0.321301
C101	C	-1.074862	-1.204929	-0.447615
C102	C	-0.824862	-0.954929	-0.197615
C103	C	-0.574862	-0.704929	0.052385
C104	C	-0.324862	-0.454929	0.302385
C105	C	-0.983552	-1.204885	-0.447592
C106	C	-0.733552	-0.954885	-0.197592
C107	C	-0.483552	-0.704885	0.052408
C108	C	-0.233552	-0.454885	0.302408
C109	C	-0.910774	-1.204855	-0.447569
C110	C	-0.660774	-0.954855	-0.197569
C111	C	-0.410774	-0.704855	0.052431
C112	C	-0.160774	-0.454855	0.302431
C113	C	-0.819458	-1.204813	-0.447547
C114	C	-0.569458	-0.954813	-0.197547
C115	C	-0.319458	-0.704813	0.052453
C116	C	-0.069458	-0.454813	0.302453
C117	C	-0.237266	-1.204921	-0.447604
C118	C	0.012734	-0.954921	-0.197604
C119	C	0.262734	-0.704921	0.052396
C120	C	0.512734	-0.454921	0.302396
C121	C	-0.147647	-1.204965	-0.447628
C122	C	0.102353	-0.954965	-0.197628
C123	C	0.352353	-0.704965	0.052372
C124	C	0.602353	-0.454965	0.302372
C125	C	-0.447512	-1.204874	-0.657859
C126	C	-0.197512	-0.954874	-0.407859
C127	C	0.052488	-0.704874	-0.157859
C128	C	0.302488	-0.454874	0.092141
C129	C	-0.447488	-1.204897	-0.747481
C130	C	-0.197488	-0.954897	-0.497481
C131	C	0.052512	-0.704897	-0.247481
C132	C	0.302512	-0.454897	0.002519
C133	C	-0.458264	-0.422274	-0.458220
C134	C	-0.208264	-0.172274	-0.208220
C135	C	0.041736	0.077726	0.041780
C136	C	0.291736	0.327726	0.291780
C137	C	-0.462828	-0.514940	-0.462734
C138	C	-0.212828	-0.264940	-0.212734
C139	C	0.037172	-0.014940	0.037266
C140	C	0.287172	0.235060	0.287266
C141	C	-0.447399	-1.204935	-1.075659
C142	C	-0.197399	-0.954935	-0.825659
C143	C	0.052601	-0.704935	-0.575659
C144	C	0.302601	-0.454935	-0.325659
C145	C	-0.447426	-1.204922	-0.984350
C146	C	-0.197426	-0.954922	-0.734350
C147	C	0.052574	-0.704922	-0.484350
C148	C	0.302574	-0.454922	-0.234350
C149	C	-0.447444	-1.204916	-0.911573
C150	C	-0.197444	-0.954916	-0.661573
C151	C	0.052556	-0.704916	-0.411573
C152	C	0.302556	-0.454916	-0.161573
C153	C	-0.447470	-1.204903	-0.820258
C154	C	-0.197470	-0.954903	-0.570258
C155	C	0.052530	-0.704903	-0.320258
C156	C	0.302530	-0.454903	-0.070258
C157	C	-0.447571	-1.204813	-0.238056
C158	C	-0.197571	-0.954813	0.011944
C159	C	0.052429	-0.704813	0.261944
C160	C	0.302429	-0.454813	0.511944
C161	C	-0.447376	-1.204952	-0.148442
C162	C	-0.197376	-0.954952	0.101558
C163	C	0.052624	-0.704952	0.351558
C164	C	0.302624	-0.454952	0.601558
H165	H	-0.514874	-0.720151	-0.514616
H166	H	-0.264874	-0.470151	-0.264616
H167	H	-0.014874	-0.220151	-0.014616
H168	H	0.235126	0.029849	0.235384
H169	H	-0.380337	-0.690331	-0.380489
H170	H	-0.130337	-0.440331	-0.130489
H171	H	0.119663	-0.190331	0.119511
H172	H	0.369663	0.059669	0.369511
