data_functionalizedCrystal
_audit_creation_method	'MofGen! by Chris Wilmer'
_symmetry_space_group_name_H-M	'P1'
_symmetry_Int_Tables_number	1
_symmetry_cell_setting	triclinic
loop_
_symmetry_equiv_pos_as_xyz
  x,y,z
_cell_length_a	21.395362
_cell_length_b	18.050589
_cell_length_c	21.395355
_cell_angle_alpha	90.012902
_cell_angle_beta	90.043940
_cell_angle_gamma	90.044101
loop_
_atom_site_label
_atom_site_type_symbol
_atom_site_fract_x
_atom_site_fract_y
_atom_site_fract_z
Zn1	Zn	0.957870	-0.295431	0.354610
Zn2	Zn	1.457870	0.204569	0.854610
Zn3	Zn	0.957777	-0.419603	0.249843
Zn4	Zn	1.457777	0.080397	0.749843
Zn5	Zn	0.853085	-0.295465	0.249811
Zn6	Zn	1.353085	0.204535	0.749811
Zn7	Zn	0.853059	-0.419618	0.354548
Zn8	Zn	1.353059	0.080382	0.854548
O9	O	0.905448	-0.357529	0.302203
O10	O	1.405448	0.142471	0.802203
O11	O	1.045536	-0.311882	0.340752
O12	O	1.545536	0.188118	0.840752
O13	O	0.943862	-0.403144	0.162161
O14	O	1.443862	0.096856	0.662161
O15	O	0.867035	-0.191536	0.263726
O16	O	1.367035	0.308464	0.763726
O17	O	1.045468	-0.403110	0.263780
O18	O	1.545468	0.096890	0.763780
O19	O	0.944020	-0.191511	0.340721
O20	O	1.444020	0.308489	0.840721
O21	O	0.866945	-0.311940	0.162138
O22	O	1.366945	0.188060	0.662138
O23	O	0.765404	-0.311955	0.263665
O24	O	1.265404	0.188045	0.763665
O25	O	0.866990	-0.403136	0.442234
O26	O	1.366990	0.096864	0.942234
O27	O	0.765385	-0.403170	0.340615
O28	O	1.265385	0.096830	0.840615
O29	O	0.943995	-0.311896	0.442280
O30	O	1.443995	0.188104	0.942280
O31	O	0.943836	-0.523529	0.263719
O32	O	1.443836	-0.023529	0.763719
O33	O	0.866900	-0.523540	0.340645
O34	O	1.366900	-0.023540	0.840645
C35	C	0.742660	-0.357568	0.302130
C36	C	1.242660	0.142432	0.802130
C37	C	0.673019	-0.357603	0.302114
C38	C	1.173019	0.142397	0.802114
C39	C	0.640312	-0.405161	0.342121
C40	C	1.140312	0.094839	0.842121
C41	C	0.574877	-0.405143	0.342149
C42	C	1.074877	0.094857	0.842149
C43	C	0.542151	-0.357574	0.302159
C44	C	1.042151	0.142426	0.802159
C45	C	0.574865	-0.310007	0.262148
C46	C	1.074865	0.189993	0.762148
C47	C	0.640300	-0.310021	0.262126
C48	C	1.140300	0.189979	0.762126
C49	C	0.438426	-0.351592	0.245753
C50	C	0.938426	0.148408	0.745753
C51	C	0.372993	-0.351583	0.245774
C52	C	0.872993	0.148417	0.745774
C53	C	0.340330	-0.357526	0.302228
C54	C	0.840330	0.142474	0.802228
C55	C	0.373108	-0.363494	0.358662
C56	C	0.873108	0.136506	0.858662
C57	C	0.438542	-0.363508	0.358640
C58	C	0.938542	0.136492	0.858640
C59	C	0.471198	-0.357553	0.302179
C60	C	0.971198	0.142447	0.802179
C61	C	0.236671	-0.405067	0.342269
C62	C	0.736671	0.094933	0.842269
C63	C	0.171234	-0.405044	0.342298
C64	C	0.671234	0.094956	0.842298
C65	C	0.171224	-0.309911	0.262291
C66	C	0.671224	0.190089	0.762291
C67	C	0.236659	-0.309931	0.262268
C68	C	0.736659	0.190069	0.762268
C69	C	0.269379	-0.357513	0.302256
C70	C	0.769379	0.142487	0.802256
C71	C	0.905372	-0.550481	0.302192
C72	C	1.405372	-0.050481	0.802192
C73	C	0.905397	-0.633027	0.302209
C74	C	1.405397	-0.133027	0.802209
C75	C	0.863601	-0.832511	0.344027
C76	C	1.363601	-0.332511	0.844027
C77	C	0.848322	-0.881943	0.286848
C78	C	1.348322	-0.381943	0.786848
C79	C	0.905459	-0.784157	0.302217
C80	C	1.405459	-0.284157	0.802217
C81	C	0.920768	-0.881806	0.359402
C82	C	1.420768	-0.381806	0.859402
C83	C	0.905517	-0.930142	0.302230
C84	C	1.405517	-0.430142	0.802230
C85	C	0.890151	-0.832503	0.245009
C86	C	1.390151	-0.332503	0.745009
C87	C	0.962623	-0.832361	0.317601
C88	C	1.462623	-0.332361	0.817601
C89	C	0.947366	-0.881772	0.260383
C90	C	1.447366	-0.381772	0.760383
C91	C	0.905424	-0.700059	0.302211
C92	C	1.405424	-0.200059	0.802211
C93	C	0.905552	-1.014239	0.302230
C94	C	1.405552	-0.514239	0.802230
C95	C	1.068871	-0.357490	0.302276
C96	C	1.568871	0.142510	0.802276
C97	C	1.138513	-0.357474	0.302307
C98	C	1.638513	0.142526	0.802307
C99	C	0.905500	-0.357514	0.465626
C100	C	1.405500	0.142486	0.965626
C101	C	0.905522	-0.357508	0.535268
C102	C	1.405522	0.142492	1.035268
C103	C	0.905541	-0.163823	0.302227
C104	C	1.405541	0.336177	0.802227
C105	C	0.905581	-0.081278	0.302237
C106	C	1.405581	0.418722	0.802237
C107	C	0.905432	-0.357490	0.139415
C108	C	1.405432	0.142510	0.639415
C109	C	0.905531	-0.357288	0.069774
C110	C	1.405531	0.142712	0.569774
C111	C	0.945617	-0.309997	0.568006
C112	C	1.445617	0.190003	1.068006
C113	C	0.945616	-0.309965	0.633441
C114	C	1.445616	0.190035	1.133441
C115	C	0.905527	-0.357457	0.666136
C116	C	1.405527	0.142543	1.166136
C117	C	0.865425	-0.404971	0.633390
C118	C	1.365425	0.095029	1.133390
C119	C	0.865422	-0.404996	0.567956
C120	C	1.365422	0.095004	1.067956
C121	C	0.900554	-0.424328	0.769805
C122	C	1.400554	0.075672	1.269805
C123	C	0.900560	-0.424304	0.835238
C124	C	1.400560	0.075696	1.335238
C125	C	0.905531	-0.357379	0.867957
C126	C	1.405531	0.142621	1.367957
C127	C	0.910508	-0.290475	0.835234
C128	C	1.410508	0.209525	1.335234
C129	C	0.910505	-0.290501	0.769800
C130	C	1.410505	0.209499	1.269800
C131	C	0.905525	-0.357435	0.737088
C132	C	1.405525	0.142565	1.237088
C133	C	0.945627	-0.309829	0.971647
C134	C	1.445627	0.190171	1.471647
C135	C	0.945621	-0.309796	1.037084
C136	C	1.445621	0.190204	1.537084
C137	C	0.865434	-0.404809	1.037032
C138	C	1.365434	0.095191	1.537032
C139	C	0.865436	-0.404835	0.971596
C140	C	1.365436	0.095165	1.471596
C141	C	0.905535	-0.357347	0.938908
C142	C	1.405535	0.142653	1.438908
H143	H	0.548242	-0.443870	0.374731
H144	H	1.048242	0.056130	0.874731
H145	H	0.832790	-0.443528	0.944941
H146	H	1.332790	0.056472	1.444941
H147	H	0.832782	-0.443637	0.660014
H148	H	1.332782	0.056363	1.160014
F149	F	0.473425	-0.369857	0.418699
F150	F	0.973425	0.130143	0.918699
H151	H	0.144579	-0.271177	0.229733
H152	H	0.644579	0.228823	0.729733
H153	H	0.263312	-0.443807	0.374833
H154	H	0.763312	0.056193	0.874833
F155	F	0.988305	-0.259235	1.071926
F156	F	1.488305	0.240765	1.571926
F157	F	0.785169	-0.910407	0.269842
F158	F	1.285169	-0.410407	0.769842
H159	H	0.832770	-0.443684	0.541301
H160	H	1.332770	0.056316	1.041301
F161	F	0.136425	-0.455661	0.384885
F162	F	0.636425	0.044339	0.884885
H163	H	0.933693	-0.903463	0.407758
H164	H	1.433693	-0.403463	0.907758
H165	H	0.263290	-0.271208	0.229686
H166	H	0.763290	0.228792	0.729686
F167	F	0.675131	-0.455800	0.384682
F168	F	1.175131	0.044200	0.884682
H169	H	0.877170	-0.810935	0.196640
H170	H	1.377170	-0.310935	0.696640
F171	F	0.988281	-0.259384	0.668290
F172	F	1.488281	0.240616	1.168290
F173	F	0.993668	-0.909867	0.214125
F174	F	1.493668	-0.409867	0.714125
F175	F	0.915799	-0.219300	0.734977
F176	F	1.415799	0.280700	1.234977
H177	H	0.346516	-0.368333	0.404632
H178	H	0.846516	0.131667	0.904632
F179	F	0.338114	-0.345231	0.185713
F180	F	0.838114	0.154769	0.685713
H181	H	0.465014	-0.346749	0.199778
H182	H	0.965014	0.153251	0.699778
F183	F	0.540035	-0.259378	0.219590
F184	F	1.040035	0.240622	0.719590
H185	H	0.896512	-0.478780	0.861876
H186	H	1.396512	0.021220	1.361876
H187	H	0.666929	-0.271291	0.229547
H188	H	1.166929	0.228709	0.729547
H189	H	0.896338	-0.478812	0.743171
H190	H	1.396338	0.021188	1.243171
F191	F	0.817267	-0.804235	0.390176
F192	F	1.317267	-0.304235	0.890176
F193	F	0.988292	-0.259452	0.533220
F194	F	1.488292	0.240548	1.033220
F195	F	1.025759	-0.803875	0.334628
F196	F	1.525759	-0.303875	0.834628
H197	H	0.914556	-0.235979	0.861872
H198	H	1.414556	0.264021	1.361872
F199	F	0.988301	-0.259286	0.936856
F200	F	1.488301	0.240714	1.436856
H201	H	0.832786	-0.443470	1.063651
H202	H	1.332786	0.056530	1.563651
