data_functionalizedCrystal
_audit_creation_method	'MofGen! by Chris Wilmer'
_symmetry_space_group_name_H-M	'P1'
_symmetry_Int_Tables_number	1
_symmetry_cell_setting	triclinic
loop_
_symmetry_equiv_pos_as_xyz
  x,y,z
_cell_length_a	19.377372
_cell_length_b	21.606444
_cell_length_c	21.606444
_cell_angle_alpha	60.001331
_cell_angle_beta	90.001711
_cell_angle_gamma	72.112173
loop_
_atom_site_label
_atom_site_type_symbol
_atom_site_fract_x
_atom_site_fract_y
_atom_site_fract_z
Zr1	Zr	0.580545	0.861715	-0.173331
O2	O	0.484312	0.960293	-0.256882
O3	O	0.610046	0.741959	-0.147721
O4	O	0.610038	0.871080	-0.276838
O5	O	0.484325	0.831169	-0.025911
O6	O	0.709212	0.902558	-0.292577
O7	O	0.484320	0.831172	-0.127765
O8	O	0.709226	0.671583	-0.061610
O9	O	0.484311	1.062144	-0.256878
O10	O	0.696639	0.822551	-0.148540
O11	O	0.622631	0.799057	-0.060783
O12	O	0.622621	0.951081	-0.212802
O13	O	0.548613	0.927588	-0.125044
Zr14	Zr	0.738723	0.911913	-0.035987
Zr15	Zr	0.738715	0.911918	-0.198432
Zr16	Zr	0.580553	0.861710	-0.010886
Zr17	Zr	0.580543	1.024154	-0.173325
Zr18	Zr	0.738725	0.749473	-0.035993
O19	O	0.709222	1.031669	-0.061597
O20	O	0.709211	1.031675	-0.292572
O21	O	0.484324	0.960287	-0.025907
O22	O	0.834956	0.813334	0.047563
O23	O	0.834944	0.813341	-0.183411
O24	O	0.610057	0.741952	0.083254
O25	O	0.834943	0.942459	-0.183407
O26	O	0.709230	0.902548	0.067520
O27	O	0.610056	0.871070	0.083258
O28	O	0.834948	0.942456	-0.081554
O29	O	0.610036	1.102048	-0.276830
O30	O	0.709232	0.671579	0.067512
O31	O	0.834957	0.711484	0.047560
O32	O	0.834950	0.711488	-0.081562
O33	O	0.484318	1.062140	-0.127757
O34	O	0.610042	1.102045	-0.147709
O35	O	0.696647	0.822547	0.003484
O36	O	0.770655	0.846040	-0.084274
O37	O	0.696637	0.974570	-0.148535
O38	O	0.622629	0.951077	-0.060778
C39	C	0.659636	0.683627	-0.104666
C40	C	0.659637	0.614667	-0.104668
C41	C	0.698267	0.594532	-0.150478
C42	C	0.698269	0.529733	-0.150473
C43	C	0.659637	0.485072	-0.104662
C44	C	0.621006	0.505209	-0.058848
C45	C	0.621008	0.570005	-0.058849
C46	C	0.620997	0.243897	-0.058840
C47	C	0.620996	0.179100	-0.058844
C48	C	0.698259	0.203626	-0.150464
C49	C	0.698261	0.268421	-0.150465
C50	C	0.659633	0.288550	-0.104649
C51	C	0.659632	0.358812	-0.104653
C52	C	0.659634	0.414815	-0.104661
C53	C	0.461787	0.824018	-0.073262
C54	C	0.394639	0.802705	-0.062606
C55	C	-0.019378	1.068061	-0.195279
C56	C	-0.082463	1.048017	-0.185257
C57	C	-0.005185	0.913841	-0.118173
C58	C	0.057908	0.933874	-0.128187
C59	C	0.050805	1.010985	-0.166741
C60	C	0.128091	0.876798	-0.099649
C61	C	0.191178	0.896829	-0.109665
C62	C	0.184083	0.973937	-0.148220
C63	C	0.113892	1.031017	-0.176758
C64	C	0.135193	0.799687	-0.061099
C65	C	0.205376	0.742611	-0.032561
C66	C	0.268465	0.762642	-0.042572
C67	C	0.261369	0.839750	-0.081127
C68	C	0.338655	0.705562	-0.014034
C69	C	0.401742	0.725594	-0.024051
C70	C	0.324456	0.859781	-0.091144
C71	C	0.857481	0.949610	-0.136057
C72	C	0.924629	0.970923	-0.146713
C73	C	0.659624	0.886819	-0.307852
C74	C	0.659621	0.886821	-0.376814
C75	C	0.659632	1.090001	-0.104652
C76	C	0.659631	1.158961	-0.104650
C77	C	0.620984	0.953912	-0.442756
C78	C	0.620990	0.953912	-0.507552
C79	C	0.659629	0.886818	-0.506404
C80	C	0.698271	0.819723	-0.440454
C81	C	0.698268	0.819725	-0.375661
C82	C	0.698283	0.819711	-0.701759
C83	C	0.698280	0.819713	-0.766560
C84	C	0.621004	0.953898	-0.833651
C85	C	0.621002	0.953900	-0.768857
C86	C	0.659646	0.886806	-0.702914
C87	C	0.659640	0.886808	-0.632656
C88	C	0.659632	0.886815	-0.576660
C89	C	0.659644	0.886808	0.098534
C90	C	0.659647	0.886806	0.167496
C91	C	0.857483	0.746423	-0.136064
C92	C	0.924632	0.698775	-0.146722
C93	C	0.659646	0.683621	0.098527
C94	C	0.659650	0.614659	0.167486
C95	C	0.857493	0.746417	0.067129
C96	C	0.924645	0.698768	0.125433
C97	C	0.461775	1.027211	-0.276448
C98	C	0.394623	1.074860	-0.334751
C99	C	0.461785	1.027205	-0.073255
C100	C	0.394636	1.074852	-0.062596
C101	C	0.659622	1.090007	-0.307845
C102	C	0.659618	1.158969	-0.376805
C103	C	0.917530	0.664138	-0.185281
C104	C	0.980616	0.619376	-0.195309
C105	C	1.050805	0.609246	-0.166775
C106	C	1.057905	0.643889	-0.128215
C107	C	0.994819	0.688655	-0.118191
C108	C	0.698288	0.594535	0.233424
C109	C	0.698289	0.529746	0.298225
C110	C	0.659656	0.485080	0.297087
C111	C	0.621014	0.505209	0.231143
C112	C	0.621009	0.569999	0.166344
C113	C	0.994818	0.688657	0.107003
C114	C	1.057921	0.643896	0.161778
C115	C	1.050848	0.609243	0.234983
C116	C	0.980667	0.619358	0.253412
C117	C	0.917566	0.664123	0.198637
C118	C	0.324450	1.084979	-0.316322
C119	C	0.261347	1.129760	-0.371097
C120	C	0.268420	1.164416	-0.444301
C121	C	0.338601	1.154297	-0.462730
C122	C	0.401702	1.109521	-0.407956
C123	C	0.401738	1.109496	-0.024044
C124	C	0.338652	1.154277	-0.014033
C125	C	0.268463	1.164408	-0.042570
C126	C	0.261363	1.129763	-0.081127
C127	C	0.324449	1.084987	-0.091142
C128	C	0.698258	1.203617	-0.375643
C129	C	0.698268	1.268410	-0.440434
C130	C	0.659634	1.288556	-0.506385
C131	C	0.620993	1.243901	-0.507545
C132	C	0.620987	1.179106	-0.442755
H133	H	0.729722	0.630894	-0.187785
H134	H	0.729747	0.765075	-0.765617
H135	H	0.659666	0.432325	0.349856
H136	H	0.589538	1.260314	-0.561251
H137	H	1.115061	0.635635	-0.104985
O138	O	0.583428	0.461915	0.229918
C139	C	0.549337	0.493549	0.157823
H140	H	0.541670	0.556801	0.124468
H141	H	0.585550	0.462544	0.132992
C142	C	0.482954	0.406859	0.198638
C143	C	0.473532	0.484548	0.157672
H144	H	0.436195	0.401304	0.198544
H145	H	0.505924	0.385544	0.247209
H146	H	0.513134	0.381030	0.177940
H147	H	0.443360	0.510374	0.178376
H148	H	0.450555	0.505867	0.109104
H149	H	0.659645	1.341318	-0.559135
H150	H	1.000612	0.716852	-0.086789
O151	O	0.193125	1.139684	-0.353312
C152	C	0.138939	1.186622	-0.417348
H153	H	0.163510	1.222778	-0.464203
H154	H	0.119199	1.149368	-0.430730
C155	C	0.043046	1.194972	-0.348376
C156	C	0.073223	1.239384	-0.405924
H157	H	0.002507	1.227516	-0.341330
H158	H	0.079551	1.163346	-0.305234
H159	H	0.026602	1.163929	-0.359536
H160	H	0.089674	1.270418	-0.394760
H161	H	0.036719	1.271016	-0.449065
H162	H	0.860430	0.672346	0.213654
H163	H	0.729716	0.304784	-0.187771
O164	O	0.735900	0.510199	-0.194939
C165	C	0.811319	0.496643	-0.177728
H166	H	0.817641	0.527920	-0.149674
H167	H	0.842321	0.432682	-0.139819
C168	C	0.835517	0.487574	-0.282492
C169	C	0.843282	0.525993	-0.248040
H170	H	0.855235	0.505674	-0.325862
H171	H	0.784706	0.496703	-0.294086
H172	H	0.861352	0.434275	-0.250893
H173	H	0.817440	0.579289	-0.279635
H174	H	0.894089	0.516873	-0.236453
H175	H	1.102234	0.572795	0.279577
O176	O	0.735895	1.311734	-0.439351
C177	C	0.790120	1.313126	-0.483061
H178	H	0.804484	1.260899	-0.488337
H179	H	0.768013	1.367271	-0.539316
C180	C	0.842168	1.376204	-0.441208
C181	C	0.859814	1.312054	-0.447683
H182	H	0.885158	1.375547	-0.419388
H183	H	0.805634	1.375269	-0.411761
H184	H	0.823745	1.421318	-0.488090
H185	H	0.878228	1.266942	-0.400801
H186	H	0.896353	1.312982	-0.477121
O187	O	0.583407	1.019136	-0.897644
C188	C	0.549316	1.078356	-0.884764
H189	H	0.541666	1.052662	-0.825730
H190	H	0.585521	1.114249	-0.895814
C191	C	0.482902	1.160828	-1.008016
C192	C	0.473500	1.129269	-0.935512
H193	H	0.436137	1.192236	-1.039322
H194	H	0.505872	1.120931	-1.016695
H195	H	0.513075	1.190734	-1.017214
H196	H	0.443336	1.099357	-0.926313
H197	H	0.450524	1.169162	-0.926833
H198	H	0.458838	1.101283	-0.422970
H199	H	0.974919	0.591137	0.313022
O200	O	1.112061	0.565637	-0.176420
C201	C	1.111922	0.490652	-0.144874
H202	H	1.076253	0.479410	-0.101245
H203	H	1.088627	0.483832	-0.188637
C204	C	1.235232	0.446949	-0.163822
C205	C	1.191427	0.433139	-0.110231
H206	H	1.284275	0.411471	-0.142455
H207	H	1.235325	0.497468	-0.185077
H208	H	1.215811	0.441266	-0.200286
H209	H	1.210844	0.438831	-0.073773
H210	H	1.191340	0.382619	-0.088969
O211	O	0.583531	0.263542	-0.014367
C212	C	0.591797	0.330319	-0.024199
H213	H	0.643979	0.336239	-0.047085
H214	H	0.541879	0.382248	-0.063786
C215	C	0.533675	0.317845	0.077559
C216	C	0.597770	0.325113	0.049456
H217	H	0.537356	0.314636	0.122992
H218	H	0.528103	0.272858	0.084183
H219	H	0.492083	0.361121	0.044564
H220	H	0.639359	0.281833	0.082447
H221	H	0.603349	0.370093	0.042840
H222	H	0.589535	1.008534	-0.769799
O223	O	0.345468	1.187872	0.023500
C224	C	0.311303	1.161176	0.084621
H225	H	0.268290	1.139485	0.074759
H226	H	0.354682	1.112626	0.134645
C227	C	0.326315	1.253542	0.109250
C228	C	0.273482	1.226906	0.097134
H229	H	0.302988	1.294085	0.116971
H230	H	0.349335	1.271526	0.068073
H231	H	0.362461	1.213077	0.150935
H232	H	0.237342	1.267368	0.055445
H233	H	0.250454	1.208930	0.138304
O234	O	0.583378	1.135845	-0.444012
C235	C	0.549297	1.167519	-0.516120
H236	H	0.541663	1.230764	-0.549450
H237	H	0.585499	1.136517	-0.540959
C238	C	0.482852	1.080887	-0.475372
C239	C	0.473470	1.158567	-0.516307
H240	H	0.436080	1.075362	-0.475488
H241	H	0.505815	1.059545	-0.426791
H242	H	0.513023	1.055061	-0.496076
H243	H	0.443307	1.184390	-0.495597
H244	H	0.450500	1.179913	-0.564884
H245	H	0.318677	1.056761	-0.256719
H246	H	0.589514	1.008546	-0.443700
H247	H	0.729714	0.187228	-0.187768
H248	H	0.729730	0.765093	-0.321968
H249	H	0.458884	1.101251	-0.000800
H250	H	0.729718	1.187226	-0.321949
H251	H	0.589536	0.142737	-0.021536
H252	H	0.318671	0.922573	-0.122516
H253	H	0.729750	0.765079	-0.648074
O254	O	0.207174	1.207839	-0.497569
C255	C	0.207265	1.176201	-0.540989
H256	H	0.266183	1.139798	-0.536186
H257	H	0.171659	1.139052	-0.521737
C258	C	0.103512	1.285712	-0.626812
C259	C	0.175877	1.241005	-0.620917
H260	H	0.084147	1.325685	-0.676115
H261	H	0.103448	1.307025	-0.597558
H262	H	0.073850	1.254745	-0.610764
H263	H	0.205540	1.271970	-0.636956
H264	H	0.175945	1.219698	-0.650176
H265	H	0.344351	1.182520	-0.522339
H266	H	0.729736	0.765096	-0.439524
O267	O	0.207108	1.207910	-0.032935
C268	C	0.143630	1.209415	-0.066373
H269	H	0.158095	1.196157	-0.110629
H270	H	0.122382	1.164794	-0.023935
C271	C	0.065687	1.305529	-0.046089
C272	C	0.083452	1.289251	-0.100449
H273	H	0.028565	1.354774	-0.067106
H274	H	0.108453	1.304514	-0.023559
H275	H	0.047985	1.268339	-0.010728
H276	H	0.101163	1.326435	-0.135804
H277	H	0.040687	1.290275	-0.122986
H278	H	0.729747	0.630897	0.234365
H279	H	0.589548	0.586375	0.112657
H280	H	0.589555	0.468839	-0.021544
H281	H	0.589550	0.586398	-0.021548
O282	O	1.001568	0.722345	0.035860
C283	C	0.930832	0.764045	-0.008546
H284	H	0.889014	0.740126	0.023337
H285	H	0.914753	0.826714	-0.026257
C286	C	0.983139	0.786625	-0.115355
C287	C	0.931777	0.757243	-0.076198
H288	H	0.983721	0.782433	-0.157088
H289	H	1.030795	0.758533	-0.085439
H290	H	0.969733	0.838847	-0.130107
H291	H	0.945189	0.705020	-0.061439
H292	H	0.884123	0.785326	-0.106113
O293	O	0.973748	0.585814	-0.232863
C294	C	1.007927	0.612483	-0.293977
H295	H	1.010840	0.670196	-0.309192
H296	H	1.066122	0.569795	-0.280513
C297	C	0.959137	0.550432	-0.339684
C298	C	0.962709	0.621320	-0.358375
H299	H	0.931247	0.555880	-0.379407
H300	H	0.936112	0.532462	-0.298509
H301	H	1.007636	0.514866	-0.328463
H302	H	0.914211	0.656882	-0.369587
H303	H	0.985724	0.639296	-0.399554
O304	O	0.317676	1.051298	-0.128591
C305	C	0.388402	1.009581	-0.131297
H306	H	0.430235	1.033488	-0.123336
H307	H	0.404471	0.946914	-0.086337
C308	C	0.336061	0.987010	-0.215520
C309	C	0.387440	1.016377	-0.205748
H310	H	0.335468	0.991198	-0.261443
H311	H	0.288411	1.015112	-0.213695
H312	H	0.349458	0.934789	-0.178048
H313	H	0.374037	1.068598	-0.243213
H314	H	0.435088	0.988283	-0.207581
O315	O	1.126033	0.634121	0.143741
C316	C	1.118736	0.674315	0.067383
H317	H	1.062430	0.683137	0.041779
H318	H	1.123899	0.732236	0.047462
C319	C	1.249008	0.617227	0.076920
C320	C	1.179854	0.628056	0.045473
H321	H	1.286709	0.588695	0.063403
H322	H	1.253925	0.590150	0.128363
H323	H	1.253300	0.665498	0.060315
H324	H	1.175559	0.579786	0.062084
H325	H	1.174938	0.655125	-0.005969
O326	O	0.849409	0.673922	-0.213079
C327	C	0.856684	0.633732	-0.249246
H328	H	0.912984	0.624906	-0.266037
H329	H	0.851518	0.575814	-0.211247
C330	C	0.726407	0.690833	-0.296780
C331	C	0.795554	0.679998	-0.317408
H332	H	0.688698	0.719369	-0.338824
H333	H	0.721505	0.717907	-0.272411
H334	H	0.722112	0.642564	-0.265113
H335	H	0.799851	0.728267	-0.349066
H336	H	0.800456	0.652933	-0.341784
O337	O	0.193218	1.139464	-0.108790
C338	C	0.185121	1.067755	-0.078310
H339	H	0.241914	1.020960	-0.058282
H340	H	0.154988	1.057321	-0.030681
C341	C	0.070508	1.124206	-0.161008
C342	C	0.140262	1.066732	-0.136415
H343	H	0.042834	1.123575	-0.196848
H344	H	0.075961	1.172518	-0.181541
H345	H	0.045407	1.115504	-0.121311
H346	H	0.165365	1.075440	-0.176109
H347	H	0.134812	1.018421	-0.115889
H348	H	0.235454	0.990245	-0.156376
H349	H	0.729758	0.513367	0.351913
H350	H	0.108107	1.093808	-0.208131
H351	H	-0.139611	1.094501	-0.208500
O352	O	0.345680	0.630624	0.023405
C353	C	0.421155	0.584541	0.046465
H354	H	0.454800	0.618487	0.010006
H355	H	0.439745	0.566041	0.105100
C356	C	0.391719	0.471642	0.086476
C357	C	0.433041	0.513334	0.041693
H358	H	0.399051	0.427716	0.083537
H359	H	0.340869	0.502688	0.070944
H360	H	0.407214	0.456233	0.135335
H361	H	0.417539	0.528750	-0.007165
H362	H	0.483889	0.482288	0.057218
O363	O	-0.026364	1.142993	-0.232657
C364	C	-0.065263	1.178908	-0.197290
H365	H	-0.100084	1.145291	-0.162709
H366	H	-0.024393	1.180871	-0.160942
C367	C	-0.073155	1.302187	-0.296946
C368	C	-0.115929	1.260902	-0.254477
H369	H	-0.104406	1.352765	-0.332220
H370	H	-0.046945	1.277990	-0.320772
H371	H	-0.039099	1.303815	-0.266648
H372	H	-0.149977	1.259266	-0.284774
H373	H	-0.142145	1.285099	-0.230657
H374	H	0.000588	0.851058	-0.086783
H375	H	0.083820	0.783380	-0.052950
H376	H	0.458889	0.679117	-0.000800
O377	O	0.583507	1.019157	-0.571574
C378	C	0.611919	1.076448	-0.584392
H379	H	0.640212	1.062862	-0.530553
H380	H	0.653623	1.078692	-0.621979
C381	C	0.513647	1.171039	-0.686472
C382	C	0.548392	1.154355	-0.620346
H383	H	0.474462	1.219096	-0.708653
H384	H	0.494507	1.132441	-0.677839
H385	H	0.548408	1.172904	-0.717786
H386	H	0.513634	1.152481	-0.589030
H387	H	0.567525	1.192955	-0.628975
H388	H	0.211148	0.679827	-0.001171
