data_functionalizedCrystal
_audit_creation_method	'MofGen! by Chris Wilmer'
_symmetry_space_group_name_H-M	'P1'
_symmetry_Int_Tables_number	1
_symmetry_cell_setting	triclinic
loop_
_symmetry_equiv_pos_as_xyz
  x,y,z
_cell_length_a	14.853558
_cell_length_b	13.330367
_cell_length_c	10.654550
_cell_angle_alpha	89.996556
_cell_angle_beta	95.941982
_cell_angle_gamma	90.007028
loop_
_atom_site_label
_atom_site_type_symbol
_atom_site_fract_x
_atom_site_fract_y
_atom_site_fract_z
O1	O	1.197251	0.083409	-0.163904
O2	O	0.934895	0.083413	-0.183448
O3	O	1.072106	0.083407	0.009126
O4	O	1.060041	0.083415	-0.356479
O5	O	1.072085	-0.083440	0.009130
O6	O	0.934875	-0.083434	-0.183444
O7	O	1.197231	-0.083439	-0.163900
Cu8	Cu	1.066052	-0.098671	-0.173672
Cu9	Cu	1.066075	0.098645	-0.173677
O10	O	1.060021	-0.083432	-0.356474
C11	C	0.901292	-0.000010	-0.182563
C12	C	0.801194	-0.000008	-0.179915
C13	C	0.754178	0.090944	-0.178676
C14	C	0.754154	-0.090959	-0.178657
C15	C	0.660107	-0.090961	-0.176162
C16	C	0.613091	-0.000009	-0.174923
C17	C	0.660122	0.090945	-0.176178
C18	C	0.613070	-0.181913	-0.174895
C19	C	0.519017	-0.181919	-0.172399
C20	C	0.471999	-0.090965	-0.171169
C21	C	0.519036	-0.000008	-0.172425
C22	C	0.472020	0.090944	-0.171186
C23	C	0.519054	0.181903	-0.172451
C24	C	0.613104	0.181898	-0.174948
C25	C	0.377949	-0.090961	-0.168672
C26	C	0.377964	0.090945	-0.168688
N27	N	1.066041	-0.237452	-0.173667
C28	C	1.005316	-0.710072	-0.258915
C29	C	1.126859	-0.710046	-0.088429
C30	C	1.126849	-0.605027	-0.088425
C31	C	1.066072	-0.552527	-0.173669
C32	C	1.005306	-0.605044	-0.258916
C33	C	1.187620	-0.552502	-0.003187
C34	C	1.187613	-0.447477	-0.003181
C35	C	1.126831	-0.394975	-0.088420
C36	C	1.066062	-0.447499	-0.173670
C37	C	1.005285	-0.394998	-0.258914
C38	C	0.944510	-0.447520	-0.344159
C39	C	0.944524	-0.552542	-0.344155
C40	C	1.126818	-0.289953	-0.088424
C41	C	1.005275	-0.289970	-0.258915
C42	C	1.230835	-0.000013	-0.164786
C43	C	1.330933	-0.000008	-0.167433
C44	C	1.071210	-0.000015	0.055917
C45	C	1.068559	-0.000012	0.195332
N46	N	1.066093	0.237427	-0.173671
C47	C	1.060917	-0.000008	-0.403265
C48	C	1.063567	-0.000005	-0.542681
C49	C	1.149347	-0.000016	0.275661
C50	C	1.146851	-0.000009	0.406656
C51	C	0.982774	0.000003	0.376980
C52	C	0.985271	0.000003	0.245988
C53	C	1.244075	-0.000027	0.292795
C54	C	1.241580	-0.000020	0.423790
H55	H	0.792477	0.165000	-0.179712
Cl56	Cl	0.459940	0.296238	-0.170864
H57	H	0.339690	0.165011	-0.167686
Cl58	Cl	0.868130	-0.618572	-0.451316
H59	H	1.270216	0.072019	0.469730
Cl60	Cl	0.672239	0.296235	-0.176521
H61	H	0.955780	-0.247230	-0.328327
H62	H	0.792441	-0.165008	-0.179656
H63	H	1.176304	-0.247194	-0.019024
Cl64	Cl	1.301291	0.107766	0.248052
Cl65	Cl	0.672179	-0.296245	-0.176457
Cl66	Cl	0.883705	0.000033	0.145006
Cl67	Cl	1.264010	-0.381456	0.103985
Cl68	Cl	0.459896	-0.296264	-0.170826
Cl69	Cl	0.318826	-0.205298	-0.167062
H70	H	0.895029	-0.404762	-0.413571
H71	H	0.914963	0.000015	0.418241
Cl72	Cl	0.928913	-0.776095	-0.366071
Cl73	Cl	1.296668	-0.107821	0.488851
Cl74	Cl	1.290619	-0.111259	0.238265
H75	H	1.176346	-0.752795	-0.019032
H76	H	1.237107	-0.595251	0.066210
