data_functionalizedCrystal
_audit_creation_method	'MofGen! by Chris Wilmer'
_symmetry_space_group_name_H-M	'P1'
_symmetry_Int_Tables_number	1
_symmetry_cell_setting	triclinic
loop_
_symmetry_equiv_pos_as_xyz
  x,y,z
_cell_length_a	17.038275
_cell_length_b	14.853559
_cell_length_c	13.330367
_cell_angle_alpha	89.997552
_cell_angle_beta	90.001043
_cell_angle_gamma	92.628381
loop_
_atom_site_label
_atom_site_type_symbol
_atom_site_fract_x
_atom_site_fract_y
_atom_site_fract_z
O1	O	-1.037622	0.195791	-0.083271
O2	O	-0.537622	0.695791	0.416729
O3	O	-0.809987	0.192682	-0.083304
O4	O	-0.309987	0.692682	0.416696
O5	O	-0.929889	0.063464	-0.083286
O6	O	-0.429889	0.563464	0.416714
O7	O	-0.917721	0.325009	-0.083289
O8	O	-0.417721	0.825009	0.416711
O9	O	-0.929871	0.063460	0.083562
O10	O	-0.429871	0.563460	0.583562
O11	O	-0.809970	0.192677	0.083543
O12	O	-0.309970	0.692677	0.583543
O13	O	-1.037605	0.195787	0.083577
O14	O	-0.537605	0.695787	0.583577
Cu15	Cu	-0.923786	0.194232	0.098794
Cu16	Cu	-0.423786	0.694232	0.598794
Cu17	Cu	-0.923806	0.194237	-0.098522
Cu18	Cu	-0.423806	0.694237	0.401478
O19	O	-0.917703	0.325004	0.083558
O20	O	-0.417703	0.825004	0.583558
C21	C	-0.780847	0.189852	0.000115
C22	C	-0.280847	0.689852	0.500115
C23	C	-0.694043	0.181416	0.000102
C24	C	-0.194043	0.681416	0.500102
C25	C	-0.929330	0.029832	0.000136
C26	C	-0.429330	0.529832	0.500136
C27	C	-0.927681	-0.070377	0.000130
C28	C	-0.427681	0.429623	0.500130
C29	C	-0.644029	0.258869	0.000100
C30	C	-0.144029	0.758869	0.500100
C31	C	-0.562468	0.250937	0.000113
C32	C	-0.062468	0.750937	0.500113
C33	C	-0.530923	0.165550	0.000119
C34	C	-0.030923	0.665550	0.500119
C35	C	-0.580944	0.088091	0.000124
C36	C	-0.080944	0.588091	0.500124
C37	C	-0.662503	0.096024	0.000118
C38	C	-0.162503	0.596024	0.500118
C39	C	-0.285129	0.137525	0.000142
C40	C	0.214871	0.637525	0.500142
C41	C	-0.203564	0.129597	0.000144
C42	C	0.296436	0.629597	0.500144
C43	C	-0.185093	0.292443	0.000135
C44	C	0.314907	0.792443	0.500135
C45	C	-0.266655	0.300369	0.000124
C46	C	0.233345	0.800369	0.500124
C47	C	-0.316668	0.222910	0.000134
C48	C	0.183332	0.722910	0.500134
C49	C	-0.447555	0.157440	0.000129
C50	C	0.052445	0.657440	0.500129
C51	C	-0.400035	0.231021	0.000131
C52	C	0.099965	0.731021	0.500131
C53	C	-0.920697	-0.494076	-0.090819
C54	C	-0.420697	0.005924	0.409181
C55	C	-0.920678	-0.494075	0.091084
C56	C	-0.420678	0.005925	0.591084
C57	C	-0.922233	-0.399925	0.091085
C58	C	-0.422233	0.100075	0.591085
C59	C	-0.923019	-0.352845	0.000132
C60	C	-0.423019	0.147155	0.500132
C61	C	-0.922250	-0.399916	-0.090821
C62	C	-0.422250	0.100084	0.409179
C63	C	-0.922995	-0.352846	0.182037
C64	C	-0.422995	0.147154	0.682037
C65	C	-0.924549	-0.258690	0.182042
C66	C	-0.424549	0.241310	0.682042
C67	C	-0.925341	-0.211609	0.091088
C68	C	-0.425341	0.288391	0.591088
C69	C	-0.924573	-0.258686	0.000131
C70	C	-0.424573	0.241314	0.500131
C71	C	-0.925359	-0.211607	-0.090822
C72	C	-0.425359	0.288393	0.409178
C73	C	-0.924596	-0.258682	-0.181780
C74	C	-0.424596	0.241318	0.318220
C75	C	-0.923042	-0.352836	-0.181775
C76	C	-0.423042	0.147164	0.318225
C77	C	-0.926895	-0.117456	0.091083
C78	C	-0.426895	0.382544	0.591083
C79	C	-0.926912	-0.117448	-0.090823
C80	C	-0.426912	0.382552	0.409177
C81	C	-0.066745	0.198616	0.000150
C82	C	0.433255	0.698616	0.500150
C83	C	-0.153549	0.207051	0.000143
C84	C	0.346451	0.707051	0.500143
C85	C	-0.918262	0.358637	0.000134
C86	C	-0.418262	0.858637	0.500134
C87	C	-0.919911	0.458845	0.000133
C88	C	-0.419911	0.958845	0.500133
N89	N	-0.923777	0.194228	0.237576
N90	N	-0.423777	0.694228	0.737576
N91	N	-0.923821	0.194234	-0.237303
N92	N	-0.423821	0.694234	0.262697
C93	C	-0.870712	0.251430	0.710190
C94	C	-0.370712	0.751430	1.210190
C95	C	-0.976922	0.137038	0.710175
C96	C	-0.476922	0.637038	1.210175
C97	C	-0.976913	0.137035	0.605156
C98	C	-0.476913	0.637035	1.105156
C99	C	-0.923804	0.194231	0.552650
C100	C	-0.423804	0.694231	1.052650
C101	C	-0.870703	0.251430	0.605162
C102	C	-0.370703	0.751430	1.105162
C103	C	-1.030018	0.079843	0.552637
C104	C	-0.530018	0.579843	1.052637
C105	C	-1.030012	0.079837	0.447612
C106	C	-0.530012	0.579837	0.947612
C107	C	-0.976898	0.137030	0.395104
C108	C	-0.476898	0.637030	0.895104
C109	C	-0.923795	0.194231	0.447622
C110	C	-0.423795	0.694231	0.947622
C111	C	-0.870685	0.251427	0.395116
C112	C	-0.370685	0.751427	0.895116
C113	C	-0.817577	0.308625	0.447632
C114	C	-0.317577	0.808625	0.947632
C115	C	-0.817589	0.308623	0.552654
C116	C	-0.317589	0.808623	1.052654
C117	C	-0.976886	0.137032	0.290082
C118	C	-0.476886	0.637032	0.790082
C119	C	-0.870676	0.251427	0.290087
C120	C	-0.370676	0.751427	0.790087
H121	H	-0.669705	0.328399	0.000094
H122	H	-0.169705	0.828399	0.500094
H123	H	-0.555254	0.018568	0.000143
H124	H	-0.055254	0.518568	0.500143
H125	H	-0.421862	0.087918	0.000163
H126	H	0.078138	0.587918	0.500163
H127	H	-0.927556	-0.079122	-0.164889
H128	H	-0.427556	0.420878	0.335111
H129	H	-0.703225	0.032953	0.000119
H130	H	-0.203225	0.532953	0.500119
H131	H	-1.073254	0.033264	0.404859
H132	H	-0.573254	0.533264	0.904859
Cl133	Cl	-0.927853	-0.058279	0.205420
Cl134	Cl	-0.427853	0.441721	0.705420
Cl135	Cl	-0.499595	0.348312	0.000105
Cl136	Cl	0.000405	0.848312	0.500105
Cl137	Cl	-0.803902	0.323331	0.224088
Cl138	Cl	-0.303902	0.823331	0.724088
Cl139	Cl	-1.043650	0.065138	0.224068
Cl140	Cl	-0.543650	0.565138	0.724068
Cl141	Cl	-0.750833	0.380525	0.618676
Cl142	Cl	-0.250833	0.880525	1.118676
Cl143	Cl	-0.919676	-0.553260	0.205417
Cl144	Cl	-0.419676	-0.053260	0.705417
Cl145	Cl	-0.439692	0.338360	0.000126
Cl146	Cl	0.060308	0.838360	0.500126
Cl147	Cl	-0.750818	0.380532	0.381613
Cl148	Cl	-0.250818	0.880532	0.881613
Cl149	Cl	-0.803947	0.323329	0.776205
Cl150	Cl	-0.303947	0.823329	1.276205
H151	H	-0.325841	0.074451	0.000151
H152	H	0.174159	0.574451	0.500151
Cl153	Cl	-0.925505	-0.199518	0.296387
Cl154	Cl	-0.425505	0.300482	0.796387
H155	H	-0.925230	-0.220338	-0.255833
H156	H	-0.425230	0.279662	0.244167
Cl157	Cl	-1.043691	0.065143	0.776180
Cl158	Cl	-0.543691	0.565143	1.276180
Cl159	Cl	-1.096787	0.007948	0.618642
Cl160	Cl	-0.596787	0.507948	1.118642
H161	H	-0.922420	-0.391173	-0.255828
H162	H	-0.422420	0.108827	0.244172
H163	H	-0.922350	-0.391185	0.256085
H164	H	-0.422350	0.108815	0.756085
H165	H	-0.292332	0.369899	0.000107
H166	H	0.207668	0.869899	0.500107
Cl167	Cl	-0.919746	-0.553253	-0.205161
Cl168	Cl	-0.419746	-0.053253	0.294839
H169	H	-0.144363	0.355506	0.000130
H170	H	0.355637	0.855506	0.500130
H171	H	-0.177884	0.060062	0.000148
H172	H	0.322116	0.560062	0.500148
