data_functionalizedCrystal
_audit_creation_method	'MofGen! by Chris Wilmer'
_symmetry_space_group_name_H-M	'P1'
_symmetry_Int_Tables_number	1
_symmetry_cell_setting	triclinic
loop_
_symmetry_equiv_pos_as_xyz
  x,y,z
_cell_length_a	19.188925
_cell_length_b	19.188924
_cell_length_c	9.482900
_cell_angle_alpha	99.300357
_cell_angle_beta	80.741727
_cell_angle_gamma	83.142256
loop_
_atom_site_label
_atom_site_type_symbol
_atom_site_fract_x
_atom_site_fract_y
_atom_site_fract_z
O1	O	0.937064	0.076181	-0.120932
O2	O	1.437064	0.576181	0.379068
O3	O	0.733752	0.087919	-0.120929
O4	O	1.233752	0.587919	0.379071
O5	O	0.841276	-0.019605	-0.120914
O6	O	1.341276	0.480395	0.379086
O7	O	0.829540	0.183705	-0.120948
O8	O	1.329540	0.683705	0.379052
O9	O	0.819435	0.002323	0.120875
O10	O	1.319435	0.502323	0.620875
O11	O	0.711911	0.109847	0.120860
O12	O	1.211911	0.609847	0.620860
O13	O	0.915223	0.098109	0.120857
O14	O	1.415223	0.598109	0.620857
Cu15	Cu	0.811573	0.105980	0.142936
Cu16	Cu	1.311573	0.605980	0.642936
Cu17	Cu	0.837402	0.080048	-0.143008
Cu18	Cu	1.337402	0.580048	0.356992
O19	O	0.807699	0.205632	0.120841
O20	O	1.307699	0.705632	0.620841
C21	C	0.696820	0.098504	-0.000034
C22	C	1.196820	0.598504	0.499966
C23	C	0.619315	0.097365	-0.000032
C24	C	1.119315	0.597365	0.499968
C25	C	0.057545	0.152828	-0.000045
C26	C	0.557545	0.652828	0.499955
C27	C	0.130369	0.153904	-0.000053
C28	C	0.630369	0.653904	0.499947
C29	C	0.175304	0.090812	-0.000040
C30	C	0.675304	0.590812	0.499960
C31	C	0.147413	0.026637	-0.000056
C32	C	0.647413	0.526637	0.499944
C33	C	0.074591	0.025562	-0.000062
C34	C	0.574591	0.525562	0.499938
N35	N	0.288547	0.052601	0.082275
N36	N	0.788547	0.552601	0.582275
N37	N	0.357723	0.053627	0.082284
N38	N	0.857723	0.553627	0.582284
C39	C	0.394711	0.094048	-0.000023
C40	C	0.894711	0.594048	0.499977
N41	N	0.359907	0.133416	-0.082322
N42	N	0.859907	0.633416	0.417678
N43	N	0.290723	0.132393	-0.082325
N44	N	0.790723	0.632393	0.417675
C45	C	0.254267	0.091971	-0.000034
C46	C	0.754267	0.591971	0.499966
C47	C	0.501559	0.159384	-0.000026
C48	C	1.001559	0.659384	0.499974
C49	C	0.574385	0.160457	-0.000043
C50	C	1.074385	0.660457	0.499957
C51	C	0.591427	0.033190	-0.000031
C52	C	1.091427	0.533190	0.499969
C53	C	0.518603	0.032118	-0.000029
C54	C	1.018603	0.532118	0.499971
C55	C	0.473672	0.095218	-0.000019
C56	C	0.973672	0.595218	0.499981
C57	C	0.829976	-0.034652	-0.000018
C58	C	1.329976	0.465348	0.499982
C59	C	0.828837	-0.112156	-0.000014
C60	C	1.328837	0.387844	0.499986
C61	C	0.840211	-0.160508	-0.131814
C62	C	1.340211	0.339492	0.368186
C63	C	0.839132	-0.233331	-0.131825
C64	C	1.339132	0.266669	0.368175
C65	C	0.826693	-0.257802	-0.000029
C66	C	1.326693	0.242198	0.499971
C67	C	0.815313	-0.209439	0.131789
C68	C	1.315313	0.290561	0.631789
C69	C	0.816385	-0.136616	0.131796
C70	C	1.316385	0.363384	0.631796
N71	N	0.855880	-0.368570	0.098064
N72	N	1.355880	0.131430	0.598064
N73	N	0.854864	-0.437749	0.098048
N74	N	1.354864	0.062251	0.598048
C75	C	0.823460	-0.477212	-0.000042
C76	C	1.323460	0.022788	0.499958
N77	N	0.793122	-0.444885	-0.098138
N78	N	1.293122	0.055115	0.401862
N79	N	0.794141	-0.375700	-0.098127
N80	N	1.294141	0.124300	0.401873
C81	C	0.825528	-0.336765	-0.000022
C82	C	1.325528	0.163235	0.499978
C83	C	0.833664	-0.604528	-0.131863
C84	C	1.333664	-0.104528	0.368137
C85	C	0.832580	-0.677352	-0.131869
C86	C	1.332580	-0.177352	0.368131
C87	C	0.808768	-0.653459	0.131748
C88	C	1.308768	-0.153459	0.631748
C89	C	0.809845	-0.580636	0.131750
C90	C	1.309845	-0.080636	0.631750
C91	C	0.822297	-0.556176	-0.000060
C92	C	1.322297	-0.056176	0.499940
C93	C	0.952155	0.087524	-0.000042
C94	C	1.452155	0.587524	0.499958
C95	C	1.029661	0.088662	-0.000053
C96	C	1.529661	0.588662	0.499947
C97	C	0.818999	0.220679	-0.000058
C98	C	1.318999	0.720679	0.499942
C99	C	0.820139	0.298183	-0.000071
C100	C	1.320139	0.798183	0.499929
N101	N	0.793411	0.124219	0.344053
N102	N	1.293411	0.624219	0.844053
N103	N	0.855570	0.061803	-0.344126
N104	N	1.355570	0.561803	0.155874
C105	C	0.832041	0.085424	0.416258
C106	C	1.332041	0.585424	0.916258
C107	C	0.816935	0.100604	0.583673
C108	C	1.316935	0.600604	1.083673
H109	H	0.051890	-0.026691	-0.000069
H110	H	0.551890	0.473309	0.499931
C111	C	0.847352	-0.577617	-0.276844
C112	C	1.347352	-0.077617	0.223156
H113	H	0.853961	-0.616846	-0.355344
H114	H	1.353961	-0.116846	0.144656
H115	H	0.888973	-0.555159	-0.282324
H116	H	1.388973	-0.055159	0.217676
H117	H	0.807554	-0.544253	-0.282317
H118	H	1.307554	-0.044253	0.217683
C119	C	0.891827	0.025370	0.332353
C120	C	1.391827	0.525370	0.832353
H121	H	0.914100	0.002995	0.399364
H122	H	1.414100	0.502995	0.899364
H123	H	0.926222	0.044964	0.272954
H124	H	1.426222	0.544964	0.772954
H125	H	0.872036	-0.008910	0.272997
H126	H	1.372036	0.491090	0.772997
H127	H	0.597087	0.212709	-0.000049
H128	H	1.097087	0.712709	0.499951
C129	C	0.845089	-0.730540	-0.276856
C130	C	1.345089	-0.230540	0.223144
H131	H	0.852663	-0.705540	-0.355350
H132	H	1.352663	-0.205540	0.144650
H133	H	0.804458	-0.753992	-0.282345
H134	H	1.304458	-0.253992	0.217655
H135	H	0.885875	-0.764897	-0.282331
H136	H	1.385875	-0.264897	0.217669
C137	C	0.733626	0.184272	0.427965
C138	C	1.233626	0.684272	0.927965
H139	H	0.731320	0.186600	0.529479
H140	H	1.231320	0.686600	1.029479
H141	H	0.689248	0.174700	0.403114
H142	H	1.189248	0.674700	0.903114
H143	H	0.743436	0.228573	0.403081
H144	H	1.243436	0.728573	0.903081
C145	C	0.797338	-0.527445	0.276728
C146	C	1.297338	-0.027445	0.776728
H147	H	0.799752	-0.480569	0.257857
H148	H	1.299752	0.019431	0.757857
H149	H	0.832974	-0.539919	0.330890
H150	H	1.332974	-0.039919	0.830890
H151	H	0.751558	-0.529021	0.330874
H152	H	1.251558	-0.029021	0.830874
H153	H	0.850348	-0.140597	-0.239144
H154	H	1.350348	0.359403	0.260856
H155	H	0.153075	0.206158	-0.000033
H156	H	0.653075	0.706158	0.499967
C157	C	0.915359	0.001746	0.571978
C158	C	1.415359	0.501746	1.071978
H159	H	0.937631	-0.020628	0.638991
H160	H	1.437631	0.479372	1.138991
H161	H	0.949755	0.021339	0.512578
H162	H	1.449755	0.521339	1.012578
H163	H	0.895568	-0.032535	0.512622
H164	H	1.395568	0.467465	1.012622
H165	H	0.848390	-0.272706	-0.239155
H166	H	1.348390	0.227294	0.260845
C167	C	0.801632	-0.236354	0.276760
C168	C	1.301632	0.263646	0.776760
H169	H	0.802629	-0.286651	0.257880
H170	H	1.302629	0.213349	0.757880
H171	H	0.756209	-0.214062	0.330918
H172	H	1.256209	0.285938	0.830918
H173	H	0.837627	-0.224961	0.330915
H174	H	1.337627	0.275039	0.830915
H175	H	0.495899	-0.020132	-0.000027
H176	H	0.995899	0.479868	0.499973
C177	C	0.008128	0.222233	-0.000053
C178	C	0.508128	0.722233	0.499947
H179	H	0.035170	0.260601	-0.000062
H180	H	0.535170	0.760601	0.499938
H181	H	-0.028255	0.232105	0.084258
H182	H	0.471745	0.732105	0.584258
H183	H	-0.013012	0.216813	-0.084387
H184	H	0.486988	0.716813	0.415613
H185	H	0.464975	0.210764	-0.000021
H186	H	0.964975	0.710764	0.499979
C187	C	0.196837	-0.042760	-0.000036
C188	C	0.696837	0.457240	0.499964
H189	H	0.244200	-0.032929	-0.000015
H190	H	0.744200	0.467071	0.499985
H191	H	0.196025	-0.076728	-0.084352
H192	H	0.696025	0.423272	0.415648
H193	H	0.180782	-0.061434	0.084293
H194	H	0.680782	0.438566	0.584293
H195	H	0.772674	0.145057	0.645791
H196	H	1.272674	0.645057	1.145791
H197	H	0.807120	-0.097246	0.239126
H198	H	1.307120	0.402754	0.739126
H199	H	0.628013	-0.018181	-0.000032
H200	H	1.128013	0.481819	0.499968
H201	H	0.798634	-0.673381	0.239059
H202	H	1.298634	-0.173381	0.739059
