data_functionalizedCrystal
_audit_creation_method	'MofGen! by Chris Wilmer'
_symmetry_space_group_name_H-M	'P1'
_symmetry_Int_Tables_number	1
_symmetry_cell_setting	triclinic
loop_
_symmetry_equiv_pos_as_xyz
  x,y,z
_cell_length_a	12.759401
_cell_length_b	12.645330
_cell_length_c	12.759393
_cell_angle_alpha	90.032183
_cell_angle_beta	90.018496
_cell_angle_gamma	90.012807
loop_
_atom_site_label
_atom_site_type_symbol
_atom_site_fract_x
_atom_site_fract_y
_atom_site_fract_z
Zn1	Zn	1.606270	-0.421972	0.593977
Zn2	Zn	1.606171	-0.599276	0.418295
Zn3	Zn	1.430572	-0.422028	0.418316
Zn4	Zn	1.430567	-0.599195	0.593937
O5	O	1.518395	-0.510618	0.506131
O6	O	1.753278	-0.445503	0.570680
O7	O	1.582838	-0.575821	0.271277
O8	O	1.453923	-0.273673	0.441644
O9	O	1.753205	-0.575767	0.441608
O10	O	1.583007	-0.273632	0.570701
O11	O	1.453826	-0.445598	0.271292
O12	O	1.283551	-0.445518	0.441605
O13	O	1.453914	-0.575628	0.740963
O14	O	1.283547	-0.575682	0.570632
O15	O	1.583002	-0.445424	0.740993
O16	O	1.582833	-0.747613	0.441569
O17	O	1.453818	-0.747553	0.570612
C18	C	1.245428	-0.510598	0.506117
C19	C	1.128651	-0.510615	0.506136
C20	C	1.073815	-0.578500	0.573209
C21	C	0.964091	-0.578514	0.573221
C22	C	0.964049	-0.442755	0.439076
C23	C	1.073771	-0.442737	0.439071
C24	C	1.073838	-0.656883	0.650653
C25	C	0.964114	-0.656896	0.650665
C26	C	1.518343	-0.786047	0.506106
C27	C	1.518416	-0.903877	0.506131
C28	C	1.599449	-1.071435	0.424785
C29	C	1.599713	-0.948875	0.424984
C30	C	1.548444	-0.948249	0.616875
C31	C	1.549087	-1.070848	0.616443
C32	C	1.407324	-1.071208	0.477824
C33	C	1.407856	-0.948604	0.475340
C34	C	1.792428	-0.510638	0.506146
C35	C	1.909205	-0.510647	0.506152
C36	C	1.518469	-0.510511	0.780165
C37	C	1.518500	-0.510465	0.896941
C38	C	1.518477	-0.234112	0.506179
C39	C	1.518511	-0.116282	0.506200
C40	C	1.518382	-0.510648	0.233164
C41	C	1.518555	-0.510395	0.116388
C42	C	1.585726	-0.442661	0.951821
C43	C	1.585751	-0.442623	1.061545
C44	C	1.451322	-0.578202	1.061501
C45	C	1.451292	-0.578234	0.951779
C46	C	1.663341	-0.364389	0.951847
C47	C	1.663366	-0.364351	1.061571
H48	H	1.118415	-0.387451	0.384460
H49	H	1.634249	-0.286344	1.095620
Br50	Br	1.798989	-0.400980	1.111213
Br51	Br	1.684546	-1.118373	0.656505
H52	H	1.103645	-0.634988	0.732060
Br53	Br	0.889563	-0.350634	0.348067
H54	H	1.107855	-0.734832	0.621368
Br55	Br	0.907435	-0.608049	0.779583
H56	H	1.396547	-0.633443	0.907100
Br57	Br	0.914447	-0.793691	0.614073
H58	H	1.491287	-0.919098	0.679160
H59	H	1.580926	-0.918879	0.342869
Br60	Br	1.455086	-1.120293	0.720980
H61	H	1.380017	-1.102224	0.398476
Br62	Br	1.568537	-1.120707	0.287514
Br63	Br	1.735977	-1.122645	0.455711
Br64	Br	1.736973	-0.899846	0.456270
H65	H	1.628799	-0.917459	0.641312
Br66	Br	1.301914	-0.897572	0.566927
Br67	Br	1.627056	-0.227558	0.902242
Br68	Br	1.370109	-0.900282	0.339507
Br69	Br	1.306809	-1.119546	0.576654
Br70	Br	1.360113	-0.670167	1.135929
H71	H	1.740613	-0.393821	0.917810
