data_functionalizedCrystal
_audit_creation_method	'MofGen! by Chris Wilmer'
_symmetry_space_group_name_H-M	'P1'
_symmetry_Int_Tables_number	1
_symmetry_cell_setting	triclinic
loop_
_symmetry_equiv_pos_as_xyz
  x,y,z
_cell_length_a	23.532355
_cell_length_b	22.010155
_cell_length_c	8.559649
_cell_angle_alpha	89.995825
_cell_angle_beta	76.303068
_cell_angle_gamma	89.988148
loop_
_atom_site_label
_atom_site_type_symbol
_atom_site_fract_x
_atom_site_fract_y
_atom_site_fract_z
O1	O	-0.747206	0.050468	-0.193705
O2	O	-0.580163	0.050481	-0.221877
O3	O	-0.678401	0.050473	0.025052
O4	O	-0.648968	0.050477	-0.440634
O5	O	-0.678375	-0.050577	0.025052
O6	O	-0.580137	-0.050569	-0.221877
O7	O	-0.747180	-0.050582	-0.193705
Cu8	Cu	-0.663656	-0.059802	-0.207791
Cu9	Cu	-0.663687	0.059701	-0.207791
O10	O	-0.648942	-0.050574	-0.440634
C11	C	-0.558963	-0.000042	-0.221173
C12	C	-0.495832	-0.000037	-0.219056
N13	N	-0.663638	-0.143855	-0.207790
C14	C	-0.680619	-0.000051	0.084619
C15	C	-0.687258	-0.000048	0.262108
C16	C	-0.222989	0.055039	-0.209796
C17	C	-0.282305	0.055041	-0.211800
O18	O	-0.313002	0.101886	-0.212781
N19	N	-0.311954	-0.000041	-0.212812
C20	C	-0.282285	-0.055129	-0.211804
O21	O	-0.312951	-0.101981	-0.212848
C22	C	-0.222971	-0.055131	-0.209789
C23	C	-0.193324	-0.000045	-0.208793
C24	C	-0.193341	0.110121	-0.208798
C25	C	-0.134029	0.110119	-0.206797
C26	C	-0.104364	0.055035	-0.205794
C27	C	-0.134011	-0.000047	-0.206792
C28	C	-0.193305	-0.110218	-0.208769
C29	C	-0.133987	-0.110215	-0.206752
C30	C	-0.104339	-0.055129	-0.205756
C31	C	-0.045034	-0.055133	-0.203788
N32	N	-0.015385	-0.000050	-0.202775
C33	C	-0.045050	0.055034	-0.203779
C34	C	-0.406849	-0.055122	-0.216034
C35	C	-0.466162	-0.055122	-0.218061
C36	C	-0.466177	0.055049	-0.218054
C37	C	-0.406863	0.055048	-0.216038
C38	C	-0.377200	-0.000040	-0.215022
C39	C	0.079511	0.055025	-0.199578
C40	C	0.138829	0.055018	-0.197584
C41	C	0.138839	-0.055153	-0.197583
C42	C	0.079527	-0.055146	-0.199585
C43	C	0.049864	-0.000052	-0.200577
O44	O	-0.014299	-0.101954	-0.202799
O45	O	-0.014379	0.101877	-0.202714
C46	C	0.231621	-0.000059	-0.194423
C47	C	0.168494	-0.000066	-0.196580
C48	C	-0.694009	-0.563636	-0.304244
C49	C	-0.694016	-0.627244	-0.304240
O50	O	-0.719819	-0.660137	-0.386238
N51	N	-0.663699	-0.659062	-0.207773
C52	C	-0.633378	-0.627269	-0.111291
O53	O	-0.607592	-0.660173	-0.029236
C54	C	-0.633375	-0.563662	-0.111287
C55	C	-0.663689	-0.531848	-0.207773
C56	C	-0.724321	-0.531822	-0.400721
C57	C	-0.724314	-0.468218	-0.400727
C58	C	-0.693993	-0.436430	-0.304256
C59	C	-0.663681	-0.468245	-0.207779
C60	C	-0.603058	-0.531871	-0.014798
C61	C	-0.603057	-0.468260	-0.014801
C62	C	-0.633372	-0.436445	-0.111288
C63	C	-0.633353	-0.372853	-0.111314
N64	N	-0.663670	-0.341035	-0.207781
C65	C	-0.693990	-0.372823	-0.304252
C66	C	-0.633388	-0.760847	-0.111303
C67	C	-0.633387	-0.824452	-0.111314
C68	C	-0.694026	-0.824423	-0.304262
C69	C	-0.694023	-0.760816	-0.304258
C70	C	-0.663705	-0.729029	-0.207771
C71	C	-0.693971	-0.239252	-0.304259
C72	C	-0.693958	-0.175643	-0.304261
C73	C	-0.633322	-0.175678	-0.111308
C74	C	-0.633332	-0.239281	-0.111311
C75	C	-0.663661	-0.271067	-0.207791
O76	O	-0.607566	-0.339919	-0.029353
O77	O	-0.719778	-0.339911	-0.386277
N78	N	-0.663710	0.143754	-0.207779
C79	C	-0.646724	-0.000048	-0.500201
C80	C	-0.640085	-0.000047	-0.677690
H81	H	0.162966	0.099877	-0.196777
C82	C	-0.727306	-0.140648	-0.410392
H83	H	-0.722957	-0.098212	-0.396596
H84	H	-0.767597	-0.151060	-0.380106
H85	H	-0.711928	-0.151076	-0.519960
H86	H	-0.594618	-0.000046	0.238068
C87	C	-0.727326	-0.274207	-0.410398
H88	H	-0.745370	-0.246142	-0.467862
H89	H	-0.756425	-0.299014	-0.344505
H90	H	-0.700751	-0.299023	-0.484342
C91	C	-0.599968	-0.274279	-0.005228
H92	H	-0.581907	-0.246234	0.052218
H93	H	-0.570882	-0.299097	-0.071162
H94	H	-0.626538	-0.299087	0.068733
H95	H	0.055367	0.099887	-0.200388
H96	H	-0.718714	-0.850316	-0.382816
H97	H	0.055389	-0.100002	-0.200428
H98	H	-0.732728	-0.000057	0.346359
H99	H	-0.109896	0.154976	-0.205979
C100	C	-0.600035	-0.859441	-0.005196
H101	H	-0.581981	-0.831394	0.052259
H102	H	-0.570944	-0.884263	-0.071101
H103	H	-0.626612	-0.884246	0.068756
C104	C	-0.757666	-0.433230	-0.506846
H105	H	-0.775727	-0.461280	-0.564279
H106	H	-0.731098	-0.408421	-0.580791
H107	H	-0.786762	-0.408414	-0.440922
C108	C	-0.599981	-0.140703	-0.005178
H109	H	-0.604328	-0.098265	-0.018989
H110	H	-0.559689	-0.151132	-0.035431
H111	H	-0.615369	-0.151126	0.104389
H112	H	0.163004	-0.100001	-0.196772
C113	C	-0.727376	-0.725826	-0.410373
H114	H	-0.745435	-0.753873	-0.467814
H115	H	-0.700808	-0.701014	-0.484311
H116	H	-0.756473	-0.701012	-0.344443
H117	H	-0.217489	0.154979	-0.209610
H118	H	-0.749015	-0.557697	-0.479279
H119	H	-0.490341	0.099902	-0.218869
C120	C	-0.374256	0.115642	-0.214940
H121	H	-0.400424	0.148445	-0.215822
H122	H	-0.342691	0.117933	-0.307410
H123	H	-0.359547	0.117935	-0.120884
H124	H	-0.608693	-0.734969	-0.032737
H125	H	-0.490293	-0.099978	-0.218898
H126	H	-0.217434	-0.155075	-0.209575
C127	C	-0.374222	-0.115723	-0.214948
H128	H	-0.400378	-0.148524	-0.215855
H129	H	-0.359508	-0.118022	-0.120910
H130	H	-0.342659	-0.118012	-0.307437
C131	C	-0.569723	-0.566853	0.091369
H132	H	-0.551677	-0.538803	0.148836
H133	H	-0.540627	-0.591679	0.025498
H134	H	-0.596309	-0.591653	0.165310
C135	C	-0.569703	-0.433297	0.091330
H136	H	-0.551648	-0.461359	0.148776
H137	H	-0.596271	-0.408476	0.165263
H138	H	-0.540602	-0.408495	0.025407
C139	C	-0.101360	-0.170813	-0.205645
H140	H	-0.127514	-0.203616	-0.206539
H141	H	-0.086643	-0.173107	-0.111609
H142	H	-0.069797	-0.173104	-0.298135
