data_functionalizedCrystal
_audit_creation_method	'MofGen! by Chris Wilmer'
_symmetry_space_group_name_H-M	'P1'
_symmetry_Int_Tables_number	1
_symmetry_cell_setting	triclinic
loop_
_symmetry_equiv_pos_as_xyz
  x,y,z
_cell_length_a	10.686220
_cell_length_b	14.908178
_cell_length_c	10.686551
_cell_angle_alpha	97.435690
_cell_angle_beta	89.692081
_cell_angle_gamma	97.932411
loop_
_atom_site_label
_atom_site_type_symbol
_atom_site_fract_x
_atom_site_fract_y
_atom_site_fract_z
Zn1	Zn	1.953097	-0.221913	0.545924
Zn2	Zn	1.922620	-0.386668	0.323938
Zn3	Zn	1.725202	-0.245199	0.350512
Zn4	Zn	1.729210	-0.384824	0.549852
O5	O	1.832532	-0.309651	0.442557
O6	O	2.125372	-0.234795	0.503711
O7	O	1.882000	-0.378419	0.151138
O8	O	1.766510	-0.114727	0.385911
O9	O	2.102981	-0.355840	0.340620
O10	O	1.933944	-0.097619	0.529479
O11	O	1.736958	-0.274482	0.170661
O12	O	1.549416	-0.272694	0.389721
O13	O	1.773341	-0.352696	0.725657
O14	O	1.552360	-0.375276	0.536175
O15	O	1.937830	-0.233007	0.722771
O16	O	1.885886	-0.513807	0.344429
O17	O	1.743789	-0.512452	0.510407
C18	C	1.505171	-0.326312	0.466259
C19	C	1.365124	-0.333460	0.476426
C20	C	1.812002	-0.546156	0.424986
C21	C	1.803337	-0.647325	0.417503
C22	C	1.961297	-0.819464	0.553120
C23	C	1.953160	-0.914521	0.546093
C24	C	1.778924	-0.932497	0.396429
C25	C	1.787060	-0.837440	0.403456
C26	C	1.878251	-0.780927	0.481803
C27	C	1.886392	-0.685868	0.488823
C28	C	1.712150	-0.703846	0.339166
C29	C	1.704014	-0.798903	0.332139
C30	C	2.161172	-0.292926	0.418763
C31	C	2.301219	-0.285798	0.408624
C32	C	1.859432	-0.290048	0.771212
C33	C	1.870895	-0.281695	0.911265
C34	C	1.853180	-0.072220	0.460221
C35	C	1.861978	0.028959	0.467749
C36	C	1.805815	-0.329108	0.115180
C37	C	1.794618	-0.337193	-0.024871
H38	H	2.035556	-0.773450	0.616904
H39	H	2.020779	-0.945894	0.604174
C40	C	1.294309	-0.395974	0.565363
C41	C	1.302450	-0.499165	0.545869
C42	C	1.231625	-0.561680	0.634807
C43	C	1.152659	-0.521005	0.743238
C44	C	1.144514	-0.417809	0.762737
C45	C	1.215339	-0.355294	0.673799
H46	H	1.360909	-0.529280	0.465597
H47	H	1.237655	-0.638073	0.620372
H48	H	1.100230	-0.567282	0.809075
H49	H	1.086055	-0.387693	0.843009
H50	H	1.209309	-0.278901	0.688234
H51	H	1.720548	-0.391100	0.922660
C52	C	1.970976	-0.208866	0.982142
C53	C	1.982695	-0.200328	1.126890
C54	C	2.082774	-0.127501	1.197767
C55	C	2.171133	-0.063212	1.123895
C56	C	2.159416	-0.071749	0.979138
C57	C	2.059338	-0.144576	0.908262
H58	H	1.917284	-0.247920	1.181582
H59	H	2.091447	-0.121182	1.304926
H60	H	2.245217	-0.009301	1.176362
H61	H	2.224828	-0.024157	0.924447
H62	H	2.050665	-0.150894	0.801103
C63	C	1.678621	-0.994677	0.310261
C64	C	1.719624	-1.063141	0.202607
C65	C	1.619322	-1.125324	0.116440
C66	C	1.478016	-1.119044	0.137927
C67	C	1.437006	-1.050578	0.245586
C68	C	1.537308	-0.988394	0.331753
H69	H	1.824233	-1.067792	0.186697
H70	H	1.649681	-1.176007	0.036744
H71	H	1.403767	-1.165076	0.074141
H72	H	1.332397	-1.045926	0.261496
H73	H	1.506949	-0.937711	0.411449
H74	H	1.629766	-0.844929	0.268355
H75	H	1.960647	-0.639855	0.552613
C76	C	1.620798	-0.661455	0.260702
C77	C	1.629751	-0.556897	0.268415
C78	C	1.538410	-0.514505	0.189945
C79	C	1.438116	-0.576672	0.103761
C80	C	1.429160	-0.681236	0.096044
C81	C	1.520501	-0.723628	0.174515
H82	H	1.703998	-0.510872	0.332217
H83	H	1.545040	-0.437099	0.195658
H84	H	1.370500	-0.545291	0.045672
H85	H	1.354913	-0.727262	0.032242
H86	H	1.513870	-0.801034	0.168801
H87	H	1.353652	-0.239526	0.342785
