data_functionalizedCrystal
_audit_creation_method	'MofGen! by Chris Wilmer'
_symmetry_space_group_name_H-M	'P1'
_symmetry_Int_Tables_number	1
_symmetry_cell_setting	triclinic
loop_
_symmetry_equiv_pos_as_xyz
  x,y,z
_cell_length_a	14.971486
_cell_length_b	10.489741
_cell_length_c	13.448316
_cell_angle_alpha	89.993703
_cell_angle_beta	89.998199
_cell_angle_gamma	84.076651
loop_
_atom_site_label
_atom_site_type_symbol
_atom_site_fract_x
_atom_site_fract_y
_atom_site_fract_z
O1	O	1.187893	0.166222	-0.082577
O2	O	1.687893	0.666222	0.417423
O3	O	0.927607	0.186128	-0.082604
O4	O	1.427607	0.686128	0.417396
O5	O	1.063673	-0.009491	-0.082584
O6	O	1.563673	0.490509	0.417416
O7	O	1.051827	0.361841	-0.082597
O8	O	1.551827	0.861841	0.417403
O9	O	1.063655	-0.009503	0.082800
O10	O	1.563655	0.490497	0.582800
O11	O	0.927589	0.186116	0.082780
O12	O	1.427589	0.686116	0.582780
O13	O	1.187876	0.166210	0.082807
O14	O	1.687876	0.666210	0.582807
Cu15	Cu	1.057731	0.176162	0.097894
Cu16	Cu	1.557731	0.676162	0.597894
Cu17	Cu	1.057752	0.176176	-0.097691
Cu18	Cu	1.557752	0.676176	0.402309
O19	O	1.051810	0.361829	0.082787
O20	O	1.551810	0.861829	0.582787
C21	C	0.894268	0.185232	0.000085
C22	C	1.394268	0.685232	0.500085
C23	C	0.794956	0.182564	0.000074
C24	C	1.294956	0.682564	0.500074
C25	C	0.738385	0.297485	0.000072
C26	C	1.238385	0.797485	0.500072
C27	C	0.645071	0.294971	0.000087
C28	C	1.145071	0.794971	0.500087
C29	C	0.608330	0.177534	0.000097
C30	C	1.108330	0.677534	0.500097
C31	C	0.664909	0.062604	0.000103
C32	C	1.164909	0.562604	0.500103
C33	C	0.758221	0.065120	0.000095
C34	C	1.258221	0.565120	0.500095
C35	C	0.470416	0.057369	0.000117
C36	C	0.970416	0.557369	0.500117
C37	C	0.377098	0.054853	0.000123
C38	C	0.877098	0.554853	0.500123
C39	C	0.357267	0.287220	0.000108
C40	C	0.857267	0.787220	0.500108
C41	C	0.450579	0.289736	0.000101
C42	C	0.950579	0.789736	0.500101
C43	C	0.507151	0.174805	0.000104
C44	C	1.007151	0.674805	0.500104
C45	C	1.062769	-0.057019	0.000107
C46	C	1.562769	0.442981	0.500107
C47	C	1.060093	-0.198617	0.000105
C48	C	1.560093	0.301383	0.500105
C49	C	0.973518	-0.265755	0.000089
C50	C	1.473518	0.234245	0.500089
C51	C	1.014406	-0.358357	0.081636
C52	C	1.514406	0.141643	0.581636
C53	C	1.014444	-0.358320	-0.081419
C54	C	1.514444	0.141680	0.418581
C55	C	1.101017	-0.289354	0.081720
C56	C	1.601017	0.210646	0.581720
C57	C	1.101043	-0.289307	-0.081409
C58	C	1.601043	0.210693	0.418591
C59	C	1.141994	-0.381882	0.000158
C60	C	1.641994	0.118118	0.500158
C61	C	1.221215	0.167106	0.000116
C62	C	1.721215	0.667106	0.500116
C63	C	1.320527	0.169774	0.000120
C64	C	1.820527	0.669774	0.500120
C65	C	1.052713	0.409357	0.000094
C66	C	1.552713	0.909357	0.500094
C67	C	1.055390	0.550955	0.000089
C68	C	1.555390	1.050955	0.500089
N69	N	1.057723	0.176151	0.235459
N70	N	1.557723	0.676151	0.735459
N71	N	1.057766	0.176177	-0.235255
N72	N	1.557766	0.676177	0.264745
C73	C	1.117992	0.089567	0.287508
C74	C	1.617992	0.589567	0.787508
C75	C	1.117998	0.089566	0.391611
C76	C	1.617998	0.589566	0.891611
C77	C	1.057738	0.176156	0.443663
C78	C	1.557738	0.676156	0.943663
C79	C	0.997462	0.262745	0.391607
C80	C	1.497462	0.762745	0.891607
C81	C	0.997453	0.262739	0.287505
C82	C	1.497453	0.762739	0.787505
C83	C	0.997487	0.262753	0.608587
C84	C	1.497487	0.762753	1.108587
C85	C	0.997497	0.262761	0.712695
C86	C	1.497497	0.762761	1.212695
C87	C	1.118032	0.089580	0.712693
C88	C	1.618032	0.589580	1.212693
C89	C	1.118023	0.089574	0.608591
C90	C	1.618023	0.589574	1.108591
C91	C	1.057748	0.176165	0.556542
C92	C	1.557748	0.676165	1.056542
H93	H	0.480489	0.385363	0.000083
H94	H	0.980489	0.885363	0.500083
H95	H	0.768291	0.393115	0.000063
H96	H	1.268291	0.893115	0.500063
Cl97	Cl	1.157516	-0.242422	0.188280
Cl98	Cl	1.657516	0.257578	0.688280
H99	H	0.347187	-0.040774	0.000132
H100	H	0.847187	0.459226	0.500132
Cl101	Cl	0.863621	-0.187825	0.000198
Cl102	Cl	1.363621	0.312175	0.500198
H103	H	0.311201	0.380801	0.000110
H104	H	0.811201	0.880801	0.500110
H105	H	0.599014	0.388551	0.000083
H106	H	1.099014	0.888551	0.500083
Cl107	Cl	0.921736	0.371620	0.778124
Cl108	Cl	1.421736	0.871620	1.278124
Cl109	Cl	1.251989	-0.459469	0.000235
Cl110	Cl	1.751989	0.040531	0.500235
Cl111	Cl	0.541534	-0.087117	0.000123
Cl112	Cl	1.041534	0.412883	0.500123
H113	H	1.167067	0.019060	0.245134
H114	H	1.667067	0.519060	0.745134
Cl115	Cl	0.618720	-0.085031	0.000122
Cl116	Cl	1.118720	0.414969	0.500122
H117	H	1.167073	0.019061	0.433989
H118	H	1.667073	0.519061	0.933989
H119	H	1.167109	0.019075	0.755077
H120	H	1.667109	0.519075	1.255077
Cl121	Cl	0.921709	0.371610	0.543157
Cl122	Cl	1.421709	0.871610	1.043157
Cl123	Cl	0.829340	-0.079358	0.000103
Cl124	Cl	1.329340	0.420642	0.500103
H125	H	0.977767	-0.388950	0.150571
H126	H	1.477767	0.111050	0.650571
Cl127	Cl	1.157563	-0.242017	-0.187845
Cl128	Cl	1.657563	0.257983	0.312155
Cl129	Cl	0.957876	-0.405496	-0.187855
Cl130	Cl	1.457876	0.094504	0.312145
H131	H	1.167095	0.019072	0.566211
H132	H	1.667095	0.519072	1.066211
Cl133	Cl	0.921701	0.371598	0.457041
Cl134	Cl	1.421701	0.871598	0.957041
Cl135	Cl	0.921679	0.371589	0.222073
Cl136	Cl	1.421679	0.871589	0.722073
