data_functionalizedCrystal
_audit_creation_method	'MofGen! by Chris Wilmer'
_symmetry_space_group_name_H-M	'P1'
_symmetry_Int_Tables_number	1
_symmetry_cell_setting	triclinic
loop_
_symmetry_equiv_pos_as_xyz
  x,y,z
_cell_length_a	16.120530
_cell_length_b	16.120484
_cell_length_c	12.759393
_cell_angle_alpha	92.862829
_cell_angle_beta	87.081041
_cell_angle_gamma	90.167327
loop_
_atom_site_label
_atom_site_type_symbol
_atom_site_fract_x
_atom_site_fract_y
_atom_site_fract_z
Zn1	Zn	1.254495	-0.395546	-0.699366
Zn2	Zn	1.247333	-0.534621	-0.532098
Zn3	Zn	1.115429	-0.388530	-0.514372
Zn4	Zn	1.108347	-0.527500	-0.698405
O5	O	1.181401	-0.461549	-0.611060
O6	O	1.369910	-0.419912	-0.684998
O7	O	1.229802	-0.515285	-0.382726
O8	O	1.139837	-0.273098	-0.531896
O9	O	1.364648	-0.522089	-0.562107
O10	O	1.242008	-0.278253	-0.667810
O11	O	1.132892	-0.407952	-0.369703
O12	O	0.998123	-0.401047	-0.530964
O13	O	1.127767	-0.509952	-0.845553
O14	O	0.992920	-0.503148	-0.666172
O15	O	1.235141	-0.413007	-0.846259
O16	O	1.222935	-0.650039	-0.561175
O17	O	1.120822	-0.644807	-0.683360
C18	C	0.965350	-0.450564	-0.596540
C19	C	0.872921	-0.445885	-0.590355
C20	C	1.170356	-0.677595	-0.624111
C21	C	1.165707	-0.770025	-0.629735
C22	C	0.703693	-0.437322	-0.579070
C23	C	0.659945	-0.485837	-0.643131
C24	C	0.565781	-0.481073	-0.636852
C25	C	0.797866	-0.442086	-0.585347
C26	C	1.157224	-0.939255	-0.640024
C27	C	1.205727	-0.983010	-0.582124
C28	C	1.201007	-1.077176	-0.587849
C29	C	1.161942	-0.845081	-0.634300
C30	C	1.398295	-0.472577	-0.625637
C31	C	1.490723	-0.477277	-0.631849
C32	C	1.181463	-0.461468	-0.885092
C33	C	1.181490	-0.461433	-1.001869
C34	C	1.192511	-0.244660	-0.597983
C35	C	1.197246	-0.152235	-0.592410
C36	C	1.131048	-0.405537	-1.049950
C37	C	1.131069	-0.405512	-1.159674
C38	C	1.231979	-0.517284	-1.173226
C39	C	1.231953	-0.517312	-1.063504
C40	C	1.181389	-0.461572	-0.338094
C41	C	1.181536	-0.461381	-0.221315
H42	H	0.693211	-0.530949	-0.702693
F43	F	0.660216	-0.378361	-0.501224
F44	F	1.264635	-0.939539	-0.511710
H45	H	1.112157	-0.972513	-0.693887
F46	F	1.077338	-0.346068	-0.984356
H47	H	1.089994	-0.359996	-1.198815
H48	H	1.273066	-0.562777	-1.223423
F49	F	1.285640	-0.576811	-1.012330
