data_functionalizedCrystal
_audit_creation_method	'MofGen! by Chris Wilmer'
_symmetry_space_group_name_H-M	'P1'
_symmetry_Int_Tables_number	1
_symmetry_cell_setting	triclinic
loop_
_symmetry_equiv_pos_as_xyz
  x,y,z
_cell_length_a	16.992694
_cell_length_b	16.992695
_cell_length_c	15.455301
_cell_angle_alpha	87.173129
_cell_angle_beta	92.821270
_cell_angle_gamma	89.331777
loop_
_atom_site_label
_atom_site_type_symbol
_atom_site_fract_x
_atom_site_fract_y
_atom_site_fract_z
O1	O	1.054114	-0.170180	0.072023
O2	O	1.554114	0.329820	0.572023
O3	O	0.825715	-0.168350	0.072049
O4	O	1.325715	0.331650	0.572049
O5	O	0.938999	-0.055064	0.072029
O6	O	1.438999	0.444936	0.572029
O7	O	0.940831	-0.283465	0.072043
O8	O	1.440831	0.216535	0.572043
O9	O	0.932451	-0.048524	-0.072233
O10	O	1.432451	0.451476	0.427767
O11	O	0.819168	-0.161809	-0.072214
O12	O	1.319168	0.338191	0.427786
O13	O	1.047566	-0.163639	-0.072239
O14	O	1.547566	0.336361	0.427761
Cu15	Cu	0.932769	-0.162127	-0.085399
Cu16	Cu	1.432769	0.337873	0.414601
Cu17	Cu	0.940513	-0.169862	0.085208
Cu18	Cu	1.440513	0.330138	0.585208
O19	O	0.934283	-0.276925	-0.072220
O20	O	1.434283	0.223075	0.427780
C21	C	0.793081	-0.162724	-0.000079
C22	C	1.293081	0.337276	0.499921
C23	C	0.705597	-0.155696	-0.000070
C24	C	1.205597	0.344304	0.499930
N25	N	0.927328	-0.156687	-0.205394
N26	N	1.427328	0.343313	0.294606
C27	C	0.933369	-0.022434	-0.000102
C28	C	1.433369	0.477566	0.499898
C29	C	0.926341	0.065051	-0.000101
C30	C	1.426341	0.565051	0.499899
C31	C	0.659607	-0.223514	-0.000066
C32	C	1.159607	0.276486	0.499934
C33	C	0.577405	-0.216904	-0.000079
C34	C	1.077405	0.283096	0.499921
C35	C	0.541197	-0.142476	-0.000088
C36	C	1.041197	0.357524	0.499912
C37	C	0.587193	-0.074653	-0.000094
C38	C	1.087193	0.425347	0.499906
C39	C	0.669393	-0.081263	-0.000088
C40	C	1.169393	0.418737	0.499912
C41	C	0.295881	-0.115080	-0.000113
C42	C	0.795881	0.384920	0.499887
C43	C	0.213676	-0.108476	-0.000116
C44	C	0.713676	0.391524	0.499884
C45	C	0.203893	-0.250728	-0.000103
C46	C	0.703893	0.249272	0.499897
C47	C	0.286095	-0.257331	-0.000091
C48	C	0.786095	0.242669	0.499909
C49	C	0.332084	-0.189508	-0.000102
C50	C	0.832084	0.310492	0.499898
N51	N	0.457174	-0.135718	-0.000098
N52	N	0.957174	0.364282	0.499902
N53	N	0.416105	-0.196266	-0.000098
N54	N	0.916105	0.303734	0.499902
C55	C	1.080200	-0.169265	-0.000109
C56	C	1.580200	0.330735	0.499891
C57	C	1.167685	-0.176294	-0.000113
C58	C	1.667685	0.323706	0.499887
C59	C	0.939913	-0.309555	-0.000087
C60	C	1.439913	0.190445	0.499913
C61	C	0.946942	-0.397040	-0.000082
C62	C	1.446942	0.102960	0.499918
C63	C	0.994158	0.111042	-0.000109
C64	C	1.494158	0.611042	0.499891
C65	C	0.987550	0.193242	-0.000100
C66	C	1.487550	0.693242	0.499900
C67	C	0.913122	0.229450	-0.000089
C68	C	1.413122	0.729450	0.499911
C69	C	0.845300	0.183452	-0.000078
C70	C	1.345300	0.683452	0.499922
C71	C	0.851910	0.101253	-0.000081
C72	C	1.351910	0.601253	0.499919
C73	C	0.885729	0.474764	-0.000074
C74	C	1.385729	0.974764	0.499926
C75	C	0.879124	0.556969	-0.000074
C76	C	1.379124	1.056969	0.499926
C77	C	1.021375	0.566753	-0.000094
C78	C	1.521375	1.066753	0.499906
C79	C	1.027977	0.484552	-0.000102
C80	C	1.527977	0.984552	0.499898
C81	C	0.960155	0.438562	-0.000087
C82	C	1.460155	0.938562	0.499913
N83	N	0.906366	0.313472	-0.000082
N84	N	1.406366	0.813472	0.499918
N85	N	0.966913	0.354541	-0.000087
N86	N	1.466913	0.854541	0.499913
C87	C	0.976004	-0.205394	-0.250787
C88	C	1.476004	0.294606	0.249213
C89	C	0.971900	-0.201276	-0.341595
C90	C	1.471900	0.298724	0.158405
C91	C	0.919115	-0.148453	-0.387009
C92	C	1.419115	0.351547	0.112991
C93	C	0.870437	-0.099741	-0.341609
C94	C	1.370437	0.400259	0.158391
C95	C	0.874546	-0.103856	-0.250803
C96	C	1.374546	0.396144	0.249197
C97	C	0.901390	-0.130699	-0.658590
C98	C	1.401390	0.369301	-0.158590
C99	C	0.897283	-0.126589	-0.749403
C100	C	1.397283	0.373411	-0.249403
C101	C	0.998748	-0.228123	-0.749383
C102	C	1.498748	0.271877	-0.249383
C103	C	1.002849	-0.232237	-0.658575
C104	C	1.502849	0.267763	-0.158575
C105	C	0.954174	-0.183522	-0.613183
C106	C	1.454174	0.316478	-0.113183
N107	N	0.914917	-0.144244	-0.479829
N108	N	1.414917	0.355756	0.020171
N109	N	0.958376	-0.187728	-0.520365
N110	N	1.458376	0.312272	-0.020365
N111	N	0.945959	-0.175296	0.205204
N112	N	1.445959	0.324704	0.705204
H113	H	0.689081	-0.284121	-0.000058
H114	H	1.189081	0.215879	0.499942
Br115	Br	1.113414	0.629172	-0.000116
Br116	Br	1.613414	1.129172	0.499884
H117	H	0.784700	0.212939	-0.000063
H118	H	1.284700	0.712939	0.499937
H119	H	1.038377	-0.267784	-0.786350
H120	H	1.538377	0.232216	-0.286350
Br121	Br	1.074451	-0.303964	-0.596949
Br122	Br	1.574451	0.196036	-0.096949
H123	H	0.796685	0.063808	-0.000073
H124	H	1.296685	0.563808	0.499927
Br125	Br	0.514992	-0.308948	-0.000071
Br126	Br	1.014992	0.191052	0.499929
Br127	Br	0.778109	0.606108	-0.000067
Br128	Br	1.278109	1.106108	0.499933
H129	H	0.315570	-0.317939	-0.000074
H130	H	0.815570	0.182061	0.499926
Br131	Br	0.798802	-0.028049	-0.403240
Br132	Br	1.298802	0.471951	0.096760
H133	H	0.333316	-0.059853	-0.000122
H134	H	0.833316	0.440147	0.499878
Br135	Br	1.037964	-0.267381	-0.403197
Br136	Br	1.537964	0.232619	0.096803
Br137	Br	0.731810	0.010780	-0.000100
Br138	Br	1.231810	0.510780	0.499900
Br139	Br	1.095171	0.061912	-0.000137
Br140	Br	1.595171	0.561912	0.499863
H141	H	0.184198	-0.047864	-0.000123
H142	H	0.684198	0.452136	0.499877
H143	H	0.166440	-0.305945	-0.000096
H144	H	0.666440	0.194055	0.499904
H145	H	0.557705	-0.014051	-0.000114
H146	H	1.057705	0.485949	0.499886
Br147	Br	0.808494	-0.037740	-0.189197
Br148	Br	1.308494	0.462260	0.310803
H149	H	1.042774	0.230685	-0.000109
H150	H	1.542774	0.730685	0.499891
Br151	Br	0.793683	0.412358	-0.000047
Br152	Br	1.293683	0.912358	0.499953
H153	H	1.088584	0.455078	-0.000112
H154	H	1.588584	0.955078	0.499888
H155	H	1.018983	-0.248412	-0.213818
H156	H	1.518983	0.251588	0.286182
H157	H	0.854295	-0.083574	-0.786376
H158	H	1.354295	0.416426	-0.286376
H159	H	0.861756	-0.091031	-0.621644
H160	H	1.361756	0.408969	-0.121644
