data_functionalizedCrystal
_audit_creation_method	'MofGen! by Chris Wilmer'
_symmetry_space_group_name_H-M	'P1'
_symmetry_Int_Tables_number	1
_symmetry_cell_setting	triclinic
loop_
_symmetry_equiv_pos_as_xyz
  x,y,z
_cell_length_a	13.262390
_cell_length_b	10.489716
_cell_length_c	12.376457
_cell_angle_alpha	101.395919
_cell_angle_beta	63.168449
_cell_angle_gamma	84.480389
loop_
_atom_site_label
_atom_site_type_symbol
_atom_site_fract_x
_atom_site_fract_y
_atom_site_fract_z
O1	O	1.512618	0.027045	-0.559072
O2	O	1.185849	0.071741	-0.458603
O3	O	1.356684	-0.136842	-0.511132
O4	O	1.341783	0.235628	-0.506543
O5	O	1.313990	-0.084764	-0.309993
O6	O	1.143155	0.123819	-0.257463
O7	O	1.469924	0.079123	-0.357932
Zn8	Zn	1.299761	0.109739	-0.275762
Zn9	Zn	1.356012	0.041124	-0.540773
O10	O	1.299089	0.287706	-0.305403
C11	C	1.122660	0.100064	-0.345169
C12	C	0.997982	0.106855	-0.306836
C13	C	0.739639	0.012424	-0.637365
C14	C	0.856781	0.006037	-0.673383
C15	C	0.892087	0.031241	-0.581749
C16	C	0.810240	0.062833	-0.454091
C17	C	0.693087	0.069211	-0.418070
C18	C	0.845536	0.088028	-0.362454
C19	C	0.763688	0.119620	-0.234797
C20	C	0.646548	0.125997	-0.198782
C21	C	0.611242	0.100792	-0.290415
C22	C	0.962688	0.081650	-0.398476
C23	C	0.916136	0.138437	-0.179181
C24	C	0.798994	0.144824	-0.143163
C25	C	1.334219	-0.158241	-0.410222
C26	C	1.330872	-0.299590	-0.409203
C27	C	1.435630	-0.406174	-0.441402
C28	C	1.401322	-0.504501	-0.523551
C29	C	1.359205	-0.453118	-0.325235
C30	C	1.296624	-0.396076	-0.491447
C31	C	1.254504	-0.344666	-0.293048
C32	C	1.220123	-0.442944	-0.375197
C33	C	1.533114	0.050799	-0.471369
C34	C	1.657793	0.044006	-0.509710
C35	C	1.321555	0.309104	-0.406316
C36	C	1.324904	0.450451	-0.407343
N37	N	1.261379	0.156566	-0.094902
N38	N	1.394403	-0.005713	-0.721636
C39	C	1.483499	-0.114437	0.191784
C40	C	1.510356	-0.147211	0.065186
C41	C	1.448114	-0.071270	0.025158
C42	C	1.359010	0.037451	0.111740
C43	C	1.332156	0.070234	0.238349
C44	C	1.296771	0.113402	0.071722
C45	C	1.207668	0.222123	0.158304
C46	C	1.180818	0.254900	0.284900
C47	C	1.243060	0.178959	0.324929
C48	C	1.323625	0.080619	-0.054887
C49	C	1.172283	0.265290	-0.008322
C50	C	1.145426	0.298064	0.118276
H51	H	1.029317	0.055931	-0.502415
H52	H	1.270240	-0.370743	-0.561791
Br53	Br	1.068149	-0.470757	-0.328546
Br54	Br	1.051068	0.022576	-0.630632
Br55	Br	0.967852	-0.036845	-0.846625
H56	H	0.579911	0.151697	-0.094835
Br57	Br	0.687904	0.187700	0.030083
Br58	Br	0.691725	-0.021856	-0.761712
H59	H	1.396174	-0.007902	-0.125372
Br60	Br	1.087814	0.368367	-0.062639
H61	H	1.582904	-0.235729	-0.005305
Br62	Br	0.452256	0.109474	-0.241537
H63	H	0.944881	0.158958	-0.104564
Br64	Br	1.024501	0.445608	0.235791
Br65	Br	1.587540	-0.378004	-0.488257
H66	H	1.463342	-0.573467	-0.620990
Br67	Br	1.151219	-0.229648	-0.130662
H68	H	1.385655	-0.478649	-0.255001
H69	H	1.469985	-0.097959	-0.077925
Br70	Br	1.567975	-0.217476	0.246106
H71	H	1.221191	0.205639	0.428015
Br72	Br	1.059910	0.402465	0.402402
