data_functionalizedCrystal
_audit_creation_method	'MofGen! by Chris Wilmer'
_symmetry_space_group_name_H-M	'P1'
_symmetry_Int_Tables_number	1
_symmetry_cell_setting	triclinic
loop_
_symmetry_equiv_pos_as_xyz
  x,y,z
_cell_length_a	18.101398
_cell_length_b	18.101395
_cell_length_c	12.827885
_cell_angle_alpha	89.967625
_cell_angle_beta	89.987811
_cell_angle_gamma	90.026661
loop_
_atom_site_label
_atom_site_type_symbol
_atom_site_fract_x
_atom_site_fract_y
_atom_site_fract_z
Zn1	Zn	1.132139	-0.294882	-0.590627
Zn2	Zn	1.632139	0.205118	-0.090627
Zn3	Zn	1.132029	-0.418741	-0.415879
Zn4	Zn	1.632029	0.081259	0.084121
Zn5	Zn	1.008292	-0.294908	-0.415923
Zn6	Zn	1.508292	0.205092	0.084077
Zn7	Zn	1.008248	-0.418676	-0.590602
Zn8	Zn	1.508248	0.081324	-0.090602
O9	O	1.070177	-0.356802	-0.503258
O10	O	1.570177	0.143198	-0.003258
O11	O	1.235757	-0.311328	-0.567439
O12	O	1.735757	0.188672	-0.067439
O13	O	1.115588	-0.402352	-0.269649
O14	O	1.615588	0.097648	0.230351
O15	O	1.024785	-0.191272	-0.439126
O16	O	1.524785	0.308728	0.060874
O17	O	1.235677	-0.402327	-0.439053
O18	O	1.735677	0.097673	0.060947
O19	O	1.115775	-0.191252	-0.567481
O20	O	1.615775	0.308748	-0.067481
O21	O	1.024679	-0.311373	-0.269681
O22	O	1.524679	0.188627	0.230319
O23	O	0.904654	-0.311310	-0.439102
O24	O	1.404654	0.188690	0.060898
O25	O	1.024710	-0.402216	-0.736841
O26	O	1.524710	0.097784	-0.236841
O27	O	0.904621	-0.402242	-0.567438
O28	O	1.404621	0.097758	-0.067438
O29	O	1.115732	-0.311265	-0.736860
O30	O	1.615732	0.188735	-0.236860
O31	O	1.115545	-0.522365	-0.439028
O32	O	1.615545	-0.022365	0.060972
O33	O	1.024604	-0.522318	-0.567395
O34	O	1.524604	-0.022318	-0.067395
C35	C	0.877767	-0.356773	-0.503272
C36	C	1.377767	0.143227	-0.003272
C37	C	0.795453	-0.356778	-0.503303
C38	C	1.295453	0.143222	-0.003303
C39	C	1.070078	-0.549212	-0.503227
C40	C	1.570078	-0.049212	-0.003227
C41	C	1.070104	-0.631526	-0.503249
C42	C	1.570104	-0.131526	-0.003249
C43	C	0.496362	-0.356822	-0.503260
C44	C	0.996362	0.143178	-0.003260
C45	C	0.527691	-0.414310	-0.583606
C46	C	1.027691	0.085690	-0.083606
C47	C	0.613310	-0.414130	-0.583937
C48	C	1.113310	0.085870	-0.083937
C49	C	0.644744	-0.356801	-0.503281
C50	C	1.144744	0.143199	-0.003281
C51	C	0.613691	-0.278796	-0.533374
C52	C	1.113691	0.221204	-0.033374
C53	C	0.528046	-0.279141	-0.533945
C54	C	1.028046	0.220859	-0.033945
C55	C	0.527906	-0.376650	-0.392627
C56	C	1.027906	0.123350	0.107373
C57	C	0.613556	-0.378361	-0.393218
C58	C	1.113556	0.121639	0.106782
C59	C	0.728604	-0.356784	-0.503292
C60	C	1.228604	0.143216	-0.003292
C61	C	0.412502	-0.356833	-0.503252
C62	C	0.912502	0.143167	-0.003252
C63	C	1.070266	-0.930617	-0.503305
C64	C	1.570266	-0.430617	-0.003305
C65	C	1.013181	-0.899293	-0.584271
C66	C	1.513181	-0.399293	-0.084271
C67	C	1.012910	-0.813675	-0.584018
C68	C	1.512910	-0.313675	-0.084018
C69	C	1.070185	-0.782235	-0.503278
C70	C	1.570185	-0.282235	-0.003278
C71	C	1.049053	-0.813391	-0.393147
C72	C	1.549053	-0.313391	0.106853
C73	C	1.048685	-0.899037	-0.393632
C74	C	1.548685	-0.399037	0.106368
C75	C	1.148609	-0.898965	-0.531500
C76	C	1.648609	-0.398965	-0.031500
C77	C	1.148148	-0.813314	-0.533916
C78	C	1.648148	-0.313314	-0.033916
C79	C	1.070141	-0.698375	-0.503256
C80	C	1.570141	-0.198375	-0.003256
C81	C	1.070309	-1.014477	-0.503320
C82	C	1.570309	-0.514477	-0.003320
C83	C	1.263339	-0.356831	-0.503244
C84	C	1.763339	0.143169	-0.003244
C85	C	1.345653	-0.356844	-0.503238
C86	C	1.845653	0.143156	-0.003238
C87	C	1.070228	-0.356731	-0.775828
C88	C	1.570228	0.143269	-0.275828
C89	C	1.070250	-0.356700	-0.891981
C90	C	1.570250	0.143300	-0.391981
C91	C	1.070297	-0.163640	-0.503311
C92	C	1.570297	0.336360	-0.003311
C93	C	1.070348	-0.081326	-0.503334
C94	C	1.570348	0.418674	-0.003334
C95	C	1.025280	-0.311672	-0.943782
C96	C	1.525280	0.188328	-0.443782
C97	C	1.025301	-0.311640	-1.063832
C98	C	1.525301	0.188360	-0.563832
C99	C	1.070169	-0.356819	-0.231748
C100	C	1.570169	0.143181	0.268252
C101	C	1.070291	-0.356641	-0.115595
C102	C	1.570291	0.143359	0.384405
H103	H	0.634304	-0.471974	-0.565077
H104	H	1.134304	0.028026	-0.065077
H105	H	0.986760	-0.273149	-0.899253
H106	H	1.486760	0.226851	-0.399253
H107	H	1.108766	-0.395228	-0.936510
H108	H	1.608766	0.104772	-0.436510
H109	H	1.088459	-0.919761	-0.331250
H110	H	1.588459	-0.419761	0.168750
F111	F	1.120622	-0.407029	-1.057379
F112	F	1.620622	0.092971	-0.557379
F113	F	0.499644	-0.449720	-0.356872
F114	F	0.999644	0.050280	0.143128
H115	H	0.633859	-0.435761	-0.370522
H116	H	1.133859	0.064239	0.129478
H117	H	0.507075	-0.472343	-0.564957
H118	H	1.007075	0.027657	-0.064957
F119	F	0.640307	-0.221289	-0.459274
F120	F	1.140307	0.278711	0.040726
H121	H	1.191139	-0.919222	-0.472530
H122	H	1.691139	-0.419222	0.027470
H123	H	0.633815	-0.401010	-0.665909
H124	H	1.133815	0.098990	-0.165909
H125	H	0.991417	-0.919077	-0.369746
H126	H	1.491417	-0.419077	0.130254
H127	H	1.026272	-0.919837	-0.666197
H128	H	1.526272	-0.419837	-0.166197
F129	F	0.974980	-0.261246	-1.122055
F130	F	1.474980	0.238754	-0.622055
H131	H	1.026132	-0.792607	-0.665679
H132	H	1.526132	-0.292607	-0.165679
F133	F	0.937743	-0.927517	-0.560187
F134	F	1.437743	-0.427517	-0.060187
F135	F	0.499566	-0.397392	-0.690128
F136	F	0.999566	0.102608	-0.190128
H137	H	0.508087	-0.262325	-0.614823
H138	H	1.008087	0.237675	-0.114823
H139	H	1.192930	-0.791908	-0.479241
H140	H	1.692930	-0.291908	0.020759
H141	H	0.507645	-0.334775	-0.332761
H142	H	1.007645	0.165225	0.167239
F143	F	0.500956	-0.221258	-0.460792
F144	F	1.000956	0.278742	0.039208
H145	H	0.635158	-0.261676	-0.613372
H146	H	1.135158	0.238324	-0.113372
H147	H	0.634954	-0.339530	-0.330138
H148	H	1.134954	0.160470	0.169862
F149	F	1.101687	-0.786777	-0.312145
F150	F	1.601687	-0.286777	0.187855
H151	H	1.167875	-0.920510	-0.610438
H152	H	1.667875	-0.420510	-0.110438
F153	F	0.974991	-0.785440	-0.361365
F154	F	1.474991	-0.285440	0.138635
F155	F	0.937008	-0.786973	-0.559613
F156	F	1.437008	-0.286973	-0.059613
F157	F	1.168980	-0.786694	-0.639854
F158	F	1.668980	-0.286694	-0.139854
