data_functionalizedCrystal
_audit_creation_method	'MofGen! by Chris Wilmer'
_symmetry_space_group_name_H-M	'P1'
_symmetry_Int_Tables_number	1
_symmetry_cell_setting	triclinic
loop_
_symmetry_equiv_pos_as_xyz
  x,y,z
_cell_length_a	18.050591
_cell_length_b	18.050589
_cell_length_c	18.050591
_cell_angle_alpha	90.013707
_cell_angle_beta	90.014855
_cell_angle_gamma	90.024227
loop_
_atom_site_label
_atom_site_type_symbol
_atom_site_fract_x
_atom_site_fract_y
_atom_site_fract_z
Zn1	Zn	1.135248	-0.295819	0.420054
Zn2	Zn	1.385248	-0.045819	0.670054
Zn3	Zn	1.635248	0.204181	0.920054
Zn4	Zn	1.885248	0.454181	1.170054
Zn5	Zn	1.135172	-0.419992	0.295873
Zn6	Zn	1.385172	-0.169992	0.545873
Zn7	Zn	1.635172	0.080008	0.795873
Zn8	Zn	1.885172	0.330008	1.045873
Zn9	Zn	1.011080	-0.295812	0.295865
Zn10	Zn	1.261080	-0.045812	0.545865
Zn11	Zn	1.511080	0.204188	0.795865
Zn12	Zn	1.761080	0.454188	1.045865
Zn13	Zn	1.011015	-0.419963	0.420009
Zn14	Zn	1.261015	-0.169963	0.670009
Zn15	Zn	1.511015	0.080037	0.920009
Zn16	Zn	1.761015	0.330037	1.170009
O17	O	1.073129	-0.357896	0.357950
O18	O	1.323129	-0.107896	0.607950
O19	O	1.573129	0.142104	0.857950
O20	O	1.823129	0.392104	1.107950
O21	O	1.239162	-0.312306	0.403603
O22	O	1.489162	-0.062306	0.653603
O23	O	1.739162	0.187694	0.903603
O24	O	1.989162	0.437694	1.153603
O25	O	1.118706	-0.403529	0.191948
O26	O	1.368706	-0.153529	0.441948
O27	O	1.618706	0.096471	0.691948
O28	O	1.868706	0.346471	0.941948
O29	O	1.027611	-0.191888	0.312354
O30	O	1.277611	0.058112	0.562354
O31	O	1.527611	0.308112	0.812354
O32	O	1.777611	0.558112	1.062354
O33	O	1.239107	-0.403536	0.312368
O34	O	1.489107	-0.153536	0.562368
O35	O	1.739107	0.096464	0.812368
O36	O	1.989107	0.346464	1.062368
O37	O	1.118836	-0.191893	0.403595
O38	O	1.368836	0.058107	0.653595
O39	O	1.618836	0.308107	0.903595
O40	O	1.868836	0.558107	1.153595
O41	O	1.027537	-0.312294	0.191941
O42	O	1.277537	-0.062294	0.441941
O43	O	1.527537	0.187706	0.691941
O44	O	1.777537	0.437706	0.941941
O45	O	0.907147	-0.312266	0.312310
O46	O	1.157147	-0.062266	0.562310
O47	O	1.407147	0.187734	0.812310
O48	O	1.657147	0.437734	1.062310
O49	O	1.027500	-0.403485	0.523939
O50	O	1.277500	-0.153485	0.773939
O51	O	1.527500	0.096515	1.023939
O52	O	1.777500	0.346515	1.273939
O53	O	0.907099	-0.403479	0.403518
O54	O	1.157099	-0.153479	0.653518
O55	O	1.407099	0.096521	0.903518
O56	O	1.657099	0.346521	1.153518
O57	O	1.118773	-0.312277	0.523972
O58	O	1.368773	-0.062277	0.773972
O59	O	1.618773	0.187723	1.023972
O60	O	1.868773	0.437723	1.273972
O61	O	1.118643	-0.523913	0.312325
O62	O	1.368643	-0.273913	0.562325
O63	O	1.618643	-0.023913	0.812325
O64	O	1.868643	0.226087	1.062325
O65	O	1.027426	-0.523891	0.403526
O66	O	1.277426	-0.273891	0.653526
O67	O	1.527426	-0.023891	0.903526
O68	O	1.777426	0.226109	1.153526
C69	C	0.880177	-0.357869	0.357909
C70	C	1.130177	-0.107869	0.607909
C71	C	1.380177	0.142131	0.857909
C72	C	1.630177	0.392131	1.107909
C73	C	0.797631	-0.357875	0.357909
C74	C	1.047631	-0.107875	0.607909
C75	C	1.297631	0.142125	0.857909
C76	C	1.547631	0.392125	1.107909
C77	C	0.598185	-0.308216	0.308424
C78	C	0.848185	-0.058216	0.558424
C79	C	1.098185	0.191784	0.808424
C80	C	1.348185	0.441784	1.058424
C81	C	0.548767	-0.375950	0.290154
C82	C	0.798767	-0.125950	0.540154
C83	C	1.048767	0.124050	0.790154
C84	C	1.298767	0.374050	1.040154
C85	C	0.646501	-0.357897	0.357943
C86	C	0.896501	-0.107897	0.607943
C87	C	1.146501	0.142103	0.857943
C88	C	1.396501	0.392103	1.107943
C89	C	0.548837	-0.290186	0.376212
C90	C	0.798837	-0.040186	0.626212
C91	C	1.048837	0.209814	0.876212
C92	C	1.298837	0.459814	1.126212
C93	C	0.500516	-0.357913	0.357974
C94	C	0.750516	-0.107913	0.607974
C95	C	1.000516	0.142087	0.857974
C96	C	1.250516	0.392087	1.107974
C97	C	0.598170	-0.425667	0.339636
C98	C	0.848170	-0.175667	0.589636
C99	C	1.098170	0.074333	0.839636
C100	C	1.348170	0.324333	1.089636
C101	C	0.598244	-0.339858	0.425726
C102	C	0.848244	-0.089858	0.675726
C103	C	1.098244	0.160142	0.925726
C104	C	1.348244	0.410142	1.175726
C105	C	0.548849	-0.407639	0.407481
C106	C	0.798849	-0.157639	0.657481
C107	C	1.048849	0.092361	0.907481
C108	C	1.298849	0.342361	1.157481
C109	C	0.730599	-0.357887	0.357923
C110	C	0.980599	-0.107887	0.607923
C111	C	1.230599	0.142113	0.857923
C112	C	1.480599	0.392113	1.107923
C113	C	0.416419	-0.357931	0.357994
C114	C	0.666419	-0.107931	0.607994
C115	C	0.916419	0.142069	0.857994
C116	C	1.166419	0.392069	1.107994
C117	C	1.073039	-0.550849	0.357938
C118	C	1.323039	-0.300849	0.607938
C119	C	1.573039	-0.050849	0.857938
C120	C	1.823039	0.199151	1.107938
C121	C	1.073069	-0.633394	0.357957
C122	C	1.323069	-0.383394	0.607957
C123	C	1.573069	-0.133394	0.857957
C124	C	1.823069	0.116606	1.107957
C125	C	1.023514	-0.832860	0.407536
C126	C	1.273514	-0.582860	0.657536
C127	C	1.523514	-0.332860	0.907536
C128	C	1.773514	-0.082860	1.157536
C129	C	1.005423	-0.882288	0.339766
C130	C	1.255423	-0.632288	0.589766
C131	C	1.505423	-0.382288	0.839766
C132	C	1.755423	-0.132288	1.089766
C133	C	1.073142	-0.784525	0.357967
C134	C	1.323142	-0.534525	0.607967
C135	C	1.573142	-0.284525	0.857967
C136	C	1.823142	-0.034525	1.107967
C137	C	1.091269	-0.882179	0.425744
C138	C	1.341269	-0.632179	0.675744
C139	C	1.591269	-0.382179	0.925744
C140	C	1.841269	-0.132179	1.175744
C141	C	1.073211	-0.930510	0.357982
C142	C	1.323211	-0.680510	0.607982
C143	C	1.573211	-0.430510	0.857982
C144	C	1.823211	-0.180510	1.107982
C145	C	1.055015	-0.832865	0.290162
C146	C	1.305015	-0.582865	0.540162
C147	C	1.555015	-0.332865	0.790162
C148	C	1.805015	-0.082865	1.040162
C149	C	1.140893	-0.832752	0.376185
C150	C	1.390893	-0.582752	0.626185
C151	C	1.640893	-0.332752	0.876185
C152	C	1.890893	-0.082752	1.126185
C153	C	1.122828	-0.882157	0.308369
C154	C	1.372828	-0.632157	0.558369
C155	C	1.622828	-0.382157	0.808369
C156	C	1.872828	-0.132157	1.058369
C157	C	1.073100	-0.700426	0.357959
C158	C	1.323100	-0.450426	0.607959
C159	C	1.573100	-0.200426	0.857959
C160	C	1.823100	0.049574	1.107959
C161	C	1.073253	-1.014606	0.357983
C162	C	1.323253	-0.764606	0.607983
C163	C	1.573253	-0.514606	0.857983
C164	C	1.823253	-0.264606	1.107983
C165	C	1.266834	-0.357925	0.357992
C166	C	1.516834	-0.107925	0.607992
C167	C	1.766834	0.142075	0.857992
C168	C	2.016834	0.392075	1.107992
C169	C	1.349380	-0.357937	0.358010
C170	C	1.599380	-0.107937	0.608010
C171	C	1.849380	0.142063	0.858010
C172	C	2.099380	0.392063	1.108010
C173	C	1.073137	-0.357879	0.551656
C174	C	1.323137	-0.107879	0.801656
C175	C	1.573137	0.142121	1.051656
C176	C	1.823137	0.392121	1.301656
C177	C	1.073141	-0.357871	0.634201
C178	C	1.323141	-0.107871	0.884201
C179	C	1.573141	0.142129	1.134201
C180	C	1.823141	0.392129	1.384201
C181	C	1.073239	-0.164191	0.357979
C182	C	1.323239	0.085809	0.607979
C183	C	1.573239	0.335809	0.857979
C184	C	1.823239	0.585809	1.107979
C185	C	1.073286	-0.081645	0.357991
C186	C	1.323286	0.168355	0.607991
C187	C	1.573286	0.418355	0.857991
C188	C	1.823286	0.668355	1.107991
C189	C	1.122781	-0.308285	0.883045
C190	C	1.372781	-0.058285	1.133045
C191	C	1.622781	0.191715	1.383045
C192	C	1.872781	0.441715	1.633045
C193	C	1.140911	-0.376037	0.833638
C194	C	1.390911	-0.126037	1.083638
C195	C	1.640911	0.123963	1.333638
C196	C	1.890911	0.373963	1.583638
C197	C	1.073140	-0.357899	0.931322
C198	C	1.323140	-0.107899	1.181322
C199	C	1.573140	0.142101	1.431322
C200	C	1.823140	0.392101	1.681322
C201	C	1.055046	-0.290137	0.833647
C202	C	1.305046	-0.040137	1.083647
C203	C	1.555046	0.209863	1.333647
C204	C	1.805046	0.459863	1.583647
C205	C	1.073143	-0.357882	0.785337
C206	C	1.323143	-0.107882	1.035337
C207	C	1.573143	0.142118	1.285337
C208	C	1.823143	0.392118	1.535337
C209	C	1.091305	-0.425687	0.883002
C210	C	1.341305	-0.175687	1.133002
C211	C	1.591305	0.074313	1.383002
C212	C	1.841305	0.324313	1.633002
C213	C	1.005409	-0.339741	0.883016
C214	C	1.255409	-0.089741	1.133016
C215	C	1.505409	0.160259	1.383016
C216	C	1.755409	0.410259	1.633016
C217	C	1.023513	-0.407540	0.833631
C218	C	1.273513	-0.157540	1.083631
C219	C	1.523513	0.092460	1.333631
C220	C	1.773513	0.342460	1.583631
C221	C	1.073141	-0.357907	1.015420
C222	C	1.323141	-0.107907	1.265420
C223	C	1.573141	0.142093	1.515420
C224	C	1.823141	0.392093	1.765420
C225	C	1.073142	-0.357880	0.701240
C226	C	1.323142	-0.107880	0.951240
C227	C	1.573142	0.142120	1.201240
C228	C	1.823142	0.392120	1.451240
C229	C	1.073122	-0.357924	1.164998
C230	C	1.323122	-0.107924	1.414998
C231	C	1.573122	0.142076	1.664998
C232	C	1.823122	0.392076	1.914998
C233	C	1.073140	-0.357910	1.082452
C234	C	1.323140	-0.107910	1.332452
C235	C	1.573140	0.142090	1.582452
C236	C	1.823140	0.392090	1.832452
H237	H	0.619750	-0.482953	0.324134
H238	H	0.869750	-0.232953	0.574134
H239	H	1.119750	0.017047	0.824134
H240	H	1.369750	0.267047	1.074134
H241	H	0.948160	-0.904062	0.324371
H242	H	1.198160	-0.654062	0.574371
H243	H	1.448160	-0.404062	0.824371
H244	H	1.698160	-0.154062	1.074371
C245	C	1.112081	-0.503111	0.912161
C246	C	1.362081	-0.253111	1.162161
C247	C	1.612081	-0.003111	1.412161
C248	C	1.862081	0.246889	1.662161
H249	H	1.111981	-0.502637	0.964791
H250	H	1.361981	-0.252637	1.214791
H251	H	1.611981	-0.002637	1.464791
H252	H	1.861981	0.247363	1.714791
H253	H	1.077044	-0.538378	0.894848
H254	H	1.327044	-0.288378	1.144848
H255	H	1.577044	-0.038378	1.394848
H256	H	1.827044	0.211622	1.644848
H257	H	1.160051	-0.516075	0.894843
H258	H	1.410051	-0.266075	1.144843
H259	H	1.660051	-0.016075	1.394843
H260	H	1.910051	0.233925	1.644843
H261	H	0.527323	-0.449709	0.449370
H262	H	0.777323	-0.199709	0.699370
H263	H	1.027323	0.050291	0.949370
H264	H	1.277323	0.300291	1.199370
H265	H	0.527035	-0.391220	0.232844
H266	H	0.777035	-0.141220	0.482844
H267	H	1.027035	0.108780	0.732844
H268	H	1.277035	0.358780	0.982844
C269	C	1.111948	-0.911441	0.503165
C270	C	1.361948	-0.661441	0.753165
C271	C	1.611948	-0.411441	1.003165
C272	C	1.861948	-0.161441	1.253165
H273	H	1.076614	-0.894552	0.538314
H274	H	1.326614	-0.644552	0.788314
H275	H	1.576614	-0.394552	1.038314
H276	H	1.826614	-0.144552	1.288314
H277	H	1.112270	-0.964061	0.502509
H278	H	1.362270	-0.714061	0.752509
H279	H	1.612270	-0.464061	1.002509
H280	H	1.862270	-0.214061	1.252509
H281	H	1.159715	-0.893744	0.516440
H282	H	1.409715	-0.643744	0.766440
H283	H	1.659715	-0.393744	1.016440
H284	H	1.909715	-0.143744	1.266440
H285	H	1.164792	-0.266387	0.904741
H286	H	1.414792	-0.016387	1.154741
H287	H	1.664792	0.233613	1.404741
H288	H	1.914792	0.483613	1.654741
H289	H	1.198191	-0.391391	0.811946
H290	H	1.448191	-0.141391	1.061946
H291	H	1.698191	0.108609	1.311946
H292	H	1.948191	0.358609	1.561946
C293	C	1.179564	-0.911224	0.251692
C294	C	1.429564	-0.661224	0.501692
C295	C	1.679564	-0.411224	0.751692
C296	C	1.929564	-0.161224	1.001692
H297	H	1.215867	-0.940154	0.276480
H298	H	1.465867	-0.690154	0.526480
H299	H	1.715867	-0.440154	0.776480
H300	H	1.965867	-0.190154	1.026480
H301	H	1.154942	-0.940892	0.215851
H302	H	1.404942	-0.690892	0.465851
H303	H	1.654942	-0.440892	0.715851
H304	H	1.904942	-0.190892	0.965851
H305	H	1.202895	-0.870553	0.227786
H306	H	1.452895	-0.620553	0.477786
H307	H	1.702895	-0.370553	0.727786
H308	H	1.952895	-0.120553	0.977786
H309	H	0.948145	-0.324365	0.904722
H310	H	1.198145	-0.074365	1.154722
H311	H	1.448145	0.175635	1.404722
H312	H	1.698145	0.425635	1.654722
C313	C	0.966807	-0.464271	0.804497
C314	C	1.216807	-0.214271	1.054497
C315	C	1.466807	0.035729	1.304497
C316	C	1.716807	0.285729	1.554497
H317	H	0.979783	-0.512357	0.821488
H318	H	1.229783	-0.262357	1.071488
H319	H	1.479783	-0.012357	1.321488
H320	H	1.729783	0.237643	1.571488
H321	H	0.918836	-0.451790	0.822151
H322	H	1.168836	-0.201790	1.072151
H323	H	1.418836	0.048210	1.322151
H324	H	1.668836	0.298210	1.572151
H325	H	0.966831	-0.463676	0.751871
H326	H	1.216831	-0.213676	1.001871
H327	H	1.466831	0.036324	1.251871
H328	H	1.716831	0.286324	1.501871
H329	H	0.527127	-0.232925	0.391625
H330	H	0.777127	0.017075	0.641625
H331	H	1.027127	0.267075	0.891625
H332	H	1.277127	0.517075	1.141625
C333	C	0.627633	-0.319203	0.503121
C334	C	0.877633	-0.069203	0.753121
C335	C	1.127633	0.180797	1.003121
C336	C	1.377633	0.430797	1.253121
H337	H	0.610773	-0.271047	0.516018
H338	H	0.860773	-0.021047	0.766018
H339	H	1.110773	0.228953	1.016018
H340	H	1.360773	0.478953	1.266018
H341	H	0.610007	-0.354008	0.538434
H342	H	0.860007	-0.104008	0.788434
H343	H	1.110007	0.145992	1.038434
H344	H	1.360007	0.395992	1.288434
H345	H	0.680257	-0.319792	0.502651
H346	H	0.930257	-0.069792	0.752651
H347	H	1.180257	0.180208	1.002651
H348	H	1.430257	0.430208	1.252651
C349	C	1.034362	-0.212734	0.804364
C350	C	1.284362	0.037266	1.054364
C351	C	1.534362	0.287266	1.304364
C352	C	1.784362	0.537266	1.554364
H353	H	1.069681	-0.177553	0.821295
H354	H	1.319681	0.072447	1.071295
H355	H	1.569681	0.322447	1.321295
H356	H	1.819681	0.572447	1.571295
H357	H	1.034066	-0.213388	0.751743
H358	H	1.284066	0.036612	1.001743
H359	H	1.534066	0.286612	1.251743
H360	H	1.784066	0.536612	1.501743
H361	H	0.986584	-0.199503	0.822006
H362	H	1.236584	0.050497	1.072006
H363	H	1.486584	0.300497	1.322006
H364	H	1.736584	0.550497	1.572006
H365	H	0.981483	-0.811214	0.449395
H366	H	1.231483	-0.561214	0.699395
H367	H	1.481483	-0.311214	0.949395
H368	H	1.731483	-0.061214	1.199395
H369	H	1.039645	-0.811293	0.232834
H370	H	1.289645	-0.561293	0.482834
H371	H	1.539645	-0.311293	0.732834
H372	H	1.789645	-0.061293	0.982834
C373	C	0.627458	-0.251523	0.251797
C374	C	0.877458	-0.001523	0.501797
C375	C	1.127458	0.248477	0.751797
C376	C	1.377458	0.498477	1.001797
H377	H	0.610515	-0.264470	0.203669
H378	H	0.860515	-0.014470	0.453669
H379	H	1.110515	0.235530	0.703669
H380	H	1.360515	0.485530	0.953669
H381	H	0.609842	-0.203538	0.264291
H382	H	0.859842	0.046462	0.514291
H383	H	1.109842	0.296462	0.764291
H384	H	1.359842	0.546462	1.014291
H385	H	0.680083	-0.251599	0.252487
H386	H	0.930083	-0.001599	0.502487
H387	H	1.180083	0.248401	0.752487
H388	H	1.430083	0.498401	1.002487
C389	C	1.218245	-0.803361	0.397012
C390	C	1.468245	-0.553361	0.647012
C391	C	1.718245	-0.303361	0.897012
C392	C	1.968245	-0.053361	1.147012
H393	H	1.231032	-0.820223	0.445199
H394	H	1.481032	-0.570223	0.695199
H395	H	1.731032	-0.320223	0.945199
H396	H	1.981032	-0.070223	1.195199
H397	H	1.253628	-0.820992	0.362287
H398	H	1.503628	-0.570992	0.612287
H399	H	1.753628	-0.320992	0.862287
H400	H	2.003628	-0.070992	1.112287
H401	H	1.217793	-0.750737	0.396412
H402	H	1.467793	-0.500737	0.646412
H403	H	1.717793	-0.250737	0.896412
H404	H	1.967793	-0.000737	1.146412
