data_functionalizedCrystal
_audit_creation_method	'MofGen! by Chris Wilmer'
_symmetry_space_group_name_H-M	'P1'
_symmetry_Int_Tables_number	1
_symmetry_cell_setting	triclinic
loop_
_symmetry_equiv_pos_as_xyz
  x,y,z
_cell_length_a	8.559649
_cell_length_b	14.044190
_cell_length_c	13.101018
_cell_angle_alpha	93.660631
_cell_angle_beta	87.112224
_cell_angle_gamma	81.485221
loop_
_atom_site_label
_atom_site_type_symbol
_atom_site_fract_x
_atom_site_fract_y
_atom_site_fract_z
O1	O	2.123561	-0.037633	-0.085194
O2	O	2.373561	0.212367	0.164806
O3	O	2.623561	0.462367	0.414806
O4	O	2.873561	0.712367	0.664806
O5	O	1.665265	0.010816	-0.085204
O6	O	1.915265	0.260816	0.164796
O7	O	2.165265	0.510816	0.414796
O8	O	2.415265	0.760816	0.664796
O9	O	1.887526	-0.150890	-0.085179
O10	O	2.137526	0.099110	0.164821
O11	O	2.387526	0.349110	0.414821
O12	O	2.637526	0.599110	0.664821
O13	O	1.901300	0.124074	-0.085219
O14	O	2.151300	0.374074	0.164781
O15	O	2.401300	0.624074	0.414781
O16	O	2.651300	0.874074	0.664781
O17	O	1.871561	-0.139278	0.085249
O18	O	2.121561	0.110722	0.335249
O19	O	2.371561	0.360722	0.585249
O20	O	2.621561	0.610722	0.835249
O21	O	1.649300	0.022429	0.085224
O22	O	1.899300	0.272429	0.335224
O23	O	2.149300	0.522429	0.585224
O24	O	2.399300	0.772429	0.835224
O25	O	2.107595	-0.026020	0.085235
O26	O	2.357595	0.223980	0.335235
O27	O	2.607595	0.473980	0.585235
O28	O	2.857595	0.723980	0.835235
Zn29	Zn	1.875912	0.000048	0.112289
Zn30	Zn	2.125912	0.250048	0.362289
Zn31	Zn	2.375912	0.500048	0.612289
Zn32	Zn	2.625912	0.750048	0.862289
Zn33	Zn	1.896948	-0.015252	-0.112258
Zn34	Zn	2.146948	0.234748	0.137742
Zn35	Zn	2.396948	0.484748	0.387742
Zn36	Zn	2.646948	0.734748	0.637742
O37	O	1.885334	0.135687	0.085209
O38	O	2.135334	0.385687	0.335209
O39	O	2.385334	0.635687	0.585209
O40	O	2.635334	0.885687	0.835209
C41	C	1.598276	0.020294	0.000009
C42	C	1.848276	0.270294	0.250009
C43	C	2.098276	0.520294	0.500009
C44	C	2.348276	0.770294	0.750009
C45	C	1.422455	0.031223	0.000006
C46	C	1.672455	0.281223	0.250006
C47	C	1.922455	0.531223	0.500006
C48	C	2.172455	0.781223	0.750006
C49	C	1.873519	-0.179960	0.000038
C50	C	2.123519	0.070040	0.250038
C51	C	2.373519	0.320040	0.500038
C52	C	2.623519	0.570040	0.750038
C53	C	1.855550	-0.283877	0.000047
C54	C	2.105550	-0.033877	0.250047
C55	C	2.355550	0.216123	0.500047
C56	C	2.605550	0.466123	0.750047
C57	C	1.950139	-0.541052	0.000009
C58	C	2.200139	-0.291052	0.250009
C59	C	2.450139	-0.041052	0.500009
C60	C	2.700139	0.208948	0.750009
C61	C	1.822729	-0.474147	0.000013
C62	C	2.072729	-0.224147	0.250013
C63	C	2.322729	0.025853	0.500013
C64	C	2.572729	0.275853	0.750013
C65	C	1.840995	-0.368272	0.000032
C66	C	2.090995	-0.118272	0.250032
C67	C	2.340995	0.131728	0.500032
C68	C	2.590995	0.381728	0.750032
C69	C	1.931875	-0.646938	-0.000010
C70	C	2.181875	-0.396938	0.249990
C71	C	2.431875	-0.146938	0.499990
C72	C	2.681875	0.103062	0.749990
C73	C	2.174584	-0.035498	0.000019
C74	C	2.424584	0.214502	0.250019
C75	C	2.674584	0.464502	0.500019
C76	C	2.924584	0.714502	0.750019
C77	C	2.350406	-0.046427	0.000016
C78	C	2.600406	0.203573	0.250016
C79	C	2.850406	0.453573	0.500016
C80	C	3.100406	0.703573	0.750016
C81	C	1.899341	0.164756	-0.000010
C82	C	2.149341	0.414756	0.249990
C83	C	2.399341	0.664756	0.499990
C84	C	2.649341	0.914756	0.749990
C85	C	1.917311	0.268673	-0.000025
C86	C	2.167311	0.518673	0.249975
C87	C	2.417311	0.768673	0.499975
C88	C	2.667311	1.018673	0.749975
N89	N	1.861568	0.010489	0.265536
N90	N	2.111568	0.260489	0.515536
N91	N	2.361568	0.510489	0.765536
N92	N	2.611568	0.760489	1.015536
N93	N	1.911304	-0.025701	-0.265506
N94	N	2.161304	0.224299	-0.015506
N95	N	2.411304	0.474299	0.234494
N96	N	2.661304	0.724299	0.484494
C97	C	1.930812	-0.039909	0.525453
C98	C	2.180812	0.210091	0.775453
C99	C	2.430812	0.460091	1.025453
C100	C	2.680812	0.710091	1.275453
C101	C	1.842065	0.024694	0.474570
C102	C	2.092065	0.274694	0.724570
C103	C	2.342065	0.524694	0.974570
C104	C	2.592065	0.774694	1.224570
C105	C	1.852919	0.016788	0.358253
C106	C	2.102919	0.266788	0.608253
C107	C	2.352919	0.516788	0.858253
C108	C	2.602919	0.766788	1.108253
C109	C	1.919959	-0.032005	0.641781
C110	C	2.169959	0.217995	0.891781
C111	C	2.419959	0.467995	1.141781
C112	C	2.669959	0.717995	1.391781
H113	H	1.423232	-0.121269	0.000021
H114	H	1.673232	0.128731	0.250021
H115	H	1.923232	0.378731	0.500021
H116	H	2.173232	0.628731	0.750021
F117	F	1.662223	-0.503209	0.000006
F118	F	1.912223	-0.253209	0.250006
F119	F	2.162223	-0.003209	0.500006
F120	F	2.412223	0.246791	0.750006
H121	H	1.349621	0.106069	-0.000011
H122	H	1.599621	0.356069	0.249989
H123	H	1.849621	0.606069	0.499989
H124	H	2.099621	0.856069	0.749989
F125	F	2.110633	-0.511988	0.000025
F126	F	2.360633	-0.261988	0.250025
F127	F	2.610633	-0.011988	0.500025
F128	F	2.860633	0.238012	0.750025
H129	H	1.757935	0.085939	0.518366
H130	H	2.007935	0.335939	0.768366
H131	H	2.257935	0.585939	1.018366
H132	H	2.507935	0.835939	1.268366
H133	H	2.014938	-0.101149	0.481663
H134	H	2.264938	0.148851	0.731663
H135	H	2.514938	0.398851	0.981663
H136	H	2.764938	0.648851	1.231663
