data_functionalizedCrystal
_audit_creation_method	'MofGen! by Chris Wilmer'
_symmetry_space_group_name_H-M	'P1'
_symmetry_Int_Tables_number	1
_symmetry_cell_setting	triclinic
loop_
_symmetry_equiv_pos_as_xyz
  x,y,z
_cell_length_a	19.805405
_cell_length_b	16.959455
_cell_length_c	19.805399
_cell_angle_alpha	90.018408
_cell_angle_beta	89.970699
_cell_angle_gamma	89.978820
loop_
_atom_site_label
_atom_site_type_symbol
_atom_site_fract_x
_atom_site_fract_y
_atom_site_fract_z
Zn1	Zn	-0.269573	-1.208374	-0.382690
Zn2	Zn	-0.382762	-1.208274	-0.269499
Zn3	Zn	-0.269582	-1.076195	-0.269517
Zn4	Zn	-0.382715	-1.076152	-0.382648
O5	O	-0.326158	-1.142249	-0.326089
O6	O	-0.284604	-1.318971	-0.367685
O7	O	-0.367771	-1.190730	-0.174785
O8	O	-0.174864	-1.093788	-0.284556
O9	O	-0.367763	-1.318898	-0.284524
O10	O	-0.174858	-1.190899	-0.367703
O11	O	-0.284618	-1.093692	-0.174798
O12	O	-0.284573	-0.965578	-0.284514
O13	O	-0.367684	-1.093715	-0.477370
O14	O	-0.367692	-0.965547	-0.367631
O15	O	-0.284559	-1.190858	-0.477401
O16	O	-0.477472	-1.190689	-0.284483
O17	O	-0.477438	-1.093619	-0.367613
C18	C	-0.326129	-0.936883	-0.326070
C19	C	-0.326133	-0.849026	-0.326079
C20	C	-0.502014	-1.142160	-0.326056
C21	C	-0.577246	-1.142194	-0.326065
C22	C	-0.282821	-0.477542	-0.282891
C23	C	-0.369508	-0.477558	-0.369307
C24	C	-0.369501	-0.560104	-0.369304
C25	C	-0.326154	-0.601373	-0.326093
C26	C	-0.282814	-0.560096	-0.282885
C27	C	-0.412844	-0.601388	-0.412506
C28	C	-0.412840	-0.683939	-0.412504
C29	C	-0.369489	-0.725209	-0.369296
C30	C	-0.326147	-0.683927	-0.326087
C31	C	-0.282800	-0.725195	-0.282877
C32	C	-0.239454	-0.683914	-0.239671
C33	C	-0.239463	-0.601366	-0.239678
C34	C	-0.369480	-0.807757	-0.369289
C35	C	-0.282793	-0.807749	-0.282871
C36	C	-0.612585	-1.192787	-0.282824
C37	C	-0.683274	-1.192821	-0.282839
C38	C	-0.718622	-1.142257	-0.326092
C39	C	-0.683277	-1.091661	-0.369337
C40	C	-0.612590	-1.091632	-0.369325
C41	C	-0.968351	-1.091778	-0.369387
C42	C	-1.039043	-1.091809	-0.369394
C43	C	-1.039034	-1.192966	-0.282901
C44	C	-0.968347	-1.192937	-0.282889
C45	C	-0.933009	-1.142345	-0.326137
C46	C	-0.856361	-1.142311	-0.326121
C47	C	-0.795269	-1.142287	-0.326104
C48	C	-0.149615	-1.142360	-0.326136
C49	C	-0.074383	-1.142407	-0.326157
C50	C	-0.326115	-1.142293	-0.502631
C51	C	-0.326097	-1.142312	-0.577863
C52	C	-0.326179	-0.348417	-0.326104
C53	C	-0.326168	-0.436274	-0.326102
C54	C	-0.282812	-1.192895	-0.613225
C55	C	-0.282792	-1.192903	-0.683913
C56	C	-0.326062	-1.142332	-0.719239
C57	C	-0.369349	-1.091743	-0.683873
C58	C	-0.369365	-1.091731	-0.613185
C59	C	-0.369286	-1.091787	-0.968946
C60	C	-0.369268	-1.091805	-1.039638
C61	C	-0.282713	-1.192960	-1.039674
C62	C	-0.282729	-1.192948	-0.968987
C63	C	-0.326014	-1.142357	-0.933627
C64	C	-0.326033	-1.142347	-0.856978
C65	C	-0.326046	-1.142344	-0.795886
C66	C	-0.326152	-1.142250	-0.150233
C67	C	-0.325979	-1.142384	-0.075001
H68	H	-0.204164	-0.717526	-0.204486
H69	H	-0.712063	-1.050494	-0.404557
H70	H	-1.067821	-1.050635	-0.404621
H71	H	-0.247497	-1.234131	-0.940228
H72	H	-0.247547	-1.234095	-0.712702
C73	C	-0.416634	-0.432898	-0.416252
C74	C	-0.454594	-0.486717	-0.454083
C75	C	-0.498017	-0.445602	-0.497336
H76	H	-0.390850	-0.400717	-0.445847
H77	H	-0.446134	-0.400688	-0.390331
H78	H	-0.425097	-0.518913	-0.480002
H79	H	-0.480391	-0.518899	-0.424506
H80	H	-0.527518	-0.413392	-0.471415
H81	H	-0.472228	-0.413423	-0.526927
H82	H	-0.523783	-0.482112	-0.523005
H83	H	-0.939584	-1.050583	-0.404599
H84	H	-0.404578	-1.050564	-0.712640
C85	C	-0.574341	-1.036618	-0.416301
C86	C	-0.620425	-0.992329	-0.454171
C87	C	-0.585215	-0.941638	-0.497451
H88	H	-0.546727	-1.066741	-0.445869
H89	H	-0.546816	-1.002141	-0.390396
H90	H	-0.647937	-1.026802	-0.480073
H91	H	-0.648040	-0.962190	-0.424621
H92	H	-0.557691	-0.907160	-0.471547
H93	H	-0.557603	-0.971767	-0.527015
H94	H	-0.616477	-0.911576	-0.523147
C95	C	-0.235815	-0.852511	-0.235841
C96	C	-0.250477	-0.832406	-0.168847
C97	C	-0.207222	-0.873633	-0.125503
H98	H	-0.190326	-0.839039	-0.245741
H99	H	-0.242025	-0.907594	-0.241976
H100	H	-0.244262	-0.777335	-0.162714
H101	H	-0.295958	-0.845879	-0.158926
H102	H	-0.213432	-0.928716	-0.131639
H103	H	-0.161736	-0.860158	-0.135410
H104	H	-0.217169	-0.860003	-0.080043
C105	C	-0.416451	-0.852536	-0.416306
C106	C	-0.401795	-0.832505	-0.483304
C107	C	-0.445046	-0.873747	-0.526638
H108	H	-0.461941	-0.839025	-0.406405
H109	H	-0.410231	-0.907617	-0.410161
H110	H	-0.408021	-0.777436	-0.489445
H111	H	-0.356313	-0.846018	-0.493225
H112	H	-0.438827	-0.928828	-0.520493
H113	H	-0.490534	-0.860233	-0.516731
H114	H	-0.435104	-0.860167	-0.572101
C115	C	-0.192475	-0.556404	-0.192802
C116	C	-0.201772	-0.475279	-0.202046
C117	C	-0.158503	-0.433833	-0.158873
H118	H	-0.146984	-0.569857	-0.202753
H119	H	-0.202319	-0.569858	-0.147289
H120	H	-0.191923	-0.461830	-0.247549
H121	H	-0.247254	-0.461803	-0.192090
H122	H	-0.168347	-0.447287	-0.113359
H123	H	-0.113014	-0.447292	-0.168828
H124	H	-0.164809	-0.378786	-0.165134
C125	C	-0.235758	-1.247834	-0.574997
C126	C	-0.197833	-1.292118	-0.621098
C127	C	-0.154471	-1.342726	-0.585910
H128	H	-0.261584	-1.282324	-0.547417
H129	H	-0.206232	-1.217628	-0.547440
H130	H	-0.227355	-1.322321	-0.648643
H131	H	-0.171994	-1.257648	-0.648680
H132	H	-0.124945	-1.312521	-0.558353
H133	H	-0.180302	-1.377212	-0.558331
H134	H	-0.128730	-1.372774	-0.617184
C135	C	-0.235736	-1.247796	-1.078189
C136	C	-0.244964	-1.236968	-1.147655
C137	C	-0.201696	-1.287461	-1.183153
H138	H	-0.245610	-1.300928	-1.066692
H139	H	-0.190245	-1.236247	-1.066651
H140	H	-0.290444	-1.248523	-1.159188
H141	H	-0.235085	-1.183846	-1.159172
H142	H	-0.156206	-1.275913	-1.171615
H143	H	-0.211574	-1.340591	-1.171651
H144	H	-0.207947	-1.280117	-1.230289
C145	C	-0.459810	-0.728711	-0.459530
C146	C	-0.445147	-0.708674	-0.526525
C147	C	-0.488394	-0.749911	-0.569866
H148	H	-0.505301	-0.715199	-0.449633
H149	H	-0.453593	-0.783792	-0.453388
H150	H	-0.451370	-0.653605	-0.532663
H151	H	-0.399664	-0.722188	-0.536442
H152	H	-0.482177	-0.804993	-0.563725
H153	H	-0.533882	-0.736396	-0.559964
H154	H	-0.478447	-0.736328	-0.615327
C155	C	-0.416272	-1.036804	-1.077871
C156	C	-0.454169	-0.992478	-1.031776
C157	C	-0.497466	-0.941800	-1.066972
H158	H	-0.445823	-1.066937	-1.105444
H159	H	-0.390379	-1.002348	-1.105436
H160	H	-0.480059	-1.026930	-1.004223
H161	H	-0.424635	-0.962329	-1.004202
H162	H	-0.471573	-0.907345	-1.094536
H163	H	-0.527013	-0.971940	-1.094543
H164	H	-0.523180	-0.911715	-1.035701
H165	H	-0.404541	-1.050604	-0.940164
C166	C	-0.416480	-1.036921	-0.574821
C167	C	-0.483447	-1.054114	-0.591985
C168	C	-0.526869	-1.003647	-0.556649
H169	H	-0.406660	-0.983789	-0.586366
H170	H	-0.410336	-1.044168	-0.527658
H171	H	-0.489588	-1.046860	-0.639138
H172	H	-0.493288	-1.107237	-0.580439
H173	H	-0.520725	-1.010894	-0.509486
H174	H	-0.517043	-0.950517	-0.568197
H175	H	-0.572311	-1.015310	-0.568285
H176	H	-0.247528	-0.443928	-0.247716
C177	C	-0.929848	-1.247750	-0.235954
C178	C	-0.860380	-1.236881	-0.245187
C179	C	-0.824895	-1.287356	-0.201957
H180	H	-0.941311	-1.300889	-0.245861
H181	H	-0.941431	-1.236211	-0.190455
H182	H	-0.848801	-1.248425	-0.290676
H183	H	-0.848897	-1.183753	-0.235275
H184	H	-0.836477	-1.275817	-0.156457
H185	H	-0.836363	-1.340491	-0.211867
H186	H	-0.777757	-1.279983	-0.208210
C187	C	-0.574333	-1.247772	-0.235835
C188	C	-0.620415	-1.292100	-0.197983
C189	C	-0.585205	-1.342770	-0.154697
H190	H	-0.546795	-1.217632	-0.206255
H191	H	-0.546733	-1.282226	-0.261733
H192	H	-0.648004	-1.257651	-0.172087
H193	H	-0.647955	-1.322256	-0.227546
H194	H	-0.557604	-1.377224	-0.180595
H195	H	-0.557668	-1.312624	-0.125121
H196	H	-0.616466	-1.372858	-0.129013
H197	H	-0.712044	-1.234018	-0.247628
C198	C	-1.077281	-1.247934	-0.235877
C199	C	-1.031194	-1.292191	-0.197982
C200	C	-1.066399	-1.342824	-0.154650
H201	H	-1.104818	-1.282441	-0.261723
H202	H	-1.104881	-1.217747	-0.206331
H203	H	-1.003605	-1.322376	-0.227524
H204	H	-1.003655	-1.257705	-0.172122
H205	H	-1.094000	-1.312637	-0.125103
H206	H	-1.093935	-1.377326	-0.180501
H207	H	-1.035135	-1.372853	-0.128928
H208	H	-0.448140	-0.567781	-0.447681
