data_functionalizedCrystal
_audit_creation_method	'MofGen! by Chris Wilmer'
_symmetry_space_group_name_H-M	'P1'
_symmetry_Int_Tables_number	1
_symmetry_cell_setting	triclinic
loop_
_symmetry_equiv_pos_as_xyz
  x,y,z
_cell_length_a	10.489741
_cell_length_b	16.109301
_cell_length_c	15.186229
_cell_angle_alpha	90.005167
_cell_angle_beta	89.994657
_cell_angle_gamma	95.999673
loop_
_atom_site_label
_atom_site_type_symbol
_atom_site_fract_x
_atom_site_fract_y
_atom_site_fract_z
O1	O	1.692350	-0.117298	-0.073273
O2	O	1.320995	-0.128308	-0.073266
O3	O	1.516874	-0.001835	-0.073260
O4	O	1.496471	-0.243771	-0.073278
O5	O	1.516861	-0.001833	0.073197
O6	O	1.320981	-0.128306	0.073192
O7	O	1.692337	-0.117296	0.073185
Zn8	Zn	1.506657	-0.122801	0.096441
Zn9	Zn	1.506674	-0.122803	-0.096522
O10	O	1.496458	-0.243769	0.073179
C11	C	1.516041	0.029146	-0.000031
C12	C	1.513563	0.121457	-0.000030
C13	C	1.273468	-0.127475	-0.000036
C14	C	1.131875	-0.124987	-0.000033
C15	C	1.739863	-0.118128	-0.000047
C16	C	1.881456	-0.120616	-0.000056
C17	C	1.948429	-0.201087	-0.000052
C18	C	2.041114	-0.163075	-0.072257
C19	C	2.041067	-0.163054	0.072138
C20	C	1.972276	-0.082570	-0.072321
C21	C	1.972220	-0.082560	0.072140
C22	C	2.064878	-0.044489	-0.000083
C23	C	1.497291	-0.274750	-0.000052
C24	C	1.499769	-0.367060	-0.000059
N25	N	1.506655	-0.122798	0.228134
C26	C	1.624032	0.343048	-0.000046
C27	C	1.621694	0.429783	-0.000053
C28	C	1.389290	0.411341	-0.000045
C29	C	1.391630	0.324608	-0.000045
C30	C	1.509004	0.290464	-0.000040
C31	C	1.504327	0.463932	-0.000049
C32	C	1.501791	0.557974	-0.000056
C33	C	1.511541	0.196417	-0.000034
N34	N	1.506687	-0.122799	-0.228215
C35	C	1.593419	-0.066815	0.453859
C36	C	1.593423	-0.066813	0.546049
C37	C	1.419913	-0.178784	0.546053
C38	C	1.419904	-0.178782	0.453865
C39	C	1.506664	-0.122798	0.407771
C40	C	1.506677	-0.122799	0.592148
C41	C	1.506681	-0.122797	0.692104
C42	C	1.506659	-0.122799	0.307808
H43	H	1.897820	-0.267251	-0.000130
H44	H	1.293728	0.439152	-0.000047
H45	H	1.349276	-0.224366	0.583593
O46	O	1.931746	-0.037490	0.153012
H47	H	1.884724	0.018073	0.132699
H48	H	2.071646	-0.197126	-0.133305
O49	O	2.131630	0.043227	-0.000087
H50	H	2.102760	0.076797	0.059313
H51	H	1.719606	0.315251	-0.000045
H52	H	1.715362	0.472594	-0.000060
O53	O	1.267559	0.267882	-0.000029
H54	H	1.185548	0.306194	-0.000015
O55	O	1.686977	-0.006427	0.404138
H56	H	1.747293	0.032508	0.451679
O57	O	1.932110	-0.037500	-0.153272
H58	H	2.018022	-0.016931	-0.193462
H59	H	2.071544	-0.197116	0.133184
H60	H	1.664066	-0.021226	0.583572
O61	O	1.326332	-0.239168	0.404145
H62	H	1.266018	-0.278107	0.451683
