data_functionalizedCrystal
_audit_creation_method	'MofGen! by Chris Wilmer'
_symmetry_space_group_name_H-M	'P1'
_symmetry_Int_Tables_number	1
_symmetry_cell_setting	triclinic
loop_
_symmetry_equiv_pos_as_xyz
  x,y,z
_cell_length_a	19.805407
_cell_length_b	19.805405
_cell_length_c	12.759393
_cell_angle_alpha	89.966133
_cell_angle_beta	89.971683
_cell_angle_gamma	90.025972
loop_
_atom_site_label
_atom_site_type_symbol
_atom_site_fract_x
_atom_site_fract_y
_atom_site_fract_z
Zn1	Zn	1.034762	-0.269444	-0.594202
Zn2	Zn	1.034668	-0.382647	-0.418512
Zn3	Zn	0.921568	-0.269475	-0.418515
Zn4	Zn	0.921539	-0.382595	-0.594127
O5	O	0.978134	-0.326040	-0.506339
O6	O	1.129466	-0.284469	-0.570927
O7	O	1.019638	-0.367669	-0.271491
O8	O	0.936635	-0.174755	-0.441853
O9	O	1.129397	-0.367639	-0.441848
O10	O	1.019798	-0.174732	-0.570930
O11	O	0.936544	-0.284523	-0.271493
O12	O	0.826848	-0.284473	-0.441780
O13	O	0.936586	-0.367550	-0.741158
O14	O	0.826827	-0.367581	-0.570801
O15	O	1.019770	-0.284419	-0.741213
O16	O	1.019610	-0.477356	-0.441775
O17	O	0.936495	-0.477318	-0.570798
C18	C	0.802278	-0.326025	-0.506283
C19	C	0.727046	-0.326035	-0.506284
C20	C	0.265262	-0.369396	-0.573482
C21	C	0.335950	-0.369395	-0.573460
C22	C	0.371285	-0.326057	-0.506380
C23	C	0.335927	-0.282721	-0.439311
C24	C	0.265240	-0.282726	-0.439328
C25	C	0.621000	-0.282701	-0.439237
C26	C	0.691692	-0.282697	-0.439226
C27	C	0.691711	-0.369369	-0.573368
C28	C	0.621024	-0.369374	-0.573386
C29	C	0.585672	-0.326042	-0.506313
C30	C	0.509023	-0.326045	-0.506337
C31	C	0.447932	-0.326050	-0.506361
C32	C	0.978057	-0.501896	-0.506301
C33	C	0.978086	-0.577128	-0.506320
C34	C	1.021363	-0.612402	-0.573583
C35	C	1.021388	-0.683091	-0.573602
C36	C	0.978138	-0.718504	-0.506353
C37	C	0.934856	-0.683225	-0.439087
C38	C	0.934828	-0.612538	-0.439073
C39	C	0.934965	-0.968298	-0.439141
C40	C	0.934997	-1.038990	-0.439157
C41	C	1.021524	-1.038851	-0.573670
C42	C	1.021496	-0.968164	-0.573656
C43	C	0.978212	-0.932891	-0.506395
C44	C	0.978185	-0.856243	-0.506376
C45	C	0.978168	-0.795151	-0.506366
C46	C	1.154677	-0.326056	-0.506396
C47	C	1.229909	-0.326063	-0.506420
C48	C	0.978185	-0.325975	-0.780372
C49	C	0.978207	-0.325948	-0.897149
C50	C	0.978230	-0.149497	-0.506400
C51	C	0.978271	-0.074265	-0.506426
C52	C	1.021524	-0.282654	-0.952042
C53	C	1.021535	-0.282625	-1.061766
C54	C	0.934910	-0.369189	-1.061695
C55	C	0.934896	-0.369214	-0.951973
C56	C	0.978123	-0.326056	-0.233372
C57	C	0.978232	-0.325893	-0.116596
H58	H	0.720503	-0.404654	-0.627980
H59	H	0.236498	-0.404684	-0.628112
H60	H	1.056788	-0.247422	-0.907407
O61	O	1.068257	-0.235924	-1.120960
H62	H	1.037986	-0.201465	-1.170932
H63	H	0.899617	-0.404468	-0.907278
O64	O	0.888199	-0.415854	-1.120825
H65	H	0.895489	-0.408568	-1.206344
O66	O	1.068199	-1.076898	-0.646236
H67	H	1.102659	-1.109104	-0.599279
H68	H	0.364732	-0.404683	-0.628066
H69	H	0.592258	-0.404663	-0.628013
H70	H	0.720459	-0.247403	-0.384600
H71	H	1.056634	-0.711807	-0.628366
O72	O	0.582874	-0.235959	-0.366908
H73	H	0.619322	-0.205818	-0.320273
H74	H	0.364701	-0.247437	-0.384688
H75	H	0.236456	-0.247438	-0.384722
H76	H	1.056585	-0.583573	-0.628340
H77	H	0.899638	-0.712064	-0.384335
O78	O	1.068154	-0.929966	-0.646172
H79	H	1.098253	-0.966371	-0.692950
H80	H	0.899774	-1.067822	-0.384393
H81	H	0.899587	-0.583819	-0.384302
O82	O	0.888296	-0.930257	-0.366577
H83	H	0.858237	-0.966760	-0.319805
