data_functionalizedCrystal
_audit_creation_method	'MofGen! by Chris Wilmer'
_symmetry_space_group_name_H-M	'P1'
_symmetry_Int_Tables_number	1
_symmetry_cell_setting	triclinic
loop_
_symmetry_equiv_pos_as_xyz
  x,y,z
_cell_length_a	13.032831
_cell_length_b	16.625546
_cell_length_c	13.033352
_cell_angle_alpha	82.833343
_cell_angle_beta	89.095163
_cell_angle_gamma	82.826778
loop_
_atom_site_label
_atom_site_type_symbol
_atom_site_fract_x
_atom_site_fract_y
_atom_site_fract_z
Zn1	Zn	1.498220	-0.544737	0.780749
Zn2	Zn	1.998220	-0.044737	1.280749
Zn3	Zn	1.519997	-0.664820	0.608762
Zn4	Zn	2.019997	-0.164820	1.108762
Zn5	Zn	1.348133	-0.511001	0.587001
Zn6	Zn	1.848133	-0.011001	1.087001
Zn7	Zn	1.326205	-0.660503	0.758883
Zn8	Zn	1.826205	-0.160503	1.258883
O9	O	1.423139	-0.595265	0.683849
O10	O	1.923139	-0.095265	1.183849
O11	O	1.645023	-0.576592	0.776193
O12	O	2.145023	-0.076592	1.276193
O13	O	1.515490	-0.632104	0.461965
O14	O	2.015490	-0.132104	0.961965
O15	O	1.368106	-0.402654	0.612746
O16	O	1.868106	0.097346	1.112746
O17	O	1.661023	-0.664817	0.649835
O18	O	2.161023	-0.164817	1.149835
O19	O	1.478373	-0.427440	0.755092
O20	O	1.978373	0.072560	1.255092
O21	O	1.389222	-0.519094	0.445977
O22	O	1.889222	-0.019094	0.945977
O23	O	1.201310	-0.514907	0.591543
O24	O	1.701310	-0.014907	1.091543
O25	O	1.330733	-0.657458	0.905694
O26	O	1.830733	-0.157458	1.405694
O27	O	1.185200	-0.624745	0.717824
O28	O	1.685200	-0.124745	1.217824
O29	O	1.457111	-0.572406	0.921759
O30	O	1.957111	-0.072406	1.421759
O31	O	1.494227	-0.777069	0.628632
O32	O	1.994227	-0.277069	1.128632
O33	O	1.351849	-0.773897	0.738925
O34	O	1.851849	-0.273897	1.238925
C35	C	1.155940	-0.565697	0.649950
C36	C	1.655940	-0.065697	1.149950
C37	C	1.041628	-0.553070	0.635472
C38	C	1.541628	-0.053070	1.135472
C39	C	0.982732	-0.601856	0.691405
C40	C	1.482732	-0.101856	1.191405
C41	C	0.864584	-0.588806	0.676443
C42	C	1.364584	-0.088806	1.176443
C43	C	1.423047	-0.804742	0.683793
C44	C	1.923047	-0.304742	1.183793
C45	C	1.423098	-0.894370	0.683816
C46	C	1.923098	-0.394370	1.183816
C47	C	1.423263	-1.222575	0.683946
C48	C	1.923263	-0.722575	1.183946
C49	C	1.423214	-1.131258	0.683912
C50	C	1.923214	-0.631258	1.183912
C51	C	1.423180	-1.058475	0.683880
C52	C	1.923180	-0.558475	1.183880
C53	C	1.423131	-0.967153	0.683848
C54	C	1.923131	-0.467153	1.183848
C55	C	1.691382	-0.624949	0.717881
C56	C	2.191382	-0.124949	1.217881
C57	C	1.805691	-0.637599	0.732384
C58	C	2.305691	-0.137599	1.232384
C59	C	1.389047	-0.618213	0.952084
C60	C	1.889047	-0.118213	1.452084
C61	C	1.374519	-0.627992	1.066390
C62	C	1.874519	-0.127992	1.566390
C63	C	1.423256	-0.384976	0.683930
C64	C	1.923256	0.115024	1.183930
C65	C	1.423306	-0.295363	0.683965
C66	C	1.923306	0.204637	1.183965
C67	C	1.430571	-0.590270	1.125300
C68	C	1.930571	-0.090270	1.625300
C69	C	1.415557	-0.600376	1.243441
C70	C	1.915557	-0.100376	1.743441
C71	C	1.457090	-0.572425	1.416656
C72	C	1.957090	-0.072425	1.916656
C73	C	1.471617	-0.562649	1.302350
C74	C	1.971617	-0.062649	1.802350
H75	H	1.004581	-0.501637	0.576513
H76	H	1.504581	-0.001637	1.076513
Br77	Br	0.802854	-0.503073	0.578167
Br78	Br	1.302854	-0.003073	1.078167
H79	H	1.489671	-0.550489	1.088271
H80	H	1.989671	-0.050489	1.588271
Br81	Br	1.275995	-0.694286	1.128094
Br82	Br	1.775995	-0.194286	1.628094
H83	H	1.356442	-0.640150	1.280464
H84	H	1.856442	-0.140150	1.780464
Br85	Br	1.044466	-0.687581	0.789682
Br86	Br	1.544466	-0.187581	1.289682
Br87	Br	0.867414	-0.723312	0.830689
Br88	Br	1.367414	-0.223312	1.330689
Br89	Br	1.570150	-0.496356	1.240654
Br90	Br	2.070150	0.003644	1.740654
