data_functionalizedCrystal
_audit_creation_method	'MofGen! by Chris Wilmer'
_symmetry_space_group_name_H-M	'P1'
_symmetry_Int_Tables_number	1
_symmetry_cell_setting	triclinic
loop_
_symmetry_equiv_pos_as_xyz
  x,y,z
_cell_length_a	18.760490
_cell_length_b	20.875641
_cell_length_c	20.875625
_cell_angle_alpha	59.251205
_cell_angle_beta	92.989870
_cell_angle_gamma	62.464452
loop_
_atom_site_label
_atom_site_type_symbol
_atom_site_fract_x
_atom_site_fract_y
_atom_site_fract_z
Zr1	Zr	0.708844	0.702376	-0.109874
O2	O	0.594314	0.836154	-0.217217
O3	O	0.740365	0.568568	-0.073563
O4	O	0.737820	0.702388	-0.212294
O5	O	0.602948	0.702334	0.027075
O6	O	0.855101	0.702432	-0.212283
O7	O	0.596859	0.702333	-0.078486
O8	O	0.859654	0.463052	0.035881
O9	O	0.598395	0.941714	-0.221089
O10	O	0.845669	0.623648	-0.062182
O11	O	0.762687	0.623616	0.016589
O12	O	0.759691	0.781172	-0.146749
O13	O	0.676709	0.781140	-0.067978
Zr14	Zr	0.905604	0.702446	0.058501
Zr15	Zr	0.895893	0.702445	-0.109857
Zr16	Zr	0.718554	0.702376	0.058484
Zr17	Zr	0.715352	0.870732	-0.116050
Zr18	Zr	0.899095	0.534090	0.064677
O19	O	0.874082	0.836254	0.022190
O20	O	0.860275	0.836253	-0.217193
O21	O	0.608122	0.836154	0.022166
O22	O	1.020133	0.568668	0.165844
O23	O	1.006326	0.568667	-0.073539
O24	O	0.754173	0.568569	0.165820
O25	O	1.011499	0.702488	-0.078448
O26	O	0.876627	0.702433	0.160921
O27	O	0.759346	0.702390	0.160911
O28	O	1.017588	0.702488	0.027113
O29	O	0.747075	0.941769	-0.221076
O30	O	0.867373	0.463052	0.169703
O31	O	1.016052	0.463108	0.169716
O32	O	1.008333	0.463107	0.035895
O33	O	0.606114	0.941714	-0.087267
O34	O	0.754794	0.941770	-0.087254
O35	O	0.854757	0.623649	0.095376
O36	O	0.937738	0.623681	0.016605
O37	O	0.851760	0.781205	-0.067962
O38	O	0.768779	0.781173	0.010809
C39	C	0.799082	0.491823	-0.017961
C40	C	0.796319	0.420351	-0.015339
C41	C	0.838334	0.386790	-0.055225
C42	C	0.835740	0.319630	-0.052754
C43	C	0.791126	0.286037	-0.010401
C44	C	0.749110	0.319600	0.029490
C45	C	0.751709	0.386754	0.027023
C46	C	0.778712	0.085188	0.001391
C47	C	0.776113	0.018031	0.003852
C48	C	0.862746	0.018065	-0.078391
C49	C	0.865337	0.085224	-0.080858
C50	C	0.823324	0.118778	-0.040963
N51	N	0.788471	0.217390	-0.007876
N52	N	0.825985	0.187419	-0.043484
C53	C	0.573253	0.702324	-0.025708
C54	C	0.493846	0.702294	-0.025715
C55	C	0.154515	0.702503	-0.083821
C56	C	0.161340	0.702504	0.032494
C57	C	0.235984	0.702459	0.032482
C58	C	0.269898	0.702435	-0.025681
C59	C	0.229167	0.702456	-0.083832
C60	C	0.276725	0.702428	0.090638
C61	C	0.351374	0.702382	0.090630
C62	C	0.385285	0.702365	0.032463
C63	C	0.344550	0.702387	-0.025692
C64	C	0.378463	0.702363	-0.083855
C65	C	0.337726	0.702391	-0.142014
C66	C	0.263079	0.702438	-0.142000
C67	C	0.459932	0.702318	0.032448
C68	C	0.453116	0.702315	-0.083867
C69	C	1.041194	0.702498	-0.025665
C70	C	1.120602	0.702527	-0.025658
C71	C	0.795077	0.702410	-0.236276
C72	C	0.790954	0.702410	-0.307748
C73	C	0.815365	0.912999	-0.033412
C74	C	0.818128	0.984470	-0.036034
C75	C	0.853628	0.702435	-0.341320
C76	C	0.849757	0.702426	-0.408472
C77	C	0.783208	0.702400	-0.442054
C78	C	0.720530	0.702372	-0.408476
C79	C	0.724406	0.702374	-0.341322
C80	C	0.764691	0.702386	-0.642892
C81	C	0.760819	0.702387	-0.710052
C82	C	0.890047	0.702439	-0.710043
C83	C	0.893914	0.702447	-0.642891
C84	C	0.831239	0.702414	-0.609316
N85	N	0.779247	0.702394	-0.510695
N86	N	0.835204	0.702413	-0.540673
C87	C	0.819370	0.702411	0.184904
C88	C	0.823493	0.702412	0.256376
C89	C	1.033053	0.491910	-0.017940
C90	C	1.109697	0.420468	-0.015311
C91	C	0.811229	0.491823	0.192629
C92	C	0.812588	0.420352	0.266723
C93	C	1.045199	0.491911	0.192650
C94	C	1.125966	0.420469	0.266751
C95	C	0.569248	0.912911	-0.244023
C96	C	0.488481	0.984353	-0.318124
C97	C	0.581395	0.912912	-0.033433
C98	C	0.504751	0.984354	-0.036062
C99	C	0.803219	0.912998	-0.244001
C100	C	0.801859	0.984469	-0.318096
C101	C	1.097630	0.386901	-0.055209
C102	C	1.169638	0.319782	-0.052755
C103	C	1.253712	0.286228	-0.010397
C104	C	1.265777	0.319802	0.029502
C105	C	1.193770	0.386923	0.027043
C106	C	0.861286	0.386805	0.342651
C107	C	0.862561	0.319660	0.412277
C108	C	0.815142	0.286057	0.405972
C109	C	0.766438	0.319611	0.330036
C110	C	0.765159	0.386759	0.260412
C111	C	1.207218	0.386936	0.260432
C112	C	1.283114	0.319818	0.330052
C113	C	1.277756	0.286230	0.405989
C114	C	1.196495	0.319769	0.412307
C115	C	1.120601	0.386890	0.342688
C116	C	0.407229	1.017894	-0.311805
C117	C	0.331334	1.085033	-0.381425
C118	C	0.336693	1.118624	-0.457363
C119	C	0.417953	1.085080	-0.463680
C120	C	0.493847	1.017948	-0.394061
C121	C	0.516817	1.017928	0.003829
C122	C	0.444809	1.085065	0.001356
C123	C	0.360735	1.118621	-0.041005
C124	C	0.348670	1.085044	-0.080901
C125	C	0.420677	1.017913	-0.078432
C126	C	0.849288	1.018051	-0.311765
C127	C	0.848028	1.085197	-0.381378
C128	C	0.799333	1.118765	-0.457320
C129	C	0.751903	1.085177	-0.463649
C130	C	0.753169	1.018028	-0.394037
H131	H	0.896951	-0.009262	-0.110870
F132	F	0.964742	0.702476	-0.607152
H133	H	0.899901	0.414157	0.347800
H134	H	1.203607	0.414245	0.059538
F135	F	1.212941	0.422675	0.179620
H136	H	1.349273	0.292517	0.324894
H137	H	0.402850	0.990547	-0.249979
H138	H	0.888940	0.990730	-0.249935
H139	H	0.712789	0.292239	0.063979
F140	F	0.457668	1.120785	0.043824
H141	H	0.902224	0.292349	0.474101
F142	F	1.034129	0.422567	0.349426
H143	H	0.798310	1.173443	-0.513996
H144	H	0.666347	0.702345	-0.435819
F145	F	0.244859	1.120718	-0.374685
F146	F	0.924457	0.702469	-0.305590
F147	F	0.898507	1.120935	-0.374625
H148	H	0.365350	0.702366	-0.189368
F149	F	1.355261	0.284079	0.074582
H150	H	0.712258	1.112519	-0.525491
F151	F	1.156779	0.284060	-0.095221
H152	H	0.816191	0.231380	0.462671
F153	F	0.219722	0.702466	-0.203890
F154	F	0.284106	1.190068	-0.043624
H155	H	0.714543	0.990694	-0.399203
F156	F	1.358537	0.214792	0.480078
H157	H	1.312337	0.231573	-0.008400
F158	F	0.715975	0.283838	0.323338
H159	H	0.717494	0.414081	0.059500
F160	F	0.423642	1.120839	-0.544506
F161	F	1.190806	0.284013	0.493132
F162	F	0.885814	0.422541	-0.100308
F163	F	0.255912	1.190073	-0.531452
F164	F	0.580319	0.982252	-0.400798
F165	F	0.956747	0.702471	-0.745778
H166	H	0.725506	0.414064	0.198590
F167	F	0.125252	0.702521	0.094396
F168	F	0.880443	0.283930	-0.095221
F169	F	0.606289	0.982229	0.048915
F170	F	0.259186	1.120765	-0.125979
H171	H	0.410840	0.990579	-0.110914
H172	H	0.739779	-0.009317	0.038341
F173	F	0.912817	0.120976	-0.125940
H174	H	0.480720	0.702300	-0.131233
H175	H	0.744506	0.112497	0.033879
H176	H	0.121343	0.702530	-0.131175
H177	H	0.384538	0.702360	0.137985
F178	F	0.503288	0.702280	0.094345
F179	F	0.916462	0.702451	-0.444201
F180	F	0.240636	0.702446	0.152541
H181	H	0.706622	0.702366	-0.737392
F182	F	0.657701	0.702344	-0.305591
F183	F	0.697988	0.702355	-0.607167
F184	F	1.008159	0.422602	-0.100297
