data_functionalizedCrystal
_audit_creation_method	'MofGen! by Chris Wilmer'
_symmetry_space_group_name_H-M	'P1'
_symmetry_Int_Tables_number	1
_symmetry_cell_setting	triclinic
loop_
_symmetry_equiv_pos_as_xyz
  x,y,z
_cell_length_a	10.489741
_cell_length_b	11.892095
_cell_length_c	12.837942
_cell_angle_alpha	94.302569
_cell_angle_beta	89.684057
_cell_angle_gamma	86.063851
loop_
_atom_site_label
_atom_site_type_symbol
_atom_site_fract_x
_atom_site_fract_y
_atom_site_fract_z
O1	O	1.717543	-0.093932	0.139817
O2	O	1.347864	-0.093949	0.153557
O3	O	1.524506	-0.093934	-0.004276
O4	O	1.540901	-0.093947	0.297651
O5	O	1.509775	0.094072	0.008863
O6	O	1.333133	0.094057	0.166696
O7	O	1.702813	0.094074	0.152957
Zn8	Zn	1.515634	0.123916	0.161913
Zn9	Zn	1.535042	-0.123791	0.144601
O10	O	1.526171	0.094059	0.310790
C11	C	1.292853	0.000051	0.159088
C12	C	1.150882	0.000045	0.155983
N13	N	1.502398	0.292969	0.173727
N14	N	1.548288	-0.292844	0.132779
C15	C	1.071668	0.000060	0.055559
C16	C	0.992035	-0.092637	0.096520
C17	C	0.977548	0.092723	0.109499
C18	C	1.073124	-0.092728	0.196981
C19	C	1.058639	0.092714	0.209951
C20	C	0.979042	-0.000005	0.250984
C21	C	1.757824	0.000071	0.147425
C22	C	1.899796	0.000070	0.150530
C23	C	1.511602	0.000068	-0.036369
C24	C	1.495085	0.000066	-0.151569
C25	C	1.640385	0.529628	0.050510
C26	C	1.631143	0.647969	0.058776
C27	C	1.474666	0.647994	0.198518
C28	C	1.483908	0.529653	0.190252
C29	C	1.566772	0.470474	0.116247
C30	C	1.576020	0.352131	0.107987
C31	C	1.419537	0.352158	0.247724
C32	C	1.410295	0.470499	0.255989
C33	C	1.693661	0.000051	-0.391046
C34	C	1.678147	0.000049	-0.499288
C35	C	1.448545	0.000050	-0.476297
C36	C	1.464059	0.000052	-0.368056
C37	C	1.586621	0.000055	-0.325434
C38	C	1.602133	0.000065	-0.217190
C39	C	1.372532	0.000058	-0.194202
C40	C	1.357018	0.000056	-0.302444
C41	C	1.539075	0.000054	0.342882
C42	C	1.555593	0.000049	0.458082
H43	H	1.112265	-0.000052	-0.027005
H44	H	1.359600	0.303981	0.301254
Cl45	Cl	0.946400	-0.213630	0.022464
H46	H	1.114780	-0.171184	0.233956
Cl47	Cl	0.916801	-0.000084	0.378570
Cl48	Cl	1.237957	0.000077	-0.111710
H49	H	0.935743	0.171091	0.072465
H50	H	1.765312	0.000042	-0.552707
H51	H	1.088225	0.171084	0.257885
H52	H	1.643494	0.303949	0.047731
Cl53	Cl	1.756208	0.000076	-0.163609
Cl54	Cl	1.744568	0.455231	-0.042512
H55	H	1.348761	0.000035	-0.511020
Cl56	Cl	1.723687	0.722331	-0.023870
H57	H	1.407192	0.696193	0.258764
Cl58	Cl	1.306126	0.544903	0.349018
Cl59	Cl	1.847732	0.000083	-0.337459
H60	H	1.257232	0.000049	-0.337162
