data_functionalizedCrystal
_audit_creation_method	'MofGen! by Chris Wilmer'
_symmetry_space_group_name_H-M	'P1'
_symmetry_Int_Tables_number	1
_symmetry_cell_setting	triclinic
loop_
_symmetry_equiv_pos_as_xyz
  x,y,z
_cell_length_a	23.532407
_cell_length_b	17.038272
_cell_length_c	16.098538
_cell_angle_alpha	87.079695
_cell_angle_beta	87.283857
_cell_angle_gamma	93.019883
loop_
_atom_site_label
_atom_site_type_symbol
_atom_site_fract_x
_atom_site_fract_y
_atom_site_fract_z
O1	O	0.762623	-0.091367	-0.069152
O2	O	0.597483	-0.105093	-0.069177
O3	O	0.679071	0.015578	-0.069158
O4	O	0.681035	-0.212038	-0.069171
O5	O	0.674304	0.008556	0.069354
O6	O	0.592715	-0.112115	0.069335
O7	O	0.757856	-0.098389	0.069360
Zn8	Zn	0.674529	-0.106367	0.091339
Zn9	Zn	0.680810	-0.097115	-0.091156
O10	O	0.676267	-0.219060	0.069341
C11	C	0.674902	0.041182	0.000097
C12	C	0.669576	0.127935	0.000096
C13	C	0.573865	-0.108254	0.000076
C14	C	0.510593	-0.107203	0.000067
N15	N	0.670246	-0.112680	0.215887
C16	C	0.114896	-0.172024	0.000101
C17	C	0.055444	-0.171048	0.000106
O18	O	0.021858	-0.231137	0.000133
N19	N	0.029047	-0.099308	0.000109
C20	C	0.062104	-0.028541	0.000115
O21	O	0.034191	0.032568	0.000118
C22	C	0.121554	-0.029518	0.000116
C23	C	0.147949	-0.101262	0.000104
C24	C	0.141291	-0.243761	0.000091
C25	C	0.200739	-0.244737	0.000084
C26	C	0.233791	-0.173975	0.000087
C27	C	0.207396	-0.102237	0.000098
C28	C	0.154610	0.041248	0.000127
C29	C	0.214064	0.040265	0.000129
C30	C	0.240459	-0.031479	0.000118
C31	C	0.299897	-0.032451	0.000094
N32	N	0.326295	-0.104190	0.000092
C33	C	0.293242	-0.174952	0.000088
C34	C	-0.062747	-0.026494	0.000114
C35	C	-0.122196	-0.025516	0.000108
C36	C	-0.128851	-0.168023	0.000101
C37	C	-0.069400	-0.169000	0.000101
C38	C	-0.036349	-0.098234	0.000112
C39	C	0.418087	-0.176996	0.000073
C40	C	0.477540	-0.177965	0.000063
C41	C	0.484190	-0.035459	0.000075
C42	C	0.424742	-0.034489	0.000081
C43	C	0.391691	-0.105264	0.000083
O44	O	0.333520	0.027607	0.000071
O45	O	0.321162	-0.236052	0.000096
C46	C	0.781474	-0.095228	0.000105
C47	C	0.844746	-0.096279	0.000109
C48	C	0.680436	-0.244664	0.000083
C49	C	0.685763	-0.331417	0.000079
C50	C	0.718480	0.178411	0.000105
C51	C	0.713472	0.259925	0.000096
C52	C	0.659559	0.290961	0.000085
C53	C	0.610651	0.240479	0.000074
C54	C	0.615660	0.158967	0.000077
C55	C	0.641864	0.536589	0.000071
C56	C	0.636859	0.618107	0.000071
C57	C	0.739681	0.637548	0.000091
C58	C	0.744685	0.556033	0.000098
C59	C	0.695777	0.505558	0.000083
C60	C	0.654439	0.374281	0.000079
C61	C	0.700898	0.422240	0.000084
N62	N	0.685097	-0.090796	-0.215705
C63	C	0.704890	-0.061480	0.259480
C64	C	0.701900	-0.065904	0.346668
C65	C	0.664268	-0.121531	0.390262
C66	C	0.629620	-0.172733	0.346663
C67	C	0.632608	-0.168305	0.259476
C68	C	0.653437	-0.137570	0.653510
C69	C	0.650453	-0.141996	0.740702
C70	C	0.722732	-0.035165	0.740702
C71	C	0.725719	-0.030745	0.653513
C72	C	0.691069	-0.081944	0.609922
C73	C	0.661212	-0.126056	0.479383
C74	C	0.694122	-0.077415	0.520803
H75	H	0.499027	-0.236390	0.000054
H76	H	0.133130	0.099669	0.000137
H77	H	0.575836	0.117869	0.000070
O78	O	0.730744	-0.023416	0.478536
C79	C	0.828424	0.024404	0.451741
C80	C	0.787016	-0.036781	0.499696
H81	H	0.873929	0.013609	0.468818
H82	H	0.817435	0.086101	0.468902
H83	H	0.824560	0.018766	0.381949
H84	H	0.790857	-0.031215	0.569499
H85	H	0.798017	-0.098454	0.482466
O86	O	0.385930	-0.245688	-0.000041
C87	C	0.317445	-0.323683	-0.071837
C88	C	0.353821	-0.245849	-0.071793
H89	H	0.291484	-0.323845	-0.129851
H90	H	0.287418	-0.329748	-0.013909
H91	H	0.346541	-0.375106	-0.071807
H92	H	0.324769	-0.194381	-0.071852
H93	H	0.383854	-0.239853	-0.129716
H94	H	0.610542	0.399560	0.000072
O95	O	0.753240	0.392008	-0.000017
C96	C	0.821047	0.314925	-0.071783
C97	C	0.761751	0.349111	-0.071768
H98	H	0.827952	0.280249	-0.129796
H99	H	0.823973	0.274263	-0.013854
H100	H	0.855133	0.365010	-0.071734
H101	H	0.727630	0.299077	-0.071846
H102	H	0.758874	0.389793	-0.129691
O103	O	-0.043825	-0.238735	-0.000015
C104	C	-0.028845	-0.357177	-0.071808
C105	C	-0.057847	-0.278229	-0.071772
H106	H	-0.040161	-0.389123	-0.129826
H107	H	-0.044185	-0.395111	-0.013884
H108	H	0.019321	-0.345714	-0.071764
H109	H	-0.106016	-0.289619	-0.071845
H110	H	-0.042461	-0.240321	-0.129691
O111	O	0.756356	0.014685	0.782958
C112	C	0.782184	0.149465	0.809690
C113	C	0.744082	0.093093	0.761768
H114	H	0.772266	0.212868	0.792589
H115	H	0.828872	0.140542	0.792525
H116	H	0.773593	0.136707	0.879488
H117	H	0.752623	0.105816	0.691959
H118	H	0.697406	0.102027	0.779002
H119	H	0.222224	-0.303158	0.000075
O120	O	0.619760	-0.187389	0.611301
C121	C	0.547732	-0.293789	0.620511
C122	C	0.585849	-0.237426	0.668420
H123	H	0.520297	-0.334247	0.666670
H124	H	0.575569	-0.330646	0.579701
H125	H	0.519081	-0.258156	0.579684
H126	H	0.614506	-0.272998	0.709292
H127	H	0.557978	-0.200568	0.709176
H128	H	0.630573	-0.171351	0.514884
H129	H	0.735536	-0.016186	0.223992
H130	H	0.779498	0.678653	0.000101
O131	O	0.592982	-0.226689	0.388972
C132	C	0.495300	-0.274552	0.415626
C133	C	0.536728	-0.213389	0.367676
H134	H	0.449811	-0.263831	0.398412
H135	H	0.499067	-0.268924	0.485439
H136	H	0.506362	-0.336224	0.398481
H137	H	0.525693	-0.151691	0.384750
H138	H	0.532954	-0.219087	0.297875
H139	H	0.753295	0.301020	0.000104
O140	O	0.735535	-0.016062	0.388918
C141	C	0.761398	0.118709	0.415639
C142	C	0.723277	0.062352	0.367729
H143	H	0.751493	0.182118	0.398539
H144	H	0.808081	0.109765	0.398464
H145	H	0.752812	0.105957	0.485439
H146	H	0.731812	0.075069	0.297918
H147	H	0.676606	0.071307	0.384974
H148	H	0.114385	-0.301388	0.000091
O149	O	0.399189	0.035268	0.000117
C150	C	0.412074	0.176515	0.000068
C151	C	0.441079	0.097570	0.000038
H152	H	0.445929	0.226907	-0.000014
H153	H	0.382439	0.177653	0.058054
H154	H	0.386375	0.183428	-0.057880
H155	H	0.466808	0.090605	0.057947
H156	H	0.470681	0.096467	-0.057986
O157	O	0.797075	0.525936	-0.000039
C158	C	0.888975	0.521291	-0.071747
C159	C	0.829658	0.555416	-0.071712
H160	H	0.915339	0.545124	-0.129679
H161	H	0.884193	0.454361	-0.071796
H162	H	0.911318	0.539166	-0.013748
H163	H	0.807282	0.537599	-0.129701
H164	H	0.834479	0.622340	-0.071619
H165	H	-0.155773	-0.225642	0.000102
H166	H	0.602039	0.495501	0.000059
O167	O	0.558321	0.270753	0.000101
C168	C	0.505037	0.387710	0.000044
C169	C	0.564335	0.353531	0.000030
H170	H	0.509879	0.454641	-0.000031
H171	H	0.478662	0.364008	0.058020
H172	H	0.482668	0.369777	-0.057914
H173	H	0.586752	0.371451	0.057948
H174	H	0.590667	0.377231	-0.057985
O175	O	0.584443	0.648128	0.000014
C176	C	0.482984	0.620247	0.000025
C177	C	0.542306	0.586144	0.000070
H178	H	0.448901	0.570149	0.000088
H179	H	0.480036	0.660832	-0.057957
H180	H	0.476100	0.655016	0.057977
H181	H	0.549230	0.551338	-0.057842
H182	H	0.545227	0.545602	0.058091
H183	H	0.604397	-0.209997	0.223984
H184	H	0.756361	0.014552	0.618021
H185	H	0.619807	-0.187298	0.776193
O186	O	-0.030578	0.042209	-0.000001
C187	C	0.042838	0.127481	-0.071791
C188	C	0.006459	0.049644	-0.071755
H189	H	0.072783	0.133525	-0.129807
H190	H	0.068889	0.127671	-0.013865
H191	H	0.013741	0.178901	-0.071751
H192	H	0.035514	-0.001819	-0.071825
H193	H	-0.019597	0.049522	-0.129676
O194	O	-0.147762	0.044231	-0.000002
C195	C	-0.157814	0.169950	-0.071779
C196	C	-0.128812	0.091000	-0.071754
H197	H	-0.142513	0.207779	-0.129792
H198	H	-0.146453	0.202011	-0.013850
H199	H	-0.205982	0.158482	-0.071735
H200	H	-0.080638	0.102398	-0.071827
H201	H	-0.140219	0.058964	-0.129677
O202	O	0.246086	0.109084	0.000097
C203	C	0.246406	0.250530	0.000159
C204	C	0.210075	0.172654	0.000180
H205	H	0.217305	0.301946	0.000243
H206	H	0.276380	0.256633	-0.057825
H207	H	0.272431	0.250657	0.058109
H208	H	0.184014	0.172473	-0.057731
H209	H	0.180136	0.166582	0.058202
H210	H	0.762382	0.153148	0.000118
H211	H	0.511112	0.022154	0.000075
