data_functionalizedCrystal
_audit_creation_method	'MofGen! by Chris Wilmer'
_symmetry_space_group_name_H-M	'P1'
_symmetry_Int_Tables_number	1
_symmetry_cell_setting	triclinic
loop_
_symmetry_equiv_pos_as_xyz
  x,y,z
_cell_length_a	13.262390
_cell_length_b	13.339070
_cell_length_c	12.376457
_cell_angle_alpha	104.397881
_cell_angle_beta	116.831828
_cell_angle_gamma	80.570633
loop_
_atom_site_label
_atom_site_type_symbol
_atom_site_fract_x
_atom_site_fract_y
_atom_site_fract_z
O1	O	-1.518974	0.021075	-0.561027
O2	O	-1.202704	0.055902	-0.463788
O3	O	-1.324541	-0.106625	-0.501244
O4	O	-1.397137	0.183603	-0.523571
O5	O	-1.294080	-0.066047	-0.303868
O6	O	-1.172243	0.096480	-0.266412
O7	O	-1.488513	0.061654	-0.363650
Zn8	Zn	-1.325541	0.085510	-0.283693
Zn9	Zn	-1.365676	0.032046	-0.543746
O10	O	-1.366676	0.224181	-0.326194
C11	C	-1.146168	0.077971	-0.352400
C12	C	-1.023085	0.083262	-0.314558
C13	C	-1.297048	-0.123300	-0.398787
C14	C	-1.260496	-0.233438	-0.387554
C15	C	-1.544708	-0.615058	-0.474936
C16	C	-1.579052	-0.511576	-0.485484
C17	C	-1.499416	-0.442037	-0.461003
C18	C	-1.385430	-0.475989	-0.425970
C19	C	-1.351080	-0.579478	-0.415411
C20	C	-1.305789	-0.406458	-0.401479
C21	C	-1.191803	-0.440410	-0.366446
C22	C	-1.157459	-0.543890	-0.355890
C23	C	-1.237095	-0.613429	-0.380371
C24	C	-1.340138	-0.302968	-0.412038
C25	C	-1.146511	-0.267389	-0.352514
C26	C	-1.112167	-0.370871	-0.341965
C27	C	-1.545050	0.039584	-0.475041
C28	C	-1.668133	0.034291	-0.512891
C29	C	-0.742561	0.009683	-0.638264
C30	C	-0.858203	0.004707	-0.673820
C31	C	-0.899429	0.024345	-0.584008
C32	C	-0.825002	0.048961	-0.458633
C33	C	-0.709348	0.053930	-0.423072
C34	C	-0.866216	0.068592	-0.368816
C35	C	-0.791789	0.093208	-0.243441
C36	C	-0.676147	0.098177	-0.207887
C37	C	-0.634920	0.078538	-0.297700
C38	C	-0.981871	0.063623	-0.404377
C39	C	-0.948658	0.107870	-0.189185
C40	C	-0.833016	0.112847	-0.153629
C41	C	-1.394170	0.240855	-0.428654
C42	C	-1.430722	0.350992	-0.439895
N43	N	-1.298159	0.121996	-0.106217
N44	N	-1.393064	-0.004449	-0.721224
C45	C	-1.234603	0.206713	-0.027494
C46	C	-1.215456	0.232258	0.096732
C47	C	-1.259856	0.173083	0.142250
C48	C	-1.323407	0.088360	0.063528
C49	C	-1.342563	0.062817	-0.060712
C50	C	-1.367816	0.029187	0.109031
C51	C	-1.431367	-0.055536	0.030310
C52	C	-1.450519	-0.081075	-0.093918
C53	C	-1.406119	-0.021900	-0.139435
C54	C	-1.348660	0.054730	0.233272
C55	C	-1.456620	-0.089166	0.200053
C56	C	-1.475767	-0.114711	0.075827
H57	H	-1.527386	-0.357778	-0.469594
H58	H	-0.982222	0.123860	-0.116052
H59	H	-0.918792	-0.015341	-0.775900
O60	O	-1.191443	0.264327	-0.071524
C61	C	-1.131215	0.344564	0.024601
H62	H	-1.163140	0.361239	0.099142
H63	H	-1.037158	0.319840	0.066113
C64	C	-1.110146	0.422604	-0.118721
C65	C	-1.149363	0.443090	-0.027173
H66	H	-1.121335	0.483379	-0.150656
H67	H	-1.150719	0.368545	-0.183482
H68	H	-1.031767	0.401998	-0.084114
H69	H	-1.227742	0.463682	-0.061784
H70	H	-1.108803	0.497155	0.037581
O71	O	-1.537488	-0.197065	-0.000470
C72	C	-1.572601	-0.243807	0.066323
H73	H	-1.513363	-0.224073	0.168907
H74	H	-1.662584	-0.213647	0.051223
C75	C	-1.642179	-0.386502	-0.104889
C76	C	-1.569416	-0.362271	0.021106
H77	H	-1.640220	-0.459576	-0.132784
H78	H	-1.618527	-0.355010	-0.149891
H79	H	-1.717157	-0.361361	-0.117456
H80	H	-1.494438	-0.387400	0.033668
H81	H	-1.593055	-0.393770	0.066109
H82	H	-1.042459	0.043583	-0.506458
H83	H	-1.421704	-0.042701	-0.240589
H84	H	-1.492778	-0.137350	0.237110
O85	O	-1.689821	-0.478778	-0.519578
C86	C	-1.752741	-0.562335	-0.538892
H87	H	-1.705648	-0.638568	-0.560017
H88	H	-1.764231	-0.559350	-0.452224
C89	C	-1.927404	-0.461032	-0.622582
C90	C	-1.869569	-0.554663	-0.648539
H91	H	-1.999471	-0.456299	-0.690213
H92	H	-1.885015	-0.404737	-0.609566
H93	H	-1.936967	-0.458555	-0.550356
H94	H	-1.859994	-0.557133	-0.720754
H95	H	-1.911959	-0.610959	-0.661569
O96	O	-1.069070	-0.199845	-0.328511
C97	C	-0.985986	-0.193310	-0.205610
H98	H	-1.022157	-0.217481	-0.148670
H99	H	-0.909249	-0.247032	-0.204033
C100	C	-0.905599	-0.051263	-0.220339
C101	C	-0.950029	-0.080941	-0.150402
H102	H	-0.883414	0.018050	-0.186285
H103	H	-0.961571	-0.055667	-0.303141
H104	H	-0.841657	-0.096040	-0.219019
H105	H	-1.013977	-0.036173	-0.151736
H106	H	-0.894066	-0.076526	-0.067598
H107	H	-1.296918	0.123712	0.297356
H108	H	-1.244264	0.193886	0.243401
O109	O	-1.153787	0.314541	0.173354
C110	C	-1.146378	0.324381	0.292772
H111	H	-1.219918	0.285601	0.286312
H112	H	-1.062964	0.285470	0.352014
C113	C	-1.061299	0.487708	0.359853
C114	C	-1.151628	0.440085	0.351917
H115	H	-1.064532	0.559079	0.396340
H116	H	-1.066287	0.481077	0.279401
H117	H	-0.991797	0.455271	0.409219
H118	H	-1.221128	0.472513	0.302540
H119	H	-1.146652	0.446724	0.432363
O120	O	-1.512036	-0.163570	-0.170125
C121	C	-1.458614	-0.254459	-0.124543
H122	H	-1.364867	-0.242601	-0.063265
H123	H	-1.499445	-0.272289	-0.068279
C124	C	-1.586881	-0.360235	-0.308793
C125	C	-1.471737	-0.345675	-0.233539
H126	H	-1.594979	-0.416504	-0.376026
H127	H	-1.622876	-0.299002	-0.339502
H128	H	-1.620894	-0.375089	-0.261892
H129	H	-1.437730	-0.330809	-0.280436
H130	H	-1.435737	-0.406907	-0.202841
O131	O	-1.621916	-0.682750	-0.498714
C132	C	-1.567147	-0.781357	-0.481844
H133	H	-1.485027	-0.787880	-0.492198
H134	H	-1.547364	-0.792095	-0.385561
C135	C	-1.745838	-0.857745	-0.566774
C136	C	-1.644980	-0.865759	-0.579502
H137	H	-1.793849	-0.909809	-0.627010
H138	H	-1.782737	-0.791311	-0.578136
H139	H	-1.729337	-0.866691	-0.486534
H140	H	-1.661481	-0.856800	-0.659735
H141	H	-1.608085	-0.932194	-0.568156
O142	O	-0.760799	0.136626	-0.031798
C143	C	-0.764624	0.062146	0.029370
H144	H	-0.848544	0.023340	-0.025566
H145	H	-0.691821	0.001158	0.037543
C146	C	-0.650712	0.163256	0.226826
C147	C	-0.753788	0.115600	0.159358
H148	H	-0.644023	0.196226	0.307011
H149	H	-0.648131	0.213433	0.185617
H150	H	-0.590054	0.112424	0.233624
H151	H	-0.814443	0.166433	0.152548
H152	H	-0.756379	0.065432	0.200570
O153	O	-1.450850	-0.269905	-0.446223
C154	C	-1.492300	-0.232150	-0.556354
H155	H	-1.418652	-0.208202	-0.566175
H156	H	-1.537883	-0.295529	-0.638552
C157	C	-1.665942	-0.167057	-0.540289
C158	C	-1.575488	-0.137635	-0.552347
H159	H	-1.717261	-0.108758	-0.537821
H160	H	-1.638019	-0.192496	-0.466094
H161	H	-1.703915	-0.219874	-0.608790
H162	H	-1.537509	-0.084828	-0.483839
H163	H	-1.603407	-0.112184	-0.626530
H164	H	-1.209138	-0.697695	-0.371788
H165	H	-1.064643	-0.571527	-0.327355
H166	H	-1.019357	-0.398529	-0.313440
H167	H	-0.993591	0.020293	-0.612966
H168	H	-0.540757	0.082592	-0.268756
O169	O	-0.603939	0.121955	-0.086053
C170	C	-0.607777	0.047474	-0.024895
H171	H	-0.691696	0.008668	-0.079844
H172	H	-0.534973	-0.013514	-0.016712
C173	C	-0.493883	0.148582	0.172571
C174	C	-0.596959	0.100926	0.105087
H175	H	-0.487205	0.181551	0.252753
H176	H	-0.491293	0.198760	0.131369
H177	H	-0.433225	0.097750	0.179378
H178	H	-0.657615	0.151759	0.098269
H179	H	-0.599559	0.050757	0.146292
H180	H	-0.708981	-0.006314	-0.711375
