data_functionalizedCrystal
_audit_creation_method	'MofGen! by Chris Wilmer'
_symmetry_space_group_name_H-M	'P1'
_symmetry_Int_Tables_number	1
_symmetry_cell_setting	triclinic
loop_
_symmetry_equiv_pos_as_xyz
  x,y,z
_cell_length_a	19.188930
_cell_length_b	14.519731
_cell_length_c	18.266242
_cell_angle_alpha	90.009125
_cell_angle_beta	90.011475
_cell_angle_gamma	83.416817
loop_
_atom_site_label
_atom_site_type_symbol
_atom_site_fract_x
_atom_site_fract_y
_atom_site_fract_z
O1	O	0.091595	1.223292	0.060891
O2	O	0.591595	1.723292	0.560891
O3	O	0.102358	0.954751	0.060893
O4	O	0.602358	1.454751	0.560893
O5	O	-0.004651	1.096771	0.060878
O6	O	0.495349	1.596771	0.560878
O7	O	0.198604	1.081272	0.060907
O8	O	0.698604	1.581272	0.560907
O9	O	-0.004657	1.096747	-0.060884
O10	O	0.495343	1.596747	0.439116
O11	O	0.102352	0.954727	-0.060869
O12	O	0.602352	1.454727	0.439131
O13	O	0.091590	1.223268	-0.060871
O14	O	0.591590	1.723268	0.439129
Zn15	Zn	0.096970	1.088994	-0.080202
Zn16	Zn	0.596970	1.588994	0.419798
Zn17	Zn	0.096977	1.089026	0.080224
Zn18	Zn	0.596977	1.589026	0.580224
O19	O	0.198598	1.081248	-0.060855
O20	O	0.698598	1.581248	0.439145
C21	C	0.101851	0.920383	0.000012
C22	C	0.601851	1.420383	0.500012
C23	C	0.100339	0.818012	0.000012
C24	C	0.600339	1.318012	0.500012
C25	C	0.099112	0.734876	0.000015
C26	C	0.599112	1.234876	0.500015
C27	C	0.097577	0.630576	0.000015
C28	C	0.597577	1.130576	0.500015
C29	C	0.096360	0.547445	0.000015
C30	C	0.596360	1.047445	0.500015
C31	C	0.094826	0.443139	0.000017
C32	C	0.594826	0.943139	0.500017
C33	C	-0.030667	1.096257	-0.000005
C34	C	0.469333	1.596257	0.499995
C35	C	-0.108177	1.094751	-0.000012
C36	C	0.391823	1.594751	0.499988
C37	C	-0.152799	1.178083	-0.000016
C38	C	0.347201	1.678083	0.499984
C39	C	-0.225628	1.176668	-0.000004
C40	C	0.274372	1.676668	0.499996
C41	C	-0.253831	1.091915	-0.000003
C42	C	0.246169	1.591915	0.499997
C43	C	-0.209199	1.008571	0.000005
C44	C	0.290801	1.508571	0.500005
C45	C	-0.136372	1.009989	0.000001
C46	C	0.363628	1.509989	0.500001
N47	N	-0.362073	1.027123	-0.041440
N48	N	0.137927	1.527123	0.458560
N49	N	-0.431256	1.025782	-0.041438
N50	N	0.068744	1.525782	0.458562
C51	C	-0.473255	1.087638	0.000012
C52	C	0.026745	1.587638	0.500012
N53	N	-0.443459	1.150900	0.041450
N54	N	0.056541	1.650900	0.541450
N55	N	-0.374270	1.152244	0.041444
N56	N	0.125730	1.652244	0.541444
C57	C	-0.332799	1.090368	0.000002
C58	C	0.167201	1.590368	0.500002
C59	C	-0.596848	1.169442	0.000022
C60	C	-0.096848	1.669442	0.500022
C61	C	-0.669678	1.168023	0.000038
C62	C	-0.169678	1.668023	0.500038
C63	C	-0.653247	0.999924	0.000040
C64	C	-0.153247	1.499924	0.500040
C65	C	-0.580419	1.001345	0.000031
C66	C	-0.080419	1.501345	0.500031
C67	C	-0.552224	1.086106	0.000018
C68	C	-0.052224	1.586106	0.500018
C69	C	0.224614	1.081762	0.000029
C70	C	0.724614	1.581762	0.500029
C71	C	0.302124	1.083269	0.000040
C72	C	0.802124	1.583269	0.500040
C73	C	0.092097	1.257637	0.000012
C74	C	0.592097	1.757637	0.500012
C75	C	0.093608	1.360007	0.000016
C76	C	0.593608	1.860007	0.500016
N77	N	0.096965	1.088979	-0.189689
N78	N	0.596965	1.588979	0.310311
C79	C	0.049604	1.151886	-0.228005
C80	C	0.549604	1.651886	0.271995
C81	C	0.049601	1.151892	-0.304650
C82	C	0.549601	1.651892	0.195350
C83	C	0.096970	1.089000	-0.342976
C84	C	0.596970	1.589000	0.157024
C85	C	0.144334	1.026081	-0.304651
C86	C	0.644334	1.526081	0.195349
C87	C	0.144331	1.026071	-0.228008
C88	C	0.644331	1.526071	0.271992
N89	N	0.158734	1.077012	-0.463300
N90	N	0.658734	1.577012	0.036700
N91	N	0.158735	1.077028	-0.536108
N92	N	0.658735	1.577028	-0.036108
C93	C	0.096980	1.089025	-0.573898
C94	C	0.596980	1.589025	-0.073898
N95	N	0.035223	1.101026	-0.536131
N96	N	0.535223	1.601026	-0.036131
N97	N	0.035224	1.101015	-0.463316
N98	N	0.535224	1.601015	0.036684
C99	C	0.096978	1.089003	-0.426083
C100	C	0.596978	1.589003	0.073917
C101	C	0.049613	1.151942	-0.695321
C102	C	0.549613	1.651942	-0.195321
C103	C	0.049609	1.151942	-0.771968
C104	C	0.549609	1.651942	-0.271968
C105	C	0.144347	1.026135	-0.771967
C106	C	0.644347	1.526135	-0.271967
C107	C	0.144346	1.026131	-0.695323
C108	C	0.644346	1.526131	-0.195323
C109	C	0.096979	1.089040	-0.657004
C110	C	0.596979	1.589040	-0.157004
N111	N	0.096977	1.089048	0.189711
N112	N	0.596977	1.589048	0.689711
H113	H	-0.261967	1.244530	-0.000004
H114	H	0.238033	1.744530	0.499996
H115	H	-0.232167	0.939565	0.000008
H116	H	0.267833	1.439565	0.500008
N117	N	0.001172	1.216077	-0.656135
N118	N	0.501172	1.716077	-0.156135
N119	N	-0.063352	1.214943	-0.664712
N120	N	0.436648	1.714943	-0.164712
H121	H	-0.097582	1.260195	-0.637020
H122	H	0.402418	1.760195	-0.137020
N123	N	-0.568044	1.256020	0.000034
N124	N	-0.068044	1.756020	0.500034
N125	N	-0.529226	1.275572	0.051358
N126	N	-0.029226	1.775572	0.551358
H127	H	-0.508886	1.336720	0.051368
H128	H	-0.008886	1.836720	0.551368
N129	N	-0.090797	0.924854	0.000009
N130	N	0.409203	1.424854	0.500009
N131	N	-0.115983	0.849185	0.000018
N132	N	0.384017	1.349185	0.500018
H133	H	-0.083795	0.789056	0.000023
H134	H	0.416205	1.289056	0.500023
N135	N	0.192711	0.961826	-0.343797
N136	N	0.692711	1.461826	0.156203
N137	N	0.170455	0.904684	-0.386583
N138	N	0.670455	1.404684	0.113417
H139	H	0.204620	0.859297	-0.414230
H140	H	0.704620	1.359297	0.085770
H141	H	0.011038	1.203165	-0.803165
H142	H	0.511038	1.703165	-0.303165
H143	H	0.011034	1.203108	-0.196808
H144	H	0.511034	1.703108	0.303192
H145	H	0.011033	1.203120	-0.335852
H146	H	0.511033	1.703120	0.164148
N147	N	0.192723	0.961888	-0.811118
N148	N	0.692723	1.461888	-0.311118
N149	N	0.192717	0.961900	-0.879549
N150	N	0.692717	1.461900	-0.379549
H151	H	0.226881	0.916520	-0.907204
H152	H	0.726881	1.416520	-0.407204
H153	H	-0.706009	1.235885	0.000039
H154	H	-0.206009	1.735885	0.500039
N155	N	0.192729	0.961866	-0.656191
N156	N	0.692729	1.461866	-0.156191
N157	N	0.235017	0.905712	-0.690416
N158	N	0.735017	1.405712	-0.190416
H159	H	0.269189	0.860319	-0.662780
H160	H	0.769189	1.360319	-0.162780
N161	N	-0.682058	0.913357	0.000035
N162	N	-0.182058	1.413357	0.500035
N163	N	-0.720878	0.893804	-0.051287
N164	N	-0.220878	1.393804	0.448713
H165	H	-0.741229	0.832664	-0.051289
H166	H	-0.241229	1.332664	0.448711
N167	N	-0.124011	1.264670	-0.000027
N168	N	0.375989	1.764670	0.499973
N169	N	-0.163867	1.339070	-0.000028
N170	N	0.336133	1.839070	0.499972
H171	H	-0.143535	1.400224	-0.000034
H172	H	0.356465	1.900224	0.499966
N173	N	-0.534844	0.916213	0.000033
N174	N	-0.034844	1.416213	0.500033
N175	N	-0.560031	0.840545	0.000037
N176	N	-0.060031	1.340545	0.500037
H177	H	-0.527844	0.780415	0.000040
H178	H	-0.027844	1.280415	0.500040
H179	H	0.182898	0.974843	-0.196810
H180	H	0.682898	1.474843	0.303190
