data_functionalizedCrystal
_audit_creation_method	'MofGen! by Chris Wilmer'
_symmetry_space_group_name_H-M	'P1'
_symmetry_Int_Tables_number	1
_symmetry_cell_setting	triclinic
loop_
_symmetry_equiv_pos_as_xyz
  x,y,z
_cell_length_a	12.759401
_cell_length_b	10.686285
_cell_length_c	12.759386
_cell_angle_alpha	85.569193
_cell_angle_beta	89.960030
_cell_angle_gamma	85.631983
loop_
_atom_site_label
_atom_site_type_symbol
_atom_site_fract_x
_atom_site_fract_y
_atom_site_fract_z
Zn1	Zn	1.638579	-0.501903	-0.561988
Zn2	Zn	1.651914	-0.713070	-0.372847
Zn3	Zn	1.462827	-0.502084	-0.386316
Zn4	Zn	1.476363	-0.712858	-0.548502
O5	O	1.557421	-0.607479	-0.467413
O6	O	1.787370	-0.529927	-0.536905
O7	O	1.626747	-0.685247	-0.227602
O8	O	1.474896	-0.325476	-0.420900
O9	O	1.797167	-0.685071	-0.397944
O10	O	1.604020	-0.325342	-0.549965
O11	O	1.487826	-0.530236	-0.237497
O12	O	1.317601	-0.530030	-0.407823
O13	O	1.497965	-0.684710	-0.697323
O14	O	1.327545	-0.684885	-0.526981
O15	O	1.617145	-0.529722	-0.707231
O16	O	1.639872	-0.889626	-0.384867
O17	O	1.510895	-0.889470	-0.513920
C18	C	1.284452	-0.607455	-0.467400
C19	C	1.167677	-0.607476	-0.467418
C20	C	1.118028	-0.688238	-0.529344
C21	C	1.008305	-0.688254	-0.529354
C22	C	0.997888	-0.526742	-0.405504
C23	C	1.107609	-0.526721	-0.405500
C24	C	1.124042	-0.781490	-0.600845
C25	C	1.014319	-0.781506	-0.600855
C26	C	1.578328	-0.935334	-0.446492
C27	C	1.587368	-1.075593	-0.437577
C28	C	1.831456	-0.607503	-0.467427
C29	C	1.948233	-0.607513	-0.467432
C30	C	1.557577	-0.607172	-0.741466
C31	C	1.557644	-0.607041	-0.858252
C32	C	1.536461	-0.278342	-0.488439
C33	C	1.527529	-0.138084	-0.497399
C34	C	1.557319	-0.607693	-0.194432
C35	C	1.557433	-0.607469	-0.077670
C36	C	1.619006	-0.526081	-0.028303
C37	C	1.619114	-0.525870	0.081407
C38	C	1.496070	-0.688438	0.092375
C39	C	1.495967	-0.688654	-0.017333
C40	C	1.690041	-0.432220	-0.034635
C41	C	1.690150	-0.432009	0.075076
H42	H	0.978116	-0.746571	-0.680434
Cl43	Cl	1.437753	-1.055025	-0.587009
Cl44	Cl	1.677136	-1.158656	-0.347951
H45	H	0.990765	-0.879227	-0.572693
H46	H	1.446027	-0.754537	0.141514
Cl47	Cl	1.170019	-0.425164	-0.327667
H48	H	1.445840	-0.754939	-0.057522
H49	H	1.773162	-0.457744	-0.062868
Cl50	Cl	1.634908	-0.289445	-0.096533
H51	H	1.661580	-0.334409	0.098450
Cl52	Cl	1.813238	-0.484911	0.130906
H53	H	0.948968	-0.460993	-0.355093
H54	H	1.152210	-0.755374	-0.683916
H55	H	1.163981	-0.874295	-0.565644
