data_functionalizedCrystal
_audit_creation_method	'MofGen! by Chris Wilmer'
_symmetry_space_group_name_H-M	'P1'
_symmetry_Int_Tables_number	1
_symmetry_cell_setting	triclinic
loop_
_symmetry_equiv_pos_as_xyz
  x,y,z
_cell_length_a	8.597366
_cell_length_b	10.868271
_cell_length_c	8.597304
_cell_angle_alpha	97.705004
_cell_angle_beta	86.359176
_cell_angle_gamma	82.302336
loop_
_atom_site_label
_atom_site_type_symbol
_atom_site_fract_x
_atom_site_fract_y
_atom_site_fract_z
O1	O	2.085991	-0.093995	0.234285
O2	O	1.629342	-0.043675	0.252264
O3	O	1.866653	-0.093996	0.014945
O4	O	1.848681	-0.043674	0.471604
O5	O	1.866633	-0.298640	0.014935
O6	O	1.629323	-0.248319	0.252254
O7	O	2.085971	-0.298639	0.234275
Zn8	Zn	1.857644	-0.305970	0.243263
Zn9	Zn	1.857670	-0.036344	0.243276
O10	O	1.848661	-0.248318	0.471595
C11	C	1.570832	-0.139999	0.250329
C12	C	1.396521	-0.122130	0.244561
N13	N	1.857637	-0.489985	0.243254
C14	C	1.857662	-0.740991	0.243273
C15	C	1.857643	-0.601312	0.243267
C16	C	2.144481	-0.202312	0.236210
C17	C	2.318793	-0.220173	0.241979
C18	C	1.864712	-0.202313	-0.043562
C19	C	1.858941	-0.220175	-0.217877
N20	N	1.857689	0.147668	0.243273
C21	C	1.850602	-0.139998	0.530101
C22	C	1.856373	-0.122128	0.704416
H23	H	1.329714	-0.024514	0.242345
O24	O	1.407273	-0.349491	0.244917
H25	H	1.534890	-0.343715	0.249162
O26	O	1.859320	0.007181	-0.207080
H27	H	1.863562	0.001397	-0.079465
O28	O	1.856015	-0.349494	-0.306390
H29	H	1.851801	-0.343716	-0.434009
