data_functionalizedCrystal
_audit_creation_method	'MofGen! by Chris Wilmer'
_symmetry_space_group_name_H-M	'P1'
_symmetry_Int_Tables_number	1
_symmetry_cell_setting	triclinic
loop_
_symmetry_equiv_pos_as_xyz
  x,y,z
_cell_length_a	12.645331
_cell_length_b	12.594516
_cell_length_c	12.645323
_cell_angle_alpha	89.976054
_cell_angle_beta	89.984262
_cell_angle_gamma	90.015287
loop_
_atom_site_label
_atom_site_type_symbol
_atom_site_fract_x
_atom_site_fract_y
_atom_site_fract_z
Zn1	Zn	1.620743	-0.423755	-0.599257
Zn2	Zn	2.120743	0.076245	-0.099257
Zn3	Zn	1.620630	-0.601759	-0.422000
Zn4	Zn	2.120630	-0.101759	0.078000
Zn5	Zn	1.443458	-0.423792	-0.422023
Zn6	Zn	1.943458	0.076208	0.077977
Zn7	Zn	1.443445	-0.601690	-0.599237
Zn8	Zn	1.943445	-0.101690	-0.099237
O9	O	1.532069	-0.512749	-0.510629
O10	O	2.032069	-0.012749	-0.010629
O11	O	1.769075	-0.447381	-0.575742
O12	O	2.269075	0.052619	-0.075742
O13	O	1.597086	-0.578195	-0.273655
O14	O	2.097086	-0.078195	0.226345
O15	O	1.467028	-0.274842	-0.445551
O16	O	1.967028	0.225158	0.054449
O17	O	1.768992	-0.578160	-0.445512
O18	O	2.268992	-0.078160	0.054488
O19	O	1.597279	-0.274815	-0.575764
O20	O	2.097279	0.225185	-0.075764
O21	O	1.466918	-0.447444	-0.273672
O22	O	1.966918	0.052556	0.226328
O23	O	1.295109	-0.447377	-0.445532
O24	O	1.795109	0.052623	0.054468
O25	O	1.467006	-0.578042	-0.747587
O26	O	1.967006	-0.078042	-0.247587
O27	O	1.295099	-0.578078	-0.575730
O28	O	1.795099	-0.078078	-0.075730
O29	O	1.597266	-0.447315	-0.747602
O30	O	2.097266	0.052685	-0.247602
O31	O	1.597073	-0.750695	-0.445493
O32	O	2.097073	-0.250695	0.054507
O33	O	1.466896	-0.750645	-0.575708
O34	O	1.966896	-0.250645	-0.075708
C35	C	1.256639	-0.512725	-0.510632
C36	C	1.756639	-0.012725	-0.010632
C37	C	1.138809	-0.512740	-0.510658
C38	C	1.638809	-0.012740	-0.010658
C39	C	0.971275	-0.595415	-0.592139
C40	C	1.471275	-0.095415	-0.092139
C41	C	1.093835	-0.595148	-0.592479
C42	C	1.593835	-0.095148	-0.092479
C43	C	1.094328	-0.400635	-0.541178
C44	C	1.594328	0.099365	-0.041178
C45	C	0.971730	-0.401139	-0.541751
C46	C	1.471730	0.098861	-0.041751
C47	C	0.971564	-0.541268	-0.398399
C48	C	1.471564	-0.041268	0.101601
C49	C	1.094170	-0.543720	-0.399005
C50	C	1.594170	-0.043720	0.100995
C51	C	1.531999	-0.789290	-0.510619
C52	C	2.031999	-0.289290	-0.010619
C53	C	1.532067	-0.907596	-0.510650
C54	C	2.032067	-0.407596	-0.010650
C55	C	1.461256	-0.976860	-0.581424
C56	C	1.961256	-0.476860	-0.081424
C57	C	1.435425	-1.047721	-0.484694
C58	C	1.935425	-0.547721	0.015306
C59	C	1.557995	-1.047533	-0.607396
C60	C	2.057995	-0.547533	-0.107396
C61	C	1.506184	-0.976899	-0.413869
C62	C	2.006184	-0.476899	0.086131
C63	C	1.628799	-0.976705	-0.536636
C64	C	2.128799	-0.476705	-0.036636
C65	C	1.603004	-1.047534	-0.439839
C66	C	2.103004	-0.547534	0.060161
C67	C	1.808574	-0.512774	-0.510627
C68	C	2.308574	-0.012774	-0.010627
C69	C	1.926404	-0.512785	-0.510626
C70	C	2.426404	-0.012785	-0.010626
C71	C	1.532147	-0.512667	-0.787134
C72	C	2.032147	-0.012667	-0.287134
C73	C	1.532180	-0.512632	-0.904965
C74	C	2.032180	-0.012632	-0.404965
C75	C	1.532168	-0.235128	-0.510663
C76	C	2.032168	0.264872	-0.010663
C77	C	1.532210	-0.116823	-0.510677
C78	C	2.032210	0.383177	-0.010677
C79	C	1.449981	-0.594485	-1.072519
C80	C	1.949981	-0.094485	-0.572519
C81	C	1.450196	-0.594890	-0.949959
C82	C	1.950196	-0.094890	-0.449959
C83	C	1.643881	-0.543074	-0.949471
C84	C	2.143881	-0.043074	-0.449471
C85	C	1.643430	-0.543587	-1.072070
C86	C	2.143430	-0.043587	-0.572070
C87	C	1.503736	-0.399879	-1.072164
C88	C	2.003736	0.100121	-0.572164
C89	C	1.501244	-0.400554	-0.949558
C90	C	2.001244	0.099446	-0.449558
C91	C	1.532052	-0.512754	-0.235199
C92	C	2.032052	-0.012754	0.264801
C93	C	1.532224	-0.512490	-0.117370
C94	C	2.032224	-0.012490	0.382630
H95	H	0.940483	-0.576809	-0.674811
H96	H	1.440483	-0.076809	-0.174811
H97	H	0.941785	-0.678823	-0.573223
H98	H	1.441785	-0.178823	-0.073223
H99	H	1.353687	-1.078938	-0.462737
H100	H	1.853687	-0.578938	0.037263
H101	H	0.942047	-0.337367	-0.485104
H102	H	1.442047	0.162633	0.014896
H103	H	1.710519	-0.945490	-0.558639
H104	H	2.210519	-0.445490	-0.058639
H105	H	1.469003	-0.678374	-0.920644
H106	H	1.969003	-0.178374	-0.420644
Br107	Br	1.683677	-0.680793	-1.119760
Br108	Br	2.183677	-0.180793	-0.619760
Br109	Br	0.923198	-0.440955	-0.297170
Br110	Br	1.423198	0.059045	0.202830
Br111	Br	1.469576	-0.925407	-0.277479
Br112	Br	1.969576	-0.425407	0.222521
Br113	Br	1.748961	-0.448302	-1.121528
Br114	Br	2.248961	0.051698	-0.621528
Br115	Br	1.142760	-0.563732	-0.731079
Br116	Br	1.642760	-0.063732	-0.231079
H117	H	1.468604	-0.677447	-1.103337
H118	H	1.968604	-0.177447	-0.603337
Br119	Br	1.594448	-1.099256	-0.743741
Br120	Br	2.094448	-0.599256	-0.243741
Br121	Br	1.702919	-1.098931	-0.339994
Br122	Br	2.202919	-0.598931	0.160006
H123	H	1.367366	-0.575840	-0.919867
H124	H	1.867366	-0.075840	-0.419867
H125	H	1.563638	-0.338789	-1.101169
H126	H	2.063638	0.161211	-0.601169
H127	H	1.123459	-0.337396	-0.483662
H128	H	1.623459	0.162604	0.016338
Br129	Br	1.361278	-0.925133	-0.681039
Br130	Br	1.861278	-0.425133	-0.181039
Br131	Br	0.920011	-0.675184	-0.352150
Br132	Br	1.420011	-0.175184	0.147850
Br133	Br	1.748759	-0.446684	-0.900905
Br134	Br	2.248759	0.053316	-0.400905
H135	H	1.668442	-0.624532	-0.918781
H136	H	2.168442	-0.124532	-0.418781
Br137	Br	0.924096	-0.360873	-0.678494
Br138	Br	1.424096	0.139127	-0.178494
Br139	Br	1.145532	-0.359628	-0.676439
Br140	Br	1.645532	0.140372	-0.176439
Br141	Br	1.142624	-0.681225	-0.360644
Br142	Br	1.642624	-0.181225	0.139356
Br143	Br	1.370338	-0.353628	-1.123684
Br144	Br	1.870338	0.146372	-0.623684
Br145	Br	1.145188	-0.450682	-0.292343
Br146	Br	1.645188	0.049318	0.207657
Br147	Br	1.311507	-0.563035	-1.121646
Br148	Br	1.811507	-0.063035	-0.621646
Br149	Br	1.364226	-0.362292	-0.901092
Br150	Br	1.864226	0.137708	-0.401092
H151	H	1.556769	-0.336233	-0.918929
H152	H	2.056769	0.163767	-0.418929
Br153	Br	1.143967	-0.733719	-0.560647
Br154	Br	1.643967	-0.233719	-0.060647
