data_functionalizedCrystal
_audit_creation_method	'MofGen! by Chris Wilmer'
_symmetry_space_group_name_H-M	'P1'
_symmetry_Int_Tables_number	1
_symmetry_cell_setting	triclinic
loop_
_symmetry_equiv_pos_as_xyz
  x,y,z
_cell_length_a	16.109296
_cell_length_b	16.109301
_cell_length_c	14.586319
_cell_angle_alpha	89.998857
_cell_angle_beta	90.004442
_cell_angle_gamma	96.539564
loop_
_atom_site_label
_atom_site_type_symbol
_atom_site_fract_x
_atom_site_fract_y
_atom_site_fract_z
O1	O	-0.106867	1.103129	-0.076191
O2	O	-0.120166	0.861066	-0.076204
O3	O	0.007514	0.988749	-0.076190
O4	O	-0.234548	0.975446	-0.076206
O5	O	0.007516	0.988741	0.076291
O6	O	-0.120165	0.861058	0.076276
O7	O	-0.106865	1.103120	0.076290
Cu8	Cu	-0.113515	0.982088	0.090206
Cu9	Cu	-0.113517	0.982098	-0.090121
O10	O	-0.234546	0.975437	0.076275
C11	C	0.038490	0.988207	0.000050
C12	C	0.130786	0.986594	0.000050
C13	C	-0.119627	0.830087	0.000034
C14	C	-0.118012	0.737792	0.000030
C15	C	0.439785	1.057083	0.000042
C16	C	0.353064	1.058607	0.000046
C17	C	0.333191	0.907117	0.000050
C18	C	0.419910	0.905595	0.000052
C19	C	0.473205	0.980580	0.000044
C20	C	0.299766	0.983626	0.000046
C21	C	0.205739	0.985278	0.000050
C22	C	0.567237	0.978929	0.000041
C23	C	0.734478	0.975984	0.000036
C24	C	0.642185	0.977613	0.000039
C25	C	-0.188495	0.428792	0.000041
C26	C	-0.190020	0.515512	0.000036
C27	C	-0.038531	0.535389	0.000033
C28	C	-0.037007	0.448670	0.000032
C29	C	-0.111991	0.395374	0.000041
C30	C	-0.115041	0.568813	0.000036
C31	C	-0.116694	0.662839	0.000031
C32	C	-0.110338	0.301342	0.000045
C33	C	-0.107405	1.134099	0.000049
C34	C	-0.109020	1.226394	0.000047
N35	N	-0.113513	0.982087	0.217037
N36	N	-0.113513	0.982106	-0.216952
C37	C	-0.056995	1.038643	0.452050
C38	C	-0.056993	1.038646	0.548032
C39	C	-0.170033	0.925543	0.548028
C40	C	-0.170031	0.925538	0.452049
C41	C	-0.113512	0.982092	0.404062
C42	C	-0.113513	0.982100	0.596023
C43	C	-0.113511	0.982103	0.700090
C44	C	-0.113513	0.982089	0.299988
H45	H	0.483176	1.118141	0.000035
H46	H	-0.249552	0.385400	0.000047
F47	F	-0.230184	0.865342	0.400972
F48	F	0.003159	1.098832	0.400983
F49	F	0.455480	0.824165	0.000059
H50	H	0.289788	0.846067	0.000055
H51	H	0.022518	0.578793	0.000028
F52	F	0.317500	1.140031	0.000042
F53	F	-0.271446	0.551075	0.000033
H54	H	0.025296	0.421461	0.000029
H55	H	-0.010970	1.084694	0.587101
F56	F	-0.230184	0.865359	0.599105
