data_functionalizedCrystal
_audit_creation_method	'MofGen! by Chris Wilmer'
_symmetry_space_group_name_H-M	'P1'
_symmetry_Int_Tables_number	1
_symmetry_cell_setting	triclinic
loop_
_symmetry_equiv_pos_as_xyz
  x,y,z
_cell_length_a	17.077404
_cell_length_b	14.908520
_cell_length_c	17.077396
_cell_angle_alpha	93.268321
_cell_angle_beta	89.980499
_cell_angle_gamma	93.320938
loop_
_atom_site_label
_atom_site_type_symbol
_atom_site_fract_x
_atom_site_fract_y
_atom_site_fract_z
Zn1	Zn	1.182024	-0.359154	-0.461868
Zn2	Zn	1.174357	-0.510026	-0.338173
Zn3	Zn	1.050754	-0.359186	-0.330617
Zn4	Zn	1.043152	-0.509972	-0.469394
O5	O	1.112572	-0.434584	-0.400013
O6	O	1.290853	-0.379177	-0.445472
O7	O	1.157933	-0.490052	-0.227326
O8	O	1.074557	-0.232937	-0.341715
O9	O	1.285220	-0.490021	-0.354594
O10	O	1.171001	-0.232913	-0.438145
O11	O	1.067123	-0.379231	-0.221774
O12	O	0.939899	-0.379179	-0.349014
O13	O	1.061601	-0.489930	-0.578241
O14	O	0.934314	-0.489961	-0.450973
O15	O	1.163629	-0.379125	-0.572711
O16	O	1.150562	-0.636263	-0.361892
O17	O	1.054166	-0.636224	-0.458300
C18	C	0.908625	-0.434568	-0.399990
C19	C	0.821374	-0.434583	-0.400001
C20	C	0.777492	-0.492354	-0.453014
C21	C	0.695511	-0.492356	-0.453027
C22	C	0.657414	-0.434591	-0.400022
C23	C	0.701302	-0.376813	-0.347005
C24	C	0.783282	-0.376807	-0.346997
C25	C	0.530432	-0.376831	-0.347025
C26	C	0.448447	-0.376837	-0.347032
C27	C	0.442661	-0.492380	-0.453055
C28	C	0.524640	-0.492374	-0.453047
C29	C	0.568523	-0.434597	-0.400029
C30	C	1.100728	-0.668978	-0.411750
C31	C	1.095734	-0.769252	-0.416797
C32	C	1.186828	-0.957658	-0.325973
C33	C	1.182137	-1.051875	-0.330713
C34	C	1.081667	-1.051904	-0.431020
C35	C	1.086357	-0.957687	-0.426280
C36	C	1.138939	-0.910568	-0.373754
C37	C	1.143625	-0.816349	-0.369011
C38	C	1.043159	-0.816380	-0.469321
C39	C	1.038468	-0.910597	-0.474061
C40	C	1.317315	-0.434601	-0.400036
C41	C	1.404564	-0.434609	-0.400046
C42	C	1.112622	-0.434518	-0.604754
C43	C	1.112644	-0.434490	-0.692002
C44	C	1.124482	-0.199276	-0.388248
C45	C	1.129558	-0.099001	-0.383234
C46	C	1.165772	-0.376788	-0.730114
C47	C	1.165783	-0.376758	-0.812093
C48	C	1.112669	-0.434435	-0.855959
C49	C	1.059535	-0.492138	-0.817842
C50	C	1.059521	-0.492163	-0.735864
C51	C	1.059569	-0.492084	-0.988709
C52	C	1.059584	-0.492061	-1.070693
C53	C	1.165832	-0.376679	-1.064938
C54	C	1.165818	-0.376704	-0.982961
C55	C	1.112684	-0.434409	-0.944849
C56	C	1.112569	-0.434585	-0.196065
C57	C	1.112713	-0.434360	-0.108804
H58	H	0.417431	-0.329789	-0.303879
C59	C	1.042533	-0.613371	-1.168959
C60	C	1.001192	-0.555443	-1.118917
H61	H	1.006480	-0.652499	-1.198728
H62	H	1.074179	-0.579004	-1.203380
H63	H	1.074966	-0.647906	-1.138704
H64	H	0.968763	-0.520902	-1.149172
H65	H	0.969532	-0.589814	-1.084492
C66	C	1.159872	-0.710466	-0.258100
C67	C	1.201421	-0.764552	-0.311276
H68	H	1.195556	-0.678495	-0.222455
H69	H	1.132030	-0.668937	-0.285877
H70	H	1.123861	-0.747288	-0.229895
H71	H	1.237428	-0.727729	-0.339485
H72	H	1.229276	-0.806086	-0.283496
C73	C	0.911649	-0.787480	-0.505966
C74	C	0.990512	-0.764613	-0.521842
H75	H	0.879147	-0.755515	-0.538384
H76	H	0.901337	-0.850327	-0.516313
H77	H	0.900975	-0.772090	-0.452435
H78	H	1.001188	-0.780008	-0.575373
H79	H	1.000827	-0.701751	-0.511502
C80	C	1.270837	-0.262647	-0.985502
C81	C	1.224200	-0.313305	-0.934741
H82	H	1.306876	-0.223502	-0.955731
H83	H	1.298881	-0.301943	-1.019444
H84	H	1.238382	-0.228126	-1.015748
H85	H	1.256655	-0.347831	-0.904499
H86	H	1.196155	-0.274004	-0.900785
H87	H	1.016286	-0.539096	-0.853564
C88	C	1.213015	-0.325376	-1.188044
C89	C	1.224225	-0.313232	-1.106827
H90	H	1.249059	-0.286203	-1.213904
H91	H	1.221445	-0.385977	-1.204514
H92	H	1.160938	-0.312169	-1.200794
H93	H	1.276300	-0.326446	-1.094076
H94	H	1.215801	-0.252618	-1.090351
C95	C	1.313650	-1.080728	-0.294070
C96	C	1.234792	-1.103617	-0.278188
H97	H	1.346162	-1.112662	-0.261638
H98	H	1.324328	-1.096130	-0.347590
H99	H	1.323943	-1.017866	-0.283740
H100	H	1.224497	-1.166478	-0.288524
H101	H	1.224110	-1.088220	-0.224655
C102	C	0.954575	-0.606168	-1.002629
C103	C	1.001182	-0.555535	-0.946816
H104	H	0.918540	-0.645349	-0.976765
H105	H	0.926527	-0.566857	-1.032622
H106	H	0.987050	-0.640648	-1.036345
H107	H	0.968707	-0.521050	-0.913104
H108	H	1.029231	-0.594851	-0.916810
H109	H	0.406928	-0.539421	-0.496226
H110	H	1.209027	-0.329824	-0.694404
C111	C	1.013568	-0.644936	-0.718242
C112	C	1.001134	-0.555599	-0.693961
H113	H	0.977525	-0.684098	-0.692367
H114	H	1.005966	-0.653173	-0.773334
H115	H	1.065646	-0.658127	-0.705478
H116	H	0.949058	-0.542406	-0.706731
H117	H	1.008730	-0.547358	-0.638857
C118	C	0.763531	-0.606553	-0.557821
C119	C	0.819364	-0.555850	-0.511284
H120	H	0.789381	-0.645747	-0.593799
H121	H	0.729804	-0.641014	-0.525301
H122	H	0.733550	-0.567280	-0.585935
H123	H	0.849341	-0.595122	-0.483165
H124	H	0.853105	-0.521386	-0.543808
H125	H	0.566159	-0.329775	-0.303859
H126	H	0.670278	-0.329775	-0.303850
H127	H	1.229636	-0.919293	-0.283199
H128	H	1.038863	-1.090285	-0.473789
H129	H	0.995660	-0.948974	-0.516828
H130	H	0.659786	-0.539400	-0.496196
H131	H	0.555656	-0.539416	-0.496205
H132	H	1.209048	-0.329774	-0.843120
H133	H	0.819010	-0.329759	-0.303831
