data_functionalizedCrystal
_audit_creation_method	'MofGen! by Chris Wilmer'
_symmetry_space_group_name_H-M	'P1'
_symmetry_Int_Tables_number	1
_symmetry_cell_setting	triclinic
loop_
_symmetry_equiv_pos_as_xyz
  x,y,z
_cell_length_a	10.654558
_cell_length_b	19.288864
_cell_length_c	17.766277
_cell_angle_alpha	90.023209
_cell_angle_beta	89.994623
_cell_angle_gamma	96.187764
loop_
_atom_site_label
_atom_site_type_symbol
_atom_site_fract_x
_atom_site_fract_y
_atom_site_fract_z
O1	O	0.156656	-0.922381	-0.062834
O2	O	0.177789	-0.720259	-0.062783
O3	O	-0.015616	-0.825965	-0.062807
O4	O	0.350060	-0.816676	-0.062811
O5	O	-0.015625	-0.825946	0.062382
O6	O	0.177779	-0.720241	0.062406
O7	O	0.156646	-0.922363	0.062354
Cu8	Cu	0.167212	-0.821300	0.073811
Cu9	Cu	0.167223	-0.821322	-0.074239
O10	O	0.350051	-0.816657	0.062378
C11	C	0.177104	-0.694369	-0.000182
C12	C	0.175063	-0.617252	-0.000162
N13	N	0.167203	-0.821289	0.177941
C14	C	-0.062404	-0.825272	-0.000213
C15	C	-0.201803	-0.823228	-0.000215
C16	C	-0.267301	-0.822256	0.068025
C17	C	-0.398282	-0.820341	0.068022
C18	C	-0.398255	-0.820368	-0.068465
C19	C	-0.267277	-0.822288	-0.068462
C20	C	-0.267317	-0.822238	0.146825
C21	C	-0.398298	-0.820323	0.146822
C22	C	0.396839	-0.817350	-0.000217
C23	C	0.536238	-0.819394	-0.000221
C24	C	0.157331	-0.948253	-0.000248
C25	C	0.159372	-1.025370	-0.000273
C26	C	0.288544	-0.573301	-0.000175
C27	C	0.286626	-0.500841	-0.000184
C28	C	0.171221	-0.472336	-0.000194
C29	C	0.057725	-0.516297	-0.000176
C30	C	0.059646	-0.588755	-0.000161
C31	C	0.080503	-0.363485	-0.044077
C32	C	0.078587	-0.291028	-0.044098
C33	C	0.165291	-0.248852	-0.000239
C34	C	0.253933	-0.279139	0.043630
C35	C	0.255854	-0.351598	0.043646
C36	C	0.169125	-0.393768	-0.000211
C37	C	0.276701	-0.126331	-0.000260
C38	C	0.274778	-0.053870	-0.000264
C39	C	0.045874	-0.069328	-0.000265
C40	C	0.047800	-0.141787	-0.000253
C41	C	0.163217	-0.170284	-0.000255
N42	N	0.167222	-0.821338	-0.178370
C43	C	0.081605	-0.868111	0.217317
C44	C	0.081599	-0.868115	0.296119
C45	C	0.167213	-0.821304	0.335542
C46	C	0.252817	-0.774473	0.296156
C47	C	0.252812	-0.774466	0.217355
C48	C	0.281633	-0.812756	0.460380
C49	C	0.281640	-0.812768	0.539179
C50	C	0.167228	-0.821323	0.578588
C51	C	0.052804	-0.829879	0.539189
C52	C	0.052799	-0.829872	0.460388
C53	C	0.167227	-0.821306	0.420987
C54	C	0.081617	-0.868151	0.703410
C55	C	0.081609	-0.868150	0.782213
C56	C	0.252838	-0.774512	0.782248
C57	C	0.252834	-0.774510	0.703447
C58	C	0.167225	-0.821333	0.664032
H59	H	-0.213956	-0.823088	-0.124029
H60	H	-0.243543	-0.871272	0.177072
H61	H	0.322541	-0.736386	0.671384
Br62	Br	-0.034570	-0.931694	0.649917
H63	H	0.374808	-0.805778	0.428299
Br64	Br	0.433333	-0.165009	-0.000257
H65	H	-0.048091	-0.046120	-0.000320
H66	H	0.324536	-0.244800	0.079344
Br67	Br	-0.106219	-0.201439	-0.000237
Br68	Br	-0.037181	-0.420718	-0.103603
H69	H	0.374810	-0.805806	0.571251
H70	H	0.322523	-0.736358	0.328257
H71	H	0.006415	-0.266373	-0.079822
H72	H	0.011899	-0.906276	0.814274
Br73	Br	-0.437963	-0.738580	0.197265
H74	H	-0.036239	-0.493084	-0.000195
Br75	Br	-0.094376	-0.648408	-0.000141
Br76	Br	-0.487123	-0.819096	-0.161082
H77	H	-0.214558	-0.772767	0.171286
Br78	Br	-0.034579	-0.931653	0.163826
Br79	Br	0.369015	-0.710975	0.835744
H80	H	-0.451064	-0.869785	0.171266
Br81	Br	-0.034580	-0.931663	0.349568
H82	H	-0.040368	-0.836837	0.428313
Br83	Br	0.445179	-0.611972	-0.000176
H84	H	0.379039	-0.465049	-0.000192
H85	H	0.328026	-0.376255	0.079368
H86	H	0.367192	-0.018085	-0.000270
Br87	Br	-0.102481	-0.841498	0.592662
H88	H	0.322517	-0.736337	0.185294
