data_functionalizedCrystal
_audit_creation_method	'MofGen! by Chris Wilmer'
_symmetry_space_group_name_H-M	'P1'
_symmetry_Int_Tables_number	1
_symmetry_cell_setting	triclinic
loop_
_symmetry_equiv_pos_as_xyz
  x,y,z
_cell_length_a	15.995355
_cell_length_b	14.750779
_cell_length_c	15.625253
_cell_angle_alpha	85.137606
_cell_angle_beta	83.884173
_cell_angle_gamma	77.353647
loop_
_atom_site_label
_atom_site_type_symbol
_atom_site_fract_x
_atom_site_fract_y
_atom_site_fract_z
O1	O	-1.102890	-0.036189	-0.125089
O2	O	-0.860174	-0.031608	-0.138312
O3	O	-0.978471	-0.075987	-0.010779
O4	O	-0.984593	0.008190	-0.252622
O5	O	-1.011912	0.071120	0.025270
O6	O	-0.893615	0.115498	-0.102264
O7	O	-1.136332	0.110918	-0.089041
Zn8	Zn	-1.020283	0.136564	-0.089929
Zn9	Zn	-0.976222	-0.057255	-0.137424
O10	O	-1.018035	0.155296	-0.216574
C11	C	-0.845655	0.041752	-0.119741
C12	C	-0.752571	0.041173	-0.118103
C13	C	-0.582149	0.040149	-0.115123
C14	C	-0.551400	0.008106	-0.023060
C15	C	-0.454660	0.007841	-0.021240
C16	C	-0.414357	0.039140	-0.112187
C17	C	-0.466230	0.139090	-0.137934
C18	C	-0.563125	0.139536	-0.139015
C19	C	-0.525113	-0.027288	-0.181358
C20	C	-0.428096	-0.029569	-0.178224
C21	C	-0.319529	0.038574	-0.110533
C22	C	-0.676979	0.040722	-0.116779
C23	C	-0.992151	-0.013207	0.038193
C24	C	-0.983082	-0.045309	0.130405
N25	N	-1.050359	0.268840	-0.057514
C26	C	-0.150850	0.037552	-0.107601
C27	C	-0.243935	0.038116	-0.109207
N28	N	-0.946152	-0.189533	-0.169832
C29	C	-0.862151	0.691232	-0.260324
C30	C	-0.883233	0.783829	-0.237616
C31	C	-0.988012	0.744509	-0.124727
C32	C	-0.966935	0.651905	-0.147423
C33	C	-0.904005	0.625275	-0.215223
C34	C	-1.008790	0.585949	-0.102322
C35	C	-0.987718	0.493355	-0.125020
C36	C	-0.924792	0.466717	-0.192819
C37	C	-0.882933	0.532681	-0.237921
C38	C	-1.071724	0.612582	-0.034526
C39	C	-1.113578	0.546626	0.010575
C40	C	-1.092502	0.454029	-0.012119
C41	C	-1.029576	0.427391	-0.079917
C42	C	-1.134361	0.388065	0.032984
C43	C	-1.113289	0.295471	0.010286
C44	C	-1.008505	0.334797	-0.102615
C45	C	-1.044425	0.250061	0.531931
C46	C	-1.035903	0.219881	0.618576
C47	C	-0.999447	0.059515	0.579268
C48	C	-1.007962	0.089682	0.492618
C49	C	-1.030452	0.184956	0.468957
C50	C	-0.993989	0.024576	0.429644
C51	C	-1.002507	0.054741	0.343002
C52	C	-1.024999	0.150011	0.319334
C53	C	-1.038970	0.215120	0.382315
C54	C	-0.971505	-0.070698	0.453307
C55	C	-0.957532	-0.135803	0.390333
C56	C	-0.966045	-0.105638	0.303689
C57	C	-0.988536	-0.010369	0.280021
C58	C	-0.952074	-0.170748	0.240708
C59	C	-0.960592	-0.140583	0.154066
C60	C	-0.997055	0.019796	0.193379
C61	C	-1.004354	0.092519	0.734455
C62	C	-1.013421	0.124627	0.642244
H63	H	-0.440418	0.165249	-0.204103
O64	O	-0.801118	0.665431	-0.326288
C65	C	-0.826469	0.716697	-0.402980
H66	H	-0.899327	0.742303	-0.397194
H67	H	-0.806334	0.670310	-0.459585
H68	H	-0.794246	0.778930	-0.414176
H69	H	-0.399262	-0.011814	-0.245829
H70	H	-1.057256	0.292703	0.363047
H71	H	-1.147373	0.241767	0.047012
H72	H	-0.536597	-0.100964	-0.167890
H73	H	-0.907639	0.391321	-0.211301
H74	H	-1.088881	0.687981	-0.016051
O75	O	-0.609058	0.201314	-0.082703
C76	C	-0.583248	0.174506	0.000871
H77	H	-0.553410	0.096829	0.005288
H78	H	-0.641613	0.189725	0.050168
H79	H	-0.533852	0.215285	0.014736
H80	H	-0.562872	-0.064426	-0.002108
H81	H	-0.933770	-0.248321	0.259987
H82	H	-0.981139	-0.018058	0.598546
O83	O	-0.599024	0.065137	0.036302
C84	C	-0.686457	0.061560	0.036952
H85	H	-0.698294	0.037968	-0.027486
H86	H	-0.728191	0.133631	0.047690
H87	H	-0.703586	0.010189	0.091175
H88	H	-0.583943	0.166619	-0.205648
H89	H	-0.457821	0.190664	-0.090825
H90	H	-0.447065	0.055737	0.029639
O91	O	-0.412270	-0.078953	0.004330
C92	C	-0.421829	-0.143039	-0.054038
H93	H	-0.481914	-0.113810	-0.089056
H94	H	-0.428303	-0.211626	-0.017230
H95	H	-0.363002	-0.155502	-0.103023
H96	H	-1.047280	0.272906	0.669849
O97	O	-0.963243	-0.100163	0.537439
C98	C	-0.940389	-0.198212	0.544818
H99	H	-0.961184	-0.227426	0.487188
H100	H	-0.973800	-0.225092	0.606853
H101	H	-0.867708	-0.221404	0.546381
O102	O	-0.947464	0.308831	-0.168531
C103	C	-0.984237	0.273133	-0.232946
H104	H	-1.043944	0.247756	-0.203307
H105	H	-0.935532	0.212586	-0.262017
H106	H	-1.002971	0.330187	-0.285600
O107	O	-0.842436	0.847834	-0.281350
C108	C	-0.753318	0.820490	-0.273356
H109	H	-0.741772	0.771879	-0.213092
H110	H	-0.725924	0.884707	-0.267950
H111	H	-0.720195	0.782776	-0.332559
O112	O	-0.385821	-0.117575	-0.156303
C113	C	-0.324475	-0.150406	-0.224450
H114	H	-0.343899	-0.110341	-0.287403
H115	H	-0.321211	-0.227700	-0.229943
H116	H	-0.258709	-0.139725	-0.211110
H117	H	-0.939224	-0.213376	0.409611
O118	O	-0.821696	0.506726	-0.303674
C119	C	-0.754293	0.437658	-0.272282
H120	H	-0.753969	0.442759	-0.199931
H121	H	-0.690226	0.448399	-0.306383
H122	H	-0.764180	0.365969	-0.285147
O123	O	-0.946949	-0.203945	0.092991
C124	C	-0.925291	-0.294505	0.132456
H125	H	-0.898347	-0.291309	0.196542
H126	H	-0.874802	-0.340037	0.088400
H127	H	-0.985211	-0.325398	0.144337
O128	O	-1.018773	0.112375	0.170466
C129	C	-0.956039	0.157034	0.194163
H130	H	-0.920778	0.113426	0.248359
H131	H	-0.988535	0.228639	0.217202
H132	H	-0.908077	0.165148	0.136091
O133	O	-0.548250	-0.000197	-0.262402
C134	C	-0.635502	-0.002548	-0.265610
H135	H	-0.655562	-0.052539	-0.211589
H136	H	-0.644645	-0.027186	-0.330523
H137	H	-0.676854	0.070176	-0.257312
O138	O	-1.049091	0.770530	-0.058865
C139	C	-1.058733	0.866404	-0.048516
H140	H	-0.997544	0.889860	-0.076425
H141	H	-1.070996	0.879697	0.023011
H142	H	-1.115456	0.907183	-0.083765
H143	H	-1.185605	0.409762	0.088182
O144	O	-1.174658	0.572647	0.076437
C145	C	-1.184300	0.668522	0.086785
H146	H	-1.123111	0.691977	0.058877
H147	H	-1.196562	0.681814	0.158313
H148	H	-1.241023	0.709300	0.051537
O149	O	-1.033346	0.179474	0.235215
C150	C	-1.056170	0.277525	0.227834
H151	H	-1.087799	0.304352	0.292334
H152	H	-1.103177	0.300749	0.176336
H153	H	-0.995990	0.306760	0.208864
H154	H	-1.062710	0.327644	0.512663
