data_functionalizedCrystal
_audit_creation_method	'MofGen! by Chris Wilmer'
_symmetry_space_group_name_H-M	'P1'
_symmetry_Int_Tables_number	1
_symmetry_cell_setting	triclinic
loop_
_symmetry_equiv_pos_as_xyz
  x,y,z
_cell_length_a	17.077404
_cell_length_b	17.077402
_cell_length_c	17.077396
_cell_angle_alpha	89.972568
_cell_angle_beta	90.019501
_cell_angle_gamma	89.975442
loop_
_atom_site_label
_atom_site_type_symbol
_atom_site_fract_x
_atom_site_fract_y
_atom_site_fract_z
Zn1	Zn	1.200047	0.312503	0.443848
Zn2	Zn	1.199951	0.443778	0.312585
Zn3	Zn	1.068779	0.312531	0.312596
Zn4	Zn	1.068743	0.443732	0.443808
O5	O	1.134380	0.378136	0.378210
O6	O	1.309881	0.329925	0.426448
O7	O	1.182525	0.426399	0.202739
O8	O	1.086247	0.202680	0.330029
O9	O	1.309810	0.426372	0.330009
O10	O	1.182689	0.202660	0.426459
O11	O	1.086153	0.329972	0.202748
O12	O	0.958927	0.329927	0.329990
O13	O	1.086186	0.426293	0.553661
O14	O	0.958901	0.426320	0.426391
O15	O	1.182655	0.329880	0.553690
O16	O	1.182491	0.553619	0.329970
O17	O	1.086093	0.553585	0.426380
C18	C	0.930432	0.378122	0.378188
C19	C	0.843182	0.378135	0.378197
C20	C	0.802199	0.428402	0.428313
C21	C	0.720219	0.428404	0.428325
C22	C	0.679223	0.378141	0.378218
C23	C	0.720212	0.327869	0.328100
C24	C	0.802191	0.327863	0.328092
C25	C	0.549342	0.327884	0.328119
C26	C	0.467357	0.327890	0.328126
C27	C	0.467370	0.428424	0.428352
C28	C	0.549348	0.428419	0.428344
C29	C	0.590332	0.378147	0.378225
C30	C	1.134299	0.582084	0.378187
C31	C	1.134336	0.669334	0.378203
C32	C	1.184580	0.710316	0.328058
C33	C	1.184617	0.792296	0.328082
C34	C	1.134404	0.833293	0.378246
C35	C	1.084158	0.792305	0.428397
C36	C	1.084126	0.710327	0.428377
C37	C	1.084226	0.963175	0.428434
C38	C	1.084256	1.045160	0.428453
C39	C	1.184717	1.045145	0.328138
C40	C	1.184685	0.963166	0.328118
C41	C	1.134437	0.922184	0.378268
C42	C	1.339124	0.378151	0.378232
C43	C	1.426374	0.378157	0.378241
C44	C	1.134427	0.378078	0.582954
C45	C	1.134447	0.378054	0.670204
C46	C	1.134476	1.173392	0.378260
C47	C	1.134501	1.086142	0.378308
C48	C	1.134378	0.378137	0.174262
C49	C	1.134509	0.377941	0.087012
C50	C	1.184680	0.327847	0.711210
C51	C	1.184690	0.327821	0.793191
C52	C	1.134470	0.378006	0.834163
C53	C	1.084231	0.428214	0.793151
C54	C	1.084219	0.428236	0.711172
C55	C	1.084263	0.428167	0.964021
C56	C	1.084277	0.428147	1.046006
C57	C	1.184734	0.327752	1.046040
C58	C	1.184721	0.327774	0.964061
C59	C	1.134484	0.377984	0.923054
H60	H	0.686826	0.286941	0.287305
H61	H	1.043311	0.929811	0.469273
C62	C	1.028920	0.837405	0.483576
N63	N	0.987311	0.871374	0.525135
H64	H	1.225596	0.286940	0.826575
C65	C	1.239997	1.090227	0.272980
N66	N	1.281632	1.124186	0.231436
C67	C	1.028981	0.483411	0.838223
N68	N	0.987365	0.524985	0.872171
C69	C	1.028960	0.483468	0.666065
N70	N	0.987336	0.525070	0.632091
H71	H	1.043384	1.078538	0.469316
H72	H	1.043381	0.469010	1.079363
C73	C	1.028853	0.665247	0.483540
N74	N	0.987223	0.631294	0.525093
C75	C	0.847287	0.483696	0.483435
N76	N	0.881245	0.525343	0.524958
H77	H	0.686854	0.469337	0.469133
H78	H	0.433980	0.286953	0.287333
C79	C	1.239964	0.272566	0.918993
N80	N	1.281571	0.230980	0.885048
C81	C	0.422286	0.483720	0.483487
N82	N	0.388326	0.525369	0.525012
C83	C	0.594442	0.483714	0.483461
N84	N	0.628407	0.525363	0.524976
H85	H	1.225578	0.286983	0.677857
C86	C	1.239995	0.272520	1.091149
N87	N	1.281619	0.230924	1.125129
C88	C	0.594421	0.272584	0.272983
N89	N	0.628375	0.230936	0.231452
C90	C	0.847271	0.272567	0.272959
N91	N	0.881226	0.230915	0.231433
H92	H	1.043342	0.469041	0.930636
C93	C	1.239817	0.665226	0.272870
N94	N	1.281426	0.631268	0.231302
C95	C	1.239909	0.918071	0.272922
N96	N	1.281502	0.884105	0.231345
H97	H	1.225530	0.825660	0.287248
