data_functionalizedCrystal
_audit_creation_method	'MofGen! by Chris Wilmer'
_symmetry_space_group_name_H-M	'P1'
_symmetry_Int_Tables_number	1
_symmetry_cell_setting	triclinic
loop_
_symmetry_equiv_pos_as_xyz
  x,y,z
_cell_length_a	11.026623
_cell_length_b	10.967931
_cell_length_c	10.065875
_cell_angle_alpha	69.185355
_cell_angle_beta	100.697799
_cell_angle_gamma	96.380029
loop_
_atom_site_label
_atom_site_type_symbol
_atom_site_fract_x
_atom_site_fract_y
_atom_site_fract_z
O1	O	-1.612962	-0.524760	0.009920
O2	O	-1.112962	-0.024760	0.509920
O3	O	-1.261407	-0.463316	-0.004532
O4	O	-0.761407	0.036684	0.495468
O5	O	-1.452124	-0.308706	-0.040888
O6	O	-0.952124	0.191294	0.459112
O7	O	-1.422245	-0.679370	0.046276
O8	O	-0.922245	-0.179370	0.546276
O9	O	-1.415752	-0.338339	0.193069
O10	O	-0.915752	0.161661	0.693069
O11	O	-1.225036	-0.492950	0.229425
O12	O	-0.725036	0.007050	0.729425
O13	O	-1.576590	-0.554393	0.243877
O14	O	-1.076590	-0.054393	0.743877
Zn15	Zn	-1.395038	-0.528376	0.273797
Zn16	Zn	-0.895038	-0.028376	0.773797
Zn17	Zn	-1.442959	-0.489333	-0.034452
Zn18	Zn	-0.942959	0.010667	0.465548
O19	O	-1.385874	-0.709003	0.280233
O20	O	-0.885874	-0.209003	0.780233
C21	C	-1.198334	-0.466798	0.109781
C22	C	-0.698334	0.033202	0.609781
C23	C	-1.064583	-0.433008	0.101833
C24	C	-0.564583	0.066992	0.601833
C25	C	-1.434513	-0.275332	0.064755
C26	C	-0.934513	0.224668	0.564755
C27	C	-1.436212	-0.131734	0.030979
C28	C	-0.936212	0.368266	0.530979
C29	C	-0.988119	-0.526305	0.123772
C30	C	-0.488119	-0.026305	0.623772
C31	C	-0.849880	-0.491383	0.115558
C32	C	-0.349880	0.008617	0.615558
C33	C	-0.639665	-0.550909	0.129561
C34	C	-0.139665	-0.050909	0.629561
C35	C	-0.773417	-0.584694	0.137500
C36	C	-0.273417	-0.084694	0.637500
C37	C	-1.419876	0.065350	0.102226
C38	C	-0.919876	0.565350	0.602226
C39	C	-1.418125	-0.083065	0.137132
C40	C	-0.918125	0.416935	0.637132
C41	C	-1.403486	0.257622	0.174589
C42	C	-0.903486	0.757622	0.674589
C43	C	-1.401791	0.114025	0.208364
C44	C	-0.901791	0.614025	0.708364
N45	N	-1.362343	-0.555024	0.484168
N46	N	-0.862343	-0.055024	0.984168
N47	N	-1.475665	-0.462678	-0.244825
N48	N	-0.975665	0.037322	0.255175
C49	C	-1.431576	-0.498594	0.538678
C50	C	-0.931576	0.001406	1.038678
C51	C	-1.406421	-0.519115	0.700671
C52	C	-0.906421	-0.019115	1.200671
H53	H	-1.024996	-0.632034	0.148642
H54	H	-0.524996	-0.132034	0.648642
F55	F	-1.458151	-0.042599	-0.121581
F56	F	-0.958151	0.457401	0.378419
F57	F	-0.821602	-0.722901	0.170016
F58	F	-0.321602	-0.222901	0.670016
H59	H	-1.509468	-0.435085	0.465420
H60	H	-1.009468	0.064915	0.965420
H61	H	-1.027710	-0.327275	0.076935
H62	H	-0.527710	0.172725	0.576935
F63	F	-1.304593	-0.602117	0.796414
F64	F	-0.804593	-0.102117	1.296414
H65	H	-1.284442	-0.618521	0.557425
H66	H	-0.784442	-0.118521	1.057425
F67	F	-0.801689	-0.353180	0.083068
F68	F	-0.301689	0.146820	0.583068
H69	H	-1.436664	0.133554	-0.014483
H70	H	-0.936664	0.633554	0.485517
F71	F	-1.577684	-0.379930	0.659494
F72	F	-1.077684	0.120070	1.159494
H73	H	-1.401349	-0.151266	0.253849
H74	H	-0.901349	0.348734	0.753849
F75	F	-1.379865	0.024882	0.360916
F76	F	-0.879865	0.524882	0.860916
