data_functionalizedCrystal
_audit_creation_method	'MofGen! by Chris Wilmer'
_symmetry_space_group_name_H-M	'P1'
_symmetry_Int_Tables_number	1
_symmetry_cell_setting	triclinic
loop_
_symmetry_equiv_pos_as_xyz
  x,y,z
_cell_length_a	18.215407
_cell_length_b	19.805405
_cell_length_c	18.215399
_cell_angle_alpha	89.969390
_cell_angle_beta	89.980167
_cell_angle_gamma	90.026858
loop_
_atom_site_label
_atom_site_type_symbol
_atom_site_fract_x
_atom_site_fract_y
_atom_site_fract_z
Zn1	Zn	1.125064	-0.269462	-0.416102
Zn2	Zn	1.625064	0.230538	0.083898
Zn3	Zn	1.124969	-0.382653	-0.293030
Zn4	Zn	1.624969	0.117347	0.206970
Zn5	Zn	1.001997	-0.269484	-0.293050
Zn6	Zn	1.501997	0.230516	0.206950
Zn7	Zn	1.001959	-0.382615	-0.416055
Zn8	Zn	1.501959	0.117385	0.083945
O9	O	1.063497	-0.326054	-0.354559
O10	O	1.563497	0.173946	0.145441
O11	O	1.228036	-0.284484	-0.399788
O12	O	1.728036	0.215516	0.100212
O13	O	1.108633	-0.367666	-0.190049
O14	O	1.608633	0.132334	0.309951
O15	O	1.018377	-0.174765	-0.309401
O16	O	1.518377	0.325235	0.190599
O17	O	1.227966	-0.367644	-0.309368
O18	O	1.727966	0.132356	0.190632
O19	O	1.108794	-0.174748	-0.399807
O20	O	1.608794	0.325252	0.100193
O21	O	1.018285	-0.284521	-0.190063
O22	O	1.518285	0.215479	0.309937
O23	O	0.899008	-0.284485	-0.309355
O24	O	1.399008	0.215515	0.190645
O25	O	1.018313	-0.367580	-0.519046
O26	O	1.518313	0.132420	-0.019046
O27	O	0.898980	-0.367602	-0.399727
O28	O	1.398980	0.132398	0.100273
O29	O	1.108758	-0.284447	-0.519080
O30	O	1.608758	0.215553	-0.019080
O31	O	1.108596	-0.477365	-0.309322
O32	O	1.608596	0.022635	0.190678
O33	O	1.018221	-0.477337	-0.399708
O34	O	1.518221	0.022663	0.100292
C35	C	0.872291	-0.326042	-0.354538
C36	C	1.372291	0.173958	0.145462
C37	C	0.790492	-0.326053	-0.354547
C38	C	1.290492	0.173947	0.145453
C39	C	0.602303	-0.369400	-0.401544
C40	C	1.102303	0.130600	0.098456
C41	C	0.525444	-0.369403	-0.401553
C42	C	1.025444	0.130597	0.098447
C43	C	0.525444	-0.282719	-0.307591
C44	C	1.025444	0.217281	0.192409
C45	C	0.602301	-0.282714	-0.307586
C46	C	1.102301	0.217286	0.192414
C47	C	0.640729	-0.326059	-0.354561
C48	C	1.140729	0.173941	0.145439
C49	C	0.487013	-0.326066	-0.354575
C50	C	0.987013	0.173934	0.145425
C51	C	0.403679	-0.326068	-0.354585
C52	C	0.903679	0.173932	0.145415
C53	C	0.724068	-0.326056	-0.354553
C54	C	1.224068	0.173944	0.145447
C55	C	1.063415	-0.501910	-0.354524
C56	C	1.563415	-0.001910	0.145476
C57	C	1.063446	-0.577142	-0.354533
C58	C	1.563446	-0.077142	0.145467
C59	C	1.110550	-0.612478	-0.307518
C60	C	1.610550	-0.112478	0.192482
C61	C	1.110582	-0.683166	-0.307535
C62	C	1.610582	-0.183166	0.192465
C63	C	1.063505	-0.718517	-0.354562
C64	C	1.563505	-0.218517	0.145438
C65	C	1.016399	-0.683176	-0.401582
C66	C	1.516399	-0.183176	0.098418
C67	C	1.016372	-0.612489	-0.401569
C68	C	1.516372	-0.112489	0.098431
C69	C	1.016507	-0.968249	-0.401637
C70	C	1.516507	-0.468249	0.098363
C71	C	1.016536	-1.038941	-0.401645
C72	C	1.516536	-0.538941	0.098355
C73	C	1.110717	-1.038927	-0.307602
C74	C	1.610717	-0.538927	0.192398
C75	C	1.110690	-0.968239	-0.307589
C76	C	1.610690	-0.468239	0.192411
C77	C	1.063587	-0.932905	-0.354611
C78	C	1.563587	-0.432905	0.145389
C79	C	1.063555	-0.856256	-0.354594
C80	C	1.563555	-0.356256	0.145406
C81	C	1.063533	-0.795164	-0.354577
C82	C	1.563533	-0.295164	0.145423
C83	C	1.255450	-0.326066	-0.354581
C84	C	1.755450	0.173934	0.145419
C85	C	1.337249	-0.326071	-0.354590
C86	C	1.837249	0.173929	0.145410
C87	C	1.063542	-0.326007	-0.546512
C88	C	1.563542	0.173993	-0.046512
C89	C	1.063561	-0.325987	-0.628311
C90	C	1.563561	0.174013	-0.128311
C91	C	1.063601	-0.149511	-0.354611
C92	C	1.563601	0.350489	0.145389
C93	C	1.063645	-0.074279	-0.354633
C94	C	1.563645	0.425721	0.145367
C95	C	1.110673	-0.282659	-0.816524
C96	C	1.610673	0.217341	-0.316524
C97	C	1.110682	-0.282639	-0.893383
C98	C	1.610682	0.217361	-0.393383
C99	C	1.016502	-0.369210	-0.893336
C100	C	1.516502	0.130790	-0.393336
C101	C	1.016490	-0.369226	-0.816479
C102	C	1.516490	0.130774	-0.316479
C103	C	1.063580	-0.325952	-0.778075
C104	C	1.563580	0.174048	-0.278075
C105	C	1.063600	-0.325916	-0.931791
C106	C	1.563600	0.174084	-0.431791
C107	C	1.063609	-0.325895	-1.015125
C108	C	1.563609	0.174105	-0.515125
C109	C	1.063570	-0.325972	-0.694736
C110	C	1.563570	0.174028	-0.194736
C111	C	1.063495	-0.326051	-0.163353
C112	C	1.563495	0.173949	0.336647
C113	C	1.063619	-0.325880	-0.081555
C114	C	1.563619	0.174120	0.418445
H115	H	0.494146	-0.247431	-0.269344
H116	H	0.994146	0.252569	0.230656
C117	C	1.161772	-0.235526	-0.935032
C118	C	1.661772	0.264474	-0.435032
C119	C	1.145795	-0.168563	-0.916335
C120	C	1.645795	0.331437	-0.416335
C121	C	1.192851	-0.125141	-0.954679
C122	C	1.692851	0.374859	-0.454679
H123	H	1.155084	-0.241617	-0.986318
H124	H	1.655084	0.258383	-0.486318
H125	H	1.211223	-0.245398	-0.922427
H126	H	1.711223	0.254602	-0.422427
H127	H	1.096355	-0.158695	-0.928946
H128	H	1.596355	0.341305	-0.428946
H129	H	1.152487	-0.162451	-0.865056
H130	H	1.652487	0.337549	-0.365056
H131	H	1.242303	-0.135012	-0.942073
H132	H	1.742303	0.364988	-0.442073
H133	H	1.186160	-0.131237	-1.005963
H134	H	1.686160	0.368763	-0.505963
H135	H	1.182022	-0.079702	-0.941993
H136	H	1.682022	0.420298	-0.441993
C137	C	0.644120	-0.416343	-0.452594
C138	C	1.144120	0.083657	0.047406
C139	C	0.688294	-0.378069	-0.499820
C140	C	1.188294	0.121931	0.000180
C141	C	0.726831	-0.421289	-0.546854
C142	C	1.226831	0.078711	-0.046854
H143	H	0.610309	-0.442171	-0.480647
H144	H	1.110309	0.057829	0.019353
H145	H	0.674120	-0.445791	-0.424405
H146	H	1.174120	0.054209	0.075595
H147	H	0.658296	-0.348633	-0.528006
H148	H	1.158296	0.151367	-0.028006
H149	H	0.722118	-0.352243	-0.471787
H150	H	1.222118	0.147757	0.028213
H151	H	0.756831	-0.450737	-0.518665
H152	H	1.256831	0.049263	-0.018665
H153	H	0.693015	-0.447114	-0.574902
H154	H	1.193015	0.052886	-0.074902
H155	H	0.756812	-0.395327	-0.578898
H156	H	1.256812	0.104673	-0.078898
C157	C	0.483858	-0.416536	-0.452590
C158	C	0.983858	0.083464	0.047410
C159	C	0.533965	-0.454503	-0.493713
C160	C	1.033965	0.045497	0.006287
C161	C	0.495683	-0.497936	-0.540731
C162	C	0.995683	0.002064	-0.040731
H163	H	0.453899	-0.390759	-0.484775
H164	H	0.953899	0.109241	0.015225
H165	H	0.453866	-0.446032	-0.424399
H166	H	0.953866	0.053968	0.075601
H167	H	0.563945	-0.425010	-0.521901
H168	H	1.063945	0.074990	-0.021901
H169	H	0.563925	-0.480293	-0.461547
H170	H	1.063925	0.019707	0.038453
H171	H	0.465691	-0.527432	-0.512540
H172	H	0.965691	-0.027432	-0.012540
H173	H	0.465726	-0.472154	-0.572911
H174	H	0.965726	0.027846	-0.072911
H175	H	0.529675	-0.523706	-0.568633
H176	H	1.029675	-0.023706	-0.068633
C177	C	0.965427	-0.416307	-0.934940
C178	C	1.465427	0.083693	-0.434940
C179	C	0.981400	-0.483278	-0.916210
C180	C	1.481400	0.016722	-0.416210
C181	C	0.934360	-0.526684	-0.954512
C182	C	1.434360	-0.026684	-0.454512
H183	H	0.972133	-0.410191	-0.986232
H184	H	1.472133	0.089809	-0.486232
H185	H	0.915970	-0.406443	-0.922324
H186	H	1.415970	0.093557	-0.422324
H187	H	1.030845	-0.493138	-0.928830
H188	H	1.530845	0.006862	-0.428830
H189	H	0.974690	-0.489416	-0.864925
H190	H	1.474690	0.010584	-0.364925
H191	H	0.884903	-0.516820	-0.941896
H192	H	1.384903	-0.016820	-0.441896
H193	H	0.941070	-0.520562	-1.005802
H194	H	1.441070	-0.020562	-0.505802
H195	H	0.945187	-0.572128	-0.941803
H196	H	1.445187	-0.072128	-0.441803
C197	C	0.643893	-0.235629	-0.256491
C198	C	1.143893	0.264371	0.243509
C199	C	0.593791	-0.197688	-0.215335
C200	C	1.093791	0.302312	0.284665
C201	C	0.632079	-0.154313	-0.168257
C202	C	1.132079	0.345687	0.331743
H203	H	0.673902	-0.206109	-0.284618
H204	H	1.173902	0.293891	0.215382
H205	H	0.673836	-0.261468	-0.224335
H206	H	1.173836	0.238532	0.275665
H207	H	0.563862	-0.171851	-0.247486
H208	H	1.063862	0.328149	0.252514
H209	H	0.563781	-0.227189	-0.187193
H210	H	1.063781	0.272811	0.312807
H211	H	0.662022	-0.180152	-0.136101
H212	H	1.162022	0.319848	0.363899
H213	H	0.662087	-0.124798	-0.196389
H214	H	1.162087	0.375202	0.303611
H215	H	0.598091	-0.128569	-0.140322
H216	H	1.098091	0.371431	0.359678
C217	C	1.161743	-0.574222	-0.256428
C218	C	1.661743	-0.074222	0.243572
C219	C	1.203014	-0.620301	-0.215273
C220	C	1.703014	-0.120301	0.284727
C221	C	1.250189	-0.585087	-0.168208
C222	C	1.750189	-0.085087	0.331792
H223	H	1.133681	-0.546687	-0.224266
H224	H	1.633681	-0.046687	0.275734
H225	H	1.193822	-0.546618	-0.284587
H226	H	1.693822	-0.046618	0.215413
H227	H	1.170939	-0.647893	-0.187116
H228	H	1.670939	-0.147893	0.312884
H229	H	1.231091	-0.647837	-0.247416
H230	H	1.731091	-0.147837	0.252584
H231	H	1.282268	-0.557483	-0.196367
H232	H	1.782268	-0.057483	0.303633
H233	H	1.222121	-0.557553	-0.136050
H234	H	1.722121	-0.057553	0.363950
H235	H	1.278202	-0.616346	-0.140283
H236	H	1.778202	-0.116346	0.359717
H237	H	1.148938	-0.711934	-0.269250
H238	H	1.648938	-0.211934	0.230750
C239	C	0.965477	-0.416272	-0.774633
C240	C	1.465477	0.083728	-0.274633
C241	C	1.007116	-0.459651	-0.730487
C242	C	1.507116	0.040349	-0.230487
C243	C	0.960149	-0.502989	-0.691920
C244	C	1.460149	-0.002989	-0.191920
H245	H	0.937420	-0.442111	-0.808426
H246	H	1.437420	0.057889	-0.308426
H247	H	0.933434	-0.390402	-0.744612
H248	H	1.433434	0.109598	-0.244612
H249	H	1.039147	-0.485519	-0.760505
H250	H	1.539147	0.014481	-0.260505
H251	H	1.035172	-0.433831	-0.696680
H252	H	1.535172	0.066169	-0.196680
H253	H	0.928106	-0.477118	-0.661899
H254	H	1.428106	0.022882	-0.161899
H255	H	0.932095	-0.528823	-0.725719
H256	H	1.432095	-0.028823	-0.225719
H257	H	0.988394	-0.532422	-0.661958
H258	H	1.488394	-0.032422	-0.161958
C259	C	0.965308	-0.573999	-0.452585
C260	C	1.465308	-0.073999	0.047415
C261	C	0.975375	-0.504529	-0.442524
C262	C	1.475375	-0.004529	0.057476
C263	C	0.928357	-0.469052	-0.489518
C264	C	1.428357	0.030948	0.010482
H265	H	0.915841	-0.585545	-0.441819
H266	H	1.415841	-0.085545	0.058181
H267	H	0.976064	-0.585506	-0.502059
H268	H	1.476064	-0.085506	-0.002059
H269	H	0.964615	-0.493027	-0.393061
H270	H	1.464615	0.006973	0.106939
H271	H	1.024832	-0.492963	-0.453295
H272	H	1.524832	0.007037	0.046705
H273	H	0.939112	-0.480558	-0.538992
H274	H	1.439112	0.019442	-0.038992
H275	H	0.878893	-0.480603	-0.478748
H276	H	1.378893	0.019397	0.021252
H277	H	0.935185	-0.421913	-0.482702
H278	H	1.435185	0.078087	0.017298
H279	H	1.149022	-0.939459	-0.269292
H280	H	1.649022	-0.439459	0.230708
H281	H	1.149073	-1.067705	-0.269317
H282	H	1.649073	-0.567705	0.230683
C283	C	1.161670	-0.235630	-0.774736
C284	C	1.661670	0.264370	-0.274736
C285	C	1.120015	-0.192268	-0.730606
C286	C	1.620015	0.307732	-0.230606
C287	C	1.166967	-0.148937	-0.692096
C288	C	1.666967	0.351063	-0.192096
H289	H	1.189732	-0.209778	-0.808562
H290	H	1.689732	0.290222	-0.308562
H291	H	1.193709	-0.261506	-0.744708
H292	H	1.693709	0.238494	-0.244708
H293	H	1.087989	-0.166394	-0.760632
H294	H	1.587989	0.333606	-0.260632
H295	H	1.091954	-0.218100	-0.696766
H296	H	1.591954	0.281900	-0.196766
H297	H	1.199006	-0.174813	-0.662068
H298	H	1.699006	0.325187	-0.162068
H299	H	1.195027	-0.123090	-0.725928
H300	H	1.695027	0.376910	-0.225928
H301	H	1.138711	-0.119515	-0.662145
H302	H	1.638711	0.380485	-0.162145
H303	H	0.978202	-1.067722	-0.439946
H304	H	1.478202	-0.567722	0.060054
H305	H	0.978153	-0.939485	-0.439923
H306	H	1.478153	-0.439485	0.060077
C307	C	0.965313	-0.721677	-0.452562
C308	C	1.465313	-0.221677	0.047438
C309	C	0.975402	-0.791146	-0.442496
C310	C	1.475402	-0.291146	0.057504
C311	C	0.928344	-0.826632	-0.489437
C312	C	1.428344	-0.326632	0.010563
H313	H	0.976003	-0.710136	-0.502047
H314	H	1.476003	-0.210136	-0.002047
H315	H	0.915853	-0.710174	-0.441735
H316	H	1.415853	-0.210174	0.058265
H317	H	1.024851	-0.802644	-0.453328
H318	H	1.524851	-0.302644	0.046672
H319	H	0.964706	-0.802707	-0.393021
H320	H	1.464706	-0.302707	0.106979
H321	H	0.878884	-0.815129	-0.478611
H322	H	1.378884	-0.315129	0.021389
H323	H	0.939038	-0.815085	-0.538920
H324	H	1.439038	-0.315085	-0.038920
H325	H	0.935178	-0.873770	-0.482610
H326	H	1.435178	-0.373770	0.017390
