data_functionalizedCrystal
_audit_creation_method	'MofGen! by Chris Wilmer'
_symmetry_space_group_name_H-M	'P1'
_symmetry_Int_Tables_number	1
_symmetry_cell_setting	triclinic
loop_
_symmetry_equiv_pos_as_xyz
  x,y,z
_cell_length_a	14.395555
_cell_length_b	14.560438
_cell_length_c	14.560438
_cell_angle_alpha	60.000905
_cell_angle_beta	90.002728
_cell_angle_gamma	59.999305
loop_
_atom_site_label
_atom_site_type_symbol
_atom_site_fract_x
_atom_site_fract_y
_atom_site_fract_z
Zr1	Zr	0.894913	1.005237	-0.120460
O2	O	0.746579	1.196847	-0.267113
O3	O	0.940385	0.813633	-0.075506
O4	O	0.940381	1.005237	-0.267106
O5	O	0.746588	1.005240	0.075629
O6	O	1.093255	1.005230	-0.267098
O7	O	0.746584	1.005243	-0.075512
O8	O	1.093263	0.662486	0.075640
O9	O	0.746580	1.347985	-0.267110
O10	O	1.073867	0.892435	-0.056324
O11	O	0.959782	0.892438	0.056465
O12	O	0.959776	1.118027	-0.169121
O13	O	0.845691	1.118031	-0.056332
Zr14	Zr	1.138736	1.005222	0.120605
Zr15	Zr	1.138730	1.005226	-0.120447
Zr16	Zr	0.894919	1.005233	0.120592
Zr17	Zr	0.894914	1.246284	-0.120456
Zr18	Zr	1.138735	0.764174	0.120600
O19	O	1.093264	1.196825	0.075650
O20	O	1.093255	1.196831	-0.267095
O21	O	0.746588	1.196841	0.075632
O22	O	1.287070	0.813612	0.267258
O23	O	1.287061	0.813618	-0.075487
O24	O	0.940394	0.813628	0.267239
O25	O	1.287061	1.005219	-0.075484
O26	O	1.093268	1.005221	0.267251
O27	O	0.940394	1.005228	0.267243
O28	O	1.287065	1.005216	0.075657
O29	O	0.940381	1.347976	-0.267100
O30	O	1.093268	0.662483	0.267245
O31	O	1.287069	0.662474	0.267255
O32	O	1.287064	0.662477	0.075651
O33	O	0.746585	1.347981	-0.075506
O34	O	0.940386	1.347973	-0.075496
O35	O	1.073873	0.892431	0.169265
O36	O	1.187958	0.892428	0.056477
O37	O	1.073867	1.118020	-0.056320
O38	O	0.959782	1.118024	0.056469
C39	C	1.016824	0.703716	0.000067
C40	C	1.016824	0.601385	0.000065
C41	C	1.076373	0.553307	-0.058810
C42	C	1.076377	0.457147	-0.058799
C43	C	0.957274	0.457156	0.058962
C44	C	0.957277	0.553307	0.058957
C45	C	0.711847	1.005243	0.000056
C46	C	0.608341	1.005248	0.000051
C47	C	0.485545	1.128250	-0.061441
C48	C	0.454708	1.066762	-0.106008
C49	C	0.454754	1.066731	0.044609
C50	C	0.578867	0.943759	-0.044578
C51	C	0.578910	0.943745	0.106098
C52	C	0.548147	0.882167	0.061558
C53	C	1.321802	1.005216	0.000088
C54	C	1.425308	1.005211	0.000094
C55	C	1.016817	1.005234	-0.301447
C56	C	1.016814	1.005236	-0.403780
C57	C	1.016825	1.306743	0.000078
C58	C	1.016825	1.409074	0.000080
C59	C	0.957261	1.122991	-0.510735
C60	C	0.957274	1.122985	-0.606884
C61	C	1.076395	0.887459	-0.489109
C62	C	1.076388	0.887466	-0.392963
C63	C	1.016832	1.005224	0.301592
C64	C	1.016835	1.005223	0.403925
C65	C	1.321801	0.703702	0.000083
C66	C	1.425307	0.601366	0.000086
C67	C	1.016832	0.703711	0.301586
C68	C	1.016834	0.601378	0.403917
C69	C	1.321809	0.703697	0.301602
C70	C	1.425318	0.601360	0.403939
C71	C	0.711840	1.306762	-0.301457
C72	C	0.608331	1.409099	-0.403794
C73	C	0.711848	1.306757	0.000062
C74	C	0.608341	1.409092	0.000058
C75	C	1.016817	1.306748	-0.301441
C76	C	1.016815	1.409081	-0.403772
C77	C	1.414384	0.553290	-0.058790
C78	C	1.511643	0.457143	-0.058791
C79	C	1.630746	0.457153	0.058971
C80	C	1.533488	0.553305	0.058964
C81	C	1.076389	0.553296	0.510873
C82	C	1.076378	0.457153	0.607020
C83	C	0.957257	0.457177	0.489241
C84	C	0.957261	0.553326	0.393097
C85	C	1.533498	0.553277	0.393145
C86	C	1.630752	0.457129	0.489305
C87	C	1.511631	0.457150	0.607049
C88	C	1.414380	0.553303	0.510890
H89	H	0.908793	0.418001	0.106909
H90	H	1.124897	0.791575	-0.480316
H91	H	0.908785	0.592451	0.106905
O92	O	1.134258	0.772956	-0.289141
C93	C	1.186856	0.669008	-0.300208
H94	H	1.140152	0.703518	-0.386008
H95	H	1.279292	0.632799	-0.292322
C96	C	1.239898	0.515368	-0.101669
C97	C	1.182529	0.557752	-0.207046
H98	H	1.237234	0.446736	-0.044200
H99	H	1.204465	0.585398	-0.094211
H100	H	1.316922	0.485203	-0.095113
H101	H	1.105503	0.587931	-0.213606
H102	H	1.217948	0.487723	-0.214503
H103	H	0.573806	0.778072	0.113566
H104	H	1.124892	0.592422	0.519690
H105	H	1.326302	0.592430	-0.106744
H106	H	0.401250	1.118740	0.082276
H107	H	0.632427	0.891803	0.195744
H108	H	0.908753	1.218887	-0.519549
H109	H	1.542392	0.592453	0.106908
O110	O	0.642339	0.881913	-0.089801
C111	C	0.577348	0.946493	-0.201275
H112	H	0.482973	1.003792	-0.212375
H113	H	0.598191	1.015801	-0.261901
C114	C	0.721595	0.775634	-0.212522
C115	C	0.605682	0.846001	-0.226152
H116	H	0.739076	0.713648	-0.227870
H117	H	0.765384	0.732127	-0.137421
H118	H	0.738950	0.833404	-0.263044
H119	H	0.588332	0.788233	-0.175620
H120	H	0.561891	0.889496	-0.301245
O121	O	1.134369	0.410244	-0.115813
C122	C	1.217941	0.275508	-0.040225
H123	H	1.240080	0.249192	0.048481
H124	H	1.183855	0.220519	-0.042287
C125	C	1.298182	0.270483	-0.183649
C126	C	1.325379	0.238163	-0.074700
H127	H	1.364453	0.247443	-0.204916
H128	H	1.241875	0.361256	-0.234576
H129	H	1.269774	0.224655	-0.185353
H130	H	1.353772	0.284002	-0.073000
H131	H	1.381693	0.147396	-0.023773
O132	O	0.899428	0.600218	0.289106
C133	C	0.912229	0.695363	0.206569
H134	H	0.934164	0.737403	0.244051
H135	H	0.983532	0.649362	0.176498
C136	C	0.773322	0.753014	0.060363
C137	C	0.800254	0.804655	0.106397
H138	H	0.704253	0.820428	-0.001430
H139	H	0.764700	0.688909	0.115969
H140	H	0.832749	0.714680	0.035313
H141	H	0.740834	0.842973	0.131458
H142	H	0.808863	0.868769	0.050793
H143	H	1.124871	0.418010	0.694106
O144	O	0.899508	0.410298	0.478936
C145	C	0.912256	0.315139	0.586729
H146	H	0.992686	0.273088	0.650472
H147	H	0.835305	0.361131	0.611219
C148	C	0.822700	0.257517	0.507001
C149	C	0.921490	0.205861	0.585289
H150	H	0.828390	0.190112	0.506112
H151	H	0.814106	0.321631	0.434377
H152	H	0.758584	0.295843	0.527418
H153	H	0.985601	0.167552	0.564863
H154	H	0.930094	0.141739	0.657909
O155	O	1.735917	0.410273	0.116152
C156	C	1.819420	0.315117	0.103514
H157	H	1.781525	0.273062	0.081831
H158	H	1.849841	0.361112	0.033025
C159	C	1.967271	0.257501	0.240852
C160	C	1.920730	0.205841	0.214229
H161	H	2.029767	0.190097	0.309144
H162	H	1.911015	0.321613	0.249364
H163	H	1.992613	0.295830	0.182103
H164	H	1.895376	0.167529	0.272971
H165	H	1.976985	0.141720	0.205730
H166	H	1.542409	0.592405	0.306064
H167	H	1.718835	0.417985	0.480509
H168	H	1.502740	0.418008	0.694138
O169	O	1.501233	0.410331	-0.115958
C170	C	1.610270	0.315135	-0.103308
H171	H	1.674730	0.330932	-0.081634
H172	H	1.635057	0.214564	-0.032807
C173	C	1.529647	0.306262	-0.240622
C174	C	1.608816	0.325671	-0.214012
H175	H	1.528750	0.312756	-0.308907
H176	H	1.456186	0.370394	-0.249142
H177	H	1.550312	0.222453	-0.181863
H178	H	1.588143	0.409484	-0.272763
H179	H	1.682274	0.261554	-0.205504
O180	O	0.390966	1.128869	-0.213048
C181	C	0.444021	1.173421	-0.288230
H182	H	0.502481	1.183975	-0.247726
H183	H	0.496091	1.100679	-0.308925
C184	C	0.280867	1.293129	-0.446861
C185	C	0.352661	1.306103	-0.397117
H186	H	0.224513	1.374970	-0.514030
H187	H	0.245123	1.263110	-0.396210
H188	H	0.324272	1.232506	-0.464097
H189	H	0.309259	1.366712	-0.379869
H190	H	0.388396	1.336135	-0.447768
H191	H	1.124861	0.592447	-0.106762
H192	H	0.460100	1.232261	-0.113522
H193	H	0.908782	1.218872	-0.693968
H194	H	1.326289	0.592455	0.519687
