data_functionalizedCrystal
_audit_creation_method	'MofGen! by Chris Wilmer'
_symmetry_space_group_name_H-M	'P1'
_symmetry_Int_Tables_number	1
_symmetry_cell_setting	triclinic
loop_
_symmetry_equiv_pos_as_xyz
  x,y,z
_cell_length_a	15.944499
_cell_length_b	15.944551
_cell_length_c	9.730223
_cell_angle_alpha	90.003831
_cell_angle_beta	90.008259
_cell_angle_gamma	83.488174
loop_
_atom_site_label
_atom_site_type_symbol
_atom_site_fract_x
_atom_site_fract_y
_atom_site_fract_z
O1	O	1.114553	0.108123	0.114375
O2	O	0.869997	0.121524	0.114360
O3	O	0.998953	-0.007453	0.114356
O4	O	0.985597	0.237100	0.114380
O5	O	0.998939	-0.007452	-0.114224
O6	O	0.869983	0.121525	-0.114220
O7	O	1.114538	0.108124	-0.114205
Zn8	Zn	0.992258	0.114825	-0.150504
Zn9	Zn	0.992277	0.114823	0.150660
O10	O	0.985582	0.237101	-0.114200
C11	C	0.838695	0.120976	0.000068
C12	C	0.745447	0.119331	0.000062
C13	C	0.453911	0.194263	0.000090
C14	C	0.514947	0.155311	0.112791
C15	C	0.409810	0.113355	0.000093
C16	C	0.514919	0.155290	-0.112571
C17	C	0.574719	0.116296	0.000076
C18	C	0.469619	0.074380	0.112887
C19	C	0.469584	0.074371	-0.112576
C20	C	0.530603	0.035360	0.000152
C21	C	0.314810	0.111663	0.000105
C22	C	0.669718	0.117981	0.000074
C23	C	0.998392	-0.038746	0.000066
C24	C	0.996729	-0.131992	0.000065
C25	C	0.912823	-0.346833	0.000078
C26	C	0.951779	-0.407857	-0.112623
C27	C	0.993722	-0.302717	0.000075
C28	C	0.951812	-0.407841	0.112739
C29	C	0.990811	-0.467629	0.000091
C30	C	1.032700	-0.362513	-0.112719
C31	C	1.032722	-0.362491	0.112744
C32	C	1.071737	-0.423497	0.000015
C33	C	0.995397	-0.207715	0.000065
C34	C	0.989143	-0.562630	0.000092
C35	C	1.145840	0.108672	0.000090
C36	C	1.239089	0.110317	0.000105
C37	C	0.986144	0.268394	0.000093
C38	C	0.987806	0.361640	0.000103
N39	N	0.992251	0.114825	-0.356041
C40	C	1.043225	0.165785	-0.571834
C41	C	1.043203	0.165792	-0.427951
C42	C	0.941312	0.063855	-0.428021
C43	C	0.941329	0.063853	-0.571901
C44	C	1.094187	0.216748	-0.643737
C45	C	1.145125	0.267720	-0.571767
C46	C	1.145104	0.267727	-0.427884
C47	C	1.094143	0.216762	-0.355971
N48	N	0.992291	0.114816	0.356196
H49	H	0.449461	0.040178	-0.207865
H50	H	1.186610	0.309219	-0.630328
N51	N	0.908861	-0.433097	-0.232154
N52	N	0.946840	-0.482917	-0.316515
H53	H	0.916526	-0.500742	-0.400930
H54	H	0.899822	0.022361	-0.369458
H55	H	1.066883	-0.342528	-0.208104
N56	N	0.889291	0.011792	-0.645405
N57	N	0.843797	-0.033709	-0.581193
H58	H	0.807040	-0.070475	-0.633105
H59	H	0.420581	0.261409	0.000206
N60	N	0.540083	0.198225	-0.232114
N61	N	0.524644	0.171413	-0.349083
H62	H	0.542412	0.201739	-0.433508
H63	H	0.917591	-0.427912	0.208026
N64	N	1.156052	-0.465103	-0.000065
N65	N	1.204890	-0.453398	-0.096915
H66	H	1.264437	-0.482782	-0.096978
N67	N	0.540186	0.198246	0.232303
N68	N	0.616431	0.205855	0.251916
H69	H	0.634255	0.236184	0.336315
N70	N	0.828582	-0.305040	-0.000071
N71	N	0.779616	-0.316888	-0.096698
H72	H	0.720122	-0.287371	-0.096809
N73	N	1.075615	-0.337252	0.232291
N74	N	1.048049	-0.351523	0.349227
H75	H	1.078336	-0.333697	0.433670
H76	H	0.449646	0.040191	0.208273
N77	N	1.094225	0.216746	-0.790708
N78	N	1.139730	0.262248	-0.854895
H79	H	1.139760	0.262245	-0.958694
H80	H	1.186574	0.309237	-0.369290
N81	N	1.094134	0.216772	-0.208998
N82	N	1.161037	0.195384	-0.144742
H83	H	1.161035	0.195389	-0.040943
H84	H	0.563780	-0.031846	0.000205
