data_functionalizedCrystal
_audit_creation_method	'MofGen! by Chris Wilmer'
_symmetry_space_group_name_H-M	'P1'
_symmetry_Int_Tables_number	1
_symmetry_cell_setting	triclinic
loop_
_symmetry_equiv_pos_as_xyz
  x,y,z
_cell_length_a	18.215405
_cell_length_b	18.215407
_cell_length_c	12.827879
_cell_angle_alpha	90.044483
_cell_angle_beta	89.934925
_cell_angle_gamma	89.978057
loop_
_atom_site_label
_atom_site_type_symbol
_atom_site_fract_x
_atom_site_fract_y
_atom_site_fract_z
Zn1	Zn	-0.292713	-1.125260	-0.590911
Zn2	Zn	0.040620	-0.791927	-0.257577
Zn3	Zn	0.373954	-0.458594	0.075756
Zn4	Zn	-0.415867	-1.125123	-0.416163
Zn5	Zn	-0.082534	-0.791790	-0.082830
Zn6	Zn	0.250800	-0.458457	0.250504
Zn7	Zn	-0.292819	-1.002141	-0.416175
Zn8	Zn	0.040515	-0.668808	-0.082842
Zn9	Zn	0.373848	-0.335475	0.250491
Zn10	Zn	-0.415742	-1.002165	-0.590854
Zn11	Zn	-0.082409	-0.668831	-0.257521
Zn12	Zn	0.250925	-0.335498	0.075812
O13	O	-0.354285	-1.063672	-0.503526
O14	O	-0.020952	-0.730339	-0.170193
O15	O	0.312381	-0.397006	0.163141
O16	O	-0.309058	-1.228226	-0.567749
O17	O	0.024276	-0.894893	-0.234415
O18	O	0.357609	-0.561560	0.098918
O19	O	-0.399641	-1.108743	-0.269928
O20	O	-0.066308	-0.775409	0.063405
O21	O	0.267026	-0.442076	0.396738
O22	O	-0.189820	-1.018521	-0.439383
O23	O	0.143513	-0.685188	-0.106050
O24	O	0.476846	-0.351854	0.227283
O25	O	-0.399538	-1.228126	-0.439362
O26	O	-0.066205	-0.894792	-0.106029
O27	O	0.267128	-0.561459	0.227305
O28	O	-0.189743	-1.108976	-0.567761
O29	O	0.143591	-0.775642	-0.234427
O30	O	0.476924	-0.442309	0.098906
O31	O	-0.309238	-1.018388	-0.269937
O32	O	0.024095	-0.685055	0.063396
O33	O	0.357429	-0.351722	0.396729
O34	O	-0.309117	-0.899160	-0.439329
O35	O	0.024217	-0.565827	-0.105995
O36	O	0.357550	-0.232494	0.227338
O37	O	-0.399325	-1.018561	-0.737098
O38	O	-0.065992	-0.685227	-0.403765
O39	O	0.267341	-0.351894	-0.070431
O40	O	-0.399428	-0.899177	-0.567664
O41	O	-0.066095	-0.565844	-0.234331
O42	O	0.267239	-0.232511	0.099002
O43	O	-0.308936	-1.108998	-0.737140
O44	O	0.024397	-0.775665	-0.403806
O45	O	0.357730	-0.442332	-0.070473
O46	O	-0.518835	-1.108765	-0.439307
O47	O	-0.185501	-0.775432	-0.105974
O48	O	0.147832	-0.442099	0.227360
O49	O	-0.518743	-1.018428	-0.567652
O50	O	-0.185410	-0.685095	-0.234319
O51	O	0.147924	-0.351761	0.099015
C52	C	-0.354271	-0.872466	-0.503492
C53	C	-0.020938	-0.539133	-0.170159
C54	C	0.312396	-0.205800	0.163174
C55	C	-0.354282	-0.790667	-0.503503
C56	C	-0.020949	-0.457334	-0.170169
C57	C	0.312384	-0.124001	0.163164
C58	C	-0.401380	-0.602502	-0.570240
C59	C	-0.068047	-0.269168	-0.236906
C60	C	0.265287	0.064165	0.096427
C61	C	-0.401381	-0.525643	-0.570251
C62	C	-0.068048	-0.192309	-0.236918
C63	C	0.265285	0.141024	0.096415
C64	C	-0.307195	-0.525595	-0.436816
C65	C	0.026139	-0.192262	-0.103483
C66	C	0.359472	0.141071	0.229851
C67	C	-0.307190	-0.602453	-0.436810
C68	C	0.026143	-0.269119	-0.103477
C69	C	0.359477	0.064214	0.229856
C70	C	-0.354287	-0.640904	-0.503521
C71	C	-0.020953	-0.307570	-0.170187
C72	C	0.312380	0.025763	0.163146
C73	C	-0.354293	-0.487188	-0.503538
C74	C	-0.020960	-0.153854	-0.170205
C75	C	0.312374	0.179479	0.163129
C76	C	-0.354294	-0.403854	-0.503550
C77	C	-0.020961	-0.070521	-0.170217
C78	C	0.312372	0.262813	0.163117
C79	C	-0.354285	-0.724243	-0.503510
C80	C	-0.020951	-0.390909	-0.170177
C81	C	0.312382	-0.057576	0.163156
C82	C	-0.545492	-1.063604	-0.503495
C83	C	-0.212158	-0.730271	-0.170162
C84	C	0.121175	-0.396938	0.163172
C85	C	-0.627290	-1.063642	-0.503517
C86	C	-0.293957	-0.730309	-0.170183
C87	C	0.039376	-0.396976	0.163150
C88	C	-0.892250	-1.110786	-0.570465
C89	C	-0.558916	-0.777453	-0.237131
C90	C	-0.225583	-0.444120	0.096202
C91	C	-0.815391	-1.110762	-0.570449
C92	C	-0.482058	-0.777428	-0.237116
C93	C	-0.148724	-0.444095	0.096218
C94	C	-0.815579	-1.016653	-0.436647
C95	C	-0.482246	-0.683319	-0.103314
C96	C	-0.148913	-0.349986	0.230019
C97	C	-0.892437	-1.016682	-0.436659
C98	C	-0.559103	-0.683348	-0.103325
C99	C	-0.225770	-0.350015	0.230008
C100	C	-0.930770	-1.063747	-0.503573
C101	C	-0.597437	-0.730414	-0.170240
C102	C	-0.264103	-0.397081	0.163093
C103	C	-0.777054	-1.063694	-0.503546
C104	C	-0.443721	-0.730360	-0.170213
C105	C	-0.110387	-0.397027	0.163121
C106	C	-0.693720	-1.063667	-0.503528
C107	C	-0.360387	-0.730333	-0.170195
C108	C	-0.027054	-0.397000	0.163138
C109	C	-1.014109	-1.063776	-0.503590
C110	C	-0.680776	-0.730442	-0.170257
C111	C	-0.347442	-0.397109	0.163077
C112	C	-0.162332	-1.063761	-0.503580
C113	C	0.171001	-0.730428	-0.170246
C114	C	0.504334	-0.397094	0.163087
C115	C	-0.080533	-1.063799	-0.503603
C116	C	0.252800	-0.730465	-0.170269
C117	C	0.586133	-0.397132	0.163064
C118	C	-0.354105	-1.063797	-0.776096
C119	C	-0.020772	-0.730464	-0.442763
C120	C	0.312562	-0.397131	-0.109430
C121	C	-0.354028	-1.063851	-0.892250
C122	C	-0.020695	-0.730517	-0.558917
C123	C	0.312638	-0.397184	-0.225583
C124	C	-0.354298	-0.255625	-0.503555
C125	C	-0.020965	0.077708	-0.170222
C126	C	0.312369	0.411041	0.163111
C127	C	-0.354297	-0.337424	-0.503556
C128	C	-0.020964	-0.004091	-0.170223
C129	C	0.312369	0.329242	0.163111
C130	C	-0.354412	-1.063590	-0.232016
C131	C	-0.021078	-0.730257	0.101318
C132	C	0.312255	-0.396924	0.434651
C133	C	-0.354281	-1.063680	-0.115863
C134	C	-0.020948	-0.730346	0.217470
C135	C	0.312386	-0.397013	0.550804
C136	C	-0.309819	-1.018690	-0.064131
C137	C	0.023514	-0.685357	0.269202
C138	C	0.356848	-0.352024	0.602536
C139	C	-0.309683	-1.018782	0.055919
C140	C	0.023650	-0.685448	0.389252
C141	C	0.356984	-0.352115	0.722585
H142	H	-0.439728	-0.494379	-0.624582
H143	H	-0.106395	-0.161046	-0.291249
H144	H	0.226938	0.172288	0.042085
H145	H	-0.923801	-0.978376	-0.382182
H146	H	-0.590467	-0.645043	-0.048849
H147	H	-0.257134	-0.311710	0.284485
H148	H	-0.392097	-1.102369	0.063269
H149	H	-0.058764	-0.769035	0.396602
H150	H	0.274570	-0.435702	0.729935
N151	N	-0.259532	-0.967570	-0.123174
N152	N	0.073802	-0.634236	0.210159
N153	N	0.407135	-0.300903	0.543493
H154	H	-0.271313	-0.915073	-0.104038
H155	H	0.062021	-0.581739	0.229295
H156	H	0.395354	-0.248406	0.562628
H157	H	-0.206855	-0.978702	-0.104442
H158	H	0.126479	-0.645369	0.228891
H159	H	0.459812	-0.312036	0.562224
N160	N	-0.256411	-0.484120	-0.364854
N161	N	0.076922	-0.150787	-0.031520
N162	N	0.410255	0.182546	0.301813
H163	H	-0.226577	-0.520113	-0.322587
H164	H	0.106757	-0.186779	0.010746
H165	H	0.440090	0.146554	0.344080
H166	H	-0.222373	-0.452265	-0.407472
H167	H	0.110961	-0.118932	-0.074139
H168	H	0.444294	0.214402	0.259195
H169	H	-0.271620	-0.980263	0.100407
H170	H	0.061714	-0.646929	0.433740
H171	H	0.395047	-0.313596	0.767074
N172	N	-0.256385	-0.643879	-0.364860
N173	N	0.076948	-0.310546	-0.031526
N174	N	0.410282	0.022788	0.301807
H175	H	-0.226552	-0.607859	-0.322597
H176	H	0.106782	-0.274526	0.010736
H177	H	0.440115	0.058807	0.344069
H178	H	-0.286313	-0.675735	-0.316422
H179	H	0.047020	-0.342402	0.016911
H180	H	0.380353	-0.009069	0.350244
H181	H	-0.439727	-0.633806	-0.624562
H182	H	-0.106394	-0.300473	-0.291229
H183	H	0.226939	0.032861	0.042105
N184	N	-0.933597	-1.161541	-0.642642
N185	N	-0.600263	-0.828207	-0.309309
N186	N	-0.266930	-0.494874	0.024024
H187	H	-0.897528	-1.191334	-0.685017
H188	H	-0.564195	-0.858001	-0.351684
H189	H	-0.230862	-0.524667	-0.018350
H190	H	-0.965502	-1.195619	-0.600169
H191	H	-0.632168	-0.862286	-0.266836
H192	H	-0.298835	-0.528953	0.066497
H193	H	-0.784030	-1.149066	-0.624917
H194	H	-0.450697	-0.815732	-0.291583
H195	H	-0.117363	-0.482399	0.041750
H196	H	-0.784361	-0.978332	-0.382168
H197	H	-0.451028	-0.644999	-0.048835
H198	H	-0.117694	-0.311665	0.284499
H199	H	-0.392243	-1.102267	-0.071276
H200	H	-0.058909	-0.768934	0.262057
H201	H	0.274424	-0.435601	0.595391
