data_functionalizedCrystal
_audit_creation_method	'MofGen! by Chris Wilmer'
_symmetry_space_group_name_H-M	'P1'
_symmetry_Int_Tables_number	1
_symmetry_cell_setting	triclinic
loop_
_symmetry_equiv_pos_as_xyz
  x,y,z
_cell_length_a	23.532407
_cell_length_b	23.532357
_cell_length_c	22.610064
_cell_angle_alpha	89.998517
_cell_angle_beta	89.994501
_cell_angle_gamma	82.838519
loop_
_atom_site_label
_atom_site_type_symbol
_atom_site_fract_x
_atom_site_fract_y
_atom_site_fract_z
O1	O	0.755251	0.069129	-0.049154
O2	O	1.088584	0.402463	0.284179
O3	O	1.421918	0.735796	0.617512
O4	O	0.589386	0.079133	-0.049165
O5	O	0.922719	0.412466	0.284169
O6	O	1.256053	0.745799	0.617502
O7	O	0.677335	-0.008803	-0.049147
O8	O	1.010668	0.324530	0.284186
O9	O	1.344002	0.657864	0.617520
O10	O	0.667302	0.157065	-0.049172
O11	O	1.000635	0.490398	0.284161
O12	O	1.333969	0.823731	0.617495
O13	O	0.677319	-0.008790	0.049222
O14	O	1.010653	0.324543	0.382556
O15	O	1.343986	0.657877	0.715889
O16	O	0.589370	0.079145	0.049205
O17	O	0.922704	0.412479	0.382538
O18	O	1.256037	0.745812	0.715871
O19	O	0.755236	0.069142	0.049215
O20	O	1.088569	0.402475	0.382548
O21	O	1.421902	0.735809	0.715882
Zn22	Zn	0.672300	0.074146	0.064828
Zn23	Zn	1.005634	0.407479	0.398161
Zn24	Zn	1.338967	0.740812	0.731495
Zn25	Zn	0.672321	0.074129	-0.064778
Zn26	Zn	1.005654	0.407462	0.268556
Zn27	Zn	1.338988	0.740795	0.601889
O28	O	0.667286	0.157077	0.049197
O29	O	1.000620	0.490411	0.382531
O30	O	1.333953	0.823744	0.715864
C31	C	0.568162	0.078884	0.000019
C32	C	0.901495	0.412218	0.333352
C33	C	1.234829	0.745551	0.666685
C34	C	0.504945	0.078118	0.000015
C35	C	0.838279	0.411452	0.333349
C36	C	1.171612	0.744785	0.666682
C37	C	0.238788	0.022922	0.000040
C38	C	0.572121	0.356255	0.333373
C39	C	0.905454	0.689588	0.666706
C40	C	0.298188	0.023633	0.000040
C41	C	0.631521	0.356966	0.333373
C42	C	0.964854	0.690300	0.666706
O43	O	0.334940	-0.020154	0.000067
O44	O	0.668274	0.313179	0.333400
O45	O	1.001607	0.646513	0.666733
N46	N	0.320805	0.075911	0.000028
N47	N	0.654138	0.409244	0.333361
N48	N	0.987471	0.742577	0.666694
C49	C	0.284018	0.127480	0.000022
C50	C	0.617351	0.460813	0.333355
C51	C	0.950684	0.794147	0.666689
O52	O	0.308710	0.172012	0.000012
O53	O	0.642043	0.505345	0.333346
O54	O	0.975376	0.838678	0.666679
C55	C	0.224619	0.126768	0.000027
C56	C	0.557952	0.460101	0.333360
C57	C	0.891286	0.793435	0.666693
C58	C	0.202006	0.074487	0.000032
C59	C	0.535339	0.407820	0.333366
C60	C	0.868672	0.741154	0.666699
C61	C	0.216174	-0.029355	0.000046
C62	C	0.549507	0.303978	0.333380
C63	C	0.882840	0.637311	0.666713
C64	C	0.156778	-0.030066	0.000045
C65	C	0.490111	0.303267	0.333379
C66	C	0.823444	0.636600	0.666712
C67	C	0.119996	0.021499	0.000038
C68	C	0.453329	0.354832	0.333371
C69	C	0.786662	0.688166	0.666705
C70	C	0.142610	0.073776	0.000032
C71	C	0.475943	0.407109	0.333365
C72	C	0.809276	0.740443	0.666698
C73	C	0.187833	0.178337	0.000025
C74	C	0.521167	0.511670	0.333358
C75	C	0.854500	0.845004	0.666692
C76	C	0.128431	0.177620	0.000030
C77	C	0.461764	0.510954	0.333363
C78	C	0.795098	0.844287	0.666697
C79	C	0.105818	0.125339	0.000036
C80	C	0.439151	0.458673	0.333369
C81	C	0.772484	0.792006	0.666703
C82	C	0.046431	0.124630	0.000023
C83	C	0.379765	0.457964	0.333357
C84	C	0.713098	0.791297	0.666690
N85	N	0.023815	0.072353	0.000035
N86	N	0.357148	0.405686	0.333369
N87	N	0.690481	0.739019	0.666702
C88	C	0.060597	0.020787	0.000043
C89	C	0.393930	0.354120	0.333376
C90	C	0.727263	0.687454	0.666709
C91	C	0.408760	0.128971	0.000014
C92	C	0.742093	0.462305	0.333347
C93	C	1.075427	0.795638	0.666680
C94	C	0.468158	0.129684	0.000005
C95	C	0.801491	0.463017	0.333338
C96	C	1.134825	0.796351	0.666672
C97	C	0.482324	0.025837	0.000023
C98	C	0.815657	0.359170	0.333357
C99	C	1.148990	0.692503	0.666690
C100	C	0.422925	0.025125	0.000028
C101	C	0.756258	0.358458	0.333361
C102	C	1.089592	0.691791	0.666695
C103	C	0.386143	0.076694	0.000026
C104	C	0.719477	0.410027	0.333359
C105	C	1.052810	0.743361	0.666692
C106	C	-0.064140	0.019297	0.000040
C107	C	0.269194	0.352631	0.333374
C108	C	0.602527	0.685964	0.666707
C109	C	-0.123542	0.018591	0.000037
C110	C	0.209792	0.351924	0.333370
C111	C	0.543125	0.685257	0.666704
C112	C	-0.137702	0.122438	0.000022
C113	C	0.195631	0.455771	0.333355
C114	C	0.528964	0.789104	0.666688
C115	C	-0.078306	0.123145	0.000022
C116	C	0.255028	0.456478	0.333355
C117	C	0.588361	0.789811	0.666688
C118	C	-0.041525	0.071570	0.000033
C119	C	0.291808	0.404903	0.333366
C120	C	0.625141	0.738237	0.666700
O121	O	0.009644	0.168394	-0.000001
O122	O	0.342978	0.501727	0.333332
O123	O	0.676311	0.835061	0.666665
O124	O	0.035897	-0.023737	0.000060
O125	O	0.369230	0.309596	0.333393
O126	O	0.702563	0.642930	0.666727
C127	C	0.677076	-0.030013	0.000039
C128	C	1.010410	0.303320	0.333373
C129	C	1.343743	0.636654	0.666706
C130	C	0.676322	-0.093232	0.000045
C131	C	1.009655	0.240102	0.333378
C132	C	1.342988	0.573435	0.666712
C133	C	0.671593	-0.485250	-0.053608
C134	C	1.004927	-0.151917	0.279725
C135	C	1.338260	0.181417	0.613058
C136	C	0.670876	-0.544649	-0.053612
C137	C	1.004210	-0.211316	0.279722
C138	C	1.337543	0.122017	0.613055
O139	O	0.670493	-0.575372	-0.099214
O140	O	1.003826	-0.242038	0.234119
O141	O	1.337160	0.091295	0.567452
N142	N	0.670512	-0.574354	0.000009
N143	N	1.003845	-0.241020	0.333342
N144	N	1.337179	0.092313	0.666675
C145	C	0.670859	-0.544654	0.053636
C146	C	1.004193	-0.211321	0.386969
C147	C	1.337526	0.122012	0.720302
O148	O	0.670483	-0.575374	0.099244
O149	O	1.003817	-0.242041	0.432577
O150	O	1.337150	0.091292	0.765910
C151	C	0.671573	-0.485255	0.053639
C152	C	1.004906	-0.151922	0.386972
C153	C	1.338239	0.181411	0.720305
C154	C	0.671942	-0.455555	0.000015
C155	C	1.005276	-0.122222	0.333348
C156	C	1.338609	0.211112	0.666681
C157	C	0.671963	-0.455549	-0.107228
C158	C	1.005296	-0.122216	0.226106
C159	C	1.338629	0.211117	0.559439
C160	C	0.672681	-0.396154	-0.107224
C161	C	1.006014	-0.062821	0.226109
C162	C	1.339348	0.270512	0.559443
C163	C	0.673030	-0.366459	-0.053601
C164	C	1.006363	-0.033126	0.279732
C165	C	1.339697	0.300207	0.613066
C166	C	0.672661	-0.396160	0.000018
C167	C	1.005994	-0.062827	0.333352
C168	C	1.339327	0.270507	0.666685
C169	C	0.671916	-0.455557	0.107265
C170	C	1.005249	-0.122224	0.440598
C171	C	1.338582	0.211110	0.773932
C172	C	0.672629	-0.396154	0.107263
C173	C	1.005962	-0.062821	0.440597
C174	C	1.339295	0.270513	0.773930
C175	C	0.672998	-0.366454	0.053640
C176	C	1.006332	-0.033120	0.386973
C177	C	1.339665	0.300213	0.720306
C178	C	0.673728	-0.307070	0.053645
C179	C	1.007061	0.026263	0.386978
C180	C	1.340395	0.359597	0.720312
N181	N	0.674092	-0.277366	0.000025
N182	N	1.007425	0.055968	0.333358
N183	N	1.340759	0.389301	0.666691
C184	C	0.673743	-0.307061	-0.053598
C185	C	1.007076	0.026273	0.279735
C186	C	1.340410	0.359606	0.613068
C187	C	0.669361	-0.669396	0.053626
C188	C	1.002694	-0.336063	0.386959
C189	C	1.336027	-0.002729	0.720292
C190	C	0.668652	-0.728794	0.053624
C191	C	1.001985	-0.395461	0.386957
C192	C	1.335318	-0.062128	0.720290
C193	C	0.668668	-0.728785	-0.053624
C194	C	1.002001	-0.395452	0.279709
C195	C	1.335334	-0.062118	0.613043
C196	C	0.669381	-0.669386	-0.053621
C197	C	1.002714	-0.336053	0.279712
C198	C	1.336047	-0.002719	0.613045
C199	C	0.669725	-0.639692	0.000005
C200	C	1.003058	-0.306358	0.333339
C201	C	1.336392	0.026975	0.666672
C202	C	0.675252	-0.182326	-0.053587
C203	C	1.008585	0.151007	0.279747
C204	C	1.341919	0.484340	0.613080
C205	C	0.675973	-0.122926	-0.053578
C206	C	1.009306	0.210407	0.279755
C207	C	1.342639	0.543740	0.613089
C208	C	0.675954	-0.122940	0.053669
C209	C	1.009287	0.210393	0.387003
C210	C	1.342621	0.543726	0.720336
C211	C	0.675236	-0.182336	0.053661
C212	C	1.008570	0.150998	0.386995
C213	C	1.341903	0.484331	0.720328
C214	C	0.674883	-0.212027	0.000028
C215	C	1.008217	0.121306	0.333362
C216	C	1.341550	0.454640	0.666695
O217	O	0.674109	-0.276310	0.099224
O218	O	1.007442	0.057024	0.432558
O219	O	1.340776	0.390357	0.765891
O220	O	0.674112	-0.276332	-0.099199
O221	O	1.007445	0.057001	0.234135
O222	O	1.340778	0.390334	0.567468
C223	C	0.776459	0.069390	0.000030
C224	C	1.109793	0.402724	0.333363
C225	C	1.443126	0.736057	0.666697
C226	C	0.839676	0.070156	0.000030
C227	C	1.173009	0.403490	0.333363
C228	C	1.506343	0.736823	0.666696
C229	C	0.667545	0.178288	0.000010
C230	C	1.000878	0.511621	0.333343
C231	C	1.334212	0.844954	0.666676
C232	C	0.668300	0.241506	0.000000
C233	C	1.001633	0.574839	0.333333
C234	C	1.334966	0.908173	0.666667
N235	N	0.672291	0.074157	0.153280
N236	N	1.005624	0.407490	0.486614
N237	N	1.338957	0.740824	0.819947
N238	N	0.672335	0.074113	-0.153230
N239	N	1.005669	0.407446	0.180103
N240	N	1.339002	0.740780	0.513437
C241	C	0.711266	0.035197	0.561930
C242	C	1.044600	0.368530	0.895263
C243	C	1.377933	0.701864	1.228596
C244	C	0.711269	0.035193	0.623850
C245	C	1.044603	0.368526	0.957183
C246	C	1.377936	0.701859	1.290516
O247	O	0.744384	0.002076	0.655875
O248	O	1.077717	0.335410	0.989208
O249	O	1.411050	0.668743	1.322542
N250	N	0.672321	0.074117	0.654818
N251	N	1.005654	0.407450	0.988151
N252	N	1.338987	0.740784	1.321484
C253	C	0.633362	0.113044	0.623862
C254	C	0.966696	0.446377	0.957196
C255	C	1.300029	0.779711	1.290529
O256	O	0.600233	0.146151	0.655889
O257	O	0.933567	0.479485	0.989222
O258	O	1.266900	0.812818	1.322556
C259	C	0.633357	0.113045	0.561944
C260	C	0.966690	0.446378	0.895277
C261	C	1.300024	0.779712	1.228610
C262	C	0.672312	0.074122	0.530979
C263	C	1.005646	0.407455	0.864312
C264	C	1.338979	0.740789	1.197646
C265	C	0.750218	-0.003723	0.530965
C266	C	1.083551	0.329610	0.864298
C267	C	1.416885	0.662943	1.197631
C268	C	0.750216	-0.003718	0.469049
C269	C	1.083549	0.329615	0.802382
C270	C	1.416882	0.662948	1.135716
C271	C	0.711262	0.035207	0.438098
C272	C	1.044595	0.368540	0.771432
C273	C	1.377928	0.701874	1.104765
C274	C	0.672310	0.074127	0.469063
C275	C	1.005643	0.407460	0.802397
C276	C	1.338977	0.740794	1.135730
C277	C	0.594397	0.151969	0.530990
C278	C	0.927730	0.485302	0.864323
C279	C	1.261063	0.818636	1.197656
C280	C	0.594395	0.151966	0.469067
C281	C	0.927728	0.485300	0.802400
C282	C	1.261061	0.818633	1.135733
C283	C	0.633350	0.113043	0.438102
C284	C	0.966683	0.446377	0.771435
C285	C	1.300017	0.779710	1.104769
C286	C	0.633354	0.113057	0.376197
C287	C	0.966687	0.446391	0.709530
C288	C	1.300020	0.779724	1.042863
N289	N	0.672303	0.074133	0.345229
N290	N	1.005636	0.407466	0.678562
N291	N	1.338969	0.740800	1.011895
C292	C	0.711257	0.035208	0.376180
C293	C	1.044590	0.368541	0.709513
C294	C	1.377923	0.701875	1.042846
C295	C	0.633376	0.113038	0.753896
C296	C	0.966709	0.446372	1.087229
C297	C	1.300042	0.779705	1.420563
C298	C	0.633383	0.113041	0.815814
C299	C	0.966716	0.446374	1.149147
C300	C	1.300050	0.779707	1.482480
C301	C	0.711289	0.035188	0.815797
C302	C	1.044623	0.368522	1.149130
C303	C	1.377956	0.701855	1.482463
C304	C	0.711284	0.035189	0.753878
C305	C	1.044618	0.368523	1.087211
C306	C	1.377951	0.701856	1.420544
C307	C	0.672324	0.074114	0.722928
C308	C	1.005658	0.407448	1.056261
C309	C	1.338991	0.740781	1.389595
C310	C	0.711249	0.035222	0.246152
C311	C	1.044582	0.368555	0.579486
C312	C	1.377916	0.701888	0.912819
C313	C	0.711245	0.035232	0.184231
C314	C	1.044578	0.368565	0.517564
C315	C	1.377911	0.701898	0.850898
C316	C	0.633336	0.113082	0.184254
C317	C	0.966670	0.446415	0.517587
C318	C	1.300003	0.779748	0.850920
C319	C	0.633342	0.113074	0.246169
C320	C	0.966676	0.446407	0.579503
C321	C	1.300009	0.779740	0.912836
C322	C	0.672301	0.074139	0.277117
C323	C	1.005634	0.407472	0.610451
C324	C	1.338968	0.740806	0.943784
O325	O	0.600255	0.146155	0.344132
O326	O	0.933588	0.479489	0.677465
O327	O	1.266921	0.812822	1.010799
O328	O	0.744375	0.002101	0.344146
O329	O	1.077708	0.335435	0.677479
O330	O	1.411042	0.668768	1.010812
H331	H	0.486564	0.172256	-0.000008
H332	H	0.819897	0.505590	0.333325
H333	H	1.153231	0.838923	0.666659
F334	F	0.671591	-0.487144	-0.164306
F335	F	1.004924	-0.153810	0.169027
F336	F	1.338258	0.179523	0.502361
H337	H	0.676241	-0.098753	0.097328
H338	H	1.009574	0.234581	0.430661
H339	H	1.342907	0.567914	0.763994
H340	H	0.781939	-0.035423	0.556159
H341	H	1.115273	0.297910	0.889493
H342	H	1.448606	0.631243	1.222826
H343	H	-0.167661	0.164421	0.000013
H344	H	0.165672	0.497754	0.333346
H345	H	0.499006	0.831088	0.666679
H346	H	0.676275	-0.098747	-0.097247
H347	H	1.009609	0.234586	0.236086
H348	H	1.342942	0.567920	0.569420
H349	H	0.246117	-0.071348	0.000054
H350	H	0.579450	0.261985	0.333388
H351	H	0.912783	0.595318	0.666721
H352	H	0.743007	0.003493	0.841008
H353	H	1.076341	0.336826	1.174341
H354	H	1.409674	0.670159	1.507675
H355	H	0.672980	-0.371977	-0.150890
H356	H	1.006313	-0.038644	0.182443
H357	H	1.339647	0.294690	0.515776
F358	F	0.591929	0.154474	0.848763
F359	F	0.925262	0.487808	1.182096
F360	F	1.258595	0.821141	1.515429
F361	F	0.089288	0.232509	0.000030
F362	F	0.422621	0.565842	0.333363
F363	F	0.755955	0.899176	0.666697
H364	H	0.562676	0.183663	0.556193
H365	H	0.896009	0.516996	0.889526
H366	H	1.229342	0.850330	1.222859
H367	H	0.404518	-0.017447	0.000033
H368	H	0.737851	0.315886	0.333367
H369	H	1.071184	0.649220	0.666700
H370	H	0.668381	-0.752973	-0.097287
H371	H	1.001715	-0.419640	0.236046
H372	H	1.335048	-0.086306	0.569380
H373	H	0.378815	0.170968	0.000007
H374	H	0.712148	0.504301	0.333341
H375	H	1.045482	0.837635	0.666674
F376	F	0.674876	-0.213918	-0.110668
F377	F	1.008210	0.119416	0.222665
F378	F	1.341543	0.452749	0.555998
F379	F	0.791674	-0.045147	0.436100
F380	F	1.125008	0.288186	0.769433
F381	F	1.458341	0.621519	1.102766
H382	H	0.668359	-0.752973	0.097289
H383	H	1.001693	-0.419639	0.430623
H384	H	1.335026	-0.086306	0.763956
F385	F	0.552925	0.193396	0.436132
F386	F	0.886259	0.526729	0.769465
F387	F	1.219592	0.860062	1.102799
F388	F	-0.147604	-0.037056	0.000040
F389	F	0.185729	0.296277	0.333373
F390	F	0.519062	0.629611	0.666706
H391	H	-0.034199	-0.022700	0.000049
H392	H	0.299134	0.310633	0.333383
H393	H	0.632467	0.643967	0.666716
H394	H	0.669681	-0.645208	-0.097287
H395	H	1.003014	-0.311875	0.236047
H396	H	1.336348	0.021459	0.569380
F397	F	0.211887	0.233982	0.000019
F398	F	0.545220	0.567316	0.333352
F399	F	0.878553	0.900649	0.666685
F400	F	0.591910	0.154474	0.720962
F401	F	0.925243	0.487807	1.054295
F402	F	1.258577	0.821141	1.387629
F403	F	0.521481	-0.029044	0.000031
F404	F	0.854814	0.304289	0.333364
F405	F	1.188147	0.637622	0.666698
F406	F	0.132719	-0.085711	0.000047
F407	F	0.466052	0.247622	0.333380
F408	F	0.799386	0.580955	0.666714
H409	H	-0.059893	0.165716	0.000016
H410	H	0.273440	0.499049	0.333350
H411	H	0.606773	0.832383	0.666683
F412	F	0.669732	-0.637799	0.110707
F413	F	1.003065	-0.304465	0.444040
F414	F	1.336398	0.028868	0.777373
H415	H	0.671615	-0.479729	0.150931
H416	H	1.004949	-0.146395	0.484265
H417	H	1.338282	0.186938	0.817598
F418	F	0.672995	-0.364554	0.164342
F419	F	1.006328	-0.031221	0.497675
F420	F	1.339661	0.302112	0.831009
H421	H	0.743005	0.003495	0.728670
H422	H	1.076338	0.336828	1.062003
H423	H	1.409671	0.670162	1.395336
F424	F	0.674853	-0.213947	0.110733
F425	F	1.008186	0.119386	0.444066
F426	F	1.341520	0.452719	0.777400
F427	F	0.752709	-0.006196	0.151279
F428	F	1.086042	0.327138	0.484612
F429	F	1.419376	0.660471	0.817946
H430	H	0.601627	0.144774	0.271381
H431	H	0.934960	0.478107	0.604715
H432	H	1.268294	0.811440	0.938048
H433	H	0.742972	0.003517	0.271343
H434	H	1.076305	0.336850	0.604676
H435	H	1.409638	0.670184	0.938010
F436	F	0.591881	0.154508	0.151304
F437	F	0.925215	0.487841	0.484638
F438	F	1.258548	0.821175	0.817971
