data_functionalizedCrystal
_audit_creation_method	'MofGen! by Chris Wilmer'
_symmetry_space_group_name_H-M	'P1'
_symmetry_Int_Tables_number	1
_symmetry_cell_setting	triclinic
loop_
_symmetry_equiv_pos_as_xyz
  x,y,z
_cell_length_a	19.288840
_cell_length_b	27.732048
_cell_length_c	18.366186
_cell_angle_alpha	90.010100
_cell_angle_beta	90.016305
_cell_angle_gamma	82.884335
loop_
_atom_site_label
_atom_site_type_symbol
_atom_site_fract_x
_atom_site_fract_y
_atom_site_fract_z
O1	O	0.920988	0.060241	0.060679
O2	O	1.420988	0.560241	0.560679
O3	O	0.718674	0.068388	0.060655
O4	O	1.218674	0.568388	0.560655
O5	O	0.826115	-0.006063	0.060654
O6	O	1.326115	0.493937	0.560654
O7	O	0.813548	0.134693	0.060680
O8	O	1.313548	0.634693	0.560680
O9	O	0.826096	-0.006065	-0.060446
O10	O	1.326096	0.493935	0.439554
O11	O	0.718656	0.068386	-0.060445
O12	O	1.218656	0.568386	0.439555
O13	O	0.920970	0.060239	-0.060420
O14	O	1.420970	0.560239	0.439580
Zn15	Zn	0.819810	0.064312	-0.079660
Zn16	Zn	1.319810	0.564312	0.420340
Zn17	Zn	0.819834	0.064315	0.079894
Zn18	Zn	1.319834	0.564315	0.579894
O19	O	0.813529	0.134691	-0.060419
O20	O	1.313529	0.634691	0.439581
C21	C	0.692790	0.068127	0.000102
C22	C	1.192790	0.568127	0.500102
C23	C	0.615690	0.067346	0.000092
C24	C	1.115690	0.567346	0.500092
C25	C	0.579499	0.066972	0.066105
C26	C	1.079499	0.566972	0.566105
C27	C	0.507057	0.066233	0.066114
C28	C	1.007057	0.566233	0.566114
C29	C	0.470810	0.065858	0.000106
C30	C	0.970810	0.565858	0.500106
C31	C	0.507010	0.066235	-0.065916
C32	C	1.007010	0.566235	0.434084
C33	C	0.579450	0.066979	-0.065923
C34	C	1.079450	0.566979	0.434077
C35	C	0.361659	0.036366	-0.050461
C36	C	0.861659	0.536366	0.449539
C37	C	0.289221	0.035619	-0.050451
C38	C	0.789221	0.535619	0.449549
C39	C	0.247381	0.063566	0.000124
C40	C	0.747381	0.563566	0.500124
C41	C	0.277989	0.092253	0.050703
C42	C	0.777989	0.592253	0.550703
C43	C	0.350429	0.092997	0.050696
C44	C	0.850429	0.592997	0.550696
C45	C	0.392261	0.065052	0.000106
C46	C	0.892261	0.565052	0.500106
C47	C	0.132640	0.062391	0.066152
C48	C	0.632640	0.562391	0.566152
C49	C	0.060195	0.061655	0.066158
C50	C	0.560195	0.561655	0.566158
C51	C	0.060151	0.061652	-0.065874
C52	C	0.560151	0.561652	0.434126
C53	C	0.132593	0.062393	-0.065878
C54	C	0.632593	0.562393	0.434122
C55	C	0.168833	0.062760	0.000137
C56	C	0.668833	0.562760	0.500137
C57	C	0.825842	-0.024072	0.000102
C58	C	1.325842	0.475928	0.500102
C59	C	0.825047	-0.077729	0.000096
C60	C	1.325047	0.422271	0.500096
C61	C	0.883537	-0.416371	0.000140
C62	C	1.383537	0.083629	0.500140
C63	C	0.880590	-0.618040	0.000150
C64	C	1.380590	-0.118040	0.500150
O65	O	0.934074	-0.649137	0.000188
O66	O	1.434074	-0.149137	0.500188
N67	N	0.816882	-0.637352	0.000142
N68	N	1.316882	-0.137352	0.500142
C69	C	0.753907	-0.606243	0.000136
C70	C	1.253907	-0.106243	0.500136
O71	O	0.699652	-0.627297	0.000137
O72	O	1.199652	-0.127297	0.500137
C73	C	0.756855	-0.404576	0.000131
C74	C	1.256855	0.095424	0.500131
C75	C	0.820566	-0.385267	0.000132
C76	C	1.320566	0.114733	0.500132
C77	C	0.947244	-0.397062	0.000142
C78	C	1.447244	0.102938	0.500142
C79	C	0.947980	-0.346647	0.000136
C80	C	1.447980	0.153353	0.500136
C81	C	0.885009	-0.315543	0.000128
C82	C	1.385009	0.184457	0.500128
C83	C	0.821302	-0.334853	0.000126
C84	C	1.321302	0.165147	0.500126
C85	C	0.693880	-0.373469	0.000131
C86	C	1.193880	0.126531	0.500131
C87	C	0.694623	-0.323049	0.000131
C88	C	1.194623	0.176951	0.500131
C89	C	0.758334	-0.303740	0.000132
C90	C	1.258334	0.196260	0.500132
C91	C	0.759068	-0.253334	0.000111
C92	C	1.259068	0.246666	0.500111
N93	N	0.822776	-0.234022	0.000120
N94	N	1.322776	0.265978	0.500120
C95	C	0.885746	-0.265126	0.000128
C96	C	1.385746	0.234874	0.500128
C97	C	0.752363	-0.712122	0.000137
C98	C	1.252363	-0.212122	0.500137
C99	C	0.751626	-0.762539	0.000137
C100	C	1.251626	-0.262539	0.500137
C101	C	0.878310	-0.774331	0.000152
C102	C	1.378310	-0.274331	0.500152
C103	C	0.879046	-0.723914	0.000147
C104	C	1.379046	-0.223914	0.500147
C105	C	0.816071	-0.692810	0.000145
C106	C	1.316071	-0.192810	0.500145
C107	C	0.887287	-0.159253	0.000114
C108	C	1.387287	0.340747	0.500114
C109	C	0.888018	-0.108834	0.000104
C110	C	1.388018	0.391166	0.500104
C111	C	0.761335	-0.097045	0.000092
C112	C	1.261335	0.402955	0.500092
C113	C	0.760604	-0.147460	0.000098
C114	C	1.260604	0.352540	0.500098
C115	C	0.823586	-0.178563	0.000111
C116	C	1.323586	0.321437	0.500111
O117	O	0.705612	-0.222208	0.000081
O118	O	1.205612	0.277792	0.500081
O119	O	0.939993	-0.244063	0.000143
O120	O	1.439993	0.255937	0.500143
C121	C	0.882801	-0.466785	0.000147
C122	C	1.382801	0.033215	0.500147
C123	C	0.819094	-0.486095	0.000145
C124	C	1.319094	0.013905	0.500145
C125	C	0.756124	-0.454991	0.000137
C126	C	1.256124	0.045009	0.500137
C127	C	0.818357	-0.536512	0.000145
C128	C	1.318357	-0.036512	0.500145
C129	C	0.881327	-0.567616	0.000153
C130	C	1.381327	-0.067616	0.500153
C131	C	0.945035	-0.548304	0.000161
C132	C	1.445035	-0.048304	0.500161
C133	C	0.945771	-0.497890	0.000155
C134	C	1.445771	0.002110	0.500155
C135	C	0.692416	-0.474303	0.000129
C136	C	1.192416	0.025697	0.500129
C137	C	0.691685	-0.524718	0.000134
C138	C	1.191685	-0.024718	0.500134
C139	C	0.754655	-0.555822	0.000142
C140	C	1.254655	-0.055822	0.500142
C141	C	0.946854	0.060500	0.000134
C142	C	1.446854	0.560500	0.500134
C143	C	1.023954	0.061281	0.000149
C144	C	1.523954	0.561281	0.500149
C145	C	0.813802	0.152700	0.000134
C146	C	1.313802	0.652700	0.500134
C147	C	0.814597	0.206357	0.000145
C148	C	1.314597	0.706357	0.500145
N149	N	0.819798	0.064310	-0.188551
N150	N	1.319798	0.564310	0.311449
C151	C	0.861604	0.093553	-0.226634
C152	C	1.361604	0.593553	0.273366
C153	C	0.861615	0.093551	-0.302862
C154	C	1.361615	0.593551	0.197138
C155	C	0.819808	0.064313	-0.341003
C156	C	1.319808	0.564313	0.158997
C157	C	0.778000	0.035065	-0.302911
C158	C	1.278000	0.535065	0.197089
C159	C	0.777995	0.035064	-0.226685
C160	C	1.277995	0.535064	0.273315
C161	C	0.757203	0.063095	-0.461793
C162	C	1.257203	0.563095	0.038207
C163	C	0.757207	0.063100	-0.538018
C164	C	1.257207	0.563100	-0.038018
C165	C	0.819824	0.064315	-0.576111
C166	C	1.319824	0.564315	-0.076111
C167	C	0.882438	0.065535	-0.537970
C168	C	1.382438	0.565535	-0.037970
C169	C	0.882434	0.065534	-0.461744
C170	C	1.382434	0.565534	0.038256
C171	C	0.819809	0.064311	-0.423658
C172	C	1.319809	0.564311	0.076342
C173	C	0.861645	0.093557	-0.696849
C174	C	1.361645	0.593557	-0.196849
C175	C	0.861658	0.093552	-0.773078
C176	C	1.361658	0.593552	-0.273078
C177	C	0.778036	0.035069	-0.773126
C178	C	1.278036	0.535069	-0.273126
C179	C	0.778030	0.035071	-0.696898
C180	C	1.278030	0.535071	-0.196898
C181	C	0.819833	0.064318	-0.658764
C182	C	1.319833	0.564318	-0.158764
N183	N	0.819851	0.064313	0.188785
N184	N	1.319851	0.564313	0.688785
H185	H	0.477584	0.065929	0.119871
H186	H	0.977584	0.565929	0.619871
H187	H	0.933417	0.066527	-0.430693
H188	H	1.433417	0.566527	0.069307
H189	H	0.609002	0.067271	0.119860
H190	H	1.109002	0.567271	0.619860
H191	H	0.701079	-0.686801	0.000135
H192	H	1.201079	-0.186801	0.500135
H193	H	0.708725	-0.163182	0.000077
H194	H	1.208725	0.336818	0.500077
H195	H	0.030729	0.061354	0.119916
H196	H	0.530729	0.561354	0.619916
H197	H	0.375347	0.116357	0.091877
H198	H	0.875347	0.616357	0.591877
H199	H	0.743997	0.011262	-0.804180
H200	H	1.243997	0.511262	-0.304180
H201	H	0.706222	0.062108	-0.569066
H202	H	1.206222	0.562108	-0.069066
H203	H	0.710066	-0.071711	0.000083
H204	H	1.210066	0.428289	0.500083
H205	H	0.996308	-0.573638	0.000165
H206	H	1.496308	-0.073638	0.500165
H207	H	0.706208	0.062108	-0.430783
H208	H	1.206208	0.562108	0.069217
H209	H	0.743984	0.011261	-0.665891
H210	H	1.243984	0.511261	-0.165891
H211	H	0.933427	0.066528	-0.568984
H212	H	1.433427	0.566528	-0.068984
H213	H	0.895685	0.117371	-0.665799
H214	H	1.395685	0.617371	-0.165799
H215	H	0.743961	0.011259	-0.333971
H216	H	1.243961	0.511259	0.166029
H217	H	0.743950	0.011250	-0.195678
H218	H	1.243950	0.511250	0.304322
H219	H	0.395720	0.013608	-0.091649
H220	H	0.895720	0.513608	0.408351
H221	H	0.938573	-0.184571	0.000127
H222	H	1.438573	0.315429	0.500127
H223	H	0.699746	-0.778255	0.000123
H224	H	1.199746	-0.278255	0.500123
H225	H	0.643339	-0.297726	0.000131
H226	H	1.143339	0.202274	0.500131
H227	H	0.641136	-0.448982	0.000124
H228	H	1.141136	0.051018	0.500124
H229	H	0.477493	0.065931	-0.119660
H230	H	0.977493	0.565931	0.380340
H231	H	0.243924	0.115012	0.091884
H232	H	0.743924	0.615012	0.591884
H233	H	0.639799	-0.540434	0.000127
H234	H	1.139799	-0.040434	0.500127
H235	H	0.608916	0.067284	-0.119680
H236	H	1.108916	0.567284	0.380320
H237	H	0.162060	0.062695	-0.119633
H238	H	0.662060	0.562695	0.380367
H239	H	0.939902	-0.093115	0.000103
H240	H	1.439902	0.406885	0.500103
H241	H	0.030639	0.061350	-0.119619
H242	H	0.530639	0.561350	0.380381
H243	H	0.895706	0.117364	-0.804084
H244	H	1.395706	0.617364	-0.304084
H245	H	0.997652	-0.482173	0.000156
H246	H	1.497652	0.017827	0.500156
H247	H	0.162147	0.062695	0.119905
H248	H	0.662147	0.562695	0.619905
H249	H	0.930926	-0.708196	0.000149
H250	H	1.430926	-0.208196	0.500149
H251	H	0.264306	0.012258	-0.091632
H252	H	0.764306	0.512258	0.408368
H253	H	0.929583	-0.799665	0.000159
H254	H	1.429583	-0.299665	0.500159
H255	H	0.999860	-0.330931	0.000139
H256	H	1.499860	0.169069	0.500139
H257	H	0.998525	-0.422382	0.000151
H258	H	1.498525	0.077618	0.500151
H259	H	0.641999	-0.389181	0.000134
H260	H	1.141999	0.110819	0.500134
H261	H	0.895659	0.117365	-0.333875
H262	H	1.395659	0.617365	0.166125
H263	H	0.895647	0.117366	-0.195590
H264	H	1.395647	0.617366	0.304410
