data_functionalizedCrystal
_audit_creation_method	'MofGen! by Chris Wilmer'
_symmetry_space_group_name_H-M	'P1'
_symmetry_Int_Tables_number	1
_symmetry_cell_setting	triclinic
loop_
_symmetry_equiv_pos_as_xyz
  x,y,z
_cell_length_a	8.497374
_cell_length_b	8.497374
_cell_length_c	13.897449
_cell_angle_alpha	89.997628
_cell_angle_beta	90.002403
_cell_angle_gamma	90.005237
loop_
_atom_site_label
_atom_site_type_symbol
_atom_site_fract_x
_atom_site_fract_y
_atom_site_fract_z
Zn1	Zn	0.892135	0.628276	1.474639
Zn2	Zn	0.628400	0.892021	1.474632
Zn3	Zn	0.628359	0.628255	1.313380
Zn4	Zn	0.892129	0.892013	1.313357
O5	O	0.760256	0.760141	1.394002
O6	O	0.857170	0.663274	1.609620
O7	O	0.407633	0.857027	1.453248
O8	O	0.663335	0.407495	1.334784
O9	O	0.663405	0.857047	1.609614
O10	O	0.857130	0.407511	1.453261
O11	O	0.407602	0.663239	1.334777
O12	O	0.663329	0.663231	1.178395
O13	O	1.112892	0.857033	1.334745
O14	O	0.857119	0.857013	1.178378
O15	O	1.112896	0.663266	1.453238
O16	O	0.663399	1.112783	1.453225
O17	O	0.857160	1.112777	1.334737
C18	C	0.760220	0.760120	1.143388
C19	C	0.760242	0.760149	1.036174
C20	C	1.171736	0.760144	1.393995
C21	C	1.350380	0.760160	1.393997
C22	C	0.760279	1.170021	1.393990
C23	C	0.760253	1.348665	1.394016
C24	C	0.760283	0.760155	0.839879
C25	C	0.760256	0.760147	0.949111
C26	C	0.760293	0.760164	1.645595
C27	C	0.760309	0.760173	1.752809
