data_functionalizedCrystal
_audit_creation_method	'MofGen! by Chris Wilmer'
_symmetry_space_group_name_H-M	'P1'
_symmetry_Int_Tables_number	1
_symmetry_cell_setting	triclinic
loop_
_symmetry_equiv_pos_as_xyz
  x,y,z
_cell_length_a	14.446369
_cell_length_b	12.970454
_cell_length_c	12.970454
_cell_angle_alpha	60.000265
_cell_angle_beta	89.998620
_cell_angle_gamma	60.000990
loop_
_atom_site_label
_atom_site_type_symbol
_atom_site_fract_x
_atom_site_fract_y
_atom_site_fract_z
Zr1	Zr	0.891725	1.128566	-0.135343
O2	O	0.743924	1.343647	-0.299957
O3	O	0.937033	0.913480	-0.084882
O4	O	0.937033	1.128570	-0.299971
O5	O	0.743924	1.128556	0.084799
O6	O	1.089362	1.128579	-0.299980
O7	O	0.743924	1.128557	-0.084868
O8	O	1.089362	0.743823	0.084775
O9	O	0.743924	1.513313	-0.299956
O10	O	1.070039	1.001957	-0.063366
O11	O	0.956358	1.001950	0.063262
O12	O	0.956358	1.255191	-0.189978
O13	O	0.842677	1.255183	-0.063350
Zr14	Zr	1.134673	1.128580	0.135242
Zr15	Zr	1.134672	1.128581	-0.135358
Zr16	Zr	0.891726	1.128565	0.135256
Zr17	Zr	0.891726	1.399164	-0.135341
Zr18	Zr	1.134672	0.857982	0.135240
O19	O	1.089364	1.343666	0.084780
O20	O	1.089363	1.343668	-0.299978
O21	O	0.743925	1.343645	0.084801
O22	O	1.282474	0.913499	0.299856
O23	O	1.282472	0.913501	-0.084902
O24	O	0.937035	0.913478	0.299877
O25	O	1.282473	1.128590	-0.084900
O26	O	1.089364	1.128576	0.299869
O27	O	0.937036	1.128567	0.299878
O28	O	1.282474	1.128589	0.084767
O29	O	0.937035	1.513325	-0.299967
O30	O	1.089363	0.743821	0.299866
O31	O	1.282473	0.743833	0.299855
O32	O	1.282473	0.743834	0.084764
O33	O	0.743925	1.513312	-0.084865
O34	O	0.937035	1.513324	-0.084877
O35	O	1.070040	1.001956	0.189876
O36	O	1.183721	1.001964	0.063248
O37	O	1.070040	1.255197	-0.063363
O38	O	0.956359	1.255189	0.063264
C39	C	1.013198	0.790097	-0.000054
C40	C	1.013197	0.675221	-0.000055
C41	C	0.709309	1.128555	-0.000033
C42	C	0.606172	1.128548	-0.000026
C43	C	0.531189	0.968851	0.079413
C44	C	0.638518	0.968743	0.079869
C45	C	0.531613	1.207879	0.058226
C46	C	0.424754	1.206865	0.058800
C47	C	0.423180	1.210155	-0.137847
C48	C	0.531851	1.207145	-0.137621
C49	C	1.317088	1.128592	-0.000069
C50	C	1.420226	1.128598	-0.000075
C51	C	1.013197	1.128575	-0.338530
C52	C	1.013197	1.128575	-0.453407
C53	C	1.013200	1.467050	-0.000048
C54	C	1.013200	1.581925	-0.000047
C55	C	1.013200	1.128572	0.338429
C56	C	1.013201	1.128571	0.453305
C57	C	1.317087	0.790115	-0.000072
C58	C	1.420224	0.675246	-0.000079
C59	C	1.013199	0.790095	0.338426
C60	C	1.013199	0.675219	0.453301
C61	C	1.317088	0.790114	0.338408
C62	C	1.420226	0.675244	0.453277
C63	C	0.709309	1.467033	-0.338509
C64	C	0.606172	1.581903	-0.453379
C65	C	0.709311	1.467031	-0.000030
C66	C	0.606174	1.581901	-0.000023
C67	C	1.013199	1.467051	-0.338527
C68	C	1.013198	1.581928	-0.453403
C69	C	1.468659	0.527817	0.093393
C70	C	1.565558	0.419870	0.093391
C71	C	1.614024	0.459355	-0.000080
C72	C	1.565580	0.606799	-0.093561
C73	C	1.468678	0.714743	-0.093563
C74	C	1.468668	0.527815	0.507219
C75	C	1.565587	0.419866	0.615140
C76	C	1.614058	0.459348	0.669121
C77	C	1.565612	0.606791	0.615169
C78	C	1.468699	0.714738	0.507245
C79	C	0.557738	1.729331	-0.507331
C80	C	0.460840	1.837280	-0.615275
C81	C	0.412373	1.797798	-0.669260
C82	C	0.460816	1.650354	-0.615302
C83	C	0.557716	1.542408	-0.507365
C84	C	0.557738	1.542370	0.093464
C85	C	0.460840	1.650287	0.093497
C86	C	0.412374	1.797734	0.000036
C87	C	0.460818	1.837264	-0.093456
C88	C	0.557719	1.729348	-0.093482
H89	H	0.692782	0.906524	0.040777
H90	H	0.421410	1.957327	-0.659189
Cl91	Cl	0.399956	1.600560	0.211036
Cl92	Cl	0.290551	1.933521	-0.804951
H93	H	0.344965	1.327836	-0.197349
Cl94	Cl	1.626555	0.656402	0.683052
Cl95	Cl	1.407749	0.478141	0.210910
H96	H	0.421338	1.618227	-0.659273
H97	H	1.692970	0.371437	0.757000
Cl98	Cl	1.626442	0.234525	0.210924
H99	H	0.597185	1.761507	-0.463387
Cl100	Cl	1.626467	0.234522	0.682947
Cl101	Cl	0.618586	1.357070	-0.439545
Cl102	Cl	0.611278	1.122810	0.213274
H103	H	0.533524	0.906150	0.040542
H104	H	0.597183	1.422318	0.169571
H105	H	0.333470	1.885592	0.000071
H106	H	0.421343	1.957329	-0.169548
H107	H	0.532222	0.906463	0.180432
H108	H	1.429253	0.834785	-0.169678
H109	H	0.597145	1.761556	-0.169616
H110	H	1.429215	0.495640	0.463282
H111	H	1.692924	0.371445	-0.000066
Cl112	Cl	1.407805	0.900076	0.439453
Cl113	Cl	0.721557	0.872041	0.236785
H114	H	0.425024	1.150487	0.160181
Cl115	Cl	0.303431	1.387814	-0.024814
H116	H	0.504382	1.325379	0.003122
H117	H	0.419060	1.159038	-0.186511
H118	H	0.506331	1.323733	-0.201825
Cl119	Cl	1.626522	0.656414	-0.211059
Cl120	Cl	0.611236	1.117837	-0.204811
