data_functionalizedCrystal
_audit_creation_method	'MofGen! by Chris Wilmer'
_symmetry_space_group_name_H-M	'P1'
_symmetry_Int_Tables_number	1
_symmetry_cell_setting	triclinic
loop_
_symmetry_equiv_pos_as_xyz
  x,y,z
_cell_length_a	12.759395
_cell_length_b	19.805405
_cell_length_c	19.805399
_cell_angle_alpha	90.030709
_cell_angle_beta	89.986447
_cell_angle_gamma	89.972053
loop_
_atom_site_label
_atom_site_type_symbol
_atom_site_fract_x
_atom_site_fract_y
_atom_site_fract_z
Zn1	Zn	1.606111	0.269442	-0.382651
Zn2	Zn	1.605987	0.382633	-0.269460
Zn3	Zn	1.430431	0.269466	-0.269483
Zn4	Zn	1.430366	0.382597	-0.382613
O5	O	1.518224	0.326035	-0.326052
O6	O	1.753116	0.284461	-0.367643
O7	O	1.582674	0.367646	-0.174746
O8	O	1.453814	0.174746	-0.284520
O9	O	1.753025	0.367623	-0.284481
O10	O	1.582886	0.174728	-0.367665
O11	O	1.453694	0.284503	-0.174763
O12	O	1.283401	0.284469	-0.284483
O13	O	1.453703	0.367562	-0.477335
O14	O	1.283353	0.367585	-0.367600
O15	O	1.582823	0.284427	-0.477363
O16	O	1.582612	0.477345	-0.284444
O17	O	1.453583	0.477319	-0.367577
C18	C	1.245256	0.326026	-0.326040
C19	C	1.128479	0.326039	-0.326051
C20	C	1.128468	0.412729	-0.412460
C21	C	1.073602	0.456079	-0.455667
C22	C	0.963880	0.456087	-0.455675
C23	C	0.909023	0.412739	-0.412474
C24	C	0.963889	0.369389	-0.369267
C25	C	1.073613	0.369387	-0.369262
C26	C	0.963900	0.282697	-0.282862
C27	C	1.073622	0.282691	-0.282850
C28	C	0.909042	0.239349	-0.239661
C29	C	0.963909	0.196001	-0.196450
C30	C	1.073637	0.195995	-0.196443
C31	C	1.128488	0.239341	-0.239643
C32	C	1.518105	0.501891	-0.326019
C33	C	1.518151	0.577123	-0.326028
C34	C	1.518270	0.325988	-0.502594
C35	C	1.518289	0.325968	-0.577826
C36	C	1.792257	0.326043	-0.326064
C37	C	1.909034	0.326047	-0.326069
C38	C	1.518371	0.149492	-0.326099
C39	C	1.518434	0.074260	-0.326120
C40	C	1.585401	0.612458	-0.282785
C41	C	1.585446	0.683146	-0.282800
C42	C	1.518234	0.718498	-0.326055
C43	C	1.450981	0.683158	-0.369302
C44	C	1.450942	0.612471	-0.369289
C45	C	1.451136	0.968231	-0.369352
C46	C	1.451177	1.038923	-0.369359
C47	C	1.585639	1.038907	-0.282863
C48	C	1.585601	0.968220	-0.282851
C49	C	1.518352	0.932885	-0.326100
C50	C	1.518306	0.856237	-0.326084
C51	C	1.518274	0.795145	-0.326067
C52	C	1.451148	0.282671	-0.613179
C53	C	1.451163	0.282658	-0.683867
C54	C	1.518324	0.325938	-0.719202
C55	C	1.585468	0.369240	-0.683845
C56	C	1.585448	0.369256	-0.613158
C57	C	1.585552	0.369176	-0.968918
C58	C	1.585569	0.369156	-1.039610
C59	C	1.451267	0.282578	-1.039628
C60	C	1.451246	0.282594	-0.968941
C61	C	1.518386	0.325898	-0.933590
C62	C	1.518368	0.325913	-0.856941
C63	C	1.518348	0.325921	-0.795849
C64	C	1.518238	0.326032	-0.150196
C65	C	1.518422	0.325862	-0.074964
H66	H	0.819701	0.239356	-0.239674
C67	C	1.659418	0.416798	-0.930041
H68	H	1.699429	0.442563	-0.961211
H69	H	1.619208	0.446298	-0.902453
H70	H	1.705211	0.390906	-0.902479
C71	C	1.659346	0.416846	-0.722711
H72	H	1.649752	0.410631	-0.769873
H73	H	1.643932	0.462326	-0.711114
H74	H	1.729945	0.406940	-0.711130
H75	H	1.396560	0.247348	-0.940175
C76	C	1.659303	0.416882	-0.574270
H77	H	1.699311	0.442653	-0.605437
H78	H	1.619077	0.446377	-0.546686
H79	H	1.705099	0.390997	-0.546704
H80	H	1.396595	0.247320	-1.068419
C81	C	1.249159	0.412719	-0.412456
H82	H	1.273972	0.444738	-0.444376
H83	H	1.273959	0.424357	-0.368755
H84	H	1.274004	0.369052	-0.424251
H85	H	0.919235	0.160708	-0.161282
C86	C	1.133982	0.148307	-0.148917
H87	H	1.085593	0.122498	-0.123190
H88	H	1.176818	0.118851	-0.174862
H89	H	1.176749	0.174157	-0.119367
H90	H	1.118279	0.491371	-0.490842
H91	H	1.396378	0.939468	-0.404565
C92	C	1.659392	0.722016	-0.235218
H93	H	1.649793	0.769177	-0.241419
H94	H	1.644029	0.710464	-0.189736
H95	H	1.729979	0.710391	-0.245149
C96	C	0.903525	0.503741	-0.503230
H97	H	0.951906	0.529549	-0.528965
H98	H	0.860775	0.477864	-0.532761
H99	H	0.860670	0.533210	-0.477306
C100	C	0.788332	0.412746	-0.412486
H101	H	0.763513	0.444772	-0.444404
H102	H	0.763545	0.369084	-0.424274
H103	H	0.763480	0.424397	-0.368785
C104	C	1.249178	0.239334	-0.239635
H105	H	1.274002	0.207312	-0.207714
H106	H	1.274029	0.227692	-0.283335
H107	H	1.273964	0.282998	-0.227839
H108	H	1.640128	0.583679	-0.247560
C109	C	1.659537	0.929336	-0.235273
H110	H	1.699603	0.960505	-0.209526
H111	H	1.619366	0.901801	-0.205755
H112	H	1.705274	0.901721	-0.261194
C113	C	1.659620	1.077776	-0.235293
H114	H	1.650028	1.124938	-0.241498
H115	H	1.644279	1.066231	-0.189806
H116	H	1.730198	1.066144	-0.245239
H117	H	1.396447	1.067705	-0.404587
C118	C	1.377047	0.722043	-0.416879
H119	H	1.386692	0.769203	-0.410688
H120	H	1.392367	0.710420	-0.462363
H121	H	1.306458	0.710501	-0.406925
H122	H	1.640263	0.404402	-1.068378
C123	C	1.376969	0.573602	-0.416857
H124	H	1.336940	0.604779	-0.442616
H125	H	1.417119	0.545986	-0.446365
H126	H	1.331197	0.546069	-0.390934
H127	H	1.396463	0.247423	-0.584414
C128	C	1.377314	0.235027	-0.722752
H129	H	1.337323	0.209247	-0.691584
H130	H	1.331518	0.260907	-0.750318
H131	H	1.417547	0.205531	-0.750337
