data_functionalizedCrystal
_audit_creation_method	'MofGen! by Chris Wilmer'
_symmetry_space_group_name_H-M	'P1'
_symmetry_Int_Tables_number	1
_symmetry_cell_setting	triclinic
loop_
_symmetry_equiv_pos_as_xyz
  x,y,z
_cell_length_a	27.732048
_cell_length_b	16.109301
_cell_length_c	14.586319
_cell_angle_alpha	90.000929
_cell_angle_beta	90.000546
_cell_angle_gamma	83.052068
loop_
_atom_site_label
_atom_site_type_symbol
_atom_site_fract_x
_atom_site_fract_y
_atom_site_fract_z
O1	O	-0.641343	-0.098920	-0.076125
O2	O	-0.500612	-0.113961	-0.076153
O3	O	-0.574843	0.014638	-0.076129
O4	O	-0.567111	-0.227519	-0.076149
O5	O	-0.574834	0.014629	0.076352
O6	O	-0.500603	-0.113971	0.076327
O7	O	-0.641333	-0.098929	0.076356
Cu8	Cu	-0.570967	-0.106451	0.090264
Cu9	Cu	-0.570978	-0.106440	-0.090062
O10	O	-0.567102	-0.227529	0.076331
C11	C	-0.574526	0.045605	0.000112
C12	C	-0.573586	0.137888	0.000113
C13	C	-0.482599	-0.113650	0.000084
C14	C	-0.428940	-0.112700	0.000073
C15	C	-0.659346	-0.099240	0.000117
C16	C	-0.713005	-0.100191	0.000121
C17	C	-0.090418	-0.182708	0.000107
C18	C	0.111256	-0.179181	0.000115
O19	O	0.142244	-0.243198	0.000150
N20	N	0.130699	-0.102926	0.000120
C21	C	0.099720	-0.027548	0.000129
O22	O	0.120885	0.037392	0.000143
C23	C	-0.101954	-0.031077	0.000127
C24	C	-0.121393	-0.107336	0.000113
C25	C	-0.109859	-0.258961	0.000094
C26	C	-0.160274	-0.259842	0.000087
C27	C	-0.191250	-0.184470	0.000093
C28	C	-0.171809	-0.108217	0.000106
C29	C	-0.132932	0.044300	0.000142
C30	C	-0.183353	0.043411	0.000144
C31	C	-0.202793	-0.032848	0.000130
C32	C	-0.253200	-0.033726	0.000105
N33	N	-0.272643	-0.109981	0.000100
C34	C	-0.241668	-0.185353	0.000094
C35	C	0.205602	-0.025701	0.000128
C36	C	0.256020	-0.024819	0.000127
C37	C	0.267553	-0.176451	0.000115
C38	C	0.217134	-0.177333	0.000110
C39	C	0.186159	-0.101956	0.000123
C40	C	-0.347545	-0.187197	0.000078
C41	C	-0.397965	-0.188072	0.000067
C42	C	-0.409494	-0.036440	0.000084
C43	C	-0.359077	-0.035565	0.000090
C44	C	-0.328104	-0.110950	0.000090
O45	O	-0.284216	0.030257	0.000081
O46	O	-0.262842	-0.250283	0.000101
C47	C	-0.040003	-0.181827	0.000114
C48	C	-0.020562	-0.105574	0.000127
C49	C	-0.051537	-0.030202	0.000133
C50	C	0.029856	-0.104692	0.000126
C51	C	0.060831	-0.180064	0.000120
C52	C	0.041388	-0.256318	0.000115
C53	C	-0.009027	-0.257199	0.000108
C54	C	-0.032095	0.046052	0.000138
C55	C	0.018322	0.046927	0.000144
C56	C	0.049297	-0.028445	0.000138
C57	C	-0.567420	-0.258495	0.000089
C58	C	-0.568359	-0.350779	0.000081
N59	N	-0.570963	-0.106458	0.217096
C60	C	-0.615450	0.360679	0.000107
C61	C	-0.614564	0.447388	0.000099
C62	C	-0.526492	0.426424	0.000085
C63	C	-0.527378	0.339716	0.000086
C64	C	-0.571859	0.306846	0.000102
C65	C	-0.570086	0.480263	0.000093
C66	C	-0.569125	0.574277	0.000084
C67	C	-0.572820	0.212826	0.000108
C68	C	-0.600277	-0.156526	0.452104
C69	C	-0.600282	-0.156522	0.548085
C70	C	-0.541668	-0.056363	0.548091
C71	C	-0.541666	-0.056364	0.452112
C72	C	-0.570970	-0.106450	0.404121
C73	C	-0.570976	-0.106445	0.596081
C74	C	-0.570981	-0.106439	0.700149
C75	C	-0.570966	-0.106455	0.300047
N76	N	-0.570984	-0.106437	0.783106
H77	H	-0.413790	-0.250174	0.000055
H78	H	-0.057310	0.107431	0.000145
H79	H	-0.084643	-0.320342	0.000093
C80	C	-0.632514	-0.211612	0.399313
C81	C	-0.664754	-0.266690	0.452098
C82	C	-0.696994	-0.321774	0.399310
C83	C	-0.696994	-0.321781	0.293736
C84	C	-0.664753	-0.266701	0.240945
C85	C	-0.632513	-0.211616	0.293733
H86	H	-0.664755	-0.266687	0.530255
H87	H	-0.720861	-0.362548	0.438390
H88	H	-0.720860	-0.362558	0.254659
H89	H	-0.664752	-0.266704	0.162787
H90	H	-0.608646	-0.170843	0.254653
C91	C	-0.477563	0.462580	0.000077
C92	C	-0.441360	0.442009	-0.079108
C93	C	-0.392431	0.478161	-0.079114
C94	C	-0.379704	0.534883	0.000065
C95	C	-0.415908	0.555457	0.079256
C96	C	-0.464838	0.519305	0.079262
H97	H	-0.450781	0.400016	-0.137727
H98	H	-0.365630	0.462930	-0.137737
H99	H	-0.343483	0.561645	0.000061
H100	H	-0.406488	0.597449	0.137875
H101	H	-0.491638	0.534536	0.137885
C102	C	-0.509429	-0.001278	0.600879
C103	C	-0.453934	-0.014197	0.587675
C104	C	-0.421692	0.040888	0.640458
C105	C	-0.444945	0.108891	0.706444
C106	C	-0.500442	0.121813	0.719651
C107	C	-0.532685	0.066729	0.666869
H108	H	-0.436719	-0.064539	0.538825
H109	H	-0.380609	0.031322	0.630681
H110	H	-0.421077	0.149668	0.745517
H111	H	-0.517658	0.172156	0.768501
H112	H	-0.573768	0.076295	0.676646
C113	C	-0.443571	0.046468	0.000096
C114	C	-0.441404	0.109151	-0.079069
C115	C	-0.475483	0.192059	-0.079048
C116	C	-0.511729	0.212285	0.000137
C117	C	-0.513897	0.149600	0.079308
C118	C	-0.479818	0.066691	0.079287
H119	H	-0.414572	0.094181	-0.137693
H120	H	-0.473877	0.238463	-0.137656
H121	H	-0.536956	0.273658	0.000153
H122	H	-0.540730	0.164570	0.137932
H123	H	-0.481424	0.020288	0.137895
H124	H	0.292781	-0.237822	0.000111
C125	C	-0.632520	-0.211609	0.600864
C126	C	-0.688014	-0.198698	0.587652
C127	C	-0.720255	-0.253787	0.640429
C128	C	-0.697002	-0.321786	0.706418
C129	C	-0.641505	-0.334700	0.719633
C130	C	-0.609264	-0.279611	0.666856
H131	H	-0.705230	-0.148359	0.538800
H132	H	-0.761338	-0.244227	0.630645
H133	H	-0.720869	-0.362566	0.745486
H134	H	-0.624288	-0.385039	0.768484
H135	H	-0.568181	-0.289171	0.676639
H136	H	-0.517801	-0.015582	0.413043
H137	H	-0.322331	-0.248584	0.000081
C138	C	-0.181651	-0.343733	0.000088
C139	C	-0.169949	-0.406149	0.079271
C140	C	-0.191320	-0.490046	0.079278
C141	C	-0.224391	-0.511526	0.000102
C142	C	-0.236094	-0.449108	-0.079087
C143	C	-0.214724	-0.365211	-0.079094
H144	H	-0.145466	-0.390250	0.137887
H145	H	-0.182656	-0.536251	0.137899
H146	H	-0.240211	-0.573631	0.000108
H147	H	-0.260577	-0.465007	-0.137703
H148	H	-0.223387	-0.319005	-0.137715
C149	C	-0.479424	0.280493	0.000083
C150	C	-0.442976	0.283765	-0.079100
C151	C	-0.395024	0.224543	-0.079107
C152	C	-0.383521	0.162048	0.000069
C153	C	-0.419970	0.158774	0.079258
C154	C	-0.467922	0.217996	0.079265
H155	H	-0.451490	0.330029	-0.137717
H156	H	-0.368042	0.226967	-0.137728
H157	H	-0.348024	0.118209	0.000064
H158	H	-0.411455	0.112510	0.137874
H159	H	-0.494904	0.215572	0.137886
H160	H	0.201309	-0.239430	0.000104
C161	C	-0.217425	0.126330	0.000155
C162	C	-0.215249	0.188989	0.079343
C163	C	-0.249320	0.271906	0.079352
C164	C	-0.285567	0.292163	0.000173
C165	C	-0.287744	0.229502	-0.079021
C166	C	-0.253673	0.146585	-0.079030
H167	H	-0.188416	0.173995	0.137962
H168	H	-0.247709	0.318292	0.137977
H169	H	-0.310788	0.353544	0.000180
H170	H	-0.314577	0.244497	-0.137639
H171	H	-0.255284	0.100200	-0.137655
H172	H	0.271843	0.037279	0.000124
H173	H	-0.024850	-0.319297	0.000098
C174	C	-0.662516	0.506604	0.000109
C175	C	-0.674014	0.569101	0.079287
C176	C	-0.721968	0.628316	0.079296
C177	C	-0.758425	0.625035	0.000127
C178	C	-0.746929	0.562536	-0.079056
C179	C	-0.698974	0.503320	-0.079065
H180	H	-0.647025	0.571532	0.137897
H181	H	-0.730478	0.674582	0.137913
H182	H	-0.793923	0.668870	0.000134
H183	H	-0.773917	0.560104	-0.137667
H184	H	-0.690464	0.457054	-0.137683
H185	H	-0.117113	0.106398	0.000154
C186	C	0.171534	0.057222	0.000132
C187	C	0.173716	0.119890	0.079310
C188	C	0.139651	0.202814	0.079308
C189	C	0.103405	0.223070	0.000128
C190	C	0.101222	0.160400	-0.079055
C191	C	0.135286	0.077476	-0.079053
H192	H	0.200549	0.104897	0.137929
H193	H	0.141267	0.249206	0.137925
H194	H	0.078188	0.284455	0.000127
H195	H	0.074389	0.175393	-0.137674
H196	H	0.133670	0.031084	-0.137671
H197	H	-0.343249	0.026532	0.000088
H198	H	0.034144	0.109031	0.000148
C199	C	0.075467	-0.339228	0.000111
C200	C	0.111720	-0.359462	-0.079062
C201	C	0.145801	-0.442368	-0.079060
C202	C	0.143631	-0.505039	0.000116
C203	C	0.107377	-0.484806	0.079295
C204	C	0.073295	-0.401901	0.079293
H205	H	0.113328	-0.313068	-0.137678
H206	H	0.172639	-0.457345	-0.137675
H207	H	0.168860	-0.566410	0.000117
H208	H	0.105769	-0.531201	0.137911
H209	H	0.046458	-0.386924	0.137907
C210	C	-0.664378	0.324521	0.000114
C211	C	-0.712328	0.383740	0.000115
C212	C	-0.761257	0.347585	0.000120
C213	C	-0.762236	0.252211	0.000124
C214	C	-0.714284	0.192986	0.000124
C215	C	-0.665355	0.229141	0.000119
H216	H	-0.711604	0.454347	0.000111
H217	H	-0.796753	0.391428	0.000120
H218	H	-0.798456	0.225447	0.000128
H219	H	-0.715008	0.122379	0.000127
H220	H	-0.629859	0.185298	0.000119
