data_functionalizedCrystal
_audit_creation_method	'MofGen! by Chris Wilmer'
_symmetry_space_group_name_H-M	'P1'
_symmetry_Int_Tables_number	1
_symmetry_cell_setting	triclinic
loop_
_symmetry_equiv_pos_as_xyz
  x,y,z
_cell_length_a	29.839134
_cell_length_b	29.839131
_cell_length_c	17.077396
_cell_angle_alpha	89.968087
_cell_angle_beta	89.970675
_cell_angle_gamma	90.036281
loop_
_atom_site_label
_atom_site_type_symbol
_atom_site_fract_x
_atom_site_fract_y
_atom_site_fract_z
Zn1	Zn	0.686752	-0.178915	-0.444030
Zn2	Zn	0.686675	-0.254046	-0.312756
Zn3	Zn	0.611625	-0.178924	-0.312755
Zn4	Zn	0.611583	-0.254012	-0.443957
O5	O	0.649159	-0.216474	-0.378374
O6	O	0.749609	-0.188892	-0.426647
O7	O	0.676705	-0.244098	-0.202909
O8	O	0.621641	-0.116055	-0.330199
O9	O	0.749552	-0.244090	-0.330200
O10	O	0.676837	-0.116049	-0.426646
O11	O	0.621566	-0.188906	-0.202908
O12	O	0.548753	-0.188874	-0.330129
O13	O	0.621569	-0.244032	-0.553813
O14	O	0.548721	-0.244041	-0.426522
O15	O	0.676795	-0.188859	-0.553867
O16	O	0.676663	-0.316908	-0.330130
O17	O	0.621494	-0.316883	-0.426523
C18	C	0.532436	-0.216455	-0.378318
C19	C	0.482502	-0.216458	-0.378312
C20	C	0.172852	-0.245242	-0.428505
C21	C	-0.014822	-0.245255	-0.428540
O22	O	-0.039092	-0.269707	-0.471182
N23	N	-0.038283	-0.216490	-0.378433
C24	C	-0.014824	-0.187719	-0.328318
O25	O	-0.039086	-0.163250	-0.285707
C26	C	0.172848	-0.187704	-0.328288
C27	C	0.196308	-0.216474	-0.378392
C28	C	0.196311	-0.274008	-0.478605
C29	C	0.243226	-0.274007	-0.478593
C30	C	0.266682	-0.245238	-0.428480
C31	C	0.243223	-0.216472	-0.378380
C32	C	0.196307	-0.158931	-0.278178
C33	C	0.243228	-0.158929	-0.278176
C34	C	0.266687	-0.187698	-0.328280
C35	C	0.313595	-0.187702	-0.328255
N36	N	0.337056	-0.216466	-0.378361
C37	C	0.313600	-0.245234	-0.428474
C38	C	-0.113355	-0.187729	-0.328337
C39	C	-0.160272	-0.187733	-0.328343
C40	C	-0.160267	-0.245269	-0.428566
C41	C	-0.113348	-0.245266	-0.428555
C42	C	-0.089893	-0.216493	-0.378443
C43	C	0.412126	-0.245229	-0.428444
C44	C	0.459046	-0.245226	-0.428425
C45	C	0.459036	-0.187689	-0.328206
C46	C	0.412120	-0.187694	-0.328221
C47	C	0.388667	-0.216465	-0.378347
O48	O	0.337894	-0.163259	-0.285641
O49	O	0.337870	-0.269692	-0.471092
C50	C	0.125936	-0.245244	-0.428517
C51	C	0.102477	-0.216477	-0.378417
C52	C	0.125933	-0.187709	-0.328304
C53	C	0.055559	-0.216481	-0.378423
C54	C	0.032103	-0.245250	-0.428536
C55	C	0.055565	-0.274014	-0.478642
C56	C	0.102480	-0.274012	-0.478630
C57	C	0.102471	-0.158945	-0.278198
C58	C	0.055555	-0.158949	-0.278213
C59	C	0.032099	-0.187717	-0.328326
C60	C	0.649078	-0.333197	-0.378335
C61	C	0.649084	-0.383131	-0.378345
C62	C	0.677938	-0.692775	-0.328256
C63	C	0.677993	-0.880448	-0.328286
O64	O	0.702462	-0.904713	-0.285669
N65	N	0.649252	-0.903916	-0.378434
C66	C	0.620497	-0.880463	-0.428580
O67	O	0.596055	-0.904731	-0.471240
C68	C	0.620444	-0.692791	-0.428553
C69	C	0.649184	-0.669325	-0.378397
C70	C	0.706676	-0.669309	-0.278105
C71	C	0.706660	-0.622393	-0.278094
C72	C	0.677906	-0.598944	-0.328236
C73	C	0.649168	-0.622410	-0.378387
C74	C	0.591691	-0.669339	-0.478703
C75	C	0.591681	-0.622418	-0.478693
C76	C	0.620421	-0.598952	-0.428537
C77	C	0.620398	-0.552045	-0.428518
N78	N	0.649140	-0.528576	-0.378371
C79	C	0.677894	-0.552026	-0.328230
C80	C	0.620526	-0.978994	-0.428590
C81	C	0.620538	-1.025912	-0.428596
C82	C	0.678036	-1.025893	-0.328303
C83	C	0.678021	-0.978974	-0.328293
C84	C	0.649267	-0.955525	-0.378443
C85	C	0.677858	-0.453500	-0.328212
C86	C	0.677838	-0.406580	-0.328204
C87	C	0.620343	-0.406603	-0.428499
C88	C	0.620360	-0.453519	-0.428505
C89	C	0.649122	-0.476966	-0.378358
O90	O	0.595946	-0.527751	-0.471119
O91	O	0.702339	-0.527750	-0.285589
C92	C	0.677954	-0.739690	-0.328266
C93	C	0.649216	-0.763156	-0.378417
C94	C	0.620462	-0.739707	-0.428559
C95	C	0.649228	-0.810074	-0.378423
C96	C	0.677982	-0.833523	-0.328282
C97	C	0.706724	-0.810055	-0.278135
C98	C	0.706708	-0.763139	-0.278125
C99	C	0.591720	-0.763175	-0.478706
C100	C	0.591738	-0.810090	-0.478711
C101	C	0.620492	-0.833540	-0.428570
C102	C	0.766337	-0.216493	-0.378432
C103	C	0.816272	-0.216502	-0.378456
C104	C	0.649186	-0.216441	-0.583119
C105	C	0.649198	-0.216427	-0.670369
C106	C	0.649252	-0.099296	-0.378431
C107	C	0.649292	-0.049361	-0.378455
C108	C	0.677955	-0.187696	-0.711388
C109	C	0.677961	-0.187681	-0.793368
C110	C	0.649210	-0.216399	-0.834328
C111	C	0.620450	-0.245132	-0.793303
C112	C	0.620442	-0.245144	-0.711324
C113	C	0.620468	-0.245105	-0.964173
C114	C	0.620475	-0.245093	-1.046158
C115	C	0.677986	-0.187641	-1.046218
C116	C	0.677979	-0.187654	-0.964239
C117	C	0.649218	-0.216387	-0.923219
C118	C	0.649158	-0.216475	-0.174426
C119	C	0.649233	-0.216362	-0.087177
H120	H	0.121564	-0.135518	-0.237389
Cl121	Cl	0.272711	-0.122755	-0.215175
H122	H	0.568331	-0.829192	-0.519554
Cl123	Cl	0.584304	-0.281234	-0.844795
Cl124	Cl	0.742842	-0.733646	-0.215071
H125	H	0.730135	-0.829156	-0.237306
Cl126	Cl	0.714125	-0.151552	-0.912747
H127	H	0.730064	-0.603290	-0.237255
H128	H	0.036458	-0.297439	-0.519443
H129	H	0.568306	-0.744086	-0.519538
Cl130	Cl	0.584287	-0.281264	-0.659757
Cl131	Cl	0.714142	-0.151520	-1.097784
H132	H	0.701368	-0.164311	-0.678044
Cl133	Cl	0.488535	-0.281396	-0.491416
Cl134	Cl	0.555532	-0.592943	-0.541744
H135	H	0.597064	-0.268478	-1.079505
Cl136	Cl	0.714134	-0.151580	-0.844932
H137	H	0.730093	-0.688396	-0.237273
H138	H	0.393019	-0.164268	-0.287421
Cl139	Cl	0.584311	-0.281227	-0.912607
H140	H	0.393036	-0.268656	-0.469263
Cl141	Cl	0.714183	-1.055381	-0.265267
Cl142	Cl	0.272711	-0.310173	-0.541589
H143	H	0.121577	-0.297439	-0.519430
Cl144	Cl	0.714014	-0.482969	-0.265168
Cl145	Cl	0.166832	-0.310180	-0.541613
H146	H	-0.094251	-0.268692	-0.469355
Cl147	Cl	0.488532	-0.151525	-0.265211
Cl148	Cl	0.713971	-0.377083	-0.265146
Cl149	Cl	-0.189763	-0.281431	-0.491570
H150	H	-0.179369	-0.164311	-0.287536
H151	H	0.177214	-0.135505	-0.237375
H152	H	0.036459	-0.135522	-0.237405
Cl153	Cl	-0.083875	-0.151554	-0.265332
H154	H	0.597131	-1.045014	-0.469431
Cl155	Cl	0.714153	-0.949479	-0.265239
Cl156	Cl	0.584220	-0.483020	-0.491543
Cl157	Cl	0.584374	-0.949522	-0.491640
H158	H	0.568286	-0.688437	-0.519542
H159	H	0.596930	-0.387504	-0.469322
