data_functionalizedCrystal
_audit_creation_method	'MofGen! by Chris Wilmer'
_symmetry_space_group_name_H-M	'P1'
_symmetry_Int_Tables_number	1
_symmetry_cell_setting	triclinic
loop_
_symmetry_equiv_pos_as_xyz
  x,y,z
_cell_length_a	18.050591
_cell_length_b	12.594516
_cell_length_c	12.594509
_cell_angle_alpha	89.973801
_cell_angle_beta	90.027026
_cell_angle_gamma	89.987941
loop_
_atom_site_label
_atom_site_type_symbol
_atom_site_fract_x
_atom_site_fract_y
_atom_site_fract_z
Zn1	Zn	1.135400	0.423823	0.602037
Zn2	Zn	1.135324	0.601834	0.424065
Zn3	Zn	1.011206	0.423857	0.424048
Zn4	Zn	1.011194	0.601748	0.601977
O5	O	1.073281	0.512815	0.513032
O6	O	1.239315	0.447459	0.578461
O7	O	1.118833	0.578275	0.275117
O8	O	1.027718	0.274907	0.447677
O9	O	1.239259	0.578242	0.447705
O10	O	1.118963	0.274882	0.578444
O11	O	1.027644	0.447516	0.275104
O12	O	0.907280	0.447433	0.447619
O13	O	1.027697	0.578096	0.750931
O14	O	0.907271	0.578128	0.578342
O15	O	1.118951	0.447375	0.750975
O16	O	1.118821	0.750768	0.447647
O17	O	1.027623	0.750705	0.578358
C18	C	0.880329	0.512776	0.512973
C19	C	0.797783	0.512785	0.512973
C20	C	1.073232	0.789356	0.513021
C21	C	1.073279	0.907662	0.513052
C22	C	1.073331	0.512722	0.790653
C23	C	1.073352	0.512683	0.908958
C24	C	0.598316	0.441630	0.442049
C25	C	0.548909	0.538714	0.415866
C26	C	0.646653	0.512817	0.513021
C27	C	0.548978	0.415766	0.539202
C28	C	0.500668	0.512839	0.513065
C29	C	0.598333	0.609952	0.486787
C30	C	0.598407	0.486939	0.610168
C31	C	0.549022	0.584090	0.584021
C32	C	0.730751	0.512802	0.512993
C33	C	0.416571	0.512865	0.513094
C34	C	1.266987	0.512856	0.513091
C35	C	1.349532	0.512873	0.513117
C36	C	1.073350	0.235195	0.513065
C37	C	1.073379	0.116889	0.513080
C38	C	1.023672	0.976919	0.584096
C39	C	1.005577	1.047783	0.486971
C40	C	1.091442	1.047597	0.610195
C41	C	1.055149	0.976967	0.415875
C42	C	1.141045	0.976775	0.539165
C43	C	1.122976	1.047607	0.441972
C44	C	1.073274	0.512832	0.236491
C45	C	1.073397	0.512571	0.118186
C46	C	1.023734	0.583741	0.978187
C47	C	1.091499	0.609754	1.048989
C48	C	1.005640	0.486605	1.048956
C49	C	1.141152	0.538747	0.978201
C50	C	1.055248	0.415553	0.978163
C51	C	1.123059	0.441529	1.048932
H52	H	0.619960	0.381494	0.381965
H53	H	1.165086	0.381390	1.079798
H54	H	1.039761	0.946070	0.333712
H55	H	1.106763	1.078623	0.692336
H56	H	1.039890	0.333484	0.947029
H57	H	0.948359	0.464595	1.080037
H58	H	0.527168	0.560619	0.333729
H59	H	0.619922	0.692060	0.464571
H60	H	1.164970	1.078449	0.381835
O61	O	0.973799	0.655680	0.941172
C62	C	0.936494	0.839306	0.935324
C63	C	0.993103	0.757951	0.977294
H64	H	0.952071	0.922008	0.964529
H65	H	0.936565	0.838240	0.844812
H66	H	0.878899	0.817879	0.965620
H67	H	1.050725	0.779322	0.947076
H68	H	0.992967	0.759033	1.067804
H69	H	1.106836	0.691847	1.080098
H70	H	1.198450	0.560849	0.947251
H71	H	0.527260	0.333693	0.561290
H72	H	0.527514	0.644370	0.644059
O73	O	0.937311	1.085050	0.460449
C74	C	0.865100	1.188901	0.337411
C75	C	0.942450	1.146750	0.367300
H76	H	0.869231	1.238812	0.262111
H77	H	0.826042	1.119233	0.323104
H78	H	0.842768	1.239925	0.404946
H79	H	0.964848	1.095742	0.299803
H80	H	0.981458	1.216466	0.381645
O81	O	0.624335	0.460591	0.708095
C82	C	0.628614	0.328479	0.846416
C83	C	0.599213	0.358189	0.735497
H84	H	0.608302	0.245695	0.868614
H85	H	0.691766	0.329418	0.845661
H86	H	0.607497	0.388374	0.907126
H87	H	0.620276	0.298323	0.674725
H88	H	0.536062	0.357283	0.736340
H89	H	1.198293	0.945565	0.561275
O90	O	0.973438	0.939931	0.655547
C91	C	0.845289	0.934207	0.708753
C92	C	0.902097	0.976148	0.627754
H93	H	0.787599	0.963489	0.686325
H94	H	0.846024	0.843694	0.708611
H95	H	0.860201	0.964449	0.791343
H96	H	0.887225	0.945984	0.545125
H97	H	0.901351	1.066659	0.627989
