data_functionalizedCrystal
_audit_creation_method	'MofGen! by Chris Wilmer'
_symmetry_space_group_name_H-M	'P1'
_symmetry_Int_Tables_number	1
_symmetry_cell_setting	triclinic
loop_
_symmetry_equiv_pos_as_xyz
  x,y,z
_cell_length_a	18.101398
_cell_length_b	29.839131
_cell_length_c	18.101389
_cell_angle_alpha	90.028941
_cell_angle_beta	90.024327
_cell_angle_gamma	90.030494
loop_
_atom_site_label
_atom_site_type_symbol
_atom_site_fract_x
_atom_site_fract_y
_atom_site_fract_z
Zn1	Zn	1.132100	-0.178957	0.418785
Zn2	Zn	1.131987	-0.254074	0.294920
Zn3	Zn	1.008259	-0.178952	0.294946
Zn4	Zn	1.008200	-0.254055	0.418709
O5	O	1.070136	-0.216510	0.356840
O6	O	1.235718	-0.188932	0.402375
O7	O	1.115551	-0.244115	0.191291
O8	O	1.024758	-0.116086	0.311415
O9	O	1.235635	-0.244119	0.311372
O10	O	1.115744	-0.116089	0.402399
O11	O	1.024648	-0.188924	0.191309
O12	O	0.904618	-0.188905	0.311342
O13	O	1.024659	-0.244087	0.522352
O14	O	0.904575	-0.244082	0.402270
O15	O	1.115687	-0.188913	0.522407
O16	O	1.115495	-0.316938	0.311299
O17	O	1.024549	-0.316924	0.402246
C18	C	0.877726	-0.216491	0.356801
C19	C	0.795412	-0.216494	0.356802
C20	C	0.496321	-0.216522	0.356864
C21	C	0.527648	-0.181633	0.299934
C22	C	0.613266	-0.181726	0.299691
C23	C	0.644703	-0.216508	0.356834
C24	C	0.613580	-0.263830	0.335495
C25	C	0.527934	-0.263636	0.335099
C26	C	0.527937	-0.204501	0.435267
C27	C	0.613588	-0.203447	0.434840
C28	C	0.728563	-0.216503	0.356817
C29	C	0.412461	-0.216531	0.356879
C30	C	1.070023	-0.333232	0.356777
C31	C	1.070043	-0.383167	0.356775
C32	C	1.117502	-0.692777	0.404283
C33	C	1.117583	-0.880450	0.404327
O34	O	1.157824	-0.904687	0.444673
N35	N	1.070262	-0.903952	0.356922
C36	C	1.022915	-0.880532	0.309506
O37	O	0.982662	-0.904828	0.269191
C38	C	1.022831	-0.692860	0.309466
C39	C	1.070160	-0.669361	0.356869
C40	C	1.164827	-0.669277	0.451682
C41	C	1.164809	-0.622362	0.451668
C42	C	1.117467	-0.598946	0.404254
C43	C	1.070142	-0.622445	0.356854
C44	C	0.975481	-0.669441	0.262054
C45	C	0.975463	-0.622520	0.262049
C46	C	1.022792	-0.599021	0.309452
C47	C	1.022783	-0.552114	0.309426
N48	N	1.070103	-0.528612	0.356831
C49	C	1.117445	-0.552028	0.404245
C50	C	1.022963	-0.979063	0.309529
C51	C	1.022985	-1.025981	0.309538
C52	C	1.117652	-1.025895	0.404361
C53	C	1.117633	-0.978976	0.404347
C54	C	1.070284	-0.955561	0.356934
C55	C	1.117405	-0.453502	0.404210
C56	C	1.117385	-0.406583	0.404190
C57	C	1.022716	-0.406672	0.309370
C58	C	1.022738	-0.453588	0.309388
C59	C	1.070085	-0.477002	0.356814
O60	O	0.982557	-0.527848	0.269107
O61	O	1.157680	-0.527724	0.444565
C62	C	1.117520	-0.739692	0.404297
C63	C	1.070196	-0.763192	0.356897
C64	C	1.022853	-0.739776	0.309483
C65	C	1.070217	-0.810109	0.356906
C66	C	1.117559	-0.833526	0.404321
C67	C	1.164880	-0.810024	0.451726
C68	C	1.164862	-0.763108	0.451711
C69	C	0.975533	-0.763277	0.262078
C70	C	0.975555	-0.810193	0.262096
C71	C	1.022897	-0.833609	0.309510
C72	C	1.263298	-0.216528	0.356879
C73	C	1.345612	-0.216536	0.356896
C74	C	1.070179	-0.216498	0.550002
C75	C	1.070197	-0.216493	0.632316
C76	C	1.070270	-0.099331	0.356919
C77	C	1.070327	-0.049397	0.356952
C78	C	1.070136	-0.216488	0.164429
C79	C	1.070262	-0.216367	0.082116
C80	C	1.070241	-0.216409	0.931407
C81	C	1.012771	-0.251013	0.900047
C82	C	1.012926	-0.251173	0.814429
C83	C	1.070219	-0.216451	0.783025
C84	C	1.148242	-0.229306	0.814126
C85	C	1.147922	-0.229533	0.899771
C86	C	1.050365	-0.168874	0.899846
C87	C	1.048629	-0.169148	0.814195
C88	C	1.070211	-0.216474	0.699165
C89	C	1.070253	-0.216387	1.015267
H90	H	0.633941	-0.290522	0.375662
H91	H	1.192211	-0.204894	0.793788
N92	N	1.213221	-0.739107	0.500117
N93	N	1.260424	-0.712922	0.474094
H94	H	1.294586	-0.695974	0.508280
H95	H	0.936902	-0.603458	0.223441
N96	N	0.638919	-0.191696	0.226809
N97	N	0.593569	-0.198609	0.175965
H98	H	0.611684	-0.205652	0.124488
H99	H	0.994459	-0.157163	0.921435
H100	H	0.991210	-0.159454	0.793866
N101	N	0.974357	-0.382757	0.260930
N102	N	0.979304	-0.388021	0.192600
H103	H	0.945147	-0.371131	0.158391
N104	N	0.640445	-0.276839	0.264368
N105	N	0.682505	-0.251341	0.229270
H106	H	0.701478	-0.260526	0.179034
N107	N	0.927216	-0.834201	0.213671
N108	N	0.953301	-0.860391	0.166511
H109	H	0.919159	-0.877346	0.132315
N110	N	1.102861	-0.136527	0.925303
N111	N	1.081842	-0.103795	0.962924
H112	H	1.118918	-0.080952	0.980907
N113	N	0.927131	-0.693434	0.213631
N114	N	0.932064	-0.688215	0.145299
H115	H	0.897910	-0.705159	0.111099
H116	H	1.087433	-0.141998	0.792819
H117	H	1.155928	-0.387451	0.442791
N118	N	0.974602	-0.955145	0.261090
N119	N	1.000665	-0.928968	0.213918
H120	H	0.966510	-0.912075	0.179708
N121	N	0.500900	-0.161964	0.459613
N122	N	0.520186	-0.146764	0.521028
H123	H	0.501092	-0.116720	0.538215
H124	H	0.633936	-0.168623	0.450930
H125	H	0.984205	-0.472722	0.270783
N126	N	0.502548	-0.236384	0.488486
N127	N	0.517930	-0.276966	0.480997
H128	H	0.500003	-0.299486	0.518579
N129	N	1.213240	-0.833955	0.500148
N130	N	1.213244	-0.875845	0.500145
H131	H	1.247394	-0.892749	0.534343
H132	H	1.155954	-0.472560	0.442834
H133	H	0.936980	-0.744215	0.223469
N134	N	0.501851	-0.137475	0.316530
N135	N	0.516528	-0.120012	0.377583
H136	H	0.498302	-0.088825	0.389305
N137	N	0.639661	-0.137700	0.316450
N138	N	0.594828	-0.106689	0.328408
H139	H	0.613465	-0.075591	0.340234
H140	H	0.507921	-0.273832	0.277782
H141	H	0.506098	-0.189489	0.242177
N142	N	0.940342	-0.241079	0.788053
N143	N	0.889216	-0.233867	0.832898
H144	H	0.837949	-0.226740	0.814274
N145	N	0.939971	-0.241018	0.925872
N146	N	0.929590	-0.208278	0.967695
H147	H	0.878173	-0.201219	0.985940
H148	H	0.634990	-0.227008	0.479532
N149	N	0.501941	-0.297354	0.384844
N150	N	0.547055	-0.320955	0.419738
H151	H	0.528701	-0.344770	0.454867
H152	H	1.025762	-0.286032	0.921562
H153	H	1.203346	-0.603232	0.490269
H154	H	1.026048	-0.286408	0.793936
H155	H	1.203378	-0.688338	0.490297
H156	H	1.156172	-0.959846	0.442947
N157	N	1.166011	-1.049826	0.452785
N158	N	1.166017	-1.091716	0.452780
H159	H	1.200167	-1.108620	0.486980
N160	N	0.974648	-1.049975	0.261099
N161	N	0.932385	-1.029056	0.218770
H162	H	0.898244	-1.046000	0.184559
N163	N	1.169067	-0.273125	0.924821
N164	N	1.183956	-0.303169	0.879051
H165	H	1.198891	-0.333957	0.896738
N166	N	1.203459	-0.199287	0.925793
N167	N	1.242334	-0.178080	0.880699
H168	H	1.281557	-0.156720	0.899073
N169	N	1.169743	-0.272434	0.787208
N170	N	1.127738	-0.293777	0.745128
H171	H	1.142919	-0.324237	0.726116
