data_functionalizedCrystal
_audit_creation_method	'MofGen! by Chris Wilmer'
_symmetry_space_group_name_H-M	'P1'
_symmetry_Int_Tables_number	1
_symmetry_cell_setting	triclinic
loop_
_symmetry_equiv_pos_as_xyz
  x,y,z
_cell_length_a	11.169417
_cell_length_b	16.625539
_cell_length_c	11.169416
_cell_angle_alpha	89.977153
_cell_angle_beta	90.011589
_cell_angle_gamma	89.983071
loop_
_atom_site_label
_atom_site_type_symbol
_atom_site_fract_x
_atom_site_fract_y
_atom_site_fract_z
Zn1	Zn	1.834932	-0.455862	-0.477765
Zn2	Zn	1.834830	-0.321042	-0.678477
Zn3	Zn	1.634227	-0.321051	-0.477811
Zn4	Zn	1.634225	-0.455840	-0.678409
O5	O	1.734553	-0.388449	-0.578116
O6	O	2.002868	-0.437983	-0.504399
O7	O	1.808178	-0.208210	-0.651907
O8	O	1.660894	-0.338946	-0.309856
O9	O	2.002793	-0.338931	-0.651862
O10	O	1.808351	-0.437991	-0.309821
O11	O	1.660795	-0.208217	-0.504478
O12	O	1.466277	-0.338926	-0.504412
O13	O	1.660891	-0.568675	-0.651745
O14	O	1.466276	-0.437955	-0.651790
O15	O	1.808349	-0.568691	-0.504333
O16	O	1.808176	-0.338910	-0.846418
O17	O	1.660793	-0.437946	-0.846368
C18	C	1.422729	-0.388439	-0.578100
C19	C	1.289329	-0.388455	-0.578122
C20	C	1.734631	-0.598758	-0.578026
C21	C	1.734665	-0.688379	-0.577988
C22	C	1.734720	-1.016555	-0.577854
C23	C	1.734701	-0.925246	-0.577895
C24	C	1.734693	-0.852470	-0.577922
C25	C	1.734673	-0.761155	-0.577961
C26	C	2.047596	-0.388458	-0.578133
C27	C	2.180996	-0.388462	-0.578140
C28	C	1.734506	-0.388442	-0.889940
C29	C	1.734595	-0.388467	-1.023340
C30	C	1.734545	-0.178958	-0.578118
C31	C	1.734744	-0.089337	-0.577818
C32	C	1.734634	-0.388472	-0.265073
C33	C	1.734668	-0.388483	-0.131673
