data_functionalizedCrystal
_audit_creation_method	'MofGen! by Chris Wilmer'
_symmetry_space_group_name_H-M	'P1'
_symmetry_Int_Tables_number	1
_symmetry_cell_setting	triclinic
loop_
_symmetry_equiv_pos_as_xyz
  x,y,z
_cell_length_a	16.959455
_cell_length_b	13.897448
_cell_length_c	16.959447
_cell_angle_alpha	89.971905
_cell_angle_beta	89.982031
_cell_angle_gamma	90.014639
loop_
_atom_site_label
_atom_site_type_symbol
_atom_site_fract_x
_atom_site_fract_y
_atom_site_fract_z
Zn1	Zn	1.208425	-0.384087	-0.446914
Zn2	Zn	1.208345	-0.545401	-0.314738
Zn3	Zn	1.076245	-0.384113	-0.314751
Zn4	Zn	1.076224	-0.545333	-0.446876
O5	O	1.142310	-0.464733	-0.380820
O6	O	1.319025	-0.405503	-0.429390
O7	O	1.190797	-0.524046	-0.204128
O8	O	1.093822	-0.249128	-0.332305
O9	O	1.318966	-0.524020	-0.332281
O10	O	1.190934	-0.249108	-0.429404
O11	O	1.093744	-0.405548	-0.204139
O12	O	0.965632	-0.405482	-0.332268
O13	O	1.093785	-0.523903	-0.557492
O14	O	0.965616	-0.523929	-0.429340
O15	O	1.190913	-0.405436	-0.557520
O16	O	1.190776	-0.680374	-0.332244
O17	O	1.093707	-0.680323	-0.429326
C18	C	0.936944	-0.464702	-0.380802
C19	C	0.849087	-0.464711	-0.380813
C20	C	0.477595	-0.403007	-0.330380
C21	C	0.477628	-0.526539	-0.431305
C22	C	0.560173	-0.526525	-0.431300
C23	C	0.601434	-0.464752	-0.380834
C24	C	0.560149	-0.402994	-0.330372
C25	C	0.601465	-0.588289	-0.481754
C26	C	0.684016	-0.588279	-0.481751
C27	C	0.725278	-0.526501	-0.431288
C28	C	0.683988	-0.464739	-0.380825
C29	C	0.725248	-0.402966	-0.330359
C30	C	0.683959	-0.341199	-0.279900
C31	C	0.601411	-0.341216	-0.279909
C32	C	0.807826	-0.526484	-0.431279
C33	C	0.807802	-0.402952	-0.330351
C34	C	1.142252	-0.715348	-0.380797
C35	C	1.142300	-0.822562	-0.380814
C36	C	1.142383	-1.018857	-0.380863
C37	C	1.142334	-0.909624	-0.380838
C38	C	1.348478	-0.464766	-0.380838
C39	C	1.436335	-0.464780	-0.380846
C40	C	1.142356	-0.464659	-0.586988
C41	C	1.142375	-0.464628	-0.674845
C42	C	1.142389	-0.213140	-0.380860
C43	C	1.142423	-0.105926	-0.380877
C44	C	1.192917	-0.526308	-0.716115
C45	C	1.091848	-0.402923	-0.716128
C46	C	1.091861	-0.402895	-0.798674
C47	C	1.142403	-0.464575	-0.839944
C48	C	1.192930	-0.526283	-0.798669
C49	C	1.041329	-0.341194	-0.839956
C50	C	1.041340	-0.341164	-0.922507
C51	C	1.091886	-0.402840	-0.963779
C52	C	1.142416	-0.464550	-0.922498
C53	C	1.192957	-0.526230	-0.963768
C54	C	1.243492	-0.587936	-0.922489
C55	C	1.243476	-0.587959	-0.839940
C56	C	1.091902	-0.402818	-1.046327
C57	C	1.192971	-0.526206	-1.046322
C58	C	1.142310	-0.464738	-0.175454
C59	C	1.142443	-0.464498	-0.087597
H60	H	0.443974	-0.352715	-0.289300
H61	H	0.444028	-0.576837	-0.472387
O62	O	0.992365	-0.281182	-0.962692
C63	C	0.981778	-0.150889	-1.055886
C64	C	1.037331	-0.218771	-1.010436
H65	H	1.018112	-0.100400	-1.094485
H66	H	0.940460	-0.195114	-1.094572
H67	H	0.945631	-0.106855	-1.012197
H68	H	1.073529	-0.262820	-1.054067
H69	H	1.078597	-0.174492	-0.971738
H70	H	0.567865	-0.638588	-0.522836
O71	O	1.042640	-0.343119	-0.676074
C72	C	0.908195	-0.296262	-0.650838
C73	C	0.963835	-0.364067	-0.696238
H74	H	0.844471	-0.313160	-0.667136
H75	H	0.916796	-0.306889	-0.584739
H76	H	0.922138	-0.218483	-0.667070
H77	H	0.949927	-0.441872	-0.680073
H78	H	0.955225	-0.353356	-0.762326
H79	H	1.000176	-0.290984	-0.806347
H80	H	0.717626	-0.638573	-0.522839
H81	H	0.841440	-0.576777	-0.472360
O82	O	1.241960	-0.586167	-1.086497
C83	C	1.252580	-0.716409	-1.179637
C84	C	1.197011	-0.648552	-1.134201
H85	H	1.216260	-0.766878	-1.218203
H86	H	1.293911	-0.672163	-1.218354
H87	H	1.288712	-0.760466	-1.135939
H88	H	1.160827	-0.604481	-1.177841
H89	H	1.155731	-0.692853	-1.095472
H90	H	0.841390	-0.352643	-0.289260
O91	O	1.042735	-0.343023	-1.086461
C92	C	0.936072	-0.330013	-1.179689
C93	C	0.991693	-0.397846	-1.134273
H94	H	0.894801	-0.374309	-1.218368
H95	H	0.899885	-0.285954	-1.136048
H96	H	0.972397	-0.279545	-1.218314
H97	H	0.955429	-0.448373	-1.095647
H98	H	1.027882	-0.441838	-1.177956
H99	H	1.284640	-0.638160	-0.956102
O100	O	1.292482	-0.647870	-0.799720
C101	C	1.337276	-0.702553	-0.672541
C102	C	1.281727	-0.634670	-0.717995
H103	H	1.328612	-0.691890	-0.606458
H104	H	1.323376	-0.780346	-0.688696
H105	H	1.401012	-0.685627	-0.688827
H106	H	1.217972	-0.651509	-0.701734
H107	H	1.295696	-0.556897	-0.701836
H108	H	1.234063	-0.576544	-0.682502
H109	H	0.567786	-0.290929	-0.238827
O110	O	0.724165	-0.281227	-0.230951
C111	C	0.851332	-0.226521	-0.186180
C112	C	0.805893	-0.294468	-0.241665
H113	H	0.917417	-0.237218	-0.194811
H114	H	0.835183	-0.148742	-0.200175
H115	H	0.835026	-0.243350	-0.122429
H116	H	0.822175	-0.277726	-0.305434
H117	H	0.822046	-0.372227	-0.227602
