data_functionalizedCrystal
_audit_creation_method	'MofGen! by Chris Wilmer'
_symmetry_space_group_name_H-M	'P1'
_symmetry_Int_Tables_number	1
_symmetry_cell_setting	triclinic
loop_
_symmetry_equiv_pos_as_xyz
  x,y,z
_cell_length_a	17.077404
_cell_length_b	12.759394
_cell_length_c	17.077404
_cell_angle_alpha	90.008778
_cell_angle_beta	90.008318
_cell_angle_gamma	90.015062
loop_
_atom_site_label
_atom_site_type_symbol
_atom_site_fract_x
_atom_site_fract_y
_atom_site_fract_z
Zn1	Zn	1.200012	-0.418442	0.443854
Zn2	Zn	1.199963	-0.594089	0.312593
Zn3	Zn	1.068769	-0.418425	0.312602
Zn4	Zn	1.068730	-0.594080	0.443817
O5	O	1.134369	-0.506259	0.378217
O6	O	1.309852	-0.441753	0.426454
O7	O	1.182556	-0.570783	0.202748
O8	O	1.086216	-0.271406	0.330033
O9	O	1.309816	-0.570800	0.330017
O10	O	1.182639	-0.271419	0.426463
O11	O	1.086168	-0.441724	0.202754
O12	O	0.958917	-0.441716	0.329996
O13	O	1.086149	-0.570785	0.553669
O14	O	0.958888	-0.570769	0.426399
O15	O	1.182601	-0.441744	0.553696
O16	O	1.182518	-0.741109	0.329981
O17	O	1.086102	-0.741103	0.426390
C18	C	0.930421	-0.506240	0.378195
C19	C	0.843171	-0.506257	0.378204
C20	C	0.802186	-0.573556	0.428321
C21	C	0.720206	-0.573559	0.428333
C22	C	0.679212	-0.506266	0.378225
C23	C	0.720202	-0.438960	0.328106
C24	C	0.802181	-0.438953	0.328098
C25	C	0.549332	-0.438980	0.328125
C26	C	0.467347	-0.438988	0.328132
C27	C	0.467357	-0.573586	0.428360
C28	C	0.549336	-0.573579	0.428352
C29	C	0.590321	-0.506274	0.378232
C30	C	1.134321	-0.779227	0.378198
C31	C	1.134373	-0.896003	0.378216
C32	C	1.234847	-0.895957	0.277900
C33	C	1.285104	-0.950794	0.227751
C34	C	1.285150	-1.060516	0.227773
C35	C	1.234935	-1.115402	0.277950
C36	C	1.184678	-1.060565	0.328098
C37	C	1.184635	-0.950841	0.328070
C38	C	1.084209	-1.060612	0.428417
C39	C	1.084158	-0.950890	0.428393
C40	C	1.033994	-1.115498	0.478594
C41	C	0.983732	-1.060661	0.528740
C42	C	0.983687	-0.950933	0.528716
C43	C	1.033901	-0.896053	0.478542
C44	C	1.339113	-0.506279	0.378239
C45	C	1.426363	-0.506287	0.378248
C46	C	1.134376	-0.506266	0.582961
C47	C	1.134379	-0.506268	0.670211
C48	C	1.134437	-0.232226	0.378253
C49	C	1.134467	-0.115449	0.378268
C50	C	1.184596	-0.439088	0.711216
C51	C	1.184589	-0.439087	0.793197
C52	C	1.134370	-0.506272	0.834170
C53	C	1.084148	-0.573455	0.793159
C54	C	1.084151	-0.573450	0.711180
C55	C	1.084146	-0.573462	0.964029
C56	C	1.084143	-0.573468	1.046013
C57	C	1.184584	-0.439098	1.046046
C58	C	1.184587	-0.439094	0.964067
C59	C	1.134366	-0.506278	0.923061
C60	C	1.134357	-0.506280	1.174269
C61	C	1.134360	-0.506288	1.087019
H62	H	0.582699	-0.384164	0.287319
O63	O	0.589038	-0.638982	0.477099
C64	C	0.535287	-0.698407	0.521324
H65	H	0.476855	-0.655389	0.524108
H66	H	0.558991	-0.709743	0.583153
H67	H	0.526551	-0.778139	0.492476
H68	H	1.043255	-0.628154	0.826526
O69	O	0.680467	-0.373642	0.279323
C70	C	0.700461	-0.396450	0.201054
H71	H	0.759978	-0.436825	0.199368
H72	H	0.703265	-0.320550	0.165955
H73	H	0.654309	-0.450415	0.174550
O74	O	1.035458	-0.638885	0.924223
C75	C	1.052590	-0.743593	0.944261
H76	H	1.115293	-0.748882	0.966821
H77	H	1.045839	-0.795496	0.890338
H78	H	1.010491	-0.771069	0.991825
O79	O	1.033894	-1.222081	0.478618
C80	C	0.958694	-1.258831	0.458391
H81	H	0.913447	-1.195639	0.471749
H82	H	0.944747	-1.332226	0.493807
H83	H	0.957080	-1.278347	0.393263
H84	H	0.942855	-1.105358	0.569594
O85	O	0.934828	-0.897553	0.577324
C86	C	0.884113	-0.834189	0.532582
H87	H	0.911828	-0.817751	0.473112
H88	H	0.873538	-0.757028	0.564534
H89	H	0.825967	-0.876549	0.523921
H90	H	1.225485	-0.384391	0.930709
O91	O	1.233286	-0.373853	1.085996
C92	C	1.222524	-0.388269	1.167138
H93	H	1.161938	-0.422680	1.178317
H94	H	1.227857	-0.309570	1.198300
H95	H	1.269073	-0.444213	1.190412
O96	O	0.841970	-0.638813	0.477110
C97	C	0.821944	-0.616032	0.555375
H98	H	0.799422	-0.532110	0.559446
H99	H	0.875864	-0.625159	0.594140
H100	H	0.774354	-0.672405	0.575826
H101	H	0.433972	-0.384180	0.287339
O102	O	1.233461	-0.373971	0.671382
C103	C	1.284137	-0.433781	0.623946
H104	H	1.288970	-0.516530	0.648638
H105	H	1.344554	-0.395782	0.623031
H106	H	1.259866	-0.437395	0.561811
H107	H	1.043248	-0.628174	1.079372
H108	H	0.433983	-0.628386	0.469172
O109	O	1.234841	-1.221985	0.277976
C110	C	1.159645	-1.258748	0.257745
H111	H	1.114391	-1.195562	0.271096
H112	H	1.145702	-1.332143	0.293163
H113	H	1.158038	-1.278269	0.192617
O114	O	0.680303	-0.638987	0.476902
C115	C	0.632875	-0.706762	0.432120
H116	H	0.620589	-0.669574	0.372684
H117	H	0.575231	-0.720913	0.464079
H118	H	0.664452	-0.784601	0.423387
H119	H	1.225482	-0.384384	0.826580
H120	H	0.835549	-0.384145	0.287292
H121	H	1.234804	-0.806615	0.277867
H122	H	1.033864	-0.806711	0.478512
O123	O	1.334056	-1.113833	0.179174
C124	C	1.384734	-1.177238	0.223926
H125	H	1.389523	-1.144128	0.285746
H126	H	1.445166	-1.178438	0.195590
H127	H	1.360495	-1.260419	0.226628
H128	H	1.325990	-0.906096	0.186899
O129	O	1.035355	-0.638822	0.671465
C130	C	0.991020	-0.698111	0.725206
H131	H	1.023166	-0.701743	0.783652
H132	H	0.982639	-0.780891	0.701510
H133	H	0.931407	-0.659645	0.733914
