data_functionalizedCrystal
_audit_creation_method	'MofGen! by Chris Wilmer'
_symmetry_space_group_name_H-M	'P1'
_symmetry_Int_Tables_number	1
_symmetry_cell_setting	triclinic
loop_
_symmetry_equiv_pos_as_xyz
  x,y,z
_cell_length_a	17.077404
_cell_length_b	25.639240
_cell_length_c	17.077396
_cell_angle_alpha	90.026744
_cell_angle_beta	89.981638
_cell_angle_gamma	89.964608
loop_
_atom_site_label
_atom_site_type_symbol
_atom_site_fract_x
_atom_site_fract_y
_atom_site_fract_z
Zn1	Zn	1.199975	0.208179	-0.443828
Zn2	Zn	1.699975	0.708179	0.056172
Zn3	Zn	1.199849	0.295617	-0.312566
Zn4	Zn	1.699849	0.795617	0.187434
Zn5	Zn	1.068707	0.208194	-0.312579
Zn6	Zn	1.568707	0.708194	0.187421
Zn7	Zn	1.068642	0.295582	-0.443792
Zn8	Zn	1.568642	0.795582	0.056208
O9	O	1.134293	0.251893	-0.378191
O10	O	1.634293	0.751893	0.121809
O11	O	1.309805	0.219786	-0.426426
O12	O	1.809805	0.719786	0.073574
O13	O	1.182427	0.284041	-0.202721
O14	O	1.682427	0.784041	0.297279
O15	O	1.086200	0.135027	-0.330010
O16	O	1.586200	0.635027	0.169990
O17	O	1.309713	0.284026	-0.329988
O18	O	1.809713	0.784026	0.170012
O19	O	1.182642	0.135016	-0.426438
O20	O	1.682642	0.635016	0.073562
O21	O	1.086078	0.219811	-0.202730
O22	O	1.586078	0.719811	0.297270
O23	O	0.958852	0.219778	-0.329975
O24	O	1.458852	0.719778	0.170025
O25	O	1.086089	0.283967	-0.553644
O26	O	1.586089	0.783967	-0.053644
O27	O	0.958804	0.283982	-0.426377
O28	O	1.458804	0.783982	0.073623
O29	O	1.182579	0.219753	-0.553671
O30	O	1.682579	0.719753	-0.053671
O31	O	1.182364	0.368777	-0.329953
O32	O	1.682364	0.868777	0.170047
O33	O	1.085967	0.368752	-0.426365
O34	O	1.585967	0.868752	0.073635
C35	C	0.930345	0.251878	-0.378174
C36	C	1.430345	0.751878	0.121826
C37	C	0.843096	0.251884	-0.378185
C38	C	1.343096	0.751884	0.121815
C39	C	1.134166	0.387736	-0.378171
C40	C	1.634166	0.887736	0.121829
C41	C	1.134183	0.445850	-0.378188
C42	C	1.634183	0.945850	0.121812
C43	C	1.184444	0.696986	-0.428445
C44	C	1.684444	1.196986	0.071555
C45	C	1.184428	0.642382	-0.428440
C46	C	1.684428	1.142382	0.071560
O47	O	1.227105	0.614097	-0.471148
O48	O	1.727105	1.114097	0.028852
N49	N	1.134245	0.615123	-0.378195
N50	N	1.634245	1.115123	0.121805
C51	C	1.084081	0.642472	-0.327946
C52	C	1.584081	1.142472	0.172054
O53	O	1.041396	0.614273	-0.285208
O54	O	1.541396	1.114273	0.214792
C55	C	1.084101	0.697076	-0.327948
C56	C	1.584101	1.197076	0.172052
C57	C	1.134282	0.724331	-0.378202
C58	C	1.634282	1.224331	0.121798
C59	C	1.234621	0.724242	-0.478694
C60	C	1.734621	1.224242	0.021306
C61	C	1.234635	0.778842	-0.478700
C62	C	1.734635	1.278842	0.021300
C63	C	1.184473	0.806187	-0.428457
C64	C	1.684473	1.306187	0.071543
C65	C	1.134296	0.778932	-0.378207
C66	C	1.634296	1.278932	0.121793
C67	C	1.033941	0.724424	-0.277696
C68	C	1.533941	1.224424	0.222304
C69	C	1.033967	0.779031	-0.277701
C70	C	1.533967	1.279031	0.222299
C71	C	1.084147	0.806286	-0.327955
C72	C	1.584147	1.306286	0.172045
C73	C	1.084149	0.860877	-0.327970
C74	C	1.584149	1.360877	0.172030
N75	N	1.134331	0.888136	-0.378215
N76	N	1.634331	1.388136	0.121785
C77	C	1.184494	0.860790	-0.428458
C78	C	1.684494	1.360790	0.071542
C79	C	1.084043	0.527802	-0.327946
C80	C	1.584043	1.027802	0.172054
C81	C	1.084018	0.473199	-0.327948
C82	C	1.584018	0.973199	0.172052
C83	C	1.184366	0.473113	-0.428441
C84	C	1.684366	0.973113	0.071559
C85	C	1.184386	0.527716	-0.428442
C86	C	1.684386	1.027716	0.071558
C87	C	1.134225	0.555060	-0.378191
C88	C	1.634225	1.055060	0.121809
C89	C	1.184520	0.975456	-0.428467
C90	C	1.684520	1.475456	0.071533
C91	C	1.184528	1.030061	-0.428471
C92	C	1.684528	1.530061	0.071529
C93	C	1.084183	1.030143	-0.327975
C94	C	1.584183	1.530143	0.172025
C95	C	1.084172	0.975542	-0.327974
C96	C	1.584172	1.475542	0.172026
C97	C	1.134347	0.948200	-0.378223
C98	C	1.634347	1.448200	0.121777
O99	O	1.041496	0.889197	-0.285281
O100	O	1.541496	1.389197	0.214719
O101	O	1.227179	0.888996	-0.471182
O102	O	1.727179	1.388996	0.028818
C103	C	0.802155	0.218494	-0.428477
C104	C	1.302155	0.718494	0.071523
C105	C	0.720174	0.218497	-0.428480
C106	C	1.220174	0.718497	0.071520
C107	C	0.679136	0.251894	-0.378196
C108	C	1.179136	0.751894	0.121804
C109	C	0.720083	0.285286	-0.327898
C110	C	1.220083	0.785286	0.172102
C111	C	0.802062	0.285280	-0.327891
C112	C	1.302062	0.785280	0.172109
C113	C	0.549213	0.285298	-0.327918
C114	C	1.049213	0.785298	0.172082
C115	C	0.467228	0.285305	-0.327926
C116	C	0.967228	0.785305	0.172074
C117	C	0.467325	0.218516	-0.428507
C118	C	0.967325	0.718516	0.071493
C119	C	0.549304	0.218509	-0.428500
C120	C	1.049304	0.718509	0.071500
C121	C	0.590245	0.251902	-0.378203
C122	C	1.090245	0.751902	0.121797
C123	C	1.339038	0.251908	-0.378210
C124	C	1.839038	0.751908	0.121790
C125	C	1.426287	0.251915	-0.378217
C126	C	1.926287	0.751915	0.121783
C127	C	1.134341	0.251854	-0.582936
C128	C	1.634341	0.751854	-0.082936
C129	C	1.134361	0.251838	-0.670186
C130	C	1.634361	0.751838	-0.170186
C131	C	1.134407	1.115520	-0.378225
C132	C	1.634407	1.615520	0.121775
C133	C	1.134366	1.057406	-0.378227
C134	C	1.634366	1.557406	0.121773
C135	C	1.184605	0.218399	-0.711191
C136	C	1.684605	0.718399	-0.211191
C137	C	1.184615	0.218381	-0.793171
C138	C	1.684615	0.718381	-0.293171
C139	C	1.134383	0.251806	-0.834145
C140	C	1.634383	0.751806	-0.334145
C141	C	1.084134	0.285247	-0.793134
C142	C	1.584134	0.785247	-0.293134
C143	C	1.084121	0.285262	-0.711155
C144	C	1.584121	0.785262	-0.211155
C145	C	1.084165	0.285216	-0.964004
C146	C	1.584165	0.785216	-0.464004
C147	C	1.084179	0.285202	-1.045989
C148	C	1.584179	0.785202	-0.545989
C149	C	1.184659	0.218335	-1.046020
C150	C	1.684659	0.718335	-0.546020
C151	C	1.184646	0.218350	-0.964041
C152	C	1.684646	0.718350	-0.464041
C153	C	1.134397	0.251792	-0.923036
C154	C	1.634397	0.751792	-0.423036
C155	C	1.134291	0.251894	-0.174244
C156	C	1.634291	0.751894	0.325756
C157	C	1.134423	0.251763	-0.086994
C158	C	1.634423	0.751763	0.413006
H159	H	1.225390	1.052250	-0.469398
H160	H	1.725390	1.552250	0.030602
H161	H	0.686843	0.191309	-0.469434
H162	H	1.186843	0.691309	0.030566
H163	H	0.582715	0.191318	-0.469451
H164	H	1.082715	0.691318	0.030549
H165	H	0.993119	0.801291	-0.236779
H166	H	1.493119	1.301291	0.263221
Cl167	Cl	1.247597	0.941091	-0.491638
Cl168	Cl	1.747597	1.441091	0.008362
H169	H	1.225554	0.191135	-0.930683
H170	H	1.725554	0.691135	-0.430683
Cl171	Cl	0.415857	0.176535	-0.491735
Cl172	Cl	0.915857	0.676535	0.008265
H173	H	1.225572	0.191105	-1.079411
H174	H	1.725572	0.691105	-0.579411
H175	H	1.225512	0.191182	-0.677836
H176	H	1.725512	0.691182	-0.177836
Cl177	Cl	1.021120	1.064530	-0.264821
Cl178	Cl	1.521120	1.564530	0.235179
H179	H	1.043303	0.953351	-0.287061
H180	H	1.543303	1.453351	0.212939
Cl181	Cl	1.021021	0.327217	-1.097498
Cl182	Cl	1.521021	0.827217	-0.597498
H183	H	1.043235	0.312439	-0.930621
H184	H	1.543235	0.812439	-0.430621
H185	H	1.043231	0.312460	-0.826502
H186	H	1.543231	0.812460	-0.326502
Cl187	Cl	0.853737	0.176509	-0.491699
Cl188	Cl	1.353737	0.676509	0.008301
Cl189	Cl	0.415639	0.327302	-0.264728
Cl190	Cl	0.915639	0.827302	0.235272
Cl191	Cl	0.600681	0.327281	-0.264692
Cl192	Cl	1.100681	0.827281	0.235308
H193	H	1.043188	0.550062	-0.287027
H194	H	1.543188	1.050062	0.212973
H195	H	1.275503	0.801029	-0.519616
H196	H	1.775503	1.301029	-0.019616
Cl197	Cl	1.297690	0.689875	-0.541867
Cl198	Cl	1.797690	1.189875	-0.041867
Cl199	Cl	1.247817	0.176364	-0.844717
Cl200	Cl	1.747817	0.676364	-0.344717
H201	H	1.043199	0.312486	-0.677770
H202	H	1.543199	0.812486	-0.177770
Cl203	Cl	0.853531	0.327258	-0.264665
Cl204	Cl	1.353531	0.827258	0.235335
Cl205	Cl	1.247475	0.561974	-0.491618
Cl206	Cl	1.747475	1.061974	0.008382
H207	H	1.225212	0.450838	-0.469350
H208	H	1.725212	0.950838	0.030650
H209	H	1.043148	0.451012	-0.287035
H210	H	1.543148	0.951012	0.212965
Cl211	Cl	0.668493	0.327268	-0.264678
Cl212	Cl	1.168493	0.827268	0.235322
H213	H	0.993081	0.702240	-0.236774
H214	H	1.493081	1.202240	0.263226
