data_functionalizedCrystal
_audit_creation_method	'MofGen! by Chris Wilmer'
_symmetry_space_group_name_H-M	'P1'
_symmetry_Int_Tables_number	1
_symmetry_cell_setting	triclinic
loop_
_symmetry_equiv_pos_as_xyz
  x,y,z
_cell_length_a	13.032831
_cell_length_b	19.121063
_cell_length_c	13.033429
_cell_angle_alpha	84.898597
_cell_angle_beta	89.091437
_cell_angle_gamma	85.565596
loop_
_atom_site_label
_atom_site_type_symbol
_atom_site_fract_x
_atom_site_fract_y
_atom_site_fract_z
Zn1	Zn	1.474723	-0.337388	-0.799216
Zn2	Zn	1.487084	-0.469982	-0.634433
Zn3	Zn	1.324302	-0.341094	-0.605647
Zn4	Zn	1.295403	-0.440861	-0.782984
O5	O	1.395378	-0.397331	-0.705570
O6	O	1.619534	-0.365614	-0.796197
O7	O	1.482758	-0.466623	-0.487436
O8	O	1.351176	-0.243358	-0.626072
O9	O	1.628615	-0.463030	-0.675131
O10	O	1.461690	-0.240636	-0.768286
O11	O	1.363162	-0.371929	-0.466287
O12	O	1.177297	-0.343692	-0.610331
O13	O	1.301923	-0.413397	-0.928316
O14	O	1.156066	-0.416990	-0.740620
O15	O	1.433669	-0.337376	-0.940242
O16	O	1.454736	-0.563363	-0.659391
O17	O	1.313909	-0.541968	-0.768531
C18	C	1.129558	-0.377583	-0.670591
C19	C	1.015836	-0.369150	-0.655652
C20	C	0.954664	-0.401733	-0.713367
C21	C	0.837125	-0.393017	-0.697928
C22	C	1.382553	-0.577880	-0.715349
C23	C	1.377156	-0.655123	-0.719580
C24	C	1.447986	-0.702527	-0.664805
C25	C	1.442916	-0.775104	-0.668790
C26	C	1.367010	-0.800276	-0.727545
C27	C	1.296176	-0.752867	-0.782327
C28	C	1.301252	-0.680291	-0.778347
C29	C	1.348018	-1.018853	-0.742407
C30	C	1.342945	-1.091435	-0.746381
C31	C	1.489686	-1.113667	-0.632845
C32	C	1.494752	-1.041088	-0.628865
C33	C	1.423922	-0.993685	-0.683651
C34	C	1.361823	-0.874462	-0.731617
C35	C	1.429114	-0.919501	-0.679584
C36	C	1.662235	-0.417157	-0.740686
C37	C	1.775954	-0.425605	-0.755650
C38	C	1.363194	-0.371725	-0.972441
C39	C	1.349478	-0.360813	-1.086166
C40	C	1.408278	-0.216078	-0.695778
C41	C	1.413775	-0.138838	-0.691606
C42	C	1.388368	-0.391534	-1.264869
C43	C	1.402544	-0.402808	-1.147329
C44	C	1.427500	-0.422792	-0.439742
C45	C	1.441427	-0.433523	-0.326034
H46	H	0.989309	-0.436079	-0.774211
H47	H	0.802483	-0.358663	-0.637087
C48	C	1.273930	-0.300968	-1.132957
H49	H	1.242487	-0.276084	-1.079340
H50	H	1.222468	-0.320265	-1.170224
H51	H	1.310239	-0.269624	-1.178165
C52	C	1.516968	-0.493364	-1.279230
H53	H	1.516580	-0.493095	-1.206369
H54	H	1.584344	-0.486642	-1.305193
H55	H	1.496571	-0.537281	-1.297243
H56	H	1.458472	-0.447104	-1.112680
H57	H	0.810593	-0.459952	-0.816502
H58	H	0.981190	-0.334798	-0.594815
C59	C	1.531485	-0.674843	-0.600175
H60	H	1.572948	-0.713472	-0.568133
H61	H	1.499746	-0.647943	-0.548866
H62	H	1.573292	-0.646045	-0.643666
C63	C	1.278327	-0.902151	-0.796243
H64	H	1.236867	-0.863527	-0.828302
H65	H	1.236528	-0.930955	-0.752761
H66	H	1.310082	-0.929047	-0.847555
H67	H	1.556560	-1.020595	-0.581022
C68	C	1.520824	-0.827245	-0.608531
H69	H	1.566749	-0.801859	-0.572958
H70	H	1.558674	-0.855070	-0.655114
H71	H	1.485111	-0.856968	-0.560327
H72	H	1.290343	-0.980262	-0.787014
H73	H	1.332452	-0.347237	-1.299523
H74	H	1.234376	-0.773368	-0.830171
C75	C	1.223341	-0.628147	-0.838601
H76	H	1.177402	-0.653532	-0.874158
H77	H	1.259049	-0.598425	-0.886802
H78	H	1.185491	-0.600322	-0.792011
H79	H	1.547353	-1.152270	-0.588243
H80	H	1.490920	-0.899004	-0.631750
C81	C	1.259453	-1.119122	-0.811024
H82	H	1.218002	-1.080497	-0.843092
H83	H	1.217645	-1.147922	-0.767546
H84	H	1.291212	-1.146023	-0.862330
