data_functionalizedCrystal
_audit_creation_method	'MofGen! by Chris Wilmer'
_symmetry_space_group_name_H-M	'P1'
_symmetry_Int_Tables_number	1
_symmetry_cell_setting	triclinic
loop_
_symmetry_equiv_pos_as_xyz
  x,y,z
_cell_length_a	19.288864
_cell_length_b	10.540539
_cell_length_c	18.366186
_cell_angle_alpha	89.995944
_cell_angle_beta	89.977106
_cell_angle_gamma	83.830869
loop_
_atom_site_label
_atom_site_type_symbol
_atom_site_fract_x
_atom_site_fract_y
_atom_site_fract_z
O1	O	0.922409	0.158345	-0.060780
O2	O	0.720291	0.179705	-0.060730
O3	O	0.825961	-0.015784	-0.060755
O4	O	0.816739	0.353834	-0.060755
O5	O	0.825943	-0.015794	0.060344
O6	O	0.720273	0.179696	0.060370
O7	O	0.922391	0.158335	0.060319
Zn8	Zn	0.821329	0.169014	0.079572
Zn9	Zn	0.821353	0.169027	-0.079982
O10	O	0.816721	0.353825	0.060345
C11	C	0.694401	0.179013	-0.000174
C12	C	0.617284	0.176950	-0.000155
C13	C	0.825261	-0.063076	-0.000207
C14	C	0.823192	-0.203978	-0.000210
C15	C	0.573353	0.291654	-0.000166
C16	C	0.500893	0.289716	-0.000174
C17	C	0.472367	0.173067	-0.000185
C18	C	0.516308	0.058347	-0.000170
C19	C	0.588766	0.060289	-0.000155
C20	C	0.363499	0.081371	-0.042637
C21	C	0.291042	0.079434	-0.042656
C22	C	0.248881	0.167074	-0.000230
C23	C	0.279186	0.256671	0.042208
C24	C	0.351644	0.258613	0.042223
C25	C	0.393799	0.170949	-0.000202
C26	C	0.126381	0.279684	-0.000249
C27	C	0.053919	0.277741	-0.000252
C28	C	0.069336	0.046369	-0.000255
C29	C	0.141795	0.048315	-0.000244
C30	C	0.170313	0.164976	-0.000245
C31	C	0.743903	-0.385638	-0.000462
C32	C	0.746000	-0.239067	-0.000190
C33	C	0.860329	-0.266469	0.068934
C34	C	0.857695	-0.412955	0.068993
C35	C	0.859285	-0.413498	-0.068720
C36	C	0.859996	-0.266531	-0.069634
C37	C	0.948281	0.159027	-0.000238
C38	C	1.025399	0.161091	-0.000262
C39	C	0.817422	0.401117	-0.000206
C40	C	0.819491	0.542019	-0.000207
N41	N	0.821318	0.169005	0.188463
N42	N	0.821370	0.169026	-0.188873
C43	C	0.868124	0.082484	0.226552
C44	C	0.868129	0.082479	0.302780
C45	C	0.821333	0.169015	0.340915
C46	C	0.774518	0.255542	0.302817
C47	C	0.774510	0.255537	0.226591
C48	C	0.812807	0.284670	0.461677
C49	C	0.812820	0.284677	0.537902
C50	C	0.821353	0.169031	0.576023
C51	C	0.829889	0.053374	0.537909
C52	C	0.829881	0.053368	0.461683
C53	C	0.821336	0.169030	0.423570
C54	C	0.868167	0.082497	0.696767
C55	C	0.868167	0.082490	0.772996
C56	C	0.774559	0.255565	0.773032
C57	C	0.774556	0.255561	0.696804
C58	C	0.821364	0.169029	0.658676
H59	H	0.596567	0.386649	-0.000167
N60	N	0.933142	-0.477680	-0.069352
H61	H	0.958455	-0.448730	-0.113481
H62	H	0.957966	-0.453988	-0.023722
N63	N	0.453498	0.413437	-0.000188
H64	H	0.482559	0.487634	-0.000185
H65	H	0.423127	0.417658	-0.045089
N66	N	0.157146	0.405503	-0.000245
H67	H	0.118318	0.477876	-0.000247
H68	H	0.186852	0.411342	0.044652
N69	N	0.384332	0.355236	0.087994
H70	H	0.346633	0.410465	0.114871
H71	H	0.417486	0.309322	0.124236
N72	N	0.189176	-0.075411	-0.000244
H73	H	0.219608	-0.079759	-0.045129
H74	H	0.219513	-0.079698	0.044684
N75	N	0.824050	-0.211521	-0.137396
H76	H	0.784092	-0.146348	-0.123191
H77	H	0.858462	-0.169269	-0.168093
H78	H	0.493077	-0.036629	-0.000189
N79	N	0.703514	-0.422623	-0.066135
H80	H	0.655168	-0.375139	-0.065245
H81	H	0.728430	-0.400014	-0.111949
H82	H	0.624535	-0.033120	-0.000146
N83	N	0.934546	-0.236120	-0.075190
H84	H	0.945568	-0.181120	-0.032591
H85	H	0.966902	-0.318076	-0.074604
H86	H	0.716778	-0.195808	-0.049755
H87	H	0.244859	0.328035	0.076756
N88	N	0.006533	0.401464	-0.000206
H89	H	0.035597	0.475657	-0.000188
H90	H	-0.023868	0.405758	-0.045086
H91	H	0.736455	0.326019	0.804082
N92	N	0.408970	-0.013156	-0.088402
H93	H	0.442646	-0.066873	-0.055899
H94	H	0.378730	-0.070114	-0.115286
N95	N	0.703661	-0.424747	0.064867
H96	H	0.734181	-0.489122	0.094627
H97	H	0.688895	-0.347181	0.095695
N98	N	0.724025	0.348872	0.185511
H99	H	0.750840	0.404951	0.153869
H100	H	0.693043	0.300418	0.153945
N101	N	0.724046	0.348884	0.343942
H102	H	0.674680	0.334487	0.330705
H103	H	0.731214	0.335717	0.397998
H104	H	0.913209	-0.462161	0.072117
H105	H	0.736445	0.326019	0.665790
H106	H	0.046111	-0.048609	-0.000310
H107	H	0.917016	-0.245379	0.071492
N108	N	0.918635	-0.010833	0.655624
H109	H	0.968005	0.003542	0.668857
H110	H	0.910129	-0.100845	0.668909
N111	N	0.258357	-0.017196	-0.088424
H112	H	0.270213	-0.005046	-0.141361
H113	H	0.276919	-0.106119	-0.072514
N114	N	0.826151	-0.209278	0.137114
H115	H	0.786618	-0.142907	0.123370
H116	H	0.807364	-0.278699	0.166762
H117	H	0.716558	-0.196659	0.049472
N118	N	0.839113	-0.071367	0.579015
H119	H	0.844527	-0.144630	0.543305
H120	H	0.882093	-0.074191	0.610612
N121	N	0.821317	-0.449506	0.137475
H122	H	0.772400	-0.404437	0.138655
H123	H	0.819295	-0.544846	0.138159
H124	H	0.834310	-0.444490	-0.121128
H125	H	0.906236	0.012022	0.195510
H126	H	0.906245	0.012021	0.333798
N127	N	0.839085	-0.071364	0.420573
H128	H	0.844493	-0.144630	0.456283
H129	H	0.796851	-0.078577	0.388970
H130	H	0.906280	0.012028	0.804009
H131	H	0.805846	0.378848	0.430646
H132	H	0.805874	0.378852	0.568928
