data_functionalizedCrystal
_audit_creation_method	'MofGen! by Chris Wilmer'
_symmetry_space_group_name_H-M	'P1'
_symmetry_Int_Tables_number	1
_symmetry_cell_setting	triclinic
loop_
_symmetry_equiv_pos_as_xyz
  x,y,z
_cell_length_a	23.532361
_cell_length_b	22.610064
_cell_length_c	23.532407
_cell_angle_alpha	89.999397
_cell_angle_beta	97.160827
_cell_angle_gamma	90.003897
loop_
_atom_site_label
_atom_site_type_symbol
_atom_site_fract_x
_atom_site_fract_y
_atom_site_fract_z
O1	O	0.755281	0.049131	-0.069001
O2	O	0.589414	0.049146	-0.079032
O3	O	0.677349	0.049127	0.008916
O4	O	0.667345	0.049150	-0.156949
O5	O	0.677333	-0.049242	0.008903
O6	O	0.589398	-0.049223	-0.079045
O7	O	0.755265	-0.049238	-0.069014
Zn8	Zn	0.672329	-0.064849	-0.074031
Zn9	Zn	0.672350	0.064757	-0.074014
O10	O	0.667330	-0.049219	-0.156962
C11	C	0.568189	-0.000037	-0.078787
C12	C	0.504971	-0.000031	-0.078032
N13	N	0.672319	-0.153301	-0.074042
C14	C	0.231736	0.053586	-0.074721
C15	C	0.291135	0.053587	-0.075436
O16	O	0.321868	0.099189	-0.075780
N17	N	0.320832	-0.000034	-0.075804
C18	C	0.291128	-0.053660	-0.075452
O19	O	0.321842	-0.099269	-0.075830
C20	C	0.231730	-0.053661	-0.074733
C21	C	0.202035	-0.000036	-0.074370
C22	C	0.202041	0.107206	-0.074358
C23	C	0.142645	0.107204	-0.073644
C24	C	0.112944	0.053582	-0.073294
C25	C	0.142639	-0.000038	-0.073657
C26	C	0.202026	-0.107287	-0.074376
C27	C	0.142624	-0.107283	-0.073656
C28	C	0.112929	-0.053658	-0.073294
C29	C	0.053542	-0.053662	-0.072592
N30	N	0.023845	-0.000041	-0.072224
C31	C	0.053546	0.053581	-0.072575
C32	C	0.415868	-0.053654	-0.076961
C33	C	0.475264	-0.053654	-0.077684
C34	C	0.475268	0.053594	-0.077667
C35	C	0.415870	0.053593	-0.076948
C36	C	0.386171	-0.000033	-0.076593
C37	C	-0.071190	0.053573	-0.071076
C38	C	-0.130591	0.053567	-0.070365
C39	C	-0.130589	-0.053680	-0.070378
C40	C	-0.071193	-0.053674	-0.071093
C41	C	-0.041495	-0.000043	-0.071440
O42	O	0.022772	-0.099240	-0.072245
O43	O	0.022825	0.099182	-0.072189
C44	C	0.711289	-0.561951	-0.035077
C45	C	0.711292	-0.623871	-0.035073
O46	O	0.744401	-0.655897	-0.001951
N47	N	0.672349	-0.654838	-0.074002
C48	C	0.633397	-0.623883	-0.112935
O49	O	0.600273	-0.655909	-0.146047
C50	C	0.633392	-0.561964	-0.112936
C51	C	0.672341	-0.531000	-0.074007
C52	C	0.750235	-0.530986	0.003849
C53	C	0.750232	-0.469071	0.003844
C54	C	0.711284	-0.438120	-0.035087
C55	C	0.672339	-0.469084	-0.074013
C56	C	0.594438	-0.531009	-0.151865
C57	C	0.594435	-0.469086	-0.151863
C58	C	0.633385	-0.438122	-0.112934
C59	C	0.633388	-0.376217	-0.112948
N60	N	0.672331	-0.345250	-0.074018
C61	C	0.711279	-0.376201	-0.035088
C62	C	0.633410	-0.753916	-0.112929
C63	C	0.633418	-0.815834	-0.112932
C64	C	0.711312	-0.815818	-0.035068
C65	C	0.711307	-0.753899	-0.035069
C66	C	0.672353	-0.722949	-0.074000
C67	C	0.711272	-0.246173	-0.035102
C68	C	0.711267	-0.184252	-0.035112
C69	C	0.633371	-0.184274	-0.112973
C70	C	0.633377	-0.246190	-0.112965
C71	C	0.672330	-0.277138	-0.074024
O72	O	0.600295	-0.344152	-0.146051
O73	O	0.744393	-0.344167	-0.001976
C74	C	0.776489	-0.000054	-0.069258
C75	C	0.839708	-0.000055	-0.070014
C76	C	0.677086	-0.000059	0.030126
C77	C	0.676320	-0.000063	0.093343
N78	N	0.672364	0.153209	-0.073998
C79	C	0.667592	-0.000032	-0.178171
C80	C	0.668358	-0.000023	-0.241388
C81	C	0.723555	-0.000035	0.492454
C82	C	0.722844	-0.000030	0.551854
O83	O	0.766630	-0.000013	0.588606
N84	N	0.670566	-0.000026	0.574471
C85	C	0.618997	-0.000020	0.537685
O86	O	0.574465	-0.000016	0.562377
C87	C	0.619709	-0.000021	0.478286
C88	C	0.671990	-0.000031	0.455672
C89	C	0.775832	-0.000045	0.469839
C90	C	0.776543	-0.000050	0.410443
C91	C	0.724977	-0.000046	0.373662
C92	C	0.672701	-0.000037	0.396276
C93	C	0.568140	-0.000011	0.441501
C94	C	0.568857	-0.000011	0.382099
C95	C	0.621137	-0.000021	0.359485
C96	C	0.621847	-0.000038	0.300099
N97	N	0.674124	-0.000043	0.277481
C98	C	0.725690	-0.000047	0.314263
C99	C	0.617505	-0.000019	0.662427
C100	C	0.616793	-0.000023	0.721825
C101	C	0.720640	-0.000032	0.735990
C102	C	0.721352	-0.000032	0.676591
C103	C	0.669783	-0.000023	0.639810
C104	C	0.727179	-0.000059	0.189526
C105	C	0.727886	-0.000067	0.130124
C106	C	0.624039	-0.000055	0.115965
C107	C	0.623332	-0.000050	0.175361
C108	C	0.674907	-0.000050	0.212141
O109	O	0.578083	-0.000054	0.263312
O110	O	0.770214	-0.000043	0.289562
H111	H	-0.047016	0.097246	-0.071359
C112	C	0.551588	-0.435042	-0.194688
H113	H	0.557159	-0.393730	-0.189116
H114	H	0.557554	-0.445193	-0.232665
H115	H	0.513615	-0.445195	-0.188695
H116	H	0.601667	-0.271401	-0.144669
H117	H	0.118445	-0.150953	-0.073372
C118	C	0.793088	-0.435015	0.046652
H119	H	0.787521	-0.393704	0.041073
H120	H	0.787135	-0.445158	0.084636
H121	H	0.831056	-0.445170	0.040646
H122	H	0.763923	-0.000040	0.658183
H123	H	0.562721	-0.556212	-0.183564
H124	H	0.769176	-0.000057	0.219466
H125	H	0.582056	-0.000054	0.086007
H126	H	0.601662	-0.159064	-0.144671
H127	H	0.742986	-0.159043	-0.003411
C128	C	-0.163261	-0.112660	-0.069944
H129	H	-0.202886	-0.104976	-0.069446
H130	H	-0.158081	-0.134725	-0.103263
H131	H	-0.148976	-0.134663	-0.036828
H132	H	0.770461	-0.000077	0.111716
C133	C	0.109990	0.166192	-0.073231
H134	H	0.136194	0.198123	-0.073535
H135	H	0.082280	0.168438	-0.106163
H136	H	0.091360	0.168412	-0.039728
C137	C	0.834052	-0.000050	0.385575
H138	H	0.864656	-0.000045	0.415995
H139	H	0.836493	-0.034352	0.362698
H140	H	0.836492	0.034259	0.362701
H141	H	-0.047016	-0.097340	-0.071399
H142	H	0.391696	0.097259	-0.076653
H143	H	-0.154766	0.097237	-0.070071
C144	C	0.832559	-0.000054	0.510291
H145	H	0.863790	-0.000064	0.488306
H146	H	0.834455	0.034247	0.533761
H147	H	0.834435	-0.034364	0.533753
H148	H	0.226217	0.150874	-0.074642
H149	H	0.742989	-0.271365	-0.003392
H150	H	0.580761	-0.000058	0.193774
C151	C	0.754149	-0.849872	0.007761
H152	H	0.748566	-0.891183	0.002188
H153	H	0.792124	-0.839725	0.001781
H154	H	0.748173	-0.839725	0.045739
H155	H	0.781951	-0.556182	0.035554
H156	H	0.762627	-0.000032	0.765949
H157	H	0.574220	-0.000024	0.740232
C158	C	0.512131	-0.000001	0.341640
H159	H	0.520038	-0.000000	0.303024
H160	H	0.490672	-0.034300	0.348467
H161	H	0.490690	0.034312	0.348465
C162	C	0.234678	-0.166275	-0.074776
H163	H	0.208475	-0.198205	-0.074458
H164	H	0.253314	-0.168506	-0.108271
H165	H	0.262383	-0.168512	-0.041836
H166	H	0.499461	0.097256	-0.077952
C167	C	0.560775	-0.000020	0.621973
H168	H	0.529543	-0.000023	0.643954
H169	H	0.558893	0.034282	0.598504
H170	H	0.558889	-0.034330	0.598510
H171	H	0.743022	-0.728691	-0.003370
C172	C	0.590574	-0.849888	-0.155753
H173	H	0.567376	-0.822581	-0.178934
H174	H	0.610919	-0.874045	-0.179356
H175	H	0.566983	-0.874040	-0.135382
C176	C	0.510632	0.000008	0.466366
H177	H	0.517584	0.000006	0.507010
H178	H	0.489427	0.034316	0.453714
H179	H	0.489406	-0.034295	0.453719
C180	C	0.507922	-0.112641	-0.078085
H181	H	0.481721	-0.144573	-0.077769
H182	H	0.526562	-0.114871	-0.111578
H183	H	0.535624	-0.114874	-0.045142
H184	H	0.391689	-0.097326	-0.076678
H185	H	0.601691	-0.728720	-0.144636
