data_functionalizedCrystal
_audit_creation_method	'MofGen! by Chris Wilmer'
_symmetry_space_group_name_H-M	'P1'
_symmetry_Int_Tables_number	1
_symmetry_cell_setting	triclinic
loop_
_symmetry_equiv_pos_as_xyz
  x,y,z
_cell_length_a	14.560438
_cell_length_b	20.875641
_cell_length_c	14.560438
_cell_angle_alpha	89.998537
_cell_angle_beta	59.995857
_cell_angle_gamma	57.590953
loop_
_atom_site_label
_atom_site_type_symbol
_atom_site_fract_x
_atom_site_fract_y
_atom_site_fract_z
Zr1	Zr	0.937906	0.641481	-0.086899
O2	O	1.140690	0.535158	-0.239144
O3	O	0.742872	0.674074	-0.040219
O4	O	0.934484	0.674075	-0.231835
O5	O	0.949076	0.535158	0.103614
O6	O	0.922969	0.783655	-0.226080
O7	O	0.949079	0.535158	-0.047527
O8	O	0.580211	0.783654	0.116687
O9	O	1.291834	0.535159	-0.239154
O10	O	0.811629	0.769754	-0.016026
O11	O	0.820221	0.687975	0.092474
O12	O	1.045818	0.687976	-0.133130
O13	O	1.054410	0.606198	-0.024630
Zr14	Zr	0.919537	0.816249	0.163333
Zr15	Zr	0.919541	0.816249	-0.077719
Zr16	Zr	0.937902	0.641481	0.154154
Zr17	Zr	1.178963	0.641482	-0.086914
Zr18	Zr	0.678480	0.816248	0.163348
O19	O	1.114571	0.783656	0.116653
O20	O	1.114577	0.783656	-0.226092
O21	O	1.140684	0.535159	0.103601
O22	O	0.716753	0.922572	0.315578
O23	O	0.716759	0.922572	-0.027167
O24	O	0.742866	0.674074	0.302526
O25	O	0.908367	0.922573	-0.027179
O26	O	0.922959	0.783656	0.308270
O27	O	0.934474	0.674075	0.302514
O28	O	0.908365	0.922573	0.123961
O29	O	1.277236	0.674077	-0.231857
O30	O	0.580207	0.783654	0.308292
O31	O	0.565609	0.922571	0.315588
O32	O	0.565613	0.922571	0.123983
O33	O	1.291830	0.535159	-0.047549
O34	O	1.277232	0.674077	-0.040253
O35	O	0.811625	0.769754	0.209564
O36	O	0.803033	0.851533	0.101064
O37	O	1.037223	0.769755	-0.016040
O38	O	1.045814	0.687977	0.092460
C39	C	0.627196	0.728864	0.038236
C40	C	0.524861	0.728863	0.038243
C41	C	0.566421	0.668493	-0.048210
C42	C	0.470281	0.668496	-0.048239
C43	C	0.291022	0.789244	0.124649
C44	C	0.387161	0.789243	0.124672
C45	C	0.951694	0.510257	0.026735
C46	C	0.959490	0.436063	0.022838
C47	C	0.840912	0.443892	0.082129
C48	C	0.848246	0.374176	0.078465
C49	C	0.974159	0.296633	0.015503
C50	C	1.092747	0.288806	-0.043789
C51	C	1.085412	0.358521	-0.040118
C52	C	1.009205	0.083555	-0.002025
C53	C	1.016531	0.013838	-0.005695
C54	C	0.772029	0.099214	0.116562
C55	C	0.764706	0.168926	0.120222
C56	C	0.883293	0.161093	0.060934
N57	N	0.981658	0.225371	0.011753
N58	N	0.875792	0.232354	0.064691
C59	C	1.230247	0.728867	0.038198
C60	C	1.332582	0.728867	0.038191
C61	C	0.928727	0.728865	-0.263303
C62	C	0.928729	0.728865	-0.365636
C63	C	0.905749	0.947473	0.049699
C64	C	0.897953	1.021667	0.053596
C65	C	0.922386	0.789233	-0.410541
C66	C	0.922374	0.789236	-0.506687
C67	C	0.935053	0.668494	-0.513017
C68	C	0.935056	0.668495	-0.416868
C69	C	0.928716	0.728866	0.339737
C70	C	0.928714	0.728866	0.442070
C71	C	0.604224	0.947472	0.049718
C72	C	0.494092	1.021665	0.053622
C73	C	0.627191	0.728864	0.339756
C74	C	0.524854	0.728863	0.442095
C75	C	0.604219	0.947472	0.351238
C76	C	0.494085	1.021665	0.457474
C77	C	1.253225	0.510258	-0.274804
C78	C	1.363358	0.436065	-0.381040
C79	C	1.253219	0.510259	0.026716
C80	C	1.363351	0.436066	0.022813
C81	C	1.230252	0.728867	-0.263322
C82	C	1.332589	0.728867	-0.365661
C83	C	0.446860	1.013819	-0.005675
C84	C	0.343394	1.083525	-0.002031
C85	C	0.287155	1.161075	0.060918
C86	C	0.334397	1.168919	0.120217
C87	C	0.437868	1.099215	0.116565
C88	C	0.437880	1.099202	0.450729
C89	C	0.334411	1.168921	0.550540
C90	C	0.287142	1.161102	0.657096
C91	C	0.343358	1.083557	0.663839
C92	C	0.446832	1.013839	0.564029
C93	C	1.419575	0.358528	-0.374295
C94	C	1.523074	0.288809	-0.474106
C95	C	1.570348	0.296629	-0.580662
C96	C	1.514126	0.374174	-0.587405
C97	C	1.410635	0.443891	-0.487594
C98	C	1.410593	0.443911	0.082099
C99	C	1.514086	0.374206	0.078428
C100	C	1.570328	0.296655	0.015476
C101	C	1.523082	0.288811	-0.043818
C102	C	1.419597	0.358516	-0.040153
C103	C	0.472287	0.771550	0.551295
C104	C	0.376141	0.771540	0.647449
C105	C	0.385133	0.686156	0.525192
C106	C	0.481285	0.686162	0.429039
H107	H	0.504131	0.619338	-0.118639
C108	C	0.915397	0.855639	-0.556083
H109	H	0.916286	0.847000	-0.620676
H110	H	0.990997	0.853136	-0.578135
H111	H	0.834578	0.907756	-0.499908
H112	H	1.119070	-0.049303	-0.056971
C113	C	0.173325	1.237793	0.766881
H114	H	0.153224	1.222037	0.831313
H115	H	0.094995	1.269332	0.768541
H116	H	0.201557	1.269319	0.768522
C117	C	0.942031	0.602087	-0.569384
H118	H	0.941136	0.610726	-0.633086
H119	H	0.866435	0.604588	-0.515824
H120	H	1.022854	0.549972	-0.594037
C121	C	0.641592	0.107829	0.181784
H122	H	0.565554	0.163995	0.219802
H123	H	0.639370	0.082405	0.236161
H124	H	0.639368	0.082412	0.129620
C125	C	1.367607	0.349911	-0.257097
H126	H	1.415935	0.293743	-0.267391
H127	H	1.274158	0.375323	-0.215789
H128	H	1.380703	0.375336	-0.215815
C129	C	0.508713	0.928521	-0.074926
H130	H	0.577098	0.888123	-0.068610
H131	H	0.546873	0.922407	-0.152710
H132	H	0.440320	0.922407	-0.046165
H133	H	0.662173	0.232062	0.171470
C134	C	0.942038	0.602085	-0.367471
H135	H	0.945826	0.566124	-0.411762
H136	H	0.864099	0.626886	-0.290987
H137	H	1.020518	0.572266	-0.369209
C138	C	1.584948	0.203503	-0.113051
H139	H	1.653332	0.163120	-0.106724
H140	H	1.623111	0.197372	-0.190840
H141	H	1.516560	0.197383	-0.084275
C142	C	0.291433	1.074882	-0.067248
H143	H	0.339734	1.018711	-0.105240
H144	H	0.304529	1.100288	-0.121647
H145	H	0.197976	1.100302	-0.015080
C146	C	0.291341	1.074966	0.781054
H147	H	0.221655	1.127596	0.839522
H148	H	0.363392	1.046002	0.787987
H149	H	0.256850	1.046011	0.787973
C150	C	0.173329	1.237743	0.064938
H151	H	0.153251	1.221956	0.020614
H152	H	0.201515	1.269288	0.035070
H153	H	0.094980	1.269276	0.141617
H154	H	1.552630	0.380531	-0.674174
C155	C	0.272515	1.254227	0.189465
H156	H	0.204117	1.294611	0.183152
H157	H	0.340880	1.260360	0.160725
H158	H	0.234337	1.260345	0.267258
C159	C	1.566042	0.382845	0.143652
H160	H	1.635743	0.330228	0.132447
H161	H	1.493968	0.411807	0.222639
H162	H	1.600497	0.411819	0.116088
H163	H	0.507763	0.806317	0.561931
H164	H	1.568833	0.225676	-0.468594
C165	C	1.367623	0.349880	-0.105357
H166	H	1.297939	0.402496	-0.094170
H167	H	1.333171	0.320907	-0.077791
H168	H	1.439703	0.320914	-0.184349
C169	C	0.489816	1.107851	0.181795
H170	H	0.559503	1.055235	0.170604
H171	H	0.417733	1.136823	0.260778
H172	H	0.524287	1.136816	0.154223
C173	C	0.508642	0.928551	0.571457
H174	H	0.577045	0.888144	0.496758
H175	H	0.440240	0.922451	0.611101
H176	H	0.546798	0.922440	0.611085
H177	H	0.288650	1.232055	0.545030
C178	C	1.348791	0.529177	-0.495029
H179	H	1.391765	0.523841	-0.572787
H180	H	1.361486	0.558164	-0.458450
H181	H	1.254967	0.558137	-0.458455
H182	H	1.364808	0.507051	0.133369
H183	H	0.476350	1.105584	0.363975
C184	C	0.341445	0.855652	0.219778
H185	H	0.245669	0.891605	0.271258
H186	H	0.372369	0.885468	0.187147
H187	H	0.378082	0.830846	0.259615
H188	H	1.181971	0.352142	-0.088385
C189	C	1.684168	0.219935	-0.690443
H190	H	1.710858	0.172640	-0.671155
H191	H	1.759205	0.219916	-0.733961
H192	H	1.652639	0.219928	-0.733931
C193	C	0.539117	0.639204	0.308911
H194	H	0.602633	0.645317	0.253518
H195	H	0.467884	0.660279	0.301577
H196	H	0.582545	0.583039	0.297523
H197	H	0.333347	0.806299	0.736361
H198	H	1.654591	0.239904	0.012501
C199	C	0.139558	0.855650	0.219722
H200	H	0.088252	0.847000	0.207335
H201	H	0.115626	0.907765	0.219015
H202	H	0.121352	0.853139	0.291478
C203	C	0.702406	0.529184	0.151394
H204	H	0.632837	0.523859	0.186190
H205	H	0.694453	0.558162	0.102106
H206	H	0.694469	0.558147	0.208641
C207	C	0.717809	0.382791	0.143675
H208	H	0.641770	0.438957	0.181684
H209	H	0.715573	0.357371	0.198058
H210	H	0.715601	0.357369	0.091502
H211	H	0.349645	0.651391	0.514575
H212	H	1.105767	0.077166	-0.050322
C213	C	0.717884	0.602084	-0.143281
H214	H	0.769194	0.610723	-0.130882
H215	H	0.736101	0.604586	-0.215036
H216	H	0.741806	0.549968	-0.142562
C217	C	1.231252	0.203513	-0.113042
H218	H	1.300822	0.208837	-0.147818
H219	H	1.239203	0.174541	-0.170286
H220	H	1.239187	0.174545	-0.063736
C221	C	0.915409	0.855642	-0.354180
H222	H	0.911616	0.891600	-0.394691
H223	H	0.993348	0.830848	-0.355645
H224	H	0.836930	0.885464	-0.277430
