data_functionalizedCrystal
_audit_creation_method	'MofGen! by Chris Wilmer'
_symmetry_space_group_name_H-M	'P1'
_symmetry_Int_Tables_number	1
_symmetry_cell_setting	triclinic
loop_
_symmetry_equiv_pos_as_xyz
  x,y,z
_cell_length_a	10.489746
_cell_length_b	15.500215
_cell_length_c	10.489741
_cell_angle_alpha	86.843495
_cell_angle_beta	95.459762
_cell_angle_gamma	93.153996
loop_
_atom_site_label
_atom_site_type_symbol
_atom_site_fract_x
_atom_site_fract_y
_atom_site_fract_z
O1	O	1.699384	0.071886	-0.185333
O2	O	2.199384	0.571886	0.314667
O3	O	1.328190	0.071900	-0.202220
O4	O	1.828190	0.571900	0.297780
O5	O	1.522233	0.071888	-0.008178
O6	O	2.022233	0.571888	0.491822
O7	O	1.505341	0.071899	-0.379374
O8	O	2.005341	0.571899	0.120626
O9	O	1.511539	-0.072002	0.002503
O10	O	2.011539	0.427998	0.502503
O11	O	1.317496	-0.071989	-0.191538
O12	O	1.817496	0.428011	0.308462
O13	O	1.688690	-0.072003	-0.174651
O14	O	2.188690	0.427997	0.325349
Cu15	Cu	1.502117	-0.085134	-0.182120
Cu16	Cu	2.002117	0.414866	0.317880
Cu17	Cu	1.514763	0.085031	-0.194752
Cu18	Cu	2.014763	0.585031	0.305248
O19	O	1.494647	-0.071991	-0.368693
O20	O	1.994647	0.428009	0.131307
C21	C	1.275312	-0.000042	-0.195602
C22	C	1.775312	0.499958	0.304398
C23	C	1.133683	-0.000037	-0.191783
C24	C	1.633683	0.499963	0.308217
C25	C	0.980824	-0.000053	-0.066058
C26	C	1.480824	0.499947	0.433942
C27	C	1.052946	-0.070993	-0.123649
C28	C	1.552946	0.429007	0.376351
C29	C	1.063444	0.070870	-0.134209
C30	C	1.563444	0.570870	0.365791
C31	C	0.953449	-0.071058	-0.242626
C32	C	1.453449	0.428942	0.257374
C33	C	0.963947	0.070870	-0.253173
C34	C	1.463947	0.570870	0.246827
C35	C	1.036019	-0.000088	-0.310850
C36	C	1.536019	0.499912	0.189150
N37	N	1.493231	-0.204820	-0.173234
N38	N	1.993231	0.295180	0.326766
C39	C	1.567942	-0.250093	-0.248000
C40	C	2.067942	0.249907	0.252000
C41	C	1.561239	-0.340666	-0.241272
C42	C	2.061239	0.159334	0.258728
C43	C	1.479817	-0.385964	-0.159785
C44	C	1.979817	0.114036	0.340215
C45	C	1.405104	-0.340684	-0.085011
C46	C	1.905104	0.159316	0.414989
C47	C	1.411815	-0.250113	-0.091732
C48	C	1.911815	0.249887	0.408268
C49	C	1.455656	-0.659432	-0.135575
C50	C	1.955656	-0.159432	0.364425
C51	C	1.448948	-0.750010	-0.128861
C52	C	1.948948	-0.250010	0.371139
C53	C	1.605086	-0.749986	-0.285122
C54	C	2.105086	-0.249986	0.214878
C55	C	1.611784	-0.659413	-0.291842
C56	C	2.111784	-0.159413	0.208158
C57	C	1.537075	-0.614140	-0.217063
C58	C	2.037075	-0.114140	0.282937
C59	C	1.472961	-0.478544	-0.152909
C60	C	1.972961	0.021456	0.347091
C61	C	1.543939	-0.521562	-0.223933
C62	C	2.043939	-0.021562	0.276067
C63	C	1.741569	-0.000059	-0.181269
C64	C	2.241569	0.499941	0.318731
C65	C	1.883198	-0.000058	-0.185089
C66	C	2.383198	0.499942	0.314911
C67	C	1.515610	-0.000056	0.044694
C68	C	2.015610	0.499944	0.544694
C69	C	1.511793	-0.000055	0.186324
C70	C	2.011793	0.499945	0.686324
N71	N	1.523659	0.204717	-0.203627
N72	N	2.023659	0.704717	0.296373
C73	C	1.501270	-0.000045	-0.421565
C74	C	2.001270	0.499955	0.078435
C75	C	1.505088	-0.000041	-0.563195
C76	C	2.005088	0.499959	-0.063195
C77	C	1.388330	-0.000044	0.254465
C78	C	1.888330	0.499956	0.754465
C79	C	1.441380	-0.070991	0.351853
C80	C	1.941380	0.429009	0.851853
C81	C	1.451953	0.070873	0.341297
C82	C	1.951953	0.570873	0.841297
C83	C	1.564890	-0.071060	0.281851
C84	C	2.064890	0.428940	0.781851
C85	C	1.575450	0.070867	0.271280
C86	C	2.075450	0.570867	0.771280
C87	C	1.628589	-0.000098	0.368642
C88	C	2.128589	0.499902	0.868642
H89	H	0.905708	-0.131102	-0.288383
H90	H	1.405708	0.368898	0.211617
H91	H	1.610237	-0.484677	-0.290275
H92	H	2.110237	0.015323	0.209725
H93	H	1.091965	-0.130973	-0.068948
H94	H	1.591965	0.369027	0.431052
F95	F	1.362285	-0.798217	-0.042126
F96	F	1.862285	-0.298217	0.457874
F97	F	1.376105	-0.611261	-0.056026
F98	F	1.876105	-0.111261	0.443974
H99	H	1.404155	0.130859	0.367809
H100	H	1.904155	0.630859	0.867809
F101	F	1.367275	-0.149385	0.398209
F102	F	1.867275	0.350615	0.898209
F103	F	1.332307	-0.201929	-0.012146
F104	F	1.832307	0.298071	0.487854
H105	H	1.111345	0.130846	-0.088390
H106	H	1.611345	0.630846	0.411610
F107	F	1.654600	-0.201892	-0.334734
F108	F	2.154600	0.298108	0.165266
F109	F	1.068006	-0.000130	-0.446233
F110	F	1.568006	0.499870	0.053767
H111	H	1.406666	-0.515436	-0.086562
H112	H	1.906666	-0.015436	0.413438
H113	H	1.678089	-0.622537	-0.358194
H114	H	2.178089	-0.122537	0.141806
F115	F	0.912912	0.149271	-0.324614
F116	F	1.412912	0.649271	0.175386
H117	H	1.622079	-0.377524	-0.302152
H118	H	2.122079	0.122476	0.197848
H119	H	1.730189	-0.000141	0.418067
H120	H	2.230189	0.499859	0.918067
H121	H	1.338815	-0.377573	-0.018655
H122	H	1.838815	0.122427	0.481345
H123	H	1.286813	-0.000111	0.204821
H124	H	1.786813	0.499889	0.704821
F125	F	1.684591	-0.798174	-0.364700
F126	F	2.184591	-0.298174	0.135300
F127	F	1.649503	0.149265	0.224879
F128	F	2.149503	0.649265	0.724879
F129	F	0.948501	-0.000148	0.069230
F130	F	1.448501	0.499852	0.569230
F131	F	1.627285	-0.149546	0.247382
F132	F	2.127285	0.350454	0.747382
