data_functionalizedCrystal
_audit_creation_method	'MofGen! by Chris Wilmer'
_symmetry_space_group_name_H-M	'P1'
_symmetry_Int_Tables_number	1
_symmetry_cell_setting	triclinic
loop_
_symmetry_equiv_pos_as_xyz
  x,y,z
_cell_length_a	15.995300
_cell_length_b	15.944493
_cell_length_c	14.472310
_cell_angle_alpha	90.005307
_cell_angle_beta	89.984180
_cell_angle_gamma	83.473426
loop_
_atom_site_label
_atom_site_type_symbol
_atom_site_fract_x
_atom_site_fract_y
_atom_site_fract_z
O1	O	1.111008	0.108065	-0.076863
O2	O	1.611008	0.608065	0.423137
O3	O	0.867225	0.121479	-0.076856
O4	O	1.367225	0.621479	0.423144
O5	O	0.995799	-0.007508	-0.076867
O6	O	1.495799	0.492492	0.423133
O7	O	0.982434	0.237052	-0.076851
O8	O	1.482434	0.737052	0.423149
O9	O	0.995763	-0.007499	0.076815
O10	O	1.495763	0.492501	0.576815
O11	O	0.867189	0.121488	0.076826
O12	O	1.367189	0.621488	0.576826
O13	O	1.110972	0.108074	0.076819
O14	O	1.610972	0.608074	0.576819
Cu15	Cu	0.989077	0.114782	0.090855
Cu16	Cu	1.489077	0.614782	0.590855
Cu17	Cu	0.989120	0.114771	-0.090891
Cu18	Cu	1.489120	0.614771	0.409109
O19	O	0.982398	0.237061	0.076831
O20	O	1.482398	0.737061	0.576831
C21	C	0.836011	0.120937	-0.000014
C22	C	1.336011	0.620937	0.499986
C23	C	0.743059	0.119296	-0.000012
C24	C	1.243059	0.619296	0.499988
C25	C	0.572876	0.116267	-0.000019
C26	C	1.072876	0.616267	0.499981
C27	C	0.525397	0.208109	-0.000011
C28	C	1.025397	0.708109	0.499989
C29	C	0.428709	0.206433	-0.000362
C30	C	0.928709	0.706433	0.499638
C31	C	0.405320	0.113286	-0.000025
C32	C	0.905320	0.613286	0.499975
C33	C	0.446481	0.067715	-0.087615
C34	C	0.946481	0.567715	0.412385
C35	C	0.543114	0.070039	-0.087686
C36	C	1.043114	0.570039	0.412314
C37	C	0.543352	0.068690	0.087085
C38	C	1.043352	0.568690	0.587085
C39	C	0.446407	0.068698	0.088234
C40	C	0.946407	0.568698	0.588234
C41	C	0.310625	0.111596	-0.000032
C42	C	0.810625	0.611596	0.499968
C43	C	0.667572	0.117954	-0.000019
C44	C	1.167572	0.617954	0.499981
C45	C	0.995235	-0.038798	-0.000030
C46	C	1.495235	0.461202	0.499970
C47	C	0.993597	-0.132046	-0.000042
C48	C	1.493597	0.367954	0.499958
C49	C	1.069278	-0.367824	-0.000026
C50	C	1.569278	0.132176	0.499974
C51	C	1.028484	-0.418387	-0.075798
C52	C	1.528484	0.081613	0.424202
C53	C	0.990562	-0.302766	-0.000030
C54	C	1.490562	0.197234	0.499970
C55	C	1.028430	-0.418354	0.075721
C56	C	1.528430	0.081646	0.575721
C57	C	0.987637	-0.467675	-0.000015
C58	C	1.487637	0.032325	0.499985
C59	C	0.949789	-0.352101	-0.075864
C60	C	1.449789	0.147899	0.424136
C61	C	0.949747	-0.352065	0.075722
C62	C	1.449747	0.147935	0.575722
C63	C	0.908895	-0.402595	-0.000068
C64	C	1.408895	0.097405	0.499932
C65	C	0.992250	-0.207767	-0.000040
C66	C	1.492250	0.292233	0.499960
C67	C	0.985943	-0.562672	-0.000012
C68	C	1.485943	-0.062672	0.499988
C69	C	1.142185	0.108616	-0.000024
C70	C	1.642185	0.608616	0.499976
C71	C	1.235138	0.110257	-0.000032
C72	C	1.735138	0.610257	0.499968
C73	C	0.982962	0.268351	-0.000008
C74	C	1.482962	0.768351	0.499992
C75	C	0.984600	0.361599	-0.000003
C76	C	1.484600	0.861599	0.499997
N77	N	0.989053	0.114789	0.218686
N78	N	1.489053	0.614789	0.718686
C79	C	0.989105	0.114775	0.592777
C80	C	1.489105	0.614775	1.092777
C81	C	0.920077	0.183561	0.553618
C82	C	1.420077	0.683561	1.053618
C83	C	0.920239	0.183811	0.446530
C84	C	1.420239	0.683811	0.946530
C85	C	0.989078	0.114782	0.407186
C86	C	1.489078	0.614782	0.907186
C87	C	1.076441	0.133909	0.446023
C88	C	1.576441	0.633909	0.946023
C89	C	1.076051	0.134400	0.553144
C90	C	1.576051	0.634400	1.053144
C91	C	0.971549	0.026656	0.553302
C92	C	1.471549	0.526656	1.053302
C93	C	0.969548	0.027243	0.446174
C94	C	1.469548	0.527243	0.946174
C95	C	0.989069	0.114784	0.302298
C96	C	1.489069	0.614784	0.802298
C97	C	0.989120	0.114774	0.697666
C98	C	1.489120	0.614774	1.197666
N99	N	0.989130	0.114768	0.781278
N100	N	1.489130	0.614768	1.281278
H101	H	0.561443	0.102874	-0.153404
H102	H	1.061443	0.602874	0.346596
N103	N	0.548557	0.254435	0.078763
N104	N	1.048557	0.754435	0.578763
N105	N	0.517025	0.329052	0.090546
N106	N	1.017025	0.829052	0.590546
H107	H	0.533384	0.361772	0.146184
H108	H	1.033384	0.861772	0.646184
N109	N	1.154330	-0.348219	-0.000107
N110	N	1.654330	0.151781	0.499893
N111	N	1.180584	-0.306815	0.064975
N112	N	1.680584	0.193185	0.564975
H113	H	1.240650	-0.292968	0.064916
H114	H	1.740650	0.207032	0.564916
H115	H	0.575398	0.002599	-0.091433
H116	H	1.075398	0.502599	0.408567
N117	N	0.428806	-0.018145	-0.091390
N118	N	0.928806	0.481855	0.408610
N119	N	0.385572	-0.046775	-0.029420
N120	N	0.885572	0.453225	0.470580
H121	H	0.373088	-0.107414	-0.032083
H122	H	0.873088	0.392586	0.467917
H123	H	0.419047	0.101977	0.153034
H124	H	0.919047	0.601977	0.653034
H125	H	0.563832	0.098930	0.153494
H126	H	1.063832	0.598930	0.653494
N127	N	0.583235	-0.016254	0.088166
N128	N	1.083235	0.483746	0.588166
N129	N	0.568128	-0.064994	0.152148
N130	N	1.068128	0.435006	0.652148
H131	H	0.596298	-0.124984	0.152907
H132	H	1.096298	0.375016	0.652907
N133	N	1.070210	-0.454705	-0.156163
N134	N	1.570210	0.045295	0.343837
N135	N	1.146102	-0.446787	-0.169670
N136	N	1.646102	0.053213	0.330330
H137	H	1.175577	-0.472433	-0.226427
H138	H	1.675577	0.027567	0.273573
H139	H	0.916580	-0.323277	-0.139992
H140	H	1.416580	0.176723	0.360008
H141	H	0.841038	-0.418045	-0.000107
H142	H	1.341038	0.081955	0.499893
H143	H	0.916517	-0.323092	0.139787
H144	H	1.416517	0.176908	0.639787
H145	H	1.061674	-0.447289	0.139775
H146	H	1.561674	0.052711	0.639775
H147	H	1.129035	0.085140	0.420535
H148	H	1.629035	0.585140	0.920535
H149	H	0.855300	0.172417	0.420275
H150	H	1.355300	0.672417	0.920275
H151	H	0.854927	0.172356	0.579406
H152	H	1.354927	0.672356	1.079406
H153	H	0.931449	0.249202	0.420899
H154	H	1.431449	0.749202	0.920899
H155	H	0.418106	0.098950	-0.153041
H156	H	0.918106	0.598950	0.346959
N157	N	0.427163	-0.016490	0.095202
N158	N	0.927163	0.483510	0.595202
N159	N	0.352293	-0.031440	0.100822
N160	N	0.852293	0.468560	0.600822
H161	H	0.338701	-0.091607	0.105737
H162	H	0.838701	0.408393	0.605737
H163	H	1.092285	0.197440	0.419189
H164	H	1.592285	0.697440	0.919189
N165	N	0.933948	0.265129	0.587386
N166	N	1.433948	0.765129	1.087386
N167	N	0.994450	0.272821	0.640168
N168	N	1.494450	0.772821	1.140168
H169	H	1.004250	0.330427	0.664019
H170	H	1.504250	0.830427	1.164019
N171	N	1.095465	0.215018	0.584473
N172	N	1.595465	0.715018	1.084473
N173	N	1.109205	0.270530	0.527223
N174	N	1.609205	0.770530	1.027223
H175	H	1.122916	0.327470	0.549344
H176	H	1.622916	0.827470	1.049344
H177	H	1.129020	0.086273	0.579046
H178	H	1.629020	0.586273	1.079046
H179	H	0.400871	0.242079	-0.063512
H180	H	0.900871	0.742079	0.436488
H181	H	0.909227	0.008261	0.580370
H182	H	1.409227	0.508261	1.080370
H183	H	0.905283	0.012727	0.420793
H184	H	1.405283	0.512727	0.920793
N185	N	1.028523	-0.039976	0.412569
N186	N	1.528523	0.460024	0.912569
N187	N	1.086169	-0.024388	0.359104
N188	N	1.586169	0.475612	0.859104
H189	H	1.127827	-0.071859	0.335369
H190	H	1.627827	0.428141	0.835369
N191	N	1.034700	-0.037553	0.585074
N192	N	1.534700	0.462447	1.085074
N193	N	1.092416	-0.018616	0.636565
N194	N	1.592416	0.481384	1.136565
H195	H	1.137018	-0.063957	0.659010
H196	H	1.637018	0.436043	1.159010
H197	H	0.400226	0.242241	0.062412
H198	H	0.900226	0.742241	0.562412
H199	H	0.545015	0.244464	-0.062724
H200	H	1.045015	0.744464	0.437276
