data_functionalizedCrystal
_audit_creation_method	'MofGen! by Chris Wilmer'
_symmetry_space_group_name_H-M	'P1'
_symmetry_Int_Tables_number	1
_symmetry_cell_setting	triclinic
loop_
_symmetry_equiv_pos_as_xyz
  x,y,z
_cell_length_a	17.052750
_cell_length_b	21.606444
_cell_length_c	21.606444
_cell_angle_alpha	60.001331
_cell_angle_beta	77.685742
_cell_angle_gamma	53.476807
loop_
_atom_site_label
_atom_site_type_symbol
_atom_site_fract_x
_atom_site_fract_y
_atom_site_fract_z
Zr1	Zr	0.773217	0.677464	-0.211376
O2	O	0.645047	0.806584	-0.288621
O3	O	0.812509	0.548345	-0.187700
O4	O	0.812499	0.677469	-0.316816
O5	O	0.645064	0.677456	-0.057651
O6	O	0.944587	0.677471	-0.339054
O7	O	0.645057	0.677460	-0.159504
O8	O	0.944605	0.446492	-0.108088
O9	O	0.645046	0.908435	-0.288617
O10	O	0.927841	0.601455	-0.194194
O11	O	0.829270	0.601450	-0.101587
O12	O	0.829258	0.753476	-0.253605
O13	O	0.730688	0.753471	-0.160997
Zr14	Zr	0.983892	0.677460	-0.084399
Zr15	Zr	0.983882	0.677467	-0.246843
Zr16	Zr	0.773228	0.677457	-0.048933
Zr17	Zr	0.773215	0.839904	-0.211371
Zr18	Zr	0.983895	0.515020	-0.084405
O19	O	0.944600	0.806579	-0.108076
O20	O	0.944585	0.806589	-0.339050
O21	O	0.645062	0.806574	-0.057647
O22	O	1.112062	0.548340	-0.007155
O23	O	1.112047	0.548350	-0.238129
O24	O	0.812524	0.548335	0.043274
O25	O	1.112045	0.677468	-0.238124
O26	O	0.944610	0.677456	0.021041
O27	O	0.812523	0.677453	0.043279
O28	O	1.112052	0.677464	-0.136271
O29	O	0.812496	0.908438	-0.316808
O30	O	0.944614	0.446486	0.021033
O31	O	1.112064	0.446489	-0.007158
O32	O	1.112055	0.446495	-0.136279
O33	O	0.645054	0.908430	-0.159496
O34	O	0.812504	0.908432	-0.187687
O35	O	0.927851	0.601448	-0.042171
O36	O	1.026422	0.601453	-0.134778
O37	O	0.927839	0.753475	-0.194189
O38	O	0.829268	0.753470	-0.101581
C39	C	0.878557	0.474274	-0.147895
C40	C	0.878558	0.405314	-0.147897
C41	C	0.615045	0.677458	-0.103524
C42	C	0.525613	0.677456	-0.088468
C43	C	0.930009	0.372919	-0.196238
C44	C	0.930012	0.308119	-0.196233
C45	C	0.878559	0.275720	-0.147891
C46	C	0.827107	0.308117	-0.099545
C47	C	0.827110	0.372912	-0.099547
C48	C	0.827095	0.046808	-0.099537
C49	C	0.827094	-0.017989	-0.099540
C50	C	0.929998	-0.017985	-0.196224
C51	C	0.930001	0.046810	-0.196225
C52	C	0.878553	0.079198	-0.147877
C53	C	0.878552	0.149461	-0.147882
C54	C	0.878554	0.205463	-0.147889
C55	C	0.483602	0.677451	-0.025279
C56	C	0.399572	0.677455	-0.011136
C57	C	0.357549	0.677458	-0.060177
C58	C	0.399564	0.677457	-0.123365
C59	C	0.483598	0.677460	-0.137512
C60	C	0.357545	0.677467	-0.172410
C61	C	0.399560	0.677467	-0.235598
C62	C	0.483586	0.677469	-0.249742
C63	C	0.525609	0.677466	-0.200701
C64	C	0.273511	0.677464	-0.158263
C65	C	0.273507	0.677474	-0.270496
C66	C	0.357537	0.677470	-0.284639
C67	C	1.142064	0.677467	-0.192251
C68	C	1.231497	0.677468	-0.207307
C69	C	0.878541	0.677471	-0.351080
C70	C	0.878537	0.677474	-0.420042
C71	C	0.878552	0.880650	-0.147881
C72	C	0.878551	0.949610	-0.147878
C73	C	0.827077	0.756827	-0.483452
C74	C	0.827086	0.756825	-0.548248
C75	C	0.878549	0.677468	-0.549632
C76	C	0.930015	0.598109	-0.486215
C77	C	0.930011	0.598112	-0.421421
C78	C	0.930030	0.598094	-0.747520
C79	C	0.930027	0.598096	-0.812321
C80	C	0.827105	0.756806	-0.874348
C81	C	0.827101	0.756809	-0.809554
C82	C	0.878571	0.677451	-0.746144
C83	C	0.878563	0.677454	-0.675885
C84	C	0.878552	0.677464	-0.619888
C85	C	0.878568	0.677453	0.055305
C86	C	0.878573	0.677450	0.124266
C87	C	1.142067	0.474279	-0.192258
C88	C	1.231500	0.405320	-0.207317
C89	C	0.878571	0.474265	0.055298
C90	C	0.878576	0.405302	0.124257
C91	C	1.142080	0.474270	0.010934
C92	C	1.231518	0.405308	0.064837
C93	C	0.615029	0.880655	-0.306710
C94	C	0.525591	0.949616	-0.360612
C95	C	0.615043	0.880646	-0.103517
C96	C	0.525609	0.949604	-0.088458
C97	C	0.878539	0.880659	-0.351073
C98	C	0.878533	0.949622	-0.420032
C99	C	1.222041	0.372937	-0.245410
C100	C	1.306065	0.308152	-0.259573
C101	C	1.399548	0.275747	-0.235638
C102	C	1.409005	0.308136	-0.197544
C103	C	1.324982	0.372924	-0.183385
C104	C	0.930037	0.372916	0.187662
C105	C	0.930038	0.308127	0.252464
C106	C	0.878584	0.275721	0.253857
C107	C	0.827117	0.308114	0.190445
C108	C	0.827111	0.372906	0.125646
C109	C	1.324981	0.372926	0.041809
C110	C	1.409025	0.308138	0.092449
C111	C	1.399605	0.275729	0.166116
C112	C	1.306133	0.308118	0.189145
C113	C	1.222090	0.372909	0.138505
C114	C	0.432129	0.982007	-0.337584
C115	C	0.348084	1.046814	-0.388224
C116	C	0.357504	1.079226	-0.461892
C117	C	0.450977	1.046833	-0.484920
C118	C	0.535019	0.982031	-0.434281
C119	C	0.535068	0.981994	-0.050372
C120	C	0.451044	1.046797	-0.036227
C121	C	0.357562	1.079205	-0.060164
C122	C	0.348104	1.046812	-0.098256
C123	C	0.432128	0.982015	-0.112405
C124	C	0.929997	0.982007	-0.421403
C125	C	0.930011	1.046797	-0.486195
C126	C	0.878555	1.079204	-0.549614
C127	C	0.827089	1.046813	-0.548241
C128	C	0.827082	0.982020	-0.483451
H129	H	0.971903	0.399298	-0.235607
Cl130	Cl	0.762366	0.941323	-0.481738
Cl131	Cl	1.526534	0.267384	-0.167455
H132	H	0.785211	0.399289	-0.060184
Cl133	Cl	1.336890	0.413620	-0.135488
Cl134	Cl	0.994713	0.498345	-0.487954
Cl135	Cl	0.536397	0.677483	-0.329183
Cl136	Cl	0.230588	1.087520	-0.359258
H137	H	0.785225	0.281720	0.191591
H138	H	0.971893	-0.044365	-0.235589
H139	H	0.611179	0.955613	-0.030872
Cl140	Cl	0.878571	1.160662	-0.631058
H141	H	0.971937	0.399293	0.186541
H142	H	0.289063	1.131992	-0.503118
H143	H	0.878598	0.222963	0.306625
Cl144	Cl	0.462956	1.087501	0.011664
H145	H	0.971908	0.281743	-0.235596
Cl146	Cl	0.762417	0.413608	0.045939
H147	H	0.971895	0.073190	-0.235592
H148	H	1.298346	0.281789	-0.290591
Cl149	Cl	0.762406	-0.058720	-0.038761
Cl150	Cl	0.420260	0.941273	-0.244977
Cl151	Cl	0.994730	0.498326	-0.814056
Cl152	Cl	1.294307	0.267366	0.281759
H153	H	0.971952	0.281760	0.304089
Cl154	Cl	0.462803	1.087586	-0.577534
H155	H	0.785184	0.821442	-0.599878
Cl156	Cl	1.505169	0.194295	-0.253442
Cl157	Cl	0.652512	0.941313	-0.463244
H158	H	0.971899	0.955631	-0.369771
H159	H	0.239310	0.677465	-0.106815
Cl160	Cl	1.336849	0.413660	-0.050799
H161	H	1.485127	0.281773	0.073686
H162	H	0.785191	0.821430	-0.808433
Cl163	Cl	0.762422	0.087514	-0.038753
H164	H	0.289152	1.131967	-0.048638
Cl165	Cl	0.762402	0.856573	-0.954069
H166	H	0.271980	1.073209	-0.117742
H167	H	1.468046	0.222972	0.207343
H168	H	0.971940	0.533475	-0.695898
Cl169	Cl	1.104597	0.413606	0.167468
H170	H	0.424412	0.955645	-0.143415
Cl171	Cl	0.994709	1.087509	-0.487903
Cl172	Cl	0.762437	0.267375	-0.038762
Cl173	Cl	0.251912	0.677459	-0.042395
H174	H	0.971915	0.533494	-0.369790
H175	H	1.145931	0.399321	-0.264912
H176	H	0.365366	0.677456	0.040310
H177	H	0.517818	0.677455	0.014642
Cl178	Cl	0.631255	0.677455	-0.218480
H179	H	0.391756	0.677470	-0.336088
Cl180	Cl	0.220681	0.677483	-0.332153
H181	H	0.785163	0.821449	-0.482333
Cl182	Cl	0.762395	1.087572	-0.627972
