data_functionalizedCrystal
_audit_creation_method	'MofGen! by Chris Wilmer'
_symmetry_space_group_name_H-M	'P1'
_symmetry_Int_Tables_number	1
_symmetry_cell_setting	triclinic
loop_
_symmetry_equiv_pos_as_xyz
  x,y,z
_cell_length_a	10.489711
_cell_length_b	19.288865
_cell_length_c	17.766277
_cell_angle_alpha	89.986610
_cell_angle_beta	89.997215
_cell_angle_gamma	83.831628
loop_
_atom_site_label
_atom_site_type_symbol
_atom_site_fract_x
_atom_site_fract_y
_atom_site_fract_z
O1	O	-1.691855	-0.097898	0.062631
O2	O	-1.320446	-0.107118	0.062628
O3	O	-1.516883	-0.001449	0.062615
O4	O	-1.495419	-0.203567	0.062644
O5	O	-1.516879	-0.001438	-0.062574
O6	O	-1.320443	-0.107107	-0.062561
O7	O	-1.691852	-0.097887	-0.062557
Cu8	Cu	-1.506147	-0.102496	-0.073990
Cu9	Cu	-1.506151	-0.102509	0.074060
O10	O	-1.495415	-0.203556	-0.062544
C11	C	-1.272928	-0.106421	0.000033
C12	C	-1.131343	-0.104350	0.000031
C13	C	-1.739370	-0.098585	0.000039
C14	C	-1.880955	-0.100655	0.000046
C15	C	-0.947520	-0.167896	0.000049
C16	C	-1.040385	-0.136160	0.061767
C17	C	-1.040355	-0.136132	-0.061659
C18	C	-0.971955	-0.068891	0.061816
C19	C	-0.971915	-0.068872	-0.061666
C20	C	-1.064754	-0.037086	0.000068
C21	C	-1.516190	0.024437	0.000018
C22	C	-1.514117	0.101555	0.000011
N23	N	-1.506155	-0.102513	0.178190
C24	C	-1.496108	-0.229443	0.000054
C25	C	-1.498181	-0.306560	0.000065
C26	C	-1.629377	0.145485	0.000009
C27	C	-1.627429	0.217945	0.000021
C28	C	-1.510215	0.246471	0.000020
C29	C	-1.394940	0.202532	0.000027
C30	C	-1.396891	0.130073	0.000023
C31	C	-1.418070	0.355375	-0.043832
C32	C	-1.416124	0.427833	-0.043832
C33	C	-1.504193	0.469957	0.000037
C34	C	-1.594230	0.439617	0.043896
C35	C	-1.596181	0.367158	0.043892
C36	C	-1.508086	0.325040	0.000025
C37	C	-1.617349	0.592457	0.000048
C38	C	-1.615396	0.664918	0.000065
C39	C	-1.382903	0.649503	0.000063
C40	C	-1.384859	0.577044	0.000054
C41	C	-1.502085	0.548525	0.000043
N42	N	-1.506153	-0.102487	-0.178120
C43	C	-1.593306	-0.055803	0.782473
C44	C	-1.593302	-0.055801	0.703672
C45	C	-1.506159	-0.102496	0.664279
C46	C	-1.418990	-0.149184	0.703695
C47	C	-1.418987	-0.149179	0.782495
C48	C	-1.488846	-0.165668	0.539456
C49	C	-1.488857	-0.165674	0.460657
C50	C	-1.506159	-0.102511	0.421233
C51	C	-1.523477	-0.039339	0.460617
C52	C	-1.523475	-0.039334	0.539418
C53	C	-1.506151	-0.102506	0.578834
C54	C	-1.593313	-0.055821	0.296381
C55	C	-1.593301	-0.055819	0.217577
C56	C	-1.418994	-0.149208	0.217602
C57	C	-1.419000	-0.149204	0.296404
C58	C	-1.506166	-0.102511	0.335788
H59	H	-0.896579	-0.223164	0.000118
H60	H	-1.348034	-0.187203	0.671618
H61	H	-1.346350	0.321083	-0.079559
C62	C	-1.469804	-0.235151	0.582819
H63	H	-1.472267	-0.226101	0.635389
H64	H	-1.536231	-0.262797	0.569919
H65	H	-1.389141	-0.259413	0.569907
C66	C	-1.758317	0.114114	-0.000001
H67	H	-1.742975	0.064668	-0.000010
H68	H	-1.805769	0.129144	0.043653
H69	H	-1.805746	0.129168	-0.043665
H70	H	-1.342805	0.452530	-0.079540
H71	H	-1.664267	-0.017799	0.185492
H72	H	-0.941534	-0.040439	-0.113855
C73	C	-1.081293	-0.174570	-0.132152
H74	H	-1.040718	-0.221039	-0.132064
H75	H	-1.171703	-0.175266	-0.131899
H76	H	-1.056680	-0.151125	-0.175985
C77	C	-1.323137	-0.200571	0.174280
H78	H	-1.335624	-0.193891	0.121705
H79	H	-1.238107	-0.192490	0.187189
H80	H	-1.336559	-0.247025	0.187209
H81	H	-1.537566	0.012095	0.428520
C82	C	-1.323125	-0.200539	0.825844
H83	H	-1.271226	-0.228352	0.791101
H84	H	-1.270283	-0.175213	0.856578
H85	H	-1.368735	-0.229749	0.856591
C86	C	-1.746289	0.561083	0.000045
H87	H	-1.814657	0.597627	0.000056
H88	H	-1.751884	0.533151	-0.043614
H89	H	-1.751881	0.533124	0.043703
C90	C	-1.253970	0.680874	0.000065
H91	H	-1.269313	0.730320	0.000064
H92	H	-1.206529	0.665820	0.043720
H93	H	-1.206528	0.665846	-0.043598
C94	C	-1.270103	0.081745	0.000024
H95	H	-1.288054	0.034507	0.000025
H96	H	-1.222012	0.090465	-0.043629
H97	H	-1.222031	0.090441	0.043689
H98	H	-0.941790	-0.040470	0.114055
C99	C	-1.081392	-0.174600	0.132264
H100	H	-1.040845	-0.221074	0.132197
H101	H	-1.056826	-0.151163	0.176094
H102	H	-1.171811	-0.175291	0.131981
H103	H	-1.721291	0.253719	0.000022
C104	C	-1.695204	0.333782	0.092135
H105	H	-1.683754	0.284596	0.085843
H106	H	-1.683681	0.344897	0.143603
H107	H	-1.779276	0.351253	0.076710
C108	C	-1.691104	0.485943	0.092159
H109	H	-1.677040	0.533441	0.085890
H110	H	-1.775813	0.479671	0.076742
H111	H	-1.680203	0.473305	0.143627
H112	H	-1.115463	0.018232	0.000091
H113	H	-1.709259	0.700686	0.000067
H114	H	-1.291002	0.541275	0.000052
H115	H	-1.299503	0.225763	0.000028
C116	C	-1.689171	-0.004436	0.825792
H117	H	-1.741068	0.023373	0.791032
H118	H	-1.742015	-0.029756	0.856546
H119	H	-1.643562	0.024779	0.856516
C120	C	-1.323157	-0.200569	0.339757
H121	H	-1.335634	-0.193877	0.392329
H122	H	-1.336581	-0.247019	0.326854
H123	H	-1.238118	-0.192489	0.326841
C124	C	-1.689176	-0.004448	0.660315
H125	H	-1.741091	0.023358	0.695057
H126	H	-1.643584	0.024759	0.629562
H127	H	-1.742019	-0.029785	0.629588
H128	H	-1.474764	-0.217112	0.428596
C129	C	-1.689176	-0.004456	0.339707
H130	H	-1.741069	0.023357	0.304948
H131	H	-1.742024	-0.029778	0.370456
H132	H	-1.643568	0.024755	0.370435
H133	H	-1.537572	0.012102	0.571481
