data_functionalizedCrystal
_audit_creation_method	'MofGen! by Chris Wilmer'
_symmetry_space_group_name_H-M	'P1'
_symmetry_Int_Tables_number	1
_symmetry_cell_setting	triclinic
loop_
_symmetry_equiv_pos_as_xyz
  x,y,z
_cell_length_a	12.759401
_cell_length_b	17.640280
_cell_length_c	12.759393
_cell_angle_alpha	101.231035
_cell_angle_beta	90.020938
_cell_angle_gamma	78.802151
loop_
_atom_site_label
_atom_site_type_symbol
_atom_site_fract_x
_atom_site_fract_y
_atom_site_fract_z
Zn1	Zn	1.690818	-0.314597	0.509562
Zn2	Zn	2.190818	0.185403	1.009562
Zn3	Zn	1.726238	-0.446790	0.298393
Zn4	Zn	2.226238	0.053210	0.798393
Zn5	Zn	1.515128	-0.314639	0.333886
Zn6	Zn	2.015128	0.185361	0.833886
Zn7	Zn	1.550623	-0.446735	0.474045
Zn8	Zn	2.050623	0.053265	0.974045
O9	O	1.620702	-0.380691	0.403971
O10	O	2.120702	0.119309	0.903971
O11	O	1.842539	-0.332138	0.481560
O12	O	2.342539	0.167862	0.981560
O13	O	1.698203	-0.429301	0.156069
O14	O	2.198203	0.070699	0.656069
O15	O	1.508756	-0.204028	0.386908
O16	O	2.008756	0.295972	0.886908
O17	O	1.868562	-0.429260	0.326415
O18	O	2.368562	0.070740	0.826415
O19	O	1.637835	-0.203997	0.515976
O20	O	2.137835	0.296003	1.015976
O21	O	1.543101	-0.332210	0.182146
O22	O	2.043101	0.167790	0.682146
O23	O	1.372814	-0.332157	0.352468
O24	O	1.872814	0.167843	0.852468
O25	O	1.569251	-0.429166	0.625788
O26	O	2.069251	0.070834	1.125788
O27	O	1.398892	-0.429207	0.455443
O28	O	1.898892	0.070793	0.955443
O29	O	1.672252	-0.332085	0.651883
O30	O	2.172252	0.167915	1.151883
O31	O	1.732620	-0.557389	0.291976
O32	O	2.232620	-0.057389	0.791976
O33	O	1.603596	-0.557349	0.421027
O34	O	2.103596	-0.057349	0.921027
C35	C	1.347732	-0.380681	0.403953
C36	C	1.847732	0.119319	0.903953
C37	C	1.230959	-0.380696	0.403965
C38	C	1.730959	0.119304	0.903965
C39	C	1.189724	-0.431307	0.457458
C40	C	1.689724	0.068693	0.957458
C41	C	1.080001	-0.431310	0.457478
C42	C	1.580001	0.068690	0.957478
C43	C	1.052757	-0.330089	0.350505
C44	C	1.552757	0.169911	0.850505
C45	C	1.162477	-0.330082	0.350491
C46	C	1.662477	0.169918	0.850491
C47	C	1.675832	-0.586048	0.348819
C48	C	2.175832	-0.086048	0.848819
C49	C	1.699513	-0.673900	0.325259
C50	C	2.199513	-0.173900	0.825259
C51	C	1.441231	-0.962869	0.583333
C52	C	1.941231	-0.462869	1.083333
C53	C	1.463485	-1.045420	0.561162
C54	C	1.963485	-0.545420	1.061162
C55	C	1.597921	-1.045396	0.426917
C56	C	2.097921	-0.545396	0.926917
C57	C	1.575682	-0.962844	0.449081
C58	C	2.075682	-0.462844	0.949081
C59	C	1.497335	-0.921586	0.527289
C60	C	1.997335	-0.421586	1.027289
C61	C	1.631786	-0.921561	0.393036
C62	C	2.131786	-0.421561	0.893036
C63	C	1.609545	-0.839016	0.415195
C64	C	2.109545	-0.339016	0.915195
C65	C	1.531199	-0.797753	0.493397
C66	C	2.031199	-0.297753	0.993397
C67	C	1.475094	-0.839041	0.549447
C68	C	1.975094	-0.339041	1.049447
C69	C	1.710127	-0.962820	0.314823
C70	C	2.210127	-0.462820	0.814823
C71	C	1.766231	-0.921538	0.258779
C72	C	2.266231	-0.421538	0.758779
C73	C	1.743996	-0.838991	0.280942
C74	C	2.243996	-0.338991	0.780942
C75	C	1.665650	-0.797728	0.359145
C76	C	2.165650	-0.297728	0.859145
C77	C	1.800101	-0.797703	0.224892
C78	C	2.300101	-0.297703	0.724892
C79	C	1.777860	-0.715158	0.247051
C80	C	2.277860	-0.215158	0.747051
C81	C	1.643409	-0.715183	0.381303
C82	C	2.143409	-0.215183	0.881303
C83	C	1.894738	-0.380701	0.403990
C84	C	2.394738	0.119299	0.903990
C85	C	2.011516	-0.380705	0.403998
C86	C	2.511516	0.119295	0.903998
C87	C	1.620760	-0.380615	0.678025
C88	C	2.120760	0.119385	1.178025
C89	C	1.620785	-0.380582	0.794811
C90	C	2.120785	0.119418	1.294811
C91	C	1.565385	-0.174531	0.459363
C92	C	2.065385	0.325469	0.959363
C93	C	1.541813	-0.086679	0.482967
C94	C	2.041813	0.413321	0.982967
C95	C	1.620689	-0.380709	0.130999
C96	C	2.120689	0.119291	0.630999
C97	C	1.620808	-0.380519	0.014274
C98	C	2.120808	0.119481	0.514274
C99	C	1.674420	-0.330024	0.863264
C100	C	2.174420	0.169976	1.363264
C101	C	1.674429	-0.329990	0.972997
C102	C	2.174429	0.170010	1.472997
C103	C	1.567166	-0.431079	0.945813
C104	C	2.067166	0.068921	1.445813
C105	C	1.567151	-0.431109	0.836083
C106	C	2.067151	0.068891	1.336083
H107	H	1.245479	-0.472518	0.501003
H108	H	1.745479	0.027482	1.001003
Cl109	Cl	1.028167	-0.494937	0.524731
Cl110	Cl	1.528167	0.005063	1.024731
H111	H	1.718089	-0.288880	0.829665
H112	H	2.218089	0.211120	1.329665
Cl113	Cl	1.741871	-0.266435	1.059047
Cl114	Cl	2.241871	0.233565	1.559047
Cl115	Cl	1.499751	-0.494599	0.997705
Cl116	Cl	1.999751	0.005401	1.497705
H117	H	1.523467	-0.472279	0.780346
H118	H	2.023467	0.027721	1.280346
Cl119	Cl	1.392933	-1.097315	0.631615
Cl120	Cl	1.892933	-0.597315	1.131615
Cl121	Cl	0.966660	-0.266466	0.283281
Cl122	Cl	1.466660	0.233534	0.783281
Cl123	Cl	1.214318	-0.266446	0.283246
Cl124	Cl	1.714318	0.233554	0.783246
Cl125	Cl	1.544924	-0.663310	0.479634
Cl126	Cl	2.044924	-0.163310	0.979634
Cl127	Cl	1.503478	-0.693980	0.521497
Cl128	Cl	2.003478	-0.193980	1.021497
H129	H	1.377441	-0.929275	0.647026
H130	H	1.877441	-0.429275	1.147026
Cl131	Cl	1.376609	-0.787168	0.647778
Cl132	Cl	1.876609	-0.287168	1.147778
H133	H	1.661708	-1.078999	0.363237
H134	H	2.161708	-0.578999	0.863237
H135	H	1.728236	-1.030034	0.296788
H136	H	2.228236	-0.530034	0.796788
H137	H	1.830018	-0.955141	0.195099
H138	H	2.330018	-0.455141	0.695099
H139	H	1.863883	-0.831307	0.161208
H140	H	2.363883	-0.331307	0.661208
H141	H	1.823545	-0.681545	0.201412
H142	H	2.323545	-0.181545	0.701412
