data_functionalizedCrystal
_audit_creation_method	'MofGen! by Chris Wilmer'
_symmetry_space_group_name_H-M	'P1'
_symmetry_Int_Tables_number	1
_symmetry_cell_setting	triclinic
loop_
_symmetry_equiv_pos_as_xyz
  x,y,z
_cell_length_a	17.699083
_cell_length_b	16.176319
_cell_length_c	17.699103
_cell_angle_alpha	89.988235
_cell_angle_beta	96.712962
_cell_angle_gamma	90.001389
loop_
_atom_site_label
_atom_site_type_symbol
_atom_site_fract_x
_atom_site_fract_y
_atom_site_fract_z
O1	O	-1.004086	-0.068640	0.095712
O2	O	-0.504086	0.431360	0.595712
O3	O	-0.783708	-0.068668	0.108165
O4	O	-0.283708	0.431332	0.608165
O5	O	-0.900115	-0.068637	-0.008250
O6	O	-0.400115	0.431363	0.491750
O7	O	-0.887678	-0.068670	0.212127
O8	O	-0.387678	0.431330	0.712127
O9	O	-0.900099	0.068856	-0.008257
O10	O	-0.400099	0.568856	0.491743
O11	O	-0.783692	0.068825	0.108157
O12	O	-0.283692	0.568825	0.608157
O13	O	-1.004070	0.068853	0.095705
O14	O	-0.504070	0.568853	0.595705
Cu15	Cu	-0.893879	0.081394	0.101930
Cu16	Cu	-0.393879	0.581394	0.601930
Cu17	Cu	-0.893898	-0.081208	0.101939
Cu18	Cu	-0.393898	0.418792	0.601939
O19	O	-0.887662	0.068823	0.212119
O20	O	-0.387662	0.568823	0.712119
C21	C	-0.755503	0.000075	0.107715
C22	C	-0.255503	0.500075	0.607715
C23	C	-0.671485	0.000065	0.106376
C24	C	-0.171485	0.500065	0.606376
C25	C	-0.899659	0.000112	-0.036450
C26	C	-0.399659	0.500112	0.463550
C27	C	-0.898315	0.000118	-0.120468
C28	C	-0.398315	0.500118	0.379532
C29	C	-1.032275	0.000108	0.096155
C30	C	-0.532275	0.500108	0.596155
C31	C	-1.116293	0.000113	0.097493
C32	C	-0.616293	0.500113	0.597493
N33	N	-0.893872	0.195759	0.101924
N34	N	-0.393872	0.695759	0.601924
C35	C	-0.622869	0.000055	0.174709
C36	C	-0.122869	0.500055	0.674709
C37	C	-0.543925	0.000066	0.173447
C38	C	-0.043925	0.500066	0.673447
C39	C	-0.513600	0.000081	0.103851
C40	C	-0.013600	0.500081	0.603851
C41	C	-0.562222	0.000094	0.035513
C42	C	-0.062222	0.500094	0.535513
C43	C	-0.641164	0.000089	0.036776
C44	C	-0.141164	0.500089	0.536776
C45	C	-0.243859	0.000115	0.030418
C46	C	0.256141	0.500115	0.530418
C47	C	-0.164910	0.000117	0.029160
C48	C	0.335090	0.500117	0.529160
C49	C	-0.146620	0.000092	0.167088
C50	C	0.353380	0.500092	0.667088
C51	C	-0.225562	0.000087	0.168351
C52	C	0.274438	0.500087	0.668351
C53	C	-0.274177	0.000104	0.100014
C54	C	0.225823	0.500104	0.600014
C55	C	-0.359777	0.000094	0.101383
C56	C	0.140223	0.500094	0.601383
C57	C	-0.428002	0.000085	0.102480
C58	C	0.071998	0.500085	0.602480
N59	N	-0.893912	-0.195573	0.101940
N60	N	-0.393912	0.304427	0.601940
C61	C	-0.945432	0.239037	0.050396
C62	C	-0.445432	0.739037	0.550396
C63	C	-0.945436	0.325584	0.050396
C64	C	-0.445436	0.825584	0.550396
C65	C	-0.893882	0.368851	0.101926
C66	C	-0.393882	0.868851	0.601926
C67	C	-0.842316	0.325567	0.153456
C68	C	-0.342316	0.825567	0.653456
C69	C	-0.842309	0.239022	0.153453
C70	C	-0.342309	0.739022	0.653453
C71	C	-0.842342	0.674596	0.153470
C72	C	-0.342342	1.174596	0.653470
C73	C	-0.842354	0.761147	0.153471
C74	C	-0.342354	1.261147	0.653471
C75	C	-0.945469	0.761157	0.050413
C76	C	-0.445469	1.261157	0.550413
C77	C	-0.945462	0.674612	0.050410
C78	C	-0.445462	1.174612	0.550410
C79	C	-0.893894	0.631336	0.101936
C80	C	-0.393894	1.131336	0.601936
C81	C	-0.893889	0.537491	0.101936
C82	C	-0.393889	1.037491	0.601936
C83	C	-0.893890	0.462694	0.101931
C84	C	-0.393890	0.962694	0.601931
C85	C	-0.890099	-0.074884	-0.636175
C86	C	-0.390099	0.425116	-0.136175
C87	C	-0.891361	-0.074877	-0.557232
C88	C	-0.391361	0.425123	-0.057232
C89	C	-0.891982	0.000076	-0.517777
C90	C	-0.391982	0.500076	-0.017777
C91	C	-0.891349	0.075026	-0.557271
C92	C	-0.391349	0.575026	-0.057271
C93	C	-0.890092	0.075017	-0.636214
C94	C	-0.390092	0.575017	-0.136214
C95	C	-0.896418	0.075061	-0.238905
C96	C	-0.396418	0.575061	0.261095
C97	C	-0.897673	0.075063	-0.159956
C98	C	-0.397673	0.575063	0.340044
C99	C	-0.897688	-0.074833	-0.159923
C100	C	-0.397688	0.425167	0.340077
C101	C	-0.896431	-0.074842	-0.238865
C102	C	-0.396431	0.425158	0.261135
C103	C	-0.895802	0.000108	-0.278353
C104	C	-0.395802	0.500108	0.221647
C105	C	-0.894434	0.000099	-0.363952
C106	C	-0.394434	0.500099	0.136048
C107	C	-0.893344	0.000086	-0.432178
C108	C	-0.393344	0.500086	0.067822
C109	C	-0.888119	0.000072	0.240320
C110	C	-0.388119	0.500072	0.740320
C111	C	-0.889463	0.000060	0.324337
C112	C	-0.389463	0.500060	0.824337
H113	H	-0.647553	0.000042	0.231382
H114	H	-0.147553	0.500042	0.731382
Cl115	Cl	-1.010255	0.379992	-0.014383
Cl116	Cl	-0.510255	0.879992	0.485617
Cl117	Cl	-0.898491	-0.169057	-0.110278
Cl118	Cl	-0.398491	0.330943	0.389722
H119	H	-0.898175	0.136103	-0.127834
H120	H	-0.398175	0.636103	0.372166
H121	H	-0.895907	0.136089	-0.271046
H122	H	-0.395907	0.636089	0.228954
Cl123	Cl	-0.085498	0.000075	0.253000
Cl124	Cl	0.414502	0.500075	0.753000
H125	H	-0.895922	-0.135876	-0.270985
H126	H	-0.395922	0.364124	0.229015
Cl127	Cl	-0.892134	0.169253	-0.507672
Cl128	Cl	-0.392134	0.669253	-0.007672
H129	H	-0.889573	0.136045	-0.668364
H130	H	-0.389573	0.636045	-0.168364
Cl131	Cl	-0.482811	0.000048	0.259355
Cl132	Cl	0.017189	0.500048	0.759355
Cl133	Cl	-1.010276	0.620221	-0.014371
Cl134	Cl	-0.510276	1.120221	0.485629
H135	H	-0.889586	-0.135920	-0.668292
H136	H	-0.389586	0.364080	-0.168292
Cl137	Cl	-0.892163	-0.169097	-0.507593
Cl138	Cl	-0.392163	0.330903	-0.007593
H139	H	-0.250248	0.000071	0.225023
H140	H	0.249752	0.500071	0.725023
Cl141	Cl	-1.010296	0.815567	-0.014367
Cl142	Cl	-0.510296	1.315567	0.485633
H143	H	-0.680747	0.000096	-0.018868
H144	H	-0.180747	0.500096	0.481132
H145	H	-0.140223	0.000131	-0.027517
H146	H	0.359777	0.500131	0.472483
H147	H	-0.800336	0.360801	0.195411
H148	H	-0.300336	0.860801	0.695411
Cl149	Cl	-0.304965	0.000135	-0.055493
Cl150	Cl	0.195035	0.500135	0.444507
H151	H	-0.537525	0.000118	-0.021153
H152	H	-0.037525	0.500118	0.478847
Cl153	Cl	-0.777538	0.815540	0.218257
Cl154	Cl	-0.277538	1.315540	0.718257
H155	H	-0.800355	0.639367	0.195426
H156	H	-0.300355	1.139367	0.695426
Cl157	Cl	-1.010250	0.184652	-0.014386
Cl158	Cl	-0.510250	0.684652	0.485614
Cl159	Cl	-0.777484	0.184616	0.218230
Cl160	Cl	-0.277484	0.684616	0.718230
