data_functionalizedCrystal
_audit_creation_method	'MofGen! by Chris Wilmer'
_symmetry_space_group_name_H-M	'P1'
_symmetry_Int_Tables_number	1
_symmetry_cell_setting	triclinic
loop_
_symmetry_equiv_pos_as_xyz
  x,y,z
_cell_length_a	14.971486
_cell_length_b	17.699083
_cell_length_c	13.448316
_cell_angle_alpha	89.992503
_cell_angle_beta	89.998199
_cell_angle_gamma	83.448572
loop_
_atom_site_label
_atom_site_type_symbol
_atom_site_fract_x
_atom_site_fract_y
_atom_site_fract_z
O1	O	1.186608	0.098633	-0.082580
O2	O	0.926168	0.110445	-0.082607
O3	O	1.063746	-0.005632	-0.082584
O4	O	1.049030	0.214710	-0.082603
O5	O	1.063729	-0.005639	0.082800
O6	O	0.926150	0.110438	0.082777
O7	O	1.186591	0.098626	0.082804
Cu8	Cu	1.056369	0.104531	0.097891
Cu9	Cu	1.056390	0.104540	-0.097694
O10	O	1.049013	0.214703	0.082781
C11	C	0.892836	0.109913	0.000082
C12	C	0.793544	0.108330	0.000071
C13	C	0.736085	0.176522	0.000067
C14	C	0.642790	0.175030	0.000082
C15	C	0.606958	0.105346	0.000094
C16	C	0.664425	0.037148	0.000102
C17	C	0.757717	0.038641	0.000094
C18	C	0.469973	0.034042	0.000116
C19	C	0.376674	0.032549	0.000122
C20	C	0.355046	0.170431	0.000104
C21	C	0.448339	0.171924	0.000096
C22	C	0.505799	0.103726	0.000102
C23	C	1.063210	-0.033834	0.000108
C24	C	1.061628	-0.117856	0.000109
C25	C	1.142384	-0.166278	0.000118
C26	C	1.140892	-0.245225	0.000110
C27	C	1.058644	-0.275748	0.000098
C28	C	0.977882	-0.227320	0.000085
C29	C	0.979375	-0.148374	0.000087
C30	C	0.971860	-0.545698	0.000076
C31	C	0.970374	-0.624649	0.000077
C32	C	1.133378	-0.642548	0.000099
C33	C	1.134871	-0.563603	0.000101
C34	C	1.054109	-0.515181	0.000083
C35	C	1.055728	-0.429578	0.000090
C36	C	1.057024	-0.361350	0.000097
C37	C	1.219923	0.099158	0.000114
C38	C	1.319214	0.100741	0.000117
C39	C	1.049549	0.242905	0.000087
C40	C	1.051131	0.326927	0.000080
N41	N	1.056361	0.104525	0.235456
N42	N	1.056404	0.104540	-0.235258
C43	C	1.117300	0.053147	0.287506
C44	C	1.117306	0.053147	0.391610
C45	C	1.056376	0.104528	0.443660
C46	C	0.995431	0.155908	0.391602
C47	C	0.995422	0.155904	0.287501
C48	C	0.995456	0.155913	0.608582
C49	C	0.995466	0.155918	0.712691
C50	C	1.117339	0.053155	0.712691
C51	C	1.117330	0.053152	0.608590
C52	C	1.056386	0.104533	0.556539
H53	H	0.596010	0.230559	0.000077
C54	C	1.238879	0.036661	0.491201
C55	C	1.184086	-0.003421	0.551236
H56	H	1.280028	0.001705	0.455758
H57	H	1.202570	0.067351	0.445420
H58	H	1.271211	0.068102	0.531715
H59	H	1.151749	-0.034858	0.510721
H60	H	1.220400	-0.034123	0.597022
H61	H	0.635242	-0.019590	0.000126
H62	H	0.913615	-0.108949	0.000079
H63	H	1.166962	0.011319	0.755077
H64	H	1.209360	-0.141433	0.000134
C65	C	1.237759	-0.048434	0.297974
C66	C	1.184275	-0.003335	0.230297
H67	H	1.279102	-0.083308	0.262655
H68	H	1.269864	-0.016882	0.338561
H69	H	1.200582	-0.075706	0.338592
H70	H	1.221452	0.023941	0.189684
H71	H	1.152168	-0.034891	0.189693
H72	H	0.477510	0.228667	0.000076
H73	H	0.945826	0.197751	0.566206
H74	H	0.765252	0.233267	0.000056
H75	H	0.308257	0.225960	0.000104
C76	C	1.302168	-0.254988	0.000155
C77	C	1.229662	-0.298451	0.000132
H78	H	1.356972	-0.287849	0.000176
H79	H	1.299372	-0.223821	-0.057514
H80	H	1.299339	-0.223827	0.057832
H81	H	1.232487	-0.329608	-0.057549
H82	H	1.232459	-0.329631	0.057807
H83	H	0.804501	-0.016888	0.000097
H84	H	0.347502	-0.024194	0.000133
H85	H	0.910914	-0.252178	0.000069
H86	H	1.201846	-0.538756	0.000115
C87	C	0.874968	0.257470	0.702240
C88	C	0.928475	0.212382	0.769908
H89	H	0.833604	0.292322	0.737566
H90	H	0.912121	0.284760	0.661632
H91	H	0.842878	0.225903	0.661642
H92	H	0.960570	0.243949	0.810502
H93	H	0.891317	0.185090	0.810533
H94	H	0.945799	0.197740	0.245122
H95	H	1.199138	-0.681983	0.000109
C96	C	0.481985	-0.102402	0.000113
C97	C	0.533136	-0.040922	0.000111
H98	H	0.520981	-0.148679	0.000098
H99	H	0.445157	-0.100125	0.057788
H100	H	0.445139	-0.100103	-0.057558
H101	H	0.569978	-0.043217	0.057786
H102	H	0.569980	-0.043200	-0.057570
H103	H	0.906099	-0.506282	0.000062
H104	H	1.166926	0.011311	0.433989
H105	H	0.903394	-0.649498	0.000070
C106	C	0.873688	0.172163	0.508699
C107	C	0.928457	0.212386	0.448819
H108	H	0.832346	0.207033	0.544025
H109	H	0.841582	0.140619	0.468101
H110	H	0.909994	0.141566	0.554592
H111	H	0.892151	0.242978	0.402921
H112	H	0.960565	0.243943	0.489420
