data_functionalizedCrystal
_audit_creation_method	'MofGen! by Chris Wilmer'
_symmetry_space_group_name_H-M	'P1'
_symmetry_Int_Tables_number	1
_symmetry_cell_setting	triclinic
loop_
_symmetry_equiv_pos_as_xyz
  x,y,z
_cell_length_a	14.853567
_cell_length_b	17.699077
_cell_length_c	16.176319
_cell_angle_alpha	89.993140
_cell_angle_beta	89.996997
_cell_angle_gamma	83.457753
loop_
_atom_site_label
_atom_site_type_symbol
_atom_site_fract_x
_atom_site_fract_y
_atom_site_fract_z
O1	O	0.113983	1.004377	-0.068729
O2	O	0.613983	1.504377	0.431271
O3	O	0.128821	0.784037	-0.068732
O4	O	0.628821	1.284037	0.431268
O5	O	-0.009850	0.900093	-0.068733
O6	O	0.490150	1.400093	0.431267
O7	O	0.252653	0.888322	-0.068728
O8	O	0.752653	1.388322	0.431272
O9	O	-0.009859	0.900077	0.068761
O10	O	0.490141	1.400077	0.568761
O11	O	0.128812	0.784021	0.068761
O12	O	0.628812	1.284021	0.568761
O13	O	0.113974	1.004361	0.068765
O14	O	0.613974	1.504361	0.568765
Cu15	Cu	0.121392	0.894190	0.081317
Cu16	Cu	0.621392	1.394190	0.581317
Cu17	Cu	0.121403	0.894209	-0.081284
Cu18	Cu	0.621403	1.394209	0.418716
O19	O	0.252645	0.888306	0.068765
O20	O	0.752645	1.388306	0.568765
C21	C	0.128286	0.755830	0.000014
C22	C	0.628286	1.255830	0.500014
C23	C	0.126694	0.671808	0.000013
C24	C	0.626694	1.171808	0.500013
C25	C	0.125938	0.632330	0.074961
C26	C	0.625938	1.132330	0.574961
C27	C	0.124428	0.553384	0.074962
C28	C	0.624428	1.053384	0.574962
C29	C	0.123679	0.513916	0.000014
C30	C	0.623679	1.013916	0.500014
C31	C	0.124431	0.553400	-0.074941
C32	C	0.624431	1.053400	0.425059
C33	C	0.125935	0.632345	-0.074941
C34	C	0.625935	1.132345	0.425059
C35	C	0.118364	0.235021	-0.074942
C36	C	0.618364	0.735021	0.425058
C37	C	0.116863	0.156069	-0.074937
C38	C	0.616863	0.656069	0.425063
C39	C	0.116857	0.156059	0.074960
C40	C	0.616857	0.656059	0.574960
C41	C	0.118361	0.235004	0.074960
C42	C	0.618361	0.735004	0.574960
C43	C	0.119108	0.274482	0.000007
C44	C	0.619108	0.774482	0.500007
C45	C	0.120745	0.360085	0.000007
C46	C	0.620745	0.860085	0.500007
C47	C	0.122049	0.428314	0.000013
C48	C	0.622049	0.928314	0.500013
C49	C	-0.043441	0.899551	0.000012
C50	C	0.456559	1.399551	0.500012
C51	C	-0.143519	0.897953	0.000004
C52	C	0.356481	1.397953	0.500004
C53	C	-0.555772	0.822257	0.000019
C54	C	-0.055772	1.322257	0.500019
C55	C	-0.577564	0.960134	0.000021
C56	C	-0.077564	1.460134	0.500021
C57	C	-0.483536	0.961637	0.000016
C58	C	0.016464	1.461637	0.500016
C59	C	-0.425621	0.893449	0.000014
C60	C	0.074379	1.393449	0.500014
C61	C	-0.461735	0.823758	0.000017
C62	C	0.038265	1.323758	0.500017
C63	C	-0.447415	1.031327	0.000022
C64	C	0.052585	1.531327	0.500022
C65	C	-0.353382	1.032832	0.000018
C66	C	0.146618	1.532832	0.500018
C67	C	-0.295465	0.964643	0.000010
C68	C	0.204535	1.464643	0.500010
C69	C	-0.331584	0.894950	0.000012
C70	C	0.168416	1.394950	0.500012
C71	C	-0.273669	0.826761	0.000009
C72	C	0.226331	1.326761	0.500009
C73	C	-0.309786	0.757067	0.000005
C74	C	0.190214	1.257067	0.500005
C75	C	-0.403818	0.755569	0.000009
C76	C	0.096182	1.255569	0.500009
C77	C	-0.201433	0.966141	0.000006
C78	C	0.298567	1.466141	0.500006
C79	C	-0.179632	0.828262	0.000007
C80	C	0.320368	1.328262	0.500007
C81	C	0.286236	0.888847	0.000019
C82	C	0.786236	1.388847	0.500019
C83	C	0.386313	0.890445	0.000021
C84	C	0.886313	1.390445	0.500021
C85	C	0.114509	1.032568	0.000017
C86	C	0.614509	1.532568	0.500017
C87	C	0.116101	1.116590	0.000013
C88	C	0.616101	1.616590	0.500013
N89	N	0.121384	0.894182	0.195682
N90	N	0.621384	1.394182	0.695682
N91	N	0.121403	0.894222	-0.195650
N92	N	0.621403	1.394222	0.304350
C93	C	0.060006	0.945587	0.238946
C94	C	0.560006	1.445587	0.738946
C95	C	0.060005	0.945591	0.325493
C96	C	0.560005	1.445591	0.825493
C97	C	0.121387	0.894193	0.368775
C98	C	0.621387	1.394193	0.868775
C99	C	0.182769	0.842782	0.325505
C100	C	0.682769	1.342782	0.825505
C101	C	0.182765	0.842775	0.238960
C102	C	0.682765	1.342775	0.738960
C103	C	0.182786	0.842808	0.674533
C104	C	0.682786	1.342808	1.174533
C105	C	0.182787	0.842820	0.761085
C106	C	0.682787	1.342820	1.261085
C107	C	0.060026	0.945624	0.761067
C108	C	0.560026	1.445624	1.261067
C109	C	0.060022	0.945617	0.674522
C110	C	0.560022	1.445617	1.174522
C111	C	0.121400	0.894204	0.631259
C112	C	0.621400	1.394204	1.131259
C113	C	0.121399	0.894199	0.537415
C114	C	0.621399	1.394199	1.037415
C115	C	0.121393	0.894200	0.462618
C116	C	0.621393	1.394200	0.962618
H117	H	0.118970	0.267154	-0.135974
H118	H	0.618970	0.767154	0.364026
O119	O	-0.503711	1.097538	-0.000119
O120	O	-0.003711	1.597538	0.499881
C121	C	-0.558768	1.100794	-0.071317
C122	C	-0.058768	1.600794	0.428683
H123	H	-0.524238	1.062138	-0.121092
H124	H	-0.024238	1.562138	0.378908
H125	H	-0.569482	1.161753	-0.095213
H126	H	-0.069482	1.661753	0.404787
H127	H	-0.627101	1.081124	-0.055220
H128	H	-0.127101	1.581124	0.444780
H129	H	-0.132483	0.772734	0.000002
H130	H	0.367517	1.272734	0.500002
H131	H	0.116252	0.123937	-0.135972
H132	H	0.616252	0.623937	0.364028
H133	H	0.010026	0.987448	0.360718
H134	H	0.510026	1.487448	0.860718
O135	O	0.242514	0.792917	0.196967
O136	O	0.742514	1.292917	0.696967
C137	C	0.331743	0.805297	0.218117
C138	C	0.831743	1.305297	0.718117
H139	H	0.332096	0.865893	0.241894
H140	H	0.832096	1.365893	0.741894
H141	H	0.376999	0.796632	0.161199
H142	H	0.876999	1.296632	0.661199
H143	H	0.358289	0.763379	0.268360
H144	H	0.858289	1.263379	0.768360
H145	H	0.123815	0.521260	-0.135965
H146	H	0.623815	1.021260	0.364035
H147	H	0.116244	0.123907	0.135991
H148	H	0.616244	0.623907	0.635991
O149	O	-0.438861	0.687855	-0.000137
O150	O	0.061139	1.187855	0.499863
C151	C	-0.409244	0.646280	-0.071337
C152	C	0.090756	1.146280	0.428663
H153	H	-0.389768	0.687033	-0.121110
H154	H	0.110232	1.187033	0.378890
H155	H	-0.466145	0.614031	-0.095235
H156	H	0.033855	1.114031	0.404765
H157	H	-0.347870	0.604160	-0.055242
H158	H	0.152130	1.104160	0.444758
O159	O	0.126826	0.670682	0.147746
O160	O	0.626826	1.170682	0.647746
C161	C	0.205733	0.707868	0.152229
C162	C	0.705733	1.207868	0.652229
H163	H	0.259836	0.678146	0.109699
H164	H	0.759836	1.178146	0.609699
H165	H	0.231940	0.705904	0.218519
H166	H	0.731940	1.205904	0.718519
H167	H	0.189228	0.769622	0.132094
H168	H	0.689228	1.269622	0.632094
H169	H	-0.323984	1.089582	0.000020
H170	H	0.176016	1.589582	0.500020
H171	H	0.232763	0.800947	0.639316
H172	H	0.732763	1.300947	1.139316
H173	H	-0.585183	0.765513	0.000012
H174	H	-0.085183	1.265513	0.500012
O175	O	0.000269	0.995527	0.803004
O176	O	0.500269	1.495527	1.303004
C177	C	-0.088958	0.983120	0.781878
C178	C	0.411042	1.483120	1.281878
H179	H	-0.088800	0.953945	0.719045
H180	H	0.411200	1.453945	1.219045
H181	H	-0.133444	1.039963	0.778908
H182	H	0.366556	1.539963	1.278908
H183	H	-0.116780	0.945422	0.830595
H184	H	0.383220	1.445422	1.330595
O185	O	0.126713	0.670575	-0.147820
O186	O	0.626713	1.170575	0.352180
C187	C	0.125710	0.618815	-0.213972
C188	C	0.625710	1.118815	0.286028
H189	H	0.153166	0.559432	-0.191999
H190	H	0.653166	1.059432	0.308001
H191	H	0.169902	0.636869	-0.266390
H192	H	0.669902	1.136869	0.233610
H193	H	0.053254	0.618291	-0.237020
H194	H	0.553254	1.118291	0.262980
H195	H	-0.262620	0.701548	0.000009
H196	H	0.237380	1.201548	0.500009
O197	O	-0.633946	1.026298	-0.000010
O198	O	-0.133946	1.526298	0.499990
C199	C	-0.724686	1.010029	0.000019
C200	C	-0.224686	1.510029	0.500019
H201	H	-0.728162	0.950580	-0.026011
H202	H	-0.228162	1.450580	0.473989
H203	H	-0.767387	1.053490	-0.039894
H204	H	-0.267387	1.553490	0.460106
H205	H	-0.751882	1.012862	0.065984
H206	H	-0.251882	1.512862	0.565984
O207	O	0.000226	0.995384	0.632456
O208	O	0.500226	1.495384	1.132456
C209	C	-0.055332	0.954687	0.582524
C210	C	0.444668	1.454687	1.082524
H211	H	-0.019214	0.895556	0.569505
H212	H	0.480786	1.395556	1.069505
H213	H	-0.069857	0.986249	0.521685
H214	H	0.430143	1.486249	1.021685
H215	H	-0.121851	0.949346	0.616004
H216	H	0.378149	1.449346	1.116004
H217	H	0.232745	0.800929	0.360750
H218	H	0.732745	1.300929	0.860750
O219	O	-0.166390	1.033851	-0.000138
O220	O	0.333610	1.533851	0.499862
C221	C	-0.196018	1.075443	-0.071332
C222	C	0.303982	1.575443	0.428668
H223	H	-0.215497	1.034702	-0.121103
H224	H	0.284503	1.534702	0.378897
H225	H	-0.139122	1.107702	-0.095238
H226	H	0.360878	1.607702	0.404762
H227	H	-0.257392	1.117556	-0.055226
H228	H	0.242608	1.617556	0.444774
O229	O	0.000236	0.995441	0.196962
O230	O	0.500236	1.495441	0.696962
C231	C	-0.088975	0.983041	0.218165
C232	C	0.411025	1.483041	0.718165
H233	H	-0.089297	0.922443	0.241957
H234	H	0.410703	1.422443	0.741957
H235	H	-0.134263	0.991702	0.161269
H236	H	0.365737	1.491702	0.661269
H237	H	-0.115505	1.024952	0.268412
H238	H	0.384495	1.524952	0.768412
O239	O	0.123742	0.515147	0.147841
O240	O	0.623742	1.015147	0.647841
C241	C	0.124710	0.566912	0.213991
C242	C	0.624710	1.066912	0.713991
H243	H	0.154314	0.620083	0.192015
H244	H	0.654314	1.120083	0.692015
H245	H	0.168029	0.539335	0.266409
H246	H	0.668029	1.039335	0.766409
H247	H	0.052573	0.583176	0.237042
H248	H	0.552573	1.083176	0.737042
O249	O	0.119045	0.273230	0.147839
O250	O	0.619045	0.773230	0.647839
C251	C	0.118076	0.221454	0.213993
C252	C	0.618076	0.721454	0.713993
H253	H	0.088477	0.168285	0.192021
H254	H	0.588477	0.668285	0.692021
H255	H	0.074753	0.249021	0.266410
H256	H	0.574753	0.749021	0.766410
H257	H	0.190213	0.205188	0.237042
H258	H	0.690213	0.705188	0.737042
O259	O	0.242446	0.792811	0.803002
O260	O	0.742446	1.292811	1.303002
C261	C	0.296632	0.747441	0.746261
C262	C	0.796632	1.247441	1.246261
H263	H	0.259670	0.746544	0.684570
H264	H	0.759670	1.246544	1.184570
H265	H	0.310467	0.687018	0.771284
H266	H	0.810467	1.187018	1.271284
H267	H	0.363573	0.772073	0.737045
H268	H	0.863573	1.272073	1.237045
