data_functionalizedCrystal
_audit_creation_method	'MofGen! by Chris Wilmer'
_symmetry_space_group_name_H-M	'P1'
_symmetry_Int_Tables_number	1
_symmetry_cell_setting	triclinic
loop_
_symmetry_equiv_pos_as_xyz
  x,y,z
_cell_length_a	12.759401
_cell_length_b	14.908178
_cell_length_c	12.759393
_cell_angle_alpha	93.332413
_cell_angle_beta	90.021189
_cell_angle_gamma	93.313861
loop_
_atom_site_label
_atom_site_type_symbol
_atom_site_fract_x
_atom_site_fract_y
_atom_site_fract_z
Zn1	Zn	1.582097	-0.359137	0.569886
Zn2	Zn	1.571841	-0.510037	0.384051
Zn3	Zn	1.406396	-0.359184	0.394214
Zn4	Zn	1.396242	-0.509967	0.559689
O5	O	1.489144	-0.434581	0.476960
O6	O	1.727757	-0.379164	0.545249
O7	O	1.549851	-0.490075	0.238375
O8	O	1.438245	-0.232922	0.426039
O9	O	1.720222	-0.490030	0.408716
O10	O	1.567332	-0.232888	0.555104
O11	O	1.428300	-0.379244	0.245842
O12	O	1.258029	-0.379176	0.416151
O13	O	1.420939	-0.489910	0.708066
O14	O	1.250568	-0.489956	0.537724
O15	O	1.557486	-0.379096	0.715558
O16	O	1.540005	-0.636283	0.398828
O17	O	1.410993	-0.636232	0.527869
C18	C	1.216178	-0.434564	0.476934
C19	C	1.099400	-0.434578	0.476946
C20	C	0.930885	-0.492233	0.405805
C21	C	1.040611	-0.492217	0.405776
C22	C	1.048460	-0.376946	0.548143
C23	C	0.938737	-0.376958	0.548166
C24	C	0.926355	-0.558787	0.323613
C25	C	1.036080	-0.558771	0.323585
C26	C	1.473313	-0.668994	0.461162
C27	C	1.466637	-0.769277	0.454438
C28	C	1.588407	-0.957533	0.576344
C29	C	1.582138	-1.051758	0.570031
C30	C	1.447824	-1.051952	0.435503
C31	C	1.454093	-0.957728	0.441817
C32	C	1.524389	-0.910521	0.512239
C33	C	1.530663	-0.816295	0.518546
C34	C	1.396344	-0.816491	0.384025
C35	C	1.390074	-0.910716	0.377711
C36	C	1.763176	-0.434599	0.476987
C37	C	1.879952	-0.434607	0.476998
C38	C	1.489224	-0.434490	0.751000
C39	C	1.489258	-0.434451	0.867779
C40	C	1.505065	-0.199253	0.492843
C41	C	1.511850	-0.098970	0.499611
C42	C	1.489129	-0.434607	0.203991
C43	C	1.489316	-0.434391	0.087229
C44	C	1.560367	-0.376745	0.926544
C45	C	1.560394	-0.376713	1.036271
C46	C	1.418199	-0.492100	1.028456
C47	C	1.418167	-0.492128	0.918732
C48	C	1.642466	-0.310129	0.931057
C49	C	1.642493	-0.310097	1.040783
H50	H	1.071756	-0.533663	0.248018
O51	O	1.738105	-0.332263	1.074875
C52	C	1.782880	-0.261184	1.141055
H53	H	1.746581	-0.195726	1.122812
H54	H	1.871203	-0.254465	1.127382
H55	H	1.767065	-0.275883	1.226483
O56	O	1.656550	-0.911570	0.644801
C57	C	1.600319	-0.857083	0.716270
H58	H	1.521651	-0.843058	0.680083
H59	H	1.647513	-0.790779	0.734828
H60	H	1.586324	-0.893349	0.791690
H61	H	1.390588	-1.090404	0.378174
H62	H	1.617845	-0.243707	1.079298
O63	O	1.598917	-0.770297	0.586863
C64	C	1.590708	-0.677050	0.578712
H65	H	1.557205	-0.664261	0.498453
H66	H	1.671787	-0.641176	0.588325
H67	H	1.536497	-0.650311	0.642763
H68	H	1.634264	-1.090031	0.622237
H69	H	1.061160	-0.628665	0.340533
O70	O	1.732631	-0.340130	0.888553
C71	C	1.745058	-0.428959	0.916750
H72	H	1.698667	-0.441815	0.991266
H73	H	1.831730	-0.438604	0.931330
H74	H	1.714827	-0.478287	0.850458
O75	O	0.889303	-0.321070	0.617461
C76	C	0.914863	-0.340863	0.720796
H77	H	0.940165	-0.412942	0.721110
H78	H	0.843258	-0.333142	0.773253
H79	H	0.981831	-0.292511	0.751587
H80	H	1.360318	-0.539056	1.069956
O81	O	1.321738	-0.956676	0.309445
C82	C	1.250196	-1.011172	0.365539
H83	H	1.286262	-1.025203	0.444258
H84	H	1.231735	-1.077471	0.318288
H85	H	1.174743	-0.974909	0.379428
O86	O	1.334192	-0.770684	0.321857
C87	C	1.354818	-0.677396	0.342505
H88	H	1.390039	-0.664442	0.424487
H89	H	1.278506	-0.641648	0.337694
H90	H	1.412585	-0.650661	0.282033
H91	H	0.887862	-0.625196	0.348166
H92	H	1.096335	-0.330009	0.606085
H93	H	1.360259	-0.539115	0.870889
O94	O	1.621968	-0.226846	0.901026
C95	C	1.529894	-0.232658	0.839283
H96	H	1.516188	-0.304146	0.803217
H97	H	1.538926	-0.183674	0.774082
H98	H	1.460117	-0.214853	0.890618
O99	O	0.892397	-0.536474	0.228019
C100	C	0.924991	-0.599755	0.150104
H101	H	0.996099	-0.633879	0.179654
H102	H	0.946928	-0.563995	0.075939
H103	H	0.858304	-0.652559	0.131713
