data_functionalizedCrystal
_audit_creation_method	'MofGen! by Chris Wilmer'
_symmetry_space_group_name_H-M	'P1'
_symmetry_Int_Tables_number	1
_symmetry_cell_setting	triclinic
loop_
_symmetry_equiv_pos_as_xyz
  x,y,z
_cell_length_a	16.959454
_cell_length_b	16.959455
_cell_length_c	12.759393
_cell_angle_alpha	90.030463
_cell_angle_beta	89.970996
_cell_angle_gamma	89.984932
loop_
_atom_site_label
_atom_site_type_symbol
_atom_site_fract_x
_atom_site_fract_y
_atom_site_fract_z
Zn1	Zn	-0.314754	-1.208437	-0.594307
Zn2	Zn	0.185246	-0.708437	-0.094307
Zn3	Zn	-0.446951	-1.208344	-0.418629
Zn4	Zn	0.053049	-0.708344	0.081371
Zn5	Zn	-0.314779	-1.076250	-0.418611
Zn6	Zn	0.185221	-0.576250	0.081389
Zn7	Zn	-0.446883	-1.076230	-0.594236
Zn8	Zn	0.053117	-0.576230	-0.094236
O9	O	-0.380842	-1.142315	-0.506446
O10	O	0.119158	-0.642315	-0.006446
O11	O	-0.332308	-1.319036	-0.571040
O12	O	0.167692	-0.819036	-0.071040
O13	O	-0.429458	-1.190790	-0.271606
O14	O	0.070542	-0.690790	0.228394
O15	O	-0.204165	-1.093832	-0.441940
O16	O	0.295835	-0.593832	0.058060
O17	O	-0.429433	-1.318967	-0.441971
O18	O	0.070567	-0.818967	0.058029
O19	O	-0.204146	-1.190949	-0.571022
O20	O	0.295854	-0.690949	-0.071022
O21	O	-0.332352	-1.093742	-0.271593
O22	O	0.167648	-0.593742	0.228407
O23	O	-0.332285	-0.965636	-0.441871
O24	O	0.167715	-0.465636	0.058129
O25	O	-0.429316	-1.093798	-0.741267
O26	O	0.070684	-0.593798	-0.241267
O27	O	-0.429341	-0.965622	-0.570902
O28	O	0.070659	-0.465622	-0.070902
O29	O	-0.332241	-1.190930	-0.741318
O30	O	0.167759	-0.690930	-0.241318
O31	O	-0.557553	-1.190771	-0.441902
O32	O	-0.057553	-0.690771	0.058098
O33	O	-0.557503	-1.093708	-0.570919
O34	O	-0.057503	-0.593708	-0.070919
C35	C	-0.380809	-0.936949	-0.506377
C36	C	0.119191	-0.436949	-0.006377
C37	C	-0.380814	-0.849092	-0.506373
C38	C	0.119186	-0.349092	-0.006373
C39	C	-0.586208	-1.142249	-0.506428
C40	C	-0.086208	-0.642249	-0.006428
C41	C	-0.674065	-1.142293	-0.506455
C42	C	-0.174065	-0.642293	-0.006455
C43	C	-0.431341	-0.477570	-0.439155
C44	C	0.068659	0.022430	0.060845
C45	C	-0.330361	-0.477663	-0.573764
C46	C	0.169639	0.022337	-0.073764
C47	C	-0.330351	-0.560209	-0.573745
C48	C	0.169649	-0.060209	-0.073745
C49	C	-0.380838	-0.601439	-0.506431
C50	C	0.119162	-0.101439	-0.006431
C51	C	-0.431334	-0.560124	-0.439136
C52	C	0.068666	-0.060124	0.060864
C53	C	-0.279861	-0.601531	-0.641046
C54	C	0.220139	-0.101531	-0.141046
C55	C	-0.279849	-0.684082	-0.641030
C56	C	0.220151	-0.184082	-0.141030
C57	C	-0.330332	-0.725313	-0.573710
C58	C	0.169668	-0.225313	-0.073710
C59	C	-0.380831	-0.683993	-0.506411
C60	C	0.119169	-0.183993	-0.006411
C61	C	-0.431317	-0.725223	-0.439097
C62	C	0.068683	-0.225223	0.060903
C63	C	-0.481812	-0.683904	-0.371793
C64	C	0.018188	-0.183904	0.128207
C65	C	-0.481818	-0.601356	-0.371815
C66	C	0.018182	-0.101356	0.128185
C67	C	-0.330327	-0.807862	-0.573687
C68	C	0.169673	-0.307862	-0.073687
C69	C	-0.431310	-0.807777	-0.439078
C70	C	0.068690	-0.307777	0.060922
C71	C	-1.045544	-1.091848	-0.573618
C72	C	-0.545544	-0.591848	-0.073618
C73	C	-1.045537	-1.193003	-0.439381
C74	C	-0.545537	-0.693003	0.060619
C75	C	-0.962991	-1.192975	-0.439371
C76	C	-0.462991	-0.692975	0.060629
C77	C	-0.921718	-1.142382	-0.506485
C78	C	-0.421718	-0.642382	-0.006485
C79	C	-0.962990	-1.091817	-0.573608
C80	C	-0.462990	-0.591817	-0.073608
C81	C	-0.921712	-1.243534	-0.372241
C82	C	-0.421712	-0.743534	0.127759
C83	C	-0.839161	-1.243508	-0.372228
C84	C	-0.339161	-0.743508	0.127772
C85	C	-0.797886	-1.192918	-0.439348
C86	C	-0.297886	-0.692918	0.060652
C87	C	-0.839164	-1.142351	-0.506475
C88	C	-0.339164	-0.642351	-0.006475
C89	C	-0.797891	-1.091758	-0.573589
C90	C	-0.297891	-0.591758	-0.073589
C91	C	-0.839167	-1.041195	-0.640722
C92	C	-0.339167	-0.541195	-0.140722
C93	C	-0.921716	-1.041227	-0.640728
C94	C	-0.421716	-0.541227	-0.140728
C95	C	-0.715338	-1.192886	-0.439342
C96	C	-0.215338	-0.692886	0.060658
C97	C	-0.715337	-1.091728	-0.573579
C98	C	-0.215337	-0.591728	-0.073579
C99	C	-0.174674	-1.142403	-0.506487
C100	C	0.325326	-0.642403	-0.006487
C101	C	-0.086817	-1.142441	-0.506504
C102	C	0.413183	-0.642441	-0.006504
C103	C	-0.380768	-1.142373	-0.780479
C104	C	0.119232	-0.642373	-0.280479
C105	C	-0.380737	-1.142397	-0.897256
C106	C	0.119263	-0.642397	-0.397256
C107	C	-0.380867	-0.348483	-0.506496
C108	C	0.119133	0.151517	-0.006496
C109	C	-0.380855	-0.436340	-0.506469
C110	C	0.119145	0.063660	-0.006469
C111	C	-0.431241	-1.192951	-1.061861
C112	C	0.068759	-0.692951	-0.561861
C113	C	-0.431279	-1.192932	-0.952136
C114	C	0.068721	-0.692932	-0.452136
C115	C	-0.330160	-1.091872	-0.952106
C116	C	0.169840	-0.591872	-0.452106
C117	C	-0.330127	-1.091888	-1.061828
C118	C	0.169873	-0.591888	-0.561828
C119	C	-0.380858	-1.142303	-0.233478
C120	C	0.119142	-0.642303	0.266522
C121	C	-0.380667	-1.142432	-0.116702
C122	C	0.119333	-0.642432	0.383298
H123	H	-0.472421	-0.841341	-0.384258
H124	H	0.027579	-0.341341	0.115742
H125	H	-0.288942	-1.050745	-1.106481
H126	H	0.211058	-0.550745	-0.606481
Br127	Br	-0.499831	-1.261545	-1.136330
Br128	Br	0.000169	-0.761545	-0.636330
Br129	Br	-0.261810	-0.863935	-0.665029
Br130	Br	0.238190	-0.363935	-0.165029
Br131	Br	-0.977728	-1.312195	-0.281169
Br132	Br	-0.477728	-0.812195	0.218831
H133	H	-0.289261	-0.444088	-0.628574
H134	H	0.210739	0.055912	-0.128574
H135	H	-0.289011	-1.050722	-0.907413
H136	H	0.210989	-0.550722	-0.407413
Br137	Br	-0.659323	-1.261491	-0.348226
Br138	Br	-0.159323	-0.761491	0.151774
H139	H	-0.805553	-0.999998	-0.695362
H140	H	-0.305553	-0.499998	-0.195362
H141	H	-0.805559	-1.284680	-0.317566
H142	H	-0.305559	-0.784680	0.182434
Br143	Br	-1.101558	-1.023235	-0.664731
Br144	Br	-0.601558	-0.523235	-0.164731
H145	H	-0.238762	-0.567955	-0.695856
H146	H	0.261238	-0.067955	-0.195856
Br147	Br	-0.499922	-1.261494	-0.877712
Br148	Br	0.000078	-0.761494	-0.377712
Br149	Br	-0.211323	-0.740150	-0.732370
Br150	Br	0.288677	-0.240150	-0.232370
Br151	Br	-0.550335	-0.739870	-0.280451
Br152	Br	-0.050335	-0.239870	0.219549
H153	H	-0.522927	-0.567707	-0.317019
H154	H	-0.022927	-0.067707	0.182981
H155	H	-0.472451	-0.443925	-0.384354
H156	H	0.027549	0.056075	0.115646
H157	H	-0.955330	-1.000060	-0.695383
H158	H	-0.455330	-0.500060	-0.195383
Br159	Br	-0.659330	-1.023068	-0.664676
Br160	Br	-0.159330	-0.523068	-0.164676
H161	H	-1.079146	-1.234189	-0.384734
H162	H	-0.579146	-0.734189	0.115266
