data_functionalizedCrystal
_audit_creation_method	'MofGen! by Chris Wilmer'
_symmetry_space_group_name_H-M	'P1'
_symmetry_Int_Tables_number	1
_symmetry_cell_setting	triclinic
loop_
_symmetry_equiv_pos_as_xyz
  x,y,z
_cell_length_a	10.654550
_cell_length_b	17.038272
_cell_length_c	9.730223
_cell_angle_alpha	89.995299
_cell_angle_beta	89.999957
_cell_angle_gamma	87.798243
loop_
_atom_site_label
_atom_site_type_symbol
_atom_site_fract_x
_atom_site_fract_y
_atom_site_fract_z
O1	O	1.678042	0.109878	-0.114188
O2	O	1.313535	0.120346	-0.114214
O3	O	1.493622	0.001285	-0.114190
O4	O	1.497955	0.228940	-0.114212
O5	O	1.493609	0.001281	0.114390
O6	O	1.313523	0.120343	0.114366
O7	O	1.678029	0.109875	0.114392
Zn8	Zn	1.495774	0.115108	0.150671
Zn9	Zn	1.495791	0.115113	-0.150493
O10	O	1.497942	0.228936	0.114368
C11	C	1.266660	0.119576	0.000073
C12	C	1.127003	0.117276	0.000064
C13	C	1.054026	0.187378	0.000061
C14	C	0.922805	0.185213	0.000085
C15	C	0.937548	0.042838	0.000109
C16	C	1.068767	0.045004	0.000095
C17	C	1.489675	-0.027867	0.000099
C18	C	1.477918	-0.114726	0.000098
C19	C	1.585862	-0.164237	0.000107
C20	C	1.574808	-0.245849	0.000093
C21	C	1.455808	-0.277949	0.000080
C22	C	1.347855	-0.228431	0.000067
C23	C	1.358911	-0.146820	0.000071
C24	C	1.416750	-0.523925	0.000059
C25	C	1.405702	-0.605542	0.000059
C26	C	1.632655	-0.622955	0.000082
C27	C	1.643701	-0.541341	0.000094
C28	C	1.535748	-0.491831	0.000074
C29	C	1.444505	-0.361369	0.000070
C30	C	1.547052	-0.408412	0.000074
C31	C	1.724905	0.110645	0.000102
C32	C	1.864561	0.112945	0.000102
C33	C	1.501889	0.258088	0.000076
C34	C	1.513646	0.344947	0.000068
N35	N	1.495771	0.115105	0.356207
N36	N	1.495802	0.115110	-0.356029
C37	C	1.575545	0.062407	0.428144
C38	C	1.575558	0.062407	0.572027
C39	C	1.416020	0.167810	0.572024
C40	C	1.416002	0.167806	0.428144
H41	H	0.890116	-0.016004	0.000142
O42	O	1.661599	0.005570	0.649621
H43	H	1.726178	0.038862	0.715167
H44	H	1.351074	0.210719	0.630609
H45	H	0.863392	0.242297	0.000086
H46	H	1.640497	0.019494	0.369576
O47	O	1.329938	0.224641	0.350550
H48	H	1.343314	0.215774	0.238417
O49	O	1.772058	-0.506729	0.000078
H50	H	1.824356	-0.526579	0.093235
O51	O	1.116842	0.265326	0.000039
H52	H	1.176289	0.269712	0.093193
H53	H	1.128187	-0.012085	0.000101
H54	H	1.662708	-0.286159	0.000103
H55	H	1.720544	-0.663274	0.000096
O56	O	1.714213	-0.129616	0.000108
H57	H	1.787414	-0.177759	0.000094
H58	H	1.271011	-0.106509	0.000064
H59	H	1.308794	-0.631674	0.000071
O60	O	1.300314	-0.470536	0.000070
H61	H	1.243772	-0.482026	-0.093087
O62	O	1.219501	-0.263046	0.000068
H63	H	1.229945	-0.328114	0.000086
H64	H	1.643941	-0.382273	0.000054
O65	O	1.316159	-0.395997	0.000086
H66	H	1.305701	-0.432764	-0.093073
