data_functionalizedCrystal
_audit_creation_method	'MofGen! by Chris Wilmer'
_symmetry_space_group_name_H-M	'P1'
_symmetry_Int_Tables_number	1
_symmetry_cell_setting	triclinic
loop_
_symmetry_equiv_pos_as_xyz
  x,y,z
_cell_length_a	18.627350
_cell_length_b	18.627245
_cell_length_c	18.627297
_cell_angle_alpha	89.997346
_cell_angle_beta	120.001335
_cell_angle_gamma	120.000253
loop_
_atom_site_label
_atom_site_type_symbol
_atom_site_fract_x
_atom_site_fract_y
_atom_site_fract_z
O1	O	-0.633238	0.492479	-0.021354
O2	O	-0.486231	0.388083	0.021257
O3	O	-0.633232	0.388082	-0.125747
O4	O	-0.486236	0.492480	0.125650
O5	O	-0.513832	0.507484	-0.125750
O6	O	-0.366831	0.507485	0.021254
O7	O	-0.513838	0.611881	-0.021357
Cu8	Cu	-0.429432	0.570585	-0.000052
Cu9	Cu	-0.570636	0.429379	-0.000048
O10	O	-0.366837	0.611882	0.125647
C11	C	-0.644043	0.742978	-0.031065
C12	C	-0.593649	0.837674	-0.024973
C13	C	-0.601244	0.699378	-0.031668
C14	C	-0.774042	0.612978	-0.031062
C15	C	-0.862643	0.568677	-0.024966
C16	C	-0.731045	0.569575	-0.031665
C17	C	-0.644038	0.612980	-0.031057
C18	C	-0.593639	0.568681	-0.024956
C19	C	-0.731050	0.699376	-0.031673
O20	O	-1.104444	0.388077	-0.125765
O21	O	-0.895647	0.492475	0.125634
O22	O	-0.895645	0.492475	-0.021364
O23	O	-1.104446	0.388077	0.021234
O24	O	-0.895647	0.611876	-0.021372
O25	O	-0.895649	0.611876	0.125627
O26	O	-1.104446	0.507478	-0.125772
Cu27	Cu	-1.000048	0.570579	-0.000074
Cu28	Cu	-1.000045	0.429374	-0.000065
O29	O	-1.104448	0.507478	0.021226
C30	C	-0.644029	0.386981	-0.387046
C31	C	-0.593633	0.431280	-0.431348
C32	C	-0.731033	0.300582	-0.430447
C33	C	-0.644028	0.386981	-0.257045
C34	C	-0.593632	0.431282	-0.162350
C35	C	-0.731032	0.300583	-0.300644
C36	C	-0.774026	0.256981	-0.387041
C37	C	-0.862624	0.162285	-0.431337
C38	C	-0.601233	0.430385	-0.300649
C39	C	-0.356043	0.256976	0.030937
C40	C	-0.406440	0.162279	0.024839
C41	C	-0.269040	0.300577	0.031539
C42	C	-0.356039	0.386979	0.030943
C43	C	-0.406432	0.431282	0.024852
C44	C	-0.269036	0.430383	0.031545
C45	C	-0.226045	0.386977	0.030932
C46	C	-0.137449	0.431276	0.024831
C47	C	-0.398836	0.300580	0.031549
O48	O	-0.366838	1.125678	0.021243
O49	O	-0.513847	0.874277	-0.021373
O50	O	-0.366852	1.021263	0.125633
O51	O	-0.513833	0.978692	-0.125763
O52	O	-0.486257	1.021261	0.125627
O53	O	-0.633252	0.874275	-0.021379
O54	O	-0.486243	1.125676	0.021238
Cu55	Cu	-0.570650	0.999975	-0.000071
Cu56	Cu	-0.429440	0.999978	-0.000064
O57	O	-0.633238	0.978690	-0.125768
O58	O	-1.104417	-0.125712	-0.492519
O59	O	-0.895624	0.125685	-0.388135
O60	O	-0.895618	-0.021312	-0.388123
O61	O	-1.104423	0.021284	-0.492531
O62	O	-0.895621	-0.021315	-0.507526
O63	O	-0.895628	0.125681	-0.507539
O64	O	-1.104420	-0.125716	-0.611922
Cu65	Cu	-1.000024	-0.000018	-0.570633
Cu66	Cu	-1.000020	-0.000013	-0.429425
O67	O	-1.104427	0.021281	-0.611935
O68	O	-0.486231	0.492485	-0.611948
O69	O	-0.633232	0.388082	-0.507549
O70	O	-0.486228	0.388086	-0.507543
O71	O	-0.633235	0.492482	-0.611954
O72	O	-0.366831	0.507486	-0.388144
O73	O	-0.513835	0.507482	-0.388151
O74	O	-0.366833	0.611885	-0.492549
Cu75	Cu	-0.429432	0.570586	-0.429448
Cu76	Cu	-0.570633	0.429381	-0.570651
O77	O	-0.513837	0.611882	-0.492556
C78	C	-0.226041	0.742985	0.386940
C79	C	-0.137443	0.837681	0.431235
C80	C	-0.269034	0.699384	0.430347
C81	C	-0.356039	0.612984	0.256945
C82	C	-0.406436	0.568683	0.162250
C83	C	-0.398834	0.569581	0.300549
C84	C	-0.356038	0.612986	0.386946
C85	C	-0.406432	0.568687	0.431249
C86	C	-0.269035	0.699382	0.300543
C87	C	-0.644043	0.612982	0.386936
C88	C	-0.593644	0.568684	0.431242
C89	C	-0.601249	0.699380	0.430334
C90	C	-0.774046	0.612979	0.256929
C91	C	-0.862645	0.568678	0.162232
C92	C	-0.731054	0.699377	0.300525
C93	C	-0.644049	0.742980	0.386924
C94	C	-0.593656	0.837676	0.431218
C95	C	-0.731049	0.569577	0.300537
C96	C	-1.356045	0.256975	-0.387063
C97	C	-1.406438	0.162278	-0.431357
C98	C	-1.398844	0.300575	-0.430472
C99	C	-1.226048	0.386975	-0.257067
C100	C	-1.137448	0.431276	-0.162370
C101	C	-1.269044	0.430378	-0.300674
C102	C	-1.356049	0.386973	-0.387073
C103	C	-1.406448	0.431272	-0.431379
C104	C	-1.269039	0.300577	-0.300664
C105	C	-0.356099	1.030900	0.386912
C106	C	-0.406504	1.024795	0.431206
C107	C	-0.269099	1.031496	0.430316
C108	C	-0.356078	1.030928	0.256922
C109	C	-0.406460	1.024853	0.162230
C110	C	-0.269078	1.031524	0.300524
C111	C	-0.226098	1.030897	0.386917
C112	C	-0.137505	1.024788	0.431216
C113	C	-0.398882	1.031527	0.300519
O114	O	-0.486263	1.125675	0.492403
O115	O	-0.633258	0.874278	0.388014
O116	O	-0.486259	1.021275	0.388011
O117	O	-0.633262	0.978677	0.492406
O118	O	-0.366857	1.021275	0.507417
O119	O	-0.513856	0.874277	0.507420
O120	O	-0.366861	1.125674	0.611809
Cu121	Cu	-0.429456	0.999976	0.570517
Cu122	Cu	-0.570663	0.999976	0.429306
O123	O	-0.513860	0.978677	0.611812
C124	C	-0.773998	0.969050	-0.387054
C125	C	-0.862595	0.975153	-0.431354
C126	C	-0.730992	0.968457	-0.430452
C127	C	-0.644013	0.969025	-0.257058
C128	C	-0.593630	0.975100	-0.162366
C129	C	-0.601205	0.968432	-0.300653
C130	C	-0.643989	0.969059	-0.387046
C131	C	-0.593581	0.975171	-0.431338
C132	C	-0.731017	0.968423	-0.300661
H133	H	-0.767026	0.498589	-0.032633
Br134	Br	-0.790954	0.242209	-0.242273
H135	H	-0.767014	0.265581	-0.501435
Br136	Br	-0.209131	1.033114	0.548632
H137	H	-0.468903	1.032492	0.265510
Br138	Br	-0.791069	0.757701	0.242197
Br139	Br	-0.209062	0.242237	0.033171
H140	H	-0.531191	0.967458	-0.265640
H141	H	-0.233036	0.734388	0.501340
H142	H	-0.767009	0.967438	-0.265662
H143	H	-1.233051	0.501370	-0.265674
H144	H	-0.531240	0.734383	0.501324
H145	H	-0.468843	0.265573	0.032535
H146	H	-0.468845	0.498593	0.265543
Br147	Br	-1.515525	0.242236	-0.548793
Br148	Br	-0.484553	0.548705	-0.242309
H149	H	-0.766974	0.967487	-0.501440
H150	H	-0.531220	0.734393	-0.032628
H151	H	-0.766979	0.498611	0.265515
H152	H	-0.767027	0.734387	-0.032647
Br153	Br	-0.209075	1.033190	0.242199
Br154	Br	-0.209073	0.548694	0.033154
H155	H	-0.233048	0.734390	0.265539
H156	H	-1.233060	0.265568	-0.265656
