data_functionalizedCrystal
_audit_creation_method	'MofGen! by Chris Wilmer'
_symmetry_space_group_name_H-M	'P1'
_symmetry_Int_Tables_number	1
_symmetry_cell_setting	triclinic
loop_
_symmetry_equiv_pos_as_xyz
  x,y,z
_cell_length_a	15.944545
_cell_length_b	17.019294
_cell_length_c	14.421503
_cell_angle_alpha	86.125318
_cell_angle_beta	89.995153
_cell_angle_gamma	83.445278
loop_
_atom_site_label
_atom_site_type_symbol
_atom_site_fract_x
_atom_site_fract_y
_atom_site_fract_z
O1	O	1.114405	0.101703	-0.085171
O2	O	0.869839	0.114251	-0.086188
O3	O	0.998944	-0.006854	-0.076505
O4	O	0.985300	0.222808	-0.094854
O5	O	0.998923	-0.006836	0.077717
O6	O	0.869818	0.114269	0.068034
O7	O	1.114384	0.101721	0.069051
Cu8	Cu	0.992099	0.107997	0.082624
Cu9	Cu	0.992124	0.107975	-0.099761
O10	O	0.985279	0.222826	0.059368
C11	C	0.838535	0.113740	-0.009037
C12	C	0.745291	0.112181	-0.008918
C13	C	0.474758	0.032455	-0.002539
C14	C	0.525281	0.070901	0.070432
C15	C	0.409654	0.106621	-0.008458
C16	C	0.525282	0.070904	-0.081621
C17	C	0.574564	0.109348	-0.008686
C18	C	0.458949	0.145047	0.064577
C19	C	0.458947	0.145038	-0.087543
C20	C	0.509437	0.183539	-0.014558
C21	C	0.314654	0.105047	-0.008326
C22	C	0.669561	0.110928	-0.008811
C23	C	0.998416	-0.036234	0.002951
C24	C	0.996863	-0.123804	0.009941
C25	C	0.996147	-0.164949	-0.070841
C26	C	0.994683	-0.247230	-0.064270
C27	C	0.993941	-0.288363	0.023083
C28	C	0.994654	-0.247212	0.103871
C29	C	0.996112	-0.164932	0.097300
C30	C	0.989532	-0.536793	0.047130
C31	C	0.988076	-0.619079	0.053696
C32	C	0.988103	-0.619091	-0.114447
C33	C	0.989567	-0.536810	-0.121010
C34	C	0.990275	-0.495665	-0.040222
C35	C	0.992446	-0.372467	0.029801
C36	C	0.991763	-0.411562	-0.046941
C37	C	1.145688	0.102232	-0.008102
C38	C	1.238932	0.103791	-0.008227
C39	C	0.985807	0.252206	-0.020090
C40	C	0.987360	0.339776	-0.027086
N41	N	0.992087	0.108011	0.210904
N42	N	0.992142	0.107954	-0.228041
C43	C	0.932379	0.163985	0.456083
C44	C	1.008260	0.179298	0.516667
C45	C	0.992108	0.107992	0.400067
C46	C	0.916246	0.092698	0.523576
C47	C	0.992121	0.107976	0.582790
C48	C	1.068027	0.123341	0.459287
C49	C	0.975964	0.036709	0.466194
C50	C	1.051899	0.051992	0.526752
C51	C	0.992099	0.108004	0.294805
C52	C	0.992138	0.107964	0.688050
H53	H	0.524849	0.247460	-0.019620
H54	H	0.881919	0.211374	0.425196
C55	C	0.884527	-0.035175	0.380424
C56	C	0.957483	-0.044632	0.435967
H57	H	0.873116	-0.085391	0.361758
H58	H	0.838200	-0.012490	0.414866
H59	H	0.892796	-0.001240	0.326971
H60	H	0.949212	-0.078562	0.489424
H61	H	1.003822	-0.067329	0.401525
C62	C	0.988237	-0.610832	-0.281305
C63	C	0.987290	-0.664314	-0.203246
H64	H	0.987730	-0.638752	-0.336127
H65	H	0.939858	-0.572721	-0.280833
H66	H	1.037776	-0.584762	-0.279899
H67	H	0.937748	-0.690380	-0.204648
H68	H	1.035673	-0.702440	-0.203718
C69	C	0.991644	-0.419837	-0.212486
C70	C	0.992579	-0.366351	-0.142960
H71	H	0.992145	-0.391919	-0.271763
H72	H	1.040031	-0.457939	-0.205944
H73	H	0.942113	-0.445918	-0.206910
H74	H	1.042113	-0.340274	-0.148531
H75	H	0.944187	-0.328235	-0.149505
H76	H	1.021927	0.239573	0.539024
C77	C	0.547261	-0.050462	-0.158555
C78	C	0.564380	0.028600	-0.165027
H79	H	0.571393	-0.076579	-0.210047
H80	H	0.570859	-0.076263	-0.102504
H81	H	0.487917	-0.052160	-0.158740
H82	H	0.623724	0.030299	-0.164836
H83	H	0.540786	0.054407	-0.221093
C84	C	0.483949	0.214799	0.199337
C85	C	0.420001	0.187308	0.148085
H86	H	0.459902	0.240891	0.250888
H87	H	0.523258	0.171257	0.220984
H88	H	0.512049	0.250906	0.160900
H89	H	0.391906	0.151196	0.186520
H90	H	0.380678	0.230855	0.126439
H91	H	0.429970	0.176325	-0.154333
C92	C	1.058619	-0.720446	0.159345
C93	C	0.987275	-0.664288	0.149728
H94	H	1.058132	-0.748350	0.218632
H95	H	1.057977	-0.756727	0.112185
H96	H	1.108134	-0.694342	0.153756
H97	H	0.937759	-0.690392	0.155310
H98	H	0.987909	-0.628001	0.196901
H99	H	0.996756	-0.131465	-0.141973
C100	C	0.989405	-0.545063	0.213989
C101	C	0.990345	-0.491578	0.135932
H102	H	0.989920	-0.517147	0.268813
H103	H	0.939874	-0.571132	0.212587
H104	H	1.037791	-0.583177	0.213509
H105	H	0.941955	-0.453467	0.136408
H106	H	1.039881	-0.465496	0.137334
H107	H	0.994104	-0.280727	-0.130052
C108	C	0.920837	-0.330879	0.208092
C109	C	0.993842	-0.292428	0.199891
H110	H	0.920343	-0.358797	0.267370
H111	H	0.872454	-0.292772	0.201559
H112	H	0.920210	-0.367158	0.160915
H113	H	0.994465	-0.256145	0.247064
H114	H	1.042237	-0.330540	0.206433
C115	C	0.487383	-0.092419	0.087265
C116	C	0.453723	-0.053765	0.004446
H117	H	0.474389	-0.145644	0.091581
H118	H	0.546901	-0.092025	0.087779
H119	H	0.463672	-0.065807	0.138604
H120	H	0.477438	-0.080373	-0.046893
H121	H	0.394192	-0.054164	0.003924
C122	C	0.651853	0.031167	0.159882
C123	C	0.564384	0.028632	0.160593
H124	H	0.675988	0.005071	0.215545
H125	H	0.675443	0.005342	0.107955
H126	H	0.663444	0.084810	0.155679
H127	H	0.552792	-0.025012	0.164789
H128	H	0.540786	0.054455	0.212534
C129	C	0.995929	-0.173178	0.264159
C130	C	0.996890	-0.119701	0.186098
H131	H	0.996408	-0.145253	0.318980
H132	H	0.946410	-0.199262	0.262733
H133	H	1.044328	-0.211281	0.263712
H134	H	0.948488	-0.081601	0.186541
H135	H	1.046415	-0.093604	0.187525
C136	C	1.153824	0.140873	0.324290
C137	C	1.154638	0.140960	0.421373
H138	H	1.207285	0.151776	0.300882
H139	H	1.142309	0.090402	0.306613
H140	H	1.111333	0.180393	0.299536
H141	H	1.197126	0.101437	0.446128
H142	H	1.166164	0.191438	0.439058
H143	H	0.991845	-0.405968	0.100925
H144	H	0.852086	0.079769	0.551775
C145	C	1.162561	-0.050788	0.496293
C146	C	1.120166	-0.011942	0.568224
H147	H	1.204710	-0.090251	0.521899
H148	H	1.123446	-0.074973	0.461146
H149	H	1.188289	-0.013483	0.457059
H150	H	1.094433	-0.049246	0.607454
H151	H	1.159287	0.012244	0.603387
H152	H	0.990172	-0.503325	-0.192143
