data_functionalizedCrystal
_audit_creation_method	'MofGen! by Chris Wilmer'
_symmetry_space_group_name_H-M	'P1'
_symmetry_Int_Tables_number	1
_symmetry_cell_setting	triclinic
loop_
_symmetry_equiv_pos_as_xyz
  x,y,z
_cell_length_a	19.188930
_cell_length_b	18.266242
_cell_length_c	10.540514
_cell_angle_alpha	90.003144
_cell_angle_beta	83.829971
_cell_angle_gamma	90.022918
loop_
_atom_site_label
_atom_site_type_symbol
_atom_site_fract_x
_atom_site_fract_y
_atom_site_fract_z
O1	O	0.927198	0.061112	0.158474
O2	O	0.724028	0.061061	0.179806
O3	O	0.830257	0.061088	-0.015671
O4	O	0.820968	0.061084	0.353951
O5	O	0.830239	-0.060674	-0.015681
O6	O	0.724009	-0.060701	0.179797
O7	O	0.927180	-0.060650	0.158464
Zn8	Zn	0.825592	-0.080008	0.169128
Zn9	Zn	0.825616	0.080419	0.169142
O10	O	0.820950	-0.060678	0.353941
C11	C	0.698003	0.000173	0.179111
C12	C	0.620485	0.000154	0.177037
C13	C	0.576320	0.000164	0.291737
C14	C	0.503483	0.000172	0.289788
C15	C	0.474815	0.000185	0.173134
C16	C	0.518989	0.000171	0.058419
C17	C	0.591824	0.000155	0.060371
N18	N	0.366251	0.041656	0.083969
N19	N	0.297060	0.041673	0.082123
C20	C	0.255367	0.000230	0.167247
N21	N	0.285478	-0.041221	0.254306
N22	N	0.354674	-0.041234	0.256155
C23	C	0.395838	0.000201	0.171005
C24	C	0.132224	0.000248	0.279842
C25	C	0.059386	0.000251	0.277889
C26	C	0.074894	0.000257	0.046516
C27	C	0.147730	0.000246	0.048473
C28	C	0.176390	0.000245	0.165139
N29	N	0.825580	-0.189495	0.169119
C30	C	0.872634	-0.227792	0.082604
C31	C	0.872639	-0.304437	0.082598
C32	C	0.825596	-0.342782	0.169129
C33	C	0.778533	-0.304476	0.255650
C34	C	0.778525	-0.227833	0.255645
N35	N	0.817264	-0.463117	0.281495
N36	N	0.817275	-0.535925	0.281496
C37	C	0.825616	-0.573704	0.169147
N38	N	0.833958	-0.535925	0.056794
N39	N	0.833950	-0.463110	0.056794
C40	C	0.825599	-0.425889	0.169143
C41	C	0.872677	-0.695108	0.082618
C42	C	0.872677	-0.771755	0.082611
C43	C	0.778574	-0.771792	0.255675
C44	C	0.778571	-0.695148	0.255671
C45	C	0.825626	-0.656810	0.169144
C46	C	0.953204	0.000239	0.159159
C47	C	1.030722	0.000263	0.161233
C48	C	0.829555	0.000209	-0.062964
C49	C	0.827482	0.000214	-0.203868
N50	N	0.825632	0.189905	0.169141
C51	C	0.903456	0.000231	-0.276248
C52	C	0.901325	-0.000051	-0.422814
C53	C	0.786154	-0.069199	-0.395299
C54	C	0.788823	-0.069252	-0.248818
C55	C	0.787719	0.069219	-0.248384
C56	C	0.786986	0.070126	-0.395346
C57	C	0.821652	0.000203	0.401234
C58	C	0.823725	0.000203	0.542138
H59	H	0.051553	0.000313	-0.048466
H60	H	0.740228	-0.335701	0.326103
O61	O	0.727765	-0.186526	0.348957
H62	H	0.735659	-0.126789	0.334408
O63	O	0.923417	-0.653749	-0.010716
H64	H	0.956130	-0.693260	-0.070894
H65	H	0.910948	-0.196580	0.012146
H66	H	0.910957	-0.335624	0.012144
H67	H	0.811916	-0.121032	-0.438428
O68	O	0.455834	0.000191	0.413503
H69	H	0.488000	0.000193	0.494955
H70	H	0.910992	-0.802936	0.012153
H71	H	0.740268	-0.803013	0.326125
H72	H	0.740258	-0.663964	0.326125
H73	H	0.930877	0.049688	-0.466127
O74	O	0.488075	0.000180	-0.067406
H75	H	0.455297	0.049819	-0.073838
O76	O	0.823350	0.138144	-0.450437
H77	H	0.785434	0.172146	-0.496905
H78	H	0.933839	-0.049414	-0.246603
H79	H	0.934279	0.050001	-0.248402
H80	H	0.183690	0.000242	-0.044929
O81	O	0.639467	0.000148	-0.063345
H82	H	0.607299	0.000160	-0.144794
H83	H	0.930735	-0.050081	-0.465196
O84	O	0.821121	0.138923	-0.207142
H85	H	0.866456	0.125159	-0.154489
H86	H	0.730426	0.074512	-0.418294
H87	H	0.599650	0.000165	0.386735
H88	H	0.816248	-0.121316	-0.221201
H89	H	0.733014	-0.072225	-0.199583
H90	H	0.729158	-0.071598	-0.416357
O91	O	0.713492	0.070103	-0.184143
H92	H	0.704928	0.021661	-0.120808
O93	O	0.163142	0.000230	0.405669
H94	H	0.145466	0.049853	0.460783
O95	O	0.011744	0.000259	0.401606
H96	H	0.043914	0.000262	0.483053
