data_functionalizedCrystal
_audit_creation_method	'MofGen! by Chris Wilmer'
_symmetry_space_group_name_H-M	'P1'
_symmetry_Int_Tables_number	1
_symmetry_cell_setting	triclinic
loop_
_symmetry_equiv_pos_as_xyz
  x,y,z
_cell_length_a	25.639242
_cell_length_b	25.639239
_cell_length_c	19.805399
_cell_angle_alpha	89.971274
_cell_angle_beta	89.972605
_cell_angle_gamma	90.034213
loop_
_atom_site_label
_atom_site_type_symbol
_atom_site_fract_x
_atom_site_fract_y
_atom_site_fract_z
Zn1	Zn	0.799252	-0.208225	-0.382855
Zn2	Zn	1.132585	0.125108	-0.049522
Zn3	Zn	1.465919	0.458441	0.283811
Zn4	Zn	0.799168	-0.295659	-0.269665
Zn5	Zn	1.132501	0.037674	0.063668
Zn6	Zn	1.465834	0.371007	0.397002
Zn7	Zn	0.711820	-0.208233	-0.269665
Zn8	Zn	1.045154	0.125100	0.063669
Zn9	Zn	1.378487	0.458434	0.397002
Zn10	Zn	0.711773	-0.295625	-0.382796
Zn11	Zn	1.045107	0.037709	-0.049463
Zn12	Zn	1.378440	0.371042	0.283870
O13	O	0.755503	-0.251936	-0.326245
O14	O	1.088837	0.081398	0.007088
O15	O	1.422170	0.414731	0.340421
O16	O	0.872406	-0.219835	-0.367865
O17	O	1.205739	0.113498	-0.034532
O18	O	1.539073	0.446832	0.298801
O19	O	0.787565	-0.284080	-0.174948
O20	O	1.120898	0.049254	0.158385
O21	O	1.454232	0.382587	0.491718
O22	O	0.723473	-0.135067	-0.284704
O23	O	1.056807	0.198267	0.048629
O24	O	1.390140	0.531600	0.381962
O25	O	0.872344	-0.284072	-0.284705
O26	O	1.205677	0.049261	0.048629
O27	O	1.539011	0.382594	0.381962
O28	O	0.787709	-0.135061	-0.367865
O29	O	1.121042	0.198272	-0.034532
O30	O	1.454376	0.531606	0.298802
O31	O	0.723391	-0.219848	-0.174948
O32	O	1.056725	0.113486	0.158385
O33	O	1.390058	0.446819	0.491719
O34	O	0.638649	-0.219814	-0.284647
O35	O	0.971982	0.113519	0.048687
O36	O	1.305316	0.446852	0.382020
O37	O	0.723393	-0.284013	-0.477521
O38	O	1.056727	0.049320	-0.144187
O39	O	1.390060	0.382653	0.189146
O40	O	0.638615	-0.284021	-0.367764
O41	O	0.971948	0.049313	-0.034431
O42	O	1.305281	0.382646	0.298903
O43	O	0.787664	-0.219801	-0.477564
O44	O	1.120997	0.113532	-0.144231
O45	O	1.454330	0.446865	0.189102
O46	O	0.787520	-0.368820	-0.284647
O47	O	1.120853	-0.035487	0.048686
O48	O	1.454186	0.297847	0.382019
O49	O	0.723311	-0.368794	-0.367764
O50	O	1.056645	-0.035461	-0.034431
O51	O	1.389978	0.297872	0.298902
C52	C	0.619661	-0.251915	-0.326199
C53	C	0.952994	0.081418	0.007134
C54	C	1.286327	0.414752	0.340467
C55	C	0.561547	-0.251919	-0.326196
C56	C	0.894880	0.081415	0.007137
C57	C	1.228213	0.414748	0.340471
C58	C	0.201175	-0.285424	-0.369483
C59	C	0.534508	0.047910	-0.036150
C60	C	0.867841	0.381243	0.297183
C61	C	0.146570	-0.285427	-0.369494
C62	C	0.479904	0.047906	-0.036161
C63	C	0.813237	0.381240	0.297173
O64	O	0.118326	-0.313888	-0.406260
O65	O	0.451659	0.019445	-0.072927
O66	O	0.784993	0.352778	0.260407
N67	N	0.119264	-0.251950	-0.326289
N68	N	0.452598	0.081383	0.007044
N69	N	0.785931	0.414717	0.340377
C70	C	0.146565	-0.218464	-0.283076
C71	C	0.479899	0.114870	0.050257
C72	C	0.813232	0.448203	0.383591
O73	O	0.118326	-0.189989	-0.246329
O74	O	0.451659	0.143344	0.087005
O75	O	0.784992	0.476678	0.420338
C76	C	0.201169	-0.218458	-0.283069
C77	C	0.534502	0.114875	0.050264
C78	C	0.867835	0.448208	0.383597
C79	C	0.228472	-0.251941	-0.326272
C80	C	0.561805	0.081392	0.007061
C81	C	0.895139	0.414725	0.340395
C82	C	0.228478	-0.318903	-0.412683
C83	C	0.561811	0.014430	-0.079350
C84	C	0.895145	0.347763	0.253984
C85	C	0.283078	-0.318901	-0.412671
C86	C	0.616412	0.014433	-0.079338
C87	C	0.949745	0.347766	0.253995
C88	C	0.310376	-0.285418	-0.369460
C89	C	0.643709	0.047915	-0.036127
C90	C	0.977042	0.381248	0.297207
C91	C	0.283072	-0.251939	-0.326260
C92	C	0.616406	0.081395	0.007073
C93	C	0.949739	0.414728	0.340406
C94	C	0.228469	-0.184970	-0.239860
C95	C	0.561802	0.148363	0.093473
C96	C	0.895136	0.481697	0.426807
C97	C	0.283076	-0.184967	-0.239857
C98	C	0.616409	0.148366	0.093476
C99	C	0.949743	0.481699	0.426809
C100	C	0.310379	-0.218450	-0.283060
C101	C	0.643712	0.114883	0.050273
C102	C	0.977046	0.448217	0.383607
C103	C	0.364970	-0.218454	-0.283037
C104	C	0.698304	0.114880	0.050296
C105	C	1.031637	0.448213	0.383630
N106	N	0.392276	-0.251931	-0.326242
N107	N	0.725610	0.081403	0.007092
N108	N	1.058943	0.414736	0.340425
C109	C	0.364979	-0.285413	-0.369453
C110	C	0.698312	0.047920	-0.036120
C111	C	1.031646	0.381254	0.297213
C112	C	0.031895	-0.218477	-0.283094
C113	C	0.365228	0.114856	0.050239
C114	C	0.698561	0.448189	0.383572
C115	C	-0.022708	-0.218485	-0.283097
C116	C	0.310626	0.114848	0.050236
C117	C	0.643959	0.448182	0.383569
C118	C	-0.022699	-0.285447	-0.369516
C119	C	0.310634	0.047886	-0.036183
C120	C	0.643968	0.381219	0.297150
C121	C	0.031904	-0.285442	-0.369510
C122	C	0.365238	0.047891	-0.036176
C123	C	0.698571	0.381225	0.297157
C124	C	0.059201	-0.251954	-0.326299
C125	C	0.392534	0.081379	0.007034
C126	C	0.725867	0.414713	0.340368
C127	C	0.479644	-0.285405	-0.369425
C128	C	0.812977	0.047928	-0.036092
C129	C	1.146311	0.381261	0.297242
C130	C	0.534249	-0.285401	-0.369407
C131	C	0.867583	0.047932	-0.036074
C132	C	1.200916	0.381266	0.297259
C133	C	0.534236	-0.218437	-0.282991
C134	C	0.867569	0.114896	0.050342
C135	C	1.200903	0.448230	0.383676
C136	C	0.479635	-0.218443	-0.283006
C137	C	0.812969	0.114891	0.050328
C138	C	1.146302	0.448224	0.383661
C139	C	0.452341	-0.251929	-0.326228
C140	C	0.785674	0.081405	0.007105
C141	C	1.119007	0.414738	0.340439
O142	O	0.393249	-0.190005	-0.246292
O143	O	0.726583	0.143328	0.087041
O144	O	1.059916	0.476662	0.420375
O145	O	0.393226	-0.313878	-0.406201
O146	O	0.726559	0.019455	-0.072868
O147	O	1.059892	0.352789	0.260466
C148	C	0.755415	-0.387778	-0.326214
C149	C	1.088749	-0.054445	0.007119
C150	C	1.422082	0.278889	0.340452
C151	C	0.755426	-0.445892	-0.326224
C152	C	1.088759	-0.112559	0.007110
C153	C	1.422092	0.220775	0.340443
C154	C	0.789024	-0.806256	-0.283040
C155	C	1.122357	-0.472922	0.050293
C156	C	1.455690	-0.139589	0.383627
C157	C	0.789044	-0.860860	-0.283049
C158	C	1.122377	-0.527527	0.050284
C159	C	1.455711	-0.194193	0.383618
O160	O	0.817519	-0.889097	-0.246299
O161	O	1.150852	-0.555764	0.087035
O162	O	1.484186	-0.222431	0.420368
N163	N	0.755595	-0.888175	-0.326290
N164	N	1.088929	-0.554841	0.007043
N165	N	1.422262	-0.221508	0.340376
C166	C	0.722128	-0.860882	-0.369530
C167	C	1.055461	-0.527548	-0.036197
C168	C	1.388794	-0.194215	0.297137
O169	O	0.693679	-0.889129	-0.406311
O170	O	1.027013	-0.555796	-0.072978
O171	O	1.360346	-0.222462	0.260356
C172	C	0.722111	-0.806279	-0.369524
C173	C	1.055444	-0.472945	-0.036190
C174	C	1.388777	-0.139612	0.297143
C175	C	0.755558	-0.778967	-0.326275
C176	C	1.088891	-0.445634	0.007058
C177	C	1.422224	-0.112300	0.340392
C178	C	0.822469	-0.778944	-0.239795
C179	C	1.155802	-0.445611	0.093538
C180	C	1.489135	-0.112277	0.426871
C181	C	0.822448	-0.724344	-0.239786
C182	C	1.155781	-0.391010	0.093548
C183	C	1.489114	-0.057677	0.426881
C184	C	0.788982	-0.697055	-0.283020
C185	C	1.122315	-0.363721	0.050313
C186	C	1.455648	-0.030388	0.383646
C187	C	0.755537	-0.724366	-0.326265
C188	C	1.088870	-0.391033	0.007068
C189	C	1.422203	-0.057700	0.340401
C190	C	0.688646	-0.778987	-0.412766
C191	C	1.021980	-0.445653	-0.079433
C192	C	1.355313	-0.112320	0.253900
C193	C	0.688632	-0.724380	-0.412757
C194	C	1.021965	-0.391046	-0.079424
C195	C	1.355299	-0.057713	0.253910
C196	C	0.722079	-0.697068	-0.369508
C197	C	1.055413	-0.363735	-0.036175
C198	C	1.388746	-0.030402	0.297159
C199	C	0.722050	-0.642477	-0.369490
C200	C	1.055383	-0.309144	-0.036157
C201	C	1.388716	0.024190	0.297176
N202	N	0.755498	-0.615163	-0.326249
N203	N	1.088832	-0.281829	0.007084
N204	N	1.422165	0.051504	0.340417
C205	C	0.788964	-0.642451	-0.283014
C206	C	1.122298	-0.309118	0.050319
C207	C	1.455631	0.024215	0.383652
C208	C	0.722167	-0.975552	-0.369540
C209	C	1.055501	-0.642219	-0.036207
C210	C	1.388834	-0.308886	0.297126
C211	C	0.722181	-1.030155	-0.369544
C212	C	1.055515	-0.696821	-0.036210
C213	C	1.388848	-0.363488	0.297123
C214	C	0.789098	-1.030129	-0.283063
C215	C	1.122432	-0.696796	0.050270
C216	C	1.455765	-0.363463	0.383603
C217	C	0.789081	-0.975526	-0.283057
C218	C	1.122415	-0.642193	0.050276
C219	C	1.455748	-0.308859	0.383609
C220	C	0.755616	-0.948238	-0.326299
C221	C	1.088949	-0.614905	0.007034
C222	C	1.422283	-0.281571	0.340367
C223	C	0.788917	-0.527786	-0.282997
C224	C	1.122251	-0.194453	0.050337
C225	C	1.455584	0.138880	0.383670
C226	C	0.788892	-0.473181	-0.282989
C227	C	1.122225	-0.139848	0.050345
C228	C	1.455558	0.193486	0.383678
C229	C	0.721977	-0.473211	-0.369471
C230	C	1.055310	-0.139878	-0.036138
C231	C	1.388643	0.193455	0.297196
C232	C	0.722000	-0.527812	-0.369477
C233	C	1.055334	-0.194479	-0.036143
C234	C	1.388667	0.138855	0.297190
C235	C	0.755475	-0.555098	-0.326237
C236	C	1.088808	-0.221765	0.007096
C237	C	1.422141	0.111569	0.340429
O238	O	0.693591	-0.614205	-0.406224
O239	O	1.026924	-0.280872	-0.072891
O240	O	1.360257	0.052462	0.260443
O241	O	0.817413	-0.614198	-0.246246
O242	O	1.150746	-0.280864	0.087088
O243	O	1.484080	0.052469	0.420421
C244	C	0.891876	-0.251957	-0.326292
C245	C	1.225210	0.081377	0.007042
C246	C	1.558543	0.414710	0.340375
C247	C	0.949990	-0.251966	-0.326312
C248	C	1.283324	0.081368	0.007022
C249	C	1.616657	0.414701	0.340355
C250	C	0.755533	-0.251903	-0.502788
C251	C	1.088866	0.081431	-0.169455
C252	C	1.422199	0.414764	0.163879
C253	C	0.755545	-0.251889	-0.578020
C254	C	1.088879	0.081445	-0.244687
C255	C	1.422212	0.414778	0.088647
C256	C	0.755606	-0.115562	-0.326291
C257	C	1.088939	0.217771	0.007042
C258	C	1.422273	0.551104	0.340375
C259	C	0.755650	-0.057448	-0.326311
C260	C	1.088983	0.275885	0.007023
C261	C	1.422316	0.609218	0.340356
C262	C	0.789011	-0.218452	-0.613388
C263	C	1.122345	0.114882	-0.280055
C264	C	1.455678	0.448215	0.053279
C265	C	0.789017	-0.218437	-0.684077
C266	C	1.122350	0.114897	-0.350743
C267	C	1.455683	0.448230	-0.017410
C268	C	0.755558	-0.251861	-0.719396
C269	C	1.088892	0.081472	-0.386062
C270	C	1.422225	0.414805	-0.052729
C271	C	0.722088	-0.285300	-0.684023
C272	C	1.055422	0.048034	-0.350690
C273	C	1.388755	0.381367	-0.017356
C274	C	0.722081	-0.285312	-0.613336
C275	C	1.055414	0.048022	-0.280002
C276	C	1.388747	0.381355	0.053331
C277	C	0.722118	-0.285251	-0.969096
C278	C	1.055451	0.048083	-0.635763
C279	C	1.388784	0.381416	-0.302430
C280	C	0.722129	-0.285237	-1.039789
C281	C	1.055462	0.048096	-0.706455
C282	C	1.388796	0.381429	-0.373122
C283	C	0.789054	-0.218376	-1.039837
C284	C	1.122387	0.114958	-0.706504
C285	C	1.455721	0.448291	-0.373170
C286	C	0.789046	-0.218388	-0.969150
C287	C	1.122380	0.114946	-0.635817
C288	C	1.455713	0.448279	-0.302483
C289	C	0.755575	-0.251824	-0.933783
C290	C	1.088908	0.081509	-0.600450
C291	C	1.422241	0.414843	-0.267117
C292	C	0.755569	-0.251839	-0.857135
C293	C	1.088902	0.081494	-0.523801
C294	C	1.422235	0.414827	-0.190468
C295	C	0.755567	-0.251849	-0.796043
C296	C	1.088900	0.081484	-0.462710
C297	C	1.422233	0.414818	-0.129376
C298	C	0.755504	-0.251931	-0.150389
C299	C	1.088838	0.081403	0.182944
C300	C	1.422171	0.414736	0.516277
C301	C	0.755593	-0.251797	-0.075158
C302	C	1.088926	0.081536	0.258176
C303	C	1.422260	0.414869	0.591509
H304	H	0.556471	-0.191178	-0.247807
H305	H	0.889805	0.142155	0.085526
H306	H	1.223138	0.475489	0.418859
C307	C	0.696665	-1.046928	-0.484122
C308	C	1.029999	-0.713594	-0.150788
C309	C	1.363332	-0.380261	0.182545
C310	C	0.685412	-1.060173	-0.417080
C311	C	1.018746	-0.726839	-0.083746
C312	C	1.352079	-0.393506	0.249587
H313	H	0.673968	-1.065461	-0.513471
H314	H	1.007301	-0.732128	-0.180137
H315	H	1.340635	-0.398794	0.153196
H316	H	0.691864	-1.010506	-0.490294
H317	H	1.025198	-0.677173	-0.156961
H318	H	1.358531	-0.343839	0.176373
H319	H	0.731794	-1.055842	-0.494070
H320	H	1.065127	-0.722509	-0.160736
H321	H	1.398461	-0.389176	0.172597
H322	H	0.650285	-1.051255	-0.407130
H323	H	0.983618	-0.717921	-0.073797
H324	H	1.316951	-0.384588	0.259537
H325	H	0.690209	-1.096602	-0.410904
H326	H	1.023542	-0.763269	-0.077571
H327	H	1.356876	-0.429936	0.255762
H328	H	0.694844	-0.312513	-0.712786
H329	H	1.028177	0.020821	-0.379452
H330	H	1.361510	0.354154	-0.046119
C331	C	0.714828	-0.914118	-0.460578
C332	C	1.048161	-0.580785	-0.127245
C333	C	1.381494	-0.247452	0.206088
C334	C	0.685373	-0.945560	-0.417070
C335	C	1.018707	-0.612227	-0.083736
C336	C	1.352040	-0.278893	0.249597
H337	H	0.692113	-0.895608	-0.489923
H338	H	1.025446	-0.562274	-0.156590
H339	H	1.358779	-0.228941	0.176744
H340	H	0.734738	-0.890035	-0.434828
H341	H	1.068072	-0.556702	-0.101495
H342	H	1.401405	-0.223369	0.231839
H343	H	0.737602	-0.935392	-0.486499
H344	H	1.070936	-0.602059	-0.153166
H345	H	1.404269	-0.268725	0.180167
H346	H	0.662601	-0.924286	-0.391145
H347	H	0.995935	-0.590953	-0.057812
H348	H	1.329268	-0.257619	0.275522
H349	H	0.665454	-0.969646	-0.442823
H350	H	0.998787	-0.636313	-0.109490
H351	H	1.332121	-0.302979	0.223844
C352	C	0.818903	-1.113826	-0.244770
C353	C	1.152236	-0.780493	0.088563
C354	C	1.485569	-0.447159	0.421897
C355	C	0.825933	-1.060133	-0.235598
C356	C	1.159266	-0.726799	0.097735
C357	C	1.492599	-0.393466	0.431069
H358	H	0.841656	-1.132348	-0.215487
H359	H	1.174989	-0.799015	0.117846
H360	H	1.508323	-0.465682	0.451179
H361	H	0.783799	-1.122830	-0.234760
H362	H	1.117133	-0.789497	0.098573
H363	H	1.450466	-0.456163	0.431906
H364	H	0.826494	-1.122714	-0.290282
H365	H	1.159827	-0.789381	0.043051
H366	H	1.493160	-0.456048	0.376385
H367	H	0.818338	-1.051244	-0.190087
H368	H	1.151671	-0.717910	0.143247
H369	H	1.485004	-0.384577	0.476580
H370	H	0.861044	-1.051125	-0.245603
H371	H	1.194377	-0.717791	0.087731
H372	H	1.527710	-0.384458	0.421064
H373	H	0.661407	-0.801215	-0.447981
H374	H	0.994741	-0.467881	-0.114648
H375	H	1.328074	-0.134548	0.218686
H376	H	0.816317	-0.953292	-0.247841
H377	H	1.149650	-0.619959	0.085492
H378	H	1.482984	-0.286625	0.418826
H379	H	0.816259	-0.191235	-0.584636
H380	H	1.149592	0.142098	-0.251303
H381	H	1.482926	0.475432	0.082031
H382	H	0.457427	-0.312671	-0.404622
H383	H	0.790761	0.020662	-0.071289
H384	H	1.124094	0.353995	0.262044
H385	H	0.849723	-0.801157	-0.204588
H386	H	1.183057	-0.467824	0.128745
H387	H	1.516390	-0.134490	0.462079
H388	H	0.661381	-0.702165	-0.447972
H389	H	0.994715	-0.368831	-0.114639
H390	H	1.328048	-0.035498	0.218695
H391	H	0.694766	-0.550050	-0.404696
H392	H	1.028100	-0.216717	-0.071362
H393	H	1.361433	0.116617	0.261971
H394	H	0.816128	-0.450946	-0.247768
H395	H	1.149462	-0.117612	0.085565
H396	H	1.482795	0.215721	0.418899
C397	C	0.167064	-0.177628	-0.148803
C398	C	0.500397	0.155705	0.184530
C399	C	0.833730	0.489038	0.517864
C400	C	0.198480	-0.148174	-0.192342
C401	C	0.531814	0.185160	0.140991
C402	C	0.865147	0.518493	0.474325
H403	H	0.148558	-0.154912	-0.119455
H404	H	0.481891	0.178421	0.213878
H405	H	0.815224	0.511754	0.547211
H406	H	0.142976	-0.197551	-0.174531
H407	H	0.476310	0.135782	0.158802
H408	H	0.809643	0.469116	0.492136
H409	H	0.188354	-0.200391	-0.122886
H410	H	0.521687	0.132942	0.210447
H411	H	0.855020	0.466275	0.543780
H412	H	0.177190	-0.125413	-0.218262
H413	H	0.510523	0.207920	0.115071
H414	H	0.843857	0.541253	0.448404
H415	H	0.222570	-0.128242	-0.166611
H416	H	0.555904	0.205091	0.166722
H417	H	0.889237	0.538424	0.500056
H418	H	0.054131	-0.312706	-0.404690
H419	H	0.387464	0.020627	-0.071357
H420	H	0.720798	0.353961	0.261977
H421	H	0.694824	-0.312534	-0.584540
H422	H	1.028157	0.020799	-0.251207
H423	H	1.361490	0.354133	0.082127
C424	C	0.692247	-0.389514	-0.407854
C425	C	1.025581	-0.056181	-0.074521
C426	C	1.358914	0.277152	0.258812
C427	C	0.685195	-0.443208	-0.416997
C428	C	1.018528	-0.109875	-0.083664
C429	C	1.351861	0.223459	0.249670
H430	H	0.669543	-0.370992	-0.437201
H431	H	1.002877	-0.037659	-0.103868
H432	H	1.336210	0.295675	0.229465
H433	H	0.684609	-0.380599	-0.362371
H434	H	1.017942	-0.047266	-0.029038
H435	H	1.351275	0.286067	0.304295
H436	H	0.727373	-0.380537	-0.417802
H437	H	1.060706	-0.047204	-0.084469
H438	H	1.394040	0.286129	0.248865
H439	H	0.650070	-0.452186	-0.407044
H440	H	0.983403	-0.118852	-0.073711
H441	H	1.316736	0.214481	0.259622
H442	H	0.692830	-0.452127	-0.462490
H443	H	1.026163	-0.118793	-0.129157
H444	H	1.359496	0.214540	0.204176
C445	C	0.855178	-0.152355	-0.677024
C446	C	1.188511	0.180979	-0.343691
C447	C	1.521845	0.514312	-0.010358
C448	C	0.825808	-0.181685	-0.722953
C449	C	1.159141	0.151648	-0.389619
C450	C	1.492474	0.484981	-0.056286
H451	H	0.877894	-0.129668	-0.701026
H452	H	1.211227	0.203666	-0.367693
H453	H	1.544561	0.536999	-0.034360
H454	H	0.832412	-0.132355	-0.649453
H455	H	1.165746	0.200978	-0.316119
H456	H	1.499079	0.534311	0.017214
H457	H	0.875153	-0.175151	-0.649454
H458	H	1.208486	0.158182	-0.316120
H459	H	1.541820	0.491515	0.017213
H460	H	0.805829	-0.158889	-0.750521
H461	H	1.139163	0.174445	-0.417187
H462	H	1.472496	0.507778	-0.083854
H463	H	0.848576	-0.201686	-0.750536
H464	H	1.181909	0.131647	-0.417203
H465	H	1.515243	0.464981	-0.083870
C466	C	-0.039475	-0.311031	-0.484077
C467	C	0.293859	0.022302	-0.150743
C468	C	0.627192	0.355636	0.182590
C469	C	-0.052709	-0.322250	-0.417022
C470	C	0.280624	0.011083	-0.083688
C471	C	0.613957	0.344416	0.249645
H472	H	-0.058001	-0.333753	-0.513401
H473	H	0.275332	-0.000420	-0.180067
H474	H	0.608666	0.332914	0.153266
H475	H	-0.048400	-0.275916	-0.494058
H476	H	0.284933	0.057418	-0.160724
H477	H	0.618266	0.390751	0.172609
H478	H	-0.003047	-0.315824	-0.490248
H479	H	0.330286	0.017509	-0.156915
H480	H	0.663619	0.350842	0.176418
H481	H	-0.089137	-0.317453	-0.410849
H482	H	0.244197	0.015880	-0.077515
H483	H	0.577530	0.349213	0.255818
H484	H	-0.043787	-0.357374	-0.407037
H485	H	0.289546	-0.024041	-0.073704
H486	H	0.622879	0.309292	0.259629
H487	H	0.816294	-0.191172	-0.940396
H488	H	1.149627	0.142162	-0.607063
H489	H	1.482960	0.475495	-0.273730
C490	C	0.093325	-0.148124	-0.273826
C491	C	0.426658	0.185209	0.059507
C492	C	0.759992	0.518542	0.392840
C493	C	0.061896	-0.181670	-0.235584
C494	C	0.395229	0.151664	0.097749
C495	C	0.728562	0.484997	0.431082
H496	H	0.111841	-0.125400	-0.244495
H497	H	0.445174	0.207934	0.088838
H498	H	0.778508	0.541267	0.422172
H499	H	0.117404	-0.168058	-0.299546
H500	H	0.450737	0.165275	0.033787
H501	H	0.784070	0.498608	0.367120
H502	H	0.072042	-0.128159	-0.303366
H503	H	0.405376	0.205174	0.029968
H504	H	0.738709	0.538508	0.363301
H505	H	0.083179	-0.201638	-0.206049
H506	H	0.416512	0.131695	0.127285
H507	H	0.749845	0.465029	0.460618
H508	H	0.037814	-0.161734	-0.209853
H509	H	0.371148	0.171600	0.123480
H510	H	0.704481	0.504933	0.456814
C511	C	0.651774	-0.292508	-0.889577
C512	C	0.985107	0.040825	-0.556244
C513	C	1.318441	0.374158	-0.222911
C514	C	0.685330	-0.322002	-0.930220
C515	C	1.018663	0.011332	-0.596886
C516	C	1.351996	0.344665	-0.263553
H517	H	0.629060	-0.315198	-0.865576
H518	H	0.962394	0.018136	-0.532243
H519	H	1.295727	0.351469	-0.198909
H520	H	0.671701	-0.272607	-0.858434
H521	H	1.005034	0.060727	-0.525101
H522	H	1.338367	0.394060	-0.191767
H523	H	0.631797	-0.269724	-0.917163
H524	H	0.965131	0.063610	-0.583830
H525	H	1.298464	0.396943	-0.250497
H526	H	0.705309	-0.344784	-0.902633
H527	H	1.038643	-0.011450	-0.569300
H528	H	1.371976	0.321883	-0.235967
H529	H	0.665401	-0.341912	-0.961367
H530	H	0.998734	-0.008579	-0.628034
H531	H	1.332067	0.324754	-0.294700
H532	H	0.816306	-0.191148	-1.068641
H533	H	1.149640	0.142185	-0.735308
H534	H	1.482973	0.475518	-0.401975
H535	H	0.694881	-0.312457	-1.068544
H536	H	1.028214	0.020877	-0.735210
H537	H	1.361548	0.354210	-0.401877
H538	H	0.305304	-0.346165	-0.447853
H539	H	0.638637	-0.012832	-0.114520
H540	H	0.971971	0.320502	0.218814
C541	C	0.551101	-0.310984	-0.483960
C542	C	0.884434	0.022350	-0.150627
C543	C	1.217768	0.355683	0.182706
C544	C	0.564261	-0.322205	-0.416902
C545	C	0.897594	0.011128	-0.083569
C546	C	1.230928	0.344462	0.249764
H547	H	0.569630	-0.333702	-0.513280
H548	H	0.902964	-0.000368	-0.179947
H549	H	1.236297	0.332965	0.153386
H550	H	0.514678	-0.315777	-0.490144
H551	H	0.848012	0.017556	-0.156811
H552	H	1.181345	0.350889	0.176522
H553	H	0.560078	-0.275863	-0.493937
H554	H	0.893411	0.057471	-0.160603
H555	H	1.226744	0.390804	0.172730
H556	H	0.555281	-0.357325	-0.406925
H557	H	0.888614	-0.023992	-0.073591
H558	H	1.221947	0.309342	0.259742
H559	H	0.600692	-0.317416	-0.410715
H560	H	0.934025	0.015918	-0.077382
H561	H	1.267358	0.349251	0.255951
C562	C	0.233986	-0.385096	-0.498091
C563	C	0.567319	-0.051763	-0.164758
C564	C	0.900652	0.281571	0.168575
C565	C	0.198479	-0.355715	-0.460183
C566	C	0.531812	-0.022382	-0.126849
C567	C	0.865146	0.310952	0.206484
H568	H	0.215467	-0.407828	-0.527411
H569	H	0.548800	-0.074494	-0.194078
H570	H	0.882134	0.258839	0.139255
H571	H	0.255302	-0.362338	-0.524032
H572	H	0.588635	-0.029005	-0.190698
H573	H	0.921968	0.304328	0.142635
H574	H	0.255262	-0.405055	-0.468538
H575	H	0.588596	-0.071722	-0.135205
H576	H	0.921929	0.261612	0.198128
H577	H	0.177204	-0.335753	-0.489736
H578	H	0.510538	-0.002419	-0.156403
H579	H	0.843871	0.330914	0.176931
H580	H	0.177154	-0.378476	-0.434240
H581	H	0.510487	-0.045142	-0.100907
H582	H	0.843820	0.288191	0.232426
H583	H	0.305298	-0.157694	-0.204673
H584	H	0.638631	0.175640	0.128660
H585	H	0.971964	0.508973	0.461993
C586	C	-0.017218	-0.152296	-0.197677
C587	C	0.316116	0.181038	0.135656
C588	C	0.649449	0.514371	0.468989
C589	C	-0.052715	-0.181683	-0.235603
C590	C	0.280618	0.151651	0.097730
C591	C	0.613951	0.484984	0.431063
H592	H	-0.035743	-0.129571	-0.168361
H593	H	0.297590	0.203762	0.164972
H594	H	0.630923	0.537095	0.498306
H595	H	0.004052	-0.175050	-0.171732
H596	H	0.337386	0.158283	0.161601
H597	H	0.670719	0.491617	0.494935
H598	H	0.004106	-0.132329	-0.227220
H599	H	0.337440	0.201005	0.106114
H600	H	0.670773	0.534338	0.439447
H601	H	-0.074037	-0.201653	-0.206061
H602	H	0.259296	0.131681	0.127272
H603	H	0.592630	0.465014	0.460606
H604	H	-0.073994	-0.158925	-0.261550
H605	H	0.259339	0.174408	0.071783
H606	H	0.592672	0.507741	0.405116
H607	H	0.816176	-0.549996	-0.247788
H608	H	1.149510	-0.216663	0.085545
H609	H	1.482843	0.116670	0.418878
C610	C	0.485114	-0.152253	-0.197583
C611	C	0.818448	0.181080	0.135750
C612	C	1.151781	0.514413	0.469084
C613	C	0.449621	-0.181641	-0.235515
C614	C	0.782954	0.151693	0.097819
C615	C	1.116287	0.485026	0.431152
H616	H	0.466586	-0.129529	-0.168270
H617	H	0.799919	0.203805	0.165063
H618	H	1.133253	0.537138	0.498396
H619	H	0.506382	-0.175007	-0.171634
H620	H	0.839715	0.158326	0.161699
H621	H	1.173049	0.491659	0.495033
H622	H	0.506441	-0.132286	-0.227122
H623	H	0.839775	0.201047	0.106211
H624	H	1.173108	0.534380	0.439544
H625	H	0.428296	-0.201611	-0.205975
H626	H	0.761629	0.131723	0.127358
H627	H	1.094963	0.465056	0.460691
H628	H	0.428344	-0.158884	-0.261466
H629	H	0.761677	0.174450	0.071868
H630	H	1.095011	0.507783	0.405201
H631	H	0.849685	-0.702110	-0.204571
H632	H	1.183018	-0.368776	0.128763
H633	H	1.516351	-0.035443	0.462096
