data_functionalizedCrystal
_audit_creation_method	'MofGen! by Chris Wilmer'
_symmetry_space_group_name_H-M	'P1'
_symmetry_Int_Tables_number	1
_symmetry_cell_setting	triclinic
loop_
_symmetry_equiv_pos_as_xyz
  x,y,z
_cell_length_a	6.817900
_cell_length_b	17.982959
_cell_length_c	9.582880
_cell_angle_alpha	93.502471
_cell_angle_beta	111.207034
_cell_angle_gamma	102.451857
loop_
_atom_site_label
_atom_site_type_symbol
_atom_site_fract_x
_atom_site_fract_y
_atom_site_fract_z
V1	V	-4.111621	-0.105091	-0.467224
V2	V	-3.611621	0.394909	0.032776
O3	O	-4.102643	0.005381	-0.457687
O4	O	-3.602643	0.505381	0.042313
O5	O	-4.057629	-0.208695	-0.464647
O6	O	-3.557629	0.291305	0.035353
O7	O	-4.102479	-0.103329	-0.670715
O8	O	-3.602479	0.396671	-0.170715
O9	O	-4.057483	-0.100715	-0.250193
O10	O	-3.557483	0.399285	0.249807
V11	V	-4.590886	-0.091894	-0.441191
V12	V	-4.090886	0.408106	0.058809
O13	O	-4.382218	-0.134038	-0.524332
O14	O	-3.882218	0.365962	-0.024332
O15	O	-4.770486	-0.062946	-0.384083
O16	O	-4.270486	0.437054	0.115917
O17	O	-4.421671	0.011710	-0.443768
O18	O	-3.921671	0.511710	0.056232
O19	O	-4.717261	-0.202366	-0.450728
O20	O	-4.217261	0.297634	0.049272
O21	O	-4.762421	-0.096270	-0.658222
O22	O	-4.262421	0.403730	-0.158222
O23	O	-4.376822	-0.093656	-0.237700
O24	O	-3.876822	0.406344	0.262300
C25	C	-3.900000	-0.233956	-0.457436
C26	C	-3.400000	0.266044	0.042564
C27	C	-3.937403	-0.318653	-0.456686
C28	C	-3.437403	0.181347	0.043314
C29	C	-3.957208	-0.099550	-0.720294
C30	C	-3.457208	0.400450	-0.220294
C31	C	-4.030980	-0.098795	-0.886653
C32	C	-3.530980	0.401205	-0.386653
C33	C	-4.138337	-0.362320	-0.463821
C34	C	-3.638337	0.137680	0.036179
C35	C	-4.173475	-0.441902	-0.463124
C36	C	-3.673475	0.058098	0.036876
C37	C	-4.007670	-0.477816	-0.455282
C38	C	-3.507670	0.022184	0.044718
C39	C	-3.806722	-0.434144	-0.448151
C40	C	-3.306722	0.065856	0.051849
C41	C	-3.771593	-0.354564	-0.448858
C42	C	-3.271593	0.145436	0.051142
C43	C	-3.948393	-0.755082	-0.445300
C44	C	-3.448393	-0.255082	0.054700
C45	C	-3.983537	-0.834667	-0.444589
C46	C	-3.483537	-0.334667	0.055411
C47	C	-4.350275	-0.842420	-0.459566
C48	C	-3.850275	-0.342420	0.040434
C49	C	-4.315145	-0.762840	-0.460274
C50	C	-3.815145	-0.262840	0.039726
C51	C	-4.114205	-0.719176	-0.453151
C52	C	-3.614205	-0.219176	0.046849
C53	C	-4.076109	-0.632884	-0.453909
C54	C	-3.576109	-0.132884	0.046091
C55	C	-4.045759	-0.564106	-0.454513
C56	C	-3.545759	-0.064106	0.045487
C57	C	-4.242642	0.036968	-0.450975
C58	C	-3.742642	0.536968	0.049025
C59	C	-4.184478	0.121664	-0.451735
C60	C	-3.684478	0.621664	0.048265
C61	C	-4.185433	-0.097437	-0.188113
C62	C	-3.685433	0.402563	0.311887
C63	C	-4.090900	-0.098188	-0.021753
C64	C	-3.590900	0.401812	0.478247
H65	H	-4.273352	-0.333084	-0.470192
H66	H	-3.773352	0.166916	0.029808
Br67	Br	-4.446182	-0.501161	-0.472810
Br68	Br	-3.946182	-0.001161	0.027190
Br69	Br	-3.581705	-0.482885	-0.437522
Br70	Br	-3.081705	0.017115	0.062478
Br71	Br	-3.498894	-0.295303	-0.439190
Br72	Br	-2.998894	0.204697	0.060810
Br73	Br	-4.622986	-0.901683	-0.469233
Br74	Br	-4.122986	-0.401683	0.030767
Br75	Br	-4.540163	-0.714101	-0.470891
Br76	Br	-4.040163	-0.214101	0.029109
H77	H	-3.784776	-0.719539	-0.439491
H78	H	-3.284776	-0.219539	0.060509
Br79	Br	-3.758497	-0.883407	-0.433942
Br80	Br	-3.258497	-0.383407	0.066058
