data_functionalizedCrystal
_audit_creation_method	'MofGen! by Chris Wilmer'
_symmetry_space_group_name_H-M	'P1'
_symmetry_Int_Tables_number	1
_symmetry_cell_setting	triclinic
loop_
_symmetry_equiv_pos_as_xyz
  x,y,z
_cell_length_a	9.065218
_cell_length_b	10.654550
_cell_length_c	7.540329
_cell_angle_alpha	89.996554
_cell_angle_beta	89.996962
_cell_angle_gamma	84.750408
loop_
_atom_site_label
_atom_site_type_symbol
_atom_site_fract_x
_atom_site_fract_y
_atom_site_fract_z
O1	O	1.959392	0.184158	-0.147487
O2	O	1.530024	0.199263	-0.147489
O3	O	1.754580	0.009010	-0.147477
O4	O	1.734836	0.374410	-0.147499
O5	O	1.754567	0.009008	0.147488
O6	O	1.530011	0.199261	0.147476
O7	O	1.959378	0.184155	0.147478
Cu8	Cu	1.744693	0.191708	0.174410
Cu9	Cu	1.744709	0.191711	-0.174421
O10	O	1.734823	0.374408	0.147466
C11	C	1.475039	0.197810	-0.000007
C12	C	1.311220	0.193469	-0.000008
C13	C	1.753124	-0.037795	0.000005
C14	C	1.748786	-0.177255	0.000002
C15	C	1.881001	-0.256217	0.000002
C16	C	1.876917	-0.387254	-0.000019
C17	C	1.608391	-0.360354	-0.000034
C18	C	1.612477	-0.229320	-0.000025
C19	C	2.032639	-0.582481	-0.103368
C20	C	2.164861	-0.661449	-0.103337
C21	C	2.284719	-0.630803	0.000031
C22	C	2.272361	-0.521192	0.103411
C23	C	2.140137	-0.442232	0.103397
C24	C	2.020284	-0.472876	-0.000013
C25	C	1.456764	-0.034091	0.103338
C26	C	1.324539	0.044872	0.103336
C27	C	1.204668	0.014230	-0.000021
C28	C	1.217012	-0.095383	-0.103375
C29	C	1.349237	-0.174347	-0.103373
C30	C	1.469109	-0.143695	-0.000019
C31	C	2.014364	0.185608	-0.000008
C32	C	2.178183	0.189949	-0.000019
C33	C	1.736279	0.421213	-0.000020
C34	C	1.740616	0.560673	-0.000028
N35	N	1.744693	0.191705	0.419758
N36	N	1.744721	0.191703	-0.419769
H37	H	1.991993	-0.213831	0.000020
O38	O	1.100743	-0.125204	-0.204041
C39	C	1.011246	-0.164916	-0.497793
C40	C	1.143055	-0.131169	-0.384004
H41	H	1.045398	-0.169723	-0.643319
H42	H	0.976093	-0.260245	-0.454342
H43	H	0.914619	-0.089667	-0.479953
H44	H	1.239769	-0.206334	-0.401788
H45	H	1.178081	-0.035804	-0.427481
O46	O	2.177115	-0.767861	-0.203878
C47	C	2.306872	-0.882424	-0.440957
C48	C	2.293174	-0.761863	-0.327212
H49	H	2.400679	-0.877604	-0.540724
H50	H	2.331525	-0.968122	-0.351653
H51	H	2.198461	-0.890762	-0.514782
H52	H	2.401545	-0.753404	-0.253369
H53	H	2.268447	-0.676226	-0.416607
O54	O	2.128391	-0.335781	0.203844
C55	C	2.248934	-0.205036	0.408995
C56	C	2.262439	-0.325620	0.295297
H57	H	2.357285	-0.196795	0.482993
H58	H	2.224464	-0.119334	0.319653
H59	H	2.154999	-0.209755	0.508613
H60	H	2.356379	-0.321024	0.195667
H61	H	2.286831	-0.411271	0.384750
H62	H	2.369960	-0.496258	0.187596
O63	O	1.916262	-0.612078	-0.204014
C64	C	1.747448	-0.548358	-0.441017
C65	C	1.879271	-0.514689	-0.327192
H66	H	1.717481	-0.469626	-0.540608
H67	H	1.778952	-0.640218	-0.515013
H68	H	1.648246	-0.560123	-0.351594
H69	H	1.978527	-0.502857	-0.416487
H70	H	1.847645	-0.422859	-0.253179
H71	H	1.497413	-0.402762	-0.000052
O72	O	1.361484	-0.280770	-0.203888
C73	C	1.491208	-0.395343	-0.440982
C74	C	1.477520	-0.274774	-0.327254
H75	H	1.584998	-0.390523	-0.540774
H76	H	1.515885	-0.481033	-0.351670
H77	H	1.382786	-0.403693	-0.514777
H78	H	1.585902	-0.266302	-0.253441
H79	H	1.452769	-0.189143	-0.416657
O80	O	1.573272	-0.004541	0.203810
C81	C	1.742092	-0.068195	0.440835
C82	C	1.610160	-0.101830	0.327173
H83	H	1.771937	-0.146821	0.540625
H84	H	1.841368	-0.056546	0.351475
H85	H	1.710572	0.023743	0.514631
H86	H	1.641537	-0.193781	0.253360
H87	H	1.510920	-0.113396	0.416624
H88	H	2.392377	-0.695107	0.000053
H89	H	1.096996	0.078524	0.000009
H90	H	1.314490	0.134117	0.187515
