data_functionalizedCrystal
_audit_creation_method	'MofGen! by Chris Wilmer'
_symmetry_space_group_name_H-M	'P1'
_symmetry_Int_Tables_number	1
_symmetry_cell_setting	triclinic
loop_
_symmetry_equiv_pos_as_xyz
  x,y,z
_cell_length_a	18.215407
_cell_length_b	12.594516
_cell_length_c	18.215399
_cell_angle_alpha	89.977475
_cell_angle_beta	89.980650
_cell_angle_gamma	90.016501
loop_
_atom_site_label
_atom_site_type_symbol
_atom_site_fract_x
_atom_site_fract_y
_atom_site_fract_z
Zn1	Zn	1.125114	-0.423736	-0.416146
Zn2	Zn	1.125042	-0.601735	-0.293092
Zn3	Zn	1.002047	-0.423772	-0.293093
Zn4	Zn	1.002031	-0.601674	-0.416117
O5	O	1.063558	-0.512729	-0.354612
O6	O	1.228088	-0.447358	-0.399834
O7	O	1.108703	-0.578168	-0.190108
O8	O	1.018409	-0.274821	-0.309429
O9	O	1.228036	-0.578133	-0.309427
O10	O	1.108825	-0.274795	-0.399835
O11	O	1.018340	-0.447420	-0.190109
O12	O	0.899061	-0.447361	-0.309401
O13	O	1.018381	-0.578030	-0.519105
O14	O	0.899049	-0.578065	-0.399786
O15	O	1.108810	-0.447299	-0.519126
O16	O	1.108688	-0.750672	-0.309399
O17	O	1.018312	-0.750628	-0.399785
C18	C	0.872352	-0.512711	-0.354591
C19	C	0.790553	-0.512729	-0.354599
C20	C	0.602372	-0.580893	-0.401604
C21	C	0.525514	-0.580897	-0.401613
C22	C	0.525496	-0.444584	-0.307636
C23	C	0.602354	-0.444576	-0.307631
C24	C	0.640790	-0.512737	-0.354614
C25	C	0.487074	-0.512748	-0.354628
C26	C	0.403740	-0.512751	-0.354638
C27	C	0.724129	-0.512733	-0.354606
C28	C	1.063510	-0.789270	-0.354605
C29	C	1.063557	-0.907576	-0.354626
C30	C	1.014397	-0.976843	-0.403753
C31	C	0.996468	-1.047703	-0.336600
C32	C	1.081553	-1.047515	-0.421791
C33	C	1.045593	-0.976877	-0.287438
C34	C	1.130709	-0.976683	-0.372674
C35	C	1.112805	-1.047511	-0.305475
C36	C	1.255511	-0.512748	-0.354634
C37	C	1.337310	-0.512756	-0.354643
C38	C	1.063602	-0.512654	-0.546565
C39	C	1.063620	-0.512622	-0.628364
C40	C	1.063627	-0.235108	-0.354635
C41	C	1.063656	-0.116803	-0.354645
C42	C	1.110733	-0.444458	-0.893434
C43	C	1.110725	-0.444487	-0.816575
C44	C	1.016567	-0.580631	-0.816543
C45	C	1.016580	-0.580606	-0.893400
C46	C	1.063662	-0.512514	-0.931844
C47	C	1.063640	-0.512567	-0.778127
C48	C	1.063630	-0.512599	-0.694794
C49	C	1.063673	-0.512484	-1.015183
C50	C	1.063558	-0.512728	-0.163406
C51	C	1.063682	-0.512460	-0.081607
H52	H	0.494238	-0.636395	-0.439878
H53	H	0.978233	-0.636067	-0.785233
N54	N	0.484041	-0.371099	-0.256945
H55	H	0.429522	-0.381456	-0.264070
H56	H	0.497463	-0.387597	-0.204373
H57	H	0.633634	-0.389069	-0.269367
N58	N	0.965798	-0.654002	-0.934832
H59	H	0.972952	-0.643654	-0.989354
H60	H	0.977231	-0.730026	-0.921393
H61	H	1.187438	-0.945468	-0.387956
H62	H	1.096734	-1.078544	-0.478583
H63	H	1.149070	-0.389013	-0.924732
N64	N	1.161497	-0.371089	-0.775146
H65	H	1.191324	-0.327953	-0.811165
H66	H	1.131547	-0.321843	-0.743256
H67	H	0.633665	-0.636391	-0.439862
H68	H	0.939725	-1.078921	-0.321350
N69	N	0.959238	-0.935735	-0.458707
H70	H	0.908562	-0.961574	-0.444981
H71	H	0.959983	-0.855552	-0.458620
H72	H	1.154421	-1.078344	-0.263891
N73	N	1.025400	-0.935959	-0.212186
H74	H	1.025465	-0.855768	-0.212648
H75	H	0.974891	-0.962498	-0.198494
