data_functionalizedCrystal
_audit_creation_method	'MofGen! by Chris Wilmer'
_symmetry_space_group_name_H-M	'P1'
_symmetry_Int_Tables_number	1
_symmetry_cell_setting	triclinic
loop_
_symmetry_equiv_pos_as_xyz
  x,y,z
_cell_length_a	11.792241
_cell_length_b	16.109301
_cell_length_c	15.186229
_cell_angle_alpha	90.005167
_cell_angle_beta	89.999155
_cell_angle_gamma	83.827448
loop_
_atom_site_label
_atom_site_type_symbol
_atom_site_fract_x
_atom_site_fract_y
_atom_site_fract_z
O1	O	-1.505908	-0.113953	-0.073146
O2	O	-1.175464	-0.125697	-0.073167
O3	O	-1.349763	0.001163	-0.073147
O4	O	-1.331608	-0.240814	-0.073166
O5	O	-1.349752	0.001165	0.073310
O6	O	-1.175452	-0.125695	0.073290
O7	O	-1.505896	-0.113951	0.073311
Zn8	Zn	-1.340672	-0.119823	0.096554
Zn9	Zn	-1.340687	-0.119826	-0.096410
O10	O	-1.331596	-0.240812	0.073291
C11	C	-1.349022	0.032142	0.000082
C12	C	-1.346817	0.124448	0.000083
C13	C	-1.133173	-0.124959	0.000059
C14	C	-1.007179	-0.122751	0.000051
C15	C	-1.548186	-0.114690	0.000083
C16	C	-1.674181	-0.116898	0.000085
C17	C	-0.776502	-0.118690	0.000077
C18	C	-0.904868	-0.120946	0.000063
C19	C	-1.332338	-0.271791	0.000060
C20	C	-1.334542	-0.364097	0.000053
N21	N	-1.340670	-0.119821	0.228247
C22	C	-1.445116	0.346258	0.000075
C23	C	-1.443036	0.432988	0.000068
C24	C	-1.236235	0.414087	0.000058
C25	C	-1.238317	0.327358	0.000060
C26	C	-1.342761	0.293446	0.000072
C27	C	-1.338599	0.466905	0.000064
C28	C	-1.336342	0.560942	0.000056
C29	C	-1.345018	0.199404	0.000079
N30	N	-1.340699	-0.119821	-0.228102
C31	C	-1.417876	-0.063666	0.453978
C32	C	-1.417880	-0.063664	0.546168
C33	C	-1.263484	-0.175978	0.546159
C34	C	-1.263476	-0.175976	0.453971
C35	C	-1.340678	-0.119821	0.407883
C36	C	-1.340690	-0.119821	0.592261
C37	C	-1.340693	-0.119820	0.692217
C38	C	-1.340674	-0.119821	0.307921
H39	H	-1.530161	0.318650	0.000084
F40	F	-1.500039	-0.003899	0.404931
H41	H	-1.526384	0.475984	0.000069
H42	H	-1.480739	-0.017938	0.583696
H43	H	-1.200629	-0.221700	0.583694
F44	F	-1.181303	-0.235742	0.404910
F45	F	-1.129370	0.271149	0.000050
F46	F	-1.125085	0.450186	0.000044
