data_functionalizedCrystal
_audit_creation_method	'MofGen! by Chris Wilmer'
_symmetry_space_group_name_H-M	'P1'
_symmetry_Int_Tables_number	1
_symmetry_cell_setting	triclinic
loop_
_symmetry_equiv_pos_as_xyz
  x,y,z
_cell_length_a	12.645331
_cell_length_b	12.594516
_cell_length_c	12.594517
_cell_angle_alpha	90.011943
_cell_angle_beta	90.009328
_cell_angle_gamma	90.015032
loop_
_atom_site_label
_atom_site_type_symbol
_atom_site_fract_x
_atom_site_fract_y
_atom_site_fract_z
Zn1	Zn	1.620604	-0.423889	0.601871
Zn2	Zn	1.620532	-0.601855	0.423899
Zn3	Zn	1.443360	-0.423887	0.423901
Zn4	Zn	1.443305	-0.601823	0.601829
O5	O	1.531950	-0.512863	0.512875
O6	O	1.768941	-0.447510	0.578280
O7	O	1.597022	-0.578260	0.274953
O8	O	1.466924	-0.274942	0.447527
O9	O	1.768888	-0.578261	0.447524
O10	O	1.597145	-0.274943	0.578281
O11	O	1.466854	-0.447508	0.274955
O12	O	1.295005	-0.447477	0.447486
O13	O	1.466831	-0.578206	0.750781
O14	O	1.294965	-0.578205	0.578210
O15	O	1.597092	-0.447479	0.750811
O16	O	1.596969	-0.750796	0.447484
O17	O	1.466762	-0.750773	0.578208
C18	C	1.256520	-0.512838	0.512844
C19	C	1.138690	-0.512853	0.512856
C20	C	0.971116	-0.430234	0.431072
C21	C	1.093676	-0.430447	0.430712
C22	C	1.094180	-0.624971	0.482220
C23	C	0.971582	-0.624520	0.481662
C24	C	0.971514	-0.484421	0.625593
C25	C	1.094120	-0.481916	0.624967
C26	C	1.531881	-0.789404	0.512865
C27	C	1.531948	-0.907710	0.512896
C28	C	1.461121	-0.976989	0.583947
C29	C	1.435312	-1.047829	0.486824
C30	C	1.557853	-1.047668	0.610035
C31	C	1.506088	-0.976992	0.415721
C32	C	1.628674	-0.976825	0.538998
C33	C	1.602902	-1.047633	0.441808
C34	C	1.808455	-0.512890	0.512907
C35	C	1.926285	-0.512901	0.512920
C36	C	1.531964	-0.512839	0.790496
C37	C	1.531969	-0.512829	0.908801
C38	C	1.532049	-0.235243	0.512909
C39	C	1.532091	-0.116937	0.512923
C40	C	1.602811	-0.441754	1.048835
C41	C	1.628710	-0.538851	0.978017
C42	C	1.506117	-0.415743	0.978047
C43	C	1.557915	-0.610018	1.048769
C44	C	1.435276	-0.486845	1.048805
C45	C	1.461139	-0.584008	0.978020
C46	C	1.531939	-0.512898	1.236334
C47	C	1.531965	-0.512870	1.118029
H48	H	1.124764	-0.537737	0.689211
H49	H	1.123770	-0.347306	0.449914
Cl50	Cl	1.138917	-0.459501	0.301799
Cl51	Cl	0.925616	-0.301479	0.460395
H52	H	1.124855	-0.649541	0.400735
H53	H	1.353579	-1.079042	0.464768
H54	H	0.942956	-0.648674	0.399293
Cl55	Cl	0.923805	-0.360398	0.668608
Cl56	Cl	1.695474	-1.095226	0.348957
H57	H	1.484140	-0.946076	0.333560
Cl58	Cl	1.754836	-0.928634	0.573122
H59	H	0.940288	-0.448846	0.348068
H60	H	1.401229	-0.644200	0.947124
Cl61	Cl	1.309068	-0.452830	1.096857
H62	H	1.484255	-0.333622	0.946978
Cl63	Cl	1.591821	-0.736844	1.096526
H64	H	0.941926	-0.688197	0.538677
H65	H	1.123338	-0.688209	0.539964
Cl66	Cl	1.591593	-1.095603	0.736849
Cl67	Cl	0.926753	-0.577380	0.719748
H68	H	1.123216	-0.399410	0.648068
Cl69	Cl	1.368487	-0.929091	0.676581
H70	H	1.662767	-0.381706	1.079926
H71	H	1.710479	-0.560851	0.946920
