data_functionalizedCrystal
_audit_creation_method	'MofGen! by Chris Wilmer'
_symmetry_space_group_name_H-M	'P1'
_symmetry_Int_Tables_number	1
_symmetry_cell_setting	triclinic
loop_
_symmetry_equiv_pos_as_xyz
  x,y,z
_cell_length_a	12.759399
_cell_length_b	19.077105
_cell_length_c	12.759393
_cell_angle_alpha	87.679907
_cell_angle_beta	90.026988
_cell_angle_gamma	92.289033
loop_
_atom_site_label
_atom_site_type_symbol
_atom_site_fract_x
_atom_site_fract_y
_atom_site_fract_z
Zn1	Zn	0.482846	1.076066	-0.658559
Zn2	Zn	0.658558	1.075994	-0.482885
Zn3	Zn	0.475828	0.958361	-0.475837
Zn4	Zn	0.651414	0.958357	-0.651470
O5	O	0.567161	1.017195	-0.567188
O6	O	0.512082	1.174549	-0.641172
O7	O	0.634371	1.060362	-0.334928
O8	O	0.329740	0.974007	-0.500093
O9	O	0.641176	1.174496	-0.512105
O10	O	0.334896	1.060485	-0.634338
O11	O	0.500120	0.973937	-0.329749
O12	O	0.493193	0.859869	-0.493219
O13	O	0.629001	0.973999	-0.799433
O14	O	0.622195	0.859865	-0.622256
O15	O	0.505155	1.060480	-0.804641
O16	O	0.804629	1.060357	-0.505232
O17	O	0.799381	0.973929	-0.629090
C18	C	0.556158	0.834329	-0.556204
C19	C	0.551476	0.756099	-0.551530
C20	C	0.616542	0.719362	-0.616411
C21	C	0.612129	0.645856	-0.612024
C22	C	0.542654	0.609088	-0.542750
C23	C	0.477581	0.645829	-0.477866
C24	C	0.481990	0.719334	-0.482259
C25	C	0.522251	0.389251	-0.522424
C26	C	0.517850	0.315741	-0.518034
C27	C	0.652397	0.315773	-0.652193
C28	C	0.656804	0.389279	-0.656575
C29	C	0.591727	0.426014	-0.591696
N30	N	0.538144	0.533953	-0.538262
N31	N	0.596233	0.501148	-0.596190
C32	C	0.840126	1.017154	-0.567180
C33	C	0.956906	1.017201	-0.567216
C34	C	1.124202	1.062297	-0.502846
C35	C	1.014476	1.062255	-0.502804
C36	C	1.009068	0.972182	-0.631666
C37	C	1.118792	0.972221	-0.631702
C38	C	1.293132	1.017255	-0.567235
C39	C	1.176357	1.017283	-0.567294
C40	C	0.578209	1.200774	-0.578216
C41	C	0.582916	1.279005	-0.582915
C42	C	0.567064	1.017247	-0.841225
C43	C	0.567022	1.017270	-0.958003
C44	C	0.502525	1.062304	-1.015578
C45	C	0.502480	1.062316	-1.125303
C46	C	0.631439	0.972258	-1.119867
C47	C	0.631477	0.972243	-1.010144
C48	C	0.567185	1.017183	-0.294220
C49	C	0.566939	1.017297	-0.177451
H50	H	0.713380	0.419211	-0.712983
H51	H	0.962187	0.935494	-0.684108
C52	C	1.102434	0.883185	-0.759087
C53	C	1.176128	0.922739	-0.702552
H54	H	1.137834	0.852641	-0.802827
H55	H	1.058090	0.856264	-0.711652
H56	H	1.061409	0.913828	-0.801139
H57	H	1.217148	0.892097	-0.660494
H58	H	1.220490	0.949663	-0.749993
H59	H	0.469269	0.419152	-0.469587
C60	C	0.829002	0.293138	-0.701737
C61	C	0.723916	0.275394	-0.723519
H62	H	0.873151	0.268206	-0.745774
H63	H	0.841560	0.342171	-0.714265
H64	H	0.843564	0.281057	-0.630400
H65	H	0.709351	0.287479	-0.794854
H66	H	0.711352	0.226350	-0.710999
H67	H	0.683918	0.935600	-1.162334
H68	H	0.450038	1.098966	-0.973128
H69	H	0.449959	1.098986	-1.172177
C70	C	0.807333	0.937913	-0.974259
C71	C	0.702381	0.922741	-0.946845
H72	H	0.851100	0.907356	-0.935174
H73	H	0.816532	0.931474	-1.047057
H74	H	0.825547	0.985199	-0.959118
H75	H	0.684164	0.875456	-0.961992
H76	H	0.693176	0.929174	-0.874029
C77	C	0.749081	0.712003	-0.748589
C78	C	0.692909	0.759775	-0.692563
H79	H	0.796220	0.736952	-0.795609
H80	H	0.787495	0.683316	-0.701034
H81	H	0.701621	0.683351	-0.787133
H82	H	0.740368	0.788424	-0.654012
H83	H	0.654493	0.788474	-0.740124
H84	H	0.665114	0.615949	-0.664856
H85	H	0.421009	0.615887	-0.421467
C86	C	0.385278	0.323089	-0.385871
C87	C	0.441472	0.275324	-0.441888
H88	H	0.338126	0.298135	-0.338869
H89	H	0.432716	0.351739	-0.347317
H90	H	0.346867	0.351778	-0.433441
H91	H	0.479889	0.246637	-0.394318
H92	H	0.394028	0.246661	-0.480444
H93	H	0.429000	0.749244	-0.429432
H94	H	0.972015	1.098909	-0.450324
C95	C	1.118523	1.151319	-0.375459
C96	C	1.187478	1.111821	-0.432039
H97	H	1.157586	1.181890	-0.331739
H98	H	1.077279	1.178211	-0.422867
H99	H	1.073949	1.120643	-0.333385
H100	H	1.232047	1.142498	-0.474120
H101	H	1.228740	1.084928	-0.384625
