data_functionalizedCrystal
_audit_creation_method	'MofGen! by Chris Wilmer'
_symmetry_space_group_name_H-M	'P1'
_symmetry_Int_Tables_number	1
_symmetry_cell_setting	triclinic
loop_
_symmetry_equiv_pos_as_xyz
  x,y,z
_cell_length_a	18.050589
_cell_length_b	17.640112
_cell_length_c	17.640968
_cell_angle_alpha	87.860920
_cell_angle_beta	78.773118
_cell_angle_gamma	78.747693
loop_
_atom_site_label
_atom_site_type_symbol
_atom_site_fract_x
_atom_site_fract_y
_atom_site_fract_z
Zn1	Zn	-0.021338	-1.247776	-0.195082
Zn2	Zn	-0.174558	-1.221993	-0.068112
Zn3	Zn	-0.069647	-1.095104	-0.093732
Zn4	Zn	-0.164782	-1.120735	-0.220693
O5	O	-0.107581	-1.171402	-0.144405
O6	O	-0.025537	-1.350627	-0.156798
O7	O	-0.184950	-1.183644	0.034761
O8	O	0.040699	-1.115420	-0.107180
O9	O	-0.138107	-1.331684	-0.063514
O10	O	0.076191	-1.227588	-0.181641
O11	O	-0.107872	-1.090420	0.015938
O12	O	-0.098393	-0.992234	-0.132014
O13	O	-0.121445	-1.159104	-0.323567
O14	O	-0.168289	-1.011064	-0.225292
O15	O	-0.016058	-1.252441	-0.304750
O16	O	-0.277199	-1.208498	-0.088349
O17	O	-0.270016	-1.134104	-0.200449
C18	C	-0.137523	-0.974094	-0.184213
C19	C	-0.150346	-0.889689	-0.201261
C20	C	-0.300550	-1.171308	-0.144411
C21	C	-0.383087	-1.171342	-0.144424
C22	C	-0.062272	-1.211508	-0.342484
C23	C	-0.042964	-1.228598	-0.426893
C24	C	-0.578655	-1.130933	-0.205357
C25	C	-0.646737	-1.098407	-0.139793
C26	C	-0.534204	-1.171419	-0.144419
C27	C	-0.613197	-1.203984	-0.209983
C28	C	-0.680174	-1.171493	-0.144421
C29	C	-0.601212	-1.138849	-0.078826
C30	C	-0.567652	-1.244468	-0.149057
C31	C	-0.635718	-1.211958	-0.083440
C32	C	-0.450114	-1.171375	-0.144420
C33	C	-0.764264	-1.171536	-0.144412
C34	C	0.086148	-1.171521	-0.144411
C35	C	0.168704	-1.171572	-0.144414
C36	C	-0.077524	-1.369481	-0.104442
C37	C	-0.064715	-1.453890	-0.087412
C38	C	-0.010153	-0.563038	-0.014899
C39	C	-0.022215	-0.483728	-0.030928
C40	C	-0.095166	-0.503357	-0.127891
C41	C	-0.083107	-0.582671	-0.111873
C42	C	-0.040601	-0.612505	-0.055375
C43	C	-0.113555	-0.632138	-0.152349
C44	C	-0.101501	-0.711444	-0.136328
C45	C	-0.058998	-0.741283	-0.079832
C46	C	-0.028547	-0.691811	-0.039354
C47	C	-0.156066	-0.602302	-0.208842
C48	C	-0.186514	-0.651768	-0.249318
C49	C	-0.174455	-0.731077	-0.233302
C50	C	-0.131952	-0.760916	-0.176805
C51	C	-0.204906	-0.780549	-0.273779
C52	C	-0.192852	-0.859855	-0.257758
C53	C	-0.119898	-0.840222	-0.160785
C54	C	-0.253814	-1.041859	-0.753484
C55	C	-0.235659	-1.057934	-0.832796
C56	C	-0.125928	-1.155117	-0.813194
C57	C	-0.144071	-1.139048	-0.733879
C58	C	-0.208016	-1.082418	-0.704030
C59	C	-0.098273	-1.179607	-0.684425
C60	C	-0.116418	-1.163541	-0.605116
C61	C	-0.180360	-1.106916	-0.575261
C62	C	-0.226160	-1.066352	-0.624721
C63	C	-0.034333	-1.236240	-0.714274
C64	C	0.011465	-1.276799	-0.664820
C65	C	-0.006676	-1.260730	-0.585511
C66	C	-0.070618	-1.204105	-0.555656
C67	C	0.039124	-1.301293	-0.536051
C68	C	0.020980	-1.285228	-0.456742
C69	C	-0.088763	-1.188039	-0.476347
C70	C	-0.152654	-1.131497	0.052913
C71	C	-0.171730	-1.114553	0.137352
H72	H	-0.553748	-1.096620	-0.256842
H73	H	-0.305868	-0.995727	-0.729184
H74	H	-0.195135	-1.093839	-0.510682
H75	H	0.024473	-0.587332	0.031096
Br76	Br	-0.039153	-1.231972	-0.853709
H77	H	-0.681002	-1.036667	-0.135877
Br78	Br	-0.312935	-0.989488	-0.584207
Br79	Br	-0.591581	-1.092877	0.013594
Br80	Br	-0.677050	-1.269064	0.002529
Br81	Br	0.083130	-1.340277	-0.389620
Br82	Br	-0.623013	-1.249839	-0.302394
H83	H	-0.239521	-0.756245	-0.319773
Br84	Br	0.098241	-1.353654	-0.705336
Br85	Br	0.125893	-1.378155	-0.576567
H86	H	-0.533383	-1.306201	-0.153009
H87	H	-0.165879	-0.537725	-0.221884
H88	H	-0.085271	-0.864516	-0.114790
Br89	Br	-0.042644	-0.848913	-0.058081
H90	H	0.006080	-0.716105	0.006640
H91	H	0.002589	-0.443455	0.002031
H92	H	-0.129777	-0.479055	-0.173889
H93	H	-0.221125	-0.627466	-0.295316
Br94	Br	-0.297821	-1.002882	-0.899912
Br95	Br	-0.234179	-0.926993	-0.312686
Br96	Br	-0.175538	-1.111175	-0.435833
H97	H	-0.019563	-1.249320	-0.778853
