data_functionalizedCrystal
_audit_creation_method	'MofGen! by Chris Wilmer'
_symmetry_space_group_name_H-M	'P1'
_symmetry_Int_Tables_number	1
_symmetry_cell_setting	triclinic
loop_
_symmetry_equiv_pos_as_xyz
  x,y,z
_cell_length_a	6.817900
_cell_length_b	19.453114
_cell_length_c	15.866870
_cell_angle_alpha	113.120776
_cell_angle_beta	102.655915
_cell_angle_gamma	101.709288
loop_
_atom_site_label
_atom_site_type_symbol
_atom_site_fract_x
_atom_site_fract_y
_atom_site_fract_z
V1	V	-4.029387	-0.253639	-0.133791
O2	O	-3.993831	-0.213432	0.005401
O3	O	-4.003025	-0.285930	-0.264297
O4	O	-3.972031	-0.348736	-0.132185
O5	O	-4.025040	-0.150191	-0.127626
V6	V	-4.511320	-0.237132	-0.117089
O7	O	-4.294133	-0.289848	-0.170429
O8	O	-4.696770	-0.200924	-0.080451
O9	O	-4.314475	-0.204841	0.013416
O10	O	-4.664273	-0.277340	-0.256281
O11	O	-4.633063	-0.340580	-0.123255
O12	O	-4.345469	-0.142035	-0.118696
C13	C	-3.853677	-0.290709	-0.296097
C14	C	-3.913350	-0.317745	-0.402790
C15	C	-3.925870	-0.066963	-0.683731
C16	C	-3.981949	-0.092391	-0.783990
C17	C	-4.055444	-0.228274	-0.811962
C18	C	-3.999360	-0.202857	-0.711703
C19	C	-3.934578	-0.122201	-0.647595
C20	C	-4.008067	-0.258095	-0.675567
C21	C	-3.951998	-0.232680	-0.575317
C22	C	-3.887222	-0.152027	-0.511204
C23	C	-3.878509	-0.096786	-0.547345
C24	C	-4.072864	-0.338752	-0.739677
C25	C	-4.081572	-0.393990	-0.703541
C26	C	-4.025488	-0.368575	-0.603289
C27	C	-3.960711	-0.287922	-0.539176
C28	C	-4.034201	-0.423817	-0.567148
C29	C	-3.978132	-0.398402	-0.466898
C30	C	-3.904642	-0.262507	-0.438926
C31	C	-3.814139	-0.370823	-0.127574
C32	C	-3.848674	-0.448788	-0.127123
C33	C	-4.047493	-0.490238	-0.131729
C34	C	-4.079942	-0.563495	-0.131307
C35	C	-3.913572	-0.595307	-0.126297
C36	C	-3.714721	-0.553846	-0.121685
C37	C	-3.682272	-0.480587	-0.122098
N38	N	-3.862388	-0.727220	-0.176983
N39	N	-3.893227	-0.796814	-0.176593
C40	C	-4.011328	-0.816032	-0.125049
N41	N	-4.097462	-0.763033	-0.073924
N42	N	-4.066628	-0.693434	-0.074318
C43	C	-3.948737	-0.674744	-0.125848
C44	C	-4.245344	-0.936916	-0.129196
C45	C	-4.277783	-1.010172	-0.128767
C46	C	-3.912561	-1.000525	-0.119154
C47	C	-3.880122	-0.927266	-0.119574
C48	C	-4.046524	-0.895468	-0.124599
C49	C	-4.127166	-0.200062	0.045212
C50	C	-4.046731	-0.173030	0.151903
C51	C	-4.166704	-0.119946	-0.123310
C52	C	-4.111407	-0.041978	-0.123755
H53	H	-4.118518	-0.359442	-0.821306
H54	H	-3.985255	-0.443383	-0.437477
H55	H	-4.182992	-0.464351	-0.135818
H56	H	-3.873086	-0.001283	-0.631529
H57	H	-4.241854	-0.597252	-0.135062
H58	H	-3.579261	-0.579751	-0.117603
H59	H	-3.841577	-0.131336	-0.429575
H60	H	-3.974847	-0.047403	-0.813405
H61	H	-3.777093	-1.026422	-0.115067
H62	H	-4.108204	-0.293945	-0.864172
H63	H	-3.520362	-0.446835	-0.118340
H64	H	-3.718229	-0.893521	-0.115833
H65	H	-3.851858	-0.196828	-0.386724
H66	H	-4.134332	-0.459661	-0.755751
H67	H	-4.086973	-0.489488	-0.619359
H68	H	-4.380837	-0.911023	-0.133284
H69	H	-4.439685	-1.043917	-0.132510
H70	H	-3.825725	-0.031106	-0.495143
