data_functionalizedCrystal
_audit_creation_method	'MofGen! by Chris Wilmer'
_symmetry_space_group_name_H-M	'P1'
_symmetry_Int_Tables_number	1
_symmetry_cell_setting	triclinic
loop_
_symmetry_equiv_pos_as_xyz
  x,y,z
_cell_length_a	16.625539
_cell_length_b	19.805407
_cell_length_c	19.805405
_cell_angle_alpha	89.973590
_cell_angle_beta	89.970033
_cell_angle_gamma	90.018020
loop_
_atom_site_label
_atom_site_type_symbol
_atom_site_fract_x
_atom_site_fract_y
_atom_site_fract_z
Zn1	Zn	-0.455910	-1.034725	-0.269474
Zn2	Zn	0.044090	-0.534725	0.230526
Zn3	Zn	-0.321069	-1.034643	-0.382664
Zn4	Zn	0.178931	-0.534643	0.117336
Zn5	Zn	-0.321089	-0.921543	-0.269494
Zn6	Zn	0.178911	-0.421543	0.230506
Zn7	Zn	-0.455857	-0.921503	-0.382627
Zn8	Zn	0.044143	-0.421503	0.117373
O9	O	-0.388481	-0.978104	-0.326065
O10	O	0.111519	-0.478104	0.173935
O11	O	-0.438038	-1.129431	-0.284497
O12	O	0.061962	-0.629431	0.215503
O13	O	-0.208239	-1.019622	-0.367676
O14	O	0.291761	-0.519622	0.132324
O15	O	-0.339003	-0.936608	-0.174775
O16	O	0.160997	-0.436608	0.325225
O17	O	-0.338970	-1.129371	-0.367656
O18	O	0.161030	-0.629371	0.132344
O19	O	-0.438056	-1.019762	-0.174760
O20	O	0.061944	-0.519762	0.325240
O21	O	-0.208254	-0.936528	-0.284531
O22	O	0.291746	-0.436528	0.215469
O23	O	-0.338952	-0.826821	-0.284494
O24	O	0.161048	-0.326821	0.215506
O25	O	-0.568696	-0.936540	-0.367593
O26	O	-0.068696	-0.436540	0.132407
O27	O	-0.437965	-0.826792	-0.367612
O28	O	0.062035	-0.326792	0.132388
O29	O	-0.568736	-1.019724	-0.284460
O30	O	-0.068736	-0.519724	0.215540
O31	O	-0.338919	-1.019584	-0.477376
O32	O	0.161081	-0.519584	0.022624
O33	O	-0.437946	-0.936461	-0.477348
O34	O	0.062054	-0.436461	0.022652
C35	C	-0.388442	-0.978028	-0.501921
C36	C	0.111558	-0.478028	-0.001921
C37	C	-0.388453	-0.978057	-0.577153
C38	C	0.111547	-0.478057	-0.077153
C39	C	-0.388455	-0.802248	-0.326052
C40	C	0.111545	-0.302248	0.173948
C41	C	-0.388463	-0.727016	-0.326063
C42	C	0.111537	-0.227016	0.173937
C43	C	-0.598790	-0.978137	-0.326020
C44	C	-0.098790	-0.478137	0.173980
C45	C	-0.688411	-0.978151	-0.326001
C46	C	-0.188411	-0.478151	0.173999
C47	C	-0.761194	-0.978162	-0.325986
C48	C	-0.261194	-0.478162	0.174014
C49	C	-0.852502	-0.978178	-0.325961
C50	C	-0.352502	-0.478178	0.174039
C51	C	-0.925279	-0.978194	-0.325937
C52	C	-0.425279	-0.478194	0.174063
C53	C	-1.016593	-0.978211	-0.325913
C54	C	-0.516593	-0.478211	0.174087
C55	C	-0.178990	-0.978110	-0.326061
C56	C	0.321010	-0.478110	0.173939
C57	C	-0.089370	-0.978227	-0.325889
C58	C	0.410630	-0.478227	0.174111
C59	C	-0.388508	-1.154646	-0.326078
C60	C	0.111492	-0.654646	0.173922
C61	C	-0.388519	-1.229878	-0.326084
C62	C	0.111481	-0.729878	0.173916
C63	C	-0.439936	-0.691674	-0.369407
C64	C	0.060064	-0.191674	0.130593
C65	C	-0.439947	-0.620986	-0.369409
C66	C	0.060053	-0.120986	0.130591
C67	C	-0.388481	-0.585640	-0.326068
C68	C	0.111519	-0.085640	0.173932
C69	C	-0.337006	-0.620987	-0.282719
C70	C	0.162994	-0.120987	0.217281
C71	C	-0.336999	-0.691674	-0.282715
C72	C	0.163001	-0.191674	0.217285
C73	C	-0.337033	-0.335913	-0.282734
C74	C	0.162967	0.164087	0.217266
C75	C	-0.337042	-0.265221	-0.282742
C76	C	0.162958	0.234779	0.217258
C77	C	-0.439981	-0.265225	-0.369428
C78	C	0.060019	0.234775	0.130572
C79	C	-0.439974	-0.335912	-0.369424
C80	C	0.060026	0.164088	0.130576
C81	C	-0.388502	-0.371253	-0.326072
C82	C	0.111498	0.128747	0.173928
C83	C	-0.388492	-0.447901	-0.326070
C84	C	0.111508	0.052099	0.173930
C85	C	-0.388487	-0.508993	-0.326073
C86	C	0.111513	-0.008993	0.173927
C87	C	-0.336943	-1.021381	-0.612489
C88	C	0.163057	-0.521381	-0.112489
C89	C	-0.336961	-1.021410	-0.683177
C90	C	0.163039	-0.521410	-0.183177
C91	C	-0.388485	-0.978110	-0.718529
C92	C	0.111515	-0.478110	-0.218529
C93	C	-0.440000	-0.934784	-0.683188
C94	C	0.060000	-0.434784	-0.183188
C95	C	-0.439986	-0.934759	-0.612500
C96	C	0.060014	-0.434759	-0.112500
C97	C	-0.440060	-0.934884	-0.968261
C98	C	0.059940	-0.434884	-0.468261
C99	C	-0.440069	-0.934911	-1.038953
C100	C	0.059931	-0.434911	-0.538953
C101	C	-0.337035	-1.021535	-1.038938
C102	C	0.162965	-0.521535	-0.538938
C103	C	-0.337020	-1.021510	-0.968251
C104	C	0.162980	-0.521510	-0.468251
C105	C	-0.388538	-0.978186	-0.932916
C106	C	0.111462	-0.478186	-0.432916
C107	C	-0.388520	-0.978157	-0.856267
C108	C	0.111480	-0.478157	-0.356267
C109	C	-0.388500	-0.978136	-0.795176
C110	C	0.111500	-0.478136	-0.295176
C111	C	-0.388538	-0.978199	-0.149522
C112	C	0.111462	-0.478199	0.350478
C113	C	-0.388562	-0.978239	-0.074290
C114	C	0.111438	-0.478239	0.425710
H115	H	-0.481843	-0.720447	-0.404703
H116	H	0.018157	-0.220447	0.095297
H117	H	-0.295115	-0.364679	-0.247439
H118	H	0.204885	0.135321	0.252561
H119	H	-0.482032	-0.899652	-1.067734
H120	H	0.017968	-0.399652	-0.567734
H121	H	-0.481895	-0.236443	-0.404724
H122	H	0.018105	0.263557	0.095276
H123	H	-0.295015	-1.056688	-0.711945
H124	H	0.204985	-0.556688	-0.211945
H125	H	-0.294982	-1.056638	-0.583711
H126	H	0.205018	-0.556638	-0.083711
H127	H	-0.481931	-0.899481	-0.583731
H128	H	0.018069	-0.399481	-0.083731
H129	H	-0.482006	-0.899607	-0.939497
H130	H	0.017994	-0.399607	-0.439497
H131	H	-0.295062	-1.056766	-0.939470
H132	H	0.204938	-0.556766	-0.439470
H133	H	-0.295132	-0.236445	-0.247445
H134	H	0.204868	0.263555	0.252555
H135	H	-0.481880	-0.364687	-0.404718
H136	H	0.018120	0.135313	0.095282
H137	H	-0.295105	-0.592203	-0.247427
H138	H	0.204895	-0.092203	0.252573
H139	H	-0.295089	-0.720448	-0.247415
H140	H	0.204911	-0.220448	0.252585
H141	H	-0.295089	-1.056813	-1.067716
H142	H	0.204911	-0.556813	-0.567716
H143	H	-0.481861	-0.592214	-0.404705
H144	H	0.018139	-0.092214	0.095295
H145	H	-0.481956	-0.899532	-0.711976
H146	H	0.018044	-0.399532	-0.211976
