data_functionalizedCrystal
_audit_creation_method	'MofGen! by Chris Wilmer'
_symmetry_space_group_name_H-M	'P1'
_symmetry_Int_Tables_number	1
_symmetry_cell_setting	triclinic
loop_
_symmetry_equiv_pos_as_xyz
  x,y,z
_cell_length_a	12.759395
_cell_length_b	18.215405
_cell_length_c	18.215399
_cell_angle_alpha	90.032960
_cell_angle_beta	89.984791
_cell_angle_gamma	89.974427
loop_
_atom_site_label
_atom_site_type_symbol
_atom_site_fract_x
_atom_site_fract_y
_atom_site_fract_z
Zn1	Zn	1.606130	0.292961	-0.416071
Zn2	Zn	1.606008	0.416037	-0.292999
Zn3	Zn	1.430447	0.292991	-0.293022
Zn4	Zn	1.430389	0.415992	-0.416027
O5	O	1.518244	0.354495	-0.354530
O6	O	1.753135	0.309294	-0.399754
O7	O	1.582693	0.399746	-0.190018
O8	O	1.453827	0.190002	-0.309372
O9	O	1.753046	0.399718	-0.309333
O10	O	1.582900	0.189981	-0.399776
O11	O	1.453709	0.309345	-0.190034
O12	O	1.283418	0.309300	-0.309330
O13	O	1.453728	0.399640	-0.519017
O14	O	1.283376	0.399669	-0.399702
O15	O	1.582844	0.309250	-0.519049
O16	O	1.582637	0.519016	-0.309291
O17	O	1.453610	0.518982	-0.399680
C18	C	1.245276	0.354483	-0.354514
C19	C	1.128499	0.354496	-0.354525
C20	C	0.909070	0.448766	-0.448505
C21	C	0.963939	0.495885	-0.495477
C22	C	1.073661	0.495876	-0.495468
C23	C	1.128516	0.448744	-0.448479
C24	C	1.073647	0.401625	-0.401507
C25	C	0.963923	0.401637	-0.401523
C26	C	1.073630	0.307376	-0.307552
C27	C	0.963909	0.307381	-0.307564
C28	C	1.128486	0.260244	-0.260564
C29	C	1.073616	0.213120	-0.213594
C30	C	0.963888	0.213130	-0.213606
C31	C	0.909040	0.260261	-0.260592
C32	C	1.518133	0.545701	-0.354494
C33	C	1.518181	0.627500	-0.354504
C34	C	1.518293	0.354436	-0.546483
C35	C	1.518314	0.354411	-0.628282
C36	C	1.792277	0.354507	-0.354546
C37	C	1.909054	0.354513	-0.354553
C38	C	1.518384	0.162542	-0.354581
C39	C	1.518443	0.080743	-0.354603
C40	C	1.585523	0.815687	-0.307525
C41	C	1.585570	0.892546	-0.307543
C42	C	1.451098	0.892551	-0.401587
C43	C	1.451058	0.815694	-0.401573
C44	C	1.518268	0.777264	-0.354537
C45	C	1.518356	0.930980	-0.354570
C46	C	1.518407	1.014313	-0.354589
C47	C	1.518220	0.693925	-0.354518
C48	C	1.451209	0.307307	-0.816485
C49	C	1.451227	0.307292	-0.893344
C50	C	1.585545	0.401428	-0.893316
C51	C	1.585521	0.401445	-0.816459
C52	C	1.518354	0.354381	-0.778045
C53	C	1.518397	0.354348	-0.931761
C54	C	1.518417	0.354333	-1.015095
C55	C	1.518332	0.354398	-0.694706
C56	C	1.518255	0.354501	-0.163323
C57	C	1.518437	0.354318	-0.081525
H58	H	1.217857	0.448747	-0.448469
O59	O	1.235068	0.260098	-0.260555
C60	C	1.271763	0.189590	-0.279597
H61	H	1.208540	0.147193	-0.267107
H62	H	1.345153	0.176458	-0.246417
H63	H	1.291269	0.188103	-0.340660
O64	O	0.910601	0.541558	-0.541200
C65	C	0.847163	0.499720	-0.588801
H66	H	0.880263	0.441763	-0.593448
H67	H	0.845935	0.526406	-0.645389
H68	H	0.763995	0.497161	-0.566058
H69	H	1.640231	0.439745	-0.924602
H70	H	1.118288	0.174752	-0.175336
H71	H	1.396290	0.784407	-0.439859
O72	O	0.910754	0.167289	-0.167952
C73	C	0.982703	0.125706	-0.126467
H74	H	1.060936	0.123191	-0.156607
H75	H	0.951028	0.067715	-0.118724
H76	H	0.994326	0.152587	-0.070524
O77	O	1.651073	0.929767	-0.261911
C78	C	1.755740	0.910892	-0.278093
H79	H	1.757809	0.855072	-0.306389
H80	H	1.802915	0.908243	-0.225019
H81	H	1.791135	0.954095	-0.315955
H82	H	1.640201	0.439782	-0.785160
H83	H	1.640252	0.784399	-0.269227
O84	O	1.127012	0.541725	-0.540991
C85	C	1.190457	0.589182	-0.498997
H86	H	1.157353	0.593660	-0.441031
H87	H	1.191700	0.645851	-0.525509
H88	H	1.273619	0.566412	-0.496493
H89	H	1.396518	0.268985	-0.785211
O90	O	0.802457	0.260146	-0.260667
C91	C	0.765851	0.189633	-0.279678
H92	H	0.829117	0.159247	-0.311812
H93	H	0.692462	0.194947	-0.314962
H94	H	0.746374	0.157686	-0.227635
O95	O	1.385840	0.929997	-0.447200
C96	C	1.400311	1.006073	-0.437145
H97	H	1.434782	1.016594	-0.380376
H98	H	1.321625	1.035323	-0.442088
H99	H	1.456227	1.027820	-0.480839
O100	O	1.385856	0.261599	-0.930601
C101	C	1.281129	0.277696	-0.911818
H102	H	1.278922	0.306001	-0.856005
H103	H	1.234055	0.224582	-0.909201
H104	H	1.245723	0.315520	-0.955059
O105	O	0.802487	0.448777	-0.448396
C106	C	0.765746	0.467612	-0.377848
H107	H	0.828936	0.454979	-0.335459
H108	H	0.692340	0.434409	-0.364852
H109	H	0.746250	0.528675	-0.376184
