data_functionalizedCrystal
_audit_creation_method	'MofGen! by Chris Wilmer'
_symmetry_space_group_name_H-M	'P1'
_symmetry_Int_Tables_number	1
_symmetry_cell_setting	triclinic
loop_
_symmetry_equiv_pos_as_xyz
  x,y,z
_cell_length_a	6.817900
_cell_length_b	11.168136
_cell_length_c	16.417823
_cell_angle_alpha	93.913802
_cell_angle_beta	103.385419
_cell_angle_gamma	108.508683
loop_
_atom_site_label
_atom_site_type_symbol
_atom_site_fract_x
_atom_site_fract_y
_atom_site_fract_z
V1	V	-4.083857	-0.394136	-0.115897
O2	O	-4.070714	-0.386184	0.005556
O3	O	-4.034569	-0.391873	-0.229793
O4	O	-4.060546	-0.565835	-0.114120
O5	O	-4.044557	-0.211017	-0.110917
V6	V	-4.564349	-0.372181	-0.101369
O7	O	-4.351764	-0.442296	-0.147766
O8	O	-4.746639	-0.324021	-0.069501
O9	O	-4.390430	-0.374444	0.012526
O10	O	-4.694888	-0.380133	-0.222823
O11	O	-4.721046	-0.555300	-0.106350
O12	O	-4.364453	-0.200482	-0.103146
C13	C	-3.878542	-0.385767	-0.257558
C14	C	-3.919698	-0.385061	-0.350668
C15	C	-3.996061	-0.267158	-0.640430
C16	C	-3.957361	-0.267801	-0.552940
C17	C	-4.071520	-0.499172	-0.576849
C18	C	-4.110205	-0.498527	-0.664337
C19	C	-4.072482	-0.382517	-0.696125
C20	C	-3.995098	-0.383805	-0.521147
C21	C	-3.953138	-0.384503	-0.426287
C22	C	-4.114441	-0.381818	-0.790991
C23	C	-3.911678	-0.607671	-0.110005
C24	C	-3.973896	-0.748039	-0.109306
C25	C	-4.175583	-0.816745	-0.112967
C26	C	-4.239893	-0.961822	-0.112244
C27	C	-4.209798	-0.380547	0.040286
C28	C	-4.147882	-0.381261	0.133396
C29	C	-4.176663	-0.158639	-0.107264
C30	C	-4.093682	-0.018270	-0.107960
H31	H	-4.172430	-0.592472	-0.709686
O32	O	-4.325042	-0.758991	-0.117312
C33	C	-4.525070	-0.851047	-0.120600
H34	H	-4.498518	-0.936858	-0.092269
H35	H	-4.625028	-0.883138	-0.189325
C36	C	-4.677022	-0.686943	-0.104422
C37	C	-4.644409	-0.792333	-0.069619
H38	H	-4.750643	-0.650726	-0.072978
H39	H	-4.542263	-0.624923	-0.102210
H40	H	-4.760313	-0.713701	-0.161692
H41	H	-4.561098	-0.765572	-0.012353
H42	H	-4.779158	-0.854348	-0.071820
H43	H	-3.848833	-0.796621	-0.105631
H44	H	-3.920903	-0.959217	-0.104831
H45	H	-3.965336	-0.172695	-0.666309
H46	H	-4.412673	-1.020885	-0.115382
O47	O	-4.108529	-0.611948	-0.546074
C48	C	-4.326611	-0.688161	-0.578761
H49	H	-4.396435	-0.656803	-0.640235
H50	H	-4.418694	-0.676692	-0.530703
C51	C	-4.260361	-0.867779	-0.520838
C52	C	-4.346116	-0.829272	-0.596347
H53	H	-4.272397	-0.954824	-0.531683
H54	H	-4.113437	-0.816432	-0.498813
H55	H	-4.337108	-0.858211	-0.480797
H56	H	-4.269353	-0.838825	-0.636382
H57	H	-4.493029	-0.880624	-0.618379
O58	O	-3.883223	-0.155630	-0.498959
C59	C	-3.858176	-0.053105	-0.545780
H60	H	-3.966056	-0.088760	-0.613128
H61	H	-3.683662	-0.011895	-0.547659
C62	C	-3.788326	0.095179	-0.420690
C63	C	-3.920840	0.051388	-0.503407
H64	H	-3.826970	0.159639	-0.394551
H65	H	-3.805192	0.026107	-0.389144
H66	H	-3.642908	0.129512	-0.422267
H67	H	-4.066250	0.017042	-0.501828
H68	H	-3.903999	0.120457	-0.534951
