data_functionalizedCrystal
_audit_creation_method	'MofGen! by Chris Wilmer'
_symmetry_space_group_name_H-M	'P1'
_symmetry_Int_Tables_number	1
_symmetry_cell_setting	triclinic
loop_
_symmetry_equiv_pos_as_xyz
  x,y,z
_cell_length_a	16.625548
_cell_length_b	16.625546
_cell_length_c	21.395355
_cell_angle_alpha	90.018476
_cell_angle_beta	90.024527
_cell_angle_gamma	90.023536
loop_
_atom_site_label
_atom_site_type_symbol
_atom_site_fract_x
_atom_site_fract_y
_atom_site_fract_z
Zn1	Zn	1.232712	-0.321072	0.354261
Zn2	Zn	1.732712	0.178928	0.854261
Zn3	Zn	1.232606	-0.455887	0.249484
Zn4	Zn	1.732606	0.044113	0.749484
Zn5	Zn	1.097864	-0.321075	0.249498
Zn6	Zn	1.597864	0.178925	0.749498
Zn7	Zn	1.097844	-0.455869	0.354224
Zn8	Zn	1.597844	0.044131	0.854224
O9	O	1.165257	-0.388476	0.301867
O10	O	1.665257	0.111524	0.801867
O11	O	1.345530	-0.338962	0.340372
O12	O	1.845530	0.161038	0.840372
O13	O	1.214696	-0.438013	0.161808
O14	O	1.714696	0.061987	0.661808
O15	O	1.115805	-0.208242	0.263417
O16	O	1.615805	0.291758	0.763417
O17	O	1.345452	-0.438010	0.263392
O18	O	1.845452	0.061990	0.763392
O19	O	1.214877	-0.208240	0.340386
O20	O	1.714877	0.291760	0.840386
O21	O	1.115702	-0.338967	0.161818
O22	O	1.615702	0.161033	0.661818
O23	O	0.985029	-0.338949	0.263380
O24	O	1.485029	0.161051	0.763380
O25	O	1.115771	-0.437979	0.441907
O26	O	1.615771	0.062021	0.941907
O27	O	0.985014	-0.437982	0.340322
O28	O	1.485014	0.062018	0.840322
O29	O	1.214857	-0.338944	0.441934
O30	O	1.714857	0.161056	0.941934
O31	O	1.214677	-0.568717	0.263356
O32	O	1.714677	-0.068717	0.763356
O33	O	1.115668	-0.568704	0.340309
O34	O	1.615668	-0.068704	0.840309
C35	C	0.955766	-0.388464	0.301849
C36	C	1.455766	0.111536	0.801849
C37	C	0.866145	-0.388479	0.301857
C38	C	1.366145	0.111521	0.801857
C39	C	0.537969	-0.388484	0.301883
C40	C	1.037969	0.111516	0.801883
C41	C	0.629277	-0.388480	0.301874
C42	C	1.129277	0.111520	0.801874
C43	C	0.702054	-0.388482	0.301869
C44	C	1.202054	0.111518	0.801869
C45	C	0.793368	-0.388477	0.301861
C46	C	1.293368	0.111523	0.801861
C47	C	1.165180	-0.597967	0.301841
C48	C	1.665180	-0.097967	0.801841
C49	C	1.165221	-0.687588	0.301850
C50	C	1.665221	-0.187588	0.801850
C51	C	1.165362	-1.015763	0.301915
C52	C	1.665362	-0.515763	0.801915
C53	C	1.165320	-0.924455	0.301899
C54	C	1.665320	-0.424455	0.801899
C55	C	1.165291	-0.851678	0.301883
C56	C	1.665291	-0.351678	0.801883
C57	C	1.165251	-0.760364	0.301867
C58	C	1.665251	-0.260364	0.801867
C59	C	1.375565	-0.388488	0.301885
C60	C	1.875565	0.111512	0.801885
C61	C	1.465187	-0.388493	0.301892
C62	C	1.965187	0.111507	0.801892
C63	C	1.165324	-0.388459	0.465290
C64	C	1.665324	0.111541	0.965290
C65	C	1.165352	-0.388452	0.534931
C66	C	1.665352	0.111548	1.034931
C67	C	1.165355	-0.178167	0.301907
C68	C	1.665355	0.321833	0.801907
C69	C	1.165397	-0.088546	0.301924
C70	C	1.665397	0.411454	0.801924
C71	C	1.165236	-0.388434	0.139079
C72	C	1.665236	0.111566	0.639079
C73	C	1.165364	-0.388214	0.069438
C74	C	1.665364	0.111786	0.569438
C75	C	1.216944	-0.336883	0.567660
C76	C	1.716944	0.163117	1.067660
C77	C	1.216943	-0.336848	0.633095
C78	C	1.716943	0.163152	1.133095
C79	C	1.165358	-0.388397	0.665800
C80	C	1.665358	0.111603	1.165800
C81	C	1.113756	-0.439971	0.633063
C82	C	1.613756	0.060029	1.133063
C83	C	1.113753	-0.439998	0.567629
C84	C	1.613753	0.060002	1.067629
C85	C	1.158965	-0.460998	0.769465
C86	C	1.658965	0.039002	1.269465
C87	C	1.158974	-0.460972	0.834898
C88	C	1.658974	0.039028	1.334898
C89	C	1.165363	-0.388312	0.867621
C90	C	1.665363	0.111688	1.367621
C91	C	1.171761	-0.315676	0.834902
C92	C	1.671761	0.184324	1.334902
C93	C	1.171758	-0.315704	0.769468
C94	C	1.671758	0.184296	1.269468
C95	C	1.165356	-0.388373	0.736752
C96	C	1.665356	0.111627	1.236752
C97	C	1.216957	-0.336701	0.971302
C98	C	1.716957	0.163299	1.471302
C99	C	1.216950	-0.336665	1.036738
C100	C	1.716950	0.163335	1.536738
C101	C	1.113767	-0.439794	1.036705
C102	C	1.613767	0.060206	1.536705
C103	C	1.113770	-0.439823	0.971270
C104	C	1.613770	0.060177	1.471270
C105	C	1.165369	-0.388278	0.938572
C106	C	1.665369	0.111722	1.438572
H107	H	1.258954	-0.294850	0.659748
H108	H	1.758954	0.205150	1.159748
O109	O	1.266985	-0.286512	0.939560
O110	O	1.766985	0.213488	1.439560
C111	C	1.249414	-0.206142	0.955550
C112	C	1.749414	0.293858	1.455550
H113	H	1.185002	-0.202058	0.973517
H114	H	1.685002	0.297942	1.473517
H115	H	1.256376	-0.166330	0.912517
H116	H	1.756376	0.333670	1.412517
H117	H	1.292654	-0.185047	0.993544
H118	H	1.792654	0.314953	1.493544
H119	H	1.153770	-0.520117	0.861533
H120	H	1.653770	-0.020117	1.361533
O121	O	1.063614	-0.490177	0.535931
O122	O	1.563614	0.009823	1.035931
C123	C	1.018065	-0.535654	0.578824
C124	C	1.518065	-0.035654	1.078824
H125	H	1.051086	-0.538424	0.625481
H126	H	1.551086	-0.038424	1.125481
H127	H	1.009438	-0.599191	0.559918
H128	H	1.509438	-0.099191	1.059918
H129	H	0.956839	-0.506123	0.585759
H130	H	1.456839	-0.006123	1.085759
H131	H	1.071753	-0.481940	0.659696
H132	H	1.571753	0.018060	1.159696
H133	H	1.071758	-0.481759	1.063333
H134	H	1.571758	0.018241	1.563333
O135	O	1.267086	-0.286731	0.535995
O136	O	1.767086	0.213269	1.035995
C137	C	1.312637	-0.241221	0.578919
C138	C	1.812637	0.258779	1.078919
H139	H	1.279614	-0.238410	0.625553
H140	H	1.779614	0.261590	1.125553
H141	H	1.321267	-0.177700	0.560018
H142	H	1.821267	0.322300	1.060018
H143	H	1.373860	-0.270749	0.585896
H144	H	1.873860	0.229251	1.085896
O145	O	1.177850	-0.245192	0.737616
O146	O	1.677850	0.254808	1.237616
C147	C	1.109199	-0.234815	0.699760
C148	C	1.609199	0.265185	1.199760
H149	H	1.080644	-0.295882	0.689953
H150	H	1.580644	0.204118	1.189953
H151	H	1.127418	-0.205449	0.653750
H152	H	1.627418	0.294551	1.153750
H153	H	1.064023	-0.194725	0.724965
H154	H	1.564023	0.305275	1.224965
H155	H	1.176965	-0.256510	0.861543
H156	H	1.676965	0.243490	1.361543
H157	H	1.258962	-0.294666	1.063385
H158	H	1.758962	0.205334	1.563385
O159	O	1.063631	-0.489999	0.939571
O160	O	1.563631	0.010001	1.439571
C161	C	1.018083	-0.535475	0.982465
C162	C	1.518083	-0.035475	1.482465
H163	H	1.051110	-0.538253	1.029119
H164	H	1.551110	-0.038253	1.529119
H165	H	1.009448	-0.599010	0.963556
H166	H	1.509448	-0.099010	1.463556
H167	H	0.956861	-0.505939	0.989407
H168	H	1.456861	-0.005939	1.489407
H169	H	1.153547	-0.520152	0.742828
H170	H	1.653547	-0.020152	1.242828
