data_functionalizedCrystal
_audit_creation_method	'MofGen! by Chris Wilmer'
_symmetry_space_group_name_H-M	'P1'
_symmetry_Int_Tables_number	1
_symmetry_cell_setting	triclinic
loop_
_symmetry_equiv_pos_as_xyz
  x,y,z
_cell_length_a	12.645330
_cell_length_b	15.297475
_cell_length_c	15.296720
_cell_angle_alpha	91.617114
_cell_angle_beta	99.649341
_cell_angle_gamma	80.321044
loop_
_atom_site_label
_atom_site_type_symbol
_atom_site_fract_x
_atom_site_fract_y
_atom_site_fract_z
Zn1	Zn	-0.825067	1.253448	-0.726648
Zn2	Zn	-0.325067	1.753448	-0.226648
Zn3	Zn	-0.977718	1.278720	-0.580172
Zn4	Zn	-0.477718	1.778720	-0.080172
Zn5	Zn	-0.765511	1.132323	-0.554885
Zn6	Zn	-0.265511	1.632323	-0.054885
Zn7	Zn	-0.967297	1.106946	-0.701300
Zn8	Zn	-0.467297	1.606946	-0.201300
O9	O	-0.883898	1.192859	-0.640751
O10	O	-0.383898	1.692859	-0.140751
O11	O	-0.874601	1.379380	-0.728408
O12	O	-0.374601	1.879380	-0.228408
O13	O	-0.929005	1.280497	-0.454242
O14	O	-0.429005	1.780497	0.045758
O15	O	-0.625078	1.148435	-0.577695
O16	O	-0.125078	1.648435	-0.077695
O17	O	-0.986754	1.397947	-0.620794
O18	O	-0.486754	1.897947	-0.120794
O19	O	-0.668833	1.237425	-0.703888
O20	O	-0.168833	1.737425	-0.203888
O21	O	-0.773098	1.172939	-0.435663
O22	O	-0.273098	1.672939	0.064337
O23	O	-0.762993	1.006377	-0.553116
O24	O	-0.262993	1.506377	-0.053116
O25	O	-0.968993	1.105183	-0.827238
O26	O	-0.468993	1.605183	-0.327238
O27	O	-0.911244	0.987732	-0.660687
O28	O	-0.411244	1.487732	-0.160687
O29	O	-0.864497	1.212818	-0.845861
O30	O	-0.364497	1.712818	-0.345861
O31	O	-1.124669	1.255889	-0.596215
O32	O	-0.624669	1.755889	-0.096215
O33	O	-1.117013	1.129687	-0.685207
O34	O	-0.617013	1.629687	-0.185207
C35	C	-0.829526	0.965271	-0.601408
C36	C	-0.329526	1.465271	-0.101408
C37	C	-0.806295	0.867904	-0.584597
C38	C	-0.306295	1.367904	-0.084597
C39	C	-1.049945	0.554772	-0.760902
C40	C	-0.549945	1.054772	-0.260902
C41	C	-1.071780	0.646253	-0.776693
C42	C	-0.571780	1.146253	-0.276693
C43	C	-1.005410	0.701670	-0.728671
C44	C	-0.505410	1.201670	-0.228671
C45	C	-0.917203	0.665597	-0.664853
C46	C	-0.417203	1.165597	-0.164853
C47	C	-0.895371	0.574108	-0.649055
C48	C	-0.395371	1.074108	-0.149055
C49	C	-0.850836	0.721006	-0.616824
C50	C	-0.350836	1.221006	-0.116824
C51	C	-0.762629	0.684933	-0.553007
C52	C	-0.262629	1.184933	-0.053007
C53	C	-0.740801	0.593452	-0.537212
C54	C	-0.240801	1.093452	-0.037212
C55	C	-0.807170	0.538035	-0.585234
C56	C	-0.307170	1.038035	-0.085234
C57	C	-0.872668	0.812496	-0.632623
C58	C	-0.372668	1.312496	-0.132623
C59	C	-0.718094	0.831831	-0.520776
C60	C	-0.218094	1.331831	-0.020776
C61	C	-0.696259	0.740350	-0.504984
C62	C	-0.196259	1.240350	-0.004984
C63	C	-1.159311	1.192797	-0.640728
C64	C	-0.659311	1.692797	-0.140728
C65	C	-1.277157	1.192846	-0.640761
C66	C	-0.777157	1.692846	-0.140761
C67	C	-1.440051	1.113695	-0.697003
C68	C	-0.940051	1.613695	-0.197003
C69	C	-1.317372	1.113388	-0.696725
C70	C	-0.817372	1.613388	-0.196725
C71	C	-1.300270	1.183843	-0.544135
C72	C	-0.800270	1.683843	-0.044135
C73	C	-1.422840	1.183360	-0.544476
C74	C	-0.922840	1.683360	-0.044476
C75	C	-1.470384	1.281541	-0.680468
C76	C	-0.970384	1.781541	-0.180468
C77	C	-1.347981	1.280623	-0.682388
C78	C	-0.847981	1.780623	-0.182388
C79	C	-0.607419	1.192942	-0.640798
C80	C	-0.107419	1.692942	-0.140798
C81	C	-0.489600	1.192977	-0.640818
C82	C	0.010400	1.692977	-0.140818
C83	C	-0.922226	1.153351	-0.869221
C84	C	-0.422226	1.653351	-0.369221
C85	C	-0.938559	1.136514	-0.966581
C86	C	-0.438559	1.636514	-0.466581
C87	C	-0.938483	1.421336	-0.680249
C88	C	-0.438483	1.921336	-0.180249
C89	C	-0.961744	1.518699	-0.697081
C90	C	-0.461744	2.018699	-0.197081
C91	C	-0.766986	1.313223	-1.279808
C92	C	-0.266986	1.813223	-0.779808
C93	C	-0.751644	1.329047	-1.188334
C94	C	-0.251644	1.829047	-0.688334
C95	C	-0.798371	1.280915	-1.132891
C96	C	-0.298371	1.780915	-0.632891
C97	C	-0.860444	1.216957	-1.168931
C98	C	-0.360444	1.716957	-0.668931
C99	C	-0.875795	1.201136	-1.260415
C100	C	-0.375795	1.701136	-0.760415
C101	C	-0.907179	1.168828	-1.113499
C102	C	-0.407179	1.668828	-0.613499
C103	C	-0.969252	1.104870	-1.149538
C104	C	-0.469252	1.604870	-0.649538
C105	C	-0.984600	1.089052	-1.241013
C106	C	-0.484600	1.589052	-0.741013
C107	C	-0.937873	1.137183	-1.296456
C108	C	-0.437873	1.637183	-0.796456
C109	C	-0.891828	1.184649	-1.022015
C110	C	-0.391828	1.684649	-0.522015
C111	C	-1.000637	1.072562	-1.002622
C112	C	-0.500637	1.572562	-0.502622
C113	C	-1.015979	1.056738	-1.094096
C114	C	-0.515979	1.556738	-0.594096
C115	C	-0.845655	1.232264	-0.413179
C116	C	-0.345655	1.732264	0.086821
C117	C	-0.829064	1.249270	-0.315849
C118	C	-0.329064	1.749270	0.184151
H119	H	-1.302455	1.117169	-0.767873
H120	H	-0.802455	1.617169	-0.267873
Cl121	Cl	-0.957165	1.117298	-1.411458
Cl122	Cl	-0.457165	1.617298	-0.911458
H123	H	-1.035154	1.036980	-1.270355
H124	H	-0.535154	1.536980	-0.770355
H125	H	-1.066519	1.004662	-1.123453
H126	H	-0.566519	1.504662	-0.623453
Cl127	Cl	-1.059390	1.012055	-0.932930
Cl128	Cl	-0.559390	1.512055	-0.432930
H129	H	-0.789395	0.463542	-0.572381
H130	H	-0.289395	0.963542	-0.072381
Cl131	Cl	-0.779078	1.300806	-1.017894
Cl132	Cl	-0.279078	1.800806	-0.517894
H133	H	-1.023193	0.776158	-0.741533
H134	H	-0.523193	1.276158	-0.241533
Cl135	Cl	-0.983553	0.857833	-0.712849
Cl136	Cl	-0.483553	1.357833	-0.212849
H137	H	-1.273756	1.240465	-0.500427
H138	H	-0.773756	1.740465	-0.000427
Cl139	Cl	-1.182665	0.691596	-0.856916
Cl140	Cl	-0.682665	1.191596	-0.356916
H141	H	-1.103979	0.509645	-0.799989
H142	H	-0.603979	1.009645	-0.299989
H143	H	-0.668986	0.564086	-0.485238
H144	H	-0.168986	1.064086	0.014762
Cl145	Cl	-1.223015	1.085806	-0.494774
Cl146	Cl	-0.723015	1.585806	0.005226
H147	H	-0.624440	0.710966	-0.453023
H148	H	-0.124440	1.210966	0.046977
Cl149	Cl	-0.708263	1.373731	-1.349511
Cl150	Cl	-0.208263	1.873731	-0.849511
H151	H	-0.664052	0.876953	-0.481671
H152	H	-0.164052	1.376953	0.018329
H153	H	-0.841287	1.236723	-0.992680
H154	H	-0.341287	1.736723	-0.492680
H155	H	-1.334748	1.287703	-0.753579
H156	H	-0.834748	1.787703	-0.253579
H157	H	-1.484703	1.117294	-0.768350
H158	H	-0.984703	1.617294	-0.268350
H159	H	-1.452052	1.048109	-0.669746
H160	H	-0.952052	1.548109	-0.169746
Cl161	Cl	-0.673613	1.409447	-1.143033
Cl162	Cl	-0.173613	1.909447	-0.643033
Cl163	Cl	-1.242839	1.011518	-0.654223
Cl164	Cl	-0.742839	1.511518	-0.154223
H165	H	-1.431991	1.119095	-0.512746
H166	H	-0.931991	1.619095	-0.012746
H167	H	-1.454946	1.239467	-0.500326
H168	H	-0.954946	1.739467	-0.000326
H169	H	-1.517792	1.292878	-0.750574
H170	H	-1.017792	1.792878	-0.250574
H171	H	-1.322277	1.341522	-0.645717
H172	H	-0.822277	1.841522	-0.145717
H173	H	-1.503081	1.340412	-0.639741
H174	H	-1.003081	1.840412	-0.139741
