data_functionalizedCrystal
_audit_creation_method	'MofGen! by Chris Wilmer'
_symmetry_space_group_name_H-M	'P1'
_symmetry_Int_Tables_number	1
_symmetry_cell_setting	triclinic
loop_
_symmetry_equiv_pos_as_xyz
  x,y,z
_cell_length_a	12.759401
_cell_length_b	19.120786
_cell_length_c	12.759393
_cell_angle_alpha	87.522629
_cell_angle_beta	89.982620
_cell_angle_gamma	92.465417
loop_
_atom_site_label
_atom_site_type_symbol
_atom_site_fract_x
_atom_site_fract_y
_atom_site_fract_z
Zn1	Zn	1.588324	-0.279586	-0.576098
Zn2	Zn	1.580692	-0.397063	-0.392903
Zn3	Zn	1.412627	-0.279623	-0.400435
Zn4	Zn	1.405088	-0.397009	-0.568548
O5	O	1.496683	-0.338320	-0.484496
O6	O	1.734332	-0.295177	-0.551804
O7	O	1.558359	-0.381523	-0.246879
O8	O	1.442282	-0.181327	-0.430048
O9	O	1.728725	-0.381487	-0.417212
O10	O	1.571366	-0.181300	-0.559107
O11	O	1.434882	-0.295240	-0.252412
O12	O	1.264606	-0.295187	-0.422728
O13	O	1.429434	-0.381394	-0.716573
O14	O	1.259068	-0.381430	-0.546240
O15	O	1.564056	-0.295124	-0.722120
O16	O	1.551049	-0.495347	-0.409892
O17	O	1.422034	-0.495307	-0.538937
C18	C	1.223716	-0.338307	-0.484482
C19	C	1.106939	-0.338319	-0.484501
C20	C	1.484924	-0.520812	-0.472801
C21	C	1.479989	-0.598883	-0.467833
C22	C	1.049216	-0.383297	-0.548698
C23	C	0.939491	-0.383306	-0.548709
C24	C	0.945223	-0.293356	-0.420316
C25	C	1.054945	-0.293344	-0.420312
C26	C	1.045906	-0.435231	-0.622821
C27	C	0.936181	-0.435240	-0.622832
C28	C	1.544828	-0.635487	-0.532747
C29	C	1.540187	-0.708843	-0.528081
C30	C	1.470712	-0.745594	-0.458494
C31	C	1.405867	-0.708986	-0.393577
C32	C	1.410503	-0.635631	-0.398249
C33	C	1.453350	-0.967081	-0.441028
C34	C	1.448721	-1.040441	-0.436358
C35	C	1.583040	-1.040293	-0.570864
C36	C	1.587675	-0.966937	-0.575526
C37	C	1.522825	-0.930335	-0.510612
C38	C	1.465969	-0.820576	-0.453721
C39	C	1.527564	-0.855355	-0.515392
C40	C	1.770715	-0.338334	-0.484510
C41	C	1.887492	-0.338339	-0.484516
C42	C	1.496756	-0.338249	-0.758534
C43	C	1.496787	-0.338218	-0.875313
C44	C	1.508517	-0.155115	-0.496260
C45	C	1.513559	-0.077044	-0.501273
C46	C	1.432521	-0.293283	-0.933062
C47	C	1.432554	-0.293262	-1.042788
C48	C	1.561127	-0.383114	-1.037004
C49	C	1.561088	-0.383138	-0.927280
C50	C	1.358294	-0.241405	-0.936403
C51	C	1.358327	-0.241384	-1.046128
C52	C	1.496674	-0.338341	-0.211527
C53	C	1.496859	-0.338173	-0.094762
H54	H	1.101940	-0.256714	-0.368043
H55	H	1.076642	-0.420724	-0.705155
H56	H	1.076610	-0.486878	-0.590233
C57	C	0.891209	-0.508704	-0.588496
H58	H	0.816751	-0.508708	-0.588515
H59	H	0.915213	-0.520798	-0.519887
H60	H	0.913905	-0.541926	-0.635921
H61	H	1.279782	-0.260856	-1.078909
C62	C	1.329448	-0.749410	-0.317031
H63	H	1.335981	-0.798340	-0.323536
H64	H	1.259605	-0.737424	-0.333105
H65	H	1.345632	-0.737412	-0.247215
C66	C	0.888026	-0.243890	-0.349711
H67	H	0.814411	-0.250341	-0.358904
H68	H	0.909048	-0.196708	-0.368226
H69	H	0.905322	-0.254116	-0.278434
C70	C	1.339182	-0.595367	-0.326842
H71	H	1.297147	-0.627760	-0.284723
H72	H	1.295192	-0.566759	-0.368816
H73	H	1.381210	-0.566751	-0.282918
H74	H	0.903427	-0.415823	-0.701426
C75	C	1.392590	-0.167904	-1.091095
H76	H	1.392616	-0.167894	-1.165554
H77	H	1.461172	-0.155791	-1.067053
H78	H	1.345115	-0.134698	-1.068433
C79	C	1.621238	-0.595067	-0.609306
H80	H	1.659178	-0.627375	-0.647309
H81	H	1.668853	-0.566439	-0.570995
H82	H	1.582812	-0.566457	-0.656870
H83	H	1.409406	-0.850507	-0.397060
H84	H	1.635836	-1.070102	-0.623714
C85	C	1.664114	-0.926516	-0.652054
H86	H	1.702067	-0.958822	-0.690048
H87	H	1.711714	-0.897900	-0.613707
H88	H	1.625720	-0.897894	-0.699630
H89	H	1.592994	-0.738642	-0.580933
C90	C	1.372287	-1.080867	-0.359818
H91	H	1.334320	-1.048562	-0.321834
H92	H	1.410689	-1.109482	-0.312250
H93	H	1.324683	-1.109488	-0.398160
C94	C	1.382032	-0.926828	-0.369612
H95	H	1.340004	-0.959224	-0.327491
H96	H	1.338035	-0.898217	-0.411574
H97	H	1.424067	-0.898215	-0.325689
C98	C	1.631775	-0.432569	-0.863759
H99	H	1.670082	-0.459312	-0.910426
H100	H	1.589593	-0.463178	-0.818987
H101	H	1.679281	-0.405710	-0.822685
C102	C	1.603971	-0.814934	-0.591946
H103	H	1.641921	-0.847237	-0.629949
H104	H	1.651576	-0.786306	-0.553626
H105	H	1.565545	-0.786325	-0.639511
H106	H	1.613480	-0.419686	-1.079330
H107	H	1.275971	-0.255972	-0.905693
H108	H	1.390770	-0.189740	-0.905691
