data_functionalizedCrystal
_audit_creation_method	'MofGen! by Chris Wilmer'
_symmetry_space_group_name_H-M	'P1'
_symmetry_Int_Tables_number	1
_symmetry_cell_setting	triclinic
loop_
_symmetry_equiv_pos_as_xyz
  x,y,z
_cell_length_a	12.759401
_cell_length_b	16.120444
_cell_length_c	12.759393
_cell_angle_alpha	92.864572
_cell_angle_beta	89.981636
_cell_angle_gamma	92.926596
loop_
_atom_site_label
_atom_site_type_symbol
_atom_site_fract_x
_atom_site_fract_y
_atom_site_fract_z
Zn1	Zn	1.584962	-0.331863	-0.615152
Zn2	Zn	1.575911	-0.471299	-0.448367
Zn3	Zn	1.409262	-0.331904	-0.439494
Zn4	Zn	1.400311	-0.471237	-0.624004
O5	O	1.492612	-0.401575	-0.531754
O6	O	1.730782	-0.350368	-0.593036
O7	O	1.553763	-0.452851	-0.300171
O8	O	1.440103	-0.215233	-0.455377
O9	O	1.724132	-0.452811	-0.470500
O10	O	1.569189	-0.215202	-0.584432
O11	O	1.431326	-0.350438	-0.293652
O12	O	1.261054	-0.350378	-0.463961
O13	O	1.424847	-0.452705	-0.769848
O14	O	1.254478	-0.452745	-0.599520
O15	O	1.560510	-0.350308	-0.763344
O16	O	1.545083	-0.587956	-0.479084
O17	O	1.416071	-0.587911	-0.608124
C18	C	1.219645	-0.401560	-0.531739
C19	C	1.102868	-0.401574	-0.531759
C20	C	1.044603	-0.454962	-0.602238
C21	C	0.934879	-0.454972	-0.602251
C22	C	0.941692	-0.348204	-0.461294
C23	C	1.051415	-0.348190	-0.461287
C24	C	1.040668	-0.516606	-0.683616
C25	C	0.930944	-0.516616	-0.683628
C26	C	1.478652	-0.618184	-0.545550
C27	C	1.472776	-0.710849	-0.551487
C28	C	1.523350	-0.921794	-0.501181
C29	C	1.462068	-0.880506	-0.562338
C30	C	1.468028	-0.786100	-0.556299
C31	C	1.517391	-1.016208	-0.507219
C32	C	1.766644	-0.401591	-0.531770
C33	C	1.883420	-0.401598	-0.531777
C34	C	1.492690	-0.401495	-0.805782
C35	C	1.492723	-0.401461	-0.922557
C36	C	1.506654	-0.184121	-0.517927
C37	C	1.512638	-0.091455	-0.512035
C38	C	1.563398	-0.348097	-1.083756
C39	C	1.563370	-0.348132	-0.974034
C40	C	1.422105	-0.454764	-0.980808
C41	C	1.422139	-0.454733	-1.090528
C42	C	1.644953	-0.286531	-1.079844
C43	C	1.644925	-0.286566	-0.970122
C44	C	1.492598	-0.401595	-0.258788
C45	C	1.492783	-0.401395	-0.141999
H46	H	0.897006	-0.581169	-0.665814
H47	H	1.070750	-0.577907	-0.658242
H48	H	1.720718	-0.309711	-0.937567
Br49	Br	1.615536	-0.178962	-0.913636
Br50	Br	1.367157	-0.939758	-0.657164
H51	H	1.580287	-0.886245	-0.444290
Br52	Br	1.326325	-0.527088	-1.169572
H53	H	1.071581	-0.499388	-0.763924
H54	H	0.898424	-0.493570	-0.759510
Br55	Br	1.326236	-0.527149	-0.910948
H56	H	1.098851	-0.304711	-0.403902
H57	H	1.619772	-0.225187	-1.109976
Br58	Br	0.871858	-0.275756	-0.365662
Br59	Br	1.778724	-0.315343	-1.131320
