data_functionalizedCrystal
_audit_creation_method	'MofGen! by Chris Wilmer'
_symmetry_space_group_name_H-M	'P1'
_symmetry_Int_Tables_number	1
_symmetry_cell_setting	triclinic
loop_
_symmetry_equiv_pos_as_xyz
  x,y,z
_cell_length_a	14.908795
_cell_length_b	16.120444
_cell_length_c	14.908308
_cell_angle_alpha	95.986749
_cell_angle_beta	89.788666
_cell_angle_gamma	96.375662
loop_
_atom_site_label
_atom_site_type_symbol
_atom_site_fract_x
_atom_site_fract_y
_atom_site_fract_z
Zn1	Zn	1.328312	-0.293318	-0.602929
Zn2	Zn	1.661646	0.040015	-0.269595
Zn3	Zn	1.994979	0.373348	0.063738
Zn4	Zn	1.329259	-0.425040	-0.459348
Zn5	Zn	1.662592	-0.091706	-0.126015
Zn6	Zn	1.995925	0.241627	0.207318
Zn7	Zn	1.186679	-0.292410	-0.443853
Zn8	Zn	1.520012	0.040924	-0.110520
Zn9	Zn	1.853345	0.374257	0.222814
Zn10	Zn	1.169354	-0.441096	-0.601796
Zn11	Zn	1.502687	-0.107763	-0.268463
Zn12	Zn	1.836020	0.225570	0.064871
O13	O	1.253401	-0.362966	-0.526981
O14	O	1.586734	-0.029633	-0.193648
O15	O	1.920068	0.303701	0.139685
O16	O	1.454633	-0.304452	-0.590841
O17	O	1.787966	0.028881	-0.257508
O18	O	2.121300	0.362215	0.075825
O19	O	1.317992	-0.400346	-0.331104
O20	O	1.651325	-0.067013	0.002229
O21	O	1.984658	0.266321	0.335563
O22	O	1.212321	-0.175179	-0.458944
O23	O	1.545655	0.158155	-0.125610
O24	O	1.878988	0.491488	0.207723
O25	O	1.455328	-0.401227	-0.485353
O26	O	1.788662	-0.067894	-0.152020
O27	O	2.121995	0.265440	0.181313
O28	O	1.316379	-0.175846	-0.575816
O29	O	1.649712	0.157487	-0.242483
O30	O	1.983046	0.490820	0.090851
O31	O	1.213239	-0.302903	-0.319720
O32	O	1.546572	0.030430	0.013614
O33	O	1.879905	0.363763	0.346947
O34	O	1.058185	-0.318473	-0.457846
O35	O	1.391519	0.014861	-0.124512
O36	O	1.724852	0.348194	0.208821
O37	O	1.182794	-0.428593	-0.728135
O38	O	1.516127	-0.095260	-0.394802
O39	O	1.849460	0.238073	-0.061468
O40	O	1.045457	-0.427712	-0.573886
O41	O	1.378790	-0.094379	-0.240552
O42	O	1.712124	0.238954	0.092781
O43	O	1.299580	-0.320022	-0.728967
O44	O	1.632913	0.013312	-0.395634
O45	O	1.966246	0.346645	-0.062300
O46	O	1.301192	-0.544521	-0.484255
O47	O	1.634526	-0.211188	-0.150922
O48	O	1.967859	0.122145	0.182411
O49	O	1.183711	-0.556318	-0.588911
O50	O	1.517044	-0.222985	-0.255578
O51	O	1.850378	0.110349	0.077756
C52	C	1.019100	-0.374737	-0.514062
C53	C	1.352433	-0.041404	-0.180729
C54	C	1.685767	0.291930	0.152605
C55	C	0.918863	-0.379794	-0.508557
C56	C	1.252196	-0.046461	-0.175224
C57	C	1.585529	0.286873	0.158109
C58	C	0.777957	-0.437213	-0.445784
C59	C	1.111290	-0.103879	-0.112450
C60	C	1.444624	0.229454	0.220883
C61	C	0.872139	-0.432464	-0.450955
C62	C	1.205472	-0.099131	-0.117622
C63	C	1.538805	0.234202	0.215711
C64	C	0.871399	-0.331866	-0.560989
C65	C	1.204732	0.001467	-0.227656
C66	C	1.538065	0.334801	0.105677
C67	C	0.777217	-0.336614	-0.555818
C68	C	1.110550	-0.003281	-0.222484
C69	C	1.443884	0.330052	0.110849
C70	C	0.730499	-0.389290	-0.498214
C71	C	1.063833	-0.055957	-0.164880
C72	C	1.397166	0.277376	0.168453
C73	C	0.636315	-0.394042	-0.493047
C74	C	0.969649	-0.060709	-0.159714
C75	C	1.302982	0.272624	0.173619
C76	C	0.635578	-0.293440	-0.603076
C77	C	0.968911	0.039893	-0.269743
C78	C	1.302244	0.373227	0.063591
C79	C	0.729760	-0.288692	-0.608248
C80	C	1.063093	0.044641	-0.274914
C81	C	1.396426	0.377975	0.058419
C82	C	1.240698	-0.580847	-0.538163
C83	C	1.574031	-0.247514	-0.204829
C84	C	1.907364	0.085819	0.128504
C85	C	1.235344	-0.674056	-0.542981
C86	C	1.568677	-0.340722	-0.209647
C87	C	1.902011	-0.007389	0.123686
C88	C	1.281383	-0.880371	-0.502194
C89	C	1.614716	-0.547038	-0.168860
C90	C	1.948050	-0.213705	0.164473
C91	C	1.225585	-0.844702	-0.551788
C92	C	1.558919	-0.511368	-0.218454
C93	C	1.892252	-0.178035	0.114879
C94	C	1.231017	-0.749745	-0.546886
C95	C	1.564350	-0.416412	-0.213553
C96	C	1.897683	-0.083079	0.119781
C97	C	1.275953	-0.975336	-0.507094
C98	C	1.609286	-0.642003	-0.173761
C99	C	1.942620	-0.308669	0.159572
C100	C	1.488616	-0.351150	-0.539952
C101	C	1.821950	-0.017817	-0.206619
C102	C	2.155283	0.315517	0.126715
C103	C	1.588851	-0.346114	-0.545479
C104	C	1.922185	-0.012781	-0.212146
C105	C	2.255518	0.320552	0.121187
C106	C	1.239149	-0.376200	-0.762185
C107	C	1.572482	-0.042867	-0.428852
C108	C	1.905815	0.290467	-0.095518
C109	C	1.233075	-0.381839	-0.862415
C110	C	1.566408	-0.048506	-0.529082
C111	C	1.899742	0.284827	-0.195748
C112	C	1.266177	-0.144234	-0.515778
C113	C	1.599510	0.189100	-0.182444
C114	C	1.932844	0.522433	0.150889
C115	C	1.271622	-0.051023	-0.511003
C116	C	1.604955	0.282310	-0.177670
C117	C	1.938288	0.615644	0.155663
C118	C	1.343270	-0.279361	-1.051624
C119	C	1.676604	0.053972	-0.718291
C120	C	2.009937	0.387305	-0.384958
C121	C	1.337567	-0.284657	-1.145799
C122	C	1.670900	0.048676	-0.812466
C123	C	2.004234	0.382010	-0.479133
C124	C	1.215961	-0.397722	-1.144941
C125	C	1.549294	-0.064389	-0.811607
C126	C	1.882627	0.268945	-0.478274
C127	C	1.221664	-0.392426	-1.050766
C128	C	1.554998	-0.059093	-0.717433
C129	C	1.888331	0.274240	-0.384099
C130	C	1.285322	-0.333245	-1.004111
C131	C	1.618656	0.000089	-0.670778
C132	C	1.951989	0.333422	-0.337444
C133	C	1.291029	-0.327954	-0.909935
C134	C	1.624363	0.005380	-0.576602
C135	C	1.957696	0.338713	-0.243268
C136	C	1.169420	-0.441014	-0.909078
C137	C	1.502753	-0.107681	-0.575744
C138	C	1.836086	0.225653	-0.242411
C139	C	1.163716	-0.446310	-1.003253
C140	C	1.497049	-0.112976	-0.669919
C141	C	1.830383	0.220357	-0.336586
C142	C	1.267653	-0.349721	-0.292693
C143	C	1.600987	-0.016387	0.040641
C144	C	1.934320	0.316946	0.373974
C145	C	1.273915	-0.343836	-0.192461
C146	C	1.607248	-0.010503	0.140873
C147	C	1.940582	0.322831	0.474206
H148	H	0.909453	-0.288975	-0.607882
H149	H	1.242787	0.044358	-0.274549
H150	H	1.576120	0.377692	0.058784
H151	H	1.173736	-0.885478	-0.597928
H152	H	1.507069	-0.552145	-0.264594
H153	H	1.840403	-0.218812	0.068739
O154	O	1.147291	-0.461537	-1.195265
O155	O	1.480624	-0.128203	-0.861932
O156	O	1.813958	0.205130	-0.528599
H157	H	1.153061	-0.456161	-1.268732
H158	H	1.486395	-0.122827	-0.935399
H159	H	1.819728	0.210506	-0.602066
O160	O	0.727565	-0.494023	-0.383655
O161	O	1.060899	-0.160690	-0.050321
O162	O	1.394232	0.172644	0.283012
H163	H	0.679740	-0.541178	-0.423778
H164	H	1.013073	-0.207845	-0.090445
H165	H	1.346406	0.125488	0.242889
O166	O	1.350072	-0.826369	-0.441089
O167	O	1.683406	-0.493036	-0.107755
O168	O	2.016739	-0.159702	0.225578
H169	H	1.343610	-0.759182	-0.446785
H170	H	1.676943	-0.425849	-0.113452
H171	H	2.010276	-0.092516	0.219882
H172	H	1.342864	-0.279766	-0.871950
H173	H	1.676198	0.053567	-0.538617
H174	H	2.009531	0.386901	-0.205284
H175	H	0.767810	-0.245803	-0.655145
H176	H	1.101144	0.087531	-0.321811
H177	H	1.434477	0.420864	0.011522
O178	O	0.923330	-0.484151	-0.394407
O179	O	1.256663	-0.150818	-0.061074
O180	O	1.589996	0.182515	0.272259
H181	H	0.875017	-0.521579	-0.353489
H182	H	1.208350	-0.188245	-0.020156
H183	H	1.541684	0.145088	0.313178
O184	O	0.584395	-0.241743	-0.659628
O185	O	0.917728	0.091591	-0.326295
O186	O	1.251061	0.424924	0.007038
H187	H	0.511055	-0.253888	-0.646353
H188	H	0.844388	0.079445	-0.313020
H189	H	1.177722	0.412778	0.020314
O190	O	1.411927	-0.215537	-1.001294
O191	O	1.745261	0.117796	-0.667961
O192	O	2.078594	0.451129	-0.334628
H193	H	1.451264	-0.178956	-1.050156
H194	H	1.784598	0.154377	-0.716822
H195	H	2.117931	0.487711	-0.383489
O196	O	1.400072	-0.226546	-1.197051
O197	O	1.733405	0.106788	-0.863717
O198	O	2.066739	0.440121	-0.530384
H199	H	1.445297	-0.184511	-1.148784
H200	H	1.778631	0.148823	-0.815451
H201	H	2.111964	0.482156	-0.482118
H202	H	1.111886	-0.494492	-1.041252
H203	H	1.445219	-0.161158	-0.707918
H204	H	1.778553	0.172175	-0.374585
O205	O	1.106908	-0.499135	-0.857834
O206	O	1.440241	-0.165802	-0.524500
O207	O	1.773575	0.167532	-0.191167
H208	H	1.121563	-0.485509	-0.784509
H209	H	1.454896	-0.152176	-0.451176
H210	H	1.788229	0.181157	-0.117842
H211	H	0.598279	-0.436937	-0.446146
H212	H	0.931612	-0.103603	-0.112813
H213	H	1.264945	0.229730	0.220520
