data_functionalizedCrystal
_audit_creation_method	'MofGen! by Chris Wilmer'
_symmetry_space_group_name_H-M	'P1'
_symmetry_Int_Tables_number	1
_symmetry_cell_setting	triclinic
loop_
_symmetry_equiv_pos_as_xyz
  x,y,z
_cell_length_a	8.597187
_cell_length_b	8.559649
_cell_length_c	14.586319
_cell_angle_alpha	89.997976
_cell_angle_beta	82.294700
_cell_angle_gamma	77.625088
loop_
_atom_site_label
_atom_site_type_symbol
_atom_site_fract_x
_atom_site_fract_y
_atom_site_fract_z
O1	O	2.053778	0.238053	-0.238464
O2	O	1.594636	0.256311	-0.202197
O3	O	1.864658	0.015213	-0.223525
O4	O	1.783756	0.479152	-0.217136
O5	O	1.864641	0.015209	-0.071043
O6	O	1.594619	0.256307	-0.049715
O7	O	2.053762	0.238050	-0.085982
Cu8	Cu	1.824189	0.247178	-0.053926
Cu9	Cu	1.824208	0.247183	-0.234253
O10	O	1.783740	0.479148	-0.064654
C11	C	1.536391	0.254348	-0.121357
C12	C	1.362868	0.248484	-0.107651
C13	C	1.870780	-0.044223	-0.147770
C14	C	1.889030	-0.221318	-0.149216
C15	C	2.112006	0.240013	-0.166825
C16	C	2.285529	0.245877	-0.180537
C17	C	1.777617	0.538584	-0.140411
C18	C	1.759367	0.715679	-0.138971
N19	N	1.824187	0.247174	0.072906
N20	N	1.824224	0.247174	-0.361086
C21	C	1.943784	0.140452	0.298466
C22	C	1.943789	0.140449	0.394447
C23	C	1.704616	0.353901	0.413348
C24	C	1.704605	0.353896	0.317369
C25	C	1.824198	0.247174	0.259930
C26	C	1.824213	0.247175	0.451890
C27	C	1.824218	0.247172	0.555956
C28	C	1.824192	0.247174	0.155857
H29	H	1.296328	0.246247	-0.034769
C30	C	2.057872	-0.331468	-0.162547
H31	H	2.136768	-0.268196	-0.168776
H32	H	2.070518	-0.397086	-0.216714
H33	H	2.070500	-0.397064	-0.110360
C34	C	1.573041	0.471252	0.476531
H35	H	1.501798	0.534787	0.439832
H36	H	1.621337	0.538575	0.510165
H37	H	1.514779	0.412771	0.518566
H38	H	1.352073	0.248133	-0.253422
C39	C	1.590534	-0.174178	-0.125639
H40	H	1.511636	-0.237448	-0.119397
H41	H	1.577904	-0.108573	-0.177816
H42	H	1.577895	-0.108572	-0.071462
C43	C	2.075317	0.023049	0.235288
H44	H	2.146528	-0.040520	0.271990
H45	H	2.133604	0.081466	0.193234
H46	H	2.026957	-0.044259	0.201676
C47	C	2.075338	0.023062	0.436833
H48	H	2.146562	-0.040486	0.388875
H49	H	2.027007	-0.044244	0.478099
H50	H	2.133628	0.081503	0.469663
C51	C	1.573058	0.471299	0.274975
H52	H	1.501848	0.534875	0.322927
H53	H	1.514771	0.412869	0.242144
H54	H	1.621410	0.538601	0.233709
