data_functionalizedCrystal
_audit_creation_method	'MofGen! by Chris Wilmer'
_symmetry_space_group_name_H-M	'P1'
_symmetry_Int_Tables_number	1
_symmetry_cell_setting	triclinic
loop_
_symmetry_equiv_pos_as_xyz
  x,y,z
_cell_length_a	16.625548
_cell_length_b	16.625546
_cell_length_c	12.759401
_cell_angle_alpha	90.015116
_cell_angle_beta	90.005350
_cell_angle_gamma	90.023536
loop_
_atom_site_label
_atom_site_type_symbol
_atom_site_fract_x
_atom_site_fract_y
_atom_site_fract_z
Zn1	Zn	1.232559	-0.321099	0.594036
Zn2	Zn	1.232498	-0.455906	0.418342
Zn3	Zn	1.097757	-0.321094	0.418366
Zn4	Zn	1.097692	-0.455896	0.593974
O5	O	1.165127	-0.388499	0.506179
O6	O	1.345384	-0.338988	0.570746
O7	O	1.214626	-0.438025	0.271324
O8	O	1.115692	-0.208262	0.441705
O9	O	1.345339	-0.438030	0.441664
O10	O	1.214730	-0.208266	0.570769
O11	O	1.115633	-0.338979	0.271342
O12	O	0.984916	-0.338969	0.441644
O13	O	1.115580	-0.438012	0.741003
O14	O	0.984868	-0.438007	0.570663
O15	O	1.214667	-0.338978	0.741049
O16	O	1.214563	-0.568737	0.441604
O17	O	1.115521	-0.568729	0.570640
C18	C	0.955636	-0.388487	0.506150
C19	C	0.866015	-0.388501	0.506162
C20	C	0.537839	-0.388507	0.506207
C21	C	0.629147	-0.388503	0.506191
C22	C	0.701924	-0.388505	0.506184
C23	C	0.793238	-0.388500	0.506170
C24	C	1.165050	-0.597989	0.506135
C25	C	1.165091	-0.687610	0.506152
C26	C	1.165232	-1.015786	0.506261
C27	C	1.165190	-0.924478	0.506234
C28	C	1.165161	-0.851701	0.506206
C29	C	1.165121	-0.760387	0.506179
C30	C	1.375435	-0.388511	0.506209
C31	C	1.465057	-0.388516	0.506222
C32	C	1.165123	-0.388495	0.780213
C33	C	1.165122	-0.388493	0.896989
C34	C	1.165225	-0.178190	0.506246
C35	C	1.165267	-0.088568	0.506275
C36	C	1.216711	-0.336936	0.951877
C37	C	1.216706	-0.336938	1.061601
C38	C	1.113520	-0.440060	1.061540
C39	C	1.113521	-0.440054	0.951818
C40	C	1.276288	-0.277402	0.951913
C41	C	1.276283	-0.277403	1.061637
C42	C	1.165121	-0.388515	1.233212
C43	C	1.165115	-0.388501	1.116435
H44	H	1.071509	-0.482033	0.907133
H45	H	1.259596	-0.214950	0.922162
F46	F	1.357896	-0.299264	1.100568
H47	H	1.335595	-0.299777	0.917879
H48	H	1.071507	-0.482038	1.106195
F49	F	1.246989	-0.199903	1.106151
