data_functionalizedCrystal
_audit_creation_method	'MofGen! by Chris Wilmer'
_symmetry_space_group_name_H-M	'P1'
_symmetry_Int_Tables_number	1
_symmetry_cell_setting	triclinic
loop_
_symmetry_equiv_pos_as_xyz
  x,y,z
_cell_length_a	23.532356
_cell_length_b	23.532407
_cell_length_c	14.472310
_cell_angle_alpha	89.989680
_cell_angle_beta	89.992966
_cell_angle_gamma	97.161748
loop_
_atom_site_label
_atom_site_type_symbol
_atom_site_fract_x
_atom_site_fract_y
_atom_site_fract_z
O1	O	-0.069133	0.755254	-0.076767
O2	O	0.430867	1.255254	0.423233
O3	O	-0.079136	0.589389	-0.076779
O4	O	0.420864	1.089389	0.423221
O5	O	0.008799	0.677338	-0.076786
O6	O	0.508799	1.177338	0.423214
O7	O	-0.157069	0.667305	-0.076760
O8	O	0.342931	1.167305	0.423240
O9	O	0.008794	0.677316	0.076896
O10	O	0.508794	1.177316	0.576896
O11	O	-0.079142	0.589366	0.076903
O12	O	0.420858	1.089366	0.576903
O13	O	-0.069138	0.755232	0.076915
O14	O	0.430862	1.255232	0.576915
Cu15	Cu	-0.074140	0.672297	0.090941
Cu16	Cu	0.425860	1.172297	0.590941
Cu17	Cu	-0.074134	0.672324	-0.090805
Cu18	Cu	0.425866	1.172324	0.409195
O19	O	-0.157074	0.667282	0.076922
O20	O	0.342926	1.167282	0.576922
C21	C	-0.078884	0.568162	0.000060
C22	C	0.421116	1.068162	0.500060
C23	C	-0.078118	0.504945	0.000054
C24	C	0.421882	1.004945	0.500054
C25	C	-0.022922	0.238788	0.000071
C26	C	0.477078	0.738788	0.500071
C27	C	-0.023633	0.298188	0.000071
C28	C	0.476367	0.798188	0.500071
O29	O	0.020154	0.334940	0.000096
O30	O	0.520154	0.834940	0.500096
N31	N	-0.075911	0.320804	0.000073
N32	N	0.424089	0.820804	0.500073
C33	C	-0.127480	0.284017	0.000084
C34	C	0.372520	0.784017	0.500084
O35	O	-0.172012	0.308709	0.000086
O36	O	0.327988	0.808709	0.500086
C37	C	-0.126768	0.224618	0.000091
C38	C	0.373232	0.724618	0.500091
C39	C	-0.074487	0.202005	0.000080
C40	C	0.425513	0.702005	0.500080
C41	C	0.029355	0.216174	0.000061
C42	C	0.529355	0.716174	0.500061
C43	C	0.030066	0.156778	0.000059
C44	C	0.530066	0.656778	0.500059
C45	C	-0.021499	0.119996	0.000068
C46	C	0.478501	0.619996	0.500068
C47	C	-0.073776	0.142609	0.000078
C48	C	0.426224	0.642609	0.500078
C49	C	-0.178337	0.187832	0.000109
C50	C	0.321663	0.687832	0.500109
C51	C	-0.177620	0.128430	0.000116
C52	C	0.322380	0.628430	0.500116
C53	C	-0.125339	0.105817	0.000105
C54	C	0.374661	0.605817	0.500105
C55	C	-0.124630	0.046431	0.000085
C56	C	0.375370	0.546431	0.500085
N57	N	-0.072353	0.023814	0.000083
N58	N	0.427647	0.523814	0.500083
C59	C	-0.020787	0.060597	0.000075
C60	C	0.479213	0.560597	0.500075
C61	C	-0.128972	0.408759	0.000071
C62	C	0.371028	0.908759	0.500071
C63	C	-0.129684	0.468157	0.000058
C64	C	0.370316	0.968157	0.500058
C65	C	-0.025837	0.482324	0.000047
C66	C	0.474163	0.982324	0.500047
C67	C	-0.025125	0.422925	0.000053
C68	C	0.474875	0.922925	0.500053
C69	C	-0.076694	0.386143	0.000070
C70	C	0.423306	0.886143	0.500070
C71	C	-0.019297	-0.064140	0.000070
C72	C	0.480703	0.435860	0.500070
C73	C	-0.018591	-0.123542	0.000065
C74	C	0.481409	0.376458	0.500065
C75	C	-0.122438	-0.137703	0.000081
C76	C	0.377562	0.362297	0.500081
C77	C	-0.123145	-0.078306	0.000082
C78	C	0.376855	0.421694	0.500082
C79	C	-0.071570	-0.041526	0.000080
C80	C	0.428430	0.458474	0.500080
O81	O	-0.168394	0.009644	0.000063
O82	O	0.331606	0.509644	0.500063
O83	O	0.023737	0.035897	0.000084
O84	O	0.523737	0.535897	0.500084
C85	C	-0.178288	0.667544	0.000084
C86	C	0.321712	1.167544	0.500084
C87	C	-0.241506	0.668299	0.000094
C88	C	0.258494	1.168299	0.500094
C89	C	-0.633517	0.673049	-0.083723
C90	C	-0.133517	1.173049	0.416277
C91	C	-0.692917	0.673766	-0.083727
C92	C	-0.192917	1.173766	0.416273
O93	O	-0.723633	0.674167	-0.154971
O94	O	-0.223633	1.174167	0.345029
N95	N	-0.722628	0.674109	0.000044
N96	N	-0.222628	1.174109	0.500044
C97	C	-0.692936	0.673741	0.083826
C98	C	-0.192936	1.173741	0.583826
O99	O	-0.723662	0.674100	0.155079
O100	O	-0.223662	1.174100	0.655079
C101	C	-0.633537	0.673028	0.083829
C102	C	-0.133537	1.173028	0.583829
C103	C	-0.603830	0.672679	0.000052
C104	C	-0.103830	1.172679	0.500052
C105	C	-0.603810	0.672700	-0.167493
C106	C	-0.103810	1.172700	0.332507
C107	C	-0.544414	0.671982	-0.167488
C108	C	-0.044414	1.171982	0.332512
C109	C	-0.514727	0.671612	-0.083713
C110	C	-0.014727	1.171612	0.416287
C111	C	-0.544435	0.671960	0.000057
C112	C	-0.044435	1.171960	0.500057
C113	C	-0.603846	0.672664	0.167609
C114	C	-0.103846	1.172664	0.667609
C115	C	-0.544443	0.671951	0.167606
C116	C	-0.044443	1.171951	0.667606
C117	C	-0.514735	0.671602	0.083829
C118	C	-0.014735	1.171602	0.583829
C119	C	-0.455352	0.670872	0.083837
C120	C	0.044648	1.170872	0.583837
N121	N	-0.425640	0.670529	0.000065
N122	N	0.074360	1.170529	0.500065
C123	C	-0.455328	0.670898	-0.083709
C124	C	0.044672	1.170898	0.416291
C125	C	-0.817678	0.675240	0.083812
C126	C	-0.317678	1.175240	0.583812
C127	C	-0.877076	0.675949	0.083809
C128	C	-0.377076	1.175949	0.583809
C129	C	-0.877052	0.675975	-0.083744
C130	C	-0.377052	1.175975	0.416256
C131	C	-0.817653	0.675262	-0.083740
C132	C	-0.317653	1.175262	0.416260
C133	C	-0.787966	0.674897	0.000041
C134	C	-0.287966	1.174897	0.500041
C135	C	-0.330594	0.669389	-0.083693
C136	C	0.169406	1.169389	0.416307
C137	C	-0.271194	0.668668	-0.083681
C138	C	0.228806	1.168668	0.416319
C139	C	-0.271222	0.668646	0.083871
C140	C	0.228778	1.168646	0.583871
C141	C	-0.330618	0.669363	0.083860
C142	C	0.169382	1.169363	0.583860
C143	C	-0.360302	0.669737	0.000070
C144	C	0.139698	1.169737	0.500070
O145	O	-0.424598	0.670473	0.155045
O146	O	0.075402	1.170473	0.655045
O147	O	-0.424594	0.670547	-0.154951
O148	O	0.075406	1.170547	0.345049
C149	C	0.030013	0.677076	0.000050
C150	C	0.530013	1.177076	0.500050
C151	C	0.093232	0.676322	0.000034
C152	C	0.593232	1.176322	0.500034
C153	C	-0.069390	0.776459	0.000074
C154	C	0.430610	1.276459	0.500074
C155	C	-0.070156	0.839676	0.000074
C156	C	0.429844	1.339676	0.500074
N157	N	-0.074144	0.672282	0.218772
N158	N	0.425856	1.172282	0.718772
N159	N	-0.074126	0.672343	-0.218636
N160	N	0.425874	1.172343	0.281364
C161	C	-0.074132	0.672323	0.592864
C162	C	0.425868	1.172323	1.092864
C163	C	-0.121028	0.625107	0.553701
C164	C	0.378972	1.125107	1.053701
C165	C	-0.121198	0.625214	0.446613
C166	C	0.378802	1.125214	0.946613
C167	C	-0.074138	0.672302	0.407273
C168	C	0.425862	1.172302	0.907273
C169	C	-0.086781	0.731651	0.446117
C170	C	0.413219	1.231651	0.946117
C171	C	-0.087114	0.731385	0.553238
C172	C	0.412886	1.231385	1.053238
C173	C	-0.014451	0.660722	0.553382
C174	C	0.485549	1.160722	1.053382
C175	C	-0.014857	0.659356	0.446255
C176	C	0.485143	1.159356	0.946255
C177	C	-0.074140	0.672294	0.302384
C178	C	0.425860	1.172294	0.802384
C179	C	-0.074131	0.672335	0.697752
C180	C	0.425869	1.172335	1.197752
H181	H	0.071349	0.246117	0.000057
H182	H	0.571349	0.746117	0.500057
H183	H	0.020444	0.695158	0.578706
H184	H	0.520444	1.195158	1.078706
C185	C	-0.784979	0.674891	-0.175900
C186	C	-0.284979	1.174891	0.324100
N187	N	-0.760371	0.674616	-0.245319
N188	N	-0.260371	1.174616	0.254681
C189	C	0.002074	0.603538	0.589908
C190	C	0.502074	1.103538	1.089908
N191	N	0.014514	0.560465	0.617419
N192	N	0.514514	1.060465	1.117419
H193	H	-0.247040	0.668342	0.152079
H194	H	0.252960	1.168342	0.652079
C195	C	-0.001885	0.600378	0.411964
C196	C	0.498115	1.100378	0.911964
N197	N	0.007884	0.555954	0.386132
N198	N	0.507884	1.055954	0.886132
H199	H	-0.901235	0.676274	-0.151958
H200	H	-0.401235	1.176274	0.348042
C201	C	-0.235851	0.212693	0.000136
C202	C	0.264149	0.712693	0.500136
N203	N	-0.279174	0.231416	0.000163
N204	N	0.220826	0.731416	0.500163
C205	C	-0.909749	0.676326	0.175970
C206	C	-0.409749	1.176326	0.675970
N207	N	-0.934355	0.676612	0.245390
N208	N	-0.434355	1.176612	0.745390
H209	H	-0.165075	0.632375	0.580618
H210	H	0.334925	1.132375	1.080618
H211	H	-0.520275	0.671654	0.235832
H212	H	-0.020275	1.171654	0.735832
H213	H	0.021650	0.691539	0.419478
H214	H	0.521650	1.191539	0.919478
H215	H	-0.520231	0.671701	-0.235708
H216	H	-0.020231	1.171701	0.264292
H217	H	-0.219615	0.098484	0.000133
H218	H	0.280385	0.598484	0.500133
H219	H	-0.793511	0.674938	0.152040
H220	H	-0.293511	1.174938	0.652040
H221	H	-0.054286	0.767599	0.579142
H222	H	0.445714	1.267599	1.079142
C223	C	0.087580	0.131912	0.000070
C224	C	0.587580	0.631912	0.500070
N225	N	0.130902	0.113187	0.000086
N226	N	0.630902	0.613187	0.500086
H227	H	-0.113673	0.580837	0.579484
H228	H	0.386327	1.080837	1.079484
C229	C	-0.041847	0.780233	0.411686
C230	C	0.458153	1.280233	0.911686
N231	N	-0.008002	0.816825	0.385750
N232	N	0.491998	1.316825	0.885750
C233	C	-0.181038	0.635177	0.411989
C234	C	0.318962	1.135177	0.911989
N235	N	-0.226112	0.642685	0.385911
N236	N	0.273888	1.142685	0.885911
H237	H	0.017447	0.404518	0.000045
H238	H	0.517447	0.904518	0.500045
C239	C	0.030887	0.522796	0.000046
C240	C	0.530887	1.022796	0.500046
N241	N	0.073608	0.553281	0.000047
N242	N	0.573608	1.053281	0.500047
H243	H	-0.354810	0.669625	0.152078
H244	H	0.145190	1.169625	0.652078
C245	C	-0.145905	0.745256	0.586992
C246	C	0.354095	1.245256	1.086992
N247	N	-0.190189	0.755700	0.612410
N248	N	0.309811	1.255700	1.112410
H249	H	-0.628023	0.672954	0.235830
H250	H	-0.128023	1.172954	0.735830
C251	C	-0.180656	-0.053431	0.000084
C252	C	0.319344	0.446569	0.500084
N253	N	-0.223975	-0.034700	0.000093
N254	N	0.276025	0.465300	0.500093
C255	C	-0.238517	0.668303	-0.175846
C256	C	0.261483	1.168303	0.324154
N257	N	-0.213905	0.668037	-0.245263
N258	N	0.286095	1.168037	0.254737
H259	H	-0.172257	0.486563	0.000054
H260	H	0.327743	0.986563	0.500054
H261	H	-0.113715	0.581088	0.420352
H262	H	0.386285	1.081088	0.920352
H263	H	-0.354756	0.669694	-0.151923
H264	H	0.145244	1.169694	0.348077
C265	C	-0.636457	0.673104	-0.259660
C266	C	-0.136457	1.173104	0.240340
N267	N	-0.661044	0.673404	-0.329086
N268	N	-0.161044	1.173404	0.170914
C269	C	0.038925	-0.148412	0.000061
C270	C	0.538925	0.351588	0.500061
N271	N	0.082244	-0.167142	0.000063
N272	N	0.582244	0.332858	0.500063
C273	C	0.037438	-0.023689	0.000061
C274	C	0.537438	0.476311	0.500061
N275	N	0.080171	0.006778	0.000047
N276	N	0.580171	0.506778	0.500047
H277	H	-0.129798	0.742181	0.419287
H278	H	0.370202	1.242181	0.919287
H279	H	-0.164421	-0.167662	0.000084
H280	H	0.335579	0.332338	0.500084
C281	C	-0.185706	0.368304	0.000079
C282	C	0.314294	0.868304	0.500079
N283	N	-0.228438	0.337835	0.000086
N284	N	0.271562	0.837835	0.500086
