data_functionalizedCrystal
_audit_creation_method	'MofGen! by Chris Wilmer'
_symmetry_space_group_name_H-M	'P1'
_symmetry_Int_Tables_number	1
_symmetry_cell_setting	triclinic
loop_
_symmetry_equiv_pos_as_xyz
  x,y,z
_cell_length_a	14.908571
_cell_length_b	18.101397
_cell_length_c	14.908308
_cell_angle_alpha	93.262730
_cell_angle_beta	90.175053
_cell_angle_gamma	86.716412
loop_
_atom_site_label
_atom_site_type_symbol
_atom_site_fract_x
_atom_site_fract_y
_atom_site_fract_z
Zn1	Zn	1.345297	-0.386471	-0.587546
Zn2	Zn	1.678631	-0.053138	-0.254212
Zn3	Zn	2.011964	0.280196	0.079121
Zn4	Zn	1.353878	-0.503607	-0.437175
Zn5	Zn	1.687211	-0.170274	-0.103842
Zn6	Zn	2.020545	0.163059	0.229492
Zn7	Zn	1.203612	-0.372247	-0.428545
Zn8	Zn	1.536946	-0.038913	-0.095211
Zn9	Zn	1.870279	0.294420	0.238122
Zn10	Zn	1.194906	-0.502728	-0.578827
Zn11	Zn	1.528239	-0.169394	-0.245493
Zn12	Zn	1.861573	0.163939	0.087840
O13	O	1.274423	-0.441263	-0.508023
O14	O	1.607757	-0.107930	-0.174690
O15	O	1.941090	0.225404	0.158644
O16	O	1.472262	-0.408331	-0.574859
O17	O	1.805595	-0.074997	-0.241526
O18	O	2.138928	0.258336	0.091807
O19	O	1.341180	-0.480597	-0.310206
O20	O	1.674513	-0.147264	0.023127
O21	O	2.007847	0.186069	0.356461
O22	O	1.222460	-0.270505	-0.449674
O23	O	1.555793	0.062828	-0.116340
O24	O	1.889127	0.396162	0.216993
O25	O	1.478566	-0.494390	-0.464383
O26	O	1.811899	-0.161057	-0.131049
O27	O	2.145233	0.172277	0.202284
O28	O	1.326555	-0.280955	-0.566491
O29	O	1.659888	0.052378	-0.233158
O30	O	1.993222	0.385711	0.100176
O31	O	1.230780	-0.384087	-0.303865
O32	O	1.564114	-0.050754	0.029468
O33	O	1.897447	0.282579	0.362801
O34	O	1.076631	-0.383234	-0.441219
O35	O	1.409965	-0.049901	-0.107886
O36	O	1.743298	0.283433	0.225447
O37	O	1.207621	-0.492891	-0.705807
O38	O	1.540954	-0.159557	-0.372474
O39	O	1.874287	0.173776	-0.039141
O40	O	1.070235	-0.479098	-0.551631
O41	O	1.403568	-0.145765	-0.218297
O42	O	1.736901	0.187569	0.115036
O43	O	1.318113	-0.407477	-0.712213
O44	O	1.651446	-0.074144	-0.378880
O45	O	1.984779	0.259189	-0.045547
O46	O	1.332737	-0.607119	-0.455928
O47	O	1.666071	-0.273786	-0.122595
O48	O	1.999404	0.059547	0.210738
O49	O	1.215941	-0.606473	-0.559999
O50	O	1.549275	-0.273140	-0.226666
O51	O	1.882608	0.060194	0.106668
C52	C	1.040808	-0.429528	-0.494543
C53	C	1.374141	-0.096194	-0.161210
C54	C	1.707474	0.237139	0.172124
C55	C	0.940865	-0.424526	-0.488797
C56	C	1.274198	-0.091192	-0.155464
C57	C	1.607531	0.242141	0.177869
C58	C	1.274349	-0.633668	-0.507975
C59	C	1.607682	-0.300335	-0.174642
C60	C	1.941016	0.032999	0.158692
C61	C	1.274398	-0.715985	-0.507989
C62	C	1.607731	-0.382652	-0.174656
C63	C	1.941064	-0.049318	0.158677
C64	C	0.746458	-0.515090	-0.592818
C65	C	1.079791	-0.181757	-0.259485
C66	C	1.413124	0.151577	0.073849
C67	C	0.652552	-0.510393	-0.587423
C68	C	0.985885	-0.177059	-0.254089
C69	C	1.319219	0.156274	0.079244
C70	C	0.659146	-0.410431	-0.472617
C71	C	0.992479	-0.077098	-0.139284
C72	C	1.325813	0.256235	0.194050
C73	C	0.753052	-0.415128	-0.478012
C74	C	1.086385	-0.081795	-0.144679
C75	C	1.419718	0.251538	0.188655
C76	C	0.796704	-0.467460	-0.538114
C77	C	1.130037	-0.134127	-0.204780
C78	C	1.463371	0.199206	0.128553
C79	C	0.890612	-0.472160	-0.543504
C80	C	1.223945	-0.138827	-0.210171
C81	C	1.557278	0.194506	0.123163
C82	C	0.897204	-0.372196	-0.428703
C83	C	1.230537	-0.038863	-0.095370
C84	C	1.563870	0.294471	0.237964
C85	C	0.803298	-0.367499	-0.423308
C86	C	1.136631	-0.034165	-0.089975
C87	C	1.469965	0.299168	0.243359
C88	C	1.274508	-1.015085	-0.508078
C89	C	1.607841	-0.681752	-0.174745
C90	C	1.941174	-0.348419	0.158589
C91	C	1.347810	-0.984118	-0.442402
C92	C	1.681143	-0.650785	-0.109069
C93	C	2.014476	-0.317451	0.224265
C94	C	1.348039	-0.898520	-0.442596
C95	C	1.681373	-0.565186	-0.109263
C96	C	2.014706	-0.231853	0.224070
C97	C	1.274453	-0.866698	-0.508033
C98	C	1.607787	-0.533365	-0.174700
C99	C	1.941120	-0.200031	0.158634
C100	C	1.294669	-0.903220	-0.604287
C101	C	1.628003	-0.569887	-0.270954
C102	C	1.961336	-0.236554	0.062379
C103	C	1.295227	-0.988875	-0.603939
C104	C	1.628561	-0.655542	-0.270605
C105	C	1.961894	-0.322208	0.062728
C106	C	1.180758	-0.977738	-0.478309
C107	C	1.514091	-0.644404	-0.144976
C108	C	1.847424	-0.311071	0.188357
C109	C	1.181350	-0.892017	-0.476221
C110	C	1.514683	-0.558684	-0.142887
C111	C	1.848016	-0.225351	0.190446
C112	C	1.274421	-0.782836	-0.508014
C113	C	1.607754	-0.449503	-0.174680
C114	C	1.941087	-0.116169	0.158653
C115	C	1.274542	-1.098948	-0.508104
C116	C	1.607876	-0.765614	-0.174771
C117	C	1.941209	-0.432281	0.158563
C118	C	1.508951	-0.453045	-0.521556
C119	C	1.842285	-0.119712	-0.188223
C120	C	2.175618	0.213622	0.145110
C121	C	1.608893	-0.458066	-0.527323
C122	C	1.942226	-0.124733	-0.193990
C123	C	2.275560	0.208601	0.139343
C124	C	1.260938	-0.451673	-0.742547
C125	C	1.594272	-0.118339	-0.409214
C126	C	1.927605	0.214994	-0.075881
C127	C	1.255192	-0.456108	-0.842488
C128	C	1.588525	-0.122775	-0.509154
C129	C	1.921858	0.210558	-0.175821
C130	C	1.274521	-0.248109	-0.508092
C131	C	1.607855	0.085224	-0.174759
C132	C	1.941188	0.418557	0.158574
C133	C	1.274563	-0.165798	-0.508122
C134	C	1.607897	0.167535	-0.174789
C135	C	1.941230	0.500868	0.158545
C136	C	1.359446	-0.375486	-1.036958
C137	C	1.692779	-0.042152	-0.703625
C138	C	2.026113	0.291181	-0.370291
C139	C	1.354049	-0.379651	-1.130861
C140	C	1.687383	-0.046318	-0.797528
C141	C	2.020716	0.287015	-0.464194
C142	C	1.238998	-0.468600	-1.124198
C143	C	1.572331	-0.135267	-0.790865
C144	C	1.905665	0.198066	-0.457531
C145	C	1.244395	-0.464435	-1.030295
C146	C	1.577728	-0.131102	-0.696962
C147	C	1.911061	0.202232	-0.363628
C148	C	1.304622	-0.417877	-0.986678
C149	C	1.637955	-0.084544	-0.653345
C150	C	1.971288	0.248790	-0.320012
C151	C	1.310022	-0.413716	-0.892774
C152	C	1.643355	-0.080382	-0.559441
C153	C	1.976689	0.252951	-0.226107
C154	C	1.194967	-0.502661	-0.886113
C155	C	1.528300	-0.169327	-0.552779
C156	C	1.861634	0.164006	-0.219446
C157	C	1.189570	-0.506826	-0.980016
C158	C	1.522904	-0.173493	-0.646682
C159	C	1.856237	0.159841	-0.313349
C160	C	1.287908	-0.430843	-0.274414
C161	C	1.621241	-0.097510	0.058919
C162	C	1.954574	0.235823	0.392253
C163	C	1.293829	-0.426208	-0.174484
C164	C	1.627162	-0.092874	0.158849
C165	C	1.960495	0.240459	0.492182
H166	H	0.926152	-0.514773	-0.592440
H167	H	1.259485	-0.181439	-0.259107
H168	H	1.592819	0.151894	0.074226
H169	H	1.336026	-0.873618	-0.371397
H170	H	1.669359	-0.540285	-0.038063
H171	H	2.002692	-0.206951	0.295270
H172	H	1.189964	-0.506505	-1.159727
H173	H	1.523297	-0.173172	-0.826394
H174	H	1.856631	0.160161	-0.493060
C175	C	1.123330	-0.558038	-1.027999
C176	C	1.456663	-0.224705	-0.694666
C177	C	1.789996	0.108629	-0.361332
H178	H	1.127971	-0.554452	-1.091126
H179	H	1.461304	-0.221119	-0.757793
H180	H	1.794637	0.112215	-0.424459
H181	H	1.063804	-0.543491	-1.009128
H182	H	1.397137	-0.210158	-0.675795
H183	H	1.730470	0.123176	-0.342461
H184	H	1.137363	-0.607775	-1.013354
H185	H	1.470697	-0.274441	-0.680021
H186	H	1.804030	0.058892	-0.346687
C187	C	1.441271	-1.018816	-0.469318
C188	C	1.774604	-0.685483	-0.135985
C189	C	2.107937	-0.352149	0.197349
H190	H	1.435813	-1.052091	-0.520408
H191	H	1.769147	-0.718758	-0.187075
H192	H	2.102480	-0.385424	0.146259
H193	H	1.466262	-1.044975	-0.420845
H194	H	1.799596	-0.711642	-0.087511
H195	H	2.132929	-0.378309	0.245822
H196	H	1.479392	-0.980783	-0.483326
H197	H	1.812725	-0.647449	-0.149993
H198	H	2.146059	-0.314116	0.183341
H199	H	1.417595	-0.882229	-0.462726
H200	H	1.750928	-0.548895	-0.129393
H201	H	2.084262	-0.215562	0.203941
C202	C	1.376261	-0.362499	-0.844796
C203	C	1.709595	-0.029166	-0.511463
C204	C	2.042928	0.304167	-0.178129
H205	H	1.408131	-0.337843	-0.888193
H206	H	1.741465	-0.004510	-0.554860
H207	H	2.074798	0.328824	-0.221526
H208	H	1.417536	-0.391162	-0.810412
H209	H	1.750869	-0.057829	-0.477079
H210	H	2.084202	0.275505	-0.143746
H211	H	1.343973	-0.326881	-0.806194
H212	H	1.677307	0.006453	-0.472861
H213	H	2.010640	0.339786	-0.139528
C214	C	1.225847	-1.016843	-0.672705
C215	C	1.559180	-0.683509	-0.339371
C216	C	1.892514	-0.350176	-0.006038
H217	H	1.197451	-0.975854	-0.700734
H218	H	1.530784	-0.642521	-0.367401
H219	H	1.864117	-0.309187	-0.034068
H220	H	1.181976	-1.042557	-0.642880
H221	H	1.515309	-0.709224	-0.309547
H222	H	1.848643	-0.375891	0.023787
H223	H	1.255326	-1.049361	-0.716940
H224	H	1.588659	-0.716028	-0.383607
H225	H	1.921993	-0.382695	-0.050274
C226	C	1.387583	-1.021741	-0.637132
C227	C	1.720916	-0.688407	-0.303798
C228	C	2.054249	-0.355074	0.029535
H229	H	1.424409	-0.982721	-0.650697
H230	H	1.757742	-0.649388	-0.317364
H231	H	2.091076	-0.316055	0.015969
H232	H	1.379967	-1.053062	-0.689592
H233	H	1.713300	-0.719729	-0.356259
H234	H	2.046634	-0.386396	-0.022925
H235	H	1.415359	-1.049703	-0.591568
H236	H	1.748692	-0.716370	-0.258235
H237	H	2.082026	-0.383037	0.075098
C238	C	1.224419	-0.875637	-0.672490
C239	C	1.557752	-0.542304	-0.339157
C240	C	1.891085	-0.208970	-0.005823
H241	H	1.237905	-0.898420	-0.730227
H242	H	1.571238	-0.565087	-0.396894
H243	H	1.904572	-0.231754	-0.063560
H244	H	1.225630	-0.823368	-0.674798
H245	H	1.558963	-0.490034	-0.341464
H246	H	1.892297	-0.156701	-0.008131
H247	H	1.166371	-0.888126	-0.654524
H248	H	1.499704	-0.554793	-0.321191
H249	H	1.833037	-0.221459	0.012143
H250	H	1.161309	-0.995197	-0.409052
H251	H	1.494643	-0.661864	-0.075719
H252	H	1.827976	-0.328531	0.257615
H253	H	1.408490	-0.337580	-1.001445
H254	H	1.741823	-0.004247	-0.668112
H255	H	2.075156	0.329086	-0.334778
H256	H	1.398691	-0.345130	-1.171795
H257	H	1.732024	-0.011797	-0.838462
H258	H	2.065358	0.321537	-0.505128
H259	H	0.938125	-0.333414	-0.384157
H260	H	1.271458	-0.000080	-0.050823
H261	H	1.604791	0.333253	0.282510
H262	H	1.336002	-1.000822	-0.371003
H263	H	1.669336	-0.667488	-0.037670
H264	H	2.002669	-0.334155	0.295664
C265	C	1.134657	-0.549292	-0.830803
C266	C	1.467990	-0.215959	-0.497470
C267	C	1.801323	0.117375	-0.164137
H268	H	1.146491	-0.540142	-0.768631
H269	H	1.479825	-0.206809	-0.435297
H270	H	1.813158	0.126525	-0.101964
H271	H	1.146908	-0.600391	-0.846939
H272	H	1.480242	-0.267057	-0.513606
H273	H	1.813575	0.066276	-0.180272
H274	H	1.073359	-0.536099	-0.842709
H275	H	1.406692	-0.202766	-0.509376
H276	H	1.740026	0.130567	-0.176043
H277	H	1.362235	-0.886096	-0.629170
H278	H	1.695568	-0.552763	-0.295837
H279	H	2.028901	-0.219429	0.037496
C280	C	1.160600	-0.859120	-0.380505
C281	C	1.493933	-0.525786	-0.047172
C282	C	1.827266	-0.192453	0.286161
H283	H	1.104195	-0.874633	-0.361642
H284	H	1.437528	-0.541300	-0.028308
H285	H	1.770862	-0.207967	0.305025
H286	H	1.158571	-0.806558	-0.380187
H287	H	1.491905	-0.473225	-0.046854
H288	H	1.825238	-0.139891	0.286480
H289	H	1.206228	-0.875878	-0.340634
H290	H	1.539561	-0.542545	-0.007300
H291	H	1.872894	-0.209212	0.326033
C292	C	0.794478	-0.572653	-0.658922
C293	C	1.127812	-0.239319	-0.325588
C294	C	1.461145	0.094014	0.007745
H295	H	0.751103	-0.600346	-0.690732
H296	H	1.084436	-0.267013	-0.357398
H297	H	1.417770	0.066321	-0.024065
H298	H	0.833079	-0.605176	-0.626559
H299	H	1.166412	-0.271843	-0.293226
H300	H	1.499745	0.061490	0.040107
H301	H	0.828868	-0.547943	-0.700270
H302	H	1.162202	-0.214610	-0.366937
H303	H	1.495535	0.118723	-0.033604
H304	H	1.124239	-0.870000	-0.520113
H305	H	1.457573	-0.536667	-0.186780
H306	H	1.790906	-0.203333	0.146553
H307	H	0.623588	-0.367821	-0.423691
H308	H	0.956921	-0.034488	-0.090358
H309	H	1.290254	0.298846	0.242976
H310	H	0.611645	-0.549176	-0.631970
H311	H	0.944978	-0.215843	-0.298637
H312	H	1.278311	0.117490	0.034696
C313	C	0.755276	-0.309943	-0.357197
C314	C	1.088609	0.023391	-0.023864
C315	C	1.421942	0.356724	0.309470
H316	H	0.692153	-0.313970	-0.361813
H317	H	1.025486	0.019364	-0.028480
H318	H	1.358819	0.352697	0.304854
H319	H	0.769917	-0.261558	-0.371339
H320	H	1.103251	0.071775	-0.038005
H321	H	1.436584	0.405108	0.295328
H322	H	0.774124	-0.318804	-0.297642
H323	H	1.107457	0.014529	0.035691
H324	H	1.440790	0.347862	0.369024
H325	H	1.126209	-0.997676	-0.526077
H326	H	1.459543	-0.664343	-0.192744
H327	H	1.792876	-0.331010	0.140590
