data_functionalizedCrystal
_audit_creation_method	'MofGen! by Chris Wilmer'
_symmetry_space_group_name_H-M	'P1'
_symmetry_Int_Tables_number	1
_symmetry_cell_setting	triclinic
loop_
_symmetry_equiv_pos_as_xyz
  x,y,z
_cell_length_a	13.897449
_cell_length_b	15.297327
_cell_length_c	15.298159
_cell_angle_alpha	107.333699
_cell_angle_beta	80.324886
_cell_angle_gamma	80.292005
loop_
_atom_site_label
_atom_site_type_symbol
_atom_site_fract_x
_atom_site_fract_y
_atom_site_fract_z
Zn1	Zn	1.279872	0.461392	0.589839
Zn2	Zn	1.279806	0.589970	0.461225
Zn3	Zn	1.152382	0.434471	0.434350
Zn4	Zn	1.084771	0.616870	0.616683
O5	O	1.199208	0.525676	0.525524
O6	O	1.414841	0.478457	0.572791
O7	O	1.291170	0.546819	0.327528
O8	O	1.197617	0.307897	0.432494
O9	O	1.414792	0.572923	0.478299
O10	O	1.291283	0.327676	0.546731
O11	O	1.197552	0.432574	0.307783
O12	O	1.008436	0.458657	0.458524
O13	O	1.082385	0.618770	0.743254
O14	O	0.958763	0.592665	0.592483
O15	O	1.225724	0.504541	0.723532
O16	O	1.225611	0.723684	0.504329
O17	O	1.082320	0.743447	0.618543
C18	C	0.948601	0.525660	0.525501
C19	C	0.841380	0.525679	0.525517
C20	C	1.146643	0.767314	0.567286
C21	C	1.124238	0.870693	0.585183
C22	C	1.146520	0.567659	0.768078
C23	C	1.124068	0.585550	0.871440
C24	C	0.645079	0.525686	0.525542
C25	C	0.754316	0.525679	0.525525
C26	C	1.450793	0.525693	0.525548
C27	C	1.558004	0.525700	0.525559
C28	C	1.251999	0.283097	0.483620
C29	C	1.274496	0.179725	0.465763
C30	C	1.359674	1.120846	0.397931
C31	C	1.380726	1.023715	0.381111
C32	C	1.316606	0.985455	0.432128
C33	C	1.231430	1.044335	0.499966
C34	C	1.210372	1.141474	0.516783
C35	C	1.167304	1.006083	0.550979
C36	C	1.082128	1.064963	0.618818
C37	C	1.061074	1.162093	0.635632
C38	C	1.125194	1.200353	0.584615
C39	C	1.188362	0.908944	0.534163
C40	C	1.039060	0.929572	0.653015
C41	C	1.018008	1.026703	0.669835
C42	C	1.359302	0.398096	1.121728
C43	C	1.380403	0.381288	1.024615
C44	C	1.316321	0.432352	0.986316
C45	C	1.231134	0.500227	1.045141
C46	C	1.210036	0.517041	1.142265
C47	C	1.167055	0.551297	1.006853
C48	C	1.081868	0.619172	1.065678
C49	C	1.060773	0.635983	1.162792
C50	C	1.124855	0.584919	1.201090
C51	C	1.188153	0.534482	0.909729
C52	C	1.038887	0.653428	0.930266
C53	C	1.017786	0.670235	1.027379
C54	C	1.251676	0.483874	1.283917
C55	C	1.274121	0.465974	1.180554
H56	H	1.257713	0.861012	0.478928
N57	N	1.425169	1.159912	0.345812
N58	N	1.501214	1.107336	0.285244
H59	H	1.547472	1.134924	0.248426
N60	N	1.467407	0.311967	0.964514
N61	N	1.533518	0.335315	0.915978
H62	H	1.594968	0.286353	0.873527
N63	N	1.338120	0.886237	0.414935
N64	N	1.414171	0.833677	0.354365
H65	H	1.429372	0.763600	0.342221
H66	H	0.986707	0.695009	0.899084
H67	H	0.948656	1.074656	0.725070
N68	N	1.467725	0.963588	0.311814
N69	N	1.524966	0.997756	0.266269
H70	H	1.586415	0.955290	0.217324
H71	H	1.108060	1.279445	0.598308
H72	H	1.257512	0.479217	0.861843
H73	H	0.991709	1.210029	0.690860
N74	N	0.973566	0.890486	0.705124
N75	N	0.992380	0.803759	0.690103
H76	H	0.946129	0.776147	0.726901
H77	H	1.333506	0.418663	0.907241
N78	N	0.930761	0.739555	1.087462
N79	N	0.845461	0.731485	1.075538
H80	H	0.783996	0.780438	1.117973
H81	H	1.411473	0.356533	1.152922
H82	H	1.107679	0.598600	1.280167
H83	H	0.991415	0.691258	1.210686
