data_functionalizedCrystal
_audit_creation_method	'MofGen! by Chris Wilmer'
_symmetry_space_group_name_H-M	'P1'
_symmetry_Int_Tables_number	1
_symmetry_cell_setting	triclinic
loop_
_symmetry_equiv_pos_as_xyz
  x,y,z
_cell_length_a	16.625546
_cell_length_b	19.076919
_cell_length_c	19.077105
_cell_angle_alpha	90.076224
_cell_angle_beta	87.718759
_cell_angle_gamma	92.269917
loop_
_atom_site_label
_atom_site_type_symbol
_atom_site_fract_x
_atom_site_fract_y
_atom_site_fract_z
Zn1	Zn	-0.390077	-0.440407	1.058283
Zn2	Zn	-0.519720	-0.322896	1.062927
Zn3	Zn	-0.379275	-0.318200	0.945500
Zn4	Zn	-0.519234	-0.435649	0.940748
O5	O	-0.452076	-0.379288	1.001864
O6	O	-0.411998	-0.428775	1.157231
O7	O	-0.496773	-0.223942	1.051282
O8	O	-0.267879	-0.334437	0.960506
O9	O	-0.507246	-0.342441	1.160642
O10	O	-0.275815	-0.424222	1.043367
O11	O	-0.393589	-0.220492	0.965009
O12	O	-0.393117	-0.329824	0.846538
O13	O	-0.506418	-0.534611	0.952407
O14	O	-0.495944	-0.416113	0.843047
O15	O	-0.411527	-0.538107	1.038759
O16	O	-0.632485	-0.337827	1.046674
O17	O	-0.632127	-0.420666	0.956910
C18	C	-0.661563	-0.379256	1.001799
C19	C	-0.751186	-0.379268	1.001834
C20	C	-0.443306	-0.371943	0.819296
C21	C	-0.439575	-0.368817	0.741192
C22	C	-0.460123	-0.562568	0.994535
C23	C	-0.463552	-0.640671	0.991412
C24	C	-1.079371	-0.379346	1.001954
C25	C	-0.988060	-0.379327	1.001918
C26	C	-0.915281	-0.379307	1.001894
C27	C	-0.823965	-0.379288	1.001859
C28	C	-0.241774	-0.379336	1.001948
C29	C	-0.152155	-0.379357	1.001984
C30	C	-0.415760	-0.679185	1.034901
C31	C	-0.418978	-0.752571	1.031958
C32	C	-0.469993	-0.787441	0.985529
C33	C	-0.517786	-0.748922	0.942035
C34	C	-0.514563	-0.675537	0.944975
C35	C	-0.484926	-1.006722	0.971911
C36	C	-0.488147	-1.080112	0.968976
C37	C	-0.389338	-1.083755	1.058898
C38	C	-0.386123	-1.010369	1.061837
C39	C	-0.433913	-0.971856	1.018341
N40	N	-0.473286	-0.862453	0.982521
N41	N	-0.430616	-0.896846	1.021346
C42	C	-0.444005	-0.196723	1.009205
C43	C	-0.440356	-0.118626	1.012465
C44	C	-0.491432	-0.412204	0.702702
C45	C	-0.487916	-0.409270	0.629314
C46	C	-0.432544	-0.362946	0.594418
C47	C	-0.380681	-0.319557	0.632913
C48	C	-0.384194	-0.322495	0.706299
C49	C	-0.416284	-0.349354	0.375130
C50	C	-0.412776	-0.346418	0.301739
C51	C	-0.520010	-0.436133	0.298145
C52	C	-0.523522	-0.439063	0.371533
C53	C	-0.471655	-0.395677	0.410021
N54	N	-0.428950	-0.359945	0.519405
N55	N	-0.475247	-0.398682	0.485034
C56	C	-0.460881	-0.386662	1.185146
C57	C	-0.464634	-0.389805	1.263249
H58	H	-0.374221	-0.650799	1.072711
H59	H	-0.341962	-0.287168	0.737637
C60	C	-0.366405	-0.794933	1.079801
N61	N	-0.326804	-0.826840	1.115839
C62	C	-0.552346	-0.463165	0.741080
N63	N	-0.598226	-0.501552	0.769985
C64	C	-0.584438	-0.490020	0.409913
N65	N	-0.630325	-0.528399	0.438821
C66	C	-0.544267	-1.118468	0.917895
N67	N	-0.586535	-1.147357	0.879424
C68	C	-0.329994	-0.972017	1.112906
N69	N	-0.287716	-0.943130	1.151371
H70	H	-0.553472	-0.644180	0.909554
H71	H	-0.559320	-0.777319	0.904228
C72	C	-0.336762	-1.126125	1.106733
N73	N	-0.297155	-1.158038	1.142760
H74	H	-0.530145	-0.444600	0.597979
H75	H	-0.523853	-0.975374	0.936503
H76	H	-0.367677	-0.308699	0.273329
H77	H	-0.562235	-0.471456	0.266800
C78	C	-0.359234	-0.301623	0.417459
N79	N	-0.316262	-0.265669	0.449343
H80	H	-0.335593	-0.281842	0.604495
