data_functionalizedCrystal
_audit_creation_method	'MofGen! by Chris Wilmer'
_symmetry_space_group_name_H-M	'P1'
_symmetry_Int_Tables_number	1
_symmetry_cell_setting	triclinic
loop_
_symmetry_equiv_pos_as_xyz
  x,y,z
_cell_length_a	14.853566
_cell_length_b	14.519731
_cell_length_c	13.330367
_cell_angle_alpha	89.994378
_cell_angle_beta	89.995295
_cell_angle_gamma	83.661634
loop_
_atom_site_label
_atom_site_type_symbol
_atom_site_fract_x
_atom_site_fract_y
_atom_site_fract_z
O1	O	1.196425	0.120398	-0.083359
O2	O	1.696425	0.620398	0.416641
O3	O	0.933972	0.134742	-0.083376
O4	O	1.433972	0.634742	0.416624
O5	O	1.072147	-0.006670	-0.083358
O6	O	1.572147	0.493330	0.416642
O7	O	1.058250	0.261810	-0.083377
O8	O	1.558250	0.761810	0.416623
O9	O	1.072127	-0.006673	0.083489
O10	O	1.572127	0.493327	0.583489
O11	O	0.933952	0.134739	0.083471
O12	O	1.433952	0.634739	0.583471
O13	O	1.196405	0.120395	0.083488
O14	O	1.696405	0.620395	0.583488
Cu15	Cu	1.065177	0.127567	0.098714
Cu16	Cu	1.565177	0.627567	0.598714
Cu17	Cu	1.065201	0.127570	-0.098602
Cu18	Cu	1.565201	0.627570	0.401398
O19	O	1.058230	0.261807	0.083470
O20	O	1.558230	0.761807	0.583470
C21	C	0.900373	0.134091	0.000045
C22	C	1.400373	0.634091	0.500045
C23	C	0.800289	0.132144	0.000039
C24	C	1.300289	0.632144	0.500039
C25	C	0.377111	0.123910	-0.090891
C26	C	0.877111	0.623910	0.409109
C27	C	0.377110	0.123907	0.091012
C28	C	0.877110	0.623907	0.591012
C29	C	0.471145	0.125736	0.091009
C30	C	0.971145	0.625736	0.591009
C31	C	0.518167	0.126653	0.000054
C32	C	1.018167	0.626653	0.500054
C33	C	0.471154	0.125742	-0.090897
C34	C	0.971154	0.625742	0.409103
C35	C	0.518164	0.126657	0.181959
C36	C	1.018164	0.626657	0.681959
C37	C	0.612205	0.128486	0.181959
C38	C	1.112205	0.628486	0.681959
C39	C	0.659229	0.129397	0.091003
C40	C	1.159229	0.629397	0.591003
C41	C	0.612210	0.128484	0.000048
C42	C	1.112210	0.628484	0.500048
C43	C	0.659232	0.129401	-0.090906
C44	C	1.159232	0.629401	0.409094
C45	C	0.612216	0.128482	-0.181863
C46	C	1.112216	0.628482	0.318137
C47	C	0.518178	0.126652	-0.181853
C48	C	1.018178	0.626652	0.318147
C49	C	0.753267	0.131227	0.090994
C50	C	1.253267	0.631227	0.590994
C51	C	0.753276	0.131233	-0.090912
C52	C	1.253276	0.631233	0.409088
C53	C	1.071486	-0.041031	0.000065
C54	C	1.571486	0.458969	0.500065
C55	C	1.069535	-0.143410	0.000066
C56	C	1.569535	0.356590	0.500066
C57	C	1.067949	-0.226554	0.000063
C58	C	1.567949	0.273446	0.500063
C59	C	1.065968	-0.330862	0.000056
C60	C	1.565968	0.169138	0.500056
C61	C	1.064396	-0.414000	0.000049
C62	C	1.564396	0.086000	0.500049
C63	C	1.062415	-0.518315	0.000043
C64	C	1.562415	-0.018315	0.500043
C65	C	1.230004	0.121046	0.000064
C66	C	1.730004	0.621046	0.500064
C67	C	1.330089	0.122993	0.000063
C68	C	1.830089	0.622993	0.500063
C69	C	1.058891	0.296168	0.000044
C70	C	1.558891	0.796168	0.500044
C71	C	1.060843	0.398547	0.000037
C72	C	1.560843	0.898547	0.500037
N73	N	1.065167	0.127563	0.237495
N74	N	1.565167	0.627563	0.737495
N75	N	1.065218	0.127566	-0.237384
N76	N	1.565218	0.627566	0.262616
C77	C	1.004014	0.190163	0.710110
C78	C	1.504014	0.690163	1.210110
C79	C	1.126411	0.064971	0.710094
C80	C	1.626411	0.564971	1.210094
C81	C	1.126401	0.064968	0.605076
C82	C	1.626401	0.564968	1.105076
C83	C	1.065197	0.127564	0.552570
C84	C	1.565197	0.627564	1.052570
C85	C	1.004004	0.190164	0.605082
C86	C	1.504004	0.690164	1.105082
C87	C	1.187600	0.002376	0.552556
C88	C	1.687600	0.502376	1.052556
C89	C	1.187593	0.002371	0.447531
C90	C	1.687593	0.502371	0.947531
C91	C	1.126384	0.064964	0.395023
C92	C	1.626384	0.564964	0.895023
C93	C	1.065187	0.127565	0.447542
C94	C	1.565187	0.627565	0.947542
C95	C	1.003983	0.190162	0.395036
C96	C	1.503983	0.690162	0.895036
C97	C	0.942781	0.252760	0.447553
C98	C	1.442781	0.752760	0.947553
C99	C	0.942795	0.252757	0.552574
C100	C	1.442795	0.752757	1.052574
C101	C	1.126371	0.064967	0.290001
C102	C	1.626371	0.564967	0.790001
C103	C	1.003973	0.190163	0.290008
C104	C	1.503973	0.690163	0.790008
H105	H	0.338827	0.123158	-0.164945
H106	H	0.838827	0.623158	0.335055
C107	C	0.479230	0.205316	-0.336897
C108	C	0.979230	0.705316	0.163103
C109	C	0.466494	0.125657	-0.281824
C110	C	0.966494	0.625657	0.218176
H111	H	0.447322	0.204702	-0.398616
H112	H	0.947322	0.704702	0.101384
H113	H	0.457038	0.258740	-0.299523
H114	H	0.957038	0.758740	0.200477
H115	H	0.541967	0.206522	-0.349917
H116	H	1.041967	0.706522	0.150083
H117	H	0.403757	0.124455	-0.268798
H118	H	0.903757	0.624455	0.231202
H119	H	0.488681	0.072220	-0.319207
H120	H	0.988681	0.572220	0.180793
H121	H	0.954130	0.241134	0.247263
H122	H	1.454130	0.741134	0.747263
H123	H	0.791542	0.131984	0.165049
H124	H	1.291542	0.631984	0.665049
H125	H	1.237435	-0.048585	0.595309
H126	H	1.737435	0.451415	1.095309
C127	C	1.308576	-0.121386	0.458076
C128	C	1.808576	0.378614	0.958076
C129	C	1.254856	-0.066443	0.389809
C130	C	1.754856	0.433557	0.889809
H131	H	1.350094	-0.163873	0.422437
H132	H	1.850094	0.336127	0.922437
H133	H	1.341072	-0.082936	0.499019
H134	H	1.841072	0.417064	0.999019
H135	H	1.270990	-0.154622	0.499057
H136	H	1.770990	0.345378	0.999057
H137	H	1.292441	-0.033201	0.348832
H138	H	1.792441	0.466799	0.848832
H139	H	1.222357	-0.104897	0.348849
H140	H	1.722357	0.395103	0.848849
H141	H	0.338819	0.123167	0.165063
H142	H	0.838819	0.623167	0.665063
H143	H	0.892952	0.303731	0.404790
H144	H	1.392952	0.803731	0.904790
H145	H	0.479871	0.125916	0.256009
H146	H	0.979871	0.625916	0.756009
H147	H	0.650477	0.129232	0.256021
H148	H	1.150477	0.629232	0.756021
C149	C	0.888478	0.308353	0.713571
C150	C	1.388478	0.808353	1.213571
C151	C	0.875535	0.321568	0.610302
C152	C	1.375535	0.821568	1.110302
H153	H	0.846960	0.350840	0.749210
H154	H	1.346960	0.850840	1.249210
H155	H	0.878583	0.246794	0.730788
H156	H	1.378583	0.746794	1.230788
H157	H	0.948667	0.318479	0.730750
H158	H	1.448667	0.818479	1.230750
H159	H	0.815348	0.311436	0.593121
H160	H	1.315348	0.811436	1.093121
H161	H	0.885423	0.383142	0.593078
H162	H	1.385423	0.883142	1.093078
H163	H	0.791554	0.131976	-0.164980
H164	H	1.291554	0.631976	0.335020
H165	H	0.650513	0.129235	-0.255918
H166	H	1.150513	0.629235	0.244082
H167	H	0.954182	0.241127	0.752872
H168	H	1.454182	0.741127	1.252872
C169	C	1.179071	-0.094583	0.742440
C170	C	1.679071	0.405417	1.242440
C171	C	1.193676	-0.003838	0.767810
C172	C	1.693676	0.496162	1.267810
H173	H	1.220600	-0.137065	0.778072
H174	H	1.720600	0.362935	1.278072
H175	H	1.118894	-0.104693	0.759664
H176	H	1.618894	0.395307	1.259664
H177	H	1.187830	-0.103534	0.672376
H178	H	1.687830	0.396466	1.172376
H179	H	1.184911	0.005115	0.837873
H180	H	1.684911	0.505115	1.337873
H181	H	1.253867	0.006276	0.750592
H182	H	1.753867	0.506276	1.250592
H183	H	1.176204	0.014005	0.247247
H184	H	1.676204	0.514005	0.747247
