data_functionalizedCrystal
_audit_creation_method	'MofGen! by Chris Wilmer'
_symmetry_space_group_name_H-M	'P1'
_symmetry_Int_Tables_number	1
_symmetry_cell_setting	triclinic
loop_
_symmetry_equiv_pos_as_xyz
  x,y,z
_cell_length_a	12.594509
_cell_length_b	12.594517
_cell_length_c	12.594516
_cell_angle_alpha	89.984147
_cell_angle_beta	89.975348
_cell_angle_gamma	90.021621
loop_
_atom_site_label
_atom_site_type_symbol
_atom_site_fract_x
_atom_site_fract_y
_atom_site_fract_z
Zn1	Zn	-0.601875	-1.627270	-0.423732
Zn2	Zn	-0.423903	-1.627160	-0.601737
Zn3	Zn	-0.423904	-1.449273	-0.423773
Zn4	Zn	-0.601833	-1.449256	-0.601668
O5	O	-0.512879	-1.538240	-0.512728
O6	O	-0.578284	-1.776201	-0.447357
O7	O	-0.274957	-1.603524	-0.578176
O8	O	-0.447530	-1.472938	-0.274821
O9	O	-0.447528	-1.776120	-0.578136
O10	O	-0.578285	-1.603711	-0.274792
O11	O	-0.274958	-1.472831	-0.447426
O12	O	-0.447489	-1.300325	-0.447359
O13	O	-0.750784	-1.472909	-0.578019
O14	O	-0.578213	-1.300313	-0.578058
O15	O	-0.750815	-1.603695	-0.447290
O16	O	-0.447488	-1.603508	-0.750674
O17	O	-0.578212	-1.472802	-0.750623
C18	C	-0.512847	-1.261699	-0.512706
C19	C	-0.512859	-1.143393	-0.512723
C20	C	-0.790500	-1.538312	-0.512642
C21	C	-0.908805	-1.538343	-0.512605
C22	C	-0.512868	-1.538170	-0.789269
C23	C	-0.512899	-1.538238	-0.907574
C24	C	-1.048805	-1.467254	-0.583620
C25	C	-0.978000	-1.441231	-0.486555
C26	C	-0.978039	-1.564318	-0.609660
C27	C	-1.048786	-1.512331	-0.415355
C28	C	-1.048831	-1.635464	-0.538527
C29	C	-0.978058	-1.609478	-0.441395
C30	C	-0.236338	-1.538229	-0.512736
C31	C	-0.118033	-1.538404	-0.512473
C32	C	-0.512911	-1.815861	-0.512750
C33	C	-0.512924	-1.934166	-0.512759
C34	C	-0.441894	-1.074116	-0.441538
C35	C	-0.415718	-1.003305	-0.538626
C36	C	-0.539054	-1.003406	-0.415682
C37	C	-0.486632	-1.074140	-0.609862
C38	C	-0.610013	-1.074247	-0.486852
C39	C	-0.583874	-1.003468	-0.584007
C40	C	-0.583950	-1.467140	-0.976838
C41	C	-0.486827	-1.441206	-1.047701
C42	C	-0.610039	-1.564268	-1.047510
C43	C	-0.415725	-1.512252	-0.976878
C44	C	-0.539002	-1.635360	-0.976682
C45	C	-0.441812	-1.609463	-1.047512
C46	C	-0.512912	-1.538339	-0.235107
C47	C	-0.512927	-1.538381	-0.116801
H48	H	-1.079870	-1.407064	-0.643654
O49	O	-0.940916	-1.343217	-0.460503
C50	C	-0.976973	-1.268469	-0.535628
H51	H	-0.996865	-1.310779	-0.613117
H52	H	-1.051014	-1.227174	-0.503922
C53	C	-0.865038	-1.133483	-0.460672
C54	C	-0.889461	-1.185447	-0.555849
H55	H	-0.811060	-1.082267	-0.473143
H56	H	-0.840748	-1.183840	-0.410056
H57	H	-0.926746	-1.099079	-0.434261
H58	H	-0.827757	-1.219861	-0.582252
H59	H	-0.913739	-1.135093	-0.606470
H60	H	-1.079732	-1.490294	-0.333197
O61	O	-0.460290	-1.110991	-0.707880
C62	C	-0.534757	-1.074130	-0.782867
H63	H	-0.612350	-1.053899	-0.740866
H64	H	-0.502336	-1.000132	-0.823749
C65	C	-0.459782	-1.186005	-0.917876
C66	C	-0.555086	-1.161165	-0.866291
H67	H	-0.472319	-1.239688	-0.969339
H68	H	-0.409609	-1.210836	-0.867358
H69	H	-0.432774	-1.124331	-0.951936
H70	H	-0.582085	-1.222834	-0.832221
H71	H	-0.605264	-1.136346	-0.916805
O72	O	-0.707975	-1.590413	-1.084704
C73	C	-0.706382	-1.591096	-1.196640
H74	H	-0.638549	-1.538919	-1.226208
H75	H	-0.694342	-1.675819	-1.226119
C76	C	-0.895851	-1.611966	-1.202835
C77	C	-0.812543	-1.547873	-1.239150
H78	H	-0.961337	-1.585308	-1.229058
H79	H	-0.896925	-1.611510	-1.127422
H80	H	-0.885804	-1.682563	-1.227403
H81	H	-0.822584	-1.477280	-1.214570
H82	H	-0.811473	-1.548316	-1.314560
O83	O	-0.941095	-1.590385	-0.707726
C84	C	-0.977124	-1.515175	-0.782402
H85	H	-1.051639	-1.474660	-0.750813
H86	H	-0.912643	-1.453165	-0.796366
C87	C	-0.911404	-1.621275	-0.926585
C88	C	-1.002930	-1.571520	-0.887790
H89	H	-0.927319	-1.656029	-0.991595
H90	H	-0.887127	-1.671944	-0.876275
H91	H	-0.857679	-1.569591	-0.938213
H92	H	-1.056649	-1.623205	-0.876151
H93	H	-1.027217	-1.520861	-0.938102
H94	H	-0.381807	-1.105137	-0.381399
H95	H	-0.333584	-0.972146	-0.560531
O96	O	-1.086166	-1.733335	-0.564726
C97	C	-1.198100	-1.732207	-0.563354
H98	H	-1.226938	-1.664938	-0.510119
H99	H	-1.229149	-1.719582	-0.647428
C100	C	-1.204056	-1.921520	-0.585583
C101	C	-1.239475	-1.838905	-0.520191
H102	H	-1.229580	-1.987337	-0.558963
H103	H	-1.128644	-1.922281	-0.586511
H104	H	-1.229932	-1.910985	-0.655640
H105	H	-1.213588	-1.849434	-0.450140
H106	H	-1.314885	-1.838148	-0.519251
O107	O	-0.655513	-0.966862	-0.655998
C108	C	-0.704934	-1.053498	-0.706821
H109	H	-0.651470	-1.126296	-0.701164
H110	H	-0.784097	-1.071015	-0.666518
C111	C	-0.789868	-0.936723	-0.831367
C112	C	-0.724199	-1.026132	-0.824427
H113	H	-0.801757	-0.919842	-0.903911
H114	H	-0.756576	-0.878354	-0.797125
H115	H	-0.855830	-0.951332	-0.797775
H116	H	-0.658235	-1.011518	-0.858006
H117	H	-0.757481	-1.084498	-0.858677
H118	H	-0.643949	-1.406908	-0.945805
O119	O	-0.565337	-0.966463	-0.317682
C120	C	-0.490255	-1.002436	-0.242878
H121	H	-0.449635	-1.076934	-0.274351
H122	H	-0.428309	-0.937918	-0.228893
C123	C	-0.596677	-0.936752	-0.098888
C124	C	-0.546794	-1.028257	-0.137540
H125	H	-0.631551	-0.952675	-0.033908
H126	H	-0.647260	-0.912512	-0.149284
H127	H	-0.545047	-0.882996	-0.087242
H128	H	-0.598425	-1.082007	-0.149197
H129	H	-0.496221	-1.052507	-0.087143
O130	O	-0.460315	-1.343366	-1.084974
C131	C	-0.367129	-1.350818	-1.146598
H132	H	-0.320827	-1.424712	-1.122388
H133	H	-0.389215	-1.356406	-1.234192
C134	C	-0.354919	-1.160834	-1.158024
C135	C	-0.298045	-1.251587	-1.128283
H136	H	-0.312306	-1.099622	-1.146731
H137	H	-0.417702	-1.155813	-1.116510
H138	H	-0.373321	-1.165505	-1.231018
H139	H	-0.279656	-1.246920	-1.055287
H140	H	-0.235256	-1.256605	-1.169784
H141	H	-0.692122	-1.105432	-0.464918
O142	O	-0.317780	-1.485908	-0.939849
C143	C	-0.318953	-1.486132	-0.827906
H144	H	-0.403757	-1.474228	-0.798569
H145	H	-0.287409	-1.565348	-0.797541
C146	C	-0.144132	-1.410068	-0.822307
C147	C	-0.248288	-1.395438	-0.786275
H148	H	-0.100539	-1.354127	-0.796625
H149	H	-0.143339	-1.409920	-0.897725
H150	H	-0.117860	-1.476084	-0.797000
H151	H	-0.274563	-1.329429	-0.811593
H152	H	-0.249084	-1.395572	-0.710860
H153	H	-0.381669	-1.669649	-1.078349
H154	H	-0.561104	-1.717409	-0.945466
H155	H	-0.947191	-1.669622	-0.381215
