data_functionalizedCrystal
_audit_creation_method	'MofGen! by Chris Wilmer'
_symmetry_space_group_name_H-M	'P1'
_symmetry_Int_Tables_number	1
_symmetry_cell_setting	triclinic
loop_
_symmetry_equiv_pos_as_xyz
  x,y,z
_cell_length_a	13.635800
_cell_length_b	7.190339
_cell_length_c	7.190401
_cell_angle_alpha	82.317494
_cell_angle_beta	60.610757
_cell_angle_gamma	60.611724
loop_
_atom_site_label
_atom_site_type_symbol
_atom_site_fract_x
_atom_site_fract_y
_atom_site_fract_z
V1	V	-2.154324	0.291676	0.663507
V2	V	-1.654324	0.791676	1.163507
O3	O	-2.100792	-0.017542	0.652428
O4	O	-1.600792	0.482458	1.152428
O5	O	-2.172020	0.581735	0.657477
O6	O	-1.672020	1.081735	1.157477
O7	O	-2.172022	0.285642	0.953567
O8	O	-1.672022	0.785642	1.453567
O9	O	-2.100790	0.280601	0.354289
O10	O	-1.600790	0.780601	0.854289
V11	V	-2.385281	0.254873	0.626704
V12	V	-1.885281	0.754873	1.126704
O13	O	-2.308656	0.372407	0.744239
O14	O	-1.808656	0.872407	1.244239
O15	O	-2.456048	0.174142	0.545972
O16	O	-1.956048	0.674142	1.045972
O17	O	-2.255982	-0.035187	0.632734
O18	O	-1.755982	0.464813	1.132734
O19	O	-2.497512	0.564091	0.637783
O20	O	-1.997512	1.064091	1.137783
O21	O	-2.497514	0.265948	0.935922
O22	O	-1.997514	0.765948	1.435922
O23	O	-2.255980	0.260906	0.336644
O24	O	-1.755980	0.760906	0.836644
V25	V	-1.885273	0.254873	0.626704
V26	V	-1.385273	0.754873	1.126704
O27	O	-1.938808	0.265948	0.935922
O28	O	-1.438808	0.765948	1.435922
O29	O	-1.867576	0.260906	0.336644
O30	O	-1.367576	0.760906	0.836644
O31	O	-1.867578	-0.035187	0.632734
O32	O	-1.367578	0.464813	1.132734
O33	O	-1.938806	0.564091	0.637783
O34	O	-1.438806	1.064091	1.137783
V35	V	-1.654317	0.291676	0.663507
V36	V	-1.154317	0.791676	1.163507
O37	O	-1.730942	0.174142	0.545972
O38	O	-1.230942	0.674142	1.045972
O39	O	-1.583550	0.372407	0.744239
O40	O	-1.083550	0.872407	1.244239
O41	O	-1.783618	0.285642	0.953567
O42	O	-1.283618	0.785642	1.453567
O43	O	-1.542084	0.280601	0.354289
O44	O	-1.042084	0.780601	0.854289
O45	O	-1.542086	-0.017542	0.652428
O46	O	-1.042086	0.482458	1.152428
O47	O	-1.783616	0.581735	0.657477
O48	O	-1.283616	1.081735	1.157477
C49	C	-2.103367	0.652497	0.646635
C50	C	-1.603367	1.152497	1.146635
C51	C	-2.159800	0.894072	0.643587
C52	C	-1.659800	1.394072	1.143587
C53	C	-2.159803	0.271766	1.265887
C54	C	-1.659803	0.771766	1.765887
C55	C	-2.103360	0.274815	1.024311
C56	C	-1.603360	0.774815	1.524311
C57	C	-1.936230	0.271754	0.265884
C58	C	-1.436230	0.771754	0.765884
C59	C	-1.879799	0.274817	0.024311
C60	C	-1.379799	0.774817	0.524311
C61	C	-1.936238	-0.105934	0.643589
C62	C	-1.436238	0.394066	1.143589
C63	C	-1.879812	-0.347505	0.646664
C64	C	-1.379812	0.152495	1.146664
