data_functionalizedCrystal
_audit_creation_method	'MofGen! by Chris Wilmer'
_symmetry_space_group_name_H-M	'P1'
_symmetry_Int_Tables_number	1
_symmetry_cell_setting	triclinic
loop_
_symmetry_equiv_pos_as_xyz
  x,y,z
_cell_length_a	18.426585
_cell_length_b	20.016444
_cell_length_c	20.016444
_cell_angle_alpha	90.002879
_cell_angle_beta	60.001461
_cell_angle_gamma	60.004430
loop_
_atom_site_label
_atom_site_type_symbol
_atom_site_fract_x
_atom_site_fract_y
_atom_site_fract_z
Zr1	Zr	0.794379	-0.087644	0.643576
O2	O	0.945767	-0.194311	0.536903
O3	O	0.642983	-0.054949	0.676278
O4	O	0.794375	-0.194317	0.676277
O5	O	0.794381	0.054997	0.536904
O6	O	0.794381	-0.194317	0.786216
O7	O	0.794375	-0.054943	0.536904
O8	O	0.523568	0.054987	0.786219
O9	O	1.065194	-0.194307	0.536902
O10	O	0.705261	-0.041000	0.772271
O11	O	0.705261	0.041047	0.690224
O12	O	0.883506	-0.123041	0.690223
O13	O	0.883506	-0.040994	0.608176
Zr14	Zr	0.794397	0.087697	0.818918
Zr15	Zr	0.794388	-0.087644	0.818918
Zr16	Zr	0.794388	0.087697	0.643577
Zr17	Zr	0.984850	-0.087638	0.643575
Zr18	Zr	0.603926	0.087690	0.818919
O19	O	0.945793	0.055001	0.786217
O20	O	0.945780	-0.194312	0.786216
O21	O	0.945780	0.055002	0.536904
O22	O	0.643009	0.194364	0.925592
O23	O	0.642996	-0.054949	0.925591
O24	O	0.642996	0.194364	0.676279
O25	O	0.794395	-0.054944	0.925590
O26	O	0.794401	0.194369	0.786218
O27	O	0.794395	0.194369	0.676278
O28	O	0.794401	0.054996	0.925590
O29	O	1.065201	-0.194307	0.676275
O30	O	0.523575	0.194360	0.786219
O31	O	0.523582	0.194360	0.925592
O32	O	0.523575	0.054987	0.925592
O33	O	1.065201	-0.054934	0.536903
O34	O	1.065208	-0.054934	0.676276
O35	O	0.705270	0.123094	0.772272
O36	O	0.705270	0.041047	0.854318
O37	O	0.883515	-0.040994	0.772270
O38	O	0.883515	0.041053	0.690224
C39	C	0.556137	0.000018	0.731248
C40	C	0.475277	0.000015	0.731249
C41	C	0.794377	0.000027	0.511922
C42	C	0.794373	0.000027	0.437485
C43	C	0.794399	0.219352	0.731248
C44	C	0.794403	0.293789	0.731248
C45	C	0.179167	0.000039	0.731244
C46	C	0.261554	0.000034	0.731243
C47	C	0.327220	0.000027	0.731246
C48	C	0.409611	0.000023	0.731246
C49	C	1.032639	0.000035	0.731246
C50	C	1.113499	0.000037	0.731246
C51	C	0.794377	-0.219299	0.731246
C52	C	0.794373	-0.293736	0.731246
C53	C	0.887433	0.422231	0.688417
C54	C	0.887429	0.492177	0.688415
C55	C	0.701335	0.577820	0.774079
C56	C	0.701341	0.507875	0.774076
C57	C	0.794393	0.430082	0.731247
C58	C	0.794383	0.569971	0.731247
C59	C	0.794378	0.645809	0.731245
C60	C	0.794399	0.354239	0.731248
C61	C	0.701343	0.042853	0.309046
C62	C	0.701347	0.042855	0.239101
C63	C	0.887440	-0.042802	0.153450
C64	C	0.887435	-0.042798	0.223394
C65	C	0.794383	0.000027	0.301192
C66	C	0.794393	0.000026	0.161302
C67	C	0.794398	0.000028	0.085465
C68	C	0.794377	0.000027	0.377035
C69	C	0.794399	0.000026	0.950573
C70	C	0.794403	0.000026	1.025010
C71	C	0.556149	0.000018	0.950574
C72	C	0.475292	0.000015	1.025011
C73	C	0.556149	0.219344	0.731249
C74	C	0.475292	0.293778	0.731250
C75	C	0.556160	0.219343	0.950575
C76	C	0.475308	0.293777	1.025012
C77	C	1.032616	-0.219291	0.511920
C78	C	1.113468	-0.293725	0.437482
C79	C	1.032627	0.000035	0.511921
C80	C	1.113484	0.000038	0.437483
C81	C	1.032627	-0.219291	0.731245
C82	C	1.113484	-0.293725	0.731245
C83	C	0.437317	-0.042821	1.017140
C84	C	0.361354	-0.042840	1.087075
C85	C	0.323363	-0.000018	1.164881
C86	C	0.361346	0.042820	1.172750
C87	C	0.437313	0.042833	1.102816
C88	C	0.437326	0.371568	0.774078
C89	C	0.361363	0.441513	0.774075
C90	C	0.323364	0.433667	0.731249
C91	C	0.361338	0.355869	0.688416
C92	C	0.437304	0.285925	0.688414
C93	C	0.437338	0.285905	1.102804
C94	C	0.361380	0.355837	1.172753
C95	C	0.323386	0.433641	1.164908
C96	C	0.361363	0.441512	1.087108
C97	C	0.437325	0.371580	1.017161
C98	C	1.151447	-0.285852	0.359691
C99	C	1.227429	-0.355784	0.289742
C100	C	1.265427	-0.433588	0.297586
C101	C	1.227445	-0.441459	0.375386
C102	C	1.151469	-0.371528	0.445333
C103	C	1.151467	0.042867	0.445355
C104	C	1.227450	0.042866	0.375419
C105	C	1.265444	0.000041	0.297614
C106	C	1.227458	-0.042793	0.289744
C107	C	1.151481	-0.042797	0.359679
C108	C	1.151459	-0.285853	0.774079
C109	C	1.227422	-0.355785	0.774095
C110	C	1.265413	-0.433589	0.731270
C111	C	1.227430	-0.441460	0.688434
C112	C	1.151463	-0.371528	0.688424
H113	H	0.963202	0.358891	0.653541
H114	H	0.261532	0.490577	1.221870
Br115	Br	0.488862	-0.100947	0.911555
H116	H	1.258393	-0.504815	0.381764
H117	H	0.261507	0.490627	0.731257
H118	H	1.258366	0.077750	0.381843
Br119	Br	0.309789	0.547110	1.076476
Br120	Br	0.309820	-0.100979	1.076376
H121	H	1.120548	-0.377948	0.508673
Br122	Br	0.220265	-0.000045	1.259784
H123	H	0.625571	0.514273	0.808953
H124	H	0.330403	0.077684	1.236109
Br125	Br	0.488875	0.382239	0.832211
H126	H	1.120557	-0.077671	0.353258
H127	H	0.330454	0.504853	0.808958
H128	H	0.468223	0.077721	1.109236
Br129	Br	1.099924	0.100990	0.550939
H130	H	0.963192	0.485778	0.653537
H131	H	0.330467	0.349414	1.236094
H132	H	1.258404	-0.077660	0.226386
H133	H	0.625576	0.641166	0.808950
Br134	Br	0.488841	0.382280	0.911589
H135	H	0.963200	-0.077669	0.090100
Br136	Br	1.013714	-0.100916	0.212736
H137	H	0.330387	0.349492	0.653548
H138	H	0.468206	0.222588	0.653541
H139	H	1.327291	-0.490524	0.240624
Br140	Br	0.575059	0.100974	0.414626
Br141	Br	1.368514	-0.528488	0.731291
H142	H	0.468262	0.222559	1.109206
Br143	Br	1.099893	-0.180270	0.349022
H144	H	1.120552	-0.377949	0.653539
H145	H	1.258341	-0.349359	0.226401
Br146	Br	0.575072	0.100985	0.249765
Br147	Br	1.368557	0.000056	0.202710
H148	H	1.120539	-0.222507	0.808952
Br149	Br	1.278958	-0.345084	0.832229
Br150	Br	1.279009	-0.547057	0.630311
