data_functionalizedCrystal
_audit_creation_method	'MofGen! by Chris Wilmer'
_symmetry_space_group_name_H-M	'P1'
_symmetry_Int_Tables_number	1
_symmetry_cell_setting	triclinic
loop_
_symmetry_equiv_pos_as_xyz
  x,y,z
_cell_length_a	17.699077
_cell_length_b	13.262508
_cell_length_c	16.776229
_cell_angle_alpha	105.911687
_cell_angle_beta	89.993415
_cell_angle_gamma	83.880229
loop_
_atom_site_label
_atom_site_type_symbol
_atom_site_fract_x
_atom_site_fract_y
_atom_site_fract_z
O1	O	1.004672	0.132697	-0.037506
O2	O	0.784370	0.149971	-0.033764
O3	O	0.900067	-0.011467	-0.068761
O4	O	0.888976	0.294135	-0.002510
O5	O	0.900052	-0.011477	0.063814
O6	O	0.784355	0.149961	0.098810
O7	O	1.004657	0.132687	0.095068
Zn8	Zn	0.894503	0.141322	0.117988
Zn9	Zn	0.894524	0.141335	-0.056684
O10	O	0.888960	0.294125	0.130064
C11	C	0.756163	0.149348	0.032388
C12	C	0.672136	0.147494	0.031985
C13	C	0.899439	-0.050573	-0.010952
C14	C	0.897581	-0.167082	-0.036215
C15	C	0.632657	0.146616	0.104063
C16	C	0.553706	0.144857	0.103682
C17	C	0.514236	0.143985	0.031225
C18	C	0.553722	0.144861	-0.040859
C19	C	0.632671	0.146612	-0.040479
C20	C	0.235327	0.137798	-0.042392
C21	C	0.156372	0.136050	-0.042765
C22	C	0.156362	0.136043	0.101770
C23	C	0.235311	0.137794	0.102150
C24	C	0.274791	0.138664	0.030065
C25	C	0.360398	0.140569	0.030478
C26	C	0.428630	0.142088	0.030813
C27	C	0.892308	-0.495536	0.181648
C28	C	0.894047	-0.386069	0.205385
C29	C	0.894931	-0.331317	0.144987
C30	C	0.894075	-0.386042	0.060848
C31	C	0.892329	-0.495519	0.037110
C32	C	0.894953	-0.331300	0.000448
C33	C	0.894096	-0.386026	-0.083690
C34	C	0.892352	-0.495491	-0.107425
C35	C	0.891468	-0.550243	-0.047027
C36	C	0.896698	-0.221823	0.024187
C37	C	0.896720	-0.221807	-0.120351
C38	C	0.894980	-0.331273	-0.144088
C39	C	1.032865	0.133309	0.028914
C40	C	1.116891	0.135163	0.029312
C41	C	0.889588	0.333231	0.072254
C42	C	0.891446	0.449740	0.097511
N43	N	0.894495	0.141313	0.237197
N44	N	0.894538	0.141337	-0.175895
C45	C	0.945741	0.069857	0.263424
C46	C	0.945746	0.069856	0.346876
C47	C	0.894507	0.141317	0.404101
C48	C	0.843255	0.212776	0.377869
C49	C	0.843248	0.212771	0.294417
C50	C	0.843282	0.212796	0.714420
C51	C	0.843295	0.212798	0.797877
C52	C	0.945780	0.069882	0.766880
C53	C	0.945773	0.069877	0.683428
C54	C	0.894519	0.141332	0.657202
C55	C	0.894514	0.141330	0.566714
C56	C	0.894515	0.141324	0.494589
H57	H	0.664786	0.147334	0.163068
O58	O	0.995440	0.000274	0.207858
C59	C	0.982810	-0.103584	0.205789
H60	H	0.922210	-0.103959	0.228649
H61	H	1.024652	-0.134469	0.247544
C62	C	1.068780	-0.174347	0.088167
C63	C	0.994348	-0.174808	0.116237
H64	H	1.075900	-0.218283	0.032928
H65	H	1.077292	-0.104376	0.089562
H66	H	1.103640	-0.200082	0.122970
H67	H	0.959490	-0.149061	0.081440
H68	H	0.985830	-0.244777	0.114834
H69	H	0.521580	0.144143	-0.099857
H70	H	0.890055	-0.639381	-0.066350
O71	O	0.995427	0.000343	0.372363
C72	C	0.954710	-0.064331	0.406642
H73	H	0.895016	-0.066005	0.381148
H74	H	0.950853	-0.031481	0.477010
C75	C	1.069398	-0.175033	0.414782
C76	C	0.996083	-0.177097	0.383464
H77	H	1.094919	-0.244592	0.400488
H78	H	1.096831	-0.131460	0.391690
H79	H	1.066173	-0.147653	0.473420
H80	H	0.999309	-0.204464	0.324827
H81	H	0.968651	-0.220678	0.406545
O82	O	0.894788	-0.333017	0.287140
C83	C	0.828881	-0.347698	0.327920
H84	H	0.805782	-0.423153	0.291005
H85	H	0.784021	-0.277638	0.333103
C86	C	0.877059	-0.263775	0.460667
C87	C	0.848692	-0.356454	0.415332
H88	H	0.889277	-0.269171	0.514588
H89	H	0.921461	-0.253880	0.433194
H90	H	0.839671	-0.205401	0.464978
H91	H	0.886083	-0.414824	0.411013
H92	H	0.804297	-0.366359	0.442806
H93	H	0.891582	-0.540124	0.230815
H94	H	0.891648	-0.540045	-0.175936
H95	H	0.521567	0.144124	0.162372
H96	H	0.896346	-0.242184	0.164319
H97	H	0.897388	-0.177275	0.092694
H98	H	0.894283	-0.375846	-0.212595
H99	H	0.987499	0.011691	0.636838
O100	O	0.793441	0.282287	0.269083
C101	C	0.748205	0.345345	0.337481
H102	H	0.779243	0.346482	0.397206
H103	H	0.691880	0.311364	0.339006
C104	C	0.694829	0.457199	0.256098
C105	C	0.732953	0.458603	0.329454
H106	H	0.685417	0.527060	0.251146
H107	H	0.725303	0.414714	0.210016
H108	H	0.647895	0.428876	0.257378
H109	H	0.779889	0.486913	0.328168
H110	H	0.702487	0.501096	0.375535
O111	O	0.118028	0.135372	0.171854
C112	C	0.129037	0.226650	0.235613
H113	H	0.144945	0.290642	0.207198
H114	H	0.176737	0.207125	0.276441
C115	C	0.035602	0.187691	0.323394
C116	C	0.055134	0.266291	0.288493
H117	H	-0.009983	0.212143	0.356016
H118	H	0.028187	0.126194	0.280440
H119	H	0.075358	0.171428	0.357411
H120	H	0.015383	0.282544	0.254469
H121	H	0.062541	0.327793	0.331443
H122	H	0.987512	0.011696	0.788240
O123	O	0.897443	-0.168518	-0.178964
C124	C	0.832953	-0.093189	-0.166941
H125	H	0.811414	-0.072764	-0.099756
H126	H	0.786429	-0.126971	-0.209888
C127	C	0.880907	-0.017948	-0.269067
C128	C	0.854455	0.007146	-0.186548
H129	H	0.894168	0.043942	-0.281165
H130	H	0.924353	-0.068700	-0.277170
H131	H	0.842131	-0.046101	-0.304847
H132	H	0.893233	0.035286	-0.150770
H133	H	0.811015	0.057905	-0.178439
H134	H	0.801567	0.270992	0.844471
O135	O	0.793472	0.282311	0.689098
C136	C	0.748241	0.345367	0.757500
H137	H	0.779283	0.346499	0.817222
H138	H	0.691916	0.311387	0.759028
C139	C	0.694859	0.457230	0.676127
C140	C	0.732989	0.458627	0.749479
H141	H	0.685448	0.527093	0.671178
H142	H	0.725330	0.414746	0.630042
H143	H	0.647926	0.428908	0.677410
H144	H	0.779925	0.486936	0.748191
H145	H	0.702526	0.501118	0.795564
H146	H	0.801531	0.270957	0.424465
H147	H	0.267443	0.138509	0.161153
H148	H	0.267462	0.138503	-0.101088
O149	O	0.118100	0.135338	-0.113176
C150	C	0.129088	0.226638	-0.137349
H151	H	0.183647	0.258200	-0.109965
H152	H	0.078849	0.289282	-0.113750
C153	C	0.068246	0.160348	-0.266256
C154	C	0.135259	0.199108	-0.232629
H155	H	0.072049	0.143368	-0.325029
H156	H	0.060840	0.098839	-0.249969
H157	H	0.026387	0.212557	-0.246582
H158	H	0.177115	0.146894	-0.252294
H159	H	0.142672	0.260608	-0.248921
O160	O	0.670903	0.147517	-0.110556
C161	C	0.619140	0.146349	-0.174596
H162	H	0.559828	0.178313	-0.146480
H163	H	0.618428	0.061996	-0.215105
C164	C	0.716528	0.176583	-0.262342
C165	C	0.643681	0.215850	-0.227809
H166	H	0.731667	0.219450	-0.295169
H167	H	0.751403	0.177366	-0.219198
H168	H	0.715925	0.106290	-0.296094
H169	H	0.644287	0.286137	-0.194049
H170	H	0.608807	0.215081	-0.270948
