data_functionalizedCrystal
_audit_creation_method	'MofGen! by Chris Wilmer'
_symmetry_space_group_name_H-M	'P1'
_symmetry_Int_Tables_number	1
_symmetry_cell_setting	triclinic
loop_
_symmetry_equiv_pos_as_xyz
  x,y,z
_cell_length_a	19.077105
_cell_length_b	16.120484
_cell_length_c	19.077174
_cell_angle_alpha	95.281307
_cell_angle_beta	85.483752
_cell_angle_gamma	90.738523
loop_
_atom_site_label
_atom_site_type_symbol
_atom_site_fract_x
_atom_site_fract_y
_atom_site_fract_z
Zn1	Zn	1.077028	-0.405078	-0.458497
Zn2	Zn	1.577028	0.094922	0.041503
Zn3	Zn	1.066713	-0.538658	-0.346101
Zn4	Zn	1.566713	-0.038658	0.153899
Zn5	Zn	0.954893	-0.393424	-0.335415
Zn6	Zn	1.454893	0.106576	0.164585
Zn7	Zn	0.953609	-0.538603	-0.459216
Zn8	Zn	1.453609	-0.038603	0.040784
O9	O	1.013061	-0.468941	-0.399807
O10	O	1.513061	0.031059	0.100193
O11	O	1.174108	-0.427698	-0.447758
O12	O	1.674108	0.072302	0.052242
O13	O	1.048100	-0.514538	-0.245834
O14	O	1.548100	-0.014538	0.254166
O15	O	0.975948	-0.278308	-0.346969
O16	O	1.475948	0.221692	0.153031
O17	O	1.166530	-0.525838	-0.365181
O18	O	1.666530	-0.025838	0.134819
O19	O	1.065680	-0.286870	-0.437397
O20	O	1.565680	0.213130	0.062603
O21	O	0.965946	-0.407835	-0.237983
O22	O	1.465946	0.092165	0.262017
O23	O	0.856274	-0.407782	-0.347667
O24	O	1.356274	0.092218	0.152333
O25	O	0.973761	-0.525745	-0.557970
O26	O	1.473761	-0.025745	-0.057970
O27	O	0.855331	-0.514445	-0.438623
O28	O	1.355331	-0.014445	0.061377
O29	O	1.064436	-0.427645	-0.557441
O30	O	1.564436	0.072355	-0.057441
O31	O	1.046856	-0.655312	-0.365879
O32	O	1.546856	-0.155312	0.134121
O33	O	0.963759	-0.655272	-0.448984
O34	O	1.463759	-0.155272	0.051016
C35	C	0.830276	-0.459844	-0.392064
C36	C	1.330276	0.040156	0.107936
C37	C	0.752080	-0.455973	-0.388769
C38	C	1.252080	0.044027	0.111231
C39	C	0.714864	-0.509765	-0.434509
C40	C	1.214864	-0.009765	0.065491
C41	C	0.641391	-0.506117	-0.431416
C42	C	1.141391	-0.006117	0.068584
C43	C	0.605135	-0.448680	-0.382579
C44	C	1.105135	0.051320	0.117421
C45	C	0.642355	-0.394883	-0.336836
C46	C	1.142355	0.105117	0.163164
C47	C	0.715827	-0.398527	-0.339933
C48	C	1.215827	0.101473	0.160067
C49	C	0.385448	-0.431813	-0.368249
C50	C	0.885448	0.068187	0.131751
C51	C	0.311971	-0.428174	-0.365154
C52	C	0.811971	0.071826	0.134846
C53	C	0.311012	-0.539408	-0.459734
C54	C	0.811012	-0.039408	0.040266
C55	C	0.384485	-0.543051	-0.462824
C56	C	0.884485	-0.043051	0.037176
C57	C	0.421700	-0.489250	-0.417085
C58	C	0.921700	0.010750	0.082915
N59	N	0.530033	-0.444952	-0.379414
N60	N	1.030033	0.055048	0.120586
N61	N	0.496800	-0.492975	-0.420253
N62	N	0.996800	0.007025	0.079747
C63	C	1.004068	-0.685543	-0.408685
C64	C	1.504068	-0.185543	0.091315
C65	C	1.000287	-0.778211	-0.412510
C66	C	1.500287	-0.278211	0.087490
C67	C	0.993387	-0.947877	-0.419507
C68	C	1.493387	-0.447877	0.080493
C69	C	1.032861	-0.989171	-0.380125
C70	C	1.532861	-0.489171	0.119875
C71	C	1.029022	-1.083579	-0.384018
C72	C	1.529022	-0.583579	0.115982
C73	C	0.997225	-0.853460	-0.415614
C74	C	1.497225	-0.353460	0.084386
C75	C	1.196559	-0.478074	-0.407581
C76	C	1.696559	0.021926	0.092419
C77	C	1.274755	-0.481966	-0.410894
C78	C	1.774755	0.018034	0.089106
C79	C	1.020106	-0.477989	-0.584053
C80	C	1.520106	0.022011	-0.084053
C81	C	1.023108	-0.481845	-0.662568
C82	C	1.523108	0.018155	-0.162568
C83	C	1.022108	-0.251494	-0.390911
C84	C	1.522108	0.248506	0.109089
C85	C	1.025963	-0.158832	-0.387120
C86	C	1.525963	0.341168	0.112880
C87	C	0.981747	-0.428103	-0.695366
C88	C	1.481747	0.071897	-0.195366
C89	C	0.984565	-0.431733	-0.769139
C90	C	1.484565	0.068267	-0.269139
C91	C	1.028748	-0.489101	-0.810112
C92	C	1.528748	0.010899	-0.310112
C93	C	1.070110	-0.542848	-0.777309
C94	C	1.570110	-0.042848	-0.277309
C95	C	1.067288	-0.539222	-0.703537
C96	C	1.567288	-0.039222	-0.203537
C97	C	1.041771	-0.505907	-1.031184
C98	C	1.541771	-0.005907	-0.531184
C99	C	1.044591	-0.509528	-1.104961
C100	C	1.544591	-0.009528	-0.604961
C101	C	0.959044	-0.398413	-1.096786
C102	C	1.459044	0.101587	-0.596786
C103	C	0.956230	-0.394788	-1.023013
C104	C	1.456230	0.105212	-0.523013
C105	C	0.997589	-0.448538	-0.990216
C106	C	1.497589	0.051462	-0.490216
N107	N	1.031631	-0.492811	-0.885520
N108	N	1.531631	0.007189	-0.385520
N109	N	0.994702	-0.444832	-0.914810
N110	N	1.494702	0.055168	-0.414810
C111	C	1.006086	-0.459870	-0.216277
C112	C	1.506086	0.040130	0.283723
C113	C	1.003230	-0.455786	-0.137759
C114	C	1.503230	0.044214	0.362241
H115	H	0.744379	-0.556538	-0.474275
H116	H	1.244379	-0.056538	0.025725
O117	O	1.081847	-0.558196	-0.999303
O118	O	1.581847	-0.058196	-0.499303
C119	C	1.083456	-0.667107	-0.920995
C120	C	1.583456	-0.167107	-0.420995
C121	C	1.037982	-0.607946	-0.957070
C122	C	1.537982	-0.107946	-0.457070
H123	H	1.048011	-0.707332	-0.886830
H124	H	1.548011	-0.207332	-0.386830
H125	H	1.115503	-0.708783	-0.962927
H126	H	1.615503	-0.208783	-0.462927
H127	H	1.120531	-0.628953	-0.886481
H128	H	1.620531	-0.128953	-0.386481
H129	H	1.000867	-0.646034	-0.991580
H130	H	1.500867	-0.146034	-0.491580
H131	H	1.005983	-0.566268	-0.915101
H132	H	1.505983	-0.066268	-0.415101
O133	O	0.913365	-0.339091	-0.983109
O134	O	1.413365	0.160909	-0.483109
C135	C	0.871068	-0.284304	-0.865838
C136	C	1.371068	0.215696	-0.365838
C137	C	0.919653	-0.347408	-0.910945
C138	C	1.419653	0.152592	-0.410945
H139	H	0.876124	-0.291019	-0.807484
H140	H	1.376124	0.208981	-0.307484
H141	H	0.886770	-0.218386	-0.878061
H142	H	1.386770	0.281614	-0.378061
H143	H	0.814296	-0.296831	-0.878582
H144	H	1.314296	0.203169	-0.378582
H145	H	0.976439	-0.334958	-0.898226
H146	H	1.476439	0.165042	-0.398226
H147	H	0.903892	-0.413305	-0.898714
H148	H	1.403892	0.086695	-0.398714
O149	O	0.938888	-0.372400	-0.655462
O150	O	1.438888	0.127600	-0.155462
C151	C	0.896590	-0.317603	-0.538194
C152	C	1.396590	0.182397	-0.038194
C153	C	0.945174	-0.380712	-0.583297
C154	C	1.445174	0.119288	-0.083297
H155	H	0.901645	-0.324313	-0.479840
H156	H	1.401645	0.175687	0.020160
H157	H	0.912295	-0.251687	-0.550421
H158	H	1.412295	0.248313	-0.050421
H159	H	0.839819	-0.330128	-0.550939
H160	H	1.339819	0.169872	-0.050939
H161	H	1.001960	-0.368263	-0.570578
H162	H	1.501960	0.131737	-0.070578
H163	H	0.929410	-0.446607	-0.571063
H164	H	1.429410	0.053393	-0.071063
H165	H	0.925371	-0.354653	-1.123497
H166	H	1.425371	0.145347	-0.623497
H167	H	1.080573	-0.556245	-1.138320
H168	H	1.580573	-0.056245	-0.638320
H169	H	1.100974	-0.582978	-0.676834
H170	H	1.600974	-0.082978	-0.176834
H171	H	1.069539	-0.953621	-0.343484
H172	H	1.569539	-0.453621	0.156516
O173	O	0.419811	-0.598811	-0.510209
O174	O	0.919811	-0.098811	-0.010209
C175	C	0.532577	-0.653673	-0.556936
C176	C	1.032577	-0.153673	-0.056936
C177	C	0.492657	-0.590498	-0.503227
C178	C	0.992657	-0.090498	-0.003227
H179	H	0.591481	-0.646961	-0.551319
H180	H	1.091481	-0.146961	-0.051319
H181	H	0.514918	-0.719568	-0.546593
H182	H	1.014918	-0.219568	-0.046593
H183	H	0.520879	-0.641218	-0.612699
H184	H	1.020879	-0.141218	-0.112699
H185	H	0.504336	-0.602876	-0.447443
H186	H	1.004336	-0.102876	0.052557
H187	H	0.510321	-0.524624	-0.513631
H188	H	1.010321	-0.024624	-0.013631
O189	O	0.274755	-0.591576	-0.504137
O190	O	0.774755	-0.091576	-0.004137
C191	C	0.161141	-0.635294	-0.541261
C192	C	0.661141	-0.135294	-0.041261
C193	C	0.202113	-0.576152	-0.490941
C194	C	0.702113	-0.076152	0.009059
H195	H	0.102402	-0.622856	-0.530600
H196	H	0.602402	-0.122856	-0.030600
H197	H	0.178330	-0.624268	-0.598266
H198	H	0.678330	-0.124268	-0.098266
H199	H	0.172362	-0.702590	-0.532137
H200	H	0.672362	-0.202590	-0.032137
H201	H	0.190913	-0.508833	-0.500001
H202	H	0.690913	-0.008833	-0.000001
H203	H	0.184918	-0.587250	-0.433953
H204	H	0.684918	-0.087250	0.066047
H205	H	0.956711	-0.983424	-0.456143
H206	H	1.456711	-0.483424	0.043857
H207	H	0.282453	-0.381393	-0.325388
H208	H	0.782453	0.118607	0.174612
H209	H	0.950882	-0.387973	-0.795840
H210	H	1.450882	0.112027	-0.295840
O211	O	1.113125	-0.598536	-0.817033
O212	O	1.613125	-0.098536	-0.317033
C213	C	1.231979	-0.646038	-0.846359
C214	C	1.731979	-0.146038	-0.346359
C215	C	1.183340	-0.582936	-0.801318
C216	C	1.683340	-0.082936	-0.301318
H217	H	1.288759	-0.633436	-0.833680
H218	H	1.788759	-0.133436	-0.333680
H219	H	1.216330	-0.711949	-0.834070
H220	H	1.716330	-0.211949	-0.334070
H221	H	1.226856	-0.639409	-0.904715
H222	H	1.726856	-0.139409	-0.404715
H223	H	1.188438	-0.589489	-0.742949
H224	H	1.688438	-0.089489	-0.242949
H225	H	1.199003	-0.517050	-0.813666
H226	H	1.699003	-0.017050	-0.313666
O227	O	0.421482	-0.379518	-0.323747
O228	O	0.921482	0.120482	0.176253
C229	C	0.414676	-0.268764	-0.229644
C230	C	0.914676	0.231236	0.270356
C231	C	0.373776	-0.327958	-0.279990
C232	C	0.873776	0.172042	0.220010
H233	H	0.376124	-0.227051	-0.194264
H234	H	0.876124	0.272949	0.305736
H235	H	0.446052	-0.306808	-0.195618
H236	H	0.946052	0.193192	0.304382
H237	H	0.452142	-0.228570	-0.261819
H238	H	0.952142	0.271430	0.238181
H239	H	0.336273	-0.368165	-0.247871
H240	H	0.836273	0.131835	0.252129
H241	H	0.342446	-0.289865	-0.314018
H242	H	0.842446	0.210135	0.185982
O243	O	0.607097	-0.339200	-0.289327
O244	O	1.107097	0.160800	0.210673
C245	C	0.520918	-0.319003	-0.190039
C246	C	1.020918	0.180997	0.309961
C247	C	0.560809	-0.382155	-0.243791
C248	C	1.060809	0.117845	0.256209
H249	H	0.483474	-0.353707	-0.153218
H250	H	0.983474	0.146293	0.346782
H251	H	0.560103	-0.281189	-0.157826
H252	H	1.060103	0.218811	0.342174
H253	H	0.489607	-0.275351	-0.219316
H254	H	0.989607	0.224649	0.280684
H255	H	0.592120	-0.425861	-0.214570
H256	H	1.092120	0.074139	0.285430
H257	H	0.521588	-0.419909	-0.276001
H258	H	1.021588	0.080091	0.223999
H259	H	0.746127	-0.354720	-0.302690
H260	H	1.246127	0.145280	0.197310
H261	H	0.611094	-0.549920	-0.468662
H262	H	1.111094	-0.049920	0.031338
