data_functionalizedCrystal
_audit_creation_method	'MofGen! by Chris Wilmer'
_symmetry_space_group_name_H-M	'P1'
_symmetry_Int_Tables_number	1
_symmetry_cell_setting	triclinic
loop_
_symmetry_equiv_pos_as_xyz
  x,y,z
_cell_length_a	13.635800
_cell_length_b	10.992723
_cell_length_c	17.982968
_cell_angle_alpha	85.811984
_cell_angle_beta	77.548040
_cell_angle_gamma	108.770285
loop_
_atom_site_label
_atom_site_type_symbol
_atom_site_fract_x
_atom_site_fract_y
_atom_site_fract_z
V1	V	-2.021121	-0.178966	0.237542
O2	O	-2.000852	0.007362	0.233027
O3	O	-2.010174	-0.353669	0.235911
O4	O	-1.994207	-0.176757	0.341145
O5	O	-2.016930	-0.170775	0.127064
V6	V	-2.261570	-0.156615	0.224329
O7	O	-2.154631	-0.227995	0.266526
O8	O	-2.353158	-0.107586	0.195344
O9	O	-2.160913	0.018088	0.225960
O10	O	-2.340537	-0.342943	0.228843
O11	O	-2.324459	-0.164806	0.334806
O12	O	-2.176880	-0.158824	0.120725
V13	V	-1.521121	-0.178966	0.237542
O14	O	-1.500852	0.007362	0.233027
O15	O	-1.510174	-0.353669	0.235911
O16	O	-1.494207	-0.176757	0.341145
O17	O	-1.516930	-0.170775	0.127064
V18	V	-1.761570	-0.156615	0.224329
O19	O	-1.654631	-0.227995	0.266526
O20	O	-1.853158	-0.107586	0.195344
O21	O	-1.660913	0.018088	0.225960
O22	O	-1.840537	-0.342943	0.228843
O23	O	-1.824459	-0.164806	0.334806
O24	O	-1.676880	-0.158824	0.120725
C25	C	-1.935987	-0.396240	0.232162
C26	C	-1.967661	-0.539065	0.231518
C27	C	-2.123113	-0.750023	0.234906
C28	C	-2.090329	-0.601549	0.235869
C29	C	-1.945498	-0.608635	0.302085
C30	C	-1.979168	-0.757305	0.301503
C31	C	-1.935565	-0.718293	0.155853
C32	C	-1.904420	-0.569571	0.155645
C33	C	-1.915618	-0.170570	0.366397
C34	C	-1.934343	-0.169919	0.451094
C35	C	-2.066773	0.060653	0.229707
C36	C	-2.024717	0.203476	0.230355
C37	C	-2.087140	-0.165015	0.095469
C38	C	-2.058035	-0.165659	0.010772
C39	C	-1.435987	-0.396240	0.232162
C40	C	-1.467661	-0.539065	0.231518
C41	C	-1.415618	-0.170570	0.366397
C42	C	-1.434343	-0.169919	0.451094
C43	C	-2.034588	-0.176052	0.494765
C44	C	-2.052175	-0.175440	0.574346
C45	C	-1.969518	-0.168704	0.610254
C46	C	-1.869264	-0.162567	0.566577
C47	C	-1.851676	-0.163170	0.486997
C48	C	-1.940193	-0.160134	0.887514
C49	C	-1.957791	-0.159536	0.967100
C50	C	-2.140693	-0.172404	0.974863
C51	C	-2.123105	-0.173007	0.895283
C52	C	-2.022851	-0.166863	0.851611
C53	C	-2.003781	-0.167524	0.765321
C54	C	-1.988589	-0.168052	0.696544
C55	C	-1.566773	0.060653	0.229707
C56	C	-1.524717	0.203476	0.230355
C57	C	-1.587140	-0.165015	0.095469
C58	C	-1.558035	-0.165659	0.010772
C59	C	-1.534592	-0.176039	0.494751
C60	C	-1.552195	-0.175411	0.574331
C61	C	-1.469551	-0.168672	0.610253
C62	C	-1.369292	-0.162548	0.566589
C63	C	-1.351688	-0.163167	0.487010
C64	C	-1.458448	-0.172384	-0.025130
C65	C	-1.431081	-0.172973	-0.104713
C66	C	-1.503306	-0.166848	-0.148391
C67	C	-1.602901	-0.160119	-0.112484
C68	C	-1.630263	-0.159520	-0.032903
C69	C	-1.402301	-0.734328	0.226313
C70	C	-1.369191	-0.585684	0.226680
C71	C	-1.513743	-0.577341	0.160469
C72	C	-1.545988	-0.725882	0.159720
C73	C	-1.589659	-0.765202	0.305369
C74	C	-1.554885	-0.616695	0.306908
H75	H	-2.110428	-0.554143	0.185432
H76	H	-1.661698	-0.155129	-0.148059
H77	H	-1.302008	-0.157062	0.595849
H78	H	-1.270054	-0.158186	0.451470
F79	F	-1.474171	-0.167490	-0.233087
H80	H	-1.499143	-0.743111	0.103309
F81	F	-1.488303	-0.168018	0.694950
H82	H	-1.303053	-0.532967	0.172551
H83	H	-2.222325	-0.177401	1.010429
F84	F	-1.736264	-0.152380	0.005299
H85	H	-1.628570	-0.586527	0.314842
F86	F	-1.432921	-0.506081	0.087517
F87	F	-2.060486	-0.825416	0.374836
H88	H	-2.189372	-0.804432	0.288655
F89	F	-1.381563	-0.178903	0.021341
H90	H	-1.906995	-0.788336	0.301308
F91	F	-1.833503	-0.153623	0.841048
F92	F	-1.321784	-0.552339	0.293032
F93	F	-1.869810	-0.152365	1.005314
H94	H	-1.381743	-0.781005	0.276767
H95	H	-1.801963	-0.157076	0.595819
F96	F	-1.786576	-0.511968	0.145724
H97	H	-2.140697	-0.583179	0.290317
F98	F	-1.608752	-0.537826	0.161536
F99	F	-1.830002	-0.555782	0.301430
H100	H	-1.349983	-0.178452	-0.133937
H101	H	-1.352607	-0.754614	0.172230
H102	H	-2.190416	-0.178498	0.866051
F103	F	-1.661175	-0.779324	0.159576
F104	F	-2.004744	-0.582623	0.375473
H105	H	-1.578342	-0.814992	0.359132
F106	F	-2.122569	-0.183230	0.456557
H107	H	-1.963504	-0.743476	0.101754
F108	F	-1.512440	-0.585821	0.375616
F109	F	-1.706463	-0.818955	0.310234
H110	H	-1.921263	-0.522712	0.103396
F111	F	-2.158872	-0.181980	0.620822
F112	F	-1.744979	-0.156634	0.440517
H113	H	-2.159582	-0.774933	0.184167
H114	H	-1.861793	-0.747467	0.151818
H115	H	-1.601899	-0.181530	0.465515
H116	H	-1.633838	-0.180404	0.609872
