data_functionalizedCrystal
_audit_creation_method	'MofGen! by Chris Wilmer'
_symmetry_space_group_name_H-M	'P1'
_symmetry_Int_Tables_number	1
_symmetry_cell_setting	triclinic
loop_
_symmetry_equiv_pos_as_xyz
  x,y,z
_cell_length_a	11.169417
_cell_length_b	12.759400
_cell_length_c	11.169409
_cell_angle_alpha	90.033794
_cell_angle_beta	90.019513
_cell_angle_gamma	90.015934
loop_
_atom_site_label
_atom_site_type_symbol
_atom_site_fract_x
_atom_site_fract_y
_atom_site_fract_z
Zn1	Zn	1.834926	-0.418146	0.678521
Zn2	Zn	2.334926	0.081854	1.178521
Zn3	Zn	1.834800	-0.593872	0.477832
Zn4	Zn	2.334800	-0.093872	0.977832
Zn5	Zn	1.634212	-0.418211	0.477856
Zn6	Zn	2.134212	0.081789	0.977856
Zn7	Zn	1.634204	-0.593788	0.678478
Zn8	Zn	2.134204	-0.093788	1.178478
O9	O	1.734536	-0.506004	0.578172
O10	O	2.234536	-0.006004	1.078172
O11	O	2.002859	-0.441465	0.651907
O12	O	2.502859	0.058535	1.151907
O13	O	1.808142	-0.570633	0.309886
O14	O	2.308142	-0.070633	0.809886
O15	O	1.660893	-0.271182	0.504502
O16	O	2.160893	0.228818	1.004502
O17	O	2.002767	-0.570570	0.504462
O18	O	2.502767	-0.070570	1.004462
O19	O	1.808357	-0.271134	0.651930
O20	O	2.308357	0.228866	1.151930
O21	O	1.660771	-0.441576	0.309903
O22	O	2.160771	0.058424	0.809903
O23	O	1.466261	-0.441494	0.504461
O24	O	1.966261	0.058506	1.004461
O25	O	1.660880	-0.570426	0.846434
O26	O	2.160880	-0.070426	1.346434
O27	O	1.466256	-0.570489	0.651858
O28	O	1.966256	-0.070489	1.151858
O29	O	1.808349	-0.441383	0.846465
O30	O	2.308349	0.058617	1.346465
O31	O	1.808135	-0.740882	0.504421
O32	O	2.308135	-0.240882	1.004421
O33	O	1.660758	-0.740820	0.651835
O34	O	2.160758	-0.240820	1.151835
C35	C	1.422711	-0.505990	0.578158
C36	C	1.922711	-0.005990	1.078158
C37	C	1.289311	-0.506009	0.578181
C38	C	1.789311	-0.006009	1.078181
C39	C	1.734464	-0.778972	0.578147
C40	C	2.234464	-0.278972	1.078147
C41	C	1.734544	-0.895748	0.578176
C42	C	2.234544	-0.395748	1.078176
C43	C	1.811368	-0.950608	0.501503
C44	C	2.311368	-0.450608	1.001503
C45	C	1.811442	-1.060332	0.501540
C46	C	2.311442	-0.560332	1.001540
C47	C	1.657856	-1.060327	0.654927
C48	C	2.157856	-0.560327	1.154927
C49	C	1.657790	-0.950605	0.654895
C50	C	2.157790	-0.450605	1.154895
C51	C	1.888122	-0.895751	0.424784
C52	C	2.388122	-0.395751	0.924784
C53	C	1.964952	-0.950610	0.348103
C54	C	2.464952	-0.450610	0.848103
C55	C	1.965025	-1.060334	0.348140
C56	C	2.465025	-0.560334	0.848140
C57	C	1.888270	-1.115199	0.424858
C58	C	2.388270	-0.615199	0.924858
C59	C	2.047578	-0.506019	0.578186
C60	C	2.547578	-0.006019	1.078186
C61	C	2.180978	-0.506026	0.578193
C62	C	2.680978	-0.006026	1.078193
C63	C	1.734628	-0.505888	0.891214
C64	C	2.234628	-0.005888	1.391214
C65	C	1.734667	-0.505838	1.024615
C66	C	2.234667	-0.005838	1.524615
C67	C	1.734640	-0.231971	0.578223
C68	C	2.234640	0.268029	1.078223
C69	C	1.734684	-0.115194	0.578245
C70	C	2.234684	0.384806	1.078245
C71	C	1.734513	-0.506045	0.266347
C72	C	2.234513	-0.006045	0.766347
C73	C	1.734706	-0.505798	0.132948
C74	C	2.234706	-0.005798	0.632948
H75	H	1.888067	-0.806408	0.424742
H76	H	2.388067	-0.306408	0.924742
H77	H	2.027592	-1.104998	0.285712
H78	H	2.527592	-0.604998	0.785712
H79	H	2.027451	-0.905934	0.285649
H80	H	2.527451	-0.405934	0.785649
H81	H	1.595365	-1.105007	0.717386
H82	H	2.095365	-0.605007	1.217386
H83	H	1.888345	-1.204543	0.424891
H84	H	2.388345	-0.704543	0.924891
H85	H	1.595233	-0.905938	0.717331
H86	H	2.095233	-0.405938	1.217331
