data_functionalizedCrystal
_audit_creation_method	'MofGen! by Chris Wilmer'
_symmetry_space_group_name_H-M	'P1'
_symmetry_Int_Tables_number	1
_symmetry_cell_setting	triclinic
loop_
_symmetry_equiv_pos_as_xyz
  x,y,z
_cell_length_a	17.019372
_cell_length_b	17.038272
_cell_length_c	9.130313
_cell_angle_alpha	89.995195
_cell_angle_beta	93.872896
_cell_angle_gamma	87.242864
loop_
_atom_site_label
_atom_site_type_symbol
_atom_site_fract_x
_atom_site_fract_y
_atom_site_fract_z
O1	O	1.053348	0.099573	0.010941
O2	O	0.824539	0.112280	-0.017897
O3	O	0.937584	-0.007888	-0.003638
O4	O	0.940304	0.219741	-0.003318
O5	O	0.937575	-0.007891	0.239960
O6	O	0.824530	0.112277	0.225701
O7	O	1.053340	0.099570	0.254539
Cu8	Cu	0.938934	0.105923	0.262362
Cu9	Cu	0.938944	0.105927	-0.025720
O10	O	0.940295	0.219737	0.240280
C11	C	0.795113	0.111798	0.100194
C12	C	0.707447	0.110355	0.089146
C13	C	0.211628	0.102174	0.019899
C14	C	0.294000	0.103529	0.030300
C15	C	0.335172	0.104210	0.168287
C16	C	0.293970	0.103528	0.295881
C17	C	0.211600	0.102168	0.285478
C18	C	0.583875	0.108313	0.206338
C19	C	0.666251	0.109676	0.216731
C20	C	0.666275	0.109675	-0.048852
C21	C	0.583903	0.108319	-0.059242
C22	C	0.542708	0.107633	0.068352
C23	C	0.419369	0.105598	0.178921
C24	C	0.458513	0.106240	0.057716
C25	C	0.935106	-0.037015	0.117849
C26	C	0.927726	-0.123802	0.116919
C27	C	0.995485	-0.173976	0.125460
C28	C	0.988546	-0.255520	0.124572
C29	C	0.913846	-0.286889	0.115152
C30	C	0.846082	-0.236708	0.106606
C31	C	0.853022	-0.155166	0.107484
C32	C	0.889329	-0.532625	0.112042
C33	C	0.882394	-0.614174	0.111169
C34	C	1.024858	-0.632981	0.129132
C35	C	1.031792	-0.551435	0.130018
C36	C	0.964027	-0.501262	0.121464
C37	C	0.906752	-0.370240	0.114248
C38	C	0.971123	-0.417912	0.122358
C39	C	1.082765	0.100052	0.136444
C40	C	1.170431	0.101494	0.147483
C41	C	0.942773	0.248865	0.118790
C42	C	0.950153	0.335652	0.119710
N43	N	0.938933	0.105920	0.464985
N44	N	0.938952	0.105924	-0.228342
C45	C	0.989009	0.052732	0.547953
C46	C	0.989016	0.052732	0.701291
C47	C	0.888870	0.159115	0.688678
C48	C	0.888859	0.159110	0.535343
H49	H	0.699825	0.110232	-0.152731
H50	H	0.178058	0.101623	0.389372
H51	H	0.699771	0.110237	0.329102
Cl52	Cl	0.812847	-0.409682	0.102399
H53	H	1.029791	0.009420	0.768840
H54	H	0.848102	0.202422	0.745980
Cl55	Cl	1.065027	-0.378476	0.134191
H56	H	0.848078	0.202423	0.467785
H57	H	0.178111	0.101624	-0.092465
H58	H	0.327539	0.104077	-0.073594
Cl59	Cl	1.051955	-0.014140	0.459509
H60	H	0.550386	0.107763	-0.171605
Cl61	Cl	0.345730	0.104384	0.469351
Cl62	Cl	0.532097	0.107472	0.366744
H63	H	0.424987	0.105682	-0.054632
Cl64	Cl	0.471136	0.106463	0.352386
Cl65	Cl	1.110042	-0.696059	0.139881
Cl66	Cl	1.089397	-0.134550	0.137317
Cl67	Cl	1.073733	-0.318593	0.135314
H68	H	1.092619	-0.525902	0.137689
H69	H	0.834150	-0.491783	0.105077
Cl70	Cl	0.788479	-0.653607	0.099335
Cl71	Cl	0.752174	-0.276143	0.094746
H72	H	0.797845	-0.114314	0.100528
