data_functionalizedCrystal
_audit_creation_method	'MofGen! by Chris Wilmer'
_symmetry_space_group_name_H-M	'P1'
_symmetry_Int_Tables_number	1
_symmetry_cell_setting	triclinic
loop_
_symmetry_equiv_pos_as_xyz
  x,y,z
_cell_length_a	12.759401
_cell_length_b	12.759394
_cell_length_c	12.759401
_cell_angle_alpha	90.008249
_cell_angle_beta	90.001129
_cell_angle_gamma	90.014998
loop_
_atom_site_label
_atom_site_type_symbol
_atom_site_fract_x
_atom_site_fract_y
_atom_site_fract_z
Zn1	Zn	1.606074	-0.418449	0.593976
Zn2	Zn	1.606021	-0.594095	0.418294
Zn3	Zn	1.430430	-0.418431	0.418315
Zn4	Zn	1.430364	-0.594087	0.593935
O5	O	1.518222	-0.506265	0.506130
O6	O	1.753088	-0.441760	0.570679
O7	O	1.582734	-0.570788	0.271275
O8	O	1.453778	-0.271412	0.441643
O9	O	1.753049	-0.570806	0.441606
O10	O	1.582824	-0.271426	0.570700
O11	O	1.453727	-0.441728	0.271291
O12	O	1.283400	-0.441721	0.441603
O13	O	1.453668	-0.570793	0.740961
O14	O	1.283352	-0.570775	0.570631
O15	O	1.582761	-0.441753	0.740991
O16	O	1.582671	-0.741115	0.441567
O17	O	1.453616	-0.741109	0.570610
C18	C	1.245255	-0.506246	0.506116
C19	C	1.128478	-0.506263	0.506134
C20	C	1.518159	-0.779233	0.506104
C21	C	1.518228	-0.896010	0.506129
C22	C	1.073619	-0.573569	0.573208
C23	C	0.963895	-0.573583	0.573219
C24	C	0.963899	-0.438981	0.439075
C25	C	1.073621	-0.438963	0.439070
C26	C	1.073616	-0.651284	0.650652
C27	C	0.963892	-0.651297	0.650663
C28	C	1.652714	-0.895962	0.371857
C29	C	1.719984	-0.950799	0.304733
C30	C	1.720045	-1.060520	0.304762
C31	C	1.652832	-1.115407	0.371923
C32	C	1.585562	-1.060571	0.439047
C33	C	1.585505	-0.950847	0.439009
C34	C	1.451084	-1.060618	0.573322
C35	C	1.451015	-0.950897	0.573290
C36	C	1.383870	-1.115506	0.640484
C37	C	1.316593	-1.060669	0.707604
C38	C	1.316534	-0.950941	0.707572
C39	C	1.383745	-0.896060	0.640414
C40	C	1.792256	-0.506286	0.506145
C41	C	1.909032	-0.506294	0.506151
C42	C	1.518213	-0.506275	0.780163
C43	C	1.518209	-0.506278	0.896940
C44	C	1.518314	-0.232232	0.506178
C45	C	1.518354	-0.115455	0.506199
C46	C	1.585387	-0.573474	1.061514
C47	C	1.585378	-0.573474	0.951790
C48	C	1.451036	-0.439085	0.951819
C49	C	1.451040	-0.439091	1.061541
C50	C	1.662951	-0.651059	1.061497
C51	C	1.662943	-0.651059	0.951773
C52	C	1.518222	-0.506282	1.233162
C53	C	1.518222	-0.506283	1.116386
H54	H	1.118284	-0.384149	0.384459
C55	C	1.242534	-0.890624	0.781411
C56	C	1.287953	-0.815120	0.863909
C57	C	1.213952	-0.754809	0.937750
C58	C	1.094531	-0.770002	0.929092
C59	C	1.049105	-0.845509	0.846590
C60	C	1.123107	-0.905820	0.772749
H61	H	1.376361	-0.803871	0.870322
H62	H	1.247580	-0.698913	0.998824
H63	H	1.039751	-0.725355	0.983753
H64	H	0.960698	-0.856758	0.840177
H65	H	1.089479	-0.961716	0.711675
C66	C	1.633458	-0.760977	1.101704
C67	C	1.701611	-0.856198	1.072526
C68	C	1.672109	-0.966112	1.112730
C69	C	1.574454	-0.980804	1.182112
C70	C	1.506294	-0.885580	1.211294
C71	C	1.535796	-0.775666	1.171090
H72	H	1.773907	-0.845325	1.021163
H73	H	1.722566	-1.036604	1.091128
H74	H	1.552615	-1.062169	1.211874
H75	H	1.433998	-0.896453	1.262658
H76	H	1.485339	-0.705175	1.192692
C77	C	1.377152	-0.365185	1.121898
C78	C	1.257713	-0.373757	1.106807
C79	C	1.183821	-0.299846	1.167162
C80	C	1.229367	-0.217363	1.242608
C81	C	1.348811	-0.208787	1.257702
C82	C	1.422704	-0.282698	1.197347
H83	H	1.223992	-0.434819	1.050955
H84	H	1.095400	-0.306195	1.155988
H85	H	1.174667	-0.162650	1.287287
H86	H	1.382533	-0.147725	1.313555
H87	H	1.511125	-0.276349	1.208521
C88	C	1.377144	-0.365173	0.891487
C89	C	1.377131	-0.365165	0.770797
C90	C	1.303237	-0.291250	0.710468
C91	C	1.229356	-0.217342	0.770828
C92	C	1.229365	-0.217347	0.891525
C93	C	1.303259	-0.291262	0.951854
H94	H	1.431825	-0.419879	0.726108
H95	H	1.303231	-0.291247	0.621120
H96	H	1.174655	-0.162626	0.726169
H97	H	1.174671	-0.162633	0.936214
H98	H	1.303266	-0.291265	1.041202
C99	C	0.917924	-0.612109	0.755158
C100	C	0.943251	-0.670263	0.857824
C101	C	0.897284	-0.631072	0.962315
C102	C	0.825989	-0.533726	0.964141
C103	C	0.800658	-0.475566	0.861472
C104	C	0.846626	-0.514757	0.756980
H105	H	0.996031	-0.742330	0.856476
H106	H	0.916036	-0.674127	1.038318
H107	H	0.791961	-0.504715	1.041492
H108	H	0.747878	-0.403500	0.862820
H109	H	0.827874	-0.471702	0.680978
H110	H	1.740255	-0.621919	1.095533
H111	H	1.652897	-1.204749	0.371950
C112	C	0.903554	-0.364958	0.365301
C113	C	0.782864	-0.364971	0.365306
C114	C	0.722521	-0.290948	0.291529
C115	C	0.782869	-0.216912	0.217749
C116	C	0.903565	-0.216896	0.217742
C117	C	0.963908	-0.290920	0.291518
H118	H	0.738185	-0.419779	0.419925
H119	H	0.633173	-0.290960	0.291535
H120	H	0.738199	-0.162115	0.163135
H121	H	0.948244	-0.162088	0.163123
H122	H	1.053256	-0.290908	0.291513
C123	C	1.623544	-0.755477	0.905770
C124	C	1.589791	-0.844951	0.979395
C125	C	1.550389	-0.949364	0.933390
C126	C	1.544741	-0.964302	0.813759
C127	C	1.578495	-0.874825	0.740126
C128	C	1.617896	-0.770412	0.786131
H129	H	1.593971	-0.833895	1.067960
H130	H	1.525402	-1.015601	0.987899
H131	H	1.515573	-1.041595	0.779703
H132	H	1.574314	-0.885881	0.651561
H133	H	1.642883	-0.704176	0.731623
H134	H	1.383696	-0.806719	0.640374
H135	H	1.744317	-0.629263	0.921996
H136	H	1.103399	-0.629619	0.732059
H137	H	1.261879	-1.105367	0.762286
C138	C	0.923640	-0.761175	0.621024
C139	C	0.854259	-0.822868	0.698141
C140	C	0.814009	-0.932742	0.668502
C141	C	0.843139	-0.980921	0.561746
C142	C	0.912523	-0.919228	0.484622
C143	C	0.952774	-0.809355	0.514261
H144	H	0.832692	-0.787203	0.777174
H145	H	0.762646	-0.978411	0.725594
H146	H	0.813343	-1.062256	0.539805
H147	H	0.934090	-0.954893	0.405589
H148	H	1.004137	-0.763685	0.457168
C149	C	1.119587	-0.755629	0.611096
C150	C	1.190889	-0.757100	0.513732
C151	C	1.236860	-0.861444	0.474172
C152	C	1.211530	-0.964316	0.531976
C153	C	1.140224	-0.962849	0.629345
C154	C	1.094253	-0.858505	0.668905
H155	H	1.209644	-0.680944	0.470937
H156	H	1.289646	-0.862529	0.402093
H157	H	1.245560	-1.041558	0.502691
H158	H	1.121469	-1.039005	0.672140
H159	H	1.041467	-0.857419	0.740984
H160	H	1.652657	-0.806621	0.371813
H161	H	1.774710	-0.906100	0.250053
H162	H	1.774827	-1.105168	0.250109
H163	H	1.383930	-1.204847	0.640507
