data_functionalizedCrystal
_audit_creation_method	'MofGen! by Chris Wilmer'
_symmetry_space_group_name_H-M	'P1'
_symmetry_Int_Tables_number	1
_symmetry_cell_setting	triclinic
loop_
_symmetry_equiv_pos_as_xyz
  x,y,z
_cell_length_a	12.759401
_cell_length_b	12.594516
_cell_length_c	12.759393
_cell_angle_alpha	89.970876
_cell_angle_beta	89.981504
_cell_angle_gamma	90.016214
loop_
_atom_site_label
_atom_site_type_symbol
_atom_site_fract_x
_atom_site_fract_y
_atom_site_fract_z
Zn1	Zn	1.606246	-0.423675	-0.593999
Zn2	Zn	1.606136	-0.601694	-0.418327
Zn3	Zn	1.430547	-0.423730	-0.418339
Zn4	Zn	1.430532	-0.601612	-0.593968
O5	O	1.518365	-0.512678	-0.506158
O6	O	1.753252	-0.447300	-0.570704
O7	O	1.582804	-0.578144	-0.271307
O8	O	1.453907	-0.274777	-0.441658
O9	O	1.753171	-0.578090	-0.441638
O10	O	1.582991	-0.274736	-0.570715
O11	O	1.453800	-0.447395	-0.271316
O12	O	1.283524	-0.447316	-0.441628
O13	O	1.453880	-0.577951	-0.740993
O14	O	1.283513	-0.578005	-0.570663
O15	O	1.582976	-0.447221	-0.741016
O16	O	1.582789	-0.750629	-0.441608
O17	O	1.453774	-0.750569	-0.570651
C18	C	1.245398	-0.512658	-0.506144
C19	C	1.128621	-0.512676	-0.506163
C20	C	1.073781	-0.580834	-0.573240
C21	C	0.964057	-0.580848	-0.573251
C22	C	0.964023	-0.444541	-0.439099
C23	C	1.073745	-0.444523	-0.439094
C24	C	1.128657	-0.648987	-0.640308
C25	C	1.073816	-0.717152	-0.707390
C26	C	0.964092	-0.717165	-0.707402
C27	C	0.909209	-0.649014	-0.640331
C28	C	1.518296	-0.789219	-0.506148
C29	C	1.518363	-0.907524	-0.506179
C30	C	1.448185	-0.976783	-0.576316
C31	C	1.422585	-1.047654	-0.480449
C32	C	1.544058	-1.047453	-0.602062
C33	C	1.492713	-0.976836	-0.410261
C34	C	1.614230	-0.976629	-0.531938
C35	C	1.588667	-1.047468	-0.436006
C36	C	1.792398	-0.512698	-0.506173
C37	C	1.909175	-0.512707	-0.506179
C38	C	1.518439	-0.512570	-0.780192
C39	C	1.518470	-0.512525	-0.896968
C40	C	1.518463	-0.235057	-0.506192
C41	C	1.518505	-0.116752	-0.506206
C42	C	1.585700	-0.444447	-0.951844
C43	C	1.585725	-0.444409	-1.061568
C44	C	1.451288	-0.580534	-1.061531
C45	C	1.451258	-0.580567	-0.951809
C46	C	1.652912	-0.376405	-0.897003
C47	C	1.720147	-0.308323	-0.951879
C48	C	1.720172	-0.308284	-1.061603
C49	C	1.652962	-0.376328	-1.116451
C50	C	1.518352	-0.512708	-0.233191
C51	C	1.518525	-0.512454	-0.116415
H52	H	1.388731	-0.945746	-0.635542
H53	H	1.341578	-1.078874	-0.458684
H54	H	0.819864	-0.649021	-0.640355
C55	C	1.794074	-0.233476	-0.891551
C56	C	1.794054	-0.233515	-0.770861
C57	C	1.867982	-0.158665	-0.710536
C58	C	1.941930	-0.083776	-0.770901
C59	C	1.941953	-0.083734	-0.891598
C60	C	1.868025	-0.158584	-0.951923
H61	H	1.739311	-0.288955	-0.726169
H62	H	1.867965	-0.158697	-0.621188
H63	H	1.996656	-0.028368	-0.726245
H64	H	1.996696	-0.028294	-0.936290
H65	H	1.868042	-0.158552	-1.041271
H66	H	1.118397	-0.389014	-0.384482
H67	H	1.470943	-0.945945	-0.329163
C68	C	1.668914	-1.089159	-0.355806
C69	C	1.657115	-1.061048	-0.238954
C70	C	1.737351	-1.102749	-0.158751
C71	C	1.829386	-1.172560	-0.195400
C72	C	1.841189	-1.200674	-0.312257
C73	C	1.760953	-1.158974	-0.392460
H74	H	1.588981	-1.009367	-0.211819
H75	H	1.728613	-1.081936	-0.072245
H76	H	1.888782	-1.203429	-0.136028
H77	H	1.909323	-1.252356	-0.339392
H78	H	1.769691	-1.179786	-0.478966
C79	C	1.723639	-0.934443	-0.561401
C80	C	1.771809	-0.962203	-0.668614
C81	C	1.881217	-0.920014	-0.698091
C82	C	1.942455	-0.850066	-0.620356
C83	C	1.894285	-0.822303	-0.513136
C84	C	1.784877	-0.864492	-0.483659
H85	H	1.726477	-1.013986	-0.726164
H86	H	1.916875	-0.940566	-0.777462
H87	H	2.023446	-0.818835	-0.642177
H88	H	1.939617	-0.770520	-0.455586
H89	H	1.749219	-0.843939	-0.404288
H90	H	0.919328	-0.389056	-0.384493
H91	H	1.565734	-1.078472	-0.683138
C92	C	1.377368	-0.655386	-1.121862
C93	C	1.377403	-0.655356	-1.242552
C94	C	1.303485	-0.730213	-1.302880
C95	C	1.229531	-0.805099	-1.242519
C96	C	1.229493	-0.805132	-1.121822
C97	C	1.303411	-0.730275	-1.061493
H98	H	1.432150	-0.599918	-1.287241
H99	H	1.303513	-0.730188	-1.392228
H100	H	1.174813	-0.860512	-1.287178
H101	H	1.174746	-0.860570	-1.077133
H102	H	1.303383	-0.730300	-0.972145
H103	H	1.652901	-0.376431	-0.807660
C104	C	1.377318	-0.655455	-0.891426
C105	C	1.257886	-0.646765	-0.906489
C106	C	1.183946	-0.721650	-0.846100
C107	C	1.229438	-0.805226	-0.770648
C108	C	1.348876	-0.813920	-0.755582
C109	C	1.422816	-0.739034	-0.815971
H110	H	1.224205	-0.584893	-0.962346
H111	H	1.095530	-0.715214	-0.857254
H112	H	1.174703	-0.860661	-0.725945
H113	H	1.382557	-0.875791	-0.699725
H114	H	1.511232	-0.745470	-0.804818
H115	H	1.217999	-0.648985	-0.640305
H116	H	1.118509	-0.772632	-0.762003
H117	H	0.919444	-0.772661	-0.762030
H118	H	1.774911	-0.252841	-1.106280
H119	H	1.652975	-0.376279	-1.205796
