data_functionalizedCrystal
_audit_creation_method	'MofGen! by Chris Wilmer'
_symmetry_space_group_name_H-M	'P1'
_symmetry_Int_Tables_number	1
_symmetry_cell_setting	triclinic
loop_
_symmetry_equiv_pos_as_xyz
  x,y,z
_cell_length_a	10.654550
_cell_length_b	14.519709
_cell_length_c	13.596369
_cell_angle_alpha	89.993066
_cell_angle_beta	89.991165
_cell_angle_gamma	84.082524
loop_
_atom_site_label
_atom_site_type_symbol
_atom_site_fract_x
_atom_site_fract_y
_atom_site_fract_z
O1	O	1.666597	0.129534	-0.081875
O2	O	2.166597	0.629534	0.418125
O3	O	1.301000	0.141875	-0.081859
O4	O	1.801000	0.641875	0.418141
O5	O	1.493492	0.001516	-0.081858
O6	O	1.993492	0.501516	0.418142
O7	O	1.474105	0.269892	-0.081875
O8	O	1.974105	0.769892	0.418125
O9	O	1.493473	0.001508	0.081725
O10	O	1.993473	0.501508	0.581725
O11	O	1.300981	0.141867	0.081724
O12	O	1.800981	0.641867	0.581724
O13	O	1.666578	0.129526	0.081708
O14	O	2.166578	0.629526	0.581708
Zn15	Zn	1.483776	0.135695	0.107688
Zn16	Zn	1.983776	0.635695	0.607688
Zn17	Zn	1.483802	0.135705	-0.107839
Zn18	Zn	1.983802	0.635705	0.392161
O19	O	1.474086	0.269885	0.081708
O20	O	1.974086	0.769885	0.581708
C21	C	1.254201	0.140965	-0.000066
C22	C	1.754201	0.640965	0.499934
C23	C	1.114784	0.138254	-0.000059
C24	C	1.614784	0.638254	0.499941
C25	C	1.492579	-0.032852	-0.000067
C26	C	1.992579	0.467148	0.499933
C27	C	1.489871	-0.135247	-0.000066
C28	C	1.989871	0.364753	0.499934
C29	C	1.034504	0.220895	-0.000079
C30	C	1.534504	0.720895	0.499921
C31	C	0.903507	0.218342	-0.000096
C32	C	1.403507	0.718342	0.499904
C33	C	0.933085	0.050500	-0.000078
C34	C	1.433085	0.550500	0.499922
C35	C	1.064078	0.053054	-0.000054
C36	C	1.564078	0.553054	0.499946
C37	C	1.017426	0.317797	-0.000094
C38	C	1.517426	0.817797	0.499906
C39	C	0.886430	0.315244	-0.000110
C40	C	1.386430	0.815244	0.499890
C41	C	1.479904	-0.510195	-0.000091
C42	C	1.979904	-0.010195	0.499909
C43	C	1.482672	-0.405873	-0.000084
C44	C	1.982672	0.094127	0.499916
C45	C	1.484887	-0.322725	-0.000078
C46	C	1.984887	0.177275	0.499922
C47	C	1.487656	-0.218396	-0.000072
C48	C	1.987656	0.281604	0.499928
C49	C	1.713377	0.130436	-0.000087
C50	C	2.213377	0.630436	0.499913
C51	C	1.852794	0.133147	-0.000100
C52	C	2.352794	0.633147	0.499900
C53	C	1.474999	0.304253	-0.000086
C54	C	1.974999	0.804253	0.499914
C55	C	1.477707	0.406648	-0.000093
C56	C	1.977707	0.906648	0.499907
N57	N	1.483768	0.135688	0.254780
N58	N	1.983768	0.635688	0.754780
N59	N	1.483820	0.135706	-0.254931
N60	N	1.983820	0.635706	0.245069
C61	C	1.483800	0.135706	0.656071
C62	C	1.983800	0.635706	1.156071
C63	C	1.483787	0.135704	0.544420
C64	C	1.983787	0.635704	1.044420
C65	C	1.483785	0.135698	0.455429
C66	C	1.983785	0.635698	0.955429
C67	C	1.483771	0.135695	0.343771
C68	C	1.983771	0.635695	0.843771
H69	H	0.891784	-0.018867	-0.000088
H70	H	1.391784	0.481133	0.499912
H71	H	1.129439	-0.014241	-0.000024
H72	H	1.629439	0.485759	0.499976
N73	N	1.055787	0.367990	0.090590
N74	N	1.555787	0.867990	0.590590
H75	H	1.116018	0.325106	0.131069
H76	H	1.616018	0.825106	0.631069
H77	H	1.098565	0.423950	0.070337
H78	H	1.598565	0.923950	0.570337
H79	H	1.052793	0.348656	-0.070721
H80	H	1.552793	0.848656	0.429279
H81	H	0.840469	0.344526	0.070511
H82	H	1.340469	0.844526	0.570511
N83	N	0.830698	0.363599	-0.090807
N84	N	1.330698	0.863599	0.409193
H85	H	0.785940	0.318665	-0.131272
H86	H	1.285940	0.818665	0.368728
H87	H	0.768559	0.417515	-0.070569
H88	H	1.268559	0.917515	0.429431
