data_functionalizedCrystal
_audit_creation_method	'MofGen! by Chris Wilmer'
_symmetry_space_group_name_H-M	'P1'
_symmetry_Int_Tables_number	1
_symmetry_cell_setting	triclinic
loop_
_symmetry_equiv_pos_as_xyz
  x,y,z
_cell_length_a	15.944551
_cell_length_b	15.944493
_cell_length_c	14.421503
_cell_angle_alpha	89.989835
_cell_angle_beta	90.003141
_cell_angle_gamma	83.486891
loop_
_atom_site_label
_atom_site_type_symbol
_atom_site_fract_x
_atom_site_fract_y
_atom_site_fract_z
O1	O	1.114507	0.108323	0.077003
O2	O	1.614507	0.608323	0.577003
O3	O	0.869954	0.121680	0.077024
O4	O	1.369954	0.621680	0.577024
O5	O	0.998934	-0.007276	0.077021
O6	O	1.498934	0.492724	0.577021
O7	O	0.985527	0.237280	0.077006
O8	O	1.485527	0.737280	0.577006
O9	O	0.998913	-0.007257	-0.077203
O10	O	1.498913	0.492743	0.422797
O11	O	0.869933	0.121699	-0.077199
O12	O	1.369933	0.621699	0.422801
O13	O	1.114485	0.108343	-0.077221
O14	O	1.614485	0.608343	0.422779
Cu15	Cu	0.992207	0.115023	-0.091292
Cu16	Cu	1.492207	0.615023	0.408708
Cu17	Cu	0.992232	0.115000	0.091095
Cu18	Cu	1.492232	0.615000	0.591095
O19	O	0.985506	0.237299	-0.077217
O20	O	1.485506	0.737299	0.422783
C21	C	0.838650	0.121135	-0.000084
C22	C	1.338650	0.621135	0.499916
C23	C	0.745404	0.119473	-0.000076
C24	C	1.245404	0.619473	0.499924
C25	C	0.530565	0.035566	-0.000089
C26	C	1.030565	0.535566	0.499911
C27	C	0.469547	0.074520	0.075949
C28	C	0.969547	0.574520	0.575949
C29	C	0.574679	0.116465	-0.000086
C30	C	1.074679	0.616465	0.499914
C31	C	0.469548	0.074558	-0.076103
C32	C	0.969548	0.574558	0.423897
C33	C	0.409767	0.113555	-0.000101
C34	C	0.909767	0.613555	0.499899
C35	C	0.514889	0.155442	0.076014
C36	C	1.014889	0.655442	0.576014
C37	C	0.514897	0.155468	-0.076106
C38	C	1.014897	0.655468	0.423894
C39	C	0.453897	0.194481	-0.000050
C40	C	0.953897	0.694481	0.499950
C41	C	0.669681	0.118140	-0.000077
C42	C	1.169681	0.618140	0.499923
C43	C	0.314766	0.111886	-0.000103
C44	C	0.814766	0.611886	0.499897
C45	C	0.998375	-0.038562	-0.000087
C46	C	1.498375	0.461438	0.499913
C47	C	0.996733	-0.131810	-0.000075
C48	C	1.496733	0.368190	0.499925
C49	C	1.072653	-0.367570	-0.000099
C50	C	1.572653	0.132430	0.499901
C51	C	1.031722	-0.418148	0.075944
C52	C	1.531722	0.081852	0.575944
C53	C	0.993688	-0.302531	-0.000086
C54	C	1.493688	0.197469	0.499914
C55	C	1.031683	-0.418105	-0.076108
C56	C	1.531683	0.081895	0.423892
C57	C	0.990754	-0.467441	-0.000101
C58	C	1.490754	0.032559	0.499899
C59	C	0.952779	-0.351881	0.076020
C60	C	1.452779	0.148119	0.576020
C61	C	0.952751	-0.351834	-0.076101
C62	C	1.452751	0.148166	0.423899
C63	C	0.911763	-0.402379	-0.000039
C64	C	1.411763	0.097621	0.499961
C65	C	0.995381	-0.207531	-0.000077
C66	C	1.495381	0.292469	0.499923
C67	C	0.989055	-0.562438	-0.000104
C68	C	1.489055	-0.062438	0.499896
C69	C	1.145790	0.108888	-0.000110
C70	C	1.645790	0.608888	0.499890
C71	C	1.239036	0.110550	-0.000113
C72	C	1.739036	0.610550	0.499887
C73	C	0.986064	0.268584	-0.000107
C74	C	1.486064	0.768584	0.499893
C75	C	0.987707	0.361833	-0.000113
C76	C	1.487707	0.861833	0.499887
N77	N	0.992196	0.115038	-0.219573
N78	N	1.492196	0.615038	0.280427
C79	C	0.932545	0.174641	-0.469225
C80	C	1.432545	0.674641	0.030775
C81	C	1.008441	0.190949	-0.531036
C82	C	1.508441	0.690949	-0.031036
C83	C	0.992216	0.115018	-0.408734
C84	C	1.492216	0.615018	0.091266
C85	C	0.916339	0.098730	-0.531018
C86	C	1.416339	0.598730	-0.031018
C87	C	0.992229	0.115001	-0.591456
C88	C	1.492229	0.615001	-0.091456
C89	C	1.068151	0.131364	-0.469184
C90	C	1.568151	0.631364	0.030816
C91	C	0.975998	0.039112	-0.469161
C92	C	1.475998	0.539112	0.030839
C93	C	1.051950	0.055388	-0.530944
C94	C	1.551950	0.555388	-0.030944
C95	C	0.992207	0.115030	-0.303473
C96	C	1.492207	0.615030	0.196527
C97	C	0.992246	0.114988	-0.696715
C98	C	1.492246	0.614988	-0.196715
N99	N	0.992251	0.114978	0.219377
N100	N	1.492251	0.614978	0.719377
H101	H	0.535012	0.189665	-0.140398
H102	H	1.035012	0.689665	0.359602
O103	O	0.541348	0.200717	0.161270
O104	O	1.041348	0.700717	0.661270
H105	H	0.522751	0.167314	0.224241
H106	H	1.022751	0.667314	0.724241
H107	H	1.065079	-0.447101	0.140228
H108	H	1.565079	0.052899	0.640228
O109	O	0.442916	0.029185	0.161100
O110	O	0.942916	0.529185	0.661100
H111	H	0.499477	0.007295	0.203185
H112	H	0.999477	0.507295	0.703185
H113	H	0.852166	0.084961	-0.558181
H114	H	1.352166	0.584961	-0.058181
H115	H	1.140671	-0.351942	-0.000029
H116	H	1.640671	0.148058	0.499971
H117	H	0.882134	0.225102	-0.442126
H118	H	1.382134	0.725102	0.057874
O119	O	0.957784	-0.045882	-0.433132
O120	O	1.457784	0.454118	0.066868
H121	H	1.011930	-0.074070	-0.390794
H122	H	1.511930	0.425930	0.109206
H123	H	1.102473	0.004956	-0.557873
H124	H	1.602473	0.504956	-0.057873
O125	O	0.574670	-0.053395	-0.000022
O126	O	1.074670	0.446605	0.499978
H127	H	0.556618	-0.086790	0.063188
H128	H	1.056618	0.413210	0.563188
H129	H	0.919423	-0.322866	-0.140387
H130	H	1.419423	0.177134	0.359613
O131	O	1.026628	0.275966	-0.567040
O132	O	1.526628	0.775966	-0.067040
H133	H	1.085139	0.268140	-0.609353
H134	H	1.585139	0.768140	-0.109353
O135	O	1.075851	-0.456397	-0.161278
O136	O	1.575851	0.043603	0.338722
H137	H	1.073689	-0.525731	-0.160853
H138	H	1.573689	-0.025731	0.339147
O139	O	1.153179	0.149704	-0.433373
O140	O	1.653179	0.649704	0.066627
H141	H	1.145245	0.207908	-0.390565
H142	H	1.645245	0.707908	0.109435
O143	O	0.908652	-0.313730	0.161279
O144	O	1.408652	0.186270	0.661279
H145	H	0.910269	-0.244321	0.160635
H146	H	1.410269	0.255679	0.660635
O147	O	0.409964	0.283510	-0.000009
O148	O	0.909964	0.783510	0.499991
H149	H	0.369488	0.293264	0.062550
H150	H	0.869488	0.793264	0.562550
O151	O	0.442947	0.029234	-0.161261
O152	O	0.942947	0.529234	0.338739
H153	H	0.410891	-0.025922	-0.139841
H154	H	0.910891	0.474078	0.360159
O155	O	0.821591	-0.422850	-0.000001
O156	O	1.321591	0.077150	0.499999
H157	H	0.789023	-0.396070	0.063175
H158	H	1.289023	0.103930	0.563175
