data_functionalizedCrystal
_audit_creation_method	'MofGen! by Chris Wilmer'
_symmetry_space_group_name_H-M	'P1'
_symmetry_Int_Tables_number	1
_symmetry_cell_setting	triclinic
loop_
_symmetry_equiv_pos_as_xyz
  x,y,z
_cell_length_a	12.759401
_cell_length_b	12.759399
_cell_length_c	12.759393
_cell_angle_alpha	89.969094
_cell_angle_beta	89.980404
_cell_angle_gamma	90.015393
loop_
_atom_site_label
_atom_site_type_symbol
_atom_site_fract_x
_atom_site_fract_y
_atom_site_fract_z
Zn1	Zn	-1.606263	0.418208	0.593979
Zn2	Zn	-1.106263	0.918208	1.093979
Zn3	Zn	-1.606153	0.593923	0.418298
Zn4	Zn	-1.106153	1.093923	0.918298
Zn5	Zn	-1.430562	0.418260	0.418319
Zn6	Zn	-0.930562	0.918260	0.918319
Zn7	Zn	-1.430553	0.593846	0.593940
Zn8	Zn	-0.930553	1.093846	1.093940
O9	O	-1.518383	0.506059	0.506134
O10	O	-1.018383	1.006059	1.006134
O11	O	-1.753270	0.441527	0.570683
O12	O	-1.253270	0.941527	1.070683
O13	O	-1.582818	0.570675	0.271280
O14	O	-1.082818	1.070675	0.771280
O15	O	-1.453919	0.271232	0.441646
O16	O	-0.953919	0.771232	0.941646
O17	O	-1.753189	0.570625	0.441611
O18	O	-1.253189	1.070625	0.941611
O19	O	-1.583006	0.271194	0.570703
O20	O	-1.083006	0.771194	1.070703
O21	O	-1.453812	0.441616	0.271295
O22	O	-0.953812	0.941616	0.771295
O23	O	-1.283540	0.441541	0.441607
O24	O	-0.783540	0.941541	0.941607
O25	O	-1.453903	0.570493	0.740966
O26	O	-0.953903	1.070493	1.240966
O27	O	-1.283533	0.570544	0.570635
O28	O	-0.783533	1.070544	1.070635
O29	O	-1.582997	0.441452	0.740995
O30	O	-1.082997	0.941452	1.240995
O31	O	-1.582809	0.740934	0.441572
O32	O	-1.082809	1.240934	0.941572
O33	O	-1.453796	0.740877	0.570615
O34	O	-0.953796	1.240877	1.070615
C35	C	-1.245415	0.506040	0.506120
C36	C	-0.745415	1.006040	1.006120
C37	C	-1.128639	0.506058	0.506138
C38	C	-0.628639	1.006058	1.006138
C39	C	-1.518318	0.779027	0.506110
C40	C	-1.018318	1.279027	1.006110
C41	C	-1.518387	0.895803	0.506135
C42	C	-1.018387	1.395803	1.006135
C43	C	-1.518461	0.505958	0.780168
C44	C	-1.018461	1.005958	1.280168
C45	C	-1.518495	0.505915	0.896944
C46	C	-1.018495	1.005915	1.396944
C47	C	-1.792416	0.506079	0.506149
C48	C	-1.292416	1.006079	1.006149
C49	C	-1.909193	0.506087	0.506156
C50	C	-1.409193	1.006087	1.006156
C51	C	-0.964070	0.573347	0.573225
C52	C	-0.464070	1.073347	1.073225
C53	C	-1.073794	0.573336	0.573214
C54	C	-0.573794	1.073336	1.073214
C55	C	-1.073754	0.438795	0.439062
C56	C	-0.573754	0.938795	0.939062
C57	C	-0.964032	0.438812	0.439068
C58	C	-0.464032	0.938812	0.939068
C59	C	-1.518476	0.232026	0.506181
C60	C	-1.018476	0.732026	1.006181
C61	C	-1.518516	0.115249	0.506201
C62	C	-1.018516	0.615249	1.006201
C63	C	-1.585641	0.950660	0.439019
C64	C	-1.085641	1.450660	0.939019
C65	C	-1.585708	1.060384	0.439054
C66	C	-1.085708	1.560384	0.939054
C67	C	-1.451259	1.060385	0.573325
C68	C	-0.951259	1.560385	1.073325
C69	C	-1.451198	0.950663	0.573294
C70	C	-0.951198	1.450663	1.073294
C71	C	-1.518365	0.506084	0.233167
C72	C	-1.018365	1.006084	0.733167
C73	C	-1.518535	0.505831	0.116391
C74	C	-1.018535	1.005831	0.616391
C75	C	-1.585719	0.438713	0.951823
C76	C	-1.085719	0.938713	1.451823
C77	C	-1.585737	0.438668	1.061547
C78	C	-1.085737	0.938668	1.561547
C79	C	-1.451303	0.573036	1.061504
C80	C	-0.951303	1.073036	1.561504
C81	C	-1.451281	0.573075	0.951782
C82	C	-0.951281	1.073075	1.451782
H83	H	-0.919423	0.628127	0.627851
H84	H	-0.419423	1.128127	1.127851
Cl85	Cl	-1.142777	0.657898	0.657531
Cl86	Cl	-0.642777	1.157898	1.157531
Cl87	Cl	-1.670109	0.881697	0.354593
Cl88	Cl	-1.170109	1.381697	0.854593
H89	H	-1.118418	0.384020	0.384443
H90	H	-0.618418	0.884020	0.884443
H91	H	-0.919350	0.384039	0.384448
H92	H	-0.419350	0.884039	0.884448
Cl93	Cl	-1.366758	0.657559	0.882786
Cl94	Cl	-0.866758	1.157559	1.382786
H95	H	-1.640446	0.384024	0.907178
H96	H	-1.140446	0.884024	1.407178
Cl97	Cl	-1.366649	0.881695	0.657682
Cl98	Cl	-0.866649	1.381695	1.157682
H99	H	-1.640476	0.383943	1.106225
H100	H	-1.140476	0.883943	1.606225
H101	H	-1.396583	0.627718	1.106166
H102	H	-0.896583	1.127718	1.606166
H103	H	-1.640474	1.105043	0.384403
H104	H	-1.140474	1.605043	0.884403
H105	H	-1.396555	1.105065	0.628002
H106	H	-0.896555	1.605065	1.128002
