data_functionalizedCrystal
_audit_creation_method	'MofGen! by Chris Wilmer'
_symmetry_space_group_name_H-M	'P1'
_symmetry_Int_Tables_number	1
_symmetry_cell_setting	triclinic
loop_
_symmetry_equiv_pos_as_xyz
  x,y,z
_cell_length_a	18.050591
_cell_length_b	18.050590
_cell_length_c	12.759393
_cell_angle_alpha	89.965321
_cell_angle_beta	89.981623
_cell_angle_gamma	90.017393
loop_
_atom_site_label
_atom_site_type_symbol
_atom_site_fract_x
_atom_site_fract_y
_atom_site_fract_z
Zn1	Zn	1.135400	-0.295647	-0.593918
Zn2	Zn	1.135314	-0.419854	-0.418225
Zn3	Zn	1.011202	-0.295680	-0.418261
Zn4	Zn	1.011188	-0.419797	-0.593870
O5	O	1.073276	-0.357744	-0.506068
O6	O	1.239313	-0.312133	-0.570617
O7	O	1.118821	-0.403421	-0.271209
O8	O	1.027719	-0.191751	-0.441597
O9	O	1.239250	-0.403388	-0.441536
O10	O	1.118966	-0.191726	-0.570651
O11	O	1.027636	-0.312190	-0.271235
O12	O	0.907276	-0.312134	-0.441551
O13	O	1.027695	-0.403290	-0.740898
O14	O	0.907265	-0.403322	-0.570570
O15	O	1.118953	-0.312077	-0.740933
O16	O	1.118807	-0.523771	-0.441490
O17	O	1.027612	-0.523729	-0.570536
C18	C	0.880324	-0.357726	-0.506060
C19	C	0.797778	-0.357736	-0.506081
C20	C	0.548968	-0.407427	-0.576146
C21	C	0.598332	-0.425511	-0.480250
C22	C	0.500658	-0.357760	-0.506079
C23	C	0.598376	-0.339699	-0.601971
C24	C	0.646643	-0.357750	-0.506085
C25	C	0.548934	-0.375879	-0.410132
C26	C	0.548973	-0.290035	-0.531918
C27	C	0.598315	-0.308094	-0.435955
C28	C	0.416559	-0.357767	-0.506077
C29	C	0.730739	-0.357743	-0.506076
C30	C	1.073219	-0.550697	-0.506027
C31	C	1.073262	-0.633242	-0.506044
C32	C	1.122958	-0.832689	-0.435967
C33	C	1.141102	-0.882015	-0.531853
C34	C	1.073305	-0.784373	-0.506086
C35	C	1.055235	-0.882129	-0.410243
C36	C	1.073347	-0.930358	-0.506118
C37	C	1.091484	-0.832611	-0.602022
C38	C	1.005586	-0.832721	-0.480348
C39	C	1.023705	-0.882024	-0.576300
C40	C	1.073282	-0.700274	-0.506066
C41	C	1.073369	-1.014454	-0.506148
C42	C	1.266982	-0.357763	-0.506078
C43	C	1.349527	-0.357771	-0.506082
C44	C	1.073332	-0.357673	-0.780102
C45	C	1.073355	-0.357643	-0.896879
C46	C	1.073354	-0.164039	-0.506133
C47	C	1.073387	-0.081493	-0.506161
C48	C	1.120877	-0.310141	-0.951760
C49	C	1.120889	-0.310109	-1.061485
C50	C	1.025857	-0.405087	-1.061435
C51	C	1.025841	-0.405115	-0.951713
C52	C	1.147482	-0.222489	-1.211470
C53	C	1.195015	-0.174994	-1.266356
C54	C	1.267479	-0.163609	-1.230761
C55	C	1.292425	-0.199730	-1.140282
C56	C	1.244895	-0.247231	-1.085402
C57	C	1.172421	-0.258602	-1.120996
C58	C	0.999256	-0.492736	-0.801726
C59	C	0.951730	-0.540241	-0.746844
C60	C	0.879265	-0.551633	-0.782436
C61	C	0.854322	-0.515525	-0.872919
C62	C	0.901848	-0.468019	-0.927801
C63	C	0.974312	-0.456626	-0.892200
C64	C	1.073263	-0.357762	-0.233101
C65	C	1.073384	-0.357583	-0.116325
H66	H	0.620013	-0.482781	-0.458390
C67	C	0.519689	-0.464218	-0.656086
N68	N	0.497634	-0.506994	-0.716291
H69	H	1.306181	-0.124936	-1.275457
H70	H	1.198389	-0.903669	-0.553643
C71	C	0.519721	-0.396606	-0.300550
N72	N	0.497716	-0.412221	-0.218015
H73	H	0.981733	-0.903550	-0.635679
H74	H	1.106728	-0.810953	-0.683158
C75	C	1.372143	-0.187207	-1.101137
N76	N	1.432187	-0.177771	-1.071649
H77	H	0.620093	-0.324427	-0.683063
H78	H	1.164962	-0.811026	-0.376730
C79	C	1.173137	-0.257914	-0.891446
N80	N	1.212499	-0.218572	-0.846021
C81	C	0.928220	-0.803435	-0.450865
N82	N	0.869949	-0.781372	-0.428647
C83	C	0.979172	-0.579965	-0.647314
N84	N	0.999841	-0.609884	-0.572347
C85	C	1.272330	-0.286960	-0.985877
N86	N	1.292994	-0.316878	-0.910908
H87	H	1.039935	-0.903879	-0.329177
H88	H	1.174698	-0.145583	-1.340024
C89	C	0.627405	-0.251346	-0.355819
N90	N	0.649317	-0.208606	-0.295458
C91	C	1.067764	-0.235000	-1.250625
N92	N	1.007720	-0.244424	-1.280122
C93	C	0.973593	-0.457302	-1.121764
N94	N	0.934226	-0.496631	-1.167202
H95	H	0.881534	-0.438618	-1.001476
H96	H	0.795316	-0.524803	-0.901902
C97	C	0.826988	-0.603895	-0.722063
N98	N	0.787612	-0.643255	-0.676591
H99	H	0.527276	-0.232783	-0.553805
H100	H	1.058262	-0.483458	-0.772732
