data_functionalizedCrystal
_audit_creation_method	'MofGen! by Chris Wilmer'
_symmetry_space_group_name_H-M	'P1'
_symmetry_Int_Tables_number	1
_symmetry_cell_setting	triclinic
loop_
_symmetry_equiv_pos_as_xyz
  x,y,z
_cell_length_a	27.732048
_cell_length_b	23.532355
_cell_length_c	26.809956
_cell_angle_alpha	90.002952
_cell_angle_beta	90.000636
_cell_angle_gamma	82.735077
loop_
_atom_site_label
_atom_site_type_symbol
_atom_site_fract_x
_atom_site_fract_y
_atom_site_fract_z
O1	O	0.058552	0.755158	0.041417
O2	O	0.558552	1.255158	0.541417
O3	O	0.067069	0.589272	0.041434
O4	O	0.567069	1.089272	0.541434
O5	O	-0.007579	0.677367	0.041415
O6	O	0.492421	1.177367	0.541415
O7	O	0.133200	0.667063	0.041435
O8	O	0.633200	1.167063	0.541435
O9	O	-0.007568	0.677351	-0.041544
O10	O	0.492432	1.177351	0.458456
O11	O	0.067080	0.589256	-0.041526
O12	O	0.567080	1.089256	0.458474
O13	O	0.058564	0.755142	-0.041542
O14	O	0.558564	1.255142	0.458458
Zn15	Zn	0.062824	0.672196	-0.054705
Zn16	Zn	0.562824	1.172196	0.445295
Zn17	Zn	0.062809	0.672218	0.054597
Zn18	Zn	0.562809	1.172218	0.554597
O19	O	0.133212	0.667047	-0.041524
O20	O	0.633212	1.167047	0.458476
C21	C	0.066862	0.568048	-0.000044
C22	C	0.566862	1.068048	0.499956
C23	C	0.066222	0.504831	-0.000038
C24	C	0.566222	1.004831	0.499962
C25	C	0.062206	0.112816	-0.045281
C26	C	0.562206	0.612816	0.454719
C27	C	0.061597	0.053418	-0.045283
C28	C	0.561597	0.553418	0.454717
O29	O	0.061271	0.022693	-0.083741
O30	O	0.561271	0.522693	0.416259
N31	N	0.061289	0.023720	-0.000062
N32	N	0.561289	0.523720	0.499938
C33	C	0.061585	0.053423	0.045164
C34	C	0.561585	0.553423	0.545164
O35	O	0.061267	0.022708	0.083628
O36	O	0.561267	0.522708	0.583628
C37	C	0.062191	0.112820	0.045166
C38	C	0.562191	0.612820	0.545166
C39	C	0.062504	0.142515	-0.000058
C40	C	0.562504	0.642515	0.499942
C41	C	0.062519	0.142511	-0.090501
C42	C	0.562519	0.642511	0.409499
C43	C	0.063129	0.201905	-0.090498
C44	C	0.563129	0.701905	0.409502
C45	C	0.063426	0.231604	-0.045276
C46	C	0.563426	0.731604	0.454724
C47	C	0.063114	0.201909	-0.000056
C48	C	0.563114	0.701909	0.499944
C49	C	0.062483	0.142523	0.090391
C50	C	0.562483	0.642523	0.590391
C51	C	0.063088	0.201925	0.090389
C52	C	0.563088	0.701925	0.590389
C53	C	0.063401	0.231620	0.045165
C54	C	0.563401	0.731620	0.545165
C55	C	0.064021	0.291002	0.045169
C56	C	0.564021	0.791002	0.545169
N57	N	0.064329	0.320701	-0.000052
N58	N	0.564329	0.820701	0.499948
C59	C	0.064031	0.291002	-0.045275
C60	C	0.564031	0.791002	0.454725
C61	C	0.060313	-0.071316	0.045158
C62	C	0.560313	0.428684	0.545158
C63	C	0.059711	-0.130713	0.045157
C64	C	0.559711	0.369287	0.545157
C65	C	0.059722	-0.130713	-0.045290
C66	C	0.559722	0.369287	0.454710
C67	C	0.060328	-0.071316	-0.045289
C68	C	0.560328	0.428684	0.454711
C69	C	0.060621	-0.041617	-0.000063
C70	C	0.560621	0.458383	0.499937
C71	C	0.065313	0.415733	-0.045267
C72	C	0.565313	0.915733	0.454733
C73	C	0.065924	0.475132	-0.045260
C74	C	0.565924	0.975132	0.454740
C75	C	0.065910	0.475127	0.045186
C76	C	0.565910	0.975127	0.545186
C77	C	0.065301	0.415733	0.045180
C78	C	0.565301	0.915733	0.545180
C79	C	0.065001	0.386038	-0.000050
C80	C	0.565001	0.886038	0.499950
O81	O	0.064345	0.321765	0.083607
O82	O	0.564345	0.821765	0.583607
O83	O	0.064344	0.321725	-0.083732
O84	O	0.564344	0.821725	0.416268
C85	C	-0.025580	0.677143	-0.000066
C86	C	0.474420	1.177143	0.499934
C87	C	-0.079236	0.676491	-0.000070
C88	C	0.420764	1.176491	0.499930
C89	C	-0.417985	0.724449	-0.000049
C90	C	0.082015	1.224449	0.499951
C91	C	-0.619648	0.722033	-0.000042
C92	C	-0.119648	1.222033	0.499958
O93	O	-0.650843	0.765887	-0.000024
O94	O	-0.150843	1.265887	0.499976
N95	N	-0.638844	0.669796	-0.000037
N96	N	-0.138844	1.169796	0.499963
C97	C	-0.607621	0.618160	-0.000031
C98	C	-0.107621	1.118160	0.499969
O99	O	-0.628575	0.573674	-0.000021
O100	O	-0.128575	1.073674	0.499979
C101	C	-0.405959	0.620577	-0.000034
C102	C	0.094041	1.120577	0.499966
C103	C	-0.386766	0.672817	-0.000044
C104	C	0.113234	1.172817	0.499956
C105	C	-0.398792	0.776685	-0.000058
C106	C	0.101208	1.276685	0.499942
C107	C	-0.348379	0.777289	-0.000063
C108	C	0.151621	1.277289	0.499937
C109	C	-0.317160	0.725657	-0.000058
C110	C	0.182840	1.225657	0.499942
C111	C	-0.336353	0.673421	-0.000049
C112	C	0.163647	1.173421	0.499951
C113	C	-0.374736	0.568942	-0.000024
C114	C	0.125264	1.068942	0.499976
C115	C	-0.324318	0.569551	-0.000024
C116	C	0.175682	1.069551	0.499976
C117	C	-0.305125	0.621791	-0.000034
C118	C	0.194875	1.121791	0.499966
C119	C	-0.254721	0.622392	-0.000048
C120	C	0.245279	1.122392	0.499952
N121	N	-0.235525	0.674629	-0.000053
N122	N	0.264475	1.174629	0.499947
C123	C	-0.266744	0.726261	-0.000058
C124	C	0.233256	1.226261	0.499942
C125	C	-0.713496	0.616895	-0.000030
C126	C	-0.213496	1.116895	0.499970
C127	C	-0.763912	0.616290	-0.000030
C128	C	-0.263912	1.116290	0.499970
C129	C	-0.775936	0.720163	-0.000040
C130	C	-0.275936	1.220163	0.499960
C131	C	-0.725520	0.720767	-0.000043
C132	C	-0.225520	1.220767	0.499957
C133	C	-0.694301	0.669131	-0.000034
C134	C	-0.194301	1.169131	0.499966
C135	C	-0.160873	0.727525	-0.000068
C136	C	0.339127	1.227525	0.499932
C137	C	-0.110456	0.728124	-0.000074
C138	C	0.389544	1.228124	0.499926
C139	C	-0.098436	0.624251	-0.000062
C140	C	0.401564	1.124251	0.499938
C141	C	-0.148849	0.623652	-0.000058
C142	C	0.351151	1.123652	0.499942
C143	C	-0.180067	0.675293	-0.000059
C144	C	0.319933	1.175293	0.499941
O145	O	-0.223497	0.578561	-0.000060
O146	O	0.276503	1.078561	0.499940
O147	O	-0.245780	0.770740	-0.000056
O148	O	0.254220	1.270740	0.499944
C149	C	-0.468398	0.723846	-0.000044
C150	C	0.031602	1.223846	0.499956
C151	C	-0.487591	0.671610	-0.000035
C152	C	0.012409	1.171610	0.499965
C153	C	-0.456372	0.619978	-0.000030
C154	C	0.043628	1.119978	0.499970
C155	C	-0.538007	0.671006	-0.000035
C156	C	-0.038007	1.171006	0.499965
C157	C	-0.569226	0.722638	-0.000040
C158	C	-0.069226	1.222638	0.499960
C159	C	-0.550030	0.774875	-0.000045
C160	C	-0.050030	1.274875	0.499955
C161	C	-0.499617	0.775478	-0.000049
C162	C	0.000383	1.275478	0.499951
C163	C	-0.475568	0.567741	-0.000026
C164	C	0.024432	1.067741	0.499974
C165	C	-0.525981	0.567142	-0.000022
C166	C	-0.025981	1.067142	0.499978
C167	C	-0.557200	0.618774	-0.000026
C168	C	-0.057200	1.118774	0.499974
C169	C	0.151213	0.667271	-0.000042
C170	C	0.651213	1.167271	0.499958
C171	C	0.204869	0.667923	-0.000034
C172	C	0.704869	1.167923	0.499966
C173	C	0.058771	0.776366	-0.000063
C174	C	0.558771	1.276366	0.499937
C175	C	0.059411	0.839583	-0.000066
C176	C	0.559411	1.339583	0.499934
N177	N	0.062834	0.672185	-0.129301
N178	N	0.562834	1.172185	0.370699
C179	C	0.029763	0.711221	-0.473936
C180	C	0.529763	1.211221	0.026064
C181	C	0.029755	0.711235	-0.682813
C182	C	0.529755	1.211235	-0.182813
O183	O	0.001640	0.744402	-0.709824
O184	O	0.501640	1.244402	-0.209824
N185	N	0.062798	0.672221	-0.708928
N186	N	0.562798	1.172221	-0.208928
C187	C	0.095843	0.633199	-0.682821
C188	C	0.595843	1.133199	-0.182821
O189	O	0.123944	0.600011	-0.709827
O190	O	0.623944	1.100011	-0.209827
C191	C	0.095848	0.633183	-0.473944
C192	C	0.595848	1.133183	0.026056
C193	C	0.062806	0.672203	-0.447832
C194	C	0.562806	1.172203	0.052168
C195	C	-0.003276	0.750238	-0.447823
C196	C	0.496724	1.250238	0.052177
C197	C	-0.003272	0.750236	-0.395607
C198	C	0.496728	1.250236	0.104393
C199	C	0.029771	0.711218	-0.369503
C200	C	0.529771	1.211218	0.130497
C201	C	0.062810	0.672201	-0.395616
C202	C	0.562810	1.172201	0.104384
C203	C	0.128890	0.594158	-0.447838
C204	C	0.628890	1.094158	0.052162
C205	C	0.128887	0.594157	-0.395615
C206	C	0.628887	1.094157	0.104385
C207	C	0.095846	0.633177	-0.369503
C208	C	0.595846	1.133177	0.130497
C209	C	0.095857	0.633181	-0.317296
C210	C	0.595857	1.133181	0.182704
N211	N	0.062815	0.672195	-0.291180
N212	N	0.562815	1.172195	0.208820
C213	C	0.029771	0.711213	-0.317284
C214	C	0.529771	1.211213	0.182716
C215	C	0.095839	0.633210	-0.792484
C216	C	0.595839	1.133210	-0.292484
C217	C	0.095838	0.633215	-0.844703
C218	C	0.595838	1.133215	-0.344703
C219	C	0.029750	0.711251	-0.844692
C220	C	0.529750	1.211251	-0.344692
C221	C	0.029753	0.711248	-0.792472
C222	C	0.529753	1.211248	-0.292472
C223	C	0.062796	0.672224	-0.766369
C224	C	0.562796	1.172224	-0.266369
C225	C	0.029782	0.711207	-0.207626
C226	C	0.529782	1.211207	0.292374
C227	C	0.029791	0.711204	-0.155405
C228	C	0.529791	1.211204	0.344595
C229	C	0.095877	0.633166	-0.155421
C230	C	0.595877	1.133166	0.344579
C231	C	0.095871	0.633171	-0.207637
C232	C	0.595871	1.133171	0.292363
C233	C	0.062819	0.672194	-0.233739
C234	C	0.562819	1.172194	0.266261
O235	O	0.123954	0.600028	-0.290253
O236	O	0.623954	1.100028	0.209747
O237	O	0.001667	0.744387	-0.290270
O238	O	0.501667	1.244387	0.209730
C239	C	0.029759	0.711223	-0.526152
C240	C	0.529759	1.211223	-0.026152
C241	C	0.062798	0.672206	-0.552264
C242	C	0.562798	1.172206	-0.052264
C243	C	0.095841	0.633188	-0.526161
C244	C	0.595841	1.133188	-0.026161
C245	C	0.062798	0.672211	-0.604483
C246	C	0.562798	1.172211	-0.104483
C247	C	0.029755	0.711229	-0.630587
C248	C	0.529755	1.211229	-0.130587
C249	C	-0.003288	0.750243	-0.604472
C250	C	0.496712	1.250243	-0.104472
C251	C	-0.003284	0.750241	-0.552256
C252	C	0.496716	1.250241	-0.052256
C253	C	0.128884	0.594174	-0.552276
C254	C	0.628884	1.094174	-0.052276
C255	C	0.128878	0.594180	-0.604492
C256	C	0.628878	1.094180	-0.104492
C257	C	0.095835	0.633198	-0.630596
C258	C	0.595835	1.133198	-0.130596
N259	N	0.062795	0.672233	0.129193
N260	N	0.562795	1.172233	0.629193
H261	H	0.065054	0.391553	0.082005
H262	H	0.565054	0.891553	0.582005
H263	H	-0.094832	0.770666	-0.000084
H264	H	0.405168	1.270666	0.499916
H265	H	0.122781	0.601403	-0.228899
H266	H	0.622781	1.101403	0.271101
H267	H	0.122747	0.601431	-0.771235
H268	H	0.622747	1.101431	-0.271235
H269	H	0.155794	0.562377	-0.374365
H270	H	0.655794	1.062377	0.125635
C271	C	0.132222	0.590245	-0.126702
C272	C	0.632222	1.090245	0.373298
C273	C	0.132220	0.590242	-0.069263
C274	C	0.632220	1.090242	0.430737
C275	C	0.168563	0.547317	-0.040543
C276	C	0.668563	1.047317	0.459457
C277	C	0.204908	0.504395	-0.069262
C278	C	0.704908	1.004395	0.430738
C279	C	0.204911	0.504396	-0.126704
C280	C	0.704911	1.004396	0.373296
C281	C	0.168568	0.547321	-0.155424
C282	C	0.668568	1.047321	0.344576
H283	H	0.105315	0.622017	-0.048001
H284	H	0.605315	1.122017	0.451999
H285	H	0.168561	0.547316	0.001979
H286	H	0.668561	1.047316	0.501979
H287	H	0.231811	0.472619	-0.048001
H288	H	0.731811	0.972619	0.451999
H289	H	0.231817	0.472621	-0.147966
H290	H	0.731817	0.972621	0.352034
H291	H	0.168571	0.547322	-0.197946
H292	H	0.668571	1.047322	0.302054
H293	H	-0.030190	0.782015	-0.530998
H294	H	0.469810	1.282015	-0.030998
H295	H	-0.030192	0.782015	-0.625734
H296	H	0.469808	1.282015	-0.125734
C297	C	-0.395836	0.511473	-0.000011
C298	C	0.104164	1.011473	0.499989
C299	C	-0.383933	0.468697	-0.043079
C300	C	0.116067	0.968697	0.456921
C301	C	-0.405029	0.411224	-0.043065
C302	C	0.094971	0.911224	0.456935
C303	C	-0.438028	0.396527	0.000019
C304	C	0.061972	0.896527	0.500019
C305	C	-0.449933	0.439304	0.043091
C306	C	0.050067	0.939304	0.543091
C307	C	-0.428836	0.496778	0.043077
C308	C	0.071164	0.996778	0.543077
H309	H	-0.359504	0.479575	-0.074976
H310	H	0.140496	0.979575	0.425024
H311	H	-0.396217	0.379557	-0.074950
H312	H	0.103783	0.879557	0.425050
H313	H	-0.453645	0.353982	0.000030
H314	H	0.046355	0.853982	0.500030
H315	H	-0.474362	0.428426	0.074987
H316	H	0.025638	0.928426	0.574987
H317	H	-0.437649	0.528444	0.074962
H318	H	0.062351	1.028444	0.574962
H319	H	0.155789	0.562406	-0.625750
H320	H	0.655789	1.062406	-0.125750
H321	H	0.059479	-0.154905	-0.082113
H322	H	0.559479	0.345095	0.417887
H323	H	0.059464	-0.154887	0.081982
H324	H	0.559464	0.345113	0.581982
H325	H	0.065072	0.391561	-0.082098
H326	H	0.565072	0.891561	0.417902
H327	H	0.066181	0.499307	-0.082089
H328	H	0.566181	0.999307	0.417911
H329	H	-0.298901	0.527501	-0.000016
H330	H	0.201099	1.027501	0.499984
H331	H	0.063381	0.226078	-0.127324
H332	H	0.563381	0.726078	0.372676
C333	C	-0.006596	0.754167	-0.763751
C334	C	0.493404	1.254167	-0.263751
C335	C	-0.061637	0.753700	-0.770937
C336	C	0.438363	1.253700	-0.270937
C337	C	-0.097989	0.796620	-0.742219
C338	C	0.402011	1.296620	-0.242219
C339	C	-0.079299	0.840007	-0.706315
C340	C	0.420701	1.340007	-0.206315
C341	C	-0.024255	0.840477	-0.699128
C342	C	0.475745	1.340477	-0.199128
C343	C	0.012097	0.797557	-0.727845
C344	C	0.512097	1.297557	-0.227845
H345	H	-0.075475	0.721580	-0.797517
H346	H	0.424525	1.221580	-0.297517
H347	H	-0.138736	0.796272	-0.747540
H348	H	0.361264	1.296272	-0.247540
H349	H	-0.106209	0.871779	-0.685056
H350	H	0.393791	1.371779	-0.185056
H351	H	-0.010418	0.872596	-0.672548
H352	H	0.489582	1.372596	-0.172548
H353	H	0.052844	0.797904	-0.722524
H354	H	0.552844	1.297904	-0.222524
H355	H	0.122749	0.601447	-0.865961
H356	H	0.622749	1.101447	-0.365961
C357	C	-0.006559	0.754126	-0.126682
C358	C	0.493441	1.254126	0.373318
C359	C	-0.042907	0.797042	-0.155399
C360	C	0.457093	1.297042	0.344601
C361	C	-0.079256	0.839963	-0.126677
C362	C	0.420744	1.339963	0.373323
C363	C	-0.079255	0.839967	-0.069239
C364	C	0.420745	1.339967	0.430761
C365	C	-0.042905	0.797049	-0.040518
C366	C	0.457095	1.297049	0.459482
C367	C	-0.006557	0.754129	-0.069240
C368	C	0.493443	1.254129	0.430760
H369	H	-0.042909	0.797041	-0.197921
H370	H	0.457091	1.297041	0.302079
H371	H	-0.106164	0.871733	-0.147938
H372	H	0.393836	1.371733	0.352062
H373	H	-0.106163	0.871739	-0.047977
H374	H	0.393837	1.371739	0.452023
H375	H	-0.042904	0.797051	0.002004
H376	H	0.457096	1.297051	0.502004
H377	H	0.020352	0.722358	-0.047978
H378	H	0.520352	1.222358	0.452022
C379	C	0.060643	-0.038651	0.094910
C380	C	0.560643	0.461349	0.594910
C381	C	0.103039	-0.004659	0.107357
C382	C	0.603039	0.495341	0.607357
C383	C	0.103369	0.028003	0.157108
C384	C	0.603369	0.528003	0.657108
C385	C	0.061303	0.026672	0.194412
C386	C	0.561303	0.526672	0.694412
C387	C	0.018904	-0.007322	0.181965
C388	C	0.518904	0.492678	0.681965
C389	C	0.018574	-0.039983	0.132214
C390	C	0.518574	0.460017	0.632214
H391	H	0.134182	-0.003673	0.079742
H392	H	0.634182	0.496327	0.579742
H393	H	0.134756	0.053167	0.166322
H394	H	0.634756	0.553167	0.666322
H395	H	0.061547	0.050850	0.231241
H396	H	0.561547	0.550850	0.731241
H397	H	-0.012239	-0.008308	0.209581
H398	H	0.487761	0.491692	0.709581
H399	H	-0.012813	-0.065148	0.123001
H400	H	0.487187	0.434852	0.623001
H401	H	-0.073008	0.582213	-0.000060
H402	H	0.426992	1.082213	0.499940
H403	H	-0.424206	0.818733	-0.000060
H404	H	0.075794	1.318733	0.499940
H405	H	0.062276	0.118337	-0.127328
H406	H	0.562276	0.618337	0.372672
H407	H	0.155791	0.562400	-0.531026
H408	H	0.655791	1.062400	-0.031026
C409	C	-0.006601	0.754169	-0.873413
C410	C	0.493399	1.254169	-0.373413
C411	C	-0.043464	0.732233	-0.909314
C412	C	0.456536	1.232233	-0.409314
C413	C	-0.079815	0.775145	-0.938038
C414	C	0.420185	1.275145	-0.438038
C415	C	-0.079303	0.839992	-0.930860
C416	C	0.420697	1.339992	-0.430860
C417	C	-0.042438	0.861931	-0.894957
C418	C	0.457562	1.361931	-0.394957
C419	C	-0.006087	0.819019	-0.866233
C420	C	0.493913	1.319019	-0.366233
H421	H	-0.043845	0.684226	-0.914629
H422	H	0.456155	1.184226	-0.414629
H423	H	-0.107105	0.758904	-0.964616
H424	H	0.392895	1.258904	-0.464616
H425	H	-0.106212	0.871758	-0.952123
H426	H	0.393788	1.371758	-0.452123
H427	H	-0.042057	0.909938	-0.889642
H428	H	0.457943	1.409938	-0.389642
H429	H	0.021203	0.835260	-0.839655
H430	H	0.521203	1.335260	-0.339655
C431	C	-0.704410	0.778232	-0.000050
C432	C	-0.204410	1.278232	0.499950
C433	C	-0.671408	0.792944	0.043028
C434	C	-0.171408	1.292944	0.543028
C435	C	-0.650302	0.850412	0.043024
C436	C	-0.150302	1.350412	0.543024
C437	C	-0.662198	0.893166	-0.000059
C438	C	-0.162198	1.393166	0.499941
C439	C	-0.695201	0.878454	-0.043140
C440	C	-0.195201	1.378454	0.456860
C441	C	-0.716307	0.820987	-0.043136
C442	C	-0.216307	1.320987	0.456864
H443	H	-0.662601	0.761294	0.074924
H444	H	-0.162601	1.261294	0.574924
H445	H	-0.625871	0.861302	0.074915
H446	H	-0.125871	1.361302	0.574915
H447	H	-0.646574	0.935707	-0.000063
H448	H	-0.146574	1.435707	0.499937
H449	H	-0.704009	0.910104	-0.075036
H450	H	-0.204009	1.410104	0.424964
H451	H	-0.740739	0.810097	-0.075027
H452	H	-0.240739	1.310097	0.424973
C453	C	0.060669	-0.038653	-0.095035
C454	C	0.560669	0.461347	0.404965
C455	C	0.102572	-0.053665	-0.132335
C456	C	0.602572	0.446335	0.367665
C457	C	0.102913	-0.021005	-0.182084
C458	C	0.602913	0.478995	0.317916
C459	C	0.061351	0.026667	-0.194531
C460	C	0.561351	0.526667	0.305469
C461	C	0.019445	0.041682	-0.157229
C462	C	0.519445	0.541682	0.342771
C463	C	0.019104	0.009022	-0.107481
C464	C	0.519104	0.509022	0.392519
H465	H	0.133342	-0.088957	-0.123122
H466	H	0.633342	0.411043	0.376878
H467	H	0.133935	-0.032120	-0.209696
H468	H	0.633935	0.467880	0.290304
H469	H	0.061603	0.050844	-0.231358
H470	H	0.561603	0.550844	0.268642
H471	H	-0.011325	0.076974	-0.166443
H472	H	0.488675	0.576974	0.333557
H473	H	-0.011918	0.020137	-0.079868
H474	H	0.488082	0.520137	0.420132
C475	C	0.063413	0.234592	0.140139
C476	C	0.563413	0.734592	0.640139
C477	C	0.021343	0.233268	0.177439
C478	C	0.521343	0.733268	0.677439
C479	C	0.021669	0.265934	0.227188
C480	C	0.521669	0.765934	0.727188
C481	C	0.064066	0.299925	0.239637
C482	C	0.564066	0.799925	0.739637
C483	C	0.106139	0.301251	0.202335
C484	C	0.606139	0.801251	0.702335
C485	C	0.105813	0.268585	0.152586
C486	C	0.605813	0.768585	0.652586
H487	H	-0.010044	0.208105	0.168224
H488	H	0.489956	0.708105	0.668224
H489	H	-0.009476	0.264953	0.254800
H490	H	0.490524	0.764953	0.754800
H491	H	0.064307	0.324107	0.276464
H492	H	0.564307	0.824107	0.776464
H493	H	0.137526	0.326414	0.211550
H494	H	0.637526	0.826414	0.711550
H495	H	0.136958	0.269566	0.124974
H496	H	0.636958	0.769566	0.624974
H497	H	-0.164477	0.581114	-0.000064
H498	H	0.335523	1.081114	0.499936
C499	C	0.066238	0.507805	0.094928
C500	C	0.566238	1.007805	0.594928
C501	C	0.024673	0.555484	0.107352
C502	C	0.524673	1.055484	0.607352
C503	C	0.024997	0.588165	0.157094
C504	C	0.524997	1.088165	0.657094
C505	C	0.066887	0.573167	0.194412
C506	C	0.566887	1.073167	0.694412
C507	C	0.108455	0.525486	0.181989
C508	C	0.608455	1.025486	0.681989
C509	C	0.108131	0.492805	0.132247
C510	C	0.608131	0.992805	0.632247
H511	H	-0.006339	0.566589	0.079726
H512	H	0.493661	1.066589	0.579726
H513	H	-0.005775	0.623462	0.166290
H514	H	0.494225	1.123462	0.666290
H515	H	0.067127	0.597359	0.231234
H516	H	0.567127	1.097359	0.731234
H517	H	0.139468	0.514381	0.209615
H518	H	0.639468	1.014381	0.709615
H519	H	0.138903	0.457508	0.123051
H520	H	0.638903	0.957508	0.623051
C521	C	-0.679160	0.560090	-0.000025
C522	C	-0.179160	1.060090	0.499975
C523	C	-0.642848	0.546216	0.043054
C524	C	-0.142848	1.046216	0.543054
C525	C	-0.608515	0.489410	0.043055
C526	C	-0.108515	0.989410	0.543055
C527	C	-0.610494	0.446478	-0.000022
C528	C	-0.110494	0.946478	0.499978
C529	C	-0.646807	0.460351	-0.043104
C530	C	-0.146807	0.960351	0.456896
C531	C	-0.681140	0.517156	-0.043105
C532	C	-0.181140	1.017156	0.456895
H533	H	-0.641382	0.577998	0.074945
H534	H	-0.141382	1.077998	0.574945
H535	H	-0.581634	0.479141	0.074948
H536	H	-0.081634	0.979141	0.574948
H537	H	-0.585079	0.404427	-0.000020
H538	H	-0.085079	0.904427	0.499980
H539	H	-0.648273	0.428569	-0.074995
H540	H	-0.148273	0.928569	0.425005
H541	H	-0.708022	0.527425	-0.074998
H542	H	-0.208022	1.027425	0.425002
C543	C	-0.195208	0.784330	-0.000073
C544	C	0.304792	1.284330	0.499927
C545	C	-0.193233	0.827244	-0.043161
C546	C	0.306767	1.327244	0.456839
C547	C	-0.227568	0.884048	-0.043170
C548	C	0.272432	1.384048	0.456830
C549	C	-0.263878	0.897938	-0.000093
C550	C	0.236122	1.397938	0.499907
C551	C	-0.265855	0.855023	0.042998
C552	C	0.234145	1.355023	0.542998
C553	C	-0.231521	0.798219	0.043008
C554	C	0.268479	1.298219	0.543008
H555	H	-0.166352	0.816963	-0.075052
H556	H	0.333648	1.316963	0.424948
H557	H	-0.226104	0.915817	-0.075069
H558	H	0.273896	1.415817	0.424931
H559	H	-0.289295	0.939988	-0.000100
H560	H	0.210705	1.439988	0.499900
H561	H	-0.292736	0.865304	0.074890
H562	H	0.207264	1.365304	0.574890
H563	H	-0.232984	0.766450	0.074906
H564	H	0.267016	1.266450	0.574906
H565	H	-0.332757	0.819828	-0.000069
H566	H	0.167243	1.319828	0.499931
H567	H	0.062228	0.118356	0.127217
H568	H	0.562228	0.618356	0.627217
H569	H	-0.801363	0.762204	-0.000044
H570	H	-0.301363	1.262204	0.499956
H571	H	0.155795	0.562384	-0.469092
H572	H	0.655795	1.062384	0.030908
H573	H	-0.483996	0.818017	-0.000057
H574	H	0.016004	1.318017	0.499943
H575	H	-0.575458	0.816915	-0.000051
H576	H	-0.075458	1.316915	0.499949
C577	C	-0.039623	0.793153	-0.366886
C578	C	0.460377	1.293153	0.133114
C579	C	-0.094664	0.792679	-0.374071
C580	C	0.405336	1.292679	0.125929
C581	C	-0.131018	0.835596	-0.345353
C582	C	0.368982	1.335596	0.154647
C583	C	-0.112332	0.878987	-0.309450
C584	C	0.387668	1.378987	0.190550
C585	C	-0.057288	0.879462	-0.302263
C586	C	0.442712	1.379462	0.197737
C587	C	-0.020934	0.836546	-0.330981
C588	C	0.479066	1.336546	0.169019
H589	H	-0.108499	0.760557	-0.400649
H590	H	0.391501	1.260557	0.099351
H591	H	-0.171765	0.835244	-0.350673
H592	H	0.328235	1.335244	0.149327
H593	H	-0.139243	0.910757	-0.288191
H594	H	0.360757	1.410757	0.211809
H595	H	-0.043453	0.911584	-0.275684
H596	H	0.456547	1.411584	0.224316
H597	H	0.019813	0.836898	-0.325661
H598	H	0.519813	1.336898	0.174339
H599	H	-0.779534	0.573751	-0.000030
H600	H	-0.279534	1.073751	0.499970
H601	H	-0.541602	0.524599	-0.000018
H602	H	-0.041602	1.024599	0.499982
H603	H	-0.450153	0.525695	-0.000021
H604	H	0.049847	1.025695	0.499979
H605	H	-0.030186	0.782011	-0.469072
H606	H	0.469814	1.282011	0.030928
H607	H	0.002868	0.742982	-0.228872
H608	H	0.502868	1.242982	0.271128
