data_functionalizedCrystal
_audit_creation_method	'MofGen! by Chris Wilmer'
_symmetry_space_group_name_H-M	'P1'
_symmetry_Int_Tables_number	1
_symmetry_cell_setting	triclinic
loop_
_symmetry_equiv_pos_as_xyz
  x,y,z
_cell_length_a	21.395364
_cell_length_b	21.395361
_cell_length_c	12.827885
_cell_angle_alpha	90.035887
_cell_angle_beta	90.022192
_cell_angle_gamma	90.047234
loop_
_atom_site_label
_atom_site_type_symbol
_atom_site_fract_x
_atom_site_fract_y
_atom_site_fract_z
Zn1	Zn	-0.957841	0.249128	-0.590882
Zn2	Zn	-0.957749	0.353918	-0.416124
Zn3	Zn	-0.853062	0.249189	-0.416147
Zn4	Zn	-0.853025	0.353902	-0.590816
O5	O	-0.905419	0.301534	-0.503492
O6	O	-1.045507	0.263010	-0.567718
O7	O	-0.943839	0.340058	-0.269891
O8	O	-0.867014	0.161503	-0.439364
O9	O	-1.045439	0.339999	-0.439324
O10	O	-0.943995	0.161458	-0.567741
O11	O	-0.866925	0.263114	-0.269908
O12	O	-0.765379	0.263098	-0.439300
O13	O	-0.866953	0.339971	-0.737061
O14	O	-0.765352	0.340031	-0.567628
O15	O	-0.943960	0.262994	-0.737109
O16	O	-0.943804	0.441594	-0.439260
O17	O	-0.866864	0.441582	-0.567605
C18	C	-0.742632	0.301570	-0.503460
C19	C	-0.672990	0.301600	-0.503470
C20	C	-0.640335	0.261578	-0.570428
C21	C	-0.574899	0.261564	-0.570430
C22	C	-0.542122	0.301582	-0.503486
C23	C	-0.574786	0.341606	-0.436516
C24	C	-0.640220	0.341616	-0.436508
C25	C	-0.438398	0.358011	-0.495081
C26	C	-0.372965	0.358003	-0.495097
C27	C	-0.340301	0.301554	-0.503505
C28	C	-0.373078	0.245110	-0.511921
C29	C	-0.438513	0.245119	-0.511912
C30	C	-0.471170	0.301576	-0.503487
C31	C	-0.236693	0.261513	-0.570469
C32	C	-0.171256	0.261497	-0.570464
C33	C	-0.171144	0.341545	-0.436556
C34	C	-0.236580	0.341555	-0.436555
C35	C	-0.269350	0.301540	-0.503517
C36	C	-0.905337	0.464322	-0.503446
C37	C	-0.905359	0.533963	-0.503461
C38	C	-0.905462	0.301474	-0.776063
C39	C	-0.905481	0.301448	-0.892216
C40	C	-0.068843	0.301507	-0.503521
C41	C	-0.138484	0.301515	-0.503519
C42	C	-0.945458	0.566662	-0.436702
C43	C	-0.945487	0.632097	-0.436731
C44	C	-0.905407	0.664832	-0.503506
C45	C	-0.865306	0.632125	-0.570278
C46	C	-0.865282	0.566691	-0.570255
C47	C	-0.848992	0.768562	-0.511702
C48	C	-0.849015	0.833995	-0.511717
C49	C	-0.905480	0.866652	-0.503582
C50	C	-0.961925	0.833869	-0.495410
C51	C	-0.961901	0.768435	-0.495387
C52	C	-0.905428	0.735784	-0.503539
C53	C	-0.945614	0.970303	-0.436850
C54	C	-0.945644	1.035740	-0.436886
C55	C	-0.865457	1.035767	-0.570427
C56	C	-0.865432	0.970331	-0.570398
C57	C	-0.905510	0.937604	-0.503603
C58	C	-0.905520	1.138111	-0.503580
C59	C	-0.905564	1.068470	-0.503663
C60	C	-0.943609	0.263324	-1.064069
C61	C	-0.943591	0.263350	-0.944019
C62	C	-0.905412	0.301550	-0.231983
C63	C	-0.905515	0.301399	-0.115830
H64	H	-0.346283	0.403963	-0.488250
N65	N	-0.862272	0.344622	-0.951172
H66	H	-0.887746	0.373617	-0.996456
H67	H	-0.836842	0.370009	-0.900043
H68	H	-0.832778	0.943706	-0.624754
N69	N	-0.272038	0.218357	-0.642698
H70	H	-0.299165	0.243867	-0.691048
H71	H	-0.241373	0.193012	-0.685041
N72	N	-0.862292	0.344597	-1.056800
H73	H	-0.817525	0.334878	-1.075735
H74	H	-0.872035	0.389354	-1.075737
N75	N	-0.337851	0.184223	-0.520979
H76	H	-0.349253	0.156145	-0.460635
H77	H	-0.349285	0.163001	-0.588707
N78	N	-0.473870	0.184249	-0.520976
H79	H	-0.462526	0.162971	-0.588670
H80	H	-0.462482	0.156214	-0.460583
H81	H	-0.803054	0.860682	-0.518361
N82	N	-0.788087	0.733341	-0.520487
H83	H	-0.752335	0.764036	-0.525659
H84	H	-0.782279	0.706230	-0.456798
H85	H	-0.464988	0.403983	-0.488233
N86	N	-0.675680	0.218420	-0.642646
H87	H	-0.645059	0.193063	-0.685063
H88	H	-0.702844	0.189396	-0.600194
N89	N	-0.822023	0.531424	-0.642256
H90	H	-0.792992	0.504334	-0.599728
H91	H	-0.847502	0.504254	-0.690700
H92	H	-0.832826	1.062418	-0.624802
N93	N	-0.822077	0.667427	-0.642304
H94	H	-0.828175	0.713841	-0.632187
H95	H	-0.777331	0.656049	-0.625967
N96	N	-0.136031	0.218317	-0.642667
H97	H	-0.166723	0.192969	-0.685080
H98	H	-0.108864	0.243846	-0.690953
N99	N	-0.988692	0.531363	-0.364680
H100	H	-0.978995	0.542798	-0.290001
H101	H	-1.033438	0.542710	-0.381083
H102	H	-0.548306	0.228970	-0.624953
H103	H	-0.144458	0.374129	-0.382049
H104	H	-0.976238	0.230709	-1.108632
H105	H	-0.263168	0.374148	-0.382035
H106	H	-0.978249	0.943655	-0.382466
H107	H	-0.978301	1.062362	-0.382525
N108	N	-0.988738	0.667376	-0.364726
H109	H	-1.014124	0.636714	-0.322411
H110	H	-0.963255	0.694578	-0.316341
H111	H	-0.548094	0.374189	-0.382009
H112	H	-1.007860	0.741744	-0.488736
N113	N	-0.675446	0.384782	-0.364285
H114	H	-0.644756	0.410130	-0.321871
H115	H	-0.702578	0.413813	-0.406731
N116	N	-0.986799	0.220172	-0.885068
H117	H	-0.980664	0.226314	-0.807665
H118	H	-1.031551	0.229909	-0.904104
N119	N	-1.022833	0.869081	-0.486630
H120	H	-1.014286	0.915508	-0.487890
H121	H	-1.050820	0.857577	-0.547101
