data_functionalizedCrystal
_audit_creation_method	'MofGen! by Chris Wilmer'
_symmetry_space_group_name_H-M	'P1'
_symmetry_Int_Tables_number	1
_symmetry_cell_setting	triclinic
loop_
_symmetry_equiv_pos_as_xyz
  x,y,z
_cell_length_a	10.489746
_cell_length_b	10.489741
_cell_length_c	9.130313
_cell_angle_alpha	90.004239
_cell_angle_beta	90.000594
_cell_angle_gamma	84.540238
loop_
_atom_site_label
_atom_site_type_symbol
_atom_site_fract_x
_atom_site_fract_y
_atom_site_fract_z
O1	O	1.694048	0.179999	0.121700
O2	O	1.322853	0.196885	0.121724
O3	O	1.516897	0.002845	0.121703
O4	O	1.500004	0.374040	0.121721
O5	O	1.516884	0.002839	-0.121896
O6	O	1.322840	0.196879	-0.121874
O7	O	1.694035	0.179994	-0.121899
Cu8	Cu	1.508436	0.188436	-0.144129
Cu9	Cu	1.508452	0.188443	0.143955
O10	O	1.499991	0.374034	-0.121877
C11	C	1.275315	0.195606	-0.000072
C12	C	1.133686	0.191786	-0.000063
C13	C	0.980828	0.066062	-0.000090
C14	C	1.058215	0.128916	-0.120189
C15	C	1.058184	0.128951	0.119980
C16	C	0.958724	0.247898	-0.120298
C17	C	0.958687	0.247915	0.119980
C18	C	1.036025	0.310856	-0.000149
C19	C	1.515614	-0.044690	-0.000096
C20	C	1.511797	-0.186320	-0.000093
C21	C	1.388333	-0.254462	-0.000074
C22	C	1.446650	-0.346586	-0.120184
C23	C	1.446692	-0.346555	0.119985
C24	C	1.570165	-0.276578	-0.120302
C25	C	1.570190	-0.276538	0.119975
C26	C	1.628597	-0.368635	-0.000165
C27	C	1.741573	0.181273	-0.000099
C28	C	1.883202	0.185093	-0.000099
C29	C	1.501273	0.421569	-0.000076
C30	C	1.505091	0.563198	-0.000069
N31	N	1.508434	0.188431	-0.346752
C32	C	1.594386	0.102546	-0.423413
C33	C	1.594398	0.102546	-0.576750
C34	C	1.422503	0.274327	-0.576751
C35	C	1.422485	0.274320	-0.423417
N36	N	1.508464	0.188438	0.346577
H37	H	0.915439	0.298110	-0.221950
H38	H	1.352527	0.344258	-0.639186
H39	H	1.622354	-0.245748	-0.221961
C40	C	0.899916	0.315735	0.257156
H41	H	0.934125	0.273300	0.342417
H42	H	0.919754	0.402223	0.258026
H43	H	0.809601	0.313493	0.255673
C44	C	1.376112	-0.388408	0.257163
H45	H	1.432433	-0.445100	0.313725
H46	H	1.348320	-0.315192	0.314092
H47	H	1.304040	-0.430776	0.228288
C48	C	0.947445	-0.073760	-0.000230
H49	H	0.899467	-0.089148	0.085153
H50	H	0.898163	-0.088614	-0.084752
H51	H	1.024129	-0.129782	-0.001150
C52	C	1.327937	0.368800	-0.339083
H53	H	1.276764	0.419966	-0.406700
H54	H	1.274418	0.322388	-0.279282
H55	H	1.374309	0.422351	-0.279253
H56	H	1.101686	0.078665	-0.221733
C57	C	1.688943	0.008075	-0.661078
H58	H	1.676637	0.020367	-0.763379
H59	H	1.774195	0.022762	-0.635937
H60	H	1.674304	-0.077199	-0.635958
C61	C	1.688923	0.008075	-0.339080
H62	H	1.676616	0.020379	-0.236779
H63	H	1.674306	-0.077197	-0.364220
H64	H	1.774181	0.022781	-0.364200
C65	C	1.069106	0.450775	-0.000229
H66	H	1.034728	0.492856	-0.085625
H67	H	1.033518	0.493345	0.084281
H68	H	1.159494	0.452439	0.000575
H69	H	1.286821	-0.204813	-0.000188
C70	C	1.116872	0.061053	0.257153
H71	H	1.098331	-0.025851	0.256989
H72	H	1.207018	0.064635	0.256657
H73	H	1.081447	0.102471	0.342444
H74	H	1.730200	-0.418057	-0.000239
C75	C	1.376075	-0.388494	-0.257349
H76	H	1.290715	-0.349033	-0.257201
H77	H	1.419113	-0.363376	-0.342642
H78	H	1.374834	-0.478931	-0.256803
C79	C	1.640707	-0.234580	0.257146
H80	H	1.596724	-0.258278	0.342411
H81	H	1.725576	-0.275251	0.258006
H82	H	1.643293	-0.144307	0.255666
