data_functionalizedCrystal
_audit_creation_method	'MofGen! by Chris Wilmer'
_symmetry_space_group_name_H-M	'P1'
_symmetry_Int_Tables_number	1
_symmetry_cell_setting	triclinic
loop_
_symmetry_equiv_pos_as_xyz
  x,y,z
_cell_length_a	12.827892
_cell_length_b	12.759401
_cell_length_c	12.827885
_cell_angle_alpha	89.980121
_cell_angle_beta	90.029976
_cell_angle_gamma	89.988638
loop_
_atom_site_label
_atom_site_type_symbol
_atom_site_fract_x
_atom_site_fract_y
_atom_site_fract_z
Zn1	Zn	-0.416093	-1.606248	0.590860
Zn2	Zn	0.083907	-1.106248	1.090860
Zn3	Zn	-0.590871	-1.606141	0.416121
Zn4	Zn	-0.090871	-1.106141	0.916121
Zn5	Zn	-0.416132	-1.430551	0.416133
Zn6	Zn	0.083868	-0.930551	0.916133
Zn7	Zn	-0.590780	-1.430536	0.590819
Zn8	Zn	-0.090780	-0.930536	1.090819
O9	O	-0.503469	-1.518369	0.503483
O10	O	-0.003469	-1.018369	1.003483
O11	O	-0.439299	-1.753255	0.567693
O12	O	0.060701	-1.253255	1.067693
O13	O	-0.567746	-1.582810	0.269886
O14	O	-0.067746	-1.082810	0.769886
O15	O	-0.269891	-1.453908	0.439333
O16	O	0.230109	-0.953908	0.939333
O17	O	-0.567708	-1.753176	0.439312
O18	O	-0.067708	-1.253176	0.939312
O19	O	-0.269862	-1.582992	0.567704
O20	O	0.230138	-1.082992	1.067704
O21	O	-0.439366	-1.453804	0.269895
O22	O	0.060634	-0.953804	0.769895
O23	O	-0.439278	-1.283528	0.439293
O24	O	0.060722	-0.783528	0.939293
O25	O	-0.567553	-1.453884	0.737061
O26	O	-0.067553	-0.953884	1.237061
O27	O	-0.567591	-1.283517	0.567635
O28	O	-0.067591	-0.783517	1.067635
O29	O	-0.439211	-1.582978	0.737091
O30	O	0.060789	-1.082978	1.237091
O31	O	-0.737095	-1.582796	0.439272
O32	O	-0.237095	-1.082796	0.939272
O33	O	-0.737028	-1.453780	0.567623
O34	O	-0.237028	-0.953780	1.067623
C35	C	-0.503430	-1.245402	0.503461
C36	C	-0.003430	-0.745402	1.003461
C37	C	-0.503438	-1.128625	0.503477
C38	C	-0.003438	-0.628625	1.003477
C39	C	-0.436699	-1.073797	0.570427
C40	C	0.063301	-0.573797	1.070427
C41	C	-0.436713	-0.964073	0.570430
C42	C	0.063287	-0.464073	1.070430
C43	C	-0.570215	-0.964014	0.436531
C44	C	-0.070215	-0.464014	0.936531
C45	C	-0.570195	-1.073737	0.436523
C46	C	-0.070195	-0.573737	0.936523
C47	C	-0.359626	-1.073830	0.647735
C48	C	0.140374	-0.573830	1.147735
C49	C	-0.359640	-0.964106	0.647739
C50	C	0.140360	-0.464106	1.147739
C51	C	-0.774979	-1.518303	0.503465
C52	C	-0.274979	-1.018303	1.003465
C53	C	-0.891132	-1.518371	0.503492
C54	C	-0.391132	-1.018371	1.003492
C55	C	-0.942915	-1.582288	0.440050
C56	C	-0.442915	-1.082288	0.940050
C57	C	-1.062965	-1.582360	0.440077
C58	C	-0.562965	-1.082360	0.940077
C59	C	-0.230899	-1.518463	0.503525
C60	C	0.269101	-1.018463	1.003525
C61	C	-0.114746	-1.518504	0.503542
C62	C	0.385254	-1.018504	1.003542
C63	C	-0.503368	-1.518441	0.776053
C64	C	-0.003368	-1.018441	1.276053
C65	C	-0.503325	-1.518472	0.892207
C66	C	-0.003325	-1.018472	1.392207
C67	C	-0.503496	-0.792402	0.503499
C68	C	-0.003496	-0.292402	1.003499
C69	C	-0.503473	-0.909179	0.503488
C70	C	-0.003473	-0.409179	1.003488
C71	C	-0.503494	-1.518357	0.231973
C72	C	-0.003494	-1.018357	0.731973
C73	C	-0.503243	-1.518530	0.115821
C74	C	-0.003243	-1.018530	0.615821
C75	C	-0.439761	-1.582390	1.064051
C76	C	0.060239	-1.082390	1.564051
C77	C	-0.439804	-1.582359	0.944000
C78	C	0.060196	-1.082359	1.444000
H79	H	-0.388706	-1.107894	0.724562
H80	H	0.111294	-0.607894	1.224562
H81	H	-1.107498	-1.637079	0.385760
H82	H	-0.607498	-1.137079	0.885760
Br83	Br	-0.349204	-1.673481	0.869803
Br84	Br	0.150796	-1.173481	1.369803
H85	H	-0.624566	-0.919311	0.382020
H86	H	-0.124566	-0.419311	0.882020
Br87	Br	-0.593910	-1.427330	0.966397
Br88	Br	-0.093910	-0.927330	1.466397
Br89	Br	-1.040537	-1.427279	0.594070
Br90	Br	-0.540537	-0.927279	1.094070
H91	H	-0.624530	-1.118373	0.381996
H92	H	-0.124530	-0.618373	0.881996
H93	H	-0.935675	-1.463707	0.557830
H94	H	-0.435675	-0.963707	1.057830
H95	H	-0.557628	-1.463839	1.071266
H96	H	-0.057628	-0.963839	1.571266
H97	H	-0.278659	-1.103597	0.626197
H98	H	0.221341	-0.603597	1.126197
Br99	Br	-0.349126	-1.673567	1.138300
Br100	Br	0.150874	-1.173567	1.638300
H101	H	-0.282723	-0.930065	0.618892
H102	H	0.217277	-0.430065	1.118892
H103	H	-0.381418	-0.934360	0.728640
H104	H	0.118582	-0.434360	1.228640
H105	H	-0.898374	-1.636961	0.385719
H106	H	-0.398374	-1.136961	0.885719
