data_functionalizedCrystal
_audit_creation_method	'MofGen! by Chris Wilmer'
_symmetry_space_group_name_H-M	'P1'
_symmetry_Int_Tables_number	1
_symmetry_cell_setting	triclinic
loop_
_symmetry_equiv_pos_as_xyz
  x,y,z
_cell_length_a	14.519731
_cell_length_b	13.596369
_cell_length_c	10.654550
_cell_angle_alpha	90.005825
_cell_angle_beta	84.086892
_cell_angle_gamma	90.005416
loop_
_atom_site_label
_atom_site_type_symbol
_atom_site_fract_x
_atom_site_fract_y
_atom_site_fract_z
O1	O	1.224711	0.081793	0.164753
O2	O	1.724711	0.581793	0.664753
O3	O	0.956337	0.081795	0.184111
O4	O	1.456337	0.581795	0.684111
O5	O	1.096694	0.081788	-0.008366
O6	O	1.596694	0.581788	0.491634
O7	O	1.084353	0.081800	0.357230
O8	O	1.584353	0.581800	0.857230
O9	O	1.096680	-0.081795	-0.008376
O10	O	1.596680	0.418205	0.491624
O11	O	0.956323	-0.081788	0.184101
O12	O	1.456323	0.418212	0.684101
O13	O	1.224696	-0.081790	0.164742
O14	O	1.724696	0.418210	0.664742
Zn15	Zn	1.090507	-0.107761	0.174420
Zn16	Zn	1.590507	0.392239	0.674420
Zn17	Zn	1.090526	0.107766	0.174434
Zn18	Zn	1.590526	0.607766	0.674434
O19	O	1.084339	-0.081783	0.357220
O20	O	1.584339	0.418217	0.857220
C21	C	0.921965	0.000003	0.183199
C22	C	1.421965	0.500003	0.683199
C23	C	0.819571	0.000004	0.180481
C24	C	1.319571	0.500004	0.680481
C25	C	0.736416	0.000008	0.178272
C26	C	1.236416	0.500008	0.678272
C27	C	0.632093	0.000008	0.175513
C28	C	1.132093	0.500008	0.675513
C29	C	0.548942	0.000008	0.173322
C30	C	1.048942	0.500008	0.673322
C31	C	0.444612	0.000010	0.170563
C32	C	0.944612	0.500010	0.670563
N33	N	1.090501	-0.254853	0.174410
N34	N	1.590501	0.245147	0.674410
C35	C	1.090525	-0.656144	0.174435
C36	C	1.590525	-0.156144	0.674435
C37	C	1.090515	-0.544493	0.174432
C38	C	1.590515	-0.044493	0.674432
C39	C	1.090513	-0.455502	0.174423
C40	C	1.590513	0.044498	0.674423
C41	C	1.090503	-0.343844	0.174419
C42	C	1.590503	0.156156	0.674419
C43	C	1.259068	0.000004	0.165655
C44	C	1.759068	0.500004	0.665655
C45	C	1.361462	0.000010	0.168373
C46	C	1.861462	0.500010	0.668373
C47	C	1.095781	-0.000003	-0.055160
C48	C	1.595781	0.499997	0.444840
C49	C	1.093070	-0.000002	-0.194578
C50	C	1.593070	0.499998	0.305422
N51	N	1.090539	0.254858	0.174434
N52	N	1.590539	0.754858	0.674434
C53	C	1.175710	-0.000002	-0.274850
C54	C	1.675710	0.499998	0.225150
C55	C	1.173157	0.000010	-0.405846
C56	C	1.673157	0.500010	0.094154
C57	C	1.005317	0.000018	-0.376286
C58	C	1.505317	0.500018	0.123714
C59	C	1.007871	0.000013	-0.245293
C60	C	1.507871	0.500013	0.254707
C61	C	1.085252	0.000010	0.404014
C62	C	1.585252	0.500010	0.904014
C63	C	1.087963	0.000015	0.543432
C64	C	1.587963	0.500015	1.043432
H65	H	1.245085	-0.000012	-0.233562
H66	H	1.745085	0.499988	0.266438
H67	H	1.240451	0.000012	-0.471199
H68	H	1.740451	0.500012	0.028801
H69	H	0.940571	0.000016	-0.179931
H70	H	1.440571	0.500016	0.320069
O71	O	0.922638	-0.000020	-0.425762
O72	O	1.422638	0.499980	0.074238
C73	C	0.938102	0.000006	-0.558595
C74	C	1.438102	0.500006	-0.058595
H75	H	1.009871	-0.030965	-0.589192
H76	H	1.509871	0.469035	-0.089192
H77	H	0.883532	-0.047486	-0.598946
H78	H	1.383532	0.452514	-0.098946
H79	H	0.933406	0.078485	-0.595057
H80	H	1.433406	0.578485	-0.095057
