data_functionalizedCrystal
_audit_creation_method	'MofGen! by Chris Wilmer'
_symmetry_space_group_name_H-M	'P1'
_symmetry_Int_Tables_number	1
_symmetry_cell_setting	triclinic
loop_
_symmetry_equiv_pos_as_xyz
  x,y,z
_cell_length_a	10.654556
_cell_length_b	15.944551
_cell_length_c	9.730223
_cell_angle_alpha	90.007181
_cell_angle_beta	90.002611
_cell_angle_gamma	83.993137
loop_
_atom_site_label
_atom_site_type_symbol
_atom_site_fract_x
_atom_site_fract_y
_atom_site_fract_z
O1	O	1.666309	0.118004	0.114241
O2	O	1.300686	0.129238	0.114256
O3	O	1.493482	0.001404	0.114236
O4	O	1.473513	0.245838	0.114261
O5	O	1.493467	0.001397	-0.114344
O6	O	1.300671	0.129231	-0.114324
O7	O	1.666294	0.117996	-0.114339
Zn8	Zn	1.483480	0.123612	-0.150623
Zn9	Zn	1.483500	0.123622	0.150540
O10	O	1.473498	0.245830	-0.114319
C11	C	1.253891	0.128408	-0.000033
C12	C	1.114481	0.125937	-0.000027
C13	C	0.917988	0.122462	0.124561
C14	C	1.048981	0.124779	0.124569
C15	C	1.048983	0.124770	-0.124641
C16	C	0.917994	0.122447	-0.124648
C17	C	1.492645	-0.029898	-0.000054
C18	C	1.490160	-0.123159	-0.000055
C19	C	1.364716	-0.338744	-0.000031
C20	C	1.422960	-0.399427	-0.112737
C21	C	1.485664	-0.293911	-0.000044
C22	C	1.423004	-0.399402	0.112625
C23	C	1.481312	-0.458849	-0.000028
C24	C	1.543942	-0.353365	-0.112844
C25	C	1.543968	-0.353335	0.112620
C26	C	1.602301	-0.414000	-0.000114
C27	C	1.488168	-0.198894	-0.000055
C28	C	1.478818	-0.553864	-0.000027
C29	C	1.713089	0.118826	-0.000047
C30	C	1.852499	0.121297	-0.000044
C31	C	1.474335	0.277133	-0.000025
C32	C	1.476820	0.370393	-0.000016
N33	N	1.483475	0.123605	-0.356160
C34	C	1.407343	0.072200	-0.572025
C35	C	1.407327	0.072188	-0.428142
C36	C	1.559655	0.175031	-0.428068
C37	C	1.559678	0.175037	-0.571948
N38	N	1.483515	0.123623	0.356077
H39	H	1.264323	-0.306019	-0.000140
N40	N	1.735388	-0.457164	-0.000206
H41	H	1.749332	-0.493178	0.084918
H42	H	1.797149	-0.413241	-0.001108
H43	H	1.345327	0.030334	-0.630623
H44	H	1.102324	0.125708	-0.226090
N45	N	0.847360	0.121208	0.258956
H46	H	0.803189	0.068267	0.264497
H47	H	0.782902	0.172257	0.264445
N48	N	1.355231	-0.426408	0.238831
H49	H	1.265501	-0.398764	0.238727
H50	H	1.400106	-0.408832	0.323886
H51	H	1.595087	-0.332905	0.207905
H52	H	1.371798	-0.419835	-0.208017
H53	H	1.595049	-0.333082	-0.208232
H54	H	1.621663	0.216891	-0.369448
N55	N	1.119619	0.126027	0.258963
H56	H	1.058248	0.124944	0.337892
H57	H	1.163798	0.178966	0.264405
N58	N	1.325177	0.016720	-0.350594
H59	H	1.276936	-0.015848	-0.418027
H60	H	1.263781	0.052956	-0.290893
N61	N	1.641871	0.230482	-0.649508
H62	H	1.690120	0.263050	-0.582082
H63	H	1.587155	0.271210	-0.709223
H64	H	0.864672	0.121498	-0.226122
