data_functionalizedCrystal
_audit_creation_method	'MofGen! by Chris Wilmer'
_symmetry_space_group_name_H-M	'P1'
_symmetry_Int_Tables_number	1
_symmetry_cell_setting	triclinic
loop_
_symmetry_equiv_pos_as_xyz
  x,y,z
_cell_length_a	18.101398
_cell_length_b	12.594516
_cell_length_c	18.101389
_cell_angle_alpha	89.987481
_cell_angle_beta	89.975673
_cell_angle_gamma	90.011320
loop_
_atom_site_label
_atom_site_type_symbol
_atom_site_fract_x
_atom_site_fract_y
_atom_site_fract_z
Zn1	Zn	1.132198	-0.423988	-0.418869
Zn2	Zn	1.132127	-0.601956	-0.295040
Zn3	Zn	1.008357	-0.423977	-0.295030
Zn4	Zn	1.008341	-0.601910	-0.418829
O5	O	1.070256	-0.512958	-0.356942
O6	O	1.235822	-0.447620	-0.402464
O7	O	1.115686	-0.578361	-0.191406
O8	O	1.024822	-0.275033	-0.311470
O9	O	1.235769	-0.578372	-0.311488
O10	O	1.115808	-0.275041	-0.402454
O11	O	1.024753	-0.447601	-0.191399
O12	O	0.904722	-0.447557	-0.311431
O13	O	1.024794	-0.578294	-0.522467
O14	O	0.904710	-0.578283	-0.402386
O15	O	1.115791	-0.447575	-0.522497
O16	O	1.115669	-0.750896	-0.311449
O17	O	1.024724	-0.750862	-0.402395
C18	C	0.877845	-0.512915	-0.356904
C19	C	0.795531	-0.512922	-0.356905
C20	C	1.070207	-0.789499	-0.356935
C21	C	1.070254	-0.907804	-0.356957
C22	C	0.496440	-0.512988	-0.356967
C23	C	0.527748	-0.430327	-0.300020
C24	C	0.613367	-0.430549	-0.299777
C25	C	0.644823	-0.512954	-0.356936
C26	C	0.613725	-0.625071	-0.335619
C27	C	0.528080	-0.624611	-0.335223
C28	C	0.528050	-0.484507	-0.435364
C29	C	0.613700	-0.482010	-0.434936
C30	C	0.728682	-0.512942	-0.356920
C31	C	0.412581	-0.513008	-0.356981
C32	C	1.020784	-0.977078	-0.406388
C33	C	1.002743	-1.047918	-0.338810
C34	C	1.088363	-1.047763	-0.424546
C35	C	1.052177	-0.977086	-0.289343
C36	C	1.137829	-0.976925	-0.375124
C37	C	1.119813	-1.047733	-0.307500
C38	C	1.263418	-0.513002	-0.356981
C39	C	1.345732	-0.513021	-0.356998
C40	C	1.070299	-0.512931	-0.550104
C41	C	1.070317	-0.512919	-0.632418
C42	C	1.070325	-0.235337	-0.356966
C43	C	1.070354	-0.117032	-0.356976
C44	C	1.070360	-0.512720	-0.931509
C45	C	1.012909	-0.594703	-0.900166
C46	C	1.013065	-0.595083	-0.814547
C47	C	1.070338	-0.512819	-0.783127
C48	C	1.148369	-0.543275	-0.814235
C49	C	1.148049	-0.543813	-0.899880
C50	C	1.050458	-0.400099	-0.899926
C51	C	1.048722	-0.400749	-0.814275
C52	C	1.070330	-0.512873	-0.699267
C53	C	1.070373	-0.512668	-1.015369
C54	C	1.070256	-0.512908	-0.164532
C55	C	1.070381	-0.512619	-0.082218
H56	H	0.507163	-0.346934	-0.313233
H57	H	0.991298	-0.377782	-0.793941
H58	H	0.506202	-0.448941	-0.242266
N59	N	0.642092	-0.657633	-0.260524
H60	H	0.675078	-0.599931	-0.240204
H61	H	0.598977	-0.669058	-0.225991
N62	N	0.501565	-0.656598	-0.259310
H63	H	0.520352	-0.730093	-0.247261
H64	H	0.520812	-0.604448	-0.221560
N65	N	1.170380	-0.652864	-0.926370
H66	H	1.216554	-0.647164	-0.957464
H67	H	1.180302	-0.700079	-0.882375
H68	H	0.978875	-0.946053	-0.448129
N69	N	1.100104	-0.315539	-0.785950
H70	H	1.084868	-0.244496	-0.806872
H71	H	1.097488	-0.313026	-0.730244
N72	N	1.175285	-1.088589	-0.252083
H73	H	1.226142	-1.061619	-0.265342
H74	H	1.161486	-1.062733	-0.201102
H75	H	1.092302	-0.339017	-0.920197
N76	N	0.927105	-1.089215	-0.318449
H77	H	0.889732	-1.063518	-0.355808
H78	H	0.927888	-1.169396	-0.318122
H79	H	1.025920	-0.677672	-0.921697
H80	H	0.955202	-0.576024	-0.793513
N81	N	1.213448	-0.935587	-0.395494
H82	H	1.227046	-0.961249	-0.446579
H83	H	1.212910	-0.855407	-0.394814
N84	N	0.936026	-0.569733	-0.927421
H85	H	0.902633	-0.555277	-0.883857
H86	H	0.937747	-0.505050	-0.960367
N87	N	0.640473	-0.455479	-0.222829
H88	H	0.596786	-0.466375	-0.188937
H89	H	0.671357	-0.522232	-0.224055
H90	H	1.103640	-1.078808	-0.481697
N91	N	0.976395	-0.363335	-0.928504
H92	H	0.977948	-0.359070	-0.984201
H93	H	0.936936	-0.415404	-0.912856
H94	H	0.634029	-0.399505	-0.451010
H95	H	0.635115	-0.537830	-0.479639
H96	H	0.634392	-0.347409	-0.313138
N97	N	1.030467	-0.705657	-0.787415
H98	H	1.038075	-0.754340	-0.831091
H99	H	1.076907	-0.703840	-0.756535
N100	N	1.206680	-0.468172	-0.927355
H101	H	1.232620	-0.434630	-0.883829
H102	H	1.243731	-0.508384	-0.958301
H103	H	0.507370	-0.688284	-0.374893
N104	N	1.206597	-0.466661	-0.787294
H105	H	1.182897	-0.411343	-0.754584
H106	H	1.245252	-0.506687	-0.758274
H107	H	1.036835	-0.946169	-0.232176
N108	N	0.640704	-0.708863	-0.388826
H109	H	0.597004	-0.743456	-0.413796
H110	H	0.673441	-0.674810	-0.427320
N111	N	1.171103	-0.651167	-0.785842
H112	H	1.133876	-0.706051	-0.802241
H113	H	1.221394	-0.669962	-0.806174
H114	H	0.506463	-0.404176	-0.454747
H115	H	0.507804	-0.544714	-0.477795
