data_functionalizedCrystal
_audit_creation_method	'MofGen! by Chris Wilmer'
_symmetry_space_group_name_H-M	'P1'
_symmetry_Int_Tables_number	1
_symmetry_cell_setting	triclinic
loop_
_symmetry_equiv_pos_as_xyz
  x,y,z
_cell_length_a	14.908571
_cell_length_b	12.594516
_cell_length_c	14.908308
_cell_angle_alpha	93.271498
_cell_angle_beta	90.175053
_cell_angle_gamma	86.712497
loop_
_atom_site_label
_atom_site_type_symbol
_atom_site_fract_x
_atom_site_fract_y
_atom_site_fract_z
Zn1	Zn	1.345329	-0.555460	-0.587618
Zn2	Zn	1.845329	-0.055460	-0.087618
Zn3	Zn	1.353920	-0.723816	-0.437269
Zn4	Zn	1.853920	-0.223816	0.062731
Zn5	Zn	1.203643	-0.535016	-0.428614
Zn6	Zn	1.703643	-0.035016	0.071386
Zn7	Zn	1.194948	-0.722551	-0.578920
Zn8	Zn	1.694948	-0.222551	-0.078920
O9	O	1.274460	-0.634211	-0.508105
O10	O	1.774460	-0.134211	-0.008105
O11	O	1.472295	-0.586878	-0.574935
O12	O	1.972295	-0.086878	-0.074935
O13	O	1.341220	-0.690745	-0.310295
O14	O	1.841220	-0.190745	0.189705
O15	O	1.222482	-0.388787	-0.449724
O16	O	1.722482	0.111213	0.050276
O17	O	1.478607	-0.710568	-0.464475
O18	O	1.978607	-0.210568	0.035525
O19	O	1.326578	-0.403807	-0.566543
O20	O	1.826578	0.096193	-0.066543
O21	O	1.230812	-0.552034	-0.303937
O22	O	1.730812	-0.052034	0.196063
O23	O	1.076663	-0.550808	-0.441291
O24	O	1.576663	-0.050808	0.058709
O25	O	1.207662	-0.708413	-0.705899
O26	O	1.707662	-0.208413	-0.205899
O27	O	1.070275	-0.688589	-0.551720
O28	O	1.570275	-0.188589	-0.051720
O29	O	1.318147	-0.585652	-0.712289
O30	O	1.818147	-0.085652	-0.212289
O31	O	1.332788	-0.872590	-0.456041
O32	O	1.832788	-0.372590	0.043959
O33	O	1.215992	-0.871661	-0.560112
O34	O	1.715992	-0.371661	-0.060112
C35	C	1.040844	-0.617344	-0.494623
C36	C	1.540844	-0.117344	0.005377
C37	C	0.940900	-0.610155	-0.488877
C38	C	1.440900	-0.110155	0.011123
C39	C	0.746501	-0.740319	-0.592914
C40	C	1.246501	-0.240319	-0.092914
C41	C	0.652595	-0.733568	-0.587518
C42	C	1.152595	-0.233568	-0.087518
C43	C	0.659180	-0.589898	-0.472693
C44	C	1.159180	-0.089898	0.027307
C45	C	0.753086	-0.596649	-0.478089
C46	C	1.253086	-0.096649	0.021911
C47	C	0.796743	-0.671863	-0.538201
C48	C	1.296743	-0.171863	-0.038201
C49	C	0.890651	-0.678619	-0.543592
C50	C	1.390651	-0.178619	-0.043592
C51	C	0.897235	-0.534943	-0.428772
C52	C	1.397235	-0.034943	0.071228
C53	C	0.803329	-0.528192	-0.423376
C54	C	1.303329	-0.028192	0.076624
C55	C	1.274402	-0.910747	-0.508093
C56	C	1.774402	-0.410747	-0.008093
C57	C	1.274457	-1.029058	-0.508123
C58	C	1.774457	-0.529058	-0.008123
C59	C	1.210928	-1.097842	-0.564684
C60	C	1.710928	-0.597842	-0.064684
C61	C	1.193759	-1.161862	-0.481377
C62	C	1.693759	-0.661862	0.018623
C63	C	1.291708	-1.175844	-0.591449
C64	C	1.791708	-0.675844	-0.091449
C65	C	1.257247	-1.091515	-0.424769
C66	C	1.757247	-0.591515	0.075231
C67	C	1.355231	-1.105496	-0.534899
C68	C	1.855231	-0.605496	-0.034899
C69	C	1.338096	-1.169483	-0.451537
C70	C	1.838096	-0.669483	0.048463
C71	C	1.508989	-0.651145	-0.521641
C72	C	2.008989	-0.151145	-0.021641
C73	C	1.608931	-0.658361	-0.527409
C74	C	2.108931	-0.158361	-0.027409
C75	C	1.260976	-0.649172	-0.742631
C76	C	1.760976	-0.149172	-0.242631
C77	C	1.255230	-0.655547	-0.842572
C78	C	1.755230	-0.155547	-0.342572
C79	C	1.274542	-0.356598	-0.508138
C80	C	1.774542	0.143402	-0.008138
C81	C	1.274577	-0.238296	-0.508153
C82	C	1.774577	0.261704	-0.008153
C83	C	1.359477	-0.539672	-1.037028
C84	C	1.859477	-0.039672	-0.537028
C85	C	1.354081	-0.545658	-1.130932
C86	C	1.854081	-0.045658	-0.630932
C87	C	1.239037	-0.673502	-1.124285
C88	C	1.739037	-0.173502	-0.624285
C89	C	1.244433	-0.667515	-1.030381
C90	C	1.744433	-0.167515	-0.530381
C91	C	1.304656	-0.600599	-0.986756
C92	C	1.804656	-0.100599	-0.486756
C93	C	1.310057	-0.594618	-0.892851
C94	C	1.810057	-0.094618	-0.392851
C95	C	1.195009	-0.722455	-0.886206
C96	C	1.695009	-0.222455	-0.386206
C97	C	1.189612	-0.728442	-0.980110
C98	C	1.689612	-0.228442	-0.480110
C99	C	1.287944	-0.619235	-0.274494
C100	C	1.787944	-0.119235	0.225506
C101	C	1.293864	-0.612572	-0.174564
C102	C	1.793864	-0.112572	0.325436
H103	H	0.767770	-0.466952	-0.374438
H104	H	1.267770	0.033048	0.125562
H105	H	0.623618	-0.528655	-0.423759
H106	H	1.123618	-0.028655	0.076241
H107	H	1.190006	-0.727981	-1.159821
H108	H	1.690006	-0.227981	-0.659821
H109	H	1.242625	-1.054822	-0.354289
H110	H	1.742625	-0.554822	0.145711
C111	C	1.134702	-0.789480	-0.830900
C112	C	1.634702	-0.289480	-0.330900
N113	N	1.089282	-0.839964	-0.789242
N114	N	1.589282	-0.339964	-0.289242
C115	C	1.447406	-1.071672	-0.565524
C116	C	1.947406	-0.571672	-0.065524
N117	N	1.516830	-1.046189	-0.588603
N118	N	2.016830	-0.546189	-0.088603
H119	H	0.611690	-0.789311	-0.632073
H120	H	1.111690	-0.289311	-0.132073
C121	C	1.101548	-1.195636	-0.450792
C122	C	1.601548	-0.695636	0.049208
N123	N	1.032092	-1.221072	-0.427761
N124	N	1.532092	-0.721072	0.072239
H125	H	0.926195	-0.739864	-0.592536
H126	H	1.426195	-0.239864	-0.092536
C127	C	1.311356	-1.225578	-0.686631
C128	C	1.811356	-0.725578	-0.186631
N129	N	1.326149	-1.263032	-0.758325
N130	N	1.826149	-0.763032	-0.258325
H131	H	1.359094	-0.540133	-0.857333
H132	H	1.859094	-0.040133	-0.357333
C133	C	1.138234	-1.055341	-0.629192
C134	C	1.638234	-0.555341	-0.129192
N135	N	1.083479	-1.023326	-0.677774
N136	N	1.583479	-0.523326	-0.177774
H137	H	1.140579	-0.782921	-1.015642
H138	H	1.640579	-0.282921	-0.515642
C139	C	0.952509	-0.459640	-0.368581
C140	C	1.452509	0.040360	0.131419
N141	N	0.994143	-0.402925	-0.323243
N142	N	1.494143	0.097075	0.176757
H143	H	1.391875	-1.200727	-0.403659
H144	H	1.891875	-0.700727	0.096341
H145	H	1.398720	-0.496042	-1.171859
H146	H	1.898720	0.003958	-0.671859
C147	C	0.794525	-0.823058	-0.659033
C148	C	1.294525	-0.323058	-0.159033
N149	N	0.830696	-0.885378	-0.708836
N150	N	1.330696	-0.385378	-0.208836
C151	C	1.425726	-0.466070	-0.989038
C152	C	1.925726	0.033930	-0.489038
N153	N	1.475626	-0.410630	-0.952894
N154	N	1.975626	0.089370	-0.452894
