data_functionalizedCrystal
_audit_creation_method	'MofGen! by Chris Wilmer'
_symmetry_space_group_name_H-M	'P1'
_symmetry_Int_Tables_number	1
_symmetry_cell_setting	triclinic
loop_
_symmetry_equiv_pos_as_xyz
  x,y,z
_cell_length_a	14.853567
_cell_length_b	10.654559
_cell_length_c	9.130313
_cell_angle_alpha	89.999532
_cell_angle_beta	90.002541
_cell_angle_gamma	84.061807
loop_
_atom_site_label
_atom_site_type_symbol
_atom_site_fract_x
_atom_site_fract_y
_atom_site_fract_z
O1	O	0.126662	1.666511	-0.121794
O2	O	0.138717	1.300909	-0.121794
O3	O	0.001512	1.493476	-0.121798
O4	O	0.263867	1.473945	-0.121789
O5	O	0.001516	1.493474	0.121801
O6	O	0.138721	1.300907	0.121805
O7	O	0.126665	1.666509	0.121805
Cu8	Cu	0.132693	1.483708	0.144048
Cu9	Cu	0.132689	1.483711	-0.144036
O10	O	0.263870	1.473942	0.121810
C11	C	0.137832	1.254119	0.000006
C12	C	0.135178	1.114704	0.000005
C13	C	0.051900	1.064030	0.000006
C14	C	0.049412	0.933033	-0.000005
C15	C	0.213489	0.903397	-0.000012
C16	C	0.215975	1.034391	-0.000011
C17	C	-0.042828	1.081139	0.000016
C18	C	-0.045316	0.950143	0.000005
C19	C	-0.032080	1.492590	-0.000003
C20	C	-0.132178	1.489938	-0.000016
C21	C	-0.545387	1.364338	0.000012
C22	C	-0.565438	1.593112	0.000012
C23	C	-0.471390	1.595606	0.000003
C24	C	-0.414337	1.482464	0.000001
C25	C	-0.451331	1.366829	0.000008
C26	C	-0.434390	1.711239	0.000012
C27	C	-0.340337	1.713738	0.000005
C28	C	-0.283282	1.600594	-0.000008
C29	C	-0.320281	1.484954	-0.000003
C30	C	-0.263227	1.371812	-0.000005
C31	C	-0.300225	1.256171	-0.000010
C32	C	-0.394275	1.253685	-0.000004
C33	C	-0.189231	1.603080	-0.000014
C34	C	-0.169171	1.374302	-0.000009
C35	C	0.297462	1.474828	0.000011
C36	C	0.397560	1.477480	0.000014
C37	C	0.127550	1.713299	0.000003
C38	C	0.130204	1.852714	-0.000007
N39	N	0.132696	1.483715	0.346670
N40	N	0.132679	1.483713	-0.346659
C41	C	0.071962	1.569005	0.423320
C42	C	0.071952	1.569002	0.576657
C43	C	0.193416	1.398414	0.576680
C44	C	0.193421	1.398412	0.423346
C45	C	0.001839	1.667497	0.423308
C46	C	0.001828	1.667493	0.576645
H47	H	-0.078528	1.123259	-0.101924
H48	H	-0.082356	0.921158	0.101951
H49	H	-0.122724	1.282167	-0.000017
C50	C	-0.254157	1.061935	0.125211
C51	C	-0.237505	1.131807	-0.000010
H52	H	-0.215429	0.985165	0.125212
H53	H	-0.315455	1.043895	0.125194
H54	H	-0.242864	1.109355	0.210153
H55	H	-0.248804	1.084391	-0.084952
H56	H	-0.176192	1.149844	-0.000007
H57	H	-0.424407	1.159536	-0.000007
C58	C	0.282531	0.689431	-0.000020
C59	C	0.302297	0.815112	-0.000018
H60	H	0.337360	0.634932	-0.000014
H61	H	0.248420	0.674063	-0.084964
H62	H	0.248418	0.674060	0.084933
H63	H	0.336405	0.830485	-0.084977
H64	H	0.336422	0.830486	0.084935
C65	C	-0.148440	1.622530	0.486382
C66	C	-0.091701	1.639511	0.367104
H67	H	-0.206183	1.605245	0.451681
H68	H	-0.154806	1.697049	0.544169
H69	H	-0.122816	1.553765	0.544178
H70	H	-0.117322	1.708283	0.309314
H71	H	-0.085338	1.564984	0.309294
H72	H	-0.071445	1.127077	0.105197
C73	C	-0.033855	0.933656	-0.261742
C74	C	-0.086053	0.902463	-0.141979
H75	H	-0.059007	0.904225	-0.349395
H76	H	0.026354	0.895231	-0.250516
H77	H	-0.033525	1.022670	-0.266550
H78	H	-0.086377	0.813447	-0.137165
H79	H	-0.146278	0.940884	-0.153208
C80	C	-0.053962	1.708474	-0.000008
C81	C	-0.148561	1.730179	-0.000002
H82	H	-0.028857	1.786946	0.000008
H83	H	-0.034441	1.661900	-0.084958
H84	H	-0.034432	1.661873	0.084939
H85	H	-0.168092	1.776772	-0.084955
H86	H	-0.168091	1.776773	0.084957
H87	H	-0.310222	1.807900	0.000007
H88	H	-0.480849	1.803353	0.000027
C89	C	-0.680649	1.258926	0.000016
C90	C	-0.586049	1.237229	0.000013
H91	H	-0.705750	1.180451	0.000026
H92	H	-0.700179	1.305506	-0.084929
H93	H	-0.700173	1.305518	0.084969
H94	H	-0.566524	1.190645	-0.084945
H95	H	-0.566511	1.190628	0.084967
C96	C	-0.575812	1.819496	0.000007
C97	C	-0.628147	1.717474	0.000015
H98	H	-0.614531	1.896273	0.000015
H99	H	-0.538720	1.815708	-0.084939
H100	H	-0.538704	1.815704	0.084958
H101	H	-0.665251	1.721261	-0.084941
H102	H	-0.665255	1.721264	0.084971
H103	H	0.017277	1.763844	0.618262
C104	C	0.313475	1.229787	0.438778
C105	C	0.260176	1.304651	0.339091
H106	H	0.354690	1.171906	0.386759
H107	H	0.275637	1.184565	0.498575
H108	H	0.346256	1.282121	0.498591
H109	H	0.227389	1.252317	0.279285
H110	H	0.298019	1.349876	0.279269
C111	C	0.050934	1.870923	0.473310
C112	C	0.031475	1.790282	0.359092
H113	H	0.069226	1.946727	0.433661
H114	H	0.098335	1.830772	0.531863
H115	H	-0.001569	1.889976	0.531854
H116	H	0.083981	1.771222	0.300554
H117	H	-0.015929	1.830441	0.300515
H118	H	0.242856	1.328962	0.639127
H119	H	0.283788	1.075644	-0.000037
H120	H	-0.063656	1.637661	0.624189
