data_functionalizedCrystal
_audit_creation_method	'MofGen! by Chris Wilmer'
_symmetry_space_group_name_H-M	'P1'
_symmetry_Int_Tables_number	1
_symmetry_cell_setting	triclinic
loop_
_symmetry_equiv_pos_as_xyz
  x,y,z
_cell_length_a	12.759394
_cell_length_b	12.827893
_cell_length_c	12.827885
_cell_angle_alpha	90.021189
_cell_angle_beta	89.968586
_cell_angle_gamma	89.987144
loop_
_atom_site_label
_atom_site_type_symbol
_atom_site_fract_x
_atom_site_fract_y
_atom_site_fract_z
Zn1	Zn	-0.418269	-1.597674	-0.590892
Zn2	Zn	0.081731	-1.097674	-0.090892
Zn3	Zn	-0.593985	-1.597569	-0.416148
Zn4	Zn	-0.093985	-1.097569	0.083852
Zn5	Zn	-0.418315	-1.422915	-0.416159
Zn6	Zn	0.081685	-0.922915	0.083841
Zn7	Zn	-0.593901	-1.422902	-0.590842
Zn8	Zn	-0.093901	-0.922902	-0.090842
O9	O	-0.506118	-1.510265	-0.503510
O10	O	-0.006118	-1.010265	-0.003510
O11	O	-0.441595	-1.743896	-0.567727
O12	O	0.058405	-1.243896	-0.067727
O13	O	-0.570737	-1.574363	-0.269913
O14	O	-0.070737	-1.074363	0.230087
O15	O	-0.271288	-1.446146	-0.439364
O16	O	0.228712	-0.946146	0.060636
O17	O	-0.570693	-1.743819	-0.439344
O18	O	-0.070693	-1.243819	0.060656
O19	O	-0.271254	-1.574541	-0.567739
O20	O	0.228746	-1.074541	-0.067739
O21	O	-0.441673	-1.446045	-0.269922
O22	O	0.058327	-0.946045	0.230078
O23	O	-0.441590	-1.276677	-0.439315
O24	O	0.058410	-0.776677	0.060685
O25	O	-0.570548	-1.446124	-0.737084
O26	O	-0.070548	-0.946124	-0.237084
O27	O	-0.570592	-1.276668	-0.567654
O28	O	-0.070592	-0.776668	-0.067654
O29	O	-0.441512	-1.574528	-0.737121
O30	O	0.058488	-1.074528	-0.237121
O31	O	-0.740995	-1.574350	-0.439295
O32	O	-0.240995	-1.074350	0.060705
O33	O	-0.740933	-1.446023	-0.567642
O34	O	-0.240933	-0.946023	-0.067642
C35	C	-0.506088	-1.238755	-0.503481
C36	C	-0.006088	-0.738755	-0.003481
C37	C	-0.506101	-1.122602	-0.503494
C38	C	-0.006101	-0.622602	-0.003494
C39	C	-0.779085	-1.510202	-0.503485
C40	C	-0.279085	-1.010202	-0.003485
C41	C	-0.895862	-1.510271	-0.503509
C42	C	-0.395862	-1.010271	-0.003509
C43	C	-0.570033	-1.070840	-0.566900
C44	C	-0.070033	-0.570840	-0.066900
C45	C	-0.570047	-0.950790	-0.566914
C46	C	-0.070047	-0.450790	-0.066914
C47	C	-0.895873	-1.643999	-0.369961
C48	C	-0.395873	-1.143999	0.130039
C49	C	-0.950740	-1.710890	-0.303200
C50	C	-0.450740	-1.210890	0.196800
C51	C	-1.060461	-1.710951	-0.303228
C52	C	-0.560461	-1.210951	0.196772
C53	C	-1.115319	-1.644116	-0.370028
C54	C	-0.615319	-1.144116	0.129972
C55	C	-1.060452	-1.577225	-0.436789
C56	C	-0.560452	-1.077225	0.063211
C57	C	-0.950728	-1.577169	-0.436751
C58	C	-0.450728	-1.077169	0.063249
C59	C	-1.060441	-1.443504	-0.570340
C60	C	-0.560441	-0.943504	-0.070340
C61	C	-0.950719	-1.443436	-0.570308
C62	C	-0.450719	-0.943436	-0.070308
C63	C	-1.115298	-1.376670	-0.637140
C64	C	-0.615298	-0.876670	-0.137140
C65	C	-1.060432	-1.309772	-0.703898
C66	C	-0.560432	-0.809772	-0.203898
C67	C	-0.950704	-1.309712	-0.703866
C68	C	-0.450704	-0.809712	-0.203866
C69	C	-0.895853	-1.376545	-0.637070
C70	C	-0.395853	-0.876545	-0.137070
C71	C	-0.232084	-1.510356	-0.503558
C72	C	0.267916	-1.010356	-0.003558
C73	C	-0.115307	-1.510395	-0.503579
C74	C	0.384693	-1.010395	-0.003579
C75	C	-0.506016	-1.510336	-0.776080
C76	C	-0.006016	-1.010336	-0.276080
C77	C	-0.505972	-1.510366	-0.892234
C78	C	-0.005972	-1.010366	-0.392234
C79	C	-0.506139	-0.782835	-0.503531
C80	C	-0.006139	-0.282835	-0.003531
C81	C	-0.506127	-0.898988	-0.503519
C82	C	-0.006127	-0.398988	-0.003519
C83	C	-0.569812	-1.573869	-0.944014
C84	C	-0.069812	-1.073869	-0.444014
C85	C	-0.569768	-1.573902	-1.064065
C86	C	-0.069768	-1.073902	-0.564065
C87	C	-0.506143	-1.510254	-0.232000
C88	C	-0.006143	-1.010254	0.268000
C89	C	-0.505891	-1.510426	-0.115848
C90	C	-0.005891	-1.010426	0.384152
H91	H	-0.624753	-1.115402	-0.621177
H92	H	-0.124753	-0.615402	-0.121177
F93	F	-0.434564	-1.064362	-0.432556
F94	F	0.065436	-0.564362	0.067444
H95	H	-0.806532	-1.643942	-0.369918
H96	H	-0.306532	-1.143942	0.130082
H97	H	-0.624424	-1.628268	-1.108594
H98	H	-0.124424	-1.128268	-0.608594
H99	H	-1.204660	-1.644181	-0.370054
H100	H	-0.704660	-1.144181	0.129946
F101	F	-0.434484	-1.439339	-0.950453
F102	F	0.065516	-0.939339	-0.450453
F103	F	-0.434584	-0.957161	-0.432554
F104	F	0.065416	-0.457161	0.067446
H105	H	-0.906065	-1.765308	-0.248814
H106	H	-0.406065	-1.265308	0.251186
H107	H	-0.624785	-0.906276	-0.621195
H108	H	-0.124785	-0.406276	-0.121195
F109	F	-1.118856	-1.782148	-0.232179
F110	F	-0.618856	-1.282148	0.267821
F111	F	-0.779077	-1.376725	-0.637268
F112	F	-0.279077	-0.876725	-0.137268
H113	H	-1.204640	-1.376729	-0.637163
H114	H	-0.704640	-0.876729	-0.137163
F115	F	-0.892319	-1.238522	-0.774929
F116	F	-0.392319	-0.738522	-0.274929
F117	F	-1.118820	-1.238656	-0.774988
F118	F	-0.618820	-0.738656	-0.274988
H119	H	-0.624495	-1.628216	-0.899468
H120	H	-0.124495	-1.128216	-0.399468
H121	H	-0.451236	-1.456053	-1.071324
H122	H	0.048764	-0.956053	-0.571324
