data_functionalizedCrystal
_audit_creation_method	'MofGen! by Chris Wilmer'
_symmetry_space_group_name_H-M	'P1'
_symmetry_Int_Tables_number	1
_symmetry_cell_setting	triclinic
loop_
_symmetry_equiv_pos_as_xyz
  x,y,z
_cell_length_a	15.944499
_cell_length_b	15.712078
_cell_length_c	14.421503
_cell_angle_alpha	89.993655
_cell_angle_beta	89.992178
_cell_angle_gamma	101.529379
loop_
_atom_site_label
_atom_site_type_symbol
_atom_site_fract_x
_atom_site_fract_y
_atom_site_fract_z
O1	O	1.148729	0.111267	-0.077167
O2	O	1.482063	0.444601	0.256166
O3	O	1.815396	0.777934	0.589499
O4	O	0.908410	0.125058	-0.077157
O5	O	1.241743	0.458391	0.256176
O6	O	1.575076	0.791724	0.589509
O7	O	0.996599	-0.007661	-0.077156
O8	O	1.329932	0.325672	0.256177
O9	O	1.663265	0.659006	0.589510
O10	O	1.060540	0.243986	-0.077168
O11	O	1.393874	0.577319	0.256165
O12	O	1.727207	0.910653	0.589498
O13	O	0.996583	-0.007675	0.077067
O14	O	1.329916	0.325658	0.410401
O15	O	1.663249	0.658991	0.743734
O16	O	0.908394	0.125043	0.077066
O17	O	1.241727	0.458377	0.410400
O18	O	1.575060	0.791710	0.743733
O19	O	1.148713	0.111253	0.077056
O20	O	1.482046	0.444586	0.410389
O21	O	1.815380	0.777920	0.743723
Cu22	Cu	1.028552	0.118147	0.091143
Cu23	Cu	1.361885	0.451480	0.424476
Cu24	Cu	1.695219	0.784814	0.757810
Cu25	Cu	1.028571	0.118164	-0.091244
Cu26	Cu	1.361904	0.451497	0.242089
Cu27	Cu	1.695238	0.784830	0.575423
O28	O	1.060524	0.243972	0.077055
O29	O	1.393857	0.577305	0.410388
O30	O	1.727191	0.910638	0.743722
C31	C	0.876933	0.124486	-0.000044
C32	C	1.210267	0.457819	0.333289
C33	C	1.543600	0.791153	0.666623
C34	C	0.783165	0.122793	-0.000040
C35	C	1.116499	0.456127	0.333293
C36	C	1.449832	0.789460	0.666627
C37	C	0.515314	0.199899	-0.000058
C38	C	0.848647	0.533233	0.333276
C39	C	1.181980	0.866566	0.666609
C40	C	0.564039	0.159825	-0.076097
C41	C	0.897372	0.493158	0.257236
C42	C	1.230706	0.826491	0.590569
C43	C	0.445640	0.116644	-0.000061
C44	C	0.778973	0.449977	0.333272
C45	C	1.112306	0.783310	0.666606
C46	C	0.564002	0.159788	0.075955
C47	C	0.897335	0.493122	0.409288
C48	C	1.230669	0.826455	0.742621
C49	C	0.611478	0.119670	-0.000049
C50	C	0.944811	0.453003	0.333284
C51	C	1.278145	0.786336	0.666617
C52	C	0.493130	0.076546	-0.076164
C53	C	0.826463	0.409879	0.257169
C54	C	1.159797	0.743213	0.590503
C55	C	0.493090	0.076521	0.075957
C56	C	0.826423	0.409854	0.409290
C57	C	1.159757	0.743188	0.742623
C58	C	0.541779	0.036386	-0.000102
C59	C	0.875113	0.369719	0.333231
C60	C	1.208446	0.703052	0.666565
C61	C	0.350105	0.114903	-0.000069
C62	C	0.683438	0.448236	0.333265
C63	C	1.016772	0.781570	0.666598
C64	C	0.707010	0.121404	-0.000048
C65	C	1.040343	0.454737	0.333285
C66	C	1.373676	0.788071	0.666618
C67	C	0.986145	-0.039870	-0.000045
C68	C	1.319478	0.293463	0.333288
C69	C	1.652812	0.626797	0.666622
C70	C	0.955009	-0.135821	-0.000046
C71	C	1.288343	0.197512	0.333288
C72	C	1.621676	0.530846	0.666621
C73	C	1.219357	-0.502953	-0.000066
C74	C	1.552690	-0.169619	0.333267
C75	C	1.886023	0.163714	0.666600
C76	C	1.190081	-0.593110	-0.000065
C77	C	1.523414	-0.259777	0.333269
C78	C	1.856747	0.073556	0.666602
C79	C	1.043387	-0.572475	-0.000059
C80	C	1.376720	-0.239141	0.333274
C81	C	1.710054	0.094192	0.666608
C82	C	1.072651	-0.482313	-0.000056
C83	C	1.405984	-0.148980	0.333277
C84	C	1.739317	0.184353	0.666611
C85	C	1.160636	-0.447560	-0.000061
C86	C	1.493970	-0.114226	0.333273
C87	C	1.827303	0.219107	0.666606
C88	C	1.013930	-0.426921	-0.000050
C89	C	1.347264	-0.093587	0.333283
C90	C	1.680597	0.239746	0.666616
C91	C	1.043192	-0.336767	-0.000052
C92	C	1.376525	-0.003434	0.333281
C93	C	1.709859	0.329900	0.666614
C94	C	1.131174	-0.302006	-0.000060
C95	C	1.464507	0.031327	0.333273
C96	C	1.797841	0.364660	0.666607
C97	C	1.189898	-0.357406	-0.000063
C98	C	1.523231	-0.024073	0.333271
C99	C	1.856564	0.309260	0.666604
C100	C	0.925945	-0.461676	-0.000052
C101	C	1.259279	-0.128343	0.333281
C102	C	1.592612	0.204991	0.666614
C103	C	0.867225	-0.406283	-0.000047
C104	C	1.200558	-0.072950	0.333287
C105	C	1.533892	0.260384	0.666620
C106	C	0.896486	-0.316128	-0.000042
C107	C	1.229820	0.017205	0.333291
C108	C	1.563153	0.350539	0.666625
C109	C	0.984468	-0.281367	-0.000049
C110	C	1.317801	0.051966	0.333284
C111	C	1.651135	0.385299	0.666617
C112	C	0.837762	-0.260728	-0.000039
C113	C	1.171096	0.072605	0.333294
C114	C	1.504429	0.405939	0.666628
C115	C	0.867024	-0.170575	-0.000041
C116	C	1.200357	0.162759	0.333292
C117	C	1.533691	0.496092	0.666626
C118	C	1.013730	-0.191214	-0.000051
C119	C	1.347063	0.142120	0.333282
C120	C	1.680396	0.475453	0.666615
C121	C	1.180189	0.111825	-0.000059
C122	C	1.513523	0.445158	0.333274
C123	C	1.846856	0.778491	0.666608
C124	C	1.273958	0.113517	-0.000069
C125	C	1.607291	0.446851	0.333264
C126	C	1.940624	0.780184	0.666597
C127	C	1.070978	0.276181	-0.000058
C128	C	1.404311	0.609514	0.333275
C129	C	1.737645	0.942847	0.666608
C130	C	1.102113	0.372132	-0.000064
C131	C	1.435447	0.705465	0.333270
C132	C	1.768780	1.038798	0.666603
N133	N	1.028544	0.118135	0.219424
N134	N	1.361878	0.451468	0.552758
N135	N	1.695211	0.784801	0.886091
N136	N	1.028583	0.118169	-0.219525
N137	N	1.361916	0.451502	0.113808
N138	N	1.695250	0.784836	0.447141
C139	C	1.068726	0.056277	0.530853
C140	C	1.402059	0.389610	0.864187
C141	C	1.735392	0.722944	1.197520
C142	C	1.109630	0.134140	0.469012
C143	C	1.442963	0.467473	0.802346
C144	C	1.776297	0.800806	1.135679
C145	C	1.028571	0.118159	0.591313
C146	C	1.361904	0.451493	0.924647
C147	C	1.695237	0.784826	1.257980
C148	C	0.987693	0.040287	0.469060
C149	C	1.321027	0.373620	0.802394
C150	C	1.654360	0.706953	1.135727
C151	C	1.028559	0.118143	0.408592
C152	C	1.361892	0.451476	0.741925
C153	C	1.695225	0.784810	1.075258
C154	C	1.069525	0.196061	0.530833
C155	C	1.402859	0.529395	0.864166
C156	C	1.736192	0.862728	1.197500
C157	C	0.947540	0.102157	0.530886
C158	C	1.280873	0.435490	0.864220
C159	C	1.614206	0.768824	1.197553
C160	C	0.988430	0.180076	0.469073
C161	C	1.321763	0.513410	0.802407
C162	C	1.655096	0.846743	1.135740
C163	C	1.028580	0.118168	0.696574
C164	C	1.361913	0.451501	1.029908
C165	C	1.695246	0.784834	1.363241
C166	C	1.028552	0.118144	0.303333
C167	C	1.361886	0.451477	0.636666
C168	C	1.695219	0.784810	0.970000
H169	H	0.462351	0.041371	-0.140522
H170	H	0.795685	0.374704	0.192811
H171	H	1.129018	0.708037	0.526145
F172	F	0.604380	0.205825	0.159976
F173	F	0.937713	0.539158	0.493309
F174	F	1.271046	0.872492	0.826643
H175	H	1.085376	-0.162916	-0.000046
H176	H	1.418710	0.170418	0.333288
H177	H	1.752043	0.503751	0.666621
H178	H	0.879028	0.088598	0.558085
H179	H	1.212362	0.421931	0.891418
H180	H	1.545695	0.755265	1.224751
F181	F	1.113182	-0.012038	0.566313
F182	F	1.446516	0.321295	0.899646
F183	F	1.779849	0.654628	1.232979
H184	H	0.553714	-0.032770	-0.000139
H185	H	0.887047	0.300563	0.333194
H186	H	1.220381	0.633897	0.666528
F187	F	0.604447	0.205858	-0.160130
F188	F	0.937780	0.539191	0.173203
F189	F	1.271113	0.872524	0.506537
F190	F	1.162317	-0.206056	-0.000066
F191	F	1.495651	0.127278	0.333267
F192	F	1.828984	0.460611	0.666600
H193	H	0.953127	-0.025562	0.441925
H194	H	1.286460	0.307771	0.775258
H195	H	1.619793	0.641104	1.108591
H196	H	1.178154	0.147674	0.441834
H197	H	1.511487	0.481008	0.775168
H198	H	1.844820	0.814341	1.108501
H199	H	1.104166	0.261926	0.557854
H200	H	1.437500	0.595259	0.891187
H201	H	1.770833	0.928593	1.224521
F202	F	0.499487	0.290208	-0.000156
F203	F	0.832820	0.623542	0.333178
F204	F	1.166153	0.956875	0.666511
H205	H	0.462159	0.041330	0.140248
H206	H	0.795492	0.374664	0.473581
H207	H	1.128826	0.707997	0.806915
F208	F	0.944057	0.248540	0.433835
F209	F	1.277391	0.581874	0.767169
F210	F	1.610724	0.915207	1.100502
H211	H	1.261544	-0.329108	-0.000057
H212	H	1.594878	0.004225	0.333276
H213	H	1.928211	0.337558	0.666610
H214	H	1.237905	-0.638210	-0.000075
H215	H	1.571238	-0.304876	0.333258
H216	H	1.904571	0.028457	0.666591
F217	F	0.949749	-0.609472	-0.000061
F218	F	1.283082	-0.276139	0.333272
F219	F	1.616416	0.057195	0.666605
F220	F	1.313001	-0.465961	-0.000046
F221	F	1.646335	-0.132627	0.333288
F222	F	1.979668	0.200706	0.666621
F223	F	0.773587	-0.443280	-0.000049
F224	F	1.106920	-0.109947	0.333284
F225	F	1.440254	0.223386	0.666618
F226	F	0.804527	-0.111618	-0.000035
F227	F	1.137861	0.221715	0.333298
F228	F	1.471194	0.555048	0.666631
F229	F	0.894804	-0.557627	0.000008
F230	F	1.228137	-0.224293	0.333342
F231	F	1.561471	0.109040	0.666675
F232	F	0.744125	-0.297727	-0.000050
F233	F	1.077458	0.035606	0.333284
F234	F	1.410791	0.368939	0.666617
