data_functionalizedCrystal
_audit_creation_method	'MofGen! by Chris Wilmer'
_symmetry_space_group_name_H-M	'P1'
_symmetry_Int_Tables_number	1
_symmetry_cell_setting	triclinic
loop_
_symmetry_equiv_pos_as_xyz
  x,y,z
_cell_length_a	10.654550
_cell_length_b	10.723024
_cell_length_c	9.130313
_cell_angle_alpha	89.996649
_cell_angle_beta	89.999724
_cell_angle_gamma	84.476400
loop_
_atom_site_label
_atom_site_type_symbol
_atom_site_fract_x
_atom_site_fract_y
_atom_site_fract_z
O1	O	1.667813	0.175275	-0.121686
O2	O	1.302332	0.191974	-0.121712
O3	O	1.493503	0.002049	-0.121693
O4	O	1.476642	0.365199	-0.121705
O5	O	1.493490	0.002044	0.121906
O6	O	1.302319	0.191968	0.121886
O7	O	1.667800	0.175269	0.121913
Cu8	Cu	1.485058	0.183618	0.144142
Cu9	Cu	1.485074	0.183625	-0.143942
O10	O	1.476629	0.365194	0.121894
C11	C	1.255528	0.190745	0.000084
C12	C	1.116085	0.187077	0.000073
C13	C	1.036583	0.298901	0.000074
C14	C	0.905562	0.295447	0.000100
C15	C	0.933560	0.068334	0.000118
C16	C	1.064577	0.071789	0.000103
C17	C	1.492269	-0.044453	0.000104
C18	C	1.488598	-0.183008	0.000099
C19	C	1.595567	-0.257975	0.000105
C20	C	1.591776	-0.401179	0.000099
C21	C	1.714604	0.176498	0.000114
C22	C	1.854047	0.180167	0.000114
C23	C	1.477863	0.411696	0.000093
C24	C	1.481534	0.550251	0.000089
N25	N	1.485056	0.183613	0.346765
N26	N	1.485085	0.183620	-0.346564
C27	C	1.569736	0.099550	0.423425
C28	C	1.569748	0.099550	0.576762
C29	C	1.400397	0.267687	0.576765
C30	C	1.400380	0.267680	0.423431
H31	H	1.129312	-0.019278	0.000107
N32	N	0.819843	0.416077	0.000159
H33	H	0.836507	0.466345	-0.090134
H34	H	0.729052	0.396328	0.000254
N35	N	1.713079	-0.486504	0.000118
H36	H	1.716680	-0.541131	-0.090183
H37	H	1.787102	-0.434326	0.000183
N38	N	1.092147	0.423237	0.000065
H39	H	1.145873	0.429736	-0.090245
H40	H	1.021830	0.493482	0.000129
N41	N	1.661091	0.008894	0.659447
H42	H	1.717098	0.057113	0.723050
H43	H	1.612552	-0.046787	0.722997
H44	H	1.689955	-0.216138	0.000121
H45	H	1.638683	0.031096	0.361008
N46	N	1.309072	0.358356	0.659454
H47	H	1.321932	0.345609	0.768224
H48	H	1.324330	0.447020	0.632635
N49	N	1.309031	0.358350	0.340747
H50	H	1.324248	0.447058	0.367409
H51	H	1.321906	0.345477	0.232003
N52	N	0.877990	-0.056000	0.000151
H53	H	0.824248	-0.062497	-0.090145
H54	H	0.948304	-0.126248	0.000210
N55	N	1.360228	-0.364426	0.000103
H56	H	1.356635	-0.309784	-0.090193
H57	H	1.286202	-0.416600	0.000155
N58	N	1.363571	-0.238422	0.000097
H59	H	1.314174	-0.209763	0.090398
H60	H	1.314275	-0.209738	-0.090266
