data_functionalizedCrystal
_audit_creation_method	'MofGen! by Chris Wilmer'
_symmetry_space_group_name_H-M	'P1'
_symmetry_Int_Tables_number	1
_symmetry_cell_setting	triclinic
loop_
_symmetry_equiv_pos_as_xyz
  x,y,z
_cell_length_a	12.759401
_cell_length_b	12.594516
_cell_length_c	12.759393
_cell_angle_alpha	89.970876
_cell_angle_beta	89.978811
_cell_angle_gamma	90.016000
loop_
_atom_site_label
_atom_site_type_symbol
_atom_site_fract_x
_atom_site_fract_y
_atom_site_fract_z
Zn1	Zn	1.606246	-0.423681	-0.594075
Zn2	Zn	1.606136	-0.601700	-0.418402
Zn3	Zn	1.430548	-0.423736	-0.418406
Zn4	Zn	1.430532	-0.601618	-0.594035
O5	O	1.518365	-0.512684	-0.506230
O6	O	1.753252	-0.447307	-0.570786
O7	O	1.582804	-0.578150	-0.271382
O8	O	1.453907	-0.274783	-0.441727
O9	O	1.753171	-0.578097	-0.441721
O10	O	1.582991	-0.274742	-0.570790
O11	O	1.453800	-0.447401	-0.271384
O12	O	1.283524	-0.447321	-0.441689
O13	O	1.453880	-0.577956	-0.741062
O14	O	1.283513	-0.578010	-0.570723
O15	O	1.582976	-0.447227	-0.741091
O16	O	1.582789	-0.750635	-0.441683
O17	O	1.453774	-0.750574	-0.570719
C18	C	1.245398	-0.512663	-0.506202
C19	C	1.128621	-0.512680	-0.506216
C20	C	0.963983	-0.580697	-0.438957
C21	C	1.073707	-0.580677	-0.438927
C22	C	1.073805	-0.444690	-0.573531
C23	C	0.964083	-0.444705	-0.573554
C24	C	0.963927	-0.659212	-0.361248
C25	C	1.073651	-0.659192	-0.361218
C26	C	1.518296	-0.789225	-0.506219
C27	C	1.518363	-0.907530	-0.506250
C28	C	1.448185	-0.976789	-0.576384
C29	C	1.422585	-1.047659	-0.480516
C30	C	1.544058	-1.047459	-0.602134
C31	C	1.492713	-0.976842	-0.410331
C32	C	1.614230	-0.976635	-0.532014
C33	C	1.588667	-1.047474	-0.436080
C34	C	1.792398	-0.512705	-0.506257
C35	C	1.909175	-0.512714	-0.506269
C36	C	1.518439	-0.512576	-0.780263
C37	C	1.518470	-0.512530	-0.897040
C38	C	1.518463	-0.235063	-0.506263
C39	C	1.518505	-0.116757	-0.506277
C40	C	1.585700	-0.444453	-0.951918
C41	C	1.585725	-0.444415	-1.061643
C42	C	1.451288	-0.580540	-1.061600
C43	C	1.451258	-0.580572	-0.951877
C44	C	1.663319	-0.365865	-0.951944
C45	C	1.663344	-0.365827	-1.061668
C46	C	1.518352	-0.512714	-0.233262
C47	C	1.518525	-0.512460	-0.116486
H48	H	0.929901	-0.737555	-0.390274
C49	C	1.463293	-0.935119	-0.300776
H50	H	1.463384	-0.859690	-0.301445
H51	H	1.512878	-0.959885	-0.250924
H52	H	1.395448	-0.960030	-0.282382
H53	H	1.641552	-0.283436	-0.922184
H54	H	1.634232	-0.287506	-1.095712
C55	C	1.668918	-1.089150	-0.355887
H56	H	1.650544	-1.064841	-0.287846
H57	H	1.736764	-1.063757	-0.373598
H58	H	1.668936	-1.164574	-0.356730
C59	C	1.723656	-0.934495	-0.561463
H60	H	1.741767	-0.958641	-0.629632
H61	H	1.773707	-0.959775	-0.512334
H62	H	1.723002	-0.859074	-0.560614
H63	H	1.740590	-0.395416	-0.917913
C64	C	1.113891	-0.770574	-0.390479
H65	H	1.055982	-0.816391	-0.402544
H66	H	1.155213	-0.797897	-0.334739
H67	H	1.155290	-0.766144	-0.452227
H68	H	1.396564	-0.635935	-1.106262
C69	C	1.119575	-0.619203	-0.256848
H70	H	1.064100	-0.601412	-0.210387
H71	H	1.161500	-0.558165	-0.269404
H72	H	1.161448	-0.673380	-0.226352
H73	H	1.388731	-0.945751	-0.635607
H74	H	0.919463	-0.389338	-0.628358
C75	C	1.573346	-1.089362	-0.711658
H76	H	1.523365	-1.065146	-0.761389
H77	H	1.573817	-1.164779	-0.710733
H78	H	1.640920	-1.063988	-0.730431
C79	C	1.773255	-0.395676	-1.101911
H80	H	1.818437	-0.407988	-1.044003
H81	H	1.800334	-0.339257	-1.143288
H82	H	1.768795	-0.458223	-1.143257
H83	H	1.396510	-0.636003	-0.907199
H84	H	1.341578	-1.078879	-0.458747
C85	C	1.134208	-0.369893	-0.647546
H86	H	1.207404	-0.379623	-0.637896
H87	H	1.116225	-0.298362	-0.632296
H88	H	1.116266	-0.385565	-0.718118
C89	C	0.923634	-0.629258	-0.251390
H90	H	0.981521	-0.616918	-0.206195
H91	H	0.882249	-0.685648	-0.224270
H92	H	0.882286	-0.566709	-0.255933
