data_functionalizedCrystal
_audit_creation_method	'MofGen! by Chris Wilmer'
_symmetry_space_group_name_H-M	'P1'
_symmetry_Int_Tables_number	1
_symmetry_cell_setting	triclinic
loop_
_symmetry_equiv_pos_as_xyz
  x,y,z
_cell_length_a	10.654550
_cell_length_b	15.021413
_cell_length_c	10.654550
_cell_angle_alpha	89.995793
_cell_angle_beta	84.484931
_cell_angle_gamma	90.004146
loop_
_atom_site_label
_atom_site_type_symbol
_atom_site_fract_x
_atom_site_fract_y
_atom_site_fract_z
O1	O	1.667848	0.073965	0.176382
O2	O	1.302370	0.073982	0.193188
O3	O	1.493512	0.073968	0.002046
O4	O	1.476706	0.073979	0.367525
O5	O	1.493481	-0.074097	0.002073
O6	O	1.302339	-0.074083	0.193216
O7	O	1.667818	-0.074099	0.176410
Zn8	Zn	1.485074	-0.097599	0.184817
Zn9	Zn	1.485114	0.097482	0.184781
O10	O	1.476675	-0.074085	0.367552
C11	C	1.255556	-0.000048	0.191968
C12	C	1.116113	-0.000042	0.188276
N13	N	1.485055	-0.230737	0.184841
C14	C	1.036628	-0.000041	0.300818
C15	C	0.905607	-0.000057	0.297341
C16	C	0.933570	-0.000071	0.068772
C17	C	1.064588	-0.000062	0.072250
C18	C	1.396657	-0.470413	0.273183
C19	C	1.510355	-0.529752	0.298547
C20	C	1.485087	-0.412344	0.184810
C21	C	1.371421	-0.529747	0.159474
C22	C	1.485108	-0.587768	0.184782
C23	C	1.598842	-0.470376	0.210231
C24	C	1.459834	-0.470365	0.071107
C25	C	1.573613	-0.529677	0.096424
C26	C	1.485074	-0.311286	0.184829
C27	C	1.485134	-0.688823	0.184763
C28	C	1.714631	-0.000067	0.177630
C29	C	1.854074	-0.000067	0.181322
C30	C	1.492263	-0.000064	-0.044738
C31	C	1.488571	-0.000063	-0.184181
N32	N	1.485142	0.230620	0.184747
C33	C	1.601112	-0.000067	-0.263667
C34	C	1.597636	-0.000056	-0.394688
C35	C	1.369066	-0.000040	-0.366725
C36	C	1.372544	-0.000044	-0.235706
C37	C	1.477925	-0.000051	0.414336
C38	C	1.481616	-0.000047	0.553779
H39	H	1.078574	-0.000032	0.395294
C40	C	1.674753	-0.564620	-0.004551
H41	H	1.755420	-0.544180	0.013648
H42	H	1.657493	-0.543386	-0.085099
H43	H	1.673756	-0.627859	-0.004473
H44	H	0.840894	-0.000058	0.388984
C45	C	1.241448	-0.000032	-0.423407
H46	H	1.255493	-0.000040	-0.512821
H47	H	1.195068	0.051602	-0.396197
H48	H	1.195056	-0.051671	-0.396184
H49	H	0.891602	-0.000092	-0.025693
C50	C	1.430906	-0.435088	-0.058727
H51	H	1.350061	-0.455379	-0.076593
H52	H	1.492903	-0.456261	-0.121688
H53	H	1.431873	-0.371851	-0.057988
C54	C	1.728735	-0.000077	-0.206993
H55	H	1.795262	-0.000070	-0.273101
H56	H	1.734836	-0.051712	-0.156460
H57	H	1.734852	0.051561	-0.156469
C58	C	1.152028	-0.000059	-0.051552
H59	H	1.102579	-0.000059	-0.121151
H60	H	1.203722	-0.051688	-0.054934
H61	H	1.203716	0.051585	-0.054952
H62	H	1.280893	-0.000038	-0.170985
H63	H	1.275287	-0.555828	0.138057
C64	C	1.539242	-0.564999	0.428419
H65	H	1.614030	-0.599777	0.419118
H66	H	1.470974	-0.600698	0.463249
H67	H	1.550563	-0.516256	0.483011
C68	C	1.295739	-0.435248	0.374213
H69	H	1.236079	-0.400451	0.335032
H70	H	1.334815	-0.399583	0.432969
H71	H	1.254050	-0.484023	0.416956
C72	C	1.728737	-0.435301	0.239333
H73	H	1.727922	-0.372058	0.239212
H74	H	1.791593	-0.456064	0.176927
H75	H	1.746817	-0.456130	0.319841
C76	C	1.721432	-0.000067	-0.482117
H77	H	1.791026	-0.000085	-0.432661
H78	H	1.724846	0.051568	-0.533812
H79	H	1.724808	-0.051705	-0.533804
