data_functionalizedCrystal
_audit_creation_method	'MofGen! by Chris Wilmer'
_symmetry_space_group_name_H-M	'P1'
_symmetry_Int_Tables_number	1
_symmetry_cell_setting	triclinic
loop_
_symmetry_equiv_pos_as_xyz
  x,y,z
_cell_length_a	15.944499
_cell_length_b	15.944493
_cell_length_c	10.868271
_cell_angle_alpha	90.000739
_cell_angle_beta	89.993092
_cell_angle_gamma	83.476327
loop_
_atom_site_label
_atom_site_type_symbol
_atom_site_fract_x
_atom_site_fract_y
_atom_site_fract_z
O1	O	1.114528	0.108129	-0.102380
O2	O	1.614528	0.608129	0.397620
O3	O	0.869970	0.121531	-0.102364
O4	O	1.369970	0.621531	0.397636
O5	O	0.998953	-0.007450	-0.102383
O6	O	1.498953	0.492550	0.397617
O7	O	0.985546	0.237109	-0.102361
O8	O	1.485546	0.737109	0.397639
O9	O	0.998942	-0.007455	0.102262
O10	O	1.498942	0.492545	0.602262
O11	O	0.869959	0.121526	0.102281
O12	O	1.369959	0.621526	0.602281
O13	O	1.114518	0.108124	0.102265
O14	O	1.614518	0.608124	0.602265
Zn15	Zn	0.992237	0.114824	0.134765
Zn16	Zn	1.492237	0.614824	0.634765
Zn17	Zn	0.992251	0.114830	-0.134864
Zn18	Zn	1.492251	0.614830	0.365136
O19	O	0.985535	0.237104	0.102283
O20	O	1.485535	0.737104	0.602283
C21	C	0.838670	0.120979	-0.000040
C22	C	1.338670	0.620979	0.499960
C23	C	0.745422	0.119334	-0.000035
C24	C	1.245422	0.619334	0.499965
C25	C	0.453871	0.194269	-0.000047
C26	C	0.953871	0.694269	0.499953
C27	C	0.514913	0.155318	-0.100953
C28	C	1.014913	0.655318	0.399047
C29	C	0.409787	0.113358	-0.000064
C30	C	0.909787	0.613358	0.499936
C31	C	0.514889	0.155292	0.100811
C32	C	1.014889	0.655292	0.600811
C33	C	0.574695	0.116299	-0.000047
C34	C	1.074695	0.616299	0.499953
C35	C	0.469601	0.074385	-0.101053
C36	C	0.969601	0.574385	0.398947
C37	C	0.469570	0.074370	0.100801
C38	C	0.969570	0.574370	0.600801
C39	C	0.530595	0.035361	-0.000130
C40	C	1.030595	0.535361	0.499870
C41	C	0.314787	0.111666	-0.000074
C42	C	0.814787	0.611666	0.499926
C43	C	0.669694	0.117984	-0.000046
C44	C	1.169694	0.617984	0.499954
C45	C	0.998400	-0.038747	-0.000065
C46	C	1.498400	0.461253	0.499935
C47	C	0.996757	-0.131995	-0.000081
C48	C	1.496757	0.368005	0.499919
C49	C	1.072679	-0.367769	-0.000063
C50	C	1.572679	0.132231	0.499937
C51	C	1.031742	-0.418327	-0.100960
C52	C	1.531742	0.081673	0.399040
C53	C	0.993713	-0.302716	-0.000066
C54	C	1.493713	0.197284	0.499934
C55	C	1.031713	-0.418308	0.100804
C56	C	1.531713	0.081692	0.600804
C57	C	0.990778	-0.467625	-0.000046
C58	C	1.490778	0.032375	0.499954
C59	C	0.952797	-0.352045	-0.101046
C60	C	1.452797	0.147955	0.398954
C61	C	0.952780	-0.352023	0.100808
C62	C	1.452780	0.147977	0.600808
C63	C	0.911785	-0.402548	-0.000114
C64	C	1.411785	0.097452	0.499886
C65	C	0.995405	-0.207716	-0.000078
C66	C	1.495405	0.292284	0.499922
C67	C	0.989079	-0.562622	-0.000042
C68	C	1.489079	-0.062622	0.499958
C69	C	1.145818	0.108675	-0.000062
C70	C	1.645818	0.608675	0.499938
C71	C	1.239066	0.110320	-0.000075
C72	C	1.739066	0.610320	0.499925
C73	C	0.986088	0.268401	-0.000036
C74	C	1.486088	0.768401	0.499964
C75	C	0.987731	0.361650	-0.000029
C76	C	1.487731	0.861650	0.499971
N77	N	0.992234	0.114819	0.318779
N78	N	1.492234	0.614819	0.818779
N79	N	0.992261	0.114829	-0.318878
N80	N	1.492261	0.614829	0.181122
C81	C	0.992247	0.114829	0.569785
C82	C	1.492247	0.614829	1.069785
C83	C	0.992237	0.114826	0.430107
C84	C	1.492237	0.614826	0.930107
H85	H	0.420527	0.261416	-0.000138
H86	H	0.920527	0.761416	0.499862
H87	H	0.563787	-0.031847	-0.000189
H88	H	1.063787	0.468153	0.499811
H89	H	1.065074	-0.447248	0.186099
H90	H	1.565074	0.052752	0.686099
H91	H	0.843713	-0.418002	-0.000165
H92	H	1.343713	0.081998	0.499835
H93	H	0.449634	0.040197	-0.186457
H94	H	0.949634	0.540197	0.313543
C95	C	0.442388	0.028177	0.216036
C96	C	0.942388	0.528177	0.716036
H97	H	0.457711	0.057004	0.287667
H98	H	0.957711	0.557004	0.787667
H99	H	0.469715	-0.027957	0.216757
H100	H	0.969715	0.472043	0.716757
H101	H	0.382957	0.027006	0.214794
H102	H	0.882957	0.527006	0.714794
H103	H	0.534952	0.189525	0.186116
H104	H	1.034952	0.689525	0.686116
H105	H	0.919456	-0.323058	0.186118
H106	H	1.419456	0.176942	0.686118
C107	C	1.164562	-0.346665	-0.000202
C108	C	1.664562	0.153335	0.499798
H109	H	1.192498	-0.369487	-0.071987
H110	H	1.692498	0.130513	0.428013
H111	H	1.192880	-0.370345	0.070748
H112	H	1.692880	0.129655	0.570748
H113	H	1.164991	-0.287136	0.000520
H114	H	1.664991	0.212864	0.500520
C115	C	1.076796	-0.457444	-0.216194
C116	C	1.576796	0.042556	0.283806
H117	H	1.133926	-0.445810	-0.216078
H118	H	1.633926	0.054190	0.283922
H119	H	1.049312	-0.433875	-0.287847
H120	H	1.549312	0.066125	0.212153
H121	H	1.074962	-0.516789	-0.215732
H122	H	1.574962	-0.016789	0.284268
C123	C	0.542067	0.201548	-0.216181
C124	C	1.042067	0.701548	0.283819
H125	H	0.579764	0.164112	-0.263691
H126	H	1.079764	0.664112	0.236309
H127	H	0.569497	0.248762	-0.191920
H128	H	1.069497	0.748762	0.308080
H129	H	0.493686	0.220281	-0.264031
H130	H	0.993686	0.720281	0.235969
C131	C	0.907793	-0.313110	-0.216417
C132	C	1.407793	0.186890	0.283583
H133	H	0.909157	-0.253699	-0.215743
H134	H	1.409157	0.246301	0.284257
H135	H	0.850818	-0.325216	-0.216711
H136	H	1.350818	0.174784	0.283289
H137	H	0.935658	-0.336388	-0.287980
H138	H	1.435658	0.163612	0.212020
