data_functionalizedCrystal
_audit_creation_method	'MofGen! by Chris Wilmer'
_symmetry_space_group_name_H-M	'P1'
_symmetry_Int_Tables_number	1
_symmetry_cell_setting	triclinic
loop_
_symmetry_equiv_pos_as_xyz
  x,y,z
_cell_length_a	16.974885
_cell_length_b	16.974885
_cell_length_c	18.366186
_cell_angle_alpha	93.647587
_cell_angle_beta	93.642976
_cell_angle_gamma	83.160210
loop_
_atom_site_label
_atom_site_type_symbol
_atom_site_fract_x
_atom_site_fract_y
_atom_site_fract_z
O1	O	1.049024	0.100747	0.007142
O2	O	1.382357	0.434081	0.340475
O3	O	1.715691	0.767414	0.673809
O4	O	0.818807	0.113590	-0.005656
O5	O	1.152141	0.446923	0.327677
O6	O	1.485474	0.780257	0.661011
O7	O	0.940334	-0.007940	-0.005654
O8	O	1.273668	0.325393	0.327679
O9	O	1.607001	0.658726	0.661012
O10	O	0.927497	0.222277	0.007140
O11	O	1.260830	0.555611	0.340474
O12	O	1.594164	0.888944	0.673807
O13	O	0.940314	-0.007946	0.115444
O14	O	1.273647	0.325387	0.448777
O15	O	1.606980	0.658720	0.782110
O16	O	0.818787	0.113584	0.115442
O17	O	1.152120	0.446917	0.448775
O18	O	1.485453	0.780251	0.782108
O19	O	1.049003	0.100741	0.128240
O20	O	1.382337	0.434075	0.461573
O21	O	1.715670	0.767408	0.794907
Zn22	Zn	0.933892	0.107162	0.141068
Zn23	Zn	1.267225	0.440495	0.474401
Zn24	Zn	1.600558	0.773828	0.807734
Zn25	Zn	0.933919	0.107170	-0.018484
Zn26	Zn	1.267252	0.440503	0.314849
Zn27	Zn	1.600586	0.773836	0.648183
O28	O	0.927476	0.222271	0.128238
O29	O	1.260810	0.555605	0.461571
O30	O	1.594143	0.888938	0.794905
C31	C	0.789340	0.113100	0.053130
C32	C	1.122673	0.446433	0.386463
C33	C	1.456006	0.779766	0.719796
C34	C	0.701566	0.111638	0.047876
C35	C	1.034899	0.444971	0.381209
C36	C	1.368233	0.778304	0.714542
C37	C	0.939836	-0.037401	0.053131
C38	C	1.273169	0.295933	0.386464
C39	C	1.606503	0.629266	0.719797
C40	C	0.938372	-0.125174	0.047873
C41	C	1.271706	0.208159	0.381207
C42	C	1.605039	0.541492	0.714540
C43	C	0.207499	0.103383	0.011164
C44	C	0.540832	0.436717	0.344498
C45	C	0.874165	0.770050	0.677831
C46	C	0.289971	0.104757	0.016111
C47	C	0.623305	0.438090	0.349444
C48	C	0.956638	0.771424	0.682778
C49	C	0.331188	0.105446	0.084596
C50	C	0.664521	0.438780	0.417929
C51	C	0.997854	0.772113	0.751262
C52	C	0.289928	0.104754	0.148137
C53	C	0.623261	0.438087	0.481471
C54	C	0.956595	0.771421	0.814804
C55	C	0.207458	0.103375	0.143190
C56	C	0.540791	0.436708	0.476523
C57	C	0.874124	0.770041	0.809857
C58	C	0.577836	0.109566	0.106470
C59	C	0.911170	0.442899	0.439804
C60	C	1.244503	0.776233	0.773137
C61	C	0.660312	0.110948	0.111413
C62	C	0.993645	0.444281	0.444746
C63	C	1.326979	0.777614	0.778080
C64	C	0.660350	0.110949	-0.020614
C65	C	0.993683	0.444283	0.312719
C66	C	1.327016	0.777616	0.646053
C67	C	0.577877	0.109575	-0.025555
C68	C	0.911211	0.442908	0.307778
C69	C	1.244544	0.776241	0.641111
C70	C	0.536625	0.108878	0.037986
C71	C	0.869959	0.442212	0.371320
C72	C	1.203292	0.775545	0.704653
N73	N	0.415488	0.106853	0.089653
N74	N	0.748821	0.440186	0.422987
N75	N	1.082154	0.773520	0.756320
N76	N	0.452328	0.107466	0.032928
N77	N	0.785661	0.440799	0.366261
N78	N	1.118994	0.774133	0.699594
C79	C	0.937672	-0.166421	0.111411
C80	C	1.271005	0.166912	0.444744
C81	C	1.604338	0.500246	0.778077
C82	C	0.936301	-0.248895	0.106465
C83	C	1.269635	0.084439	0.439798
C84	C	1.602968	0.417772	0.773132
C85	C	0.935626	-0.290119	0.037981
C86	C	1.268959	0.043214	0.371314
C87	C	1.602293	0.376548	0.704648
C88	C	0.936329	-0.248867	-0.025561
C89	C	1.269663	0.084466	0.307773
C90	C	1.602996	0.417800	0.641106
C91	C	0.937705	-0.166396	-0.020614
C92	C	1.271039	0.166938	0.312719
C93	C	1.604372	0.500271	0.646053
C94	C	0.931518	-0.536771	0.016109
C95	C	1.264851	-0.203438	0.349442
C96	C	1.598184	0.129896	0.682775
C97	C	0.930139	-0.619248	0.011167
C98	C	1.263473	-0.285914	0.344500
C99	C	1.596806	0.047419	0.677833
C100	C	0.930113	-0.619270	0.143193
C101	C	1.263446	-0.285936	0.476527
C102	C	1.596779	0.047397	0.809860
C103	C	0.931484	-0.536796	0.148134
C104	C	1.264817	-0.203463	0.481467
C105	C	1.598151	0.129870	0.814800
C106	C	0.932191	-0.495552	0.084592
C107	C	1.265525	-0.162219	0.417925
C108	C	1.598858	0.171115	0.751259
N109	N	0.934223	-0.374420	0.032924
N110	N	1.267556	-0.041087	0.366257
N111	N	1.600890	0.292247	0.699591
N112	N	0.933600	-0.411253	0.089650
N113	N	1.266933	-0.077920	0.422983
N114	N	1.600267	0.255413	0.756317
C115	C	1.078471	0.101232	0.069453
C116	C	1.411804	0.434565	0.402786
C117	C	1.745138	0.767898	0.736119
C118	C	1.166245	0.102694	0.074702
C119	C	1.499578	0.436027	0.408035
C120	C	1.832911	0.769360	0.741368
N121	N	0.933879	0.107156	0.249958
N122	N	1.267212	0.440489	0.583291
N123	N	1.600546	0.773822	0.916624
C124	C	0.927975	0.251732	0.069452
C125	C	1.261308	0.585065	0.402785
C126	C	1.594641	0.918398	0.736118
C127	C	0.929438	0.339506	0.074704
C128	C	1.262772	0.672839	0.408037
C129	C	1.596105	1.006172	0.741371
N130	N	0.933938	0.107169	-0.127374
N131	N	1.267271	0.440502	0.205959
N132	N	1.600605	0.773836	0.539293
C133	C	0.987709	0.053369	0.288062
C134	C	1.321042	0.386702	0.621395
C135	C	1.654375	0.720035	0.954728
C136	C	0.987714	0.053365	0.364290
C137	C	1.321047	0.386698	0.697623
C138	C	1.654381	0.720032	1.030956
C139	C	0.933897	0.107162	0.402412
C140	C	1.267230	0.440496	0.735745
C141	C	1.600563	0.773829	1.069079
C142	C	0.880057	0.160954	0.364299
C143	C	1.213390	0.494287	0.697632
C144	C	1.546723	0.827620	1.030965
C145	C	0.880048	0.160950	0.288071
C146	C	1.213381	0.494284	0.621405
C147	C	1.546715	0.827617	0.954738
C148	C	0.923459	0.179185	0.526797
C149	C	1.256792	0.512518	0.860130
C150	C	1.590125	0.845852	1.193464
C151	C	0.923473	0.179189	0.603023
C152	C	1.256806	0.512523	0.936356
C153	C	1.590139	0.845856	1.269690
C154	C	0.933919	0.107172	0.637521
C155	C	1.267252	0.440506	0.970855
C156	C	1.600586	0.773839	1.304188
C157	C	0.944368	0.035148	0.595785
C158	C	1.277701	0.368481	0.929119
C159	C	1.611034	0.701814	1.262452
C160	C	0.944359	0.035144	0.519558
C161	C	1.277692	0.368478	0.852891
C162	C	1.611026	0.701811	1.186225
C163	C	0.933900	0.107172	0.485067
C164	C	1.267233	0.440505	0.818401
C165	C	1.600566	0.773838	1.151734
C166	C	0.987757	0.053377	0.758280
C167	C	1.321091	0.386710	1.091613
C168	C	1.654424	0.720044	1.424947
C169	C	0.987757	0.053372	0.834509
C170	C	1.321090	0.386706	1.167842
C171	C	1.654423	0.720039	1.501176
C172	C	0.880103	0.160968	0.834517
C173	C	1.213437	0.494301	1.167851
C174	C	1.546770	0.827634	1.501184
C175	C	0.880100	0.160965	0.758289
C176	C	1.213433	0.494299	1.091623
C177	C	1.546767	0.827632	1.424956
C178	C	0.933931	0.107171	0.720175
C179	C	1.267265	0.440504	1.053509
C180	C	1.600598	0.773837	1.386842
H181	H	0.173946	0.102828	-0.044603
H182	H	0.507279	0.436161	0.288730
H183	H	0.840612	0.769494	0.622064
H184	H	0.693867	0.111515	0.167185
H185	H	1.027201	0.444848	0.500518
H186	H	1.360534	0.778181	0.833851
Cl187	Cl	0.525985	0.108712	0.186353
Cl188	Cl	0.859318	0.442045	0.519686
Cl189	Cl	1.192651	0.775379	0.853020
Cl190	Cl	0.712215	0.111818	-0.100490
Cl191	Cl	1.045548	0.445151	0.232843
Cl192	Cl	1.378881	0.778484	0.566177
Cl193	Cl	0.812397	0.228581	0.412222
Cl194	Cl	1.145730	0.561915	0.745555
Cl195	Cl	1.479064	0.895248	1.078888
Cl196	Cl	0.938516	-0.114603	0.197509
Cl197	Cl	1.271850	0.218730	0.530843
Cl198	Cl	1.605183	0.552063	0.864176
H199	H	0.932051	-0.503239	0.203901
H200	H	1.265384	-0.169906	0.537235
H201	H	1.598717	0.163428	0.870568
H202	H	0.323494	0.105310	0.203899
H203	H	0.656827	0.438644	0.537232
H204	H	0.990160	0.771977	0.870566
Cl205	Cl	0.935418	-0.300744	0.186345
Cl206	Cl	1.268752	0.032590	0.519678
Cl207	Cl	1.602085	0.365923	0.853011
Cl208	Cl	0.526068	0.108709	-0.111654
Cl209	Cl	0.859402	0.442042	0.221680
Cl210	Cl	1.192735	0.775376	0.555013
H211	H	0.929538	-0.652860	0.194925
H212	H	1.262871	-0.319527	0.528259
H213	H	1.596204	0.013807	0.861592
Cl214	Cl	0.155596	0.102500	0.223069
Cl215	Cl	0.488930	0.435834	0.556402
Cl216	Cl	0.822263	0.769167	0.889735
Cl217	Cl	0.341831	0.105620	-0.063769
Cl218	Cl	0.675164	0.438954	0.269564
Cl219	Cl	1.008497	0.772287	0.602898
Cl220	Cl	0.929286	-0.671072	-0.074934
Cl221	Cl	1.262620	-0.337738	0.258399
Cl222	Cl	1.595953	-0.004405	0.591732
H223	H	0.932092	-0.503200	-0.035632
H224	H	1.265426	-0.169866	0.297702
H225	H	1.598759	0.163467	0.631035
Cl226	Cl	0.935491	-0.300694	-0.111655
Cl227	Cl	1.268825	0.032639	0.221678
Cl228	Cl	1.602158	0.365973	0.555012
Cl229	Cl	0.910399	0.269732	0.483440
Cl230	Cl	1.243732	0.603065	0.816774
Cl231	Cl	1.577066	0.936399	1.150107
H232	H	0.938277	-0.132814	-0.072353
H233	H	1.271610	0.200519	0.260980
H234	H	1.604943	0.533853	0.594314
Cl235	Cl	1.055377	-0.014261	0.240147
Cl236	Cl	1.388710	0.319072	0.573481
Cl237	Cl	1.722043	0.652406	0.906814
Cl238	Cl	1.055392	-0.014258	0.412200
Cl239	Cl	1.388726	0.319075	0.745533
Cl240	Cl	1.722059	0.652408	1.078866
Cl241	Cl	0.957507	-0.055395	0.639146
Cl242	Cl	1.290841	0.277939	0.972479
Cl243	Cl	1.624174	0.611272	1.305812
Cl244	Cl	0.957485	-0.055396	0.467092
Cl245	Cl	1.290818	0.277937	0.800425
Cl246	Cl	1.624151	0.611271	1.133759
H247	H	1.031588	0.009572	0.727246
H248	H	1.364921	0.342905	1.060580
H249	H	1.698254	0.676238	1.393913
H250	H	1.031589	0.009568	0.865533
H251	H	1.364922	0.342901	1.198867
H252	H	1.698256	0.676235	1.532200
Cl253	Cl	0.812441	0.228593	0.882437
Cl254	Cl	1.145775	0.561926	1.215770
Cl255	Cl	1.479108	0.895259	1.549103
Cl256	Cl	0.812429	0.228591	0.710383
Cl257	Cl	1.145763	0.561924	1.043716
Cl258	Cl	1.479096	0.895257	1.377050
H259	H	0.914970	0.237836	0.636999
H260	H	1.248303	0.571169	0.970332
H261	H	1.581637	0.904503	1.303666
Cl262	Cl	0.812372	0.228575	0.240166
Cl263	Cl	1.145705	0.561908	0.573500
Cl264	Cl	1.479038	0.895241	0.906833
