data_functionalizedCrystal
_audit_creation_method	'MofGen! by Chris Wilmer'
_symmetry_space_group_name_H-M	'P1'
_symmetry_Int_Tables_number	1
_symmetry_cell_setting	triclinic
loop_
_symmetry_equiv_pos_as_xyz
  x,y,z
_cell_length_a	6.394989
_cell_length_b	16.109302
_cell_length_c	14.586319
_cell_angle_alpha	89.994552
_cell_angle_beta	90.000822
_cell_angle_gamma	95.020254
loop_
_atom_site_label
_atom_site_type_symbol
_atom_site_fract_x
_atom_site_fract_y
_atom_site_fract_z
O1	O	-0.268487	1.105973	-0.076276
O2	O	-0.301898	0.864264	-0.076268
O3	O	0.018874	0.988549	-0.076272
O4	O	-0.589259	0.981688	-0.076271
O5	O	0.018879	0.988540	0.076208
O6	O	-0.301893	0.864255	0.076213
O7	O	-0.268483	1.105964	0.076205
Cu8	Cu	-0.285187	0.985109	0.090132
Cu9	Cu	-0.285193	0.985119	-0.090194
O10	O	-0.589254	0.981679	0.076210
C11	C	-0.300542	0.833271	-0.000026
C12	C	-0.296483	0.740932	-0.000024
C13	C	-0.287097	0.528487	0.083085
C14	C	-0.283261	0.441727	0.083081
C15	C	-0.283277	0.441747	-0.083162
C16	C	-0.287098	0.528507	-0.083157
C17	C	-0.289018	0.571874	-0.000032
C18	C	-0.281362	0.398354	-0.000039
C19	C	-0.277203	0.304284	-0.000043
C20	C	-0.293173	0.665950	-0.000027
C21	C	0.096697	0.987188	-0.000035
C22	C	0.332929	0.983042	-0.000036
C23	C	-0.269839	1.136957	-0.000038
C24	C	-0.273897	1.229296	-0.000047
N25	N	-0.285182	0.985107	0.216964
N26	N	-0.285182	0.985127	-0.217026
C27	C	-0.143192	1.040160	0.451968
C28	C	-0.143187	1.040162	0.547949
C29	C	-0.427179	0.930069	0.547963
C30	C	-0.427172	0.930063	0.451983
C31	C	-0.285181	0.985113	0.403988
C32	C	-0.285183	0.985121	0.595949
C33	C	-0.285178	0.985123	0.700016
C34	C	-0.285182	0.985110	0.299915
H35	H	-0.027572	1.084984	0.412893
O36	O	-0.289253	0.570737	-0.163844
C37	C	-0.474484	0.661142	-0.260334
C38	C	-0.472292	0.613373	-0.168922
H39	H	-0.622477	0.695611	-0.264479
H40	H	-0.330284	0.707892	-0.264502
H41	H	-0.472370	0.615233	-0.319731
H42	H	-0.474478	0.659219	-0.109473
H43	H	-0.616479	0.566611	-0.164834
H44	H	-0.027564	1.084985	0.587012
H45	H	-0.542798	0.885233	0.412916
O46	O	-0.565396	0.876635	0.594484
C47	C	-0.928561	0.831750	0.623886
C48	C	-0.772255	0.892301	0.571133
H49	H	-1.095840	0.844406	0.605042
H50	H	-0.901460	0.764861	0.605008
H51	H	-0.904080	0.841194	0.700724
H52	H	-0.796642	0.882932	0.494284
H53	H	-0.799395	0.959168	0.590088
O54	O	-0.288841	0.570492	0.163911
C55	C	-0.288520	0.561306	0.328801
C56	C	-0.286502	0.513638	0.237329
H57	H	-0.286674	0.515359	0.388183
H58	H	-0.144182	0.607982	0.333016
H59	H	-0.436363	0.595870	0.332916
H60	H	-0.138756	0.479026	0.233151
H61	H	-0.430939	0.467011	0.233152
H62	H	-0.281697	0.406405	0.150763
O63	O	-0.281517	0.399485	-0.163824
C64	C	-0.275526	0.265841	-0.237508
C65	C	-0.277556	0.313595	-0.146092
H66	H	-0.272278	0.196393	-0.223204
H67	H	-0.422403	0.276764	-0.278506
H68	H	-0.130229	0.289031	-0.278500
H69	H	-0.422755	0.290435	-0.105026
H70	H	-0.130582	0.302672	-0.105164
