data_functionalizedCrystal
_audit_creation_method	'MofGen! by Chris Wilmer'
_symmetry_space_group_name_H-M	'P1'
_symmetry_Int_Tables_number	1
_symmetry_cell_setting	triclinic
loop_
_symmetry_equiv_pos_as_xyz
  x,y,z
_cell_length_a	19.077236
_cell_length_b	19.077432
_cell_length_c	19.076919
_cell_angle_alpha	89.934943
_cell_angle_beta	90.112677
_cell_angle_gamma	89.927472
loop_
_atom_site_label
_atom_site_type_symbol
_atom_site_fract_x
_atom_site_fract_y
_atom_site_fract_z
Zn1	Zn	1.068908	-0.254666	0.430741
Zn2	Zn	1.568908	0.245334	0.930741
Zn3	Zn	1.078235	-0.367094	0.308908
Zn4	Zn	1.578235	0.132906	0.808908
Zn5	Zn	0.956108	-0.254298	0.308536
Zn6	Zn	1.456108	0.245702	0.808536
Zn7	Zn	0.956444	-0.376454	0.421286
Zn8	Zn	1.456444	0.123546	0.921286
O9	O	1.014924	-0.313128	0.367368
O10	O	1.514924	0.186872	0.867368
O11	O	1.168322	-0.265816	0.418693
O12	O	1.668322	0.234184	0.918693
O13	O	1.065797	-0.348061	0.210685
O14	O	1.565797	0.151939	0.710685
O15	O	0.967027	-0.156172	0.328548
O16	O	1.467027	0.343828	0.828548
O17	O	1.175174	-0.348417	0.329183
O18	O	1.675174	0.151583	0.829183
O19	O	1.049901	-0.156442	0.418332
O20	O	1.549901	0.343558	0.918332
O21	O	0.976071	-0.265189	0.210411
O22	O	1.476071	0.234811	0.710411
O23	O	0.857976	-0.274265	0.319379
O24	O	1.357976	0.225735	0.819379
O25	O	0.967600	-0.364369	0.520715
O26	O	1.467600	0.135631	1.020715
O27	O	0.858223	-0.364013	0.402217
O28	O	1.358223	0.135987	0.902217
O29	O	1.050227	-0.274892	0.527661
O30	O	1.550227	0.225108	1.027661
O31	O	1.066123	-0.466510	0.320014
O32	O	1.566123	0.033490	0.820014
O33	O	0.976644	-0.473387	0.402578
O34	O	1.476644	0.026613	0.902578
C35	C	0.832643	-0.320115	0.359732
C36	C	1.332643	0.179885	0.859732
C37	C	0.754663	-0.323122	0.356481
C38	C	1.254663	0.176878	0.856481
C39	C	0.714461	-0.281603	0.401623
C40	C	1.214461	0.218397	0.901623
C41	C	0.641190	-0.284424	0.398563
C42	C	1.141190	0.215576	0.898563
C43	C	0.608123	-0.328769	0.350363
C44	C	1.108123	0.171231	0.850363
C45	C	0.648330	-0.370290	0.305217
C46	C	1.148330	0.129710	0.805217
C47	C	0.721599	-0.367464	0.308274
C48	C	1.221599	0.132536	0.808274
C49	C	0.389373	-0.341820	0.336212
C50	C	0.889373	0.158180	0.836212
C51	C	0.316099	-0.344644	0.333159
C52	C	0.816099	0.155356	0.833159
C53	C	0.308963	-0.258777	0.426504
C54	C	0.808963	0.241223	0.926504
C55	C	0.382235	-0.255959	0.429560
C56	C	0.882235	0.244041	0.929560
C57	C	0.422436	-0.297477	0.384411
C58	C	0.922436	0.202523	0.884411
N59	N	0.533228	-0.331656	0.347236
N60	N	1.033228	0.168344	0.847236
N61	N	0.497329	-0.294586	0.387536
N62	N	0.997329	0.205414	0.887536
C63	C	1.022451	-0.495404	0.360326
C64	C	1.522451	0.004596	0.860326
C65	C	1.025734	-0.573381	0.357340
C66	C	1.525734	-0.073381	0.857340
C67	C	0.980660	-0.613620	0.398885
C68	C	1.480660	-0.113620	0.898885
C69	C	0.983748	-0.686888	0.396077
C70	C	1.483748	-0.186888	0.896077
C71	C	1.031914	-0.719915	0.351726
C72	C	1.531914	-0.219915	0.851726
C73	C	1.076990	-0.679670	0.310177
C74	C	1.576990	-0.179670	0.810177
C75	C	1.073898	-0.606404	0.312982
C76	C	1.573898	-0.106404	0.812982
C77	C	1.046158	-0.938650	0.338728
C78	C	1.546158	-0.438650	0.838728
C79	C	1.049248	-1.011922	0.335927
C80	C	1.549248	-0.511922	0.835927
C81	C	0.956005	-1.019134	0.421827
C82	C	1.456005	-0.519134	0.921827
C83	C	0.952920	-0.945867	0.424631
C84	C	1.452920	-0.445867	0.924631
C85	C	0.997993	-0.905628	0.383079
C86	C	1.497993	-0.405628	0.883079
N87	N	1.035073	-0.794806	0.348856
N88	N	1.535073	-0.294806	0.848856
N89	N	0.994830	-0.830739	0.385946
N90	N	1.494830	-0.330739	0.885946
C91	C	1.197916	-0.306114	0.375034
C92	C	1.697916	0.193886	0.875034
C93	C	1.275897	-0.303125	0.378301
C94	C	1.775897	0.196875	0.878301
C95	C	1.007910	-0.320716	0.550355
C96	C	1.507910	0.179284	1.050355
C97	C	1.004922	-0.323949	0.628333
C98	C	1.504922	0.176051	1.128333
C99	C	1.007386	-0.130140	0.374453
C100	C	1.507386	0.369860	0.874453
C101	C	1.004174	-0.052161	0.377472
C102	C	1.504174	0.447839	0.877472
C103	C	1.021948	-0.305517	0.185096
C104	C	1.521948	0.194483	0.685096
C105	C	1.025064	-0.302081	0.107132
C106	C	1.525064	0.197919	0.607132
C107	C	1.046535	-0.278884	0.668586
C108	C	1.546535	0.221116	1.168586
C109	C	1.043718	-0.281920	0.741854
C110	C	1.543718	0.218080	1.241854
C111	C	0.999291	-0.330025	0.774869
C112	C	1.499291	0.169975	1.274869
C113	C	0.957674	-0.375092	0.734612
C114	C	1.457674	0.124908	1.234612
C115	C	0.960487	-0.372052	0.661344
C116	C	1.460487	0.127948	1.161344
C117	C	0.986260	-0.344108	0.993607
C118	C	1.486260	0.155892	1.493607
C119	C	0.983451	-0.347146	1.066879
C120	C	1.483451	0.152854	1.566879
C121	C	1.069495	-0.253973	1.074117
C122	C	1.569495	0.246027	1.574117
C123	C	1.072308	-0.250941	1.000848
C124	C	1.572308	0.249059	1.500848
C125	C	1.030687	-0.296005	0.960597
C126	C	1.530687	0.203995	1.460597
N127	N	0.996413	-0.333131	0.849761
N128	N	1.496413	0.166869	1.349761
N129	N	1.033563	-0.292895	0.885706
N130	N	1.533563	0.207105	1.385706
H131	H	0.422096	-0.375628	0.299449
H132	H	0.922096	0.124372	0.799449
F133	F	0.613135	-0.417481	0.253916
F134	F	1.113135	0.082519	0.753916
H135	H	1.108486	-0.211771	0.973972
H136	H	1.608486	0.288229	1.473972
F137	F	0.417422	-0.208764	0.480864
F138	F	0.917422	0.291236	0.980864
F139	F	0.901657	-0.910722	0.471837
F140	F	1.401657	-0.410722	0.971837
F141	F	1.113785	-0.206015	1.116960
F142	F	1.613785	0.293985	1.616960
H143	H	1.082859	-0.905894	0.304895
H144	H	1.582859	-0.405894	0.804895
H145	H	0.754331	-0.401273	0.271514
H146	H	1.254331	0.098727	0.771514
F147	F	0.598407	-0.240235	0.446610
F148	F	1.098407	0.259765	0.946610
H149	H	1.116204	-0.706567	0.274062
H150	H	1.616204	-0.206567	0.774062
H151	H	1.110601	-0.573642	0.279150
H152	H	1.610601	-0.073642	0.779150
F153	F	1.100515	-1.047070	0.288721
F154	F	1.600515	-0.547070	0.788721
F155	F	0.266174	-0.214593	0.474551
F156	F	0.766174	0.285407	0.974551
H157	H	0.919308	-1.051904	0.455656
H158	H	1.419308	-0.551904	0.955656
F159	F	0.936161	-0.398345	1.102015
F160	F	1.436161	0.101655	1.602015
H161	H	1.082714	-0.239714	0.641710
H162	H	1.582714	0.260286	1.141710
F163	F	0.280908	-0.391858	0.281869
F164	F	0.780908	0.108142	0.781869
H165	H	0.741378	-0.245494	0.440874
H166	H	1.241378	0.254506	0.940874
H167	H	0.921498	-0.414257	0.761498
H168	H	1.421498	0.085743	1.261498
F169	F	0.941964	-0.392070	0.950778
F170	F	1.441964	0.107930	1.450778
F171	F	0.916195	-0.420014	0.618505
F172	F	1.416195	0.079986	1.118505
F173	F	0.929398	-0.578477	0.446093
F174	F	1.429398	-0.078477	0.946093
H175	H	0.947038	-0.719648	0.429901
H176	H	1.447038	-0.219648	0.929901
H177	H	1.077605	-0.245225	0.774625
H178	H	1.577605	0.254775	1.274625
