data_functionalizedCrystal
_audit_creation_method	'MofGen! by Chris Wilmer'
_symmetry_space_group_name_H-M	'P1'
_symmetry_Int_Tables_number	1
_symmetry_cell_setting	triclinic
loop_
_symmetry_equiv_pos_as_xyz
  x,y,z
_cell_length_a	18.101398
_cell_length_b	21.295417
_cell_length_c	18.101389
_cell_angle_alpha	89.978482
_cell_angle_beta	89.990255
_cell_angle_gamma	90.025259
loop_
_atom_site_label
_atom_site_type_symbol
_atom_site_fract_x
_atom_site_fract_y
_atom_site_fract_z
Zn1	Zn	1.132128	-0.250750	-0.418535
Zn2	Zn	1.382128	-0.000750	-0.168535
Zn3	Zn	1.632128	0.249250	0.081465
Zn4	Zn	1.882128	0.499250	0.331465
Zn5	Zn	1.132027	-0.356003	-0.294686
Zn6	Zn	1.382027	-0.106003	-0.044686
Zn7	Zn	1.632027	0.143997	0.205314
Zn8	Zn	1.882027	0.393997	0.455314
Zn9	Zn	1.008287	-0.250744	-0.294727
Zn10	Zn	1.258287	-0.000744	-0.044727
Zn11	Zn	1.508287	0.249256	0.205273
Zn12	Zn	1.758287	0.499256	0.455273
Zn13	Zn	1.008241	-0.355977	-0.418506
Zn14	Zn	1.258241	-0.105977	-0.168506
Zn15	Zn	1.508241	0.144023	0.081494
Zn16	Zn	1.758241	0.394023	0.331494
O17	O	1.070171	-0.303369	-0.356614
O18	O	1.320171	-0.053369	-0.106614
O19	O	1.570171	0.196631	0.143386
O20	O	1.820171	0.446631	0.393386
O21	O	1.235748	-0.264726	-0.402101
O22	O	1.485748	-0.014726	-0.152101
O23	O	1.735748	0.235274	0.097899
O24	O	1.985748	0.485274	0.347899
O25	O	1.115590	-0.342049	-0.191059
O26	O	1.365590	-0.092049	0.058941
O27	O	1.615590	0.157951	0.308941
O28	O	1.865590	0.407951	0.558941
O29	O	1.024776	-0.162655	-0.311179
O30	O	1.274776	0.087345	-0.061179
O31	O	1.524776	0.337345	0.188821
O32	O	1.774776	0.587345	0.438821
O33	O	1.235673	-0.342055	-0.311110
O34	O	1.485673	-0.092055	-0.061110
O35	O	1.735673	0.157945	0.188890
O36	O	1.985673	0.407945	0.438890
O37	O	1.115762	-0.162660	-0.402140
O38	O	1.365762	0.087340	-0.152140
O39	O	1.615762	0.337340	0.097860
O40	O	1.865762	0.587340	0.347860
O41	O	1.024678	-0.264715	-0.191089
O42	O	1.274678	-0.014715	0.058911
O43	O	1.524678	0.235285	0.308911
O44	O	1.774678	0.485285	0.558911
O45	O	0.904648	-0.264690	-0.311152
O46	O	1.154648	-0.014690	-0.061152
O47	O	1.404648	0.235310	0.188848
O48	O	1.654648	0.485310	0.438848
O49	O	1.024698	-0.342010	-0.522143
O50	O	1.274698	-0.092010	-0.272143
O51	O	1.524698	0.157990	-0.022143
O52	O	1.774698	0.407990	0.227857
O53	O	0.904614	-0.342004	-0.402092
O54	O	1.154614	-0.092004	-0.152092
O55	O	1.404614	0.157996	0.097908
O56	O	1.654614	0.407996	0.347908
O57	O	1.115717	-0.264700	-0.522164
O58	O	1.365717	-0.014700	-0.272164
O59	O	1.615717	0.235300	-0.022164
O60	O	1.865717	0.485300	0.227836
O61	O	1.115545	-0.444089	-0.311083
O62	O	1.365545	-0.194089	-0.061083
O63	O	1.615545	0.055911	0.188917
O64	O	1.865545	0.305911	0.438917
O65	O	1.024600	-0.444070	-0.402053
O66	O	1.274600	-0.194070	-0.152053
O67	O	1.524600	0.055930	0.097947
O68	O	1.774600	0.305930	0.347947
C69	C	0.877760	-0.303344	-0.356624
C70	C	1.127760	-0.053344	-0.106624
C71	C	1.377760	0.196656	0.143376
C72	C	1.627760	0.446656	0.393376
C73	C	0.795446	-0.303348	-0.356646
C74	C	1.045446	-0.053348	-0.106646
C75	C	1.295446	0.196652	0.143354
C76	C	1.545446	0.446652	0.393354
C77	C	0.496355	-0.303385	-0.356615
C78	C	0.746355	-0.053385	-0.106615
C79	C	0.996355	0.196615	0.143385
C80	C	1.246355	0.446615	0.393385
C81	C	0.527684	-0.352265	-0.413550
C82	C	0.777684	-0.102265	-0.163550
C83	C	1.027684	0.147735	0.086450
C84	C	1.277684	0.397735	0.336450
C85	C	0.613302	-0.352112	-0.413784
C86	C	0.863302	-0.102112	-0.163784
C87	C	1.113302	0.147888	0.086216
C88	C	1.363302	0.397888	0.336216
C89	C	0.644738	-0.303368	-0.356630
C90	C	0.894738	-0.053368	-0.106630
C91	C	1.144738	0.196632	0.143370
C92	C	1.394738	0.446632	0.393370
C93	C	0.613681	-0.237068	-0.377962
C94	C	0.863681	0.012932	-0.127962
C95	C	1.113681	0.262932	0.122038
C96	C	1.363681	0.512932	0.372038
C97	C	0.528036	-0.237361	-0.378367
C98	C	0.778036	0.012639	-0.128367
C99	C	1.028036	0.262639	0.121633
C100	C	1.278036	0.512639	0.371633
C101	C	0.527903	-0.320222	-0.278211
C102	C	0.777903	-0.070222	-0.028211
C103	C	1.027903	0.179778	0.221789
C104	C	1.277903	0.429778	0.471789
C105	C	0.613553	-0.321676	-0.278630
C106	C	0.863553	-0.071676	-0.028630
C107	C	1.113553	0.178324	0.221370
C108	C	1.363553	0.428324	0.471370
C109	C	0.728597	-0.303353	-0.356638
C110	C	0.978597	-0.053353	-0.106638
C111	C	1.228597	0.196647	0.143362
C112	C	1.478597	0.446647	0.393362
C113	C	0.412496	-0.303395	-0.356609
C114	C	0.662496	-0.053395	-0.106609
C115	C	0.912496	0.196605	0.143391
C116	C	1.162496	0.446605	0.393391
C117	C	1.070076	-0.466920	-0.356576
C118	C	1.320076	-0.216920	-0.106576
C119	C	1.570076	0.033080	0.143424
C120	C	1.820076	0.283080	0.393424
C121	C	1.070104	-0.536888	-0.356585
C122	C	1.320104	-0.286888	-0.106585
C123	C	1.570104	-0.036888	0.143415
C124	C	1.820104	0.213112	0.393415
C125	C	1.117453	-0.569700	-0.403982
C126	C	1.367453	-0.319700	-0.153982
C127	C	1.617453	-0.069700	0.096018
C128	C	1.867453	0.180300	0.346018
C129	C	1.117479	-0.635443	-0.404000
C130	C	1.367479	-0.385443	-0.154000
C131	C	1.617479	-0.135443	0.096000
C132	C	1.867479	0.114557	0.346000
C133	C	1.070164	-0.668371	-0.356608
C134	C	1.320164	-0.418371	-0.106608
C135	C	1.570164	-0.168371	0.143392
C136	C	1.820164	0.081629	0.393392
C137	C	1.022806	-0.635551	-0.309208
C138	C	1.272806	-0.385551	-0.059208
C139	C	1.522806	-0.135551	0.190792
C140	C	1.772806	0.114449	0.440792
C141	C	1.022776	-0.569810	-0.309196
C142	C	1.272776	-0.319810	-0.059196
C143	C	1.522776	-0.069810	0.190804
C144	C	1.772776	0.180190	0.440804
N145	N	1.064571	-0.771624	-0.291797
N146	N	1.314571	-0.521624	-0.041797
N147	N	1.564571	-0.271624	0.208203
N148	N	1.814571	-0.021624	0.458203
N149	N	1.064604	-0.834075	-0.291810
N150	N	1.314604	-0.584075	-0.041810
N151	N	1.564604	-0.334075	0.208190
N152	N	1.814604	-0.084075	0.458190
C153	C	1.070250	-0.866445	-0.356642
C154	C	1.320250	-0.616445	-0.106642
C155	C	1.570250	-0.366445	0.143358
C156	C	1.820250	-0.116445	0.393358
N157	N	1.075877	-0.834005	-0.421461
N158	N	1.325877	-0.584005	-0.171461
N159	N	1.575877	-0.334005	0.078539
N160	N	1.825877	-0.084005	0.328539
N161	N	1.075848	-0.771548	-0.421447
N162	N	1.325848	-0.521548	-0.171447
N163	N	1.575848	-0.271548	0.078553
N164	N	1.825848	-0.021548	0.328553
C165	C	1.070191	-0.739656	-0.356616
C166	C	1.320191	-0.489656	-0.106616
C167	C	1.570191	-0.239656	0.143384
C168	C	1.820191	0.010344	0.393384
C169	C	1.117630	-0.970543	-0.404063
C170	C	1.367630	-0.720543	-0.154063
C171	C	1.617630	-0.470543	0.095937
C172	C	1.867630	-0.220543	0.345937
C173	C	1.117651	-1.036286	-0.404082
C174	C	1.367651	-0.786286	-0.154082
C175	C	1.617651	-0.536286	0.095918
C176	C	1.867651	-0.286286	0.345918
C177	C	1.022982	-1.036394	-0.309283
C178	C	1.272982	-0.786394	-0.059283
C179	C	1.522982	-0.536394	0.190717
C180	C	1.772982	-0.286394	0.440717
C181	C	1.022957	-0.970651	-0.309270
C182	C	1.272957	-0.720651	-0.059270
C183	C	1.522957	-0.470651	0.190730
C184	C	1.772957	-0.220651	0.440730
C185	C	1.070285	-0.937730	-0.356659
C186	C	1.320285	-0.687730	-0.106659
C187	C	1.570285	-0.437730	0.143341
C188	C	1.820285	-0.187730	0.393341
C189	C	1.263333	-0.303394	-0.356604
C190	C	1.513333	-0.053394	-0.106604
C191	C	1.763333	0.196606	0.143396
C192	C	2.013333	0.446606	0.393396
C193	C	1.345647	-0.303405	-0.356600
C194	C	1.595647	-0.053405	-0.106600
C195	C	1.845647	0.196595	0.143400
C196	C	2.095647	0.446595	0.393400
C197	C	1.070214	-0.303353	-0.549776
C198	C	1.320214	-0.053353	-0.299776
C199	C	1.570214	0.196647	-0.049776
C200	C	1.820214	0.446647	0.200224
C201	C	1.070232	-0.303346	-0.632090
C202	C	1.320232	-0.053346	-0.382090
C203	C	1.570232	0.196654	-0.132090
C204	C	1.820232	0.446654	0.117910
C205	C	1.070286	-0.139178	-0.356668
C206	C	1.320286	0.110822	-0.106668
C207	C	1.570286	0.360822	0.143332
C208	C	1.820286	0.610822	0.393332
C209	C	1.070335	-0.069210	-0.356690
C210	C	1.320335	0.180790	-0.106690
C211	C	1.570335	0.430790	0.143310
C212	C	1.820335	0.680790	0.393310
C213	C	1.070275	-0.303228	-0.931181
C214	C	1.320275	-0.053228	-0.681181
C215	C	1.570275	0.196772	-0.431181
C216	C	1.820275	0.446772	-0.181181
C217	C	1.012811	-0.351714	-0.899843
C218	C	1.262811	-0.101714	-0.649843
C219	C	1.512811	0.148286	-0.399843
C220	C	1.762811	0.398286	-0.149843
C221	C	1.012966	-0.351939	-0.814224
C222	C	1.262966	-0.101939	-0.564224
C223	C	1.512966	0.148061	-0.314224
C224	C	1.762966	0.398061	-0.064224
C225	C	1.070253	-0.303286	-0.782798
C226	C	1.320253	-0.053286	-0.532798
C227	C	1.570253	0.196714	-0.282798
C228	C	1.820253	0.446714	-0.032798
C229	C	1.148279	-0.321298	-0.813883
C230	C	1.398279	-0.071298	-0.563883
C231	C	1.648279	0.178702	-0.313883
C232	C	1.898279	0.428702	-0.063883
C233	C	1.147959	-0.321617	-0.899528
C234	C	1.397959	-0.071617	-0.649528
C235	C	1.647959	0.178383	-0.399528
C236	C	1.897959	0.428383	-0.149528
C237	C	1.050392	-0.236622	-0.899615
C238	C	1.300392	0.013378	-0.649615
C239	C	1.550392	0.263378	-0.399615
C240	C	1.800392	0.513378	-0.149615
C241	C	1.048656	-0.237006	-0.813964
C242	C	1.298656	0.012994	-0.563964
C243	C	1.548656	0.262994	-0.313964
C244	C	1.798656	0.512994	-0.063964
C245	C	1.070245	-0.303318	-0.698939
C246	C	1.320245	-0.053318	-0.448939
C247	C	1.570245	0.196682	-0.198939
C248	C	1.820245	0.446682	0.051061
C249	C	1.070288	-0.303197	-1.015041
C250	C	1.320288	-0.053197	-0.765041
C251	C	1.570288	0.196803	-0.515041
C252	C	1.820288	0.446803	-0.265041
C253	C	1.070171	-0.303339	-0.164203
C254	C	1.320171	-0.053339	0.085797
C255	C	1.570171	0.196661	0.335797
C256	C	1.820171	0.446661	0.585797
C257	C	1.070296	-0.303168	-0.081890
C258	C	1.320296	-0.053168	0.168110
C259	C	1.570296	0.196832	0.418110
C260	C	1.820296	0.446832	0.668110
H261	H	0.507313	-0.199638	-0.338801
H262	H	0.757313	0.050362	-0.088801
H263	H	1.007313	0.300362	0.161199
H264	H	1.257313	0.550362	0.411199
H265	H	1.156030	-0.662163	-0.442605
H266	H	1.406030	-0.412163	-0.192605
H267	H	1.656030	-0.162163	0.057395
H268	H	1.906030	0.087837	0.307395
H269	H	0.507070	-0.401591	-0.400329
H270	H	0.757070	-0.151591	-0.150329
H271	H	1.007070	0.098409	0.099671
H272	H	1.257070	0.348409	0.349671
H273	H	0.984280	-0.662365	-0.270623
H274	H	1.234280	-0.412365	-0.020623
H275	H	1.484280	-0.162365	0.229377
H276	H	1.734280	0.087635	0.479377
H277	H	0.984217	-0.543094	-0.270599
H278	H	1.234217	-0.293094	-0.020599
H279	H	1.484217	-0.043094	0.229401
H280	H	1.734217	0.206906	0.479401
Br281	Br	0.916078	-0.333117	-0.934169
Br282	Br	1.166078	-0.083117	-0.684169
Br283	Br	1.416078	0.166883	-0.434169
Br284	Br	1.666078	0.416883	-0.184169
H285	H	1.192244	-0.287093	-0.793528
H286	H	1.442244	-0.037093	-0.543528
H287	H	1.692244	0.212907	-0.293528
H288	H	1.942244	0.462907	-0.043528
Br289	Br	1.034421	-0.433491	-0.935770
Br290	Br	1.284421	-0.183491	-0.685770
Br291	Br	1.534421	0.066509	-0.435770
Br292	Br	1.784421	0.316509	-0.185770
H293	H	1.192225	-0.287834	-0.920259
H294	H	1.442225	-0.037834	-0.670259
H295	H	1.692225	0.212166	-0.420259
H296	H	1.942225	0.462166	-0.170259
Br297	Br	1.176863	-0.401589	-0.778134
Br298	Br	1.426863	-0.151589	-0.528134
Br299	Br	1.676863	0.098411	-0.278134
Br300	Br	1.926863	0.348411	-0.028134
Br301	Br	0.916531	-0.333147	-0.779190
Br302	Br	1.166531	-0.083147	-0.529190
Br303	Br	1.416531	0.166853	-0.279190
Br304	Br	1.666531	0.416853	-0.029190
Br305	Br	0.957207	-0.209272	-0.935615
Br306	Br	1.207207	0.040728	-0.685615
Br307	Br	1.457207	0.290728	-0.435615
Br308	Br	1.707207	0.540728	-0.185615
Br309	Br	0.494761	-0.213559	-0.473898
Br310	Br	0.744761	0.036441	-0.223898
Br311	Br	0.994761	0.286441	0.026102
Br312	Br	1.244761	0.536441	0.276102
H313	H	1.156208	-1.063001	-0.442682
H314	H	1.406208	-0.813001	-0.192682
H315	H	1.656208	-0.563001	0.057318
H316	H	1.906208	-0.313001	0.307318
Br317	Br	1.120151	-0.176411	-0.933392
Br318	Br	1.370151	0.073589	-0.683392
Br319	Br	1.620151	0.323589	-0.433392
Br320	Br	1.870151	0.573589	-0.183392
Br321	Br	1.181858	-0.925860	-0.468376
Br322	Br	1.431858	-0.675860	-0.218376
Br323	Br	1.681858	-0.425860	0.031624
Br324	Br	1.931858	-0.175860	0.281624
Br325	Br	1.034889	-0.434219	-0.780068
Br326	Br	1.284889	-0.184219	-0.530068
Br327	Br	1.534889	0.065781	-0.280068
Br328	Br	1.784889	0.315781	-0.030068
H329	H	0.633859	-0.370463	-0.262542
H330	H	0.883859	-0.120463	-0.012542
H331	H	1.133859	0.129537	0.237458
H332	H	1.383859	0.379537	0.487458
Br333	Br	0.648302	-0.434064	-0.391532
Br334	Br	0.898302	-0.184064	-0.141532
Br335	Br	1.148302	0.065936	0.108468
Br336	Br	1.398302	0.315936	0.358468
Br337	Br	0.647481	-0.333547	-0.510608
Br338	Br	0.897481	-0.083547	-0.260608
Br339	Br	1.147481	0.166453	-0.010608
Br340	Br	1.397481	0.416453	0.239392
H341	H	1.164814	-0.370307	-0.919504
H342	H	1.414814	-0.120307	-0.669504
H343	H	1.664814	0.129693	-0.419504
H344	H	1.914814	0.379693	-0.169504
Br345	Br	0.958692	-0.926118	-0.244944
Br346	Br	1.208692	-0.676118	0.005056
Br347	Br	1.458692	-0.426118	0.255056
Br348	Br	1.708692	-0.176118	0.505056
H349	H	0.991235	-0.223423	-0.793648
H350	H	1.241235	0.026577	-0.543648
H351	H	1.491235	0.276577	-0.293648
H352	H	1.741235	0.526577	-0.043648
H353	H	0.984452	-1.063203	-0.270700
H354	H	1.234452	-0.813203	-0.020700
H355	H	1.484452	-0.563203	0.229300
H356	H	1.734452	-0.313203	0.479300
Br357	Br	0.647620	-0.174719	-0.311007
Br358	Br	0.897620	0.075281	-0.061007
Br359	Br	1.147620	0.325281	0.188993
Br360	Br	1.397620	0.575281	0.438993
H361	H	1.087456	-0.198963	-0.792572
H362	H	1.337456	0.051037	-0.542572
H363	H	1.587456	0.301037	-0.292572
H364	H	1.837456	0.551037	-0.042572
H365	H	0.635146	-0.222528	-0.434656
H366	H	0.885146	0.027472	-0.184656
H367	H	1.135146	0.277472	0.065344
H368	H	1.385146	0.527472	0.315344
H369	H	0.506173	-0.341268	-0.471306
H370	H	0.756173	-0.091268	-0.221306
H371	H	1.006173	0.158732	0.028694
H372	H	1.256173	0.408732	0.278694
H373	H	0.506291	-0.367740	-0.258826
H374	H	0.756291	-0.117740	-0.008826
H375	H	1.006291	0.132260	0.241174
H376	H	1.256291	0.382260	0.491174
H377	H	0.634952	-0.288659	-0.233931
H378	H	0.884952	-0.038659	0.016069
H379	H	1.134952	0.211341	0.266069
H380	H	1.384952	0.461341	0.516069
H381	H	0.507644	-0.284618	-0.235790
H382	H	0.757644	-0.034618	0.014210
H383	H	1.007644	0.215382	0.264210
H384	H	1.257644	0.465382	0.514210
Br385	Br	1.181680	-0.525024	-0.468299
Br386	Br	1.431680	-0.275024	-0.218299
Br387	Br	1.681680	-0.025024	0.031701
Br388	Br	1.931680	0.224976	0.281701
