data_functionalizedCrystal
_audit_creation_method	'MofGen! by Chris Wilmer'
_symmetry_space_group_name_H-M	'P1'
_symmetry_Int_Tables_number	1
_symmetry_cell_setting	triclinic
loop_
_symmetry_equiv_pos_as_xyz
  x,y,z
_cell_length_a	14.519731
_cell_length_b	12.996460
_cell_length_c	10.654550
_cell_angle_alpha	89.994020
_cell_angle_beta	95.913108
_cell_angle_gamma	90.005673
loop_
_atom_site_label
_atom_site_type_symbol
_atom_site_fract_x
_atom_site_fract_y
_atom_site_fract_z
O1	O	1.224711	0.085569	-0.164753
O2	O	0.956337	0.085570	-0.184111
O3	O	1.096694	0.085563	0.008366
O4	O	1.084354	0.085576	-0.357230
O5	O	1.096680	-0.085571	0.008376
O6	O	0.956322	-0.085563	-0.184101
O7	O	1.224696	-0.085565	-0.164742
Cu8	Cu	1.090508	-0.101190	-0.174421
Cu9	Cu	1.090525	0.101195	-0.174433
O10	O	1.084339	-0.085558	-0.357219
C11	C	0.921965	0.000004	-0.183199
C12	C	0.819571	0.000004	-0.180481
C13	C	0.736416	0.000008	-0.178272
C14	C	0.632093	0.000008	-0.175513
C15	C	0.548942	0.000008	-0.173322
C16	C	0.444612	0.000010	-0.170563
N17	N	1.090502	-0.243537	-0.174411
C18	C	1.090524	-0.663352	-0.174434
C19	C	1.090515	-0.546546	-0.174432
C20	C	1.090514	-0.453448	-0.174424
C21	C	1.090504	-0.336636	-0.174419
C22	C	1.259068	0.000004	-0.165655
C23	C	1.361462	0.000010	-0.168373
C24	C	1.095781	-0.000003	0.055160
C25	C	1.093070	-0.000002	0.194578
N26	N	1.090538	0.243543	-0.174433
C27	C	1.085252	0.000011	-0.404014
C28	C	1.087963	0.000016	-0.543432
C29	C	1.175710	-0.000002	0.274850
C30	C	1.173157	0.000011	0.405846
C31	C	1.005317	0.000019	0.376286
C32	C	1.007871	0.000014	0.245293
H33	H	1.245085	-0.000012	0.233562
H34	H	0.940571	0.000017	0.179931
F35	F	1.261115	0.000013	0.491272
F36	F	0.914647	0.000036	0.430272
