data_functionalizedCrystal
_audit_creation_method	'MofGen! by Chris Wilmer'
_symmetry_space_group_name_H-M	'P1'
_symmetry_Int_Tables_number	1
_symmetry_cell_setting	triclinic
loop_
_symmetry_equiv_pos_as_xyz
  x,y,z
_cell_length_a	17.038272
_cell_length_b	17.038272
_cell_length_c	12.503572
_cell_angle_alpha	93.777379
_cell_angle_beta	86.232200
_cell_angle_gamma	91.111556
loop_
_atom_site_label
_atom_site_type_symbol
_atom_site_fract_x
_atom_site_fract_y
_atom_site_fract_z
O1	O	1.052975	0.166301	-0.089187
O2	O	0.825165	0.163592	-0.089218
O3	O	0.937715	0.051041	-0.089194
O4	O	0.940424	0.278852	-0.089211
O5	O	0.929252	0.059521	0.089446
O6	O	0.816701	0.172071	0.089422
O7	O	1.044511	0.174781	0.089454
Cu8	Cu	0.929833	0.174200	0.105749
Cu9	Cu	0.939842	0.164172	-0.105514
O10	O	0.931960	0.287331	0.089429
C11	C	0.791640	0.165368	0.000098
C12	C	0.704357	0.158020	0.000086
C13	C	0.658748	0.225483	0.000082
C14	C	0.576736	0.218575	0.000097
C15	C	0.540334	0.144202	0.000109
C16	C	0.585949	0.076734	0.000116
C17	C	0.667960	0.083643	0.000109
C18	C	0.292945	0.119793	0.000140
C19	C	0.210928	0.112889	0.000144
C20	C	0.201720	0.254731	0.000127
C21	C	0.283733	0.261633	0.000113
C22	C	0.329341	0.194165	0.000126
C23	C	0.456504	0.137139	0.000121
C24	C	0.413169	0.201229	0.000121
C25	C	0.931021	0.025988	0.000126
C26	C	0.923673	-0.061296	0.000124
C27	C	0.991136	-0.106904	0.000135
C28	C	0.984227	-0.188917	0.000124
C29	C	0.909855	-0.225318	0.000110
C30	C	0.842387	-0.179704	0.000096
C31	C	0.849296	-0.097693	0.000099
C32	C	0.885445	-0.472707	0.000092
C33	C	0.878540	-0.554724	0.000091
C34	C	1.020382	-0.563931	0.000117
C35	C	1.027285	-0.481918	0.000127
C36	C	0.959817	-0.436311	0.000107
C37	C	0.902791	-0.309148	0.000102
C38	C	0.966881	-0.352483	0.000108
C39	C	1.078036	0.173004	0.000135
C40	C	1.165319	0.180352	0.000140
C41	C	0.938655	0.312384	0.000107
C42	C	0.946004	0.399668	0.000102
N43	N	0.922799	0.181253	0.254340
N44	N	0.946882	0.157113	-0.254104
C45	C	0.912452	0.191635	0.473453
C46	C	0.957227	0.146734	0.526789
C47	C	0.951470	0.152511	0.648711
C48	C	0.918208	0.185859	0.351520
H49	H	0.539604	0.273511	0.000093
H50	H	0.781831	-0.209349	0.000078
F51	F	0.451911	0.280380	0.000113
H52	H	0.794360	-0.060559	0.000091
H53	H	0.426855	0.076586	0.000161
F54	F	0.823641	-0.347897	0.000082
F55	F	0.697482	0.304641	0.000062
F56	F	0.322469	0.340790	0.000095
H57	H	0.999884	0.103955	0.480886
H58	H	0.164578	0.309659	0.000119
F59	F	0.172188	0.033728	0.000175
F60	F	1.046032	-0.313741	0.000116
F61	F	0.856701	0.247550	0.533446
H62	H	0.330069	0.064855	0.000151
H63	H	0.705094	0.028707	0.000111
F64	F	0.547205	-0.002419	0.000136
H65	H	1.051698	-0.077272	0.000153
F66	F	1.056032	-0.237454	0.000137
H67	H	1.087846	-0.452286	0.000138
F68	F	1.092181	-0.612475	0.000136
H69	H	0.830508	-0.435583	0.000076
F70	F	0.799379	-0.593463	0.000082
