data_functionalizedCrystal
_audit_creation_method	'MofGen! by Chris Wilmer'
_symmetry_space_group_name_H-M	'P1'
_symmetry_Int_Tables_number	1
_symmetry_cell_setting	triclinic
loop_
_symmetry_equiv_pos_as_xyz
  x,y,z
_cell_length_a	17.052862
_cell_length_b	14.628931
_cell_length_c	17.052862
_cell_angle_alpha	70.264221
_cell_angle_beta	92.606806
_cell_angle_gamma	50.259505
loop_
_atom_site_label
_atom_site_type_symbol
_atom_site_fract_x
_atom_site_fract_y
_atom_site_fract_z
Zr1	Zr	0.908863	0.691660	0.030289
O2	O	0.780702	0.882365	-0.097873
O3	O	0.948151	0.500955	0.069578
O4	O	0.974002	0.632781	-0.072024
O5	O	0.734459	0.796983	0.155427
O6	O	1.126481	0.586337	-0.051634
O7	O	0.754851	0.750538	0.043729
O8	O	1.080238	0.350523	0.201667
O9	O	0.780702	1.032797	-0.097873
O10	O	1.078700	0.544734	0.101551
O11	O	0.949689	0.614055	0.169693
O12	O	0.980125	0.769265	0.002975
O13	O	0.851114	0.838586	0.071117
Zr14	Zr	1.119527	0.691660	0.240955
Zr15	Zr	1.152049	0.617587	0.062809
Zr16	Zr	0.876341	0.765733	0.208435
Zr17	Zr	0.908863	0.931581	0.030289
Zr18	Zr	1.119527	0.451739	0.240955
O19	O	1.080239	0.882366	0.201666
O20	O	1.126481	0.777043	-0.051634
O21	O	0.734460	0.987688	0.155427
O22	O	1.247688	0.500955	0.369117
O23	O	1.293930	0.395632	0.115818
O24	O	0.901909	0.606278	0.322878
O25	O	1.293931	0.586338	0.115817
O26	O	1.054388	0.750539	0.343268
O27	O	0.901909	0.796983	0.322878
O28	O	1.273539	0.632782	0.227515
O29	O	0.974003	0.973919	-0.072024
O30	O	1.054387	0.409402	0.343268
O31	O	1.247688	0.350524	0.369118
O32	O	1.273539	0.291645	0.227516
O33	O	0.754851	1.091675	0.043729
O34	O	0.948152	1.032797	0.069578
O35	O	1.048264	0.614056	0.268269
O36	O	1.177276	0.544734	0.200127
O37	O	1.078701	0.769265	0.101551
O38	O	0.949690	0.838587	0.169693
C39	C	1.014194	0.391555	0.135622
C40	C	1.014194	0.289702	0.135622
C41	C	0.710006	0.784314	0.094944
C42	C	0.606767	0.815760	0.081139
C43	C	1.078193	0.209905	0.101820
C44	C	1.078194	0.104634	0.101819
C45	C	0.521580	0.435577	0.248047
C46	C	0.618581	0.406026	0.261015
C47	C	0.615633	0.508457	0.216048
C48	C	0.515673	0.640444	0.158109
C49	C	0.418664	0.669996	0.145135
C50	C	0.512717	0.742876	0.113135
C51	C	0.412757	0.874864	0.055197
C52	C	0.315759	0.904410	0.042225
C53	C	0.318706	0.801979	0.087193
C54	C	0.609726	0.713324	0.126109
C55	C	0.506810	0.947743	0.023197
C56	C	0.409809	0.977295	0.010229
C57	C	1.318384	0.599006	0.176300
C58	C	1.421623	0.567560	0.190105
C59	C	1.054875	0.599005	-0.087211
C60	C	1.068682	0.567559	-0.162838
C61	C	1.014195	0.991765	0.135622
C62	C	1.014196	1.093618	0.135622
C63	C	0.901762	0.947744	-0.581849
C64	C	0.888784	0.977295	-0.510796
C65	C	0.933757	0.874864	-0.423803
C66	C	0.991711	0.742876	-0.407870
C67	C	1.004684	0.713324	-0.478931
C68	C	1.036679	0.640444	-0.320886
C69	C	1.094632	0.508457	-0.304952
C70	C	1.107603	0.478911	-0.376008
C71	C	1.062630	0.581342	-0.463000
C72	C	1.023706	0.669996	-0.249825
C73	C	1.126628	0.435577	-0.146907
C74	C	1.139606	0.406026	-0.217960
C75	C	0.973515	0.784315	0.358455
C76	C	0.959708	0.815761	0.434082
C77	C	1.318383	0.298901	0.176300
C78	C	1.421622	0.165602	0.190106
C79	C	0.973514	0.484210	0.358455
C80	C	0.959708	0.413803	0.434083
C81	C	1.277703	0.391556	0.399133
C82	C	1.367135	0.289703	0.488566
C83	C	0.750687	0.991764	-0.127889
C84	C	0.661255	1.093617	-0.217322
C85	C	0.710007	1.084419	0.094944
C86	C	0.606768	1.217718	0.081139
C87	C	1.054876	0.899110	-0.087211
C88	C	1.068682	0.969517	-0.162838
C89	C	1.418650	0.103000	0.145126
C90	C	1.515647	-0.022239	0.158080
C91	C	1.615615	-0.084879	0.216019
C92	C	1.618584	-0.022266	0.261000
C93	C	1.521589	0.102975	0.248041
C94	C	1.004678	0.380743	0.521061
C95	C	0.991699	0.314606	0.592128
C96	C	0.933757	0.281522	0.576214
C97	C	0.888781	0.314591	0.489226
C98	C	0.901753	0.380735	0.418161
C99	C	1.476486	0.205684	0.494997
C100	C	1.560528	0.109990	0.579023
C101	C	1.535216	0.098311	0.656617
C102	C	1.425854	0.182343	0.650184
C103	C	1.341815	0.278041	0.566158
C104	C	0.551904	1.177648	-0.223752
C105	C	0.467862	1.273372	-0.307779
C106	C	0.493174	1.285055	-0.385373
C107	C	0.602536	1.201018	-0.378939
C108	C	0.686575	1.105303	-0.294914
C109	C	0.609741	1.280327	0.126111
C110	C	0.512747	1.405584	0.113137
C111	C	0.412781	1.468226	0.055196
C112	C	0.409810	1.405611	0.010218
C113	C	0.506804	1.280360	0.023187
C114	C	1.126631	1.002578	-0.146897
C115	C	1.139625	1.068716	-0.217947
C116	C	1.094662	1.101800	-0.304939
C117	C	1.036711	1.068731	-0.320879
C118	C	1.023725	1.002586	-0.249829
H119	H	1.132981	0.036148	0.072874
H120	H	1.699991	-0.073286	0.308174
H121	H	1.163245	0.352170	-0.076075
N122	N	0.988213	1.104431	-0.414710
H123	H	0.949528	1.073454	-0.414038
H124	H	1.048488	1.058114	-0.438790
N125	N	0.804520	1.014644	-0.287978
H126	H	0.842412	1.029657	-0.254699
H127	H	0.807706	1.036613	-0.349913
H128	H	0.333810	1.570214	0.044643
H129	H	0.691129	1.229336	0.173297
H130	H	1.132988	0.219515	0.072884
H131	H	0.694618	0.484388	0.226610
H132	H	0.959406	0.280082	0.164564
N133	N	0.941608	0.184327	0.173961
H134	H	0.889157	0.281990	0.126039
H135	H	0.988209	0.169156	0.225023
N136	N	0.349913	1.363985	-0.314712
H137	H	0.312036	1.461670	-0.347976
H138	H	0.346726	1.341930	-0.252778
H139	H	0.424733	1.362998	-0.453786
H140	H	1.497116	0.215173	0.431824
H141	H	1.163247	0.975653	-0.076070
H142	H	1.649569	0.041576	0.584246
H143	H	1.524023	0.153933	0.284675
H144	H	0.865145	1.031131	-0.652680
H145	H	1.603657	0.020382	0.725031
H146	H	1.105244	1.155661	-0.362785
N147	N	1.040229	0.278921	0.685947
H148	H	0.980025	0.325241	0.710092
H149	H	1.078925	0.309897	0.685171
N150	N	1.310838	0.170543	0.082632
H151	H	1.260661	0.183536	0.116805
H152	H	1.323790	0.111813	0.056124
N153	N	0.629828	1.213626	-0.462634
H154	H	0.559989	1.287010	-0.516833
H155	H	0.673912	1.124743	-0.463489
N156	N	1.202102	0.263674	-0.200779
H157	H	1.279469	0.200177	-0.158279
H158	H	1.203410	0.260624	-0.259033
H159	H	1.513208	-0.073202	0.121449
H160	H	1.252778	0.346443	0.560934
H161	H	0.531273	1.168146	-0.160580
H162	H	0.841599	1.084759	-0.523775
N163	N	0.515979	1.473099	0.161649
H164	H	0.485692	1.564008	0.116712
H165	H	0.594053	1.414290	0.200320
H166	H	0.328404	1.456633	-0.036958
H167	H	1.405260	0.172819	0.713373
H168	H	1.051859	0.407674	0.534035
H169	H	0.691105	0.605860	0.173290
H170	H	0.504368	1.229390	-0.013434
N171	N	0.726389	0.263676	0.323491
H172	H	0.713540	0.203270	0.350009
H173	H	0.761250	0.263695	0.372968
N174	N	0.524760	0.325103	0.296526
H175	H	0.448141	0.363853	0.279509
H176	H	0.556544	0.286138	0.363117
N177	N	1.076637	0.549463	-0.539636
H178	H	1.039358	0.634380	-0.597159
H179	H	1.042853	0.513691	-0.544112
N180	N	1.720228	-0.219959	0.229991
H181	H	1.703165	-0.250105	0.192702
H182	H	1.756114	-0.289007	0.295182
N183	N	0.503618	1.058231	-0.025306
H184	H	0.425578	1.146325	-0.063984
H185	H	0.549266	1.033669	-0.064012
N186	N	1.202133	1.104371	-0.200743
H187	H	1.228633	1.073383	-0.134853
H188	H	1.152638	1.205580	-0.235624
H189	H	0.976533	0.975677	-0.262822
H190	H	0.239724	0.826034	0.076642
H191	H	0.923202	0.227663	0.634088
H192	H	0.234371	1.011881	-0.004959
N193	N	0.301989	1.119645	-0.052257
H194	H	0.267086	1.119730	-0.101780
H195	H	0.314913	1.179981	-0.078713
H196	H	0.976518	0.777462	-0.262807
H197	H	0.865135	0.407641	0.347342
N198	N	0.826299	0.278890	0.472068
H199	H	0.761499	0.325197	0.491622
H200	H	0.875846	0.177668	0.506908
N201	N	0.919780	0.906722	-0.347162
H202	H	0.879739	0.885218	-0.317471
H203	H	0.876278	1.005875	-0.370518
N204	N	1.170110	0.336557	-0.358828
H205	H	1.234906	0.301691	-0.378385
H206	H	1.120584	0.336572	-0.393654
