data_functionalizedCrystal
_audit_creation_method	'MofGen! by Chris Wilmer'
_symmetry_space_group_name_H-M	'P1'
_symmetry_Int_Tables_number	1
_symmetry_cell_setting	triclinic
loop_
_symmetry_equiv_pos_as_xyz
  x,y,z
_cell_length_a	13.032951
_cell_length_b	19.077068
_cell_length_c	19.077251
_cell_angle_alpha	94.671285
_cell_angle_beta	80.839147
_cell_angle_gamma	85.403843
loop_
_atom_site_label
_atom_site_type_symbol
_atom_site_fract_x
_atom_site_fract_y
_atom_site_fract_z
Zn1	Zn	-1.604105	0.440020	0.552590
Zn2	Zn	-1.104105	0.940020	1.052590
Zn3	Zn	-1.590509	0.551932	0.438223
Zn4	Zn	-1.090509	1.051932	0.938223
Zn5	Zn	-1.422651	0.419073	0.418572
Zn6	Zn	-0.922651	0.919073	0.918572
Zn7	Zn	-1.422550	0.541659	0.541124
Zn8	Zn	-0.922550	1.041659	1.041124
O9	O	-1.509953	0.488171	0.487627
O10	O	-1.009953	0.988171	0.987627
O11	O	-1.748532	0.467931	0.550442
O12	O	-1.248532	0.967931	1.050442
O13	O	-1.562594	0.529840	0.336465
O14	O	-1.062594	1.029840	0.836465
O15	O	-1.452453	0.323713	0.432925
O16	O	-0.952453	0.823713	0.932925
O17	O	-1.738543	0.550152	0.466417
O18	O	-1.238543	1.050152	0.966417
O19	O	-1.585767	0.339103	0.531388
O20	O	-1.085767	0.839103	1.031388
O21	O	-1.439270	0.432229	0.322028
O22	O	-0.939270	0.932229	0.822028
O23	O	-1.276407	0.422269	0.421806
O24	O	-0.776407	0.922269	0.921806
O25	O	-1.452281	0.532644	0.641797
O26	O	-0.952281	1.032644	1.141797
O27	O	-1.276333	0.512332	0.511845
O28	O	-0.776333	1.012332	1.011845
O29	O	-1.585668	0.457970	0.650221
O30	O	-1.085668	0.957970	1.150221
O31	O	-1.562496	0.648707	0.455298
O32	O	-1.062496	1.148707	0.955298
O33	O	-1.439097	0.641160	0.530899
O34	O	-0.939097	1.141160	1.030899
C35	C	-1.238454	0.463913	0.463449
C36	C	-0.738454	0.963913	0.963449
C37	C	-1.122305	0.453553	0.453123
C38	C	-0.622305	0.953553	0.953123
C39	C	-1.499340	0.670383	0.494005
C40	C	-0.999340	1.170383	0.994005
C41	C	-1.494896	0.748344	0.496765
C42	C	-0.994896	1.248344	0.996765
C43	C	-1.520480	0.496498	0.672436
C44	C	-1.020480	0.996498	1.172436
C45	C	-1.524966	0.500046	0.751191
C46	C	-1.024966	1.000046	1.251191
C47	C	-1.070505	0.493562	0.493007
C48	C	-0.570505	0.993562	0.993007
C49	C	-0.950460	0.482855	0.482335
C50	C	-0.450460	0.982855	0.982335
C51	C	-0.782513	0.512516	0.511895
C52	C	-0.282513	1.012516	1.011895
C53	C	-0.898663	0.522869	0.522224
C54	C	-0.398663	1.022869	1.022224
C55	C	-1.520638	0.305250	0.481243
C56	C	-1.020638	0.805250	0.981243
C57	C	-1.525191	0.227300	0.478523
C58	C	-1.025191	0.727300	0.978523
C59	C	-1.557110	0.788883	0.458743
C60	C	-1.057110	1.288883	0.958743
C61	C	-1.552936	0.862136	0.461344
C62	C	-1.052936	1.362136	0.961344
C63	C	-1.486544	0.894848	0.501964
C64	C	-0.986544	1.394848	1.001964
C65	C	-1.424328	0.854304	0.539991
C66	C	-0.924328	1.354304	1.039991
C67	C	-1.428507	0.781053	0.537393
C68	C	-0.928507	1.281053	1.037393
C69	C	-1.467154	1.113506	0.513952
C70	C	-0.967154	1.613506	1.013952
C71	C	-1.462978	1.186762	0.516545
C72	C	-0.962978	1.686762	1.016545
C73	C	-1.591588	1.194588	0.437899
C74	C	-1.091588	1.694588	0.937899
C75	C	-1.595757	1.121335	0.435302
C76	C	-1.095757	1.621335	0.935302
C77	C	-1.533545	1.080798	0.473332
C78	C	-1.033545	1.580798	0.973332
N79	N	-1.482274	0.969724	0.504622
N80	N	-0.982274	1.469724	1.004622
N81	N	-1.537821	1.005924	0.470678
N82	N	-1.037821	1.505924	0.970678
C83	C	-1.462868	0.450893	0.780673
C84	C	-0.962868	0.950893	1.280673
C85	C	-1.467078	0.454233	0.854671
C86	C	-0.967078	0.954233	1.354671
C87	C	-1.533393	0.506722	0.899186
C88	C	-1.033393	1.006722	1.399186
C89	C	-1.595493	0.555880	0.869699
C90	C	-1.095493	1.055880	1.369699
C91	C	-1.591277	0.552543	0.795702
C92	C	-1.091277	1.052543	1.295702
C93	C	-1.552884	0.522155	1.121301
C94	C	-1.052884	1.022155	1.621301
C95	C	-1.557098	0.525487	1.195303
C96	C	-1.057098	1.025487	1.695303
C97	C	-1.428681	0.423840	1.180269
C98	C	-0.928681	0.923840	1.680269
C99	C	-1.424475	0.420505	1.106271
C100	C	-0.924475	0.920505	1.606271
C101	C	-1.486571	0.469665	1.076791
C102	C	-0.986571	0.969665	1.576791
N103	N	-1.537701	0.510136	0.974825
N104	N	-1.037701	1.010136	1.474825
N105	N	-1.482257	0.466254	1.001153
N106	N	-0.982257	0.966254	1.501153
C107	C	-1.499466	0.479889	1.303538
C108	C	-0.999466	0.979889	1.803538
C109	C	-1.495000	0.476334	1.224785
C110	C	-0.995000	0.976334	1.724785
H111	H	-1.115032	0.535738	0.535055
H112	H	-0.615032	1.035738	1.035055
F113	F	-0.956851	0.577996	0.577195
F114	F	-0.456851	1.077996	1.077195
F115	F	-1.657366	0.604860	0.764326
F116	F	-1.157366	1.104860	1.264326
F117	F	-0.892271	0.427716	0.427377
F118	F	-0.392271	0.927716	0.927377
F119	F	-1.618979	0.574472	1.089935
F120	F	-1.118979	1.074472	1.589935
F121	F	-1.627768	0.754074	0.415505
F122	F	-1.127768	1.254074	0.915505
F123	F	-1.392299	1.221574	0.559772
F124	F	-0.892299	1.721574	1.059772
H125	H	-1.077780	0.411372	0.411080
H126	H	-0.577780	0.911372	0.911080
H127	H	-1.603597	0.895139	0.430382
H128	H	-1.103597	1.395139	0.930382
H129	H	-1.416497	1.080506	0.544916
H130	H	-0.916497	1.580506	1.044916
H131	H	-1.649819	1.094702	0.402226
H132	H	-1.149819	1.594702	0.902226
H133	H	-1.642239	1.227601	0.406939
H134	H	-1.142239	1.727601	0.906939
H135	H	-1.370274	0.880945	0.573067
H136	H	-0.870274	1.380945	1.073067
F137	F	-1.362294	0.737910	0.577864
F138	F	-0.862294	1.237910	1.077864
H139	H	-1.408873	0.408147	0.744434
H140	H	-0.908873	0.908147	1.244434
H141	H	-1.649483	0.598621	0.905949
H142	H	-1.149483	1.098621	1.405949
F143	F	-1.400944	0.401940	0.886042
F144	F	-0.900944	0.901940	1.386042
F145	F	-1.353895	0.364638	1.058900
F146	F	-0.853895	0.864638	1.558900
H147	H	-1.378125	0.383818	1.204280
H148	H	-0.878125	0.883818	1.704280
F149	F	-1.627690	0.581352	1.242679
F150	F	-1.127690	1.081352	1.742679
