data_functionalizedCrystal
_audit_creation_method	'MofGen! by Chris Wilmer'
_symmetry_space_group_name_H-M	'P1'
_symmetry_Int_Tables_number	1
_symmetry_cell_setting	triclinic
loop_
_symmetry_equiv_pos_as_xyz
  x,y,z
_cell_length_a	17.038272
_cell_length_b	17.019294
_cell_length_c	14.586319
_cell_angle_alpha	93.879158
_cell_angle_beta	90.000471
_cell_angle_gamma	87.244363
loop_
_atom_site_label
_atom_site_type_symbol
_atom_site_fract_x
_atom_site_fract_y
_atom_site_fract_z
O1	O	1.037223	0.171280	0.089646
O2	O	0.809595	0.168561	0.089458
O3	O	0.929758	0.055515	0.080515
O4	O	0.917059	0.284327	0.098589
O5	O	0.929744	0.055521	-0.071966
O6	O	0.809580	0.168567	-0.063022
O7	O	1.037208	0.171287	-0.062835
Cu8	Cu	0.923393	0.169927	-0.076851
Cu9	Cu	0.923410	0.169920	0.103474
O10	O	0.917044	0.284333	-0.053891
C11	C	0.780461	0.166090	0.013026
C12	C	0.693674	0.158710	0.012453
C13	C	0.929269	0.026096	0.001953
C14	C	0.927825	-0.061571	-0.004966
C15	C	0.643502	0.226470	0.017805
C16	C	0.561958	0.219530	0.017244
C17	C	0.530587	0.144830	0.011338
C18	C	0.580765	0.077065	0.005983
C19	C	0.662308	0.084005	0.006538
C20	C	0.284850	0.120313	0.009377
C21	C	0.203300	0.113378	0.008826
C22	C	0.184499	0.255843	0.020085
C23	C	0.266044	0.262777	0.020645
C24	C	0.316215	0.195012	0.015285
C25	C	0.447235	0.137736	0.010768
C26	C	0.399565	0.202107	0.015849
C27	C	0.927156	-0.102756	0.074900
C28	C	0.925793	-0.185128	0.068397
C29	C	0.925105	-0.226314	-0.017974
C30	C	0.925772	-0.185123	-0.097846
C31	C	0.927129	-0.102752	-0.091341
C32	C	0.921002	-0.475020	-0.041771
C33	C	0.919647	-0.557397	-0.048269
C34	C	0.919667	-0.557396	0.117974
C35	C	0.921029	-0.475024	0.124471
C36	C	0.921691	-0.433840	0.044599
C37	C	0.923715	-0.310511	-0.024623
C38	C	0.923076	-0.349644	0.051249
C39	C	1.066342	0.173757	0.013599
C40	C	1.153128	0.181138	0.014178
C41	C	0.917533	0.313751	0.024673
C42	C	0.918978	0.401418	0.031597
N43	N	0.923386	0.169932	-0.203683
C44	C	0.970760	0.220971	-0.434663
C45	C	0.970768	0.220966	-0.530645
C46	C	0.876047	0.118865	-0.538708
C47	C	0.876044	0.118866	-0.442728
C48	C	0.923399	0.169924	-0.390708
C49	C	0.923410	0.169917	-0.582669
C50	C	0.923419	0.169912	-0.686737
C51	C	0.923391	0.169929	-0.286634
N52	N	0.923423	0.169909	0.230305
H53	H	0.669038	0.287298	0.022615
Cl54	Cl	1.030298	0.285151	-0.369270
Cl55	Cl	0.816513	0.054688	-0.604110
H56	H	0.837476	0.077294	-0.406939
Cl57	Cl	0.121422	0.341028	0.026819
Cl58	Cl	0.924953	-0.236900	0.168805
H59	H	0.421684	0.076914	0.005933
Cl60	Cl	0.918787	-0.609173	-0.156857
Cl61	Cl	0.498887	0.304719	0.023978
H62	H	0.921590	-0.441496	0.194803
Cl63	Cl	0.928026	-0.050987	0.183486
H64	H	0.919126	-0.590937	0.183001
H65	H	1.009335	0.262533	-0.566429
H66	H	0.291580	0.323605	0.025465
Cl67	Cl	0.163864	0.019462	0.001380
H68	H	0.425111	0.262928	0.020653
H69	H	0.921557	-0.441499	-0.106809
Cl70	Cl	0.924897	-0.236899	-0.206427
Cl71	Cl	0.927968	-0.050976	-0.191749
H72	H	0.923157	-0.344054	-0.094946
Cl73	Cl	0.347912	0.035121	0.002640
Cl74	Cl	0.725382	-0.001182	-0.000195
Cl75	Cl	0.541327	-0.016844	-0.001447
H76	H	0.923631	-0.316106	0.121572
