data_functionalizedCrystal
_audit_creation_method	'MofGen! by Chris Wilmer'
_symmetry_space_group_name_H-M	'P1'
_symmetry_Int_Tables_number	1
_symmetry_cell_setting	triclinic
loop_
_symmetry_equiv_pos_as_xyz
  x,y,z
_cell_length_a	10.489741
_cell_length_b	11.026607
_cell_length_c	10.065875
_cell_angle_alpha	79.268236
_cell_angle_beta	81.160533
_cell_angle_gamma	83.437405
loop_
_atom_site_label
_atom_site_type_symbol
_atom_site_fract_x
_atom_site_fract_y
_atom_site_fract_z
O1	O	1.746394	-0.153833	-0.113555
O2	O	2.246394	0.346167	0.386445
O3	O	1.378739	-0.169938	-0.113544
O4	O	1.878739	0.330062	0.386456
O5	O	1.532095	0.015033	-0.113544
O6	O	2.032095	0.515033	0.386456
O7	O	1.593038	-0.338804	-0.113555
O8	O	2.093038	0.161196	0.386445
O9	O	1.502885	-0.020381	0.113445
O10	O	2.002885	0.479619	0.613445
O11	O	1.349529	-0.205352	0.113445
O12	O	1.849529	0.294648	0.613445
O13	O	1.717184	-0.189247	0.113434
O14	O	2.217184	0.310753	0.613434
Zn15	Zn	1.528719	-0.202923	0.149479
Zn16	Zn	2.028719	0.297077	0.649479
Zn17	Zn	1.567204	-0.156263	-0.149589
Zn18	Zn	2.067204	0.343737	0.350411
O19	O	1.563828	-0.374218	0.113433
O20	O	2.063828	0.125782	0.613433
C21	C	1.506248	0.042635	-0.000050
C22	C	2.006248	0.542635	0.499950
C23	C	1.472733	0.177643	-0.000054
C24	C	1.972733	0.677643	0.499946
C25	C	1.316335	-0.186429	-0.000048
C26	C	1.816335	0.313571	0.499952
C27	C	1.173904	-0.182791	-0.000043
C28	C	1.673904	0.317209	0.499957
C29	C	1.779589	-0.172756	-0.000065
C30	C	2.279589	0.327244	0.499935
C31	C	1.922020	-0.176392	-0.000079
C32	C	2.422020	0.323608	0.499921
C33	C	2.016048	-0.294086	-0.000068
C34	C	2.516048	0.205914	0.499932
C35	C	2.110346	-0.221029	-0.111979
C36	C	2.610346	0.278971	0.388021
C37	C	2.081507	-0.255917	0.111814
C38	C	2.581507	0.244083	0.611814
C39	C	2.014455	-0.103273	-0.112082
C40	C	2.514455	0.396727	0.387918
C41	C	1.985597	-0.138193	0.111812
C42	C	2.485597	0.361807	0.611812
C43	C	2.079853	-0.065047	-0.000126
C44	C	2.579853	0.434953	0.499874
C45	C	1.589676	-0.401820	-0.000063
C46	C	2.089676	0.098180	0.499937
C47	C	1.623191	-0.536826	-0.000068
C48	C	2.123191	-0.036826	0.499932
N49	N	1.502463	-0.234766	0.353584
N50	N	2.002463	0.265234	0.853584
C51	C	1.565274	0.250640	-0.000059
C52	C	2.065274	0.750640	0.499941
C53	C	1.530637	0.390178	-0.000063
C54	C	2.030637	0.890178	0.499937
N55	N	1.593469	-0.124410	-0.353694
N56	N	2.093469	0.375590	0.146306
C57	C	1.558059	-0.167334	0.421363
C58	C	2.058059	0.332666	0.921363
C59	C	1.537864	-0.191851	0.578530
C60	C	2.037864	0.308149	1.078530
H61	H	1.987700	-0.390833	-0.000185
H62	H	2.487700	0.109167	0.499815
F63	F	1.335660	0.230976	-0.000063
F64	F	1.835660	0.730976	0.499937
H65	H	2.164497	-0.256068	-0.206593
H66	H	2.664497	0.243932	0.293407
F67	F	1.760275	0.409852	-0.000078
F68	F	2.260275	0.909852	0.499922
F69	F	1.420696	-0.333945	0.429815
F70	F	1.920696	0.166055	0.929815
H71	H	1.425762	0.430981	-0.000069
H72	H	1.925762	0.930981	0.499931
F73	F	1.639541	-0.067933	0.345132
F74	F	2.139541	0.432067	0.845132
F75	F	1.975791	-0.018916	-0.235889
F76	F	2.475791	0.481084	0.264111
H77	H	1.475304	-0.267733	0.636851
H78	H	1.975304	0.232267	1.136851
H79	H	1.931427	-0.103200	0.206434
H80	H	2.431427	0.396800	0.706434
F81	F	2.116617	0.061556	-0.000195
F82	F	2.616617	0.561556	0.499805
H83	H	1.656017	-0.048519	0.587985
H84	H	2.156017	0.451481	1.087985
F85	F	2.120410	-0.340326	0.235481
F86	F	2.620410	0.159674	0.735481
H87	H	1.670142	0.209832	-0.000054
H88	H	2.170142	0.709832	0.499946
