data_functionalizedCrystal
_audit_creation_method	'MofGen! by Chris Wilmer'
_symmetry_space_group_name_H-M	'P1'
_symmetry_Int_Tables_number	1
_symmetry_cell_setting	triclinic
loop_
_symmetry_equiv_pos_as_xyz
  x,y,z
_cell_length_a	13.032721
_cell_length_b	21.395364
_cell_length_c	21.395355
_cell_angle_alpha	90.025298
_cell_angle_beta	97.165964
_cell_angle_gamma	82.778791
loop_
_atom_site_label
_atom_site_type_symbol
_atom_site_fract_x
_atom_site_fract_y
_atom_site_fract_z
Zn1	Zn	-0.415723	-0.926248	-0.385930
Zn2	Zn	0.084277	-0.426248	0.114070
Zn3	Zn	-0.590464	-0.912863	-0.294458
Zn4	Zn	-0.090464	-0.412863	0.205542
Zn5	Zn	-0.415774	-0.821459	-0.281169
Zn6	Zn	0.084226	-0.321459	0.218831
Zn7	Zn	-0.590488	-0.808143	-0.399199
Zn8	Zn	-0.090488	-0.308143	0.100801
O9	O	-0.503112	-0.867178	-0.340189
O10	O	-0.003112	-0.367178	0.159811
O11	O	-0.438871	-1.012153	-0.373804
O12	O	0.061129	-0.512153	0.126196
O13	O	-0.567303	-0.900710	-0.205018
O14	O	-0.067303	-0.400710	0.294982
O15	O	-0.269519	-0.846534	-0.283951
O16	O	0.230481	-0.346534	0.216049
O17	O	-0.567253	-1.002319	-0.306601
O18	O	-0.067253	-0.502319	0.193399
O19	O	-0.269482	-0.923522	-0.360918
O20	O	0.230518	-0.423522	0.139082
O21	O	-0.438959	-0.833555	-0.195255
O22	O	0.061041	-0.333555	0.304745
O23	O	-0.438982	-0.732012	-0.296817
O24	O	0.061018	-0.232012	0.203183
O25	O	-0.567294	-0.823839	-0.485116
O26	O	-0.067294	-0.323839	0.014884
O27	O	-0.567343	-0.722229	-0.383533
O28	O	-0.067343	-0.222229	0.116467
O29	O	-0.438895	-0.910610	-0.475367
O30	O	0.061105	-0.410610	0.024633
O31	O	-0.736716	-0.887798	-0.319467
O32	O	-0.236716	-0.387798	0.180533
O33	O	-0.736733	-0.810860	-0.396419
O34	O	-0.236733	-0.310860	0.103581
C35	C	-0.503172	-0.704386	-0.340174
C36	C	-0.003172	-0.204386	0.159826
C37	C	-0.503222	-0.634741	-0.340184
C38	C	-0.003222	-0.134741	0.159816
C39	C	-0.436485	-0.607162	-0.375247
C40	C	0.063515	-0.107162	0.124753
C41	C	-0.436460	-0.541729	-0.375247
C42	C	0.063540	-0.041729	0.124753
C43	C	-0.503192	-0.503875	-0.340191
C44	C	-0.003192	-0.003875	0.159809
C45	C	-0.569934	-0.531461	-0.305121
C46	C	-0.069934	-0.031461	0.194879
C47	C	-0.569949	-0.596894	-0.305117
C48	C	-0.069949	-0.096894	0.194883
C49	C	-0.597314	-0.392994	-0.342320
C50	C	-0.097314	0.107006	0.157680
C51	C	-0.597301	-0.327562	-0.342328
C52	C	-0.097301	0.172438	0.157672
C53	C	-0.503144	-0.302058	-0.340199
C54	C	-0.003144	0.197942	0.159801
C55	C	-0.408999	-0.341994	-0.338075
C56	C	0.091001	0.158006	0.161925
C57	C	-0.409014	-0.407427	-0.338071
C58	C	0.090986	0.092573	0.161929
C59	C	-0.503182	-0.432923	-0.340191
C60	C	-0.003182	0.067077	0.159809
C61	C	-0.436375	-0.203529	-0.375263
C62	C	0.063625	0.296471	0.124737
C63	C	-0.436349	-0.138094	-0.375259
C64	C	0.063651	0.361906	0.124741
C65	C	-0.569831	-0.127828	-0.305137
C66	C	-0.069831	0.372172	0.194863
C67	C	-0.569848	-0.193262	-0.305138
C68	C	-0.069848	0.306738	0.194862
C69	C	-0.503122	-0.231108	-0.340204
C70	C	-0.003122	0.268892	0.159796
C71	C	-0.774645	-0.846449	-0.360839
C72	C	-0.274645	-0.346449	0.139161
C73	C	-0.890808	-0.837638	-0.369694
C74	C	-0.390808	-0.337638	0.130306
C75	C	-0.942553	-0.871810	-0.335596
C76	C	-0.442553	-0.371810	0.164404
C77	C	-1.062614	-0.862704	-0.344747
C78	C	-0.562614	-0.362704	0.155253
C79	C	-0.230520	-0.888006	-0.319472
C80	C	0.269480	-0.388006	0.180528
C81	C	-0.114357	-0.896882	-0.310644
C82	C	0.385643	-0.396882	0.189356
C83	C	-0.503091	-0.867232	-0.503611
C84	C	-0.003091	-0.367232	-0.003611
C85	C	-0.503082	-0.867255	-0.573251
C86	C	-0.003082	-0.367255	-0.073251
C87	C	-0.503067	-0.030605	-0.340202
C88	C	-0.003067	0.469395	0.159798
C89	C	-0.503080	-0.100245	-0.340202
C90	C	-0.003080	0.399755	0.159798
C91	C	-0.436222	-0.912435	-0.600889
C92	C	0.063778	-0.412435	-0.100889
C93	C	-0.436177	-0.912438	-0.666321
C94	C	0.063823	-0.412438	-0.166321
C95	C	-0.503011	-0.867265	-0.704114
C96	C	-0.003011	-0.367265	-0.204114
C97	C	-0.569876	-0.822077	-0.676469
C98	C	-0.069876	-0.322077	-0.176469
C99	C	-0.569912	-0.822072	-0.611037
C100	C	-0.069912	-0.322072	-0.111037
C101	C	-0.597115	-0.855134	-0.814945
C102	C	-0.097115	-0.355134	-0.314945
C103	C	-0.597081	-0.855143	-0.880376
C104	C	-0.097081	-0.355143	-0.380376
C105	C	-0.502901	-0.867277	-0.905927
C106	C	-0.002901	-0.367277	-0.405927
C107	C	-0.408751	-0.879416	-0.866039
C108	C	0.091249	-0.379416	-0.366039
C109	C	-0.408786	-0.879411	-0.800607
C110	C	0.091214	-0.379411	-0.300607
C111	C	-0.502979	-0.867265	-0.775064
C112	C	-0.002979	-0.367265	-0.275064
C113	C	-0.435986	-0.912463	-1.004513
C114	C	0.064014	-0.412463	-0.504513
C115	C	-0.435939	-0.912461	-1.069946
C116	C	0.064061	-0.412461	-0.569946
C117	C	-0.569647	-0.822103	-1.080093
C118	C	-0.069647	-0.322103	-0.580093
C119	C	-0.569685	-0.822102	-1.014661
C120	C	-0.069685	-0.322102	-0.514661
C121	C	-0.502855	-0.867285	-0.976875
C122	C	-0.002855	-0.367285	-0.476875
C123	C	-0.503058	-0.867167	-0.177397
C124	C	-0.003058	-0.367167	0.322603
C125	C	-0.502773	-0.867288	-0.107735
C126	C	-0.002773	-0.367288	0.392265
H127	H	-0.382150	-0.637973	-0.403801
H128	H	0.117850	-0.137973	0.096199
H129	H	-0.332327	-0.321231	-0.336342
H130	H	0.167673	0.178769	0.163658
F131	F	-0.365354	-0.243811	-0.412580
F132	F	0.134646	0.256189	0.087420
H133	H	-0.381997	-0.115642	-0.403810
H134	H	0.118003	0.384358	0.096190
F135	F	-0.641002	-0.773999	-0.716692
F136	F	-0.141002	-0.273999	-0.216692
F137	F	-1.120877	-0.815652	-0.391766
F138	F	-0.620877	-0.315652	0.108234
H139	H	-0.624296	-0.619348	-0.276564
H140	H	-0.124296	-0.119348	0.223436
F141	F	-0.640846	-0.087546	-0.267824
F142	F	-0.140846	0.412454	0.232176
F143	F	-0.365425	-0.512371	-0.412566
F144	F	0.134575	-0.012371	0.087434
H145	H	-0.624356	-0.785278	-0.588536
H146	H	-0.124356	-0.285278	-0.088536
H147	H	-0.332126	-0.889292	-0.768133
H148	H	0.167874	-0.389292	-0.268133
H149	H	-0.332357	-0.439941	-0.336340
H150	H	0.167643	0.060059	0.163660
F151	F	-1.056096	-0.943940	-0.263630
F152	F	-0.556096	-0.443940	0.236370
F153	F	-0.884286	-0.918867	-0.288586
F154	F	-0.384286	-0.418867	0.211414
H155	H	-0.673744	-0.845263	-0.912848
H156	H	-0.173744	-0.345263	-0.412848
F157	F	-0.640877	-0.222614	-0.267816
F158	F	-0.140877	0.277386	0.232184
H159	H	-0.624136	-0.785315	-0.992159
H160	H	-0.124136	-0.285315	-0.492159
F161	F	-0.949075	-0.790588	-0.416711
F162	F	-0.449075	-0.290588	0.083289
H163	H	-0.381803	-0.949226	-0.570127
H164	H	0.118197	-0.449226	-0.070127
F165	F	-0.364995	-0.960518	-0.695740
F166	F	0.135005	-0.460518	-0.195740
F167	F	-0.308509	-0.892333	-0.893226
F168	F	0.191491	-0.392333	-0.393226
H169	H	-0.381564	-0.949251	-0.973745
H170	H	0.118436	-0.449251	-0.473745
H171	H	-0.673960	-0.295050	-0.344060
H172	H	-0.173960	0.204950	0.155940
F173	F	-0.364785	-0.960557	-1.099360
F174	F	0.135215	-0.460557	-0.599360
H175	H	-0.624054	-0.785317	-1.110863
H176	H	-0.124054	-0.285317	-0.610863
F177	F	-0.697364	-0.842232	-0.787760
F178	F	-0.197364	-0.342232	-0.287760
F179	F	-0.640950	-0.491174	-0.267810
F180	F	-0.140950	0.008826	0.232190
F181	F	-0.697534	-0.420130	-0.344578
F182	F	-0.197534	0.079870	0.155422
