data_functionalizedCrystal
_audit_creation_method	'MofGen! by Chris Wilmer'
_symmetry_space_group_name_H-M	'P1'
_symmetry_Int_Tables_number	1
_symmetry_cell_setting	triclinic
loop_
_symmetry_equiv_pos_as_xyz
  x,y,z
_cell_length_a	17.699077
_cell_length_b	17.699104
_cell_length_c	16.176319
_cell_angle_alpha	89.992259
_cell_angle_beta	89.993140
_cell_angle_gamma	83.286047
loop_
_atom_site_label
_atom_site_type_symbol
_atom_site_fract_x
_atom_site_fract_y
_atom_site_fract_z
O1	O	1.004089	0.095691	-0.068737
O2	O	0.783711	0.108148	-0.068742
O3	O	0.900118	-0.008269	-0.068732
O4	O	0.887682	0.212107	-0.068747
O5	O	0.900102	-0.008276	0.068761
O6	O	0.783695	0.108140	0.068752
O7	O	1.004073	0.095683	0.068756
Cu8	Cu	0.893882	0.101911	0.081308
Cu9	Cu	0.893901	0.101920	-0.081294
O10	O	0.887666	0.212100	0.068746
C11	C	0.755506	0.107698	0.000005
C12	C	0.671487	0.106362	0.000003
C13	C	0.632011	0.105728	0.074952
C14	C	0.553068	0.104460	0.074953
C15	C	0.513603	0.103831	0.000004
C16	C	0.553085	0.104463	-0.074950
C17	C	0.632027	0.105725	-0.074950
C18	C	0.234721	0.099369	-0.074951
C19	C	0.155773	0.098109	-0.074945
C20	C	0.155763	0.098104	0.074951
C21	C	0.234705	0.099366	0.074951
C22	C	0.274180	0.099994	-0.000002
C23	C	0.359779	0.101367	-0.000003
C24	C	0.428005	0.102463	0.000003
C25	C	0.899661	-0.036469	0.000015
C26	C	0.898317	-0.120487	0.000015
C27	C	0.959061	-0.645359	-0.000007
C28	C	0.960320	-0.566415	0.000000
C29	C	0.891984	-0.517796	0.000001
C30	C	0.822385	-0.548125	0.000002
C31	C	0.821127	-0.627067	0.000001
C32	C	0.827458	-0.229759	0.000009
C33	C	0.828722	-0.150811	0.000008
C34	C	0.966651	-0.169107	0.000009
C35	C	0.965393	-0.248049	0.000007
C36	C	0.895794	-0.278371	0.000013
C37	C	0.894430	-0.363971	0.000007
C38	C	0.893348	-0.432198	0.000001
C39	C	1.032278	0.096133	0.000008
C40	C	1.116296	0.097469	0.000004
C41	C	0.888122	0.240300	-0.000002
C42	C	0.889467	0.324318	-0.000008
N43	N	0.893875	0.101904	0.195673
N44	N	0.893915	0.101920	-0.195659
C45	C	0.945435	0.050376	0.238942
C46	C	0.945439	0.050375	0.325489
C47	C	0.893885	0.101907	0.368766
C48	C	0.842319	0.153438	0.325491
C49	C	0.842312	0.153434	0.238946
C50	C	0.842345	0.153452	0.674520
C51	C	0.842357	0.153453	0.761071
C52	C	0.945472	0.050393	0.761063
C53	C	0.945465	0.050390	0.674517
C54	C	0.893896	0.101917	0.631250
C55	C	0.893892	0.101917	0.537406
C56	C	0.893893	0.101912	0.462608
H57	H	0.266853	0.099878	-0.135983
H58	H	0.987423	0.008417	0.360718
H59	H	0.800373	0.195418	0.796306
C60	C	0.509670	0.103769	-0.157394
N61	N	0.476970	0.103249	-0.219493
C62	C	0.675416	0.106419	0.157402
N63	N	0.708107	0.106936	0.219507
H64	H	1.021039	-0.287632	0.000003
C65	C	0.747216	-0.494641	0.000001
N66	N	0.690596	-0.454357	-0.000004
H67	H	0.800358	0.195409	0.639298
H68	H	0.520932	0.103931	0.135983
H69	H	0.800339	0.195394	0.360732
C70	C	0.675450	0.106424	-0.157399
N71	N	0.708155	0.106949	-0.219503
H72	H	0.770787	-0.254436	0.000004
C73	C	1.034236	-0.698833	-0.000006
N74	N	1.090861	-0.739109	-0.000001
H75	H	0.987459	0.008434	0.796300
H76	H	0.266833	0.099882	0.135982
C77	C	1.002176	-0.006301	0.626917
N78	N	1.044889	-0.049004	0.591066
H79	H	0.123613	0.097589	0.135982
C80	C	0.785598	0.210126	0.191351
N81	N	0.742879	0.252828	0.155504
H82	H	0.764457	-0.651754	0.000007
C83	C	1.036878	-0.533064	0.000001
N84	N	1.094546	-0.507944	0.000003
C85	C	1.043212	-0.135747	0.000015
N86	N	1.100876	-0.110621	0.000020
C87	C	0.112364	0.097409	-0.157398
N88	N	0.079668	0.096880	-0.219499
C89	C	0.753544	-0.097331	0.000013
N90	N	0.696923	-0.057050	0.000016
C91	C	1.002149	-0.006314	0.191345
N92	N	1.044865	-0.049018	0.155497
