data_functionalizedCrystal
_audit_creation_method	'MofGen! by Chris Wilmer'
_symmetry_space_group_name_H-M	'P1'
_symmetry_Int_Tables_number	1
_symmetry_cell_setting	triclinic
loop_
_symmetry_equiv_pos_as_xyz
  x,y,z
_cell_length_a	16.109293
_cell_length_b	16.109301
_cell_length_c	14.586319
_cell_angle_alpha	90.003802
_cell_angle_beta	89.993082
_cell_angle_gamma	96.540073
loop_
_atom_site_label
_atom_site_type_symbol
_atom_site_fract_x
_atom_site_fract_y
_atom_site_fract_z
O1	O	-1.103135	0.106835	0.076313
O2	O	-0.603135	0.606835	0.576313
O3	O	-0.861072	0.120141	0.076299
O4	O	-0.361072	0.620141	0.576299
O5	O	-0.988753	-0.007543	0.076300
O6	O	-0.488753	0.492457	0.576300
O7	O	-0.975454	0.234519	0.076311
O8	O	-0.475454	0.734519	0.576311
O9	O	-0.988744	-0.007545	-0.076181
O10	O	-0.488744	0.492455	0.423819
O11	O	-0.861063	0.120139	-0.076182
O12	O	-0.361063	0.620139	0.423818
O13	O	-1.103126	0.106833	-0.076168
O14	O	-0.603126	0.606833	0.423832
Cu15	Cu	-0.982094	0.113486	-0.090098
Cu16	Cu	-0.482094	0.613486	0.409902
Cu17	Cu	-0.982104	0.113488	0.090228
Cu18	Cu	-0.482104	0.613488	0.590228
O19	O	-0.975445	0.234517	-0.076169
O20	O	-0.475445	0.734517	0.423831
C21	C	-0.830093	0.119602	0.000056
C22	C	-0.330093	0.619602	0.500056
C23	C	-0.737797	0.117990	0.000051
C24	C	-0.237797	0.617990	0.500051
C25	C	-0.525450	0.114260	-0.083063
C26	C	-0.025450	0.614260	0.416937
C27	C	-0.438730	0.112736	-0.083063
C28	C	0.061270	0.612736	0.416937
C29	C	-0.438750	0.112742	0.083180
C30	C	0.061250	0.612742	0.583180
C31	C	-0.525470	0.114261	0.083179
C32	C	-0.025470	0.614261	0.583179
C33	C	-0.568817	0.115024	0.000054
C34	C	-0.068817	0.615024	0.500054
C35	C	-0.395377	0.111981	0.000056
C36	C	0.104623	0.611981	0.500056
C37	C	-0.301351	0.110329	0.000058
C38	C	0.198649	0.610329	0.500058
C39	C	-0.662849	0.116675	0.000052
C40	C	-0.162849	0.616675	0.500052
C41	C	-0.988210	-0.038519	0.000060
C42	C	-0.488210	0.461481	0.500060
C43	C	-0.986595	-0.130814	0.000061
C44	C	-0.486595	0.369186	0.500061
C45	C	-1.057078	-0.439814	0.000081
C46	C	-0.557078	0.060186	0.500081
C47	C	-1.058603	-0.353094	0.000076
C48	C	-0.558603	0.146906	0.500076
C49	C	-0.907114	-0.333217	0.000055
C50	C	-0.407114	0.166783	0.500055
C51	C	-0.905590	-0.419935	0.000054
C52	C	-0.405590	0.080065	0.500054
C53	C	-0.980574	-0.473232	0.000071
C54	C	-0.480574	0.026768	0.500071
C55	C	-0.983624	-0.299793	0.000067
C56	C	-0.483624	0.200207	0.500067
C57	C	-0.985277	-0.205767	0.000062
C58	C	-0.485277	0.294233	0.500062
C59	C	-0.978921	-0.567264	0.000075
C60	C	-0.478921	-0.067264	0.500075
C61	C	-0.134105	0.107380	0.000069
C62	C	0.365895	0.607380	0.500069
C63	C	-0.226397	0.109015	0.000059
C64	C	0.273603	0.609015	0.500059
C65	C	-0.975988	0.265493	0.000073
C66	C	-0.475988	0.765493	0.500073
C67	C	-0.977603	0.357788	0.000078
C68	C	-0.477603	0.857788	0.500078
N69	N	-0.982093	0.113484	-0.216930
N70	N	-0.482093	0.613484	0.283070
C71	C	-1.038648	0.056964	-0.451935
C72	C	-0.538648	0.556964	0.048065
C73	C	-1.038651	0.056962	-0.547917
C74	C	-0.538651	0.556962	-0.047917
C75	C	-0.925550	0.170006	-0.547927
C76	C	-0.425550	0.670006	-0.047927
C77	C	-0.925545	0.170003	-0.451948
C78	C	-0.425545	0.670003	0.048052
C79	C	-0.982098	0.113484	-0.403954
C80	C	-0.482098	0.613484	0.096046
C81	C	-0.982106	0.113484	-0.595915
C82	C	-0.482106	0.613484	-0.095915
C83	C	-0.982109	0.113482	-0.699982
C84	C	-0.482109	0.613482	-0.199982
C85	C	-0.982095	0.113484	-0.299881
C86	C	-0.482095	0.613484	0.200119
N87	N	-0.982112	0.113484	0.217060
N88	N	-0.482112	0.613484	0.717060
H89	H	-0.403446	0.112122	0.150857
H90	H	0.096554	0.612122	0.650857
O91	O	-0.572253	0.115087	0.172830
O92	O	-0.072253	0.615087	0.672830
H93	H	-0.527542	0.114314	0.230632
H94	H	-0.027542	0.614314	0.730632
H95	H	-0.403425	0.112115	-0.150745
H96	H	0.096575	0.612115	0.349255
H97	H	-1.118135	-0.483207	0.000096
H98	H	-0.618135	0.016793	0.500096
O99	O	-0.572201	0.115084	-0.172718
O100	O	-0.072201	0.615084	0.327282
H101	H	-0.619144	0.059148	-0.176699
H102	H	-0.119144	0.559148	0.323301
H103	H	-1.120901	-0.325890	0.000082
H104	H	-0.620901	0.174110	0.500082
H105	H	-0.879491	0.216029	-0.412879
H106	H	-0.379491	0.716029	0.087121
O107	O	-0.864566	0.230972	-0.599697
O108	O	-0.364566	0.730972	-0.099697
H109	H	-0.875142	0.295785	-0.581256
H110	H	-0.375142	0.795785	-0.081256
H111	H	-0.846065	-0.289812	0.000043
H112	H	-0.346065	0.210188	0.500043
H113	H	-1.084698	0.010938	-0.586980
H114	H	-0.584698	0.510938	-0.086980
O115	O	-0.823071	-0.455989	0.000042
O116	O	-0.323071	0.044011	0.500042
H117	H	-0.771186	-0.404361	0.000043
H118	H	-0.271186	0.095639	0.500043
O119	O	-1.099633	-0.004002	-0.400166
O120	O	-0.599633	0.495998	0.099834
H121	H	-1.138949	-0.043310	-0.449660
H122	H	-0.638949	0.456690	0.050340
