data_functionalizedCrystal
_audit_creation_method	'MofGen! by Chris Wilmer'
_symmetry_space_group_name_H-M	'P1'
_symmetry_Int_Tables_number	1
_symmetry_cell_setting	triclinic
loop_
_symmetry_equiv_pos_as_xyz
  x,y,z
_cell_length_a	16.959454
_cell_length_b	11.169417
_cell_length_c	11.169409
_cell_angle_alpha	90.022388
_cell_angle_beta	89.967114
_cell_angle_gamma	89.981703
loop_
_atom_site_label
_atom_site_type_symbol
_atom_site_fract_x
_atom_site_fract_y
_atom_site_fract_z
Zn1	Zn	-0.314655	-1.834890	-0.678596
Zn2	Zn	-0.446862	-1.834743	-0.477911
Zn3	Zn	-0.314697	-1.634173	-0.477924
Zn4	Zn	-0.446792	-1.634149	-0.678549
O5	O	-0.380752	-1.734489	-0.578245
O6	O	-0.332205	-2.002820	-0.651989
O7	O	-0.429377	-1.808085	-0.309963
O8	O	-0.204081	-1.660870	-0.504569
O9	O	-0.429336	-2.002712	-0.504546
O10	O	-0.204050	-1.808336	-0.652002
O11	O	-0.332276	-1.660728	-0.309972
O12	O	-0.332208	-1.466220	-0.504523
O13	O	-0.429217	-1.660829	-0.846505
O14	O	-0.429257	-1.466203	-0.651922
O15	O	-0.332137	-1.808313	-0.846540
O16	O	-0.557464	-1.808062	-0.504501
O17	O	-0.557412	-1.660687	-0.651909
C18	C	-0.380730	-1.422664	-0.578220
C19	C	-0.380740	-1.289264	-0.578237
C20	C	-0.586118	-1.734388	-0.578225
C21	C	-0.673975	-1.734455	-0.578256
C22	C	-1.045453	-1.657862	-0.654992
C23	C	-1.045447	-1.811450	-0.501620
C24	C	-0.962901	-1.811408	-0.501609
C25	C	-0.921627	-1.734591	-0.578289
C26	C	-0.962900	-1.657815	-0.654981
C27	C	-0.921623	-1.888173	-0.424910
C28	C	-0.839072	-1.888134	-0.424895
C29	C	-0.797797	-1.811321	-0.501583
C30	C	-0.839074	-1.734544	-0.578278
C31	C	-0.797800	-1.657726	-0.654959
C32	C	-0.839076	-1.580954	-0.731661
C33	C	-0.921624	-1.581003	-0.731669
C34	C	-0.715248	-1.811272	-0.501576
C35	C	-0.715247	-1.657679	-0.654948
C36	C	-0.174583	-1.734622	-0.578292
C37	C	-0.086727	-1.734679	-0.578312
C38	C	-0.380664	-1.734585	-0.891288
C39	C	-0.380627	-1.734626	-1.024688
C40	C	-0.380766	-1.047531	-0.578263
C41	C	-0.380753	-1.180931	-0.578251
C42	C	-0.380782	-1.734462	-0.266420
C43	C	-0.380597	-1.734653	-0.133021
H44	H	-0.681647	-1.595129	-0.717395
H45	H	-0.805470	-1.950646	-0.362442
H46	H	-0.955238	-1.518497	-0.794114
N47	N	-0.670724	-1.894060	-0.418859
H48	H	-0.685133	-1.875465	-0.333092
H49	H	-0.685060	-1.979780	-0.437672
N50	N	-0.966150	-1.971012	-0.342216
H51	H	-0.951740	-2.056750	-0.360922
H52	H	-0.951822	-1.952302	-0.256474
N53	N	-0.794550	-1.498097	-0.814352
H54	H	-0.760248	-1.546825	-0.870001
H55	H	-0.833266	-1.449482	-0.862867
N56	N	-1.089964	-1.575063	-0.737722
H57	H	-1.148522	-1.586746	-0.726100
H58	H	-1.075583	-1.489349	-0.718960
H59	H	-1.079057	-1.873984	-0.439183
