data_functionalizedCrystal
_audit_creation_method	'MofGen! by Chris Wilmer'
_symmetry_space_group_name_H-M	'P1'
_symmetry_Int_Tables_number	1
_symmetry_cell_setting	triclinic
loop_
_symmetry_equiv_pos_as_xyz
  x,y,z
_cell_length_a	15.297621
_cell_length_b	12.759400
_cell_length_c	12.759393
_cell_angle_alpha	90.030896
_cell_angle_beta	99.690192
_cell_angle_gamma	80.324505
loop_
_atom_site_label
_atom_site_type_symbol
_atom_site_fract_x
_atom_site_fract_y
_atom_site_fract_z
Zn1	Zn	-1.379262	0.696592	-0.871659
Zn2	Zn	-1.379152	0.872289	-0.695959
Zn3	Zn	-1.228388	0.666195	-0.665625
Zn4	Zn	-1.228360	0.841772	-0.841243
O5	O	-1.303791	0.769212	-0.768622
O6	O	-1.505496	0.745392	-0.873776
O7	O	-1.359119	0.845000	-0.544907
O8	O	-1.248460	0.523218	-0.692990
O9	O	-1.505415	0.874476	-0.744691
O10	O	-1.359306	0.545551	-0.844362
O11	O	-1.248354	0.693584	-0.522621
O12	O	-1.102136	0.663993	-0.663497
O13	O	-1.248411	0.822464	-0.992306
O14	O	-1.102115	0.792988	-0.792523
O15	O	-1.359278	0.715801	-1.014652
O16	O	-1.359091	1.015250	-0.715197
O17	O	-1.248305	0.992830	-0.821937
C18	C	-1.069391	0.721881	-0.721418
C19	C	-0.969114	0.701658	-0.701249
C20	C	-0.921992	0.624880	-0.624699
C21	C	-0.827777	0.605877	-0.605747
C22	C	-0.780673	0.663644	-0.663349
C23	C	-0.827795	0.740418	-0.739906
C24	C	-0.922020	0.759429	-0.758854
C25	C	-0.780701	0.798193	-0.797504
C26	C	-0.827823	0.874967	-0.874061
C27	C	-0.922039	0.893973	-0.893007
C28	C	-0.969142	0.836207	-0.835404
C29	C	-0.686477	0.779182	-0.778556
C30	C	-0.686505	0.913730	-0.912712
C31	C	-0.780720	0.932733	-0.931664
C32	C	-1.303708	1.042163	-0.768586
C33	C	-1.303754	1.158949	-0.768623
C34	C	-0.539106	0.816722	-0.815999
C35	C	-0.639383	0.836953	-0.836161
C36	C	-1.246049	1.202171	-0.824143
C37	C	-1.246084	1.311902	-0.824156
C38	C	-1.361538	1.335181	-0.713127
C39	C	-1.361498	1.225451	-0.713108
C40	C	-1.179396	1.188732	-0.888249
C41	C	-1.179431	1.298463	-0.888262
C42	C	-1.303854	0.769119	-1.042668
C43	C	-1.303881	0.769079	-1.159450
C44	C	-1.303870	1.495195	-0.768671
C45	C	-1.303830	1.378410	-0.768655
C46	C	-1.361617	0.713535	-1.225951
C47	C	-1.361639	0.713501	-1.335680
C48	C	-1.246185	0.824565	-1.312395
C49	C	-1.246159	0.824591	-1.202668
C50	C	-1.428277	0.649417	-1.239395
C51	C	-1.428298	0.649384	-1.349124
C52	C	-1.303780	0.769240	-0.495652
C53	C	-1.303928	0.769019	-0.378906
H54	H	-0.960402	0.956497	-0.955336
C55	C	-0.657426	0.721934	-0.594899
C56	C	-0.634694	0.694791	-0.694409
H57	H	-0.625463	0.669825	-0.542950
H58	H	-0.641949	0.789372	-0.576296
H59	H	-0.720284	0.724994	-0.597963
H60	H	-0.571837	0.691738	-0.691348
H61	H	-0.650165	0.627334	-0.713017
C62	C	-1.202166	0.993566	-1.337266
C63	C	-1.182742	0.885589	-1.359902
H64	H	-1.162994	1.031238	-1.366588
H65	H	-1.262771	1.021168	-1.367459
H66	H	-1.193889	1.001518	-1.262397
H67	H	-1.191025	0.877636	-1.434772
H68	H	-1.122122	0.857978	-1.329713
H69	H	-1.494628	0.691978	-1.218718
H70	H	-1.403306	0.567030	-1.378139
C71	C	-1.545554	0.802435	-1.376363
C72	C	-1.522612	0.697845	-1.408333
H73	H	-1.603774	0.832351	-1.412924
H74	H	-1.545546	0.802456	-1.301920
H75	H	-1.502906	0.843434	-1.392580
H76	H	-1.565257	0.656844	-1.392108
H77	H	-1.522627	0.697817	-1.482792
C78	C	-0.837220	0.474791	-0.475053
C79	C	-0.775983	0.521485	-0.521606
H80	H	-0.805242	0.422683	-0.423111
H81	H	-0.873937	0.527924	-0.442170
H82	H	-0.874002	0.442082	-0.528307
H83	H	-0.739206	0.554201	-0.468353
H84	H	-0.739251	0.468343	-0.554489
H85	H	-1.045860	0.851673	-0.850832
C86	C	-1.066417	0.594293	-0.594189
C87	C	-0.973768	0.561390	-0.561389
H88	H	-1.098380	0.555088	-0.555103
H89	H	-1.081823	0.667966	-0.581787
H90	H	-1.081883	0.582120	-0.667920
H91	H	-0.958301	0.573570	-0.487659
H92	H	-0.958357	0.487700	-0.573782
C93	C	-0.886747	0.968883	-1.094273
C94	C	-0.832525	1.017127	-1.015808
H95	H	-0.918733	1.020987	-1.146215
H96	H	-0.850019	0.915761	-1.127155
H97	H	-0.928272	0.937198	-1.062663
H98	H	-0.790995	1.048806	-1.047417
H99	H	-0.869256	1.070268	-0.982923
H100	H	-1.409593	0.564282	-1.205877
H101	H	-0.703959	0.648166	-0.647914
C102	C	-1.289373	1.103059	-0.996407
C103	C	-1.213116	1.149491	-0.999408
H104	H	-1.310194	1.078840	-1.065034
H105	H	-1.274313	1.044629	-0.946869
H106	H	-1.335335	1.154227	-0.975298
H107	H	-1.167152	1.098320	-1.020509
H108	H	-1.228173	1.207927	-1.048962
C109	C	-1.019673	1.278399	-0.881584
C110	C	-1.089859	1.326440	-0.830814
H111	H	-0.964378	1.295678	-0.846120
H112	H	-1.016604	1.203439	-0.879613
H113	H	-1.030431	1.303516	-0.953450
H114	H	-1.079103	1.301318	-0.758950
H115	H	-1.092927	1.401416	-0.832775
C116	C	-0.542089	0.944326	-0.943248
C117	C	-0.634738	0.977230	-0.976039
H118	H	-0.510128	0.983523	-0.982345
H119	H	-0.526617	0.956499	-0.869528
H120	H	-0.526686	0.870642	-0.955650
H121	H	-0.650142	1.050913	-0.963630
H122	H	-0.650216	0.965067	-1.049776
C123	C	-1.475618	1.259487	-0.603361
C124	C	-1.424926	1.177940	-0.652075
H125	H	-1.514781	1.230154	-0.565686
H126	H	-1.436342	1.294414	-0.555236
H127	H	-1.510123	1.309189	-0.656129
H128	H	-1.390416	1.128242	-0.599306
H129	H	-1.464207	1.142996	-0.700204
H130	H	-1.408550	1.389340	-0.667930
H131	H	-1.109521	1.144933	-0.852320
C132	C	-1.282840	1.420369	-1.012468
C133	C	-1.204668	1.343684	-1.003207
H134	H	-1.298416	1.448291	-1.083425
H135	H	-1.330650	1.388630	-0.995109
H136	H	-1.272463	1.476204	-0.965159
H137	H	-1.215047	1.287845	-1.050510
H138	H	-1.156847	1.375423	-1.020578
C139	C	-1.233513	0.963394	-1.076696
C140	C	-1.182684	0.885636	-1.129570
H141	H	-1.194320	1.001074	-1.031564
H142	H	-1.272802	1.011507	-1.127400
H143	H	-1.267878	0.930329	-1.035249
H144	H	-1.148323	0.918701	-1.171022
H145	H	-1.143379	0.837515	-1.078858
