data_functionalizedCrystal
_audit_creation_method	'MofGen! by Chris Wilmer'
_symmetry_space_group_name_H-M	'P1'
_symmetry_Int_Tables_number	1
_symmetry_cell_setting	triclinic
loop_
_symmetry_equiv_pos_as_xyz
  x,y,z
_cell_length_a	19.805407
_cell_length_b	12.759400
_cell_length_c	19.805398
_cell_angle_alpha	89.979545
_cell_angle_beta	89.984135
_cell_angle_gamma	90.013166
loop_
_atom_site_label
_atom_site_type_symbol
_atom_site_fract_x
_atom_site_fract_y
_atom_site_fract_z
Zn1	Zn	1.034773	-0.418308	-0.382745
Zn2	Zn	1.034722	-0.593996	-0.269568
Zn3	Zn	0.921595	-0.418332	-0.269570
Zn4	Zn	0.921578	-0.593945	-0.382715
O5	O	0.978167	-0.506145	-0.326149
O6	O	1.129483	-0.441625	-0.367744
O7	O	1.019701	-0.570725	-0.174852
O8	O	0.936637	-0.271308	-0.284597
O9	O	1.129445	-0.570702	-0.284593
O10	O	1.019789	-0.271290	-0.367746
O11	O	0.936587	-0.441665	-0.174853
O12	O	0.826876	-0.441616	-0.284567
O13	O	0.936607	-0.570615	-0.477435
O14	O	0.826863	-0.570639	-0.367694
O15	O	1.019772	-0.441575	-0.477458
O16	O	1.019684	-0.741010	-0.284563
O17	O	0.936557	-0.740973	-0.367692
C18	C	0.802311	-0.506125	-0.326128
C19	C	0.727079	-0.506142	-0.326134
C20	C	0.691746	-0.573425	-0.369348
C21	C	0.621057	-0.573427	-0.369358
C22	C	0.585703	-0.506150	-0.326149
C23	C	0.621041	-0.438859	-0.282933
C24	C	0.691729	-0.438853	-0.282928
C25	C	0.335968	-0.438883	-0.282956
C26	C	0.265276	-0.438896	-0.282963
C27	C	0.265297	-0.573456	-0.369386
C28	C	0.335984	-0.573450	-0.369380
C29	C	0.371316	-0.506156	-0.326167
C30	C	0.447964	-0.506154	-0.326158
C31	C	0.509056	-0.506157	-0.326154
C32	C	0.978131	-0.779113	-0.326139
C33	C	0.978178	-0.895889	-0.326157
C34	C	1.021453	-0.950662	-0.369488
C35	C	1.021485	-1.060386	-0.369505
C36	C	0.934964	-1.060554	-0.282853
C37	C	0.934930	-0.950832	-0.282840
C38	C	1.064702	-0.895719	-0.412805
C39	C	1.107981	-0.950493	-0.456139
C40	C	1.108013	-1.060217	-0.456156
C41	C	1.064765	-1.115167	-0.412838
C42	C	1.154710	-0.506166	-0.326172
C43	C	1.229942	-0.506175	-0.326181
C44	C	0.978193	-0.506087	-0.502692
C45	C	0.978205	-0.506062	-0.577924
C46	C	0.978221	-0.232112	-0.326175
C47	C	0.978244	-0.115335	-0.326186
C48	C	1.021590	-0.438685	-1.039728
C49	C	1.021579	-0.438717	-0.969040
C50	C	0.978274	-0.505916	-0.933686
C51	C	0.934981	-0.573095	-0.969025
C52	C	0.934996	-0.573067	-1.039712
C53	C	0.934923	-0.573209	-0.683951
C54	C	0.934910	-0.573229	-0.613259
C55	C	1.021506	-0.438859	-0.613279
C56	C	1.021521	-0.438831	-0.683966
C57	C	0.978231	-0.506013	-0.719299
C58	C	0.978244	-0.505979	-0.795947
C59	C	0.978257	-0.505946	-0.857039
C60	C	0.978179	-0.506127	-0.150293
C61	C	0.978299	-0.505856	-0.075062
H62	H	0.720526	-0.628213	-0.404532
F63	F	1.067616	-0.367316	-0.721589
H64	H	0.899745	-0.627766	-1.068479
H65	H	0.592292	-0.628217	-0.404547
H66	H	0.364766	-0.628237	-0.404563
H67	H	0.592251	-0.384077	-0.247755
F68	F	0.888873	-0.892535	-0.236720
H69	H	0.236521	-0.628247	-0.404575
F70	F	0.227651	-0.367286	-0.236973
H71	H	0.364727	-0.384096	-0.247764
F72	F	1.154000	-0.892009	-0.502245
F73	F	1.067676	-0.367152	-1.077348
H74	H	1.143247	-1.104810	-0.491446
H75	H	1.056757	-0.384159	-0.584503
H76	H	0.720496	-0.384059	-0.247742
F77	F	1.067656	-0.367225	-0.931438
H78	H	0.899641	-0.627950	-0.584476
H79	H	1.064683	-0.806376	-0.412795
F80	F	0.888852	-0.644714	-0.721545
H81	H	0.899725	-0.627814	-0.940234
H82	H	1.064786	-1.204512	-0.412863
H83	H	0.899754	-1.105304	-0.247585
