data_functionalizedCrystal
_audit_creation_method	'MofGen! by Chris Wilmer'
_symmetry_space_group_name_H-M	'P1'
_symmetry_Int_Tables_number	1
_symmetry_cell_setting	triclinic
loop_
_symmetry_equiv_pos_as_xyz
  x,y,z
_cell_length_a	14.519731
_cell_length_b	14.519709
_cell_length_c	11.892113
_cell_angle_alpha	94.362140
_cell_angle_beta	94.361005
_cell_angle_gamma	83.684499
loop_
_atom_site_label
_atom_site_type_symbol
_atom_site_fract_x
_atom_site_fract_y
_atom_site_fract_z
O1	O	1.229124	0.126254	0.094009
O2	O	0.960650	0.140470	0.094011
O3	O	1.102005	-0.000877	0.094000
O4	O	1.087770	0.267600	0.094020
O5	O	1.091455	-0.011419	-0.094008
O6	O	0.950101	0.129928	-0.093997
O7	O	1.218575	0.115712	-0.093999
Zn8	Zn	1.082663	0.121146	-0.123849
Zn9	Zn	1.096562	0.135036	0.123860
O10	O	1.077220	0.257058	-0.093988
C11	C	0.921016	0.134533	0.000007
C12	C	0.818636	0.132537	0.000007
C13	C	0.735492	0.130915	0.000012
C14	C	0.631183	0.128889	0.000012
C15	C	0.548044	0.127280	0.000012
C16	C	0.443729	0.125254	0.000014
C17	C	1.096067	-0.040507	-0.000005
C18	C	1.094078	-0.142889	-0.000005
C19	C	1.086761	-0.517784	0.000024
C20	C	1.088793	-0.413476	0.000016
C21	C	1.090419	-0.330340	0.000008
C22	C	1.092452	-0.226025	0.000002
C23	C	1.258209	0.121649	0.000007
C24	C	1.360590	0.123646	0.000014
C25	C	1.083159	0.296689	0.000019
C26	C	1.085147	0.399071	0.000027
N27	N	1.073183	0.111666	-0.292903
C28	C	1.172002	0.210520	-0.529545
C29	C	1.165384	0.203886	-0.647887
C30	C	1.053332	0.091759	-0.647932
C31	C	1.059951	0.098393	-0.529590
C32	C	1.119287	0.157777	-0.470400
C33	C	1.125900	0.164415	-0.352056
C34	C	1.013854	0.052284	-0.352103
C35	C	1.007235	0.045650	-0.470445
N36	N	1.106049	0.144508	0.292915
H37	H	1.174211	0.212772	-0.303866
H38	H	0.970925	0.009342	-0.303935
C39	C	1.237267	0.275846	-0.464434
N40	N	1.286427	0.325049	-0.415394
C41	C	1.223364	0.261918	-0.712942
N42	N	1.267035	0.305634	-0.761941
C43	C	0.988068	0.026442	-0.713061
N44	N	0.938909	-0.022754	-0.762118
H45	H	0.958929	-0.002701	-0.518654
