data_functionalizedCrystal
_audit_creation_method	'MofGen! by Chris Wilmer'
_symmetry_space_group_name_H-M	'P1'
_symmetry_Int_Tables_number	1
_symmetry_cell_setting	triclinic
loop_
_symmetry_equiv_pos_as_xyz
  x,y,z
_cell_length_a	21.395362
_cell_length_b	12.645330
_cell_length_c	21.395355
_cell_angle_alpha	90.012330
_cell_angle_beta	90.043940
_cell_angle_gamma	90.033572
loop_
_atom_site_label
_atom_site_type_symbol
_atom_site_fract_x
_atom_site_fract_y
_atom_site_fract_z
Zn1	Zn	0.957916	-0.421713	0.354613
Zn2	Zn	1.457916	0.078287	0.854613
Zn3	Zn	0.957842	-0.598962	0.249846
Zn4	Zn	1.457842	-0.098962	0.749846
Zn5	Zn	0.853131	-0.421762	0.249814
Zn6	Zn	1.353131	0.078238	0.749814
Zn7	Zn	0.853124	-0.598984	0.354551
Zn8	Zn	1.353124	-0.098984	0.854551
O9	O	0.905503	-0.510355	0.302206
O10	O	1.405503	-0.010355	0.802206
O11	O	1.045584	-0.445196	0.340754
O12	O	1.545584	0.054804	0.840754
O13	O	0.943924	-0.575468	0.162164
O14	O	1.443924	-0.075468	0.662164
O15	O	0.867065	-0.273408	0.263728
O16	O	1.367065	0.226592	0.763728
O17	O	1.045530	-0.575420	0.263783
O18	O	1.545530	-0.075420	0.763783
O19	O	0.944050	-0.273372	0.340723
O20	O	1.444050	0.226628	0.840723
O21	O	0.866993	-0.445280	0.162140
O22	O	1.366993	0.054720	0.662140
O23	O	0.765452	-0.445301	0.263668
O24	O	1.265452	0.054699	0.763668
O25	O	0.867053	-0.575457	0.442237
O26	O	1.367053	-0.075457	0.942237
O27	O	0.765447	-0.575505	0.340618
O28	O	1.265447	-0.075505	0.840618
O29	O	0.944043	-0.445217	0.442282
O30	O	1.444043	0.054783	0.942282
O31	O	0.943918	-0.747312	0.263724
O32	O	1.443918	-0.247312	0.763724
O33	O	0.866981	-0.747328	0.340650
O34	O	1.366981	-0.247328	0.840650
C35	C	0.742716	-0.510411	0.302133
C36	C	1.242716	-0.010411	0.802133
C37	C	0.673074	-0.510461	0.302117
C38	C	1.173074	-0.010461	0.802117
C39	C	0.640375	-0.578348	0.342125
C40	C	1.140375	-0.078348	0.842125
C41	C	0.574940	-0.578322	0.342153
C42	C	1.074940	-0.078322	0.842153
C43	C	0.542206	-0.510420	0.302162
C44	C	1.042206	-0.010420	0.802162
C45	C	0.574913	-0.442520	0.262151
C46	C	1.074913	0.057480	0.762151
C47	C	0.640348	-0.442540	0.262129
C48	C	1.140348	0.057460	0.762129
C49	C	0.438480	-0.501880	0.245756
C50	C	0.938480	-0.001880	0.745756
C51	C	0.373047	-0.501867	0.245777
C52	C	0.873047	-0.001867	0.745777
C53	C	0.340386	-0.510351	0.302231
C54	C	0.840386	-0.010351	0.802231
C55	C	0.373165	-0.518870	0.358665
C56	C	0.873165	-0.018870	0.858665
C57	C	0.438599	-0.518890	0.358643
C58	C	0.938599	-0.018890	0.858643
C59	C	0.471254	-0.510390	0.302182
C60	C	0.971254	-0.010390	0.802182
C61	C	0.236734	-0.578213	0.342272
C62	C	0.736734	-0.078213	0.842272
C63	C	0.171297	-0.578180	0.342301
C64	C	0.671297	-0.078180	0.842301
C65	C	0.171272	-0.442383	0.262294
C66	C	0.671272	0.057617	0.762294
C67	C	0.236707	-0.442411	0.262271
C68	C	0.736707	0.057589	0.762271
C69	C	0.269434	-0.510332	0.302259
C70	C	0.769434	-0.010332	0.802259
C71	C	0.905458	-0.785785	0.302197
C72	C	1.405458	-0.285785	0.802197
C73	C	0.905495	-0.903615	0.302214
C74	C	1.405495	-0.403615	0.802214
C75	C	0.857295	-1.071233	0.350758
C76	C	1.357295	-0.571233	0.850758
C77	C	0.857048	-0.948674	0.350602
C78	C	1.357048	-0.448674	0.850602
C79	C	0.887617	-0.948193	0.236177
C80	C	1.387617	-0.448193	0.736177
C81	C	0.887323	-1.070792	0.236472
C82	C	1.387323	-0.570792	0.736472
C83	C	0.971870	-1.070679	0.319173
C84	C	1.471870	-0.570679	0.819173
C85	C	0.971463	-0.948073	0.320616
C86	C	1.471463	-0.448073	0.820616
C87	C	1.068927	-0.510300	0.302279
C88	C	1.568927	-0.010300	0.802279
C89	C	1.138568	-0.510276	0.302311
C90	C	1.638568	-0.010276	0.802311
C91	C	0.905555	-0.510334	0.465629
C92	C	1.405555	-0.010334	0.965629
C93	C	0.905578	-0.510325	0.535271
C94	C	1.405578	-0.010325	1.035271
C95	C	0.905566	-0.233850	0.302228
C96	C	1.405566	0.266150	0.802228
C97	C	0.905593	-0.116020	0.302238
C98	C	1.405593	0.383980	0.802238
C99	C	0.905488	-0.510300	0.139418
C100	C	1.405488	-0.010300	0.639418
C101	C	0.905587	-0.510011	0.069778
C102	C	1.405587	-0.010011	0.569778
C103	C	0.945665	-0.442506	0.568008
C104	C	1.445665	0.057494	1.068008
C105	C	0.945664	-0.442460	0.633444
C106	C	1.445664	0.057540	1.133444
C107	C	0.905582	-0.510252	0.666139
C108	C	1.405582	-0.010252	1.166139
C109	C	0.865488	-0.578076	0.633393
C110	C	1.365488	-0.078076	1.133393
C111	C	0.865485	-0.578112	0.567959
C112	C	1.365485	-0.078112	1.067959
C113	C	0.900619	-0.605707	0.769809
C114	C	1.400619	-0.105707	1.269809
C115	C	0.900626	-0.605673	0.835242
C116	C	1.400626	-0.105673	1.335242
C117	C	0.905586	-0.510140	0.867960
C118	C	1.405586	-0.010140	1.367960
C119	C	0.910553	-0.414639	0.835237
C120	C	1.410553	0.085361	1.335237
C121	C	0.910550	-0.414676	0.769803
C122	C	1.410550	0.085324	1.269803
C123	C	0.905580	-0.510220	0.737091
C124	C	1.405580	-0.010220	1.237091
C125	C	0.945675	-0.442266	0.971650
C126	C	1.445675	0.057734	1.471650
C127	C	0.945669	-0.442219	1.037087
C128	C	1.445669	0.057781	1.537087
C129	C	0.865496	-0.577844	1.037035
C130	C	1.365496	-0.077844	1.537035
C131	C	0.865498	-0.577882	0.971600
C132	C	1.365498	-0.077882	1.471600
C133	C	0.905591	-0.510095	0.938911
C134	C	1.405591	-0.010095	1.438911
H135	H	0.548311	-0.633603	0.374734
H136	H	1.048311	-0.133603	0.874734
C137	C	0.989693	-0.908663	0.386260
C138	C	1.489693	-0.408663	0.886260
N139	N	1.003427	-0.878960	0.435698
N140	N	1.503427	-0.378960	0.935698
H141	H	0.832851	-0.633270	0.660018
H142	H	1.332851	-0.133270	1.160018
H143	H	0.920975	-1.100419	0.199087
H144	H	1.420975	-0.600419	0.699087
C145	C	1.020483	-1.109807	0.271435
C146	C	1.520483	-0.609807	0.771435
N147	N	1.057094	-1.139285	0.235478
N148	N	1.557094	-0.639285	0.735478
H149	H	0.144621	-0.387091	0.229735
H150	H	0.644621	0.112909	0.729735
C151	C	0.989759	-0.367923	0.532055
C152	C	1.489759	0.132077	1.032055
N153	N	1.022969	-0.311742	0.504973
N154	N	1.522969	0.188258	1.004973
C155	C	0.474653	-0.528260	0.420719
C156	C	0.974653	-0.028260	0.920719
N157	N	0.501810	-0.535316	0.467476
N158	N	1.001810	-0.035316	0.967476
C159	C	0.989768	-0.367857	0.669462
C160	C	1.489768	0.132143	1.169462
N161	N	1.022990	-0.311669	0.696590
N162	N	1.522990	0.188331	1.196590
C163	C	0.538905	-0.367827	0.218161
C164	C	1.038905	0.132173	0.718161
N165	N	0.511784	-0.311564	0.185027
N166	N	1.011784	0.188436	0.685027
H167	H	0.978312	-0.386986	1.063741
H168	H	1.478312	0.113014	1.563741
C169	C	0.993899	-1.112354	0.383125
C170	C	1.493899	-0.612354	0.883125
N171	N	1.010485	-1.143743	0.431297
N172	N	1.510485	-0.643743	0.931297
H173	H	0.346573	-0.525777	0.404635
H174	H	0.846573	-0.025777	0.904635
H175	H	0.838874	-1.099500	0.222129
H176	H	1.338874	-0.599500	0.722129
C177	C	0.821407	-0.652418	1.072996
C178	C	1.321407	-0.152418	1.572996
N179	N	0.788197	-0.708588	1.100085
N180	N	1.288197	-0.208588	1.600085
C181	C	0.272735	-0.652915	0.386267
C182	C	0.772735	-0.152915	0.886267
N183	N	0.299850	-0.709178	0.419406
N184	N	0.799850	-0.209178	0.919406
C185	C	0.821401	-0.652494	0.935587
C186	C	1.321401	-0.152494	1.435587
N187	N	0.788184	-0.708693	0.908462
N188	N	1.288184	-0.208693	1.408462
C189	C	0.872157	-0.907952	0.416753
C190	C	1.372157	-0.407952	0.916753
N191	N	0.883536	-0.877285	0.466581
N192	N	1.383536	-0.377285	0.966581
H193	H	0.896586	-0.683435	0.861880
H194	H	1.396586	-0.183435	1.361880
C195	C	0.336997	-0.492488	0.183699
C196	C	0.836997	0.007512	0.683699
N197	N	0.309845	-0.485418	0.136941
N198	N	0.809845	0.014582	0.636941
H199	H	0.914593	-0.336848	0.861874
H200	H	1.414593	0.163152	1.361874
H201	H	1.009343	-0.917393	0.287852
H202	H	1.509343	-0.417393	0.787852
H203	H	0.921680	-0.919005	0.199037
H204	H	1.421680	-0.419005	0.699037
H205	H	0.978317	-0.387064	0.945034
H206	H	1.478317	0.112936	1.445034
H207	H	0.868378	-1.100658	0.399884
H208	H	1.368378	-0.600658	0.899884
H209	H	0.914593	-0.336915	0.743162
H210	H	1.414593	0.163085	1.243162
H211	H	0.839674	-0.917599	0.221575
H212	H	1.339674	-0.417599	0.721575
C213	C	0.895175	-0.710809	0.733826
C214	C	1.395175	-0.210809	1.233826
N215	N	0.891078	-0.789970	0.706724
N216	N	1.391078	-0.289970	1.206724
H217	H	0.832838	-0.633337	0.541305
H218	H	1.332838	-0.133337	1.041305
H219	H	0.465068	-0.494967	0.199781
H220	H	0.965068	0.005033	0.699781
H221	H	0.667017	-0.633653	0.374688
H222	H	1.167017	-0.133653	0.874688
H223	H	0.263332	-0.387135	0.229689
H224	H	0.763332	0.112865	0.729689
C225	C	0.135328	-0.652874	0.386310
C226	C	0.635328	-0.152874	0.886310
N227	N	0.108235	-0.709140	0.419456
N228	N	0.608235	-0.209140	0.919456
H229	H	0.666971	-0.387255	0.229549
H230	H	1.166971	0.112745	0.729549
C231	C	0.790659	-0.909200	0.335488
C232	C	1.290659	-0.409200	0.835488
N233	N	0.740648	-0.879469	0.324120
N234	N	1.240648	-0.379469	0.824120
C235	C	0.791329	-1.112989	0.335788
C236	C	1.291329	-0.612989	0.835788
N237	N	0.741643	-1.144437	0.324509
N238	N	1.241643	-0.644437	0.824509
