data_functionalizedCrystal
_audit_creation_method	'MofGen! by Chris Wilmer'
_symmetry_space_group_name_H-M	'P1'
_symmetry_Int_Tables_number	1
_symmetry_cell_setting	triclinic
loop_
_symmetry_equiv_pos_as_xyz
  x,y,z
_cell_length_a	19.077105
_cell_length_b	17.638516
_cell_length_c	19.076919
_cell_angle_alpha	77.040002
_cell_angle_beta	89.923776
_cell_angle_gamma	99.427581
loop_
_atom_site_label
_atom_site_type_symbol
_atom_site_fract_x
_atom_site_fract_y
_atom_site_fract_z
Zn1	Zn	0.986788	-0.382148	0.506280
Zn2	Zn	0.967670	-0.509156	0.410662
Zn3	Zn	0.875985	-0.371566	0.382249
Zn4	Zn	0.845581	-0.508679	0.523333
O5	O	0.919006	-0.442887	0.455631
O6	O	1.081718	-0.403624	0.498350
O7	O	0.960231	-0.486675	0.307833
O8	O	0.911408	-0.262434	0.379675
O9	O	1.067672	-0.496936	0.428100
O10	O	0.992814	-0.270208	0.470799
O11	O	0.892870	-0.385588	0.286958
O12	O	0.774486	-0.385127	0.396210
O13	O	0.859589	-0.496124	0.620131
O14	O	0.752148	-0.485863	0.499864
O15	O	0.963333	-0.403162	0.607602
O16	O	0.930750	-0.619628	0.444636
O17	O	0.841051	-0.619278	0.527415
C18	C	0.738045	-0.434295	0.446805
C19	C	0.660624	-0.430640	0.443049
C20	C	0.612630	-0.481443	0.495193
C21	C	0.539887	-0.477998	0.491666
C22	C	0.515140	-0.423752	0.435991
C23	C	0.563141	-0.372943	0.383844
C24	C	0.635882	-0.376385	0.387375
C25	C	0.298832	-0.407822	0.419652
C26	C	0.226084	-0.404385	0.416124
C27	C	0.202835	-0.509440	0.523948
C28	C	0.275579	-0.512880	0.527471
C29	C	0.323574	-0.462068	0.475326
N30	N	0.440785	-0.420231	0.432382
N31	N	0.397928	-0.465586	0.478938
C32	C	0.880545	-0.648116	0.490975
C33	C	0.864154	-0.735917	0.506123
C34	C	1.043944	-1.025476	0.340633
C35	C	1.028529	-1.107979	0.354877
C36	C	0.935055	-1.107652	0.440999
C37	C	0.950459	-1.025147	0.426760
C38	C	1.004905	-0.984066	0.376577
C39	C	0.911420	-0.983737	0.462703
C40	C	0.926826	-0.901240	0.448468
C41	C	0.981271	-0.860153	0.398288
C42	C	1.020311	-0.901569	0.362341
C43	C	0.856978	-1.024821	0.512890
C44	C	0.817939	-0.983411	0.548833
C45	C	0.833342	-0.900912	0.534594
C46	C	0.887787	-0.859824	0.484415
C47	C	0.794302	-0.859496	0.570542
C48	C	0.809708	-0.776999	0.556306
C49	C	0.903192	-0.777327	0.470179
C50	C	1.100673	-0.451513	0.464492
C51	C	1.178089	-0.455189	0.468269
C52	C	0.910202	-0.450770	0.640270
C53	C	0.906450	-0.454129	0.718952
C54	C	0.957635	-0.236859	0.420165
C55	C	0.974097	-0.149062	0.405052
C56	C	0.927826	-0.434980	0.271703
C57	C	0.931755	-0.431405	0.192989
C58	C	0.958699	-0.407309	0.749395
C59	C	0.955166	-0.410462	0.823324
C60	C	0.899386	-0.460440	0.866810
C61	C	0.847132	-0.507261	0.836362
C62	C	0.850663	-0.504104	0.762433
C63	C	0.883032	-0.475069	1.088612
C64	C	0.879506	-0.478225	1.162546
C65	C	0.987539	-0.381424	1.149504
C66	C	0.991067	-0.378274	1.075575
C67	C	0.938811	-0.425093	1.045132
N68	N	0.895775	-0.463665	0.942378
N69	N	0.942421	-0.421863	0.969565
H70	H	0.163751	-0.550807	0.566402
H71	H	0.337901	-0.366453	0.377188
Cl72	Cl	0.194974	-0.336191	0.346123
H73	H	0.542986	-0.328772	0.338514
Cl74	Cl	0.696220	-0.312513	0.321820
H75	H	1.064641	-0.868118	0.321471
Cl76	Cl	0.749498	-1.035064	0.611921
H77	H	0.777919	-0.743282	0.585576
Cl78	Cl	0.817338	-0.533928	1.050351
H79	H	1.088274	-0.992025	0.299763
Cl80	Cl	0.809375	-0.541054	1.217212
H81	H	0.947523	-0.743876	0.429309
Cl82	Cl	1.077614	-1.160035	0.309686
Cl83	Cl	0.725866	-0.911152	0.633635
H84	H	1.004122	-0.366614	0.713994
H85	H	0.808111	-0.542222	0.737646
Cl86	Cl	1.020877	-0.351636	0.861600
H87	H	0.801714	-0.547951	0.871773
H88	H	0.890727	-1.141112	0.481860
H89	H	0.993815	-0.792978	0.386700
Cl90	Cl	1.061193	-0.315443	1.020912
H91	H	1.030082	-0.343306	1.174298
H92	H	0.632772	-0.525619	0.540528
H93	H	0.500812	-0.519369	0.534127
Cl94	Cl	0.837335	-1.128506	0.530476
Cl95	Cl	0.306684	-0.581080	0.597464
