data_functionalizedCrystal
_audit_creation_method	'MofGen! by Chris Wilmer'
_symmetry_space_group_name_H-M	'P1'
_symmetry_Int_Tables_number	1
_symmetry_cell_setting	triclinic
loop_
_symmetry_equiv_pos_as_xyz
  x,y,z
_cell_length_a	14.908783
_cell_length_b	14.908178
_cell_length_c	14.908308
_cell_angle_alpha	90.221621
_cell_angle_beta	90.211273
_cell_angle_gamma	96.402596
loop_
_atom_site_label
_atom_site_type_symbol
_atom_site_fract_x
_atom_site_fract_y
_atom_site_fract_z
Zn1	Zn	1.328235	-0.315439	0.568627
Zn2	Zn	1.329145	-0.457100	0.409643
Zn3	Zn	1.186601	-0.314463	0.409657
Zn4	Zn	1.169235	-0.474370	0.550213
O5	O	1.253304	-0.390343	0.484535
O6	O	1.454552	-0.327412	0.555237
O7	O	1.317884	-0.430543	0.284287
O8	O	1.212275	-0.188386	0.438457
O9	O	1.455221	-0.431489	0.438433
O10	O	1.316333	-0.189103	0.555251
O11	O	1.213158	-0.325749	0.284297
O12	O	1.058100	-0.342494	0.420603
O13	O	1.182678	-0.460923	0.678014
O14	O	1.045342	-0.459977	0.523868
O15	O	1.299495	-0.344158	0.691543
O16	O	1.301046	-0.585597	0.420578
O17	O	1.183561	-0.598285	0.523854
C18	C	1.018999	-0.403004	0.470239
C19	C	0.918760	-0.408444	0.464144
C20	C	0.729683	-0.310458	0.574483
C21	C	0.635500	-0.315566	0.568758
C22	C	0.636209	-0.423762	0.446966
C23	C	0.730392	-0.418654	0.452691
C24	C	0.777126	-0.362001	0.516452
C25	C	0.871311	-0.356899	0.522180
C26	C	0.872019	-0.465090	0.400385
C27	C	0.777835	-0.470197	0.394660
C28	C	1.240541	-0.624665	0.470237
C29	C	1.235162	-0.724907	0.464156
C30	C	1.333314	-0.913880	0.574463
C31	C	1.328262	-1.008065	0.568752
C32	C	1.220003	-1.007466	0.447028
C33	C	1.225054	-0.913280	0.452739
C34	C	1.281713	-0.866490	0.516458
C35	C	1.286768	-0.772302	0.522164
C36	C	1.178505	-0.771705	0.400444
C37	C	1.173453	-0.865891	0.394733
C38	C	1.488523	-0.377633	0.498887
C39	C	1.588759	-0.372217	0.505003
C40	C	1.239048	-0.404576	0.718191
C41	C	1.232973	-0.410641	0.817762
C42	C	1.266140	-0.155106	0.498910
C43	C	1.271610	-0.054862	0.505035
C44	C	1.267560	-0.376098	0.251795
C45	C	1.273823	-0.369770	0.152251
C46	C	1.343196	-0.300429	1.018955
C47	C	1.337491	-0.306124	1.112510
C48	C	1.215854	-0.427722	1.098430
C49	C	1.221559	-0.422026	1.004875
C50	C	1.285233	-0.358379	0.965140
C51	C	1.290942	-0.352688	0.871583
C52	C	1.169301	-0.474281	0.857505
C53	C	1.163596	-0.479976	0.951060
H54	H	0.596876	-0.273592	0.616011
H55	H	1.332905	-0.734207	0.574044
H56	H	0.739772	-0.516320	0.342745
H57	H	1.173870	-1.045579	0.395155
O58	O	0.918247	-0.515074	0.344053
C59	C	1.011396	-0.498442	0.362794
H60	H	1.026257	-0.429979	0.397264
H61	H	1.032309	-0.553458	0.408778
C62	C	1.046568	-0.582526	0.232251
C63	C	1.064822	-0.498435	0.274580
H64	H	1.079525	-0.582525	0.177838
H65	H	0.983812	-0.593734	0.219626
H66	H	1.063996	-0.628363	0.270580
H67	H	1.047383	-0.452601	0.236256
H68	H	1.127576	-0.487219	0.287197
H69	H	1.122105	-0.521470	0.813679
H70	H	1.379454	-0.875782	0.626340
H71	H	0.598143	-0.469875	0.395046
O72	O	1.378476	-1.053958	0.625142
C73	C	1.429543	-0.992461	0.682621
H74	H	1.438541	-0.922930	0.650193
H75	H	1.392840	-0.988374	0.749213
C76	C	1.511697	-1.110129	0.739089
C77	C	1.522756	-1.024732	0.699256
H78	H	1.569193	-1.130036	0.749354
H79	H	1.477290	-1.151562	0.700367
H80	H	1.481108	-1.106713	0.794578
H81	H	1.553333	-1.028152	0.643764
H82	H	1.557170	-0.983300	0.737969
H83	H	0.909360	-0.310770	0.574099
O84	O	1.118364	-0.911456	0.332954
C85	C	1.054023	-0.972208	0.377040
H86	H	1.080866	-0.988679	0.446044
H87	H	0.988530	-0.940176	0.384937
C88	C	1.002981	-1.039358	0.236566
C89	C	1.035953	-1.059594	0.321314
H90	H	0.991831	-1.093261	0.202191
H91	H	1.046326	-0.998426	0.206864
H92	H	0.948407	-1.012663	0.243159
H93	H	1.090531	-1.086278	0.314721
H94	H	0.992616	-1.100533	0.351015
H95	H	1.136491	-0.733110	0.353210
O96	O	1.405074	-0.238531	0.980497
C97	C	1.455032	-0.188623	1.048057
H98	H	1.414199	-0.191553	1.112686
H99	H	1.521113	-0.218556	1.060166
C100	C	1.525648	-0.086112	0.938819
C101	C	1.475493	-0.089705	1.018196
H102	H	1.538274	-0.025096	0.920399
H103	H	1.491993	-0.119738	0.893301
H104	H	1.580710	-0.111062	0.948921
H105	H	1.420428	-0.064766	1.008090
H106	H	1.509140	-0.056072	1.063711
O107	O	1.393671	-0.249745	1.164823
C108	C	1.342201	-0.197583	1.219380
H109	H	1.273196	-0.194141	1.187195
H110	H	1.333254	-0.229950	1.288393
C111	C	1.476032	-0.105756	1.268755
C112	C	1.391282	-0.101523	1.229222
H113	H	1.506308	-0.046502	1.274831
H114	H	1.510710	-0.140900	1.232002
H115	H	1.468564	-0.132732	1.326262
H116	H	1.398752	-0.074557	1.171712
H117	H	1.356607	-0.066371	1.265966
O118	O	1.101869	-0.541892	0.989705
C119	C	1.146737	-0.600641	1.043416
H120	H	1.219180	-0.600652	1.019215
H121	H	1.147038	-0.576902	1.116212
C122	C	1.008509	-0.696857	1.066168
C123	C	1.097483	-0.696876	1.036439
H124	H	0.978125	-0.756219	1.061868
H125	H	0.978279	-0.657275	1.029984
H126	H	1.008772	-0.677070	1.126828
H127	H	1.097219	-0.716652	0.975776
H128	H	1.127712	-0.736464	1.072612
H129	H	0.767734	-0.264333	0.626403
H130	H	1.342790	-0.300864	0.839233
H131	H	1.164013	-0.479540	1.130798
