data_functionalizedCrystal
_audit_creation_method	'MofGen! by Chris Wilmer'
_symmetry_space_group_name_H-M	'P1'
_symmetry_Int_Tables_number	1
_symmetry_cell_setting	triclinic
loop_
_symmetry_equiv_pos_as_xyz
  x,y,z
_cell_length_a	14.971486
_cell_length_b	11.792241
_cell_length_c	13.448316
_cell_angle_alpha	89.993264
_cell_angle_beta	89.998199
_cell_angle_gamma	83.903772
loop_
_atom_site_label
_atom_site_type_symbol
_atom_site_fract_x
_atom_site_fract_y
_atom_site_fract_z
O1	O	1.187540	0.147909	-0.082578
O2	O	0.927211	0.165622	-0.082605
O3	O	1.063693	-0.008446	-0.082584
O4	O	1.051058	0.321977	-0.082599
O5	O	1.063676	-0.008456	0.082800
O6	O	0.927194	0.165611	0.082779
O7	O	1.187523	0.147899	0.082806
Cu8	Cu	1.057357	0.156754	0.097893
Cu9	Cu	1.057377	0.156767	-0.097692
O10	O	1.051041	0.321966	0.082785
C11	C	0.893874	0.164824	0.000084
C12	C	0.794568	0.162451	0.000073
C13	C	0.737752	0.264710	0.000070
C14	C	0.644444	0.262473	0.000085
C15	C	0.607953	0.157975	0.000096
C16	C	0.664776	0.055707	0.000102
C17	C	0.758082	0.057946	0.000095
C18	C	0.470294	0.051049	0.000116
C19	C	0.376981	0.048810	0.000122
C20	C	0.356656	0.255577	0.000107
C21	C	0.449963	0.257815	0.000099
C22	C	0.506779	0.155547	0.000103
C23	C	1.062891	-0.050737	0.000108
C24	C	1.060515	-0.176735	0.000107
C25	C	1.056147	-0.407419	0.000089
C26	C	1.058574	-0.279050	0.000099
C27	C	1.220859	0.148696	0.000115
C28	C	1.320166	0.151070	0.000119
C29	C	1.051843	0.364257	0.000091
C30	C	1.054218	0.490256	0.000086
N31	N	1.057349	0.156744	0.235458
N32	N	1.057392	0.156767	-0.235257
C33	C	1.117802	0.079699	0.287507
C34	C	1.117808	0.079698	0.391611
C35	C	1.057363	0.156749	0.443662
C36	C	0.996904	0.233798	0.391605
C37	C	0.996895	0.233792	0.287504
C38	C	0.996929	0.233805	0.608585
C39	C	0.996939	0.233813	0.712694
C40	C	1.117842	0.079711	0.712692
C41	C	1.117832	0.079706	0.608591
C42	C	1.057374	0.156756	0.556541
H43	H	0.516553	-0.032229	0.000121
H44	H	0.767455	0.349805	0.000060
O45	O	1.176659	0.004820	0.763093
C46	C	1.229997	-0.063198	0.694829
H47	H	1.231217	-0.016664	0.620615
H48	H	1.301346	-0.080350	0.724897
H49	H	1.200559	-0.147582	0.683774
O50	O	1.176330	0.004583	0.558031
C51	C	1.127915	-0.065532	0.498016
H52	H	1.058234	-0.020264	0.482320
H53	H	1.165141	-0.083778	0.424850
H54	H	1.121223	-0.149251	0.538345
O55	O	0.938126	0.308685	0.763104
C56	C	0.884766	0.376697	0.694844
H57	H	0.883536	0.330165	0.620639
H58	H	0.813421	0.393832	0.724932
H59	H	0.914190	0.461088	0.683764
O60	O	0.938323	0.308700	0.557912
C61	C	0.986558	0.378835	0.497697
H62	H	1.056327	0.333773	0.482100
H63	H	0.949307	0.396708	0.424495
H64	H	0.993042	0.462734	0.537803
O65	O	0.301558	0.354995	0.000240
C66	C	0.318164	0.418424	0.085896
H67	H	0.388803	0.390657	0.114447
H68	H	0.312053	0.513076	0.066621
H69	H	0.267063	0.402833	0.145883
O70	O	0.589381	0.361914	0.000036
C71	C	0.641597	0.454626	0.000044
H72	H	0.711087	0.425912	-0.031274
H73	H	0.607525	0.526285	-0.047974
H74	H	0.648403	0.486650	0.079383
O75	O	0.938262	0.308794	0.236984
C76	C	0.953327	0.421182	0.262419
H77	H	1.024942	0.421892	0.291024
H78	H	0.943305	0.478117	0.193949
H79	H	0.903917	0.454418	0.322847
H80	H	0.804341	-0.025325	0.000097
O81	O	0.938062	0.308528	0.442123
C82	C	0.849433	0.289903	0.416685
H83	H	0.848560	0.199029	0.388079
H84	H	0.804615	0.302861	0.485152
H85	H	0.823455	0.352755	0.356255
O86	O	1.176628	0.004826	0.442017
C87	C	1.229968	-0.063189	0.373752
H88	H	1.231183	-0.016657	0.299537
H89	H	1.301320	-0.080330	0.403818
H90	H	1.200537	-0.147578	0.362702
O91	O	1.176377	0.004758	0.236862
C92	C	1.128103	-0.065382	0.176714
H93	H	1.058349	-0.020283	0.161098
H94	H	1.165342	-0.083337	0.103517
H95	H	1.121582	-0.149241	0.216888
H96	H	0.479670	0.342907	0.000080
H97	H	0.635057	-0.029377	0.000126
O98	O	0.341680	-0.052796	0.000179
C99	C	0.411833	-0.142581	0.000164
H100	H	0.475368	-0.110686	0.031471
H101	H	0.391978	-0.215529	0.048186
H102	H	0.424882	-0.174132	-0.079176
