data_functionalizedCrystal
_audit_creation_method	'MofGen! by Chris Wilmer'
_symmetry_space_group_name_H-M	'P1'
_symmetry_Int_Tables_number	1
_symmetry_cell_setting	triclinic
loop_
_symmetry_equiv_pos_as_xyz
  x,y,z
_cell_length_a	18.215407
_cell_length_b	12.759400
_cell_length_c	18.215399
_cell_angle_alpha	90.025837
_cell_angle_beta	90.016824
_cell_angle_gamma	90.013614
loop_
_atom_site_label
_atom_site_type_symbol
_atom_site_fract_x
_atom_site_fract_y
_atom_site_fract_z
Zn1	Zn	1.125110	-0.418240	0.416139
Zn2	Zn	1.125050	-0.593944	0.293082
Zn3	Zn	1.002049	-0.418281	0.293086
Zn4	Zn	1.002034	-0.593878	0.416107
O5	O	1.063561	-0.506086	0.354604
O6	O	1.228086	-0.441557	0.399827
O7	O	1.108715	-0.570687	0.190099
O8	O	1.018405	-0.271255	0.309424
O9	O	1.228042	-0.570647	0.309418
O10	O	1.108817	-0.271224	0.399831
O11	O	1.018347	-0.441628	0.190102
O12	O	0.899063	-0.441565	0.309394
O13	O	1.018379	-0.570534	0.519096
O14	O	0.899051	-0.570575	0.399777
O15	O	1.108802	-0.441493	0.519119
O16	O	1.108700	-0.740957	0.309387
O17	O	1.018321	-0.740908	0.399773
C18	C	0.872354	-0.506068	0.354583
C19	C	0.790556	-0.506085	0.354591
C20	C	1.063522	-0.779053	0.354592
C21	C	1.063573	-0.895830	0.354612
C22	C	0.602375	-0.573367	0.401594
C23	C	0.525516	-0.573370	0.401604
C24	C	0.525498	-0.438824	0.307629
C25	C	0.602356	-0.438816	0.307624
C26	C	0.640792	-0.506094	0.354606
C27	C	0.487076	-0.506105	0.354620
C28	C	0.403742	-0.506108	0.354630
C29	C	0.724131	-0.506089	0.354597
C30	C	1.110627	-0.950596	0.401725
C31	C	1.110661	-1.060320	0.401743
C32	C	1.016585	-1.060502	0.307528
C33	C	1.016548	-0.950780	0.307515
C34	C	1.157652	-0.895646	0.448822
C35	C	1.204711	-0.950413	0.495938
C36	C	1.204745	-1.060137	0.495956
C37	C	1.157721	-1.115094	0.448858
C38	C	1.255514	-0.506105	0.354625
C39	C	1.337312	-0.506113	0.354635
C40	C	1.063595	-0.506002	0.546557
C41	C	1.063610	-0.505966	0.628356
C42	C	1.063620	-0.232053	0.354632
C43	C	1.063645	-0.115276	0.354643
C44	C	1.063568	-0.506094	0.163398
C45	C	1.063696	-0.505833	0.081599
C46	C	1.016595	-0.438720	0.816552
C47	C	1.016608	-0.438699	0.893411
C48	C	1.110713	-0.573087	0.893397
C49	C	1.110696	-0.573113	0.816540
C50	C	1.063638	-0.505923	0.778119
C51	C	1.063668	-0.505876	0.931835
C52	C	1.063682	-0.505854	1.015169
C53	C	1.063623	-0.505947	0.694780
H54	H	0.633668	-0.628146	0.439852
O55	O	1.156350	-0.638495	0.930687
C56	C	1.140256	-0.743212	0.911876
H57	H	1.081457	-0.748524	0.890746
H58	H	1.146600	-0.795100	0.962413
H59	H	1.179695	-0.770690	0.867261
O60	O	0.970764	-0.897523	0.261855
C61	C	0.923201	-0.834048	0.303708
H62	H	0.918631	-0.867075	0.361668
H63	H	0.866580	-0.832876	0.277041
H64	H	0.945930	-0.750869	0.306259
H65	H	0.633636	-0.384028	0.269360
O66	O	1.156292	-0.638510	0.779169
C67	C	1.114367	-0.706360	0.734685
H68	H	1.056411	-0.712838	0.757845
H69	H	1.140968	-0.787216	0.733800
H70	H	1.111823	-0.673893	0.676442
H71	H	0.978301	-1.105257	0.269183
O72	O	0.488312	-0.638821	0.447270
C73	C	0.538721	-0.698175	0.488747
H74	H	0.593495	-0.701755	0.458593
H75	H	0.516507	-0.780968	0.496503
H76	H	0.546923	-0.659799	0.544685
H77	H	0.978278	-0.384010	0.785272
O78	O	0.488046	-0.373575	0.262016
C79	C	0.411971	-0.387986	0.272108
H80	H	0.401472	-0.469111	0.296113
H81	H	0.382742	-0.380762	0.216995
H82	H	0.390183	-0.325742	0.311376
H83	H	1.157631	-0.806303	0.448811
H84	H	1.157744	-1.204439	0.448885
O85	O	0.970808	-0.373466	0.930661
C86	C	0.897452	-0.396446	0.911878
H87	H	0.895912	-0.436854	0.856069
H88	H	0.864468	-0.320620	0.909253
H89	H	0.872659	-0.450444	0.955123
O90	O	1.250362	-0.896870	0.541620
C91	C	1.240231	-0.788282	0.531516
H92	H	1.216159	-0.773373	0.474698
H93	H	1.295339	-0.746523	0.536552
H94	H	1.201004	-0.757141	0.575128
H95	H	1.243056	-1.104725	0.534326
