data_functionalizedCrystal
_audit_creation_method	'MofGen! by Chris Wilmer'
_symmetry_space_group_name_H-M	'P1'
_symmetry_Int_Tables_number	1
_symmetry_cell_setting	triclinic
loop_
_symmetry_equiv_pos_as_xyz
  x,y,z
_cell_length_a	12.759394
_cell_length_b	12.759401
_cell_length_c	12.759393
_cell_angle_alpha	89.981425
_cell_angle_beta	89.967655
_cell_angle_gamma	90.015263
loop_
_atom_site_label
_atom_site_type_symbol
_atom_site_fract_x
_atom_site_fract_y
_atom_site_fract_z
Zn1	Zn	-0.418192	1.606254	-0.593979
Zn2	Zn	0.081808	2.106254	-0.093979
Zn3	Zn	-0.593911	1.606148	-0.418297
Zn4	Zn	-0.093911	2.106148	0.081703
Zn5	Zn	-0.418248	1.430556	-0.418318
Zn6	Zn	0.081752	1.930556	0.081682
Zn7	Zn	-0.593831	1.430544	-0.593938
Zn8	Zn	-0.093831	1.930544	-0.093938
O9	O	-0.506046	1.518376	-0.506133
O10	O	-0.006046	2.018376	-0.006133
O11	O	-0.441512	1.753261	-0.570683
O12	O	0.058488	2.253261	-0.070683
O13	O	-0.570666	1.582816	-0.271279
O14	O	-0.070666	2.082816	0.228721
O15	O	-0.271220	1.453912	-0.441646
O16	O	0.228780	1.953912	0.058354
O17	O	-0.570612	1.753183	-0.441610
O18	O	-0.070612	2.253183	0.058390
O19	O	-0.271178	1.582997	-0.570704
O20	O	0.228822	2.082997	-0.070704
O21	O	-0.441607	1.453809	-0.271295
O22	O	0.058393	1.953809	0.228705
O23	O	-0.441529	1.283533	-0.441607
O24	O	0.058471	1.783533	0.058393
O25	O	-0.570475	1.453892	-0.740965
O26	O	-0.070475	1.953892	-0.240965
O27	O	-0.570529	1.283525	-0.570634
O28	O	-0.070529	1.783525	-0.070634
O29	O	-0.441434	1.582985	-0.740995
O30	O	0.058566	2.082985	-0.240995
O31	O	-0.740922	1.582804	-0.441570
O32	O	-0.240922	2.082804	0.058430
O33	O	-0.740863	1.453789	-0.570613
O34	O	-0.240863	1.953789	-0.070613
C35	C	-0.506027	1.245408	-0.506119
C36	C	-0.006027	1.745408	-0.006119
C37	C	-0.506045	1.128632	-0.506137
C38	C	-0.006045	1.628632	-0.006137
C39	C	-0.438944	1.073811	-0.573449
C40	C	0.061056	1.573811	-0.073449
C41	C	-0.438955	0.964087	-0.573456
C42	C	0.061045	1.464087	-0.073456
C43	C	-0.573176	0.964014	-0.438836
C44	C	-0.073176	1.464014	0.061164
C45	C	-0.573160	1.073736	-0.438825
C46	C	-0.073160	1.573736	0.061175
C47	C	-0.779013	1.518312	-0.506108
C48	C	-0.279013	2.018312	-0.006108
C49	C	-0.895790	1.518382	-0.506132
C50	C	-0.395790	2.018382	-0.006132
C51	C	-0.895798	1.652826	-0.371861
C52	C	-0.395798	2.152826	0.128139
C53	C	-0.950663	1.720076	-0.304737
C54	C	-0.450663	2.220076	0.195263
C55	C	-1.060384	1.720137	-0.304766
C56	C	-0.560384	2.220137	0.195234
C57	C	-1.115243	1.652944	-0.371927
C58	C	-0.615243	2.152944	0.128073
C59	C	-1.060379	1.585695	-0.439051
C60	C	-0.560379	2.085695	0.060949
C61	C	-0.950655	1.585638	-0.439013
C62	C	-0.450655	2.085638	0.060987
C63	C	-1.060371	1.451257	-0.573326
C64	C	-0.560371	1.951257	-0.073326
C65	C	-0.950649	1.451188	-0.573294
C66	C	-0.450649	1.951188	-0.073294
C67	C	-1.115230	1.384064	-0.640487
C68	C	-0.615230	1.884064	-0.140487
C69	C	-1.060365	1.316807	-0.707607
C70	C	-0.560365	1.816807	-0.207607
C71	C	-0.950637	1.316748	-0.707575
C72	C	-0.450637	1.816748	-0.207575
C73	C	-0.895784	1.383939	-0.640417
C74	C	-0.395784	1.883939	-0.140417
C75	C	-0.232012	1.518467	-0.506182
C76	C	0.267988	2.018467	-0.006182
C77	C	-0.115235	1.518507	-0.506203
C78	C	0.384765	2.018507	-0.006203
C79	C	-0.505939	1.518449	-0.780167
C80	C	-0.005939	2.018449	-0.280167
C81	C	-0.505894	1.518480	-0.896944
C82	C	-0.005894	2.018480	-0.396944
C83	C	-0.506064	1.792409	-0.506149
C84	C	-0.006064	2.292409	-0.006149
C85	C	-0.506073	1.909185	-0.506156
C86	C	-0.006073	2.409185	-0.006156
C87	C	-0.438681	1.451331	-0.951813
C88	C	0.061319	1.951331	-0.451813
C89	C	-0.438648	1.451355	-1.061537
C90	C	0.061352	1.951355	-0.561537
C91	C	-0.573046	1.585688	-1.061513
C92	C	-0.073046	2.085688	-0.561513
C93	C	-0.573082	1.585657	-0.951790
C94	C	-0.073082	2.085657	-0.451790
C95	C	-0.506076	1.518363	-0.233166
C96	C	-0.006076	2.018363	0.266834
C97	C	-0.505825	1.518535	-0.116390
C98	C	-0.005825	2.018535	0.383610
H99	H	-0.627802	1.118372	-0.384006
H100	H	-0.127802	1.618372	0.115994
H101	H	-1.105055	1.774903	-0.250113
H102	H	-0.605055	2.274903	0.249887
H103	H	-1.204571	1.384123	-0.640510
H104	H	-0.704571	1.884123	-0.140510
H105	H	-1.105040	1.262109	-0.762289
H106	H	-0.605040	1.762109	-0.262289
H107	H	-0.384313	0.919456	-0.628266
H108	H	0.115687	1.419456	-0.128266
H109	H	-0.383972	1.396630	-0.907160
H110	H	0.116028	1.896630	-0.407160
H111	H	-0.806457	1.652769	-0.371817
H112	H	-0.306457	2.152769	0.128183
H113	H	-0.627747	1.640382	-1.106182
H114	H	-0.127747	2.140382	-0.606182
H115	H	-0.905972	1.261989	-0.762239
H116	H	-0.405972	1.761989	-0.262239
H117	H	-0.905987	1.774786	-0.250057
H118	H	-0.405987	2.274786	0.249943
H119	H	-0.627820	0.919305	-0.384034
H120	H	-0.127820	1.419305	0.115966
H121	H	-0.806443	1.383890	-0.640378
H122	H	-0.306443	1.883890	-0.140378
H123	H	-0.383918	1.396674	-1.106207
H124	H	0.116082	1.896674	-0.606207
H125	H	-0.627820	1.640341	-0.907114
H126	H	-0.127820	2.140341	-0.407114
H127	H	-1.204584	1.653010	-0.371954
H128	H	-0.704584	2.153010	0.128046
H129	H	-0.384292	1.118503	-0.628256
H130	H	0.115708	1.618503	-0.128256
