data_functionalizedCrystal
_audit_creation_method	'MofGen! by Chris Wilmer'
_symmetry_space_group_name_H-M	'P1'
_symmetry_Int_Tables_number	1
_symmetry_cell_setting	triclinic
loop_
_symmetry_equiv_pos_as_xyz
  x,y,z
_cell_length_a	11.026607
_cell_length_b	8.597340
_cell_length_c	7.681481
_cell_angle_alpha	103.474906
_cell_angle_beta	82.996689
_cell_angle_gamma	96.851696
loop_
_atom_site_label
_atom_site_type_symbol
_atom_site_fract_x
_atom_site_fract_y
_atom_site_fract_z
O1	O	0.167818	2.147999	0.179466
O2	O	0.187153	1.689486	0.109898
O3	O	0.000833	1.880742	0.138923
O4	O	0.354137	1.956743	0.150441
O5	O	-0.022151	1.904267	0.435351
O6	O	0.164168	1.713011	0.406326
O7	O	0.144833	2.171524	0.475894
Zn8	Zn	0.150851	1.946003	0.488175
Zn9	Zn	0.181135	1.915007	0.097618
O10	O	0.331152	1.980268	0.446869
C11	C	0.174864	1.641636	0.249068
C12	C	0.172478	1.464007	0.222117
C13	C	-0.055869	1.878483	0.285008
C14	C	-0.190581	1.836685	0.278660
C15	C	-0.264391	1.952094	0.296167
C16	C	-0.403623	1.908897	0.289607
C17	C	0.387855	1.982526	0.300781
C18	C	0.522568	2.024323	0.307117
C19	C	0.157122	2.219373	0.336721
C20	C	0.159509	2.397001	0.363660
N21	N	0.130183	1.967168	0.754721
N22	N	0.201793	1.893852	-0.168927
H23	H	-0.224506	2.082881	0.316022
F24	F	0.297333	1.796024	0.717941
F25	F	0.184601	1.361364	0.036752
F26	F	-0.455743	1.737937	0.263652
F27	F	-0.425313	2.195283	0.333048
F28	F	-0.242706	1.665733	0.252706
F29	F	0.034650	2.065020	0.867865
H30	H	0.150222	1.475525	0.505465
