data_functionalizedCrystal
_audit_creation_method	'MofGen! by Chris Wilmer'
_symmetry_space_group_name_H-M	'P1'
_symmetry_Int_Tables_number	1
_symmetry_cell_setting	triclinic
loop_
_symmetry_equiv_pos_as_xyz
  x,y,z
_cell_length_a	13.897449
_cell_length_b	25.639240
_cell_length_c	13.897441
_cell_angle_alpha	89.958512
_cell_angle_beta	89.976606
_cell_angle_gamma	90.033584
loop_
_atom_site_label
_atom_site_type_symbol
_atom_site_fract_x
_atom_site_fract_y
_atom_site_fract_z
Zn1	Zn	1.474602	-0.208123	-0.545377
Zn2	Zn	1.474453	-0.295565	-0.384047
Zn3	Zn	1.313291	-0.208147	-0.384088
Zn4	Zn	1.313230	-0.295530	-0.545292
O5	O	1.393894	-0.251841	-0.464701
O6	O	1.609564	-0.219727	-0.523994
O7	O	1.453038	-0.283994	-0.249071
O8	O	1.334777	-0.134978	-0.405535
O9	O	1.609455	-0.283970	-0.405466
O10	O	1.453291	-0.134961	-0.524033
O11	O	1.334633	-0.219768	-0.249100
O12	O	1.178301	-0.219734	-0.405453
O13	O	1.334673	-0.283910	-0.680285
O14	O	1.178257	-0.283934	-0.523890
O15	O	1.453232	-0.219693	-0.680347
O16	O	1.452979	-0.368726	-0.405385
O17	O	1.334529	-0.368700	-0.523851
C18	C	1.143280	-0.251833	-0.464667
C19	C	1.036066	-0.251842	-0.464676
C20	C	0.948996	-0.251844	-0.464692
C21	C	0.839763	-0.251848	-0.464721
C22	C	1.393758	-0.387684	-0.464625
C23	C	1.393788	-0.445798	-0.464625
C24	C	1.455635	-0.806113	-0.526514
C25	C	1.455663	-0.860717	-0.526534
O26	O	1.508086	-0.888914	-0.579077
N27	N	1.394028	-0.888080	-0.464794
C28	C	1.332353	-0.860836	-0.403038
O29	O	1.279929	-0.889124	-0.350526
C30	C	1.332320	-0.806233	-0.403024
C31	C	1.393967	-0.778873	-0.464761
C32	C	1.517276	-0.778753	-0.588247
C33	C	1.517248	-0.724152	-0.588226
C34	C	1.455580	-0.696912	-0.526472
C35	C	1.393939	-0.724272	-0.464740
C36	C	1.270641	-0.778989	-0.341273
C37	C	1.270613	-0.724382	-0.341265
C38	C	1.332260	-0.697022	-0.403002
C39	C	1.332244	-0.642431	-0.402965
N40	N	1.393879	-0.615068	-0.464704
C41	C	1.455548	-0.642309	-0.526458
C42	C	1.332425	-0.975506	-0.403073
C43	C	1.332461	-1.030109	-0.403081
C44	C	1.455771	-1.029986	-0.526579
C45	C	1.455739	-0.975383	-0.526565
C46	C	1.394060	-0.948144	-0.464813
C47	C	1.455486	-0.527644	-0.526409
C48	C	1.455456	-0.473038	-0.526379
C49	C	1.332143	-0.473165	-0.402885
C50	C	1.332176	-0.527766	-0.402911
C51	C	1.393851	-0.555004	-0.464680
O52	O	1.279845	-0.614200	-0.350452
O53	O	1.507954	-0.614014	-0.578970
C54	C	1.645487	-0.251850	-0.464735
C55	C	1.752701	-0.251853	-0.464750
C56	C	1.393962	-0.251795	-0.716294
C57	C	1.393992	-0.251775	-0.823508
C58	C	1.394057	-0.115468	-0.464798
C59	C	1.394127	-0.057354	-0.464839
C60	C	1.394018	-0.251740	-1.019803
C61	C	1.394000	-0.251761	-0.910571
C62	C	1.393881	-0.251849	-0.214087
C63	C	1.394039	-0.251722	-0.106873
H64	H	1.505701	-0.549814	-0.576714
C65	C	1.203802	-0.694743	-0.274158
C66	C	1.258426	-0.663390	-0.212383
C67	C	1.196915	-0.636076	-0.150559
H68	H	1.167075	-0.718802	-0.237306
H69	H	1.161757	-0.673414	-0.310983
H70	H	1.300454	-0.684717	-0.175561
H71	H	1.295151	-0.639321	-0.249208
H72	H	1.154870	-0.614746	-0.187384
H73	H	1.160191	-0.660138	-0.113714
H74	H	1.233967	-0.614796	-0.108644
C75	C	1.265146	-0.557380	-0.335842
C76	C	1.211120	-0.521834	-0.281771
C77	C	1.149344	-0.549091	-0.219994
H78	H	1.301964	-0.578690	-0.293772
H79	H	1.223054	-0.578667	-0.372692
H80	H	1.253207	-0.500556	-0.244924
H81	H	1.174282	-0.500523	-0.323816
H82	H	1.107252	-0.570378	-0.256843
H83	H	1.186170	-0.570400	-0.177930
H84	H	1.112675	-0.524977	-0.183305
H85	H	1.505983	-1.052176	-0.576864
H86	H	1.281936	-0.450978	-0.352603
H87	H	1.505659	-0.450763	-0.576653
C88	C	1.203597	-0.808591	-0.274210
C89	C	1.149570	-0.773037	-0.220158
C90	C	1.087784	-0.800285	-0.158378
H91	H	1.240409	-0.829897	-0.232128
H92	H	1.161507	-0.829880	-0.311057
H93	H	1.191655	-0.751756	-0.183315
H94	H	1.112739	-0.751729	-0.262215
H95	H	1.045694	-0.821575	-0.195224
H96	H	1.124604	-0.821591	-0.116302
H97	H	1.051113	-0.776166	-0.121702
H98	H	1.567444	-0.701879	-0.638500
H99	H	1.505936	-0.953110	-0.576837
H100	H	1.282273	-1.052381	-0.352799
H101	H	1.567493	-0.800926	-0.638540
C102	C	1.265428	-0.946029	-0.335906
C103	C	1.211482	-0.981684	-0.281829
C104	C	1.149764	-0.954552	-0.219938
H105	H	1.223276	-0.924729	-0.372644
H106	H	1.302314	-0.924742	-0.293852
H107	H	1.174598	-1.002962	-0.323877
H108	H	1.253608	-1.002985	-0.245071
H109	H	1.186650	-0.933265	-0.177884
H110	H	1.107619	-0.933253	-0.256684
H111	H	1.113160	-0.978740	-0.183233
