data_functionalizedCrystal
_audit_creation_method	'MofGen! by Chris Wilmer'
_symmetry_space_group_name_H-M	'P1'
_symmetry_Int_Tables_number	1
_symmetry_cell_setting	triclinic
loop_
_symmetry_equiv_pos_as_xyz
  x,y,z
_cell_length_a	12.759400
_cell_length_b	18.215407
_cell_length_c	18.215399
_cell_angle_alpha	89.982223
_cell_angle_beta	90.024546
_cell_angle_gamma	89.989695
loop_
_atom_site_label
_atom_site_type_symbol
_atom_site_fract_x
_atom_site_fract_y
_atom_site_fract_z
Zn1	Zn	-0.418400	-1.125124	0.416093
Zn2	Zn	-0.085067	-0.791791	0.749426
Zn3	Zn	0.248267	-0.458457	1.082760
Zn4	Zn	-0.594097	-1.125054	0.293034
Zn5	Zn	-0.260764	-0.791721	0.626367
Zn6	Zn	0.072569	-0.458388	0.959701
Zn7	Zn	-0.418419	-1.002057	0.293045
Zn8	Zn	-0.085086	-0.668723	0.626378
Zn9	Zn	0.248247	-0.335390	0.959711
Zn10	Zn	-0.594024	-1.002044	0.416063
Zn11	Zn	-0.260691	-0.668711	0.749397
Zn12	Zn	0.072643	-0.335378	1.082730
O13	O	-0.506235	-1.063570	0.354559
O14	O	-0.172902	-0.730237	0.687892
O15	O	0.160432	-0.396903	1.021225
O16	O	-0.441729	-1.228099	0.399777
O17	O	-0.108396	-0.894766	0.733110
O18	O	0.224938	-0.561432	1.066443
O19	O	-0.570832	-1.108714	0.190051
O20	O	-0.237499	-0.775381	0.523384
O21	O	0.095835	-0.442048	0.856718
O22	O	-0.271396	-1.018416	0.309384
O23	O	0.061938	-0.685083	0.642718
O24	O	0.395271	-0.351749	0.976051
O25	O	-0.570813	-1.228048	0.309366
O26	O	-0.237480	-0.894715	0.642699
O27	O	0.095854	-0.561381	0.976033
O28	O	-0.271381	-1.108833	0.399787
O29	O	0.061952	-0.775500	0.733121
O30	O	0.395285	-0.442167	1.066454
O31	O	-0.441762	-1.018349	0.190059
O32	O	-0.108429	-0.685015	0.523392
O33	O	0.224904	-0.351682	0.856726
O34	O	-0.441691	-0.899071	0.309355
O35	O	-0.108358	-0.565737	0.642689
O36	O	0.224975	-0.232404	0.976022
O37	O	-0.570688	-1.018395	0.519051
O38	O	-0.237355	-0.685062	0.852385
O39	O	0.095979	-0.351729	1.185718
O40	O	-0.570707	-0.899062	0.399737
O41	O	-0.237374	-0.565728	0.733070
O42	O	0.095960	-0.232395	1.066403
O43	O	-0.441658	-1.108821	0.519073
O44	O	-0.108325	-0.775488	0.852407
O45	O	0.225009	-0.442155	1.185740
O46	O	-0.741109	-1.108703	0.309337
O47	O	-0.407775	-0.775369	0.642670
O48	O	-0.074442	-0.442036	0.976004
O49	O	-0.741055	-1.018328	0.399726
O50	O	-0.407721	-0.684994	0.733060
O51	O	-0.074388	-0.351661	1.066393
C52	C	-0.506194	-0.872364	0.354544
C53	C	-0.172861	-0.539030	0.687878
C54	C	0.160473	-0.205697	1.021211
C55	C	-0.506202	-0.790565	0.354556
C56	C	-0.172869	-0.457231	0.687889
C57	C	0.160465	-0.123898	1.021222
C58	C	-0.439118	-0.602396	0.401706
C59	C	-0.105784	-0.269063	0.735039
C60	C	0.227549	0.064270	1.068372
C61	C	-0.439123	-0.525538	0.401708
C62	C	-0.105790	-0.192204	0.735041
C63	C	0.227544	0.141129	1.068374
C64	C	-0.573337	-0.525495	0.307417
C65	C	-0.240003	-0.192162	0.640751
C66	C	0.093330	0.141171	0.974084
C67	C	-0.573325	-0.602353	0.307412
C68	C	-0.239992	-0.269019	0.640746
C69	C	0.093342	0.064314	0.974079
C70	C	-0.506217	-0.640801	0.354561
C71	C	-0.172884	-0.307468	0.687894
C72	C	0.160450	0.025865	1.021227
C73	C	-0.506234	-0.487085	0.354568
C74	C	-0.172901	-0.153752	0.687901
C75	C	0.160432	0.179581	1.021234
C76	C	-0.506241	-0.403752	0.354569
C77	C	-0.172907	-0.070418	0.687903
C78	C	0.160426	0.262915	1.021236
C79	C	-0.506209	-0.724140	0.354558
C80	C	-0.172876	-0.390807	0.687891
C81	C	0.160458	-0.057474	1.021225
C82	C	-0.779202	-1.063526	0.354543
C83	C	-0.445869	-0.730193	0.687877
C84	C	-0.112536	-0.396860	1.021210
C85	C	-0.895979	-1.063575	0.354561
C86	C	-0.562646	-0.730242	0.687895
C87	C	-0.229312	-0.396908	1.021228
C88	C	-0.950834	-1.110685	0.307548
C89	C	-0.617501	-0.777352	0.640881
C90	C	-0.284168	-0.444019	0.974214
C91	C	-1.060558	-1.110730	0.307570
C92	C	-0.727225	-0.777397	0.640904
C93	C	-0.393892	-0.444064	0.974237
C94	C	-1.060562	-1.016549	0.401622
C95	C	-0.727229	-0.683215	0.734956
C96	C	-0.393896	-0.349882	1.068289
C97	C	-0.950840	-1.016508	0.401603
C98	C	-0.617507	-0.683174	0.734936
C99	C	-0.284174	-0.349841	1.068270
C100	C	-0.895973	-1.157753	0.260506
C101	C	-0.562640	-0.824419	0.593840
C102	C	-0.229306	-0.491086	0.927173
C103	C	-0.950828	-1.204866	0.213488
C104	C	-0.617495	-0.871533	0.546822
C105	C	-0.284162	-0.538200	0.880155
C106	C	-1.060552	-1.204911	0.213511
C107	C	-0.727219	-0.871578	0.546844
C108	C	-0.393886	-0.538245	0.880178
C109	C	-1.115421	-1.157843	0.260552
C110	C	-0.782088	-0.824510	0.593885
C111	C	-0.448754	-0.491176	0.927218
C112	C	-0.232202	-1.063634	0.354590
C113	C	0.101132	-0.730300	0.687924
C114	C	0.434465	-0.396967	1.021257
C115	C	-0.115425	-1.063661	0.354604
C116	C	0.217908	-0.730328	0.687937
C117	C	0.551242	-0.396994	1.021270
C118	C	-0.506163	-1.063615	0.546512
C119	C	-0.172829	-0.730281	0.879845
C120	C	0.160504	-0.396948	1.213178
C121	C	-0.506132	-1.063634	0.628311
C122	C	-0.172798	-0.730300	0.961644
C123	C	0.160535	-0.396967	1.294977
C124	C	-0.506266	-0.255523	0.354572
C125	C	-0.172932	0.077811	0.687905
C126	C	0.160401	0.411144	1.021238
C127	C	-0.506249	-0.337322	0.354573
C128	C	-0.172916	-0.003988	0.687906
C129	C	0.160417	0.329345	1.021239
C130	C	-0.506231	-1.063568	0.163352
C131	C	-0.172898	-0.730234	0.496686
C132	C	0.160435	-0.396901	0.830019
C133	C	-0.505966	-1.063691	0.081554
C134	C	-0.172633	-0.730358	0.414887
C135	C	0.160700	-0.397024	0.748221
C136	C	-0.438883	-1.110736	0.816517
C137	C	-0.105550	-0.777402	1.149850
C138	C	0.227784	-0.444069	1.483184
C139	C	-0.438852	-1.110744	0.893376
C140	C	-0.105519	-0.777411	1.226709
C141	C	0.227814	-0.444078	1.560043
C142	C	-0.573218	-1.016584	0.893342
C143	C	-0.239885	-0.683251	1.226675
C144	C	0.093448	-0.349917	1.560009
C145	C	-0.573243	-1.016572	0.816485
C146	C	-0.239909	-0.683239	1.149818
C147	C	0.093424	-0.349905	1.483151
C148	C	-0.506077	-1.063652	0.778074
C149	C	-0.172743	-0.730319	1.111408
C150	C	0.160590	-0.396985	1.444741
C151	C	-0.506022	-1.063673	0.931790
C152	C	-0.172688	-0.730339	1.265124
C153	C	0.160645	-0.397006	1.598457
C154	C	-0.505989	-1.063682	1.015124
C155	C	-0.172655	-0.730349	1.348457
C156	C	0.160678	-0.397015	1.681791
C157	C	-0.506108	-1.063642	0.694735
C158	C	-0.172774	-0.730309	1.028069
C159	C	0.160559	-0.396975	1.361402
H160	H	-0.627967	-0.633623	0.269017
H161	H	-0.294633	-0.300289	0.602351
H162	H	0.038700	0.033044	0.935684
Br163	Br	-0.664371	-0.952696	0.945475
Br164	Br	-0.331038	-0.619362	1.278808
Br165	Br	0.002295	-0.286029	1.612142
Br166	Br	-0.747063	-1.157920	0.260700
Br167	Br	-0.413730	-0.824587	0.594033
Br168	Br	-0.080396	-0.491254	0.927366
H169	H	-0.906149	-1.243192	0.175193
H170	H	-0.572815	-0.909859	0.508527
H171	H	-0.239482	-0.576526	0.841860
H172	H	-0.627959	-0.978226	0.785183
H173	H	-0.294626	-0.644892	1.118517
H174	H	0.038708	-0.311559	1.451850
Br175	Br	-0.876387	-0.952575	0.465412
Br176	Br	-0.543054	-0.619241	0.798745
Br177	Br	-0.209720	-0.285908	1.132078
H178	H	-0.384482	-0.494272	0.440097
H179	H	-0.051149	-0.160939	0.773430
H180	H	0.282184	0.172395	1.106763
Br181	Br	-0.664409	-0.473311	0.243435
Br182	Br	-0.331076	-0.139977	0.576768
Br183	Br	0.002258	0.193356	0.910101
H184	H	-1.105213	-1.243279	0.175232
H185	H	-0.771879	-0.909945	0.508565
H186	H	-0.438546	-0.576612	0.841899
Br187	Br	-0.348041	-0.654575	0.465690
Br188	Br	-0.014707	-0.321241	0.799024
Br189	Br	0.318626	0.012092	1.132357
H190	H	-0.384189	-1.149069	0.785246
H191	H	-0.050856	-0.815736	1.118579
H192	H	0.282478	-0.482402	1.451912
Br193	Br	-1.135027	-0.952673	0.465458
Br194	Br	-0.801693	-0.619340	0.798791
Br195	Br	-0.468360	-0.286007	1.132125
Br196	Br	-1.264332	-1.157569	0.260245
Br197	Br	-0.930999	-0.824236	0.593578
Br198	Br	-0.597666	-0.490903	0.926911
H199	H	-0.384135	-1.149083	0.924673
H200	H	-0.050801	-0.815750	1.258006
H201	H	0.282532	-0.482417	1.591339
