data_functionalizedCrystal
_audit_creation_method	'MofGen! by Chris Wilmer'
_symmetry_space_group_name_H-M	'P1'
_symmetry_Int_Tables_number	1
_symmetry_cell_setting	triclinic
loop_
_symmetry_equiv_pos_as_xyz
  x,y,z
_cell_length_a	8.597340
_cell_length_b	8.559648
_cell_length_c	9.565339
_cell_angle_alpha	90.012566
_cell_angle_beta	82.301765
_cell_angle_gamma	102.376322
loop_
_atom_site_label
_atom_site_type_symbol
_atom_site_fract_x
_atom_site_fract_y
_atom_site_fract_z
O1	O	2.053708	-0.238051	-0.131172
O2	O	1.594582	-0.256307	-0.075867
O3	O	1.864595	-0.015210	-0.108358
O4	O	1.783696	-0.479149	-0.098682
O5	O	1.864572	-0.015228	-0.340875
O6	O	1.594560	-0.256326	-0.308385
O7	O	2.053685	-0.238070	-0.363690
Zn8	Zn	1.824119	-0.247201	-0.372954
Zn9	Zn	1.824149	-0.247176	-0.066603
O10	O	1.783673	-0.479167	-0.331199
C11	C	1.536337	-0.254355	-0.185110
C12	C	1.362820	-0.248490	-0.164207
C13	C	1.870714	0.044215	-0.225343
C14	C	1.888963	0.221310	-0.227506
C15	C	2.111931	-0.240022	-0.254443
C16	C	2.285448	-0.245887	-0.275338
N17	N	1.824110	-0.247217	-0.582033
C18	C	1.777554	0.461408	-0.214172
C19	C	1.759305	0.284313	-0.211883
C20	C	1.700043	-0.359597	-0.751477
C21	C	1.685676	-0.215437	-0.656498
C22	C	1.838409	-0.391364	-0.674933
C23	C	1.809743	-0.102914	-0.764592
C24	C	1.962527	-0.278937	-0.783041
C25	C	1.948231	-0.134673	-0.688114
N26	N	1.824172	-0.247148	0.142474
H27	H	1.296309	-0.246231	-0.053058
H28	H	1.634338	0.202770	-0.196846
H29	H	1.850499	-0.513302	-0.635515
O30	O	1.364551	-0.248781	-0.407996
C31	C	1.290465	-0.385227	-0.476231
H32	H	1.160585	-0.427158	-0.424682
H33	H	1.292763	-0.354069	-0.592464
H34	H	1.358135	-0.484786	-0.466727
O35	O	2.038180	0.318358	-0.245532
C36	C	2.155063	0.224225	-0.259580
H37	H	2.100473	0.100650	-0.297035
H38	H	2.261375	0.284143	-0.339885
H39	H	2.197858	0.211764	-0.153182
O40	O	1.574609	-0.472712	-0.785157
C41	C	1.428968	-0.438638	-0.720092
H42	H	1.448256	-0.305912	-0.696228
H43	H	1.333852	-0.469957	-0.793899
H44	H	1.387027	-0.512488	-0.617538
H45	H	1.568649	-0.188574	-0.601456
O46	O	1.794890	0.042471	-0.811448
C47	C	1.654622	0.024183	-0.876626
H48	H	1.566834	-0.090956	-0.835126
H49	H	1.596284	0.130478	-0.851730
H50	H	1.687321	0.018240	-0.995722
O51	O	2.073307	-0.020937	-0.654692
C52	C	2.057652	0.130782	-0.700536
H53	H	1.926337	0.127129	-0.710766
H54	H	2.099667	0.223699	-0.620513
H55	H	2.134292	0.164203	-0.807397
O56	O	2.101993	-0.311322	-0.848663
C57	C	2.116574	-0.463503	-0.803034
H58	H	1.992372	-0.538353	-0.761946
H59	H	2.173802	-0.525721	-0.895252
H60	H	2.195337	-0.449495	-0.715013
