data_functionalizedCrystal
_audit_creation_method	'MofGen! by Chris Wilmer'
_symmetry_space_group_name_H-M	'P1'
_symmetry_Int_Tables_number	1
_symmetry_cell_setting	triclinic
loop_
_symmetry_equiv_pos_as_xyz
  x,y,z
_cell_length_a	18.050591
_cell_length_b	18.050589
_cell_length_c	18.101389
_cell_angle_alpha	90.014016
_cell_angle_beta	90.014635
_cell_angle_gamma	90.027061
loop_
_atom_site_label
_atom_site_type_symbol
_atom_site_fract_x
_atom_site_fract_y
_atom_site_fract_z
Zn1	Zn	1.135322	-0.295760	0.418670
Zn2	Zn	1.135224	-0.419935	0.294838
Zn3	Zn	1.011133	-0.295760	0.294852
Zn4	Zn	1.011090	-0.419910	0.418647
O5	O	1.073192	-0.357841	0.356752
O6	O	1.239234	-0.312242	0.402247
O7	O	1.118740	-0.403473	0.191207
O8	O	1.027666	-0.191836	0.311292
O9	O	1.239162	-0.403473	0.311268
O10	O	1.118908	-0.191836	0.402261
O11	O	1.027571	-0.312242	0.191217
O12	O	0.907202	-0.312219	0.311270
O13	O	1.027592	-0.403432	0.522283
O14	O	0.907171	-0.403432	0.402222
O15	O	1.118866	-0.312219	0.522300
O16	O	1.118698	-0.523856	0.311246
O17	O	1.027497	-0.523838	0.402208
C18	C	0.880240	-0.357823	0.356746
C19	C	0.797694	-0.357833	0.356761
C20	C	0.548873	-0.407537	0.406153
C21	C	0.598238	-0.425603	0.338559
C22	C	0.500574	-0.357857	0.356759
C23	C	0.598291	-0.339814	0.424350
C24	C	0.646559	-0.357847	0.356764
C25	C	0.548852	-0.375958	0.289129
C26	C	0.548900	-0.290137	0.374967
C27	C	0.598243	-0.308177	0.307326
C28	C	0.416476	-0.357864	0.356758
C29	C	0.730656	-0.357840	0.356757
C30	C	1.073103	-0.550794	0.356740
C31	C	1.073132	-0.633339	0.356759
C32	C	1.023586	-0.832807	0.406207
C33	C	1.005483	-0.882236	0.338631
C34	C	1.073205	-0.784470	0.356769
C35	C	1.091344	-0.882123	0.424352
C36	C	1.073274	-0.930455	0.356784
C37	C	1.055067	-0.832811	0.289157
C38	C	1.140960	-0.832694	0.374924
C39	C	1.122883	-0.882100	0.307301
C40	C	1.073163	-0.700371	0.356761
C41	C	1.073316	-1.014551	0.356784
C42	C	1.266898	-0.357860	0.356758
C43	C	1.349444	-0.357868	0.356761
C44	C	1.073235	-0.357823	0.549914
C45	C	1.073253	-0.357815	0.632228
C46	C	1.073303	-0.164136	0.356780
C47	C	1.073349	-0.081590	0.356793
C48	C	1.073192	-0.357807	0.164341
C49	C	1.073318	-0.357605	0.082028
C50	C	1.073297	-0.357675	0.931319
C51	C	1.015672	-0.414881	0.899983
C52	C	1.015828	-0.415147	0.814365
C53	C	1.073275	-0.357745	0.782936
C54	C	1.151521	-0.378990	0.814031
C55	C	1.151200	-0.379365	0.899676
C56	C	1.053355	-0.279097	0.899741
C57	C	1.051614	-0.279551	0.814090
C58	C	1.073267	-0.357782	0.699077
C59	C	1.073310	-0.357640	1.015179
H60	H	0.981563	-0.811163	0.447956
N61	N	0.933637	-0.909528	0.319374
N62	N	0.878898	-0.893751	0.358614
H63	H	0.828155	-0.913022	0.345019
N64	N	1.212783	-0.805363	0.394192
N65	N	1.267725	-0.822022	0.355602
H66	H	1.318451	-0.802717	0.369215
N67	N	0.983022	-0.254821	0.926835
N68	N	0.946737	-0.295145	0.969754
H69	H	0.897062	-0.278008	0.988892
N70	N	1.032370	-0.488211	0.788678
N71	N	1.043842	-0.539165	0.834004
H72	H	1.055527	-0.590770	0.815864
H73	H	0.527196	-0.449587	0.447869
H74	H	0.527227	-0.391284	0.231955
N75	N	1.206897	-0.329388	0.925700
N76	N	1.216586	-0.320766	0.993537
H77	H	1.255925	-0.285475	1.011916
H78	H	1.164874	-0.903607	0.265451
N79	N	0.979388	-0.259417	0.788596
N80	N	0.928692	-0.247219	0.834020
H81	H	0.877684	-0.232993	0.816009
H82	H	1.106659	-0.903783	0.481501
H83	H	0.619783	-0.266160	0.265508
N84	N	0.943038	-0.398465	0.787997
N85	N	0.891766	-0.386546	0.832848
H86	H	0.840353	-0.374768	0.814230
N87	N	1.206824	-0.328358	0.788493
N88	N	1.189143	-0.275927	0.746991
H89	H	1.228199	-0.240166	0.728953
N90	N	0.942660	-0.398367	0.925804
N91	N	0.913740	-0.337200	0.911158
H92	H	0.862173	-0.325535	0.929399
N93	N	0.625416	-0.497443	0.319227
N94	N	0.580961	-0.548874	0.305968
H95	H	0.600150	-0.599613	0.292319
N96	N	1.173090	-0.450282	0.787127
N97	N	1.130972	-0.485567	0.745063
H98	H	1.146201	-0.535920	0.726062
H99	H	1.090523	-0.234667	0.792696
N100	N	1.172413	-0.451425	0.924740
N101	N	1.187350	-0.501090	0.878981
H102	H	1.202333	-0.551984	0.896678
N103	N	1.035771	-0.805765	0.217441
N104	N	1.074868	-0.822060	0.162824
H105	H	1.061238	-0.802956	0.112176
H106	H	1.028707	-0.472771	0.921511
N107	N	1.106012	-0.225635	0.925165
N108	N	1.158021	-0.245219	0.966360
H109	H	1.195213	-0.207468	0.984320
N110	N	0.625532	-0.320654	0.496049
N111	N	0.665159	-0.264438	0.504232
H112	H	0.684397	-0.250909	0.554871
H113	H	0.527211	-0.232889	0.390389
