data_functionalizedCrystal
_audit_creation_method	'MofGen! by Chris Wilmer'
_symmetry_space_group_name_H-M	'P1'
_symmetry_Int_Tables_number	1
_symmetry_cell_setting	triclinic
loop_
_symmetry_equiv_pos_as_xyz
  x,y,z
_cell_length_a	12.645331
_cell_length_b	12.645330
_cell_length_c	13.033255
_cell_angle_alpha	97.153143
_cell_angle_beta	82.797667
_cell_angle_gamma	90.012860
loop_
_atom_site_label
_atom_site_type_symbol
_atom_site_fract_x
_atom_site_fract_y
_atom_site_fract_z
Zn1	Zn	1.696867	-0.498126	-0.590889
Zn2	Zn	1.674260	-0.652909	-0.416149
Zn3	Zn	1.497079	-0.475662	-0.416160
Zn4	Zn	1.519572	-0.675342	-0.590838
O5	O	1.596945	-0.575510	-0.503509
O6	O	1.842218	-0.518671	-0.567726
O7	O	1.631882	-0.610608	-0.269918
O8	O	1.523629	-0.330298	-0.439363
O9	O	1.825609	-0.632390	-0.439346
O10	O	1.670412	-0.346802	-0.567736
O11	O	1.501708	-0.480385	-0.269926
O12	O	1.351713	-0.502137	-0.439314
O13	O	1.561966	-0.670623	-0.737077
O14	O	1.368239	-0.648841	-0.567649
O15	O	1.692223	-0.540424	-0.737114
O16	O	1.653693	-0.804229	-0.439297
O17	O	1.540045	-0.820710	-0.567639
C18	C	1.321511	-0.575487	-0.503478
C19	C	1.203682	-0.575505	-0.503490
C20	C	1.148385	-0.483103	-0.422885
C21	C	1.025861	-0.482836	-0.423162
C22	C	1.050057	-0.559921	-0.613803
C23	C	1.172590	-0.559243	-0.613299
C24	C	1.154785	-0.683871	-0.474821
C25	C	1.031869	-0.682978	-0.472430
C26	C	1.596888	-0.850936	-0.503484
C27	C	1.596966	-0.968770	-0.503509
C28	C	1.668309	-1.125900	-0.422604
C29	C	1.668601	-1.003365	-0.422802
C30	C	1.641452	-1.027338	-0.613660
C31	C	1.642045	-1.149881	-0.613231
C32	C	1.481244	-1.132470	-0.475347
C33	C	1.481463	-1.009548	-0.472876
C34	C	1.873454	-0.575534	-0.503541
C35	C	1.991286	-0.575544	-0.503554
C36	C	1.632125	-0.610532	-0.776072
C37	C	1.647117	-0.625456	-0.892222
C38	C	1.597033	-0.299011	-0.503557
C39	C	1.597071	-0.181183	-0.503577
C40	C	1.604894	-0.583100	-1.064062
C41	C	1.589391	-0.567673	-0.944014
C42	C	1.561962	-0.540548	-0.232006
C43	C	1.547175	-0.525325	-0.115856
H44	H	1.181624	-0.402960	-0.441674
F45	F	1.221899	-0.644424	-0.694513
F46	F	0.980126	-0.698728	-0.366377
F47	F	1.630058	-1.150742	-0.315533
F48	F	1.576494	-0.999683	-0.694631
F49	F	1.181819	-0.706154	-0.371486
H50	H	1.528490	-0.506787	-0.899487
H51	H	1.754102	-0.976362	-0.441475
H52	H	1.167228	-0.490933	-0.340873
H53	H	1.008283	-0.754337	-0.526825
F54	F	1.751523	-0.991192	-0.645439
H55	H	1.708017	-0.686343	-0.936748
H56	H	1.191391	-0.752536	-0.533530
F57	F	1.431942	-1.159716	-0.372188
F58	F	1.467577	-0.445747	-1.057656
H59	H	0.998997	-0.402263	-0.442201
F60	F	0.972701	-0.493386	-0.316326
F61	F	1.437949	-0.957997	-0.366924
F62	F	1.214070	-0.456278	-0.644974
F63	F	1.022422	-0.646020	-0.694485
F64	F	1.630019	-0.950398	-0.316059
H65	H	1.022547	-0.482109	-0.638469
F66	F	1.779450	-1.169169	-0.446736
F67	F	1.753259	-1.191177	-0.644484
H68	H	1.424370	-0.985972	-0.527528
F69	F	1.684481	-0.662690	-1.122262
H70	H	1.593206	-1.187586	-0.675641
F71	F	1.411636	-1.180315	-0.552429
