data_functionalizedCrystal
_audit_creation_method	'MofGen! by Chris Wilmer'
_symmetry_space_group_name_H-M	'P1'
_symmetry_Int_Tables_number	1
_symmetry_cell_setting	triclinic
loop_
_symmetry_equiv_pos_as_xyz
  x,y,z
_cell_length_a	12.594517
_cell_length_b	12.594516
_cell_length_c	10.686551
_cell_angle_alpha	94.403300
_cell_angle_beta	94.390391
_cell_angle_gamma	90.016010
loop_
_atom_site_label
_atom_site_type_symbol
_atom_site_fract_x
_atom_site_fract_y
_atom_site_fract_z
Zn1	Zn	1.673462	-0.377505	0.713304
Zn2	Zn	1.659689	-0.569183	0.502313
Zn3	Zn	1.481803	-0.391217	0.502340
Zn4	Zn	1.495447	-0.555443	0.713279
O5	O	1.577600	-0.473337	0.607809
O6	O	1.820581	-0.402943	0.685314
O7	O	1.624618	-0.557064	0.325737
O8	O	1.507282	-0.240451	0.530346
O9	O	1.810461	-0.543768	0.530300
O10	O	1.648093	-0.230377	0.685340
O11	O	1.493926	-0.426313	0.325756
O12	O	1.334668	-0.412990	0.530322
O13	O	1.530535	-0.520351	0.889862
O14	O	1.344691	-0.533647	0.685299
O15	O	1.661322	-0.389620	0.889880
O16	O	1.637847	-0.716307	0.530276
O17	O	1.517179	-0.706213	0.685273
C18	C	1.301059	-0.473316	0.607812
C19	C	1.182756	-0.473331	0.607843
C20	C	1.048212	-0.539095	0.691979
C21	C	1.111524	-0.572463	0.576816
C22	C	1.121014	-0.440012	0.722993
C23	C	1.035276	-0.506790	0.492581
C24	C	1.044765	-0.374289	0.638837
C25	C	1.108041	-0.407624	0.523595
C26	C	1.577530	-0.749879	0.607796
C27	C	1.577600	-0.868182	0.607833
C28	C	1.511958	-0.931987	0.692077
C29	C	1.478568	-1.010311	0.576938
C30	C	1.611088	-1.000656	0.722992
C31	C	1.544154	-0.944951	0.492634
C32	C	1.676725	-0.935285	0.638765
C33	C	1.643367	-1.013582	0.523547
C34	C	1.855221	-0.473359	0.607807
C35	C	1.973526	-0.473368	0.607806
C36	C	1.598987	-0.451924	0.936936
C37	C	1.608100	-0.442799	1.077191
C38	C	1.577702	-0.195714	0.607849
C39	C	1.577745	-0.077407	0.607866
C40	C	1.556358	-0.494590	0.279962
C41	C	1.547451	-0.503416	0.139708
H42	H	1.158429	-0.411815	0.820390
H43	H	1.021757	-0.594746	0.763056
H44	H	1.140912	-0.656237	0.550575
H45	H	1.667005	-0.383921	1.130973
H46	H	1.456332	-0.896344	0.763215
H47	H	1.639353	-1.025372	0.820366
O48	O	0.990761	-0.540726	0.376432
C49	C	0.929008	-0.632888	0.385119
H50	H	0.958228	-0.673535	0.472953
H51	H	0.841941	-0.609765	0.391208
C52	C	0.903804	-0.659967	0.159852
C53	C	0.939699	-0.709895	0.267726
H54	H	0.910394	-0.707467	0.087437
H55	H	0.945405	-0.597873	0.153998
H56	H	0.831251	-0.640700	0.164943
H57	H	1.012254	-0.729148	0.262640
H58	H	0.898110	-0.771993	0.273576
H59	H	1.488557	-0.562296	1.085932
O60	O	1.139306	-0.341433	0.438430
C61	C	1.095154	-0.376949	0.317214
H62	H	1.075212	-0.465424	0.314639
H63	H	1.019478	-0.330470	0.293857
C64	C	1.200582	-0.250350	0.222997
C65	C	1.176098	-0.359018	0.219831
H66	H	1.250509	-0.239285	0.162925
H67	H	1.230326	-0.226419	0.304663
H68	H	1.137512	-0.211630	0.203536
H69	H	1.239165	-0.397734	0.239307
H70	H	1.146367	-0.382956	0.138166
H71	H	1.394807	-1.043223	0.550803
O72	O	1.009731	-0.274392	0.670396
C73	C	1.053643	-0.239530	0.791935
H74	H	1.077038	-0.311490	0.846230
H75	H	1.127180	-0.188380	0.784087
C76	C	0.941934	-0.084957	0.795272
C77	C	0.970660	-0.173339	0.861961
H78	H	0.890749	-0.044123	0.838467
H79	H	0.912352	-0.108441	0.713387
H80	H	1.003223	-0.042344	0.788736
H81	H	0.909374	-0.215957	0.868482
H82	H	1.000229	-0.149860	0.943849
H83	H	1.515793	-0.920365	0.395232
H84	H	1.698935	-1.049039	0.452237
H85	H	1.760470	-0.902372	0.664956
