data_functionalizedCrystal
_audit_creation_method	'MofGen! by Chris Wilmer'
_symmetry_space_group_name_H-M	'P1'
_symmetry_Int_Tables_number	1
_symmetry_cell_setting	triclinic
loop_
_symmetry_equiv_pos_as_xyz
  x,y,z
_cell_length_a	21.395362
_cell_length_b	14.908520
_cell_length_c	21.395355
_cell_angle_alpha	86.719675
_cell_angle_beta	90.043940
_cell_angle_gamma	93.337688
loop_
_atom_site_label
_atom_site_type_symbol
_atom_site_fract_x
_atom_site_fract_y
_atom_site_fract_z
Zn1	Zn	0.943513	-0.358891	0.368965
Zn2	Zn	1.443513	0.141109	0.868965
Zn3	Zn	0.937386	-0.509736	0.270231
Zn4	Zn	1.437386	-0.009736	0.770231
Zn5	Zn	0.838727	-0.358933	0.264168
Zn6	Zn	1.338727	0.141067	0.764168
Zn7	Zn	0.832667	-0.509755	0.374937
Zn8	Zn	1.332667	-0.009755	0.874937
O9	O	0.888073	-0.434329	0.319575
O10	O	1.388073	0.065671	0.819575
O11	O	1.030380	-0.378876	0.355906
O12	O	1.530380	0.121124	0.855906
O13	O	0.924270	-0.489742	0.181749
O14	O	1.424270	0.010258	0.681749
O15	O	0.857727	-0.232679	0.273033
O16	O	1.357727	0.267321	0.773033
O17	O	1.025878	-0.489701	0.283367
O18	O	1.525878	0.010299	0.783367
O19	O	0.934713	-0.232649	0.350027
O20	O	1.434713	0.267351	0.850027
O21	O	0.851786	-0.378948	0.177295
O22	O	1.351786	0.121052	0.677295
O23	O	0.750244	-0.378966	0.278823
O24	O	1.250244	0.121034	0.778823
O25	O	0.847399	-0.489733	0.461822
O26	O	1.347399	0.010267	0.961822
O27	O	0.745792	-0.489773	0.360205
O28	O	1.245792	0.010227	0.860205
O29	O	0.928838	-0.378894	0.457435
O30	O	1.428838	0.121106	0.957435
O31	O	0.918395	-0.635987	0.289157
O32	O	1.418395	-0.135987	0.789157
O33	O	0.841458	-0.636001	0.366084
O34	O	1.341458	-0.136001	0.866084
C35	C	0.725284	-0.434377	0.319504
C36	C	1.225284	0.065623	0.819504
C37	C	0.655641	-0.434419	0.319490
C38	C	1.155641	0.065581	0.819490
C39	C	0.620623	-0.492193	0.361808
C40	C	1.120623	0.007807	0.861808
C41	C	0.555188	-0.492171	0.361835
C42	C	1.055188	0.007829	0.861835
C43	C	0.524774	-0.434384	0.319533
C44	C	1.024774	0.065616	0.819533
C45	C	0.559800	-0.376599	0.277212
C46	C	1.059800	0.123401	0.777212
C47	C	0.625234	-0.376616	0.277190
C48	C	1.125234	0.123384	0.777190
C49	C	0.421340	-0.427116	0.262837
C50	C	0.921340	0.072884	0.762837
C51	C	0.355907	-0.427105	0.262858
C52	C	0.855907	0.072895	0.762858
C53	C	0.322956	-0.434325	0.319600
C54	C	0.822956	0.065675	0.819600
C55	C	0.355444	-0.441575	0.376324
C56	C	0.855444	0.058425	0.876324
C57	C	0.420877	-0.441593	0.376302
C58	C	0.920877	0.058407	0.876302
C59	C	0.453823	-0.434358	0.319552
C60	C	0.953823	0.065642	0.819552
C61	C	0.216986	-0.492079	0.361951
C62	C	0.716986	0.007921	0.861951
C63	C	0.151550	-0.492050	0.361979
C64	C	0.651550	0.007950	0.861979
C65	C	0.156163	-0.376483	0.277350
C66	C	0.656163	0.123517	0.777350
C67	C	0.221598	-0.376506	0.277327
C68	C	0.721598	0.123494	0.777327
C69	C	0.252005	-0.434309	0.319627
C70	C	0.752005	0.065691	0.819627
C71	C	0.878621	-0.668729	0.328940
C72	C	1.378621	-0.168729	0.828940
C73	C	0.874634	-0.769006	0.332968
C74	C	1.374634	-0.269006	0.832968
C75	C	0.947340	-0.957362	0.260497
C76	C	1.447340	-0.457362	0.760497
C77	C	0.943596	-1.051582	0.264279
C78	C	1.443596	-0.551582	0.764279
C79	C	0.863407	-1.051666	0.344317
C80	C	1.363407	-0.551666	0.844317
C81	C	0.867151	-0.957446	0.340535
C82	C	1.367151	-0.457446	0.840535
C83	C	0.909118	-0.910298	0.298623
C84	C	1.409118	-0.410298	0.798623
C85	C	0.912858	-0.816077	0.294838
C86	C	1.412858	-0.316077	0.794838
C87	C	0.832672	-0.816163	0.374879
C88	C	1.332672	-0.316163	0.874879
C89	C	0.828929	-0.910382	0.378661
C90	C	1.328929	-0.410382	0.878661
C91	C	1.051498	-0.434282	0.319647
C92	C	1.551498	0.065718	0.819647
C93	C	1.121141	-0.434262	0.319677
C94	C	1.621141	0.065738	0.819677
C95	C	0.888126	-0.434311	0.482998
C96	C	1.388126	0.065689	0.982998
C97	C	0.888148	-0.434303	0.552639
C98	C	1.388148	0.065697	1.052639
C99	C	0.897580	-0.199014	0.310187
C100	C	1.397580	0.300986	0.810187
C101	C	0.901631	-0.098737	0.306187
C102	C	1.401631	0.401263	0.806187
C103	C	0.888059	-0.434282	0.156786
C104	C	1.388059	0.065718	0.656786
C105	C	0.888169	-0.434036	0.087135
C106	C	1.388169	0.065964	0.587135
C107	C	0.930552	-0.376587	0.583068
C108	C	1.430552	0.123413	1.083068
C109	C	0.930553	-0.376548	0.648502
C110	C	1.430553	0.123452	1.148502
C111	C	0.888156	-0.434242	0.683505
C112	C	1.388156	0.065758	1.183505
C113	C	0.845745	-0.491962	0.653068
C114	C	1.345745	0.008038	1.153068
C115	C	0.845741	-0.491992	0.587635
C116	C	1.345741	0.008008	1.087635
C117	C	0.879933	-0.515477	0.790423
C118	C	1.379933	-0.015477	1.290423
C119	C	0.879941	-0.515447	0.855855
C120	C	1.379941	-0.015447	1.355855
C121	C	0.888164	-0.434146	0.885322
C122	C	1.388164	0.065854	1.385322
C123	C	0.896392	-0.352872	0.849348
C124	C	1.396392	0.147128	1.349348
C125	C	0.896388	-0.352902	0.783915
C126	C	1.396388	0.147098	1.283915
C127	C	0.888155	-0.434214	0.754456
C128	C	1.388155	0.065786	1.254456
C129	C	0.930570	-0.376383	0.986702
C130	C	1.430570	0.123617	1.486702
C131	C	0.930566	-0.376343	1.052137
C132	C	1.430566	0.123657	1.552137
C133	C	0.845761	-0.491764	1.056701
C134	C	1.345761	0.008236	1.556701
C135	C	0.845762	-0.491797	0.991267
C136	C	1.345762	0.008203	1.491267
C137	C	0.888170	-0.434107	0.956272
C138	C	1.388170	0.065893	1.456272
H139	H	0.241745	-0.539140	0.396397
H140	H	0.741745	-0.039140	0.896397
H141	H	0.965081	-0.329544	0.673283
H142	H	1.465081	0.170456	1.173283
H143	H	0.794762	-0.948783	0.412786
H144	H	1.294762	-0.448783	0.912786
H145	H	0.329460	-0.421207	0.216670
H146	H	0.829460	0.078793	0.716670
N147	N	0.818150	-1.102526	0.389522
N148	N	1.318150	-0.602526	0.889522
H149	H	0.821581	-1.169355	0.386132
H150	H	1.321581	-0.669355	0.886132
H151	H	0.774057	-1.086144	0.379052
H152	H	1.274057	-0.586144	0.879052
N153	N	0.800030	-0.553984	1.094449
N154	N	1.300030	-0.053984	1.594449
H155	H	0.823804	-0.595773	1.123292
H156	H	1.323804	-0.095773	1.623292
H157	H	0.773178	-0.590496	1.065200
H158	H	1.273178	-0.090496	1.565200
N159	N	0.791440	-0.765402	0.416000
N160	N	1.291440	-0.265402	0.916000
H161	H	0.800176	-0.698559	0.407244
H162	H	1.300176	-0.198559	0.907244
H163	H	0.800512	-0.781823	0.461421
H164	H	1.300512	-0.281823	0.961421
H165	H	0.981507	-0.918973	0.226366
H166	H	1.481507	-0.418973	0.726366
H167	H	0.123040	-0.539095	0.396443
H168	H	0.623040	-0.039095	0.896443
N169	N	0.976299	-0.314072	1.084952
N170	N	1.476299	0.185928	1.584952
H171	H	1.020501	-0.328077	1.074161
H172	H	1.520501	0.171923	1.574161
H173	H	0.969814	-0.322820	1.131704
H174	H	1.469814	0.177180	1.631704
H175	H	0.535033	-0.329547	0.242770
H176	H	1.035033	0.170453	0.742770
H177	H	0.873070	-0.581665	0.766437
H178	H	1.373070	-0.081665	1.266437
H179	H	0.965083	-0.329610	0.554579
H180	H	1.465083	0.170390	1.054579
N181	N	0.123369	-0.314147	0.231727
N182	N	0.623369	0.185853	0.731727
H183	H	0.076603	-0.322900	0.238163
H184	H	0.576603	0.177100	0.738163
H185	H	0.134189	-0.328095	0.187516
H186	H	0.634189	0.171905	0.687516
H187	H	0.447326	-0.447493	0.422489
H188	H	0.947326	0.052507	0.922489
H189	H	0.811223	-0.538933	0.681571
H190	H	1.311223	-0.038933	1.181571
H191	H	0.448164	-0.421233	0.216627
H192	H	0.948164	0.078767	0.716627
N193	N	0.905264	-0.265251	0.745115
N194	N	1.405264	0.234749	1.245115
H195	H	0.910475	-0.213739	0.773706
H196	H	1.410475	0.286261	1.273706
H197	H	0.867426	-0.256898	0.717602
H198	H	1.367426	0.243102	1.217602
N199	N	0.905267	-0.265175	0.881119
N200	N	1.405267	0.234825	1.381119
H201	H	0.904019	-0.277483	0.928029
H202	H	1.404019	0.222517	1.428029
H203	H	0.870665	-0.224854	0.868037
H204	H	1.370665	0.275146	1.368037
N205	N	0.800017	-0.554034	0.958441
N206	N	1.300017	-0.054034	1.458441
H207	H	0.773155	-0.590572	0.990542
H208	H	1.273155	-0.090572	1.490542
H209	H	0.823821	-0.595796	0.932977
H210	H	1.323821	-0.095796	1.432977
N211	N	0.976305	-0.314163	0.948951
N212	N	1.476305	0.185837	1.448951
H213	H	1.003165	-0.277587	0.978159
H214	H	1.503165	0.222413	1.478159
H215	H	0.952486	-0.272435	0.920108
H216	H	1.452486	0.227565	1.420108
N217	N	0.800002	-0.554255	0.554820
N218	N	1.300002	-0.054255	1.054820
H219	H	0.823771	-0.596074	0.529367
H220	H	1.323771	-0.096074	1.029367
H221	H	0.772456	-0.517552	0.526215
H222	H	1.272456	-0.017552	1.026215
N223	N	0.653419	-0.554534	0.407430
N224	N	1.153419	-0.054534	0.907430
H225	H	0.621302	-0.591131	0.434243
H226	H	1.121302	-0.091131	0.934243
H227	H	0.682091	-0.517882	0.434996
H228	H	1.182091	-0.017882	0.934996
N229	N	0.517408	-0.554485	0.407481
N230	N	1.017408	-0.054485	0.907481
H231	H	0.546600	-0.591103	0.434275
H232	H	1.046600	-0.091103	0.934275
H233	H	0.488536	-0.596169	0.383599
H234	H	0.988536	-0.096169	0.883599
N235	N	0.871066	-0.603101	0.894653
N236	N	1.371066	-0.103101	1.394653
H237	H	0.908896	-0.611545	0.922165
H238	H	1.408896	-0.111545	1.422165
H239	H	0.865830	-0.654554	0.866017
H240	H	1.365830	-0.154554	1.366017
N241	N	0.319914	-0.449369	0.437531
N242	N	0.819914	0.050631	0.937531
H243	H	0.273533	-0.448253	0.428940
H244	H	0.773533	0.051747	0.928940
H245	H	0.333505	-0.397261	0.463516
H246	H	0.833505	0.102739	0.963516
N247	N	0.259364	-0.314186	0.231681
N248	N	0.759364	0.185814	0.731681
H249	H	0.247362	-0.328095	0.187458
H250	H	0.747362	0.171905	0.687458
H251	H	0.305420	-0.322985	0.238138
H252	H	0.805420	0.177015	0.738138
N253	N	0.663001	-0.314293	0.231544
N254	N	1.163001	0.185707	0.731544
H255	H	0.650997	-0.328201	0.187321
H256	H	1.150997	0.171799	0.687321
H257	H	0.709056	-0.323097	0.238001
H258	H	1.209056	0.176903	0.738001
N259	N	0.958119	-0.765220	0.249634
N260	N	1.458119	-0.265220	0.749634
H261	H	0.981766	-0.809336	0.226058
H262	H	1.481766	-0.309336	0.726058
H263	H	0.988654	-0.726064	0.273607
H264	H	1.488654	-0.226064	0.773607
H265	H	0.974722	-1.089898	0.233234
H266	H	1.474722	-0.589898	0.733234
