data_functionalizedCrystal
_audit_creation_method	'MofGen! by Chris Wilmer'
_symmetry_space_group_name_H-M	'P1'
_symmetry_Int_Tables_number	1
_symmetry_cell_setting	triclinic
loop_
_symmetry_equiv_pos_as_xyz
  x,y,z
_cell_length_a	10.489711
_cell_length_b	10.489741
_cell_length_c	14.586319
_cell_angle_alpha	89.996488
_cell_angle_beta	89.994956
_cell_angle_gamma	84.533091
loop_
_atom_site_label
_atom_site_type_symbol
_atom_site_fract_x
_atom_site_fract_y
_atom_site_fract_z
O1	O	1.694074	0.179786	-0.076273
O2	O	1.322874	0.196718	-0.076268
O3	O	1.516920	0.002653	-0.076265
O4	O	1.500027	0.373851	-0.076276
O5	O	1.516907	0.002650	0.076216
O6	O	1.322860	0.196715	0.076213
O7	O	1.694060	0.179783	0.076208
Cu8	Cu	1.508459	0.188249	0.090133
Cu9	Cu	1.508475	0.188252	-0.090193
O10	O	1.500014	0.373848	0.076205
C11	C	1.275334	0.195446	-0.000026
C12	C	1.133703	0.191644	-0.000024
C13	C	0.951317	0.308348	-0.000038
C14	C	1.043469	0.250054	-0.075216
C15	C	1.043428	0.250020	0.075118
C16	C	0.973518	0.126512	-0.075284
C17	C	0.973468	0.126494	0.075118
C18	C	1.065593	0.068111	-0.000078
C19	C	1.515638	-0.044880	-0.000025
C20	C	1.511820	-0.186509	-0.000027
C21	C	1.388354	-0.254636	-0.000032
C22	C	1.446672	-0.346766	0.075149
C23	C	1.446714	-0.346738	-0.075186
C24	C	1.570189	-0.276774	0.075216
C25	C	1.570214	-0.276736	-0.075186
C26	C	1.628622	-0.368839	0.000012
C27	C	1.741600	0.181055	-0.000035
C28	C	1.883231	0.184857	-0.000044
C29	C	1.501296	0.421381	-0.000037
C30	C	1.505114	0.563010	-0.000041
N31	N	1.508457	0.188245	0.216965
N32	N	1.508487	0.188245	-0.217025
C33	C	1.594410	0.102343	0.451973
C34	C	1.594413	0.102340	0.547954
C35	C	1.422525	0.274152	0.547961
C36	C	1.422516	0.274148	0.451981
C37	C	1.508466	0.188245	0.403990
C38	C	1.508478	0.188246	0.595951
C39	C	1.508482	0.188243	0.700018
C40	C	1.508461	0.188246	0.299916
H41	H	0.942715	0.074310	-0.138915
O42	O	1.124556	-0.053106	-0.000281
C43	C	1.155716	-0.255100	-0.079696
C44	C	1.088883	-0.117850	-0.079588
H45	H	1.126878	-0.307494	-0.143800
H46	H	1.263975	-0.251355	-0.079144
H47	H	1.125704	-0.308089	-0.016180
H48	H	1.118791	-0.064782	-0.143093
H49	H	0.980637	-0.121687	-0.080093
H50	H	1.664395	0.032389	0.587019
O51	O	1.677761	0.018690	0.405414
C52	C	1.750478	-0.202424	0.376167
C53	C	1.655992	-0.107807	0.428917
H54	H	1.732930	-0.304716	0.395164
H55	H	1.735741	-0.187822	0.299308
H56	H	1.852787	-0.184765	0.395025
H57	H	1.553647	-0.125408	0.410136
H58	H	1.670841	-0.122431	0.505763
O59	O	0.936477	0.064393	0.151040
C60	C	0.929826	0.059226	0.316120
C61	C	0.971766	0.129684	0.230207
H62	H	0.958365	0.111970	0.380148
H63	H	0.821496	0.056107	0.315083
H64	H	0.978652	-0.042628	0.316726
H65	H	0.923032	0.231569	0.229545
H66	H	1.080108	0.132700	0.231277
H67	H	1.622417	-0.245696	-0.138750
O68	O	0.892079	0.429454	-0.000290
C69	C	0.860416	0.631344	-0.079814
C70	C	0.927563	0.494224	-0.079647
H71	H	0.889100	0.683760	-0.143957
H72	H	0.752192	0.627340	-0.079221
H73	H	0.890315	0.684477	-0.016339
H74	H	0.897767	0.441013	-0.143111
H75	H	1.035774	0.498321	-0.080192
O76	O	1.080311	0.312328	-0.151111
C77	C	1.084948	0.319047	-0.316199
C78	C	1.043139	0.248365	-0.230348
H79	H	1.054936	0.267347	-0.380284
H80	H	1.037494	0.421446	-0.316125
H81	H	1.193464	0.320629	-0.315739
H82	H	0.934638	0.246685	-0.230751
H83	H	1.090687	0.146004	-0.230455
H84	H	1.394425	-0.377773	0.138709
O85	O	1.080181	0.312542	0.150918
C86	C	1.063321	0.509894	0.236522
C87	C	1.021580	0.439222	0.150658
H88	H	1.015982	0.612335	0.236331
H89	H	1.033121	0.458332	0.300624
H90	H	1.171851	0.511353	0.236145
H91	H	0.913056	0.437743	0.150946
H92	H	1.051875	0.490808	0.086595
O93	O	1.339169	0.357555	0.594724
C94	C	1.262957	0.433663	0.742588
C95	C	1.357444	0.339156	0.689747
H96	H	1.277681	0.418803	0.819423
H97	H	1.280516	0.536020	0.723774
H98	H	1.160650	0.416072	0.723677
H99	H	1.459787	0.356631	0.708630
H100	H	1.339774	0.236832	0.708566
H101	H	1.352524	0.344100	0.412911
H102	H	1.622379	-0.245948	0.138846
O103	O	1.267232	-0.195438	0.000217
C104	C	1.065330	-0.163838	0.079736
C105	C	1.202470	-0.230938	0.079574
H106	H	1.012921	-0.192536	0.143880
H107	H	1.069295	-0.055610	0.079141
H108	H	1.012215	-0.193764	0.016261
H109	H	1.255663	-0.201117	0.143039
H110	H	1.198412	-0.339154	0.080122
H111	H	1.394463	-0.377695	-0.138750
O112	O	1.749852	-0.427769	0.000218
C113	C	1.951842	-0.458868	0.079640
C114	C	1.814578	-0.392070	0.079526
H115	H	2.004222	-0.430009	0.143743
H116	H	1.948126	-0.567130	0.079090
H117	H	2.004828	-0.428847	0.016124
H118	H	1.761513	-0.421987	0.143031
H119	H	1.818386	-0.283821	0.080028
