data_functionalizedCrystal
_audit_creation_method	'MofGen! by Chris Wilmer'
_symmetry_space_group_name_H-M	'P1'
_symmetry_Int_Tables_number	1
_symmetry_cell_setting	triclinic
loop_
_symmetry_equiv_pos_as_xyz
  x,y,z
_cell_length_a	14.971491
_cell_length_b	23.532357
_cell_length_c	13.448316
_cell_angle_alpha	89.987857
_cell_angle_beta	89.991393
_cell_angle_gamma	83.222263
loop_
_atom_site_label
_atom_site_type_symbol
_atom_site_fract_x
_atom_site_fract_y
_atom_site_fract_z
O1	O	1.186139	0.074232	-0.082747
O2	O	0.925644	0.083117	-0.082741
O3	O	1.063770	-0.004225	-0.082724
O4	O	1.048013	0.161574	-0.082764
O5	O	1.063753	-0.004231	0.082660
O6	O	0.925626	0.083111	0.082643
O7	O	1.186122	0.074227	0.082637
Cu8	Cu	1.055873	0.078669	0.097741
Cu9	Cu	1.055893	0.078675	-0.097845
O10	O	1.047996	0.161569	0.082620
C11	C	0.892315	0.082716	-0.000048
C12	C	0.793031	0.081524	-0.000045
C13	C	0.365390	0.076382	-0.090217
C14	C	0.458678	0.077501	-0.090214
C15	C	0.505309	0.078061	-0.000060
C16	C	0.458647	0.077496	0.090097
C17	C	0.365362	0.076374	0.090092
C18	C	0.653084	0.079838	0.090100
C19	C	0.746375	0.080961	0.090105
C20	C	0.746400	0.080965	-0.090206
C21	C	0.653115	0.079842	-0.090211
C22	C	0.606460	0.079279	-0.000054
C23	C	1.063367	-0.025446	-0.000029
C24	C	1.062182	-0.088670	-0.000019
C25	C	1.054752	-0.480710	-0.090224
C26	C	1.053626	-0.540115	-0.090229
O27	O	1.053021	-0.570831	-0.166899
N28	N	1.053058	-0.569831	-0.000080
C29	C	1.053607	-0.540140	0.090081
O30	O	1.053020	-0.570870	0.166760
C31	C	1.054727	-0.480736	0.090086
C32	C	1.055305	-0.451023	-0.000069
C33	C	1.055329	-0.450997	-0.180372
C34	C	1.056457	-0.391597	-0.180366
C35	C	1.057009	-0.361910	-0.090211
C36	C	1.056433	-0.391623	-0.000063
C37	C	1.055270	-0.451045	0.180246
C38	C	1.056390	-0.391637	0.180243
C39	C	1.056967	-0.361924	0.090087
C40	C	1.058113	-0.302536	0.090097
N41	N	1.058681	-0.272819	-0.000053
C42	C	1.058129	-0.302506	-0.090207
C43	C	1.051254	-0.664891	0.090065
C44	C	1.050140	-0.724294	0.090061
C45	C	1.050157	-0.724265	-0.090250
C46	C	1.051277	-0.664861	-0.090245
C47	C	1.051822	-0.635175	-0.000085
C48	C	1.060498	-0.177762	-0.090187
C49	C	1.061630	-0.118357	-0.090173
C50	C	1.061608	-0.118391	0.090137
C51	C	1.060481	-0.177791	0.090123
C52	C	1.059923	-0.207475	-0.000047
O53	O	1.058715	-0.271781	0.166727
O54	O	1.058704	-0.271767	-0.166873
C55	C	1.219451	0.074627	-0.000058
C56	C	1.318735	0.075820	-0.000068
C57	C	1.048398	0.182790	-0.000078
C58	C	1.049583	0.246014	-0.000094
N59	N	1.055865	0.078664	0.235305
N60	N	1.055908	0.078675	-0.235409
C61	C	1.117046	0.040005	0.287353
C62	C	1.117052	0.040004	0.391456
C63	C	1.055880	0.078666	0.443510
C64	C	0.994692	0.117327	0.391454
C65	C	0.994683	0.117324	0.287353
C66	C	0.994717	0.117331	0.608434
C67	C	0.994727	0.117335	0.712543
C68	C	1.117086	0.040011	0.712538
C69	C	1.117076	0.040008	0.608436
C70	C	1.055890	0.078670	0.556388
H71	H	0.784391	0.081424	-0.163615
C72	C	1.049540	-0.756928	-0.189419
H73	H	1.048780	-0.796560	-0.176502
H74	H	1.101891	-0.751502	-0.226470
H75	H	0.997551	-0.742878	-0.226454
C76	C	1.057086	-0.358918	-0.279535
H77	H	1.057842	-0.319287	-0.266633
H78	H	1.004741	-0.364341	-0.316576
H79	H	1.109080	-0.372963	-0.316573
H80	H	0.944889	0.148812	0.566060
C81	C	1.184341	-0.002519	0.230099
H82	H	1.175582	0.003020	0.160645
H83	H	1.174988	-0.040540	0.247176
H84	H	1.243977	0.003738	0.247145
H85	H	1.054876	-0.475162	-0.253790
C86	C	0.927387	0.159852	0.230100
H87	H	0.890962	0.182882	0.276009
H88	H	0.890343	0.139324	0.189509
H89	H	0.959344	0.183595	0.189472
C90	C	0.601764	0.079221	0.189270
H91	H	0.642893	0.079722	0.242964
H92	H	0.572496	0.045599	0.193032
H93	H	0.558248	0.111974	0.193000
C94	C	0.927383	0.159825	0.769800
H95	H	0.890917	0.182835	0.723895
H96	H	0.959284	0.183584	0.810422
H97	H	0.890372	0.139257	0.810398
C98	C	0.509995	0.078123	-0.189378
H99	H	0.468861	0.077636	-0.243071
H100	H	0.553512	0.045375	-0.193121
H101	H	0.539258	0.111750	-0.193130
H102	H	1.166891	0.008529	0.566055
H103	H	1.166905	0.008531	0.754921
C104	C	0.797675	0.081542	0.189271
H105	H	0.756534	0.081029	0.242965
H106	H	0.826958	0.115156	0.193049
H107	H	0.841177	0.048781	0.192986
H108	H	0.944880	0.148805	0.433842
H109	H	1.049684	-0.748483	0.163475
C110	C	0.314104	0.075771	-0.189388
H111	H	0.355255	0.076262	-0.243077
H112	H	0.270589	0.108519	-0.193147
H113	H	0.284840	0.042145	-0.193131
H114	H	1.060040	-0.201923	-0.163613
H115	H	1.051700	-0.640724	0.163489
C116	C	0.314040	0.075758	0.189256
H117	H	0.355169	0.076258	0.242950
H118	H	0.284775	0.042135	0.193014
H119	H	0.270523	0.108510	0.192990
H120	H	1.056820	-0.367468	0.253664
C121	C	1.062266	-0.085674	-0.189345
H122	H	1.063026	-0.046044	-0.176436
H123	H	1.009921	-0.091093	-0.226391
H124	H	1.114260	-0.099719	-0.226383
C125	C	1.051903	-0.632182	-0.189415
H126	H	1.051409	-0.658375	-0.243103
H127	H	1.104504	-0.613315	-0.193167
H128	H	1.000165	-0.604701	-0.193163
C129	C	1.054626	-0.483715	0.279419
H130	H	1.055103	-0.457518	0.333103
H131	H	1.106350	-0.511201	0.283184
H132	H	1.002011	-0.502574	0.283162
H133	H	0.615150	0.079390	-0.163622
H134	H	1.060020	-0.201985	0.163535
C135	C	1.062211	-0.085727	0.189298
H136	H	1.062954	-0.046093	0.176382
H137	H	1.114184	-0.099773	0.226351
H138	H	1.009845	-0.091155	0.226333
H139	H	1.166869	0.008525	0.433833
H140	H	0.496622	0.077949	0.163502
