data_functionalizedCrystal
_audit_creation_method	'MofGen! by Chris Wilmer'
_symmetry_space_group_name_H-M	'P1'
_symmetry_Int_Tables_number	1
_symmetry_cell_setting	triclinic
loop_
_symmetry_equiv_pos_as_xyz
  x,y,z
_cell_length_a	18.215405
_cell_length_b	21.395364
_cell_length_c	21.395355
_cell_angle_alpha	90.025677
_cell_angle_beta	89.980149
_cell_angle_gamma	89.981083
loop_
_atom_site_label
_atom_site_type_symbol
_atom_site_fract_x
_atom_site_fract_y
_atom_site_fract_z
Zn1	Zn	-0.293187	-0.957884	-0.354274
Zn2	Zn	0.040147	-0.624551	-0.020941
Zn3	Zn	0.373480	-0.291218	0.312392
Zn4	Zn	-0.416235	-0.957797	-0.249494
Zn5	Zn	-0.082902	-0.624464	0.083839
Zn6	Zn	0.250432	-0.291131	0.417172
Zn7	Zn	-0.293174	-0.853099	-0.249509
Zn8	Zn	0.040159	-0.519766	0.083824
Zn9	Zn	0.373493	-0.186433	0.417158
Zn10	Zn	-0.416203	-0.853079	-0.354233
Zn11	Zn	-0.082870	-0.519746	-0.020899
Zn12	Zn	0.250463	-0.186413	0.312434
O13	O	-0.354700	-0.905465	-0.301878
O14	O	-0.021366	-0.572132	0.031456
O15	O	0.311967	-0.238798	0.364789
O16	O	-0.309528	-1.045551	-0.340386
O17	O	0.023805	-0.712217	-0.007053
O18	O	0.357139	-0.378884	0.326280
O19	O	-0.399919	-0.943881	-0.161818
O20	O	-0.066585	-0.610548	0.171515
O21	O	0.266748	-0.277214	0.504848
O22	O	-0.190191	-0.867044	-0.263430
O23	O	0.143142	-0.533711	0.069903
O24	O	0.476475	-0.200377	0.403237
O25	O	-0.399931	-1.045487	-0.263405
O26	O	-0.066598	-0.712154	0.069928
O27	O	0.266736	-0.378820	0.403262
O28	O	-0.190201	-0.944029	-0.340401
O29	O	0.143133	-0.610696	-0.007067
O30	O	0.476466	-0.277363	0.326266
O31	O	-0.309506	-0.866960	-0.161829
O32	O	0.023827	-0.533627	0.171504
O33	O	0.357160	-0.200293	0.504837
O34	O	-0.309476	-0.765419	-0.263389
O35	O	0.023858	-0.432085	0.069944
O36	O	0.357191	-0.098752	0.403277
O37	O	-0.399877	-0.867010	-0.441916
O38	O	-0.066543	-0.533676	-0.108583
O39	O	0.266790	-0.200343	0.224751
O40	O	-0.399865	-0.765404	-0.340329
O41	O	-0.066531	-0.432071	-0.006996
O42	O	0.266802	-0.098737	0.326337
O43	O	-0.309497	-0.944010	-0.441947
O44	O	0.023836	-0.610676	-0.108613
O45	O	0.357170	-0.277343	0.224720
O46	O	-0.519215	-0.943862	-0.263365
O47	O	-0.185882	-0.610528	0.069969
O48	O	0.147452	-0.277195	0.403302
O49	O	-0.519192	-0.866925	-0.340315
O50	O	-0.185858	-0.533592	-0.006982
O51	O	0.147475	-0.200259	0.326351
C52	C	-0.354666	-0.742678	-0.301857
C53	C	-0.021332	-0.409344	0.031476
C54	C	0.312001	-0.076011	0.364810
C55	C	-0.354669	-0.673036	-0.301863
C56	C	-0.021336	-0.339703	0.031471
C57	C	0.311998	-0.006370	0.364804
C58	C	-0.545906	-0.905399	-0.301847
C59	C	-0.212573	-0.572066	0.031486
C60	C	0.120761	-0.238732	0.364819
C61	C	-0.627705	-0.905428	-0.301856
C62	C	-0.294372	-0.572095	0.031478
C63	C	0.038962	-0.238761	0.364811
C64	C	-0.307712	-0.171273	-0.342021
C65	C	0.025621	0.162061	-0.008688
C66	C	0.358955	0.495394	0.324646
C67	C	-0.307709	-0.236708	-0.342022
C68	C	0.025625	0.096625	-0.008689
C69	C	0.358958	0.429959	0.324644
C70	C	-0.354700	-0.269398	-0.301879
C71	C	-0.021366	0.063935	0.031455
C72	C	0.311967	0.397269	0.364788
C73	C	-0.401711	-0.236647	-0.261743
C74	C	-0.068377	0.096686	0.071591
C75	C	0.264956	0.430020	0.404924
C76	C	-0.401718	-0.171213	-0.261747
C77	C	-0.068384	0.162121	0.071586
C78	C	0.264949	0.495454	0.404920
C79	C	-0.360402	-0.373035	-0.245414
C80	C	-0.027069	-0.039702	0.087920
C81	C	0.306265	0.293632	0.421253
C82	C	-0.360390	-0.438468	-0.245408
C83	C	-0.027057	-0.105135	0.087925
C84	C	0.306277	0.228199	0.421259
C85	C	-0.354682	-0.471219	-0.301866
C86	C	-0.021349	-0.137885	0.031468
C87	C	0.311984	0.195448	0.364801
C88	C	-0.348971	-0.438528	-0.358330
C89	C	-0.015638	-0.105195	-0.024997
C90	C	0.317695	0.228138	0.308336
C91	C	-0.348978	-0.373094	-0.358335
C92	C	-0.015645	-0.039761	-0.025001
C93	C	0.317688	0.293572	0.308332
C94	C	-0.354698	-0.340350	-0.301870
C95	C	-0.021364	-0.007017	0.031463
C96	C	0.311969	0.326316	0.364797
C97	C	-0.307675	-0.574914	-0.342004
C98	C	0.025659	-0.241581	-0.008670
C99	C	0.358992	0.091752	0.324663
C100	C	-0.307677	-0.640351	-0.342006
C101	C	0.025657	-0.307018	-0.008673
C102	C	0.358990	0.026316	0.324661
C103	C	-0.401675	-0.640289	-0.261721
C104	C	-0.068341	-0.306955	0.071613
C105	C	0.264992	0.026378	0.404946
C106	C	-0.401676	-0.574853	-0.261724
C107	C	-0.068343	-0.241520	0.071609
C108	C	0.264990	0.091813	0.404943
C109	C	-0.354673	-0.542170	-0.301865
C110	C	-0.021339	-0.208837	0.031469
C111	C	0.311994	0.124497	0.364802
C112	C	-0.815887	-0.945583	-0.261861
C113	C	-0.482553	-0.612249	0.071472
C114	C	-0.149220	-0.278916	0.404806
C115	C	-0.892745	-0.945611	-0.261876
C116	C	-0.559412	-0.612277	0.071457
C117	C	-0.226079	-0.278944	0.404790
C118	C	-0.892761	-0.865428	-0.341939
C119	C	-0.559428	-0.532094	-0.008606
C120	C	-0.226094	-0.198761	0.324727
C121	C	-0.815904	-0.865403	-0.341927
C122	C	-0.482570	-0.532070	-0.008593
C123	C	-0.149237	-0.198737	0.324740
C124	C	-0.777468	-0.905480	-0.301884
C125	C	-0.444135	-0.572147	0.031449
C126	C	-0.110802	-0.238813	0.364783
C127	C	-0.931184	-0.905532	-0.301912
C128	C	-0.597851	-0.572199	0.031422
C129	C	-0.264518	-0.238866	0.364755
C130	C	-1.014518	-0.905562	-0.301928
C131	C	-0.681185	-0.572229	0.031405
C132	C	-0.347851	-0.238896	0.364738
C133	C	-0.694129	-0.905451	-0.301868
C134	C	-0.360796	-0.572117	0.031465
C135	C	-0.027463	-0.238784	0.364799
C136	C	-0.162747	-0.905549	-0.301922
C137	C	0.170587	-0.572215	0.031412
C138	C	0.503920	-0.238882	0.364745
C139	C	-0.080948	-0.905584	-0.301940
C140	C	0.252385	-0.572251	0.031393
C141	C	0.585719	-0.238918	0.364726
C142	C	-0.354685	-0.905517	-0.465301
C143	C	-0.021352	-0.572184	-0.131968
C144	C	0.311982	-0.238850	0.201366
C145	C	-0.354678	-0.905539	-0.534942
C146	C	-0.021345	-0.572206	-0.201609
C147	C	0.311988	-0.238873	0.131724
C148	C	-0.354725	-0.068888	-0.301894
C149	C	-0.021392	0.264445	0.031440
C150	C	0.311941	0.597778	0.364773
C151	C	-0.354714	-0.138530	-0.301888
C152	C	-0.021380	0.194804	0.031446
C153	C	0.311953	0.528137	0.364779
C154	C	-0.307616	-0.945631	-0.567672
C155	C	0.025718	-0.612298	-0.234339
C156	C	0.359051	-0.278965	0.098994
C157	C	-0.307584	-0.945631	-0.633108
C158	C	0.025749	-0.612297	-0.299774
C159	C	0.359083	-0.278964	0.033559
C160	C	-0.354628	-0.905544	-0.665811
C161	C	-0.021295	-0.572211	-0.332477
C162	C	0.312038	-0.238877	0.000856
C163	C	-0.401694	-0.865444	-0.633073
C164	C	-0.068361	-0.532111	-0.299739
C165	C	0.264972	-0.198778	0.033594
C166	C	-0.401719	-0.865442	-0.567638
C167	C	-0.068386	-0.532108	-0.234305
C168	C	0.264947	-0.198775	0.099028
C169	C	-0.420892	-0.900574	-0.769475
C170	C	-0.087558	-0.567241	-0.436141
C171	C	0.245775	-0.233907	-0.102808
C172	C	-0.420868	-0.900581	-0.834908
C173	C	-0.087535	-0.567247	-0.501574
C174	C	0.245799	-0.233914	-0.168241
C175	C	-0.354551	-0.905548	-0.867631
C176	C	-0.021217	-0.572215	-0.534298
C177	C	0.312116	-0.238881	-0.200965
C178	C	-0.288255	-0.910522	-0.834914
C179	C	0.045078	-0.577188	-0.501581
C180	C	0.378412	-0.243855	-0.168248
C181	C	-0.288280	-0.910519	-0.769480
C182	C	0.045053	-0.577186	-0.436147
C183	C	0.378387	-0.243852	-0.102813
C184	C	-0.354606	-0.905542	-0.736763
C185	C	-0.021273	-0.572209	-0.403430
C186	C	0.312061	-0.238875	-0.070096
C187	C	-0.307450	-0.945641	-0.971314
C188	C	0.025884	-0.612308	-0.637981
C189	C	0.359217	-0.278975	-0.304648
C190	C	-0.307417	-0.945636	-1.036751
C191	C	0.025917	-0.612303	-0.703418
C192	C	0.359250	-0.278969	-0.370084
C193	C	-0.401533	-0.865453	-1.036714
C194	C	-0.068200	-0.532120	-0.703381
C195	C	0.265133	-0.198786	-0.370048
C196	C	-0.401560	-0.865455	-0.971279
C197	C	-0.068226	-0.532122	-0.637946
C198	C	0.265107	-0.198788	-0.304612
C199	C	-0.354519	-0.905553	-0.938583
C200	C	-0.021186	-0.572219	-0.605249
C201	C	0.312148	-0.238886	-0.271916
C202	C	-0.354661	-0.905449	-0.139090
C203	C	-0.021328	-0.572116	0.194243
C204	C	0.312005	-0.238783	0.527577
C205	C	-0.354461	-0.905549	-0.069449
C206	C	-0.021127	-0.572215	0.263884
C207	C	0.312206	-0.238882	0.597218
H208	H	-0.269441	-0.144666	-0.374709
H209	H	0.063893	0.188667	-0.041376
H210	H	0.397226	0.522001	0.291957
N211	N	-0.256868	-0.988861	-0.532401
N212	N	0.076465	-0.655527	-0.199067
N213	N	0.409799	-0.322194	0.134266
H214	H	-0.286786	-1.017882	-0.505259
H215	H	0.046547	-0.684549	-0.171925
H216	H	0.379881	-0.351215	0.161408
H217	H	-0.227051	-1.014217	-0.563102
H218	H	0.106282	-0.680884	-0.229769
H219	H	0.439615	-0.347550	0.103564
H220	H	-0.344330	-0.346481	-0.404310
H221	H	-0.010997	-0.013147	-0.070977
H222	H	0.322336	0.320186	0.262357
H223	H	-0.344320	-0.465193	-0.404303
H224	H	-0.010987	-0.131859	-0.070970
H225	H	0.322347	0.201474	0.262364
H226	H	-0.269256	-0.978277	-0.659762
H227	H	0.064077	-0.644944	-0.326429
H228	H	0.397411	-0.311610	0.006905
H229	H	-0.234300	-0.914567	-0.742844
H230	H	0.099033	-0.581234	-0.409511
H231	H	0.432367	-0.247900	-0.076178
N232	N	-0.452409	-0.135889	-0.218457
N233	N	-0.119075	0.197444	0.114877
N234	N	0.214258	0.530778	0.448210
H235	H	-0.505007	-0.147267	-0.228106
H236	H	-0.171674	0.186066	0.105227
H237	H	0.161660	0.519400	0.438560
H238	H	-0.440840	-0.147270	-0.173724
H239	H	-0.107507	0.186063	0.159610
H240	H	0.225826	0.519396	0.492943
H241	H	-0.439888	-0.832811	-0.944630
H242	H	-0.106554	-0.499478	-0.611296
H243	H	0.226779	-0.166145	-0.277963
H244	H	-0.440043	-0.832791	-0.540990
H245	H	-0.106709	-0.499458	-0.207657
H246	H	0.226624	-0.166124	0.125677
N247	N	-0.366553	-0.473729	-0.184514
N248	N	-0.033220	-0.140395	0.148819
N249	N	0.300113	0.192938	0.482153
H250	H	-0.321708	-0.500882	-0.178701
H251	H	0.011626	-0.167549	0.154633
H252	H	0.344959	0.165784	0.487966
H253	H	-0.370204	-0.443018	-0.148785
H254	H	-0.036871	-0.109685	0.184549
H255	H	0.296462	0.223648	0.517882
N256	N	-0.366538	-0.337716	-0.184514
N257	N	-0.033205	-0.004383	0.148820
N258	N	0.300129	0.328951	0.482153
H259	H	-0.365673	-0.291304	-0.193083
H260	H	-0.032340	0.042030	0.140250
H261	H	0.300994	0.375363	0.473584
H262	H	-0.414122	-0.349127	-0.163138
H263	H	-0.080789	-0.015794	0.170195
H264	H	0.252544	0.317539	0.503529
N265	N	-0.452361	-0.539535	-0.218426
N266	N	-0.119027	-0.206201	0.114908
N267	N	0.214306	0.127132	0.448241
H268	H	-0.445235	-0.493123	-0.224519
H269	H	-0.111901	-0.159789	0.108814
H270	H	0.221432	0.173544	0.442148
H271	H	-0.504936	-0.550965	-0.228095
H272	H	-0.171603	-0.217632	0.105238
H273	H	0.161730	0.115702	0.438572
N274	N	-0.256984	-0.539657	-0.385298
N275	N	0.076349	-0.206324	-0.051964
N276	N	0.409683	0.127009	0.281369
H277	H	-0.227211	-0.570332	-0.410727
H278	H	0.106122	-0.236999	-0.077394
H279	H	0.439455	0.096335	0.255939
H280	H	-0.286992	-0.512514	-0.414247
H281	H	0.046341	-0.179181	-0.080914
H282	H	0.379675	0.154152	0.252419
H283	H	-0.234253	-0.914567	-0.861556
H284	H	0.099080	-0.581234	-0.528223
H285	H	0.432414	-0.247901	-0.194890
N286	N	-0.934183	-0.988866	-0.218710
N287	N	-0.600850	-0.655532	0.114623
N288	N	-0.267516	-0.322199	0.447956
H289	H	-0.898170	-1.014248	-0.193344
H290	H	-0.564836	-0.680915	0.139990
H291	H	-0.231503	-0.347582	0.473323
H292	H	-0.966113	-0.963387	-0.189696
H293	H	-0.632780	-0.630054	0.143637
H294	H	-0.299446	-0.296721	0.476970
N295	N	-0.774466	-0.822143	-0.385096
N296	N	-0.441133	-0.488810	-0.051763
N297	N	-0.107800	-0.155476	0.281571
H298	H	-0.742617	-0.793113	-0.359598
H299	H	-0.409284	-0.459780	-0.026265
H300	H	-0.075951	-0.126446	0.307068
H301	H	-0.742582	-0.847624	-0.414143
H302	H	-0.409248	-0.514291	-0.080810
H303	H	-0.075915	-0.180958	0.252523
N304	N	-0.257013	-0.272035	-0.385311
N305	N	0.076320	0.061299	-0.051978
N306	N	0.409653	0.394632	0.281355
H307	H	-0.227239	-0.241401	-0.410741
H308	H	0.106094	0.091933	-0.077408
H309	H	0.439428	0.425266	0.255926
H310	H	-0.222915	-0.299177	-0.359851
H311	H	0.110419	0.034157	-0.026518
H312	H	0.443752	0.367490	0.306815
H313	H	-0.269142	-0.978288	-0.944692
H314	H	0.064191	-0.644954	-0.611358
H315	H	0.397525	-0.311621	-0.278025
N316	N	-0.256640	-0.988869	-1.072056
N317	N	0.076693	-0.655536	-0.738723
N318	N	0.410026	-0.322202	-0.405389
H319	H	-0.226845	-1.014267	-1.041412
H320	H	0.106489	-0.680933	-0.708078
H321	H	0.439822	-0.347600	-0.374745
H322	H	-0.286585	-1.017852	-1.099224
H323	H	0.046748	-0.684518	-0.765890
H324	H	0.380081	-0.351185	-0.432557
H325	H	-0.924064	-0.832798	-0.374540
H326	H	-0.590731	-0.499465	-0.041206
H327	H	-0.257398	-0.166131	0.292127
H328	H	-0.439830	-0.832808	-1.063340
H329	H	-0.106497	-0.499474	-0.730007
H330	H	0.226836	-0.166141	-0.396674
N331	N	-0.256985	-0.675670	-0.385300
N332	N	0.076348	-0.342337	-0.051966
N333	N	0.409682	-0.009004	0.281367
H334	H	-0.227211	-0.645034	-0.410727
H335	H	0.106122	-0.311701	-0.077393
H336	H	0.439455	0.021633	0.255940
H337	H	-0.222886	-0.702816	-0.359845
H338	H	0.110447	-0.369483	-0.026512
H339	H	0.443781	-0.036150	0.306822
H340	H	-0.474850	-0.896535	-0.861541
H341	H	-0.141517	-0.563201	-0.528208
H342	H	0.191817	-0.229868	-0.194874
H343	H	-0.474882	-0.896361	-0.742837
H344	H	-0.141548	-0.563028	-0.409503
H345	H	0.191785	-0.229695	-0.076170
H346	H	-0.439996	-0.832804	-0.659703
H347	H	-0.106662	-0.499470	-0.326370
H348	H	0.226671	-0.166137	0.006963
H349	H	-0.439973	-0.263267	-0.229059
H350	H	-0.106639	0.070066	0.104274
H351	H	0.226694	0.403399	0.437608
N352	N	-0.452365	-0.675537	-0.218427
N353	N	-0.119032	-0.342204	0.114907
N354	N	0.214302	-0.008870	0.448240
H355	H	-0.445231	-0.721959	-0.224514
H356	H	-0.111898	-0.388625	0.108819
H357	H	0.221436	-0.055292	0.442152
H358	H	-0.440838	-0.664081	-0.173696
H359	H	-0.107505	-0.330747	0.159637
H360	H	0.225828	0.002586	0.492970
H361	H	-0.784594	-0.978216	-0.229257
H362	H	-0.451261	-0.644883	0.104076
H363	H	-0.117928	-0.311550	0.437410
