data_functionalizedCrystal
_audit_creation_method	'MofGen! by Chris Wilmer'
_symmetry_space_group_name_H-M	'P1'
_symmetry_Int_Tables_number	1
_symmetry_cell_setting	triclinic
loop_
_symmetry_equiv_pos_as_xyz
  x,y,z
_cell_length_a	16.109301
_cell_length_b	14.586319
_cell_length_c	16.109304
_cell_angle_alpha	89.999019
_cell_angle_beta	83.462059
_cell_angle_gamma	89.996501
loop_
_atom_site_label
_atom_site_type_symbol
_atom_site_fract_x
_atom_site_fract_y
_atom_site_fract_z
O1	O	1.103132	-0.076234	0.106866
O2	O	0.861070	-0.076235	0.120165
O3	O	0.988749	-0.076235	-0.007515
O4	O	0.975453	-0.076234	0.234546
O5	O	0.988741	0.076245	-0.007517
O6	O	0.861061	0.076245	0.120163
O7	O	1.103123	0.076247	0.106864
Cu8	Cu	0.982091	0.090169	0.113514
Cu9	Cu	0.982102	-0.090158	0.113516
O10	O	0.975444	0.076246	0.234545
C11	C	0.830091	0.000005	0.119626
C12	C	0.737795	0.000004	0.118010
C13	C	0.988206	0.000003	-0.038491
C14	C	0.986590	-0.000003	-0.130786
C15	C	1.134102	0.000004	0.107404
C16	C	1.226398	-0.000001	0.109019
N17	N	0.982090	0.217000	0.113511
C18	C	1.448669	0.000003	0.037011
C19	C	1.535390	0.000007	0.038535
C20	C	1.515517	0.000003	0.190024
C21	C	1.428798	0.000006	0.188499
C22	C	1.395377	0.000002	0.111990
C23	C	1.568816	0.000002	0.115039
C24	C	1.662842	0.000005	0.116692
C25	C	1.301345	-0.000000	0.110337
N26	N	0.982110	-0.216989	0.113511
C27	C	1.038645	0.452007	0.056993
C28	C	1.038647	0.547988	0.056991
C29	C	0.925549	0.547997	0.170032
C30	C	0.925543	0.452018	0.170029
C31	C	0.982096	0.404025	0.113511
C32	C	0.982104	0.595986	0.113512
C33	C	0.982106	0.700053	0.113510
C34	C	0.982093	0.299951	0.113512
C35	C	0.982861	-0.083117	-0.343123
C36	C	0.981335	-0.083116	-0.429843
C37	C	0.981330	0.083127	-0.429842
C38	C	0.982850	0.083125	-0.343122
C39	C	0.983620	0.000000	-0.299766
C40	C	0.980573	0.000003	-0.473205
C41	C	0.978919	0.000004	-0.567231
C42	C	0.985273	-0.000002	-0.205734
C43	C	0.975987	0.000006	0.265520
C44	C	0.977603	0.000006	0.357816
H45	H	1.421461	0.000002	-0.025287
H46	H	1.578778	0.000009	-0.022520
C47	C	0.983687	0.174561	-0.295424
C48	C	0.911326	0.243139	-0.297886
C49	C	0.912160	0.334571	-0.250187
C50	C	0.985355	0.357424	-0.200028
C51	C	1.057721	0.288843	-0.197564
C52	C	1.056887	0.197412	-0.245263
H53	H	0.857138	0.226224	-0.335019
H54	H	0.858589	0.385338	-0.252011
H55	H	0.985972	0.425106	-0.164719
H56	H	1.111909	0.305759	-0.160432
H57	H	1.110458	0.146645	-0.243439
H58	H	1.542739	0.000004	0.252315
H59	H	0.980704	0.150804	-0.465154
H60	H	1.385405	0.000008	0.249560
C61	C	0.983700	-0.174551	-0.295428
C62	C	0.982861	-0.265979	-0.343123
C63	C	0.983696	-0.357416	-0.295431
C64	C	0.985371	-0.357426	-0.200044
C65	C	0.986211	-0.265995	-0.152343
C66	C	0.985375	-0.174558	-0.200035
H67	H	0.981621	-0.265975	-0.413740
H68	H	0.983075	-0.425099	-0.330743
H69	H	0.985990	-0.425113	-0.164739
H70	H	0.987451	-0.265999	-0.081727
H71	H	0.985996	-0.106875	-0.164723
C72	C	1.100855	0.600769	-0.005176
C73	C	1.163066	0.547977	-0.067335
C74	C	1.225275	0.600758	-0.129506
C75	C	1.225273	0.706332	-0.129519
C76	C	1.163060	0.759130	-0.067358
C77	C	1.100851	0.706349	-0.005187
H78	H	1.163069	0.469820	-0.067327
H79	H	1.271329	0.561673	-0.175521
H80	H	1.271324	0.745404	-0.175542
H81	H	1.163057	0.837287	-0.067366
H82	H	1.054797	0.745434	0.040829
C83	C	0.863335	0.399229	0.232203
C84	C	0.801160	0.452014	0.294403
C85	C	0.738953	0.399224	0.356570
C86	C	0.738923	0.293651	0.356538
C87	C	0.801101	0.240860	0.294336
C88	C	0.863307	0.293650	0.232169
H89	H	0.801180	0.530171	0.294429
H90	H	0.692925	0.438304	0.402617
H91	H	0.692874	0.254573	0.402559
H92	H	0.801080	0.162703	0.294311
H93	H	0.909336	0.254571	0.186123
C94	C	0.980507	-0.174546	-0.477538
C95	C	0.907309	-0.197411	-0.527691
C96	C	0.906481	-0.288845	-0.575386
C97	C	0.978849	-0.357414	-0.572928
C98	C	1.052052	-0.334551	-0.522773
C99	C	1.052881	-0.243117	-0.475078
H100	H	0.853733	-0.146650	-0.529512
H101	H	0.852291	-0.305769	-0.612514
H102	H	0.978236	-0.425099	-0.608234
H103	H	1.105628	-0.385312	-0.520951
H104	H	1.107070	-0.226193	-0.437950
H105	H	1.084693	0.412933	0.010972
H106	H	0.879505	0.587083	0.216049
