data_functionalizedCrystal
_audit_creation_method	'MofGen! by Chris Wilmer'
_symmetry_space_group_name_H-M	'P1'
_symmetry_Int_Tables_number	1
_symmetry_cell_setting	triclinic
loop_
_symmetry_equiv_pos_as_xyz
  x,y,z
_cell_length_a	12.594516
_cell_length_b	13.897449
_cell_length_c	12.594510
_cell_angle_alpha	90.021319
_cell_angle_beta	89.968094
_cell_angle_gamma	89.982668
loop_
_atom_site_label
_atom_site_type_symbol
_atom_site_fract_x
_atom_site_fract_y
_atom_site_fract_z
Zn1	Zn	-0.423614	-1.474719	-0.601833
Zn2	Zn	-0.601642	-1.474616	-0.423861
Zn3	Zn	-0.423682	-1.313407	-0.423867
Zn4	Zn	-0.601555	-1.313395	-0.601796
O5	O	-0.512623	-1.394034	-0.512839
O6	O	-0.447238	-1.609687	-0.578238
O7	O	-0.578100	-1.453193	-0.274916
O8	O	-0.274727	-1.334853	-0.447493
O9	O	-0.578034	-1.609611	-0.447483
O10	O	-0.274677	-1.453369	-0.578244
O11	O	-0.447353	-1.334753	-0.274920
O12	O	-0.447269	-1.178423	-0.447456
O13	O	-0.577886	-1.334833	-0.750747
O14	O	-0.577951	-1.178415	-0.578180
O15	O	-0.447153	-1.453357	-0.750774
O16	O	-0.750576	-1.453182	-0.447446
O17	O	-0.750512	-1.334733	-0.578174
C18	C	-0.789164	-1.393971	-0.512829
C19	C	-0.907469	-1.394032	-0.512860
C20	C	-0.512609	-1.143420	-0.512815
C21	C	-0.512628	-1.036206	-0.512830
C22	C	-0.512502	-1.394105	-0.790460
C23	C	-0.512451	-1.394135	-0.908766
C24	C	-0.976726	-1.329602	-0.583913
C25	C	-1.047602	-1.306097	-0.486790
C26	C	-1.047393	-1.417624	-0.609999
C27	C	-0.976787	-1.370481	-0.415686
C28	C	-0.976571	-1.482049	-0.538960
C29	C	-1.047415	-1.458578	-0.441771
C30	C	-0.235002	-1.394124	-0.512873
C31	C	-0.116697	-1.394162	-0.512887
C32	C	-0.512638	-1.645627	-0.512864
C33	C	-0.512644	-1.752841	-0.512875
C34	C	-0.512632	-0.839911	-0.512858
C35	C	-0.512627	-0.949143	-0.512839
C36	C	-0.441324	-1.458624	-1.048798
C37	C	-0.538444	-1.482175	-0.977980
C38	C	-0.415341	-1.370627	-0.978012
C39	C	-0.609589	-1.417773	-1.048734
C40	C	-0.486421	-1.306184	-1.048772
C41	C	-0.583609	-1.329701	-0.977986
C42	C	-0.512667	-1.394019	-0.236298
C43	C	-0.512418	-1.394176	-0.117993
H44	H	-0.945687	-1.275017	-0.643912
H45	H	-1.078257	-1.513121	-0.381626
H46	H	-0.945351	-1.556406	-0.561060
Br47	Br	-1.099095	-1.450793	-0.746898
Br48	Br	-0.746486	-1.451086	-1.100286
H49	H	-0.643814	-1.275183	-0.947092
Br50	Br	-0.278490	-1.337459	-0.926226
H51	H	-0.464383	-1.231810	-1.079893
Br52	Br	-1.099599	-1.182130	-0.449999
Br53	Br	-0.925315	-1.337171	-0.278742
Br54	Br	-0.341216	-1.549555	-1.100622
Br55	Br	-0.575134	-1.606171	-0.926152
