data_functionalizedCrystal
_audit_creation_method	'MofGen! by Chris Wilmer'
_symmetry_space_group_name_H-M	'P1'
_symmetry_Int_Tables_number	1
_symmetry_cell_setting	triclinic
loop_
_symmetry_equiv_pos_as_xyz
  x,y,z
_cell_length_a	21.295418
_cell_length_b	29.839131
_cell_length_c	29.839125
_cell_angle_alpha	90.017709
_cell_angle_beta	90.031451
_cell_angle_gamma	90.057233
loop_
_atom_site_label
_atom_site_type_symbol
_atom_site_fract_x
_atom_site_fract_y
_atom_site_fract_z
Zn1	Zn	0.962232	-0.178727	0.254239
Zn2	Zn	1.295565	0.154607	0.587572
Zn3	Zn	1.628898	0.487940	0.920905
Zn4	Zn	0.962137	-0.253839	0.179109
Zn5	Zn	1.295470	0.079495	0.512442
Zn6	Zn	1.628803	0.412828	0.845775
Zn7	Zn	0.856977	-0.178744	0.179096
Zn8	Zn	1.190311	0.154589	0.512429
Zn9	Zn	1.523644	0.487922	0.845762
Zn10	Zn	0.856904	-0.253851	0.254185
Zn11	Zn	1.190238	0.079482	0.587518
Zn12	Zn	1.523571	0.412815	0.920851
O13	O	0.909562	-0.216290	0.216657
O14	O	1.242896	0.117043	0.549990
O15	O	1.576229	0.450376	0.883324
O16	O	1.050308	-0.188678	0.244300
O17	O	1.383642	0.144655	0.577634
O18	O	1.716975	0.477989	0.910967
O19	O	0.948178	-0.243880	0.116240
O20	O	1.281511	0.089454	0.449573
O21	O	1.614845	0.422787	0.782906
O22	O	0.871010	-0.115875	0.189081
O23	O	1.204343	0.217458	0.522414
O24	O	1.537677	0.550792	0.855748
O25	O	1.050239	-0.243862	0.189103
O26	O	1.383572	0.089471	0.522436
O27	O	1.716905	0.422804	0.855769
O28	O	0.948340	-0.115862	0.244288
O29	O	1.281673	0.217471	0.577621
O30	O	1.615007	0.550805	0.910955
O31	O	0.870918	-0.188708	0.116230
O32	O	1.204251	0.144625	0.449564
O33	O	1.537585	0.477959	0.782897
O34	O	0.768878	-0.188720	0.189028
O35	O	1.102212	0.144613	0.522362
O36	O	1.435545	0.477947	0.855695
O37	O	0.870885	-0.243884	0.317059
O38	O	1.204219	0.089450	0.650392
O39	O	1.537552	0.422783	0.983726
O40	O	0.768825	-0.243901	0.244196
O41	O	1.102158	0.089433	0.577529
O42	O	1.435491	0.422766	0.910863
O43	O	0.948269	-0.188690	0.317099
O44	O	1.281602	0.144643	0.650432
O45	O	1.614936	0.477977	0.983765
O46	O	0.948107	-0.316708	0.189050
O47	O	1.281440	0.016626	0.522384
O48	O	1.614774	0.349959	0.855717
O49	O	0.870793	-0.316717	0.244208
O50	O	1.204126	0.016617	0.577542
O51	O	1.537460	0.349950	0.910875
C52	C	0.746011	-0.216314	0.216605
C53	C	1.079344	0.117019	0.549938
C54	C	1.412677	0.450353	0.883272
C55	C	0.676043	-0.216335	0.216594
C56	C	1.009376	0.116999	0.549927
C57	C	1.342709	0.450332	0.883260
C58	C	0.909449	-0.333013	0.216635
C59	C	1.242782	0.000320	0.549968
C60	C	1.576115	0.333654	0.883301
C61	C	0.909458	-0.382947	0.216640
C62	C	1.242791	-0.049614	0.549973
C63	C	1.576124	0.283719	0.883307
C64	C	0.643165	-0.245105	0.245276
C65	C	0.976498	0.088228	0.578610
C66	C	1.309831	0.421561	0.911943
C67	C	0.577422	-0.245094	0.245297
C68	C	0.910755	0.088239	0.578630
C69	C	1.244089	0.421572	0.911963
C70	C	0.544560	-0.216317	0.216626
C71	C	0.877894	0.117016	0.549959
C72	C	1.211227	0.450349	0.883293
C73	C	0.577446	-0.187541	0.187941
C74	C	0.910780	0.145792	0.521275
C75	C	1.244113	0.479125	0.854608
C76	C	0.643188	-0.187550	0.187925
C77	C	0.976521	0.145783	0.521258
C78	C	1.309854	0.479117	0.854592
N79	N	0.441297	-0.212799	0.177333
N80	N	0.774630	0.120534	0.510666
N81	N	1.107964	0.453867	0.843999
N82	N	0.378846	-0.212794	0.177349
N83	N	0.712179	0.120540	0.510683
N84	N	1.045512	0.453873	0.844016
C85	C	0.346486	-0.216289	0.216674
C86	C	0.679819	0.117045	0.550007
C87	C	1.013152	0.450378	0.883340
N88	N	0.378936	-0.219799	0.255982
N89	N	0.712270	0.113535	0.589315
N90	N	1.045603	0.446868	0.922648
N91	N	0.441393	-0.219807	0.255964
N92	N	0.774727	0.113527	0.589298
N93	N	1.108060	0.446860	0.922631
C94	C	0.473275	-0.216305	0.216641
C95	C	0.806608	0.117029	0.549974
C96	C	1.139942	0.450362	0.883307
C97	C	0.242322	-0.245049	0.245381
C98	C	0.575655	0.088284	0.578714
C99	C	0.908989	0.421618	0.912047
C100	C	0.176578	-0.245035	0.245402
C101	C	0.509912	0.088299	0.578735
C102	C	0.843245	0.421632	0.912068
C103	C	0.176604	-0.187484	0.188042
C104	C	0.509937	0.145849	0.521376
C105	C	0.843270	0.479183	0.854709
C106	C	0.242346	-0.187496	0.188025
C107	C	0.575680	0.145838	0.521359
C108	C	0.909013	0.479171	0.854692
C109	C	0.275201	-0.216281	0.216694
C110	C	0.608535	0.117053	0.550027
C111	C	0.941868	0.450386	0.883361
C112	C	0.949893	-0.692573	0.187978
C113	C	1.283226	-0.359240	0.521311
C114	C	1.616560	-0.025907	0.854645
C115	C	0.949971	-0.880246	0.187996
C116	C	1.283304	-0.546913	0.521329
C117	C	1.616637	-0.213580	0.854662
O118	O	0.984260	-0.904496	0.163609
O119	O	1.317593	-0.571163	0.496942
O120	O	1.650927	-0.237830	0.830276
N121	N	0.909693	-0.903732	0.216691
N122	N	1.243026	-0.570399	0.550024
N123	N	1.576360	-0.237066	0.883357
C124	C	0.869396	-0.880297	0.245386
C125	C	1.202729	-0.546964	0.578719
C126	C	1.536063	-0.213630	0.912052
O127	O	0.835144	-0.904580	0.269796
O128	O	1.168477	-0.571246	0.603130
O129	O	1.501810	-0.237913	0.936463
C130	C	0.869322	-0.692625	0.245370
C131	C	1.202655	-0.359292	0.578704
C132	C	1.535989	-0.025958	0.912037
C133	C	0.909598	-0.669141	0.216670
C134	C	1.242931	-0.335808	0.550003
C135	C	1.576264	-0.002475	0.883337
C136	C	0.990166	-0.669090	0.159280
C137	C	1.323499	-0.335756	0.492614
C138	C	1.656833	-0.002423	0.825947
C139	C	0.990144	-0.622174	0.159275
C140	C	1.323477	-0.288841	0.492608
C141	C	1.656810	0.044492	0.825941
C142	C	0.949848	-0.598742	0.187966
C143	C	1.283182	-0.265409	0.521300
C144	C	1.616515	0.067924	0.854633
C145	C	0.909575	-0.622226	0.216664
C146	C	1.242909	-0.288893	0.549997
C147	C	1.576242	0.044441	0.883331
C148	C	0.829029	-0.669191	0.274067
C149	C	1.162362	-0.335857	0.607401
C150	C	1.495695	-0.002524	0.940734
C151	C	0.829015	-0.622270	0.274062
C152	C	1.162348	-0.288936	0.607395
C153	C	1.495681	0.044397	0.940728
C154	C	0.869291	-0.598786	0.245361
C155	C	1.202624	-0.265453	0.578695
C156	C	1.535957	0.067881	0.912028
C157	C	0.869258	-0.551879	0.245350
C158	C	1.202591	-0.218545	0.578683
C159	C	1.535925	0.114788	0.912017
N160	N	0.909536	-0.528393	0.216655
N161	N	1.242869	-0.195059	0.549988
N162	N	1.576202	0.138274	0.883322
C163	C	0.949831	-0.551825	0.187963
C164	C	1.283164	-0.218491	0.521296
C165	C	1.616498	0.114842	0.854630
C166	C	0.869437	-0.978828	0.245391
C167	C	1.202770	-0.645494	0.578725
C168	C	1.536103	-0.312161	0.912058
C169	C	0.869454	-1.025746	0.245395
C170	C	1.202788	-0.692412	0.578728
C171	C	1.536121	-0.359079	0.912061
C172	C	0.950030	-1.025691	0.188005
C173	C	1.283363	-0.692358	0.521338
C174	C	1.616697	-0.359025	0.854672
C175	C	0.950009	-0.978773	0.188000
C176	C	1.283342	-0.645439	0.521333
C177	C	1.616676	-0.312106	0.854666
C178	C	0.909714	-0.955342	0.216696
C179	C	1.243048	-0.622008	0.550029
C180	C	1.576381	-0.288675	0.883363
C181	C	0.949781	-0.453299	0.187953
C182	C	1.283114	-0.119965	0.521286
C183	C	1.616447	0.213368	0.854619
C184	C	0.949753	-0.406379	0.187948
C185	C	1.283086	-0.073046	0.521282
C186	C	1.616420	0.260288	0.854615
C187	C	0.869180	-0.406437	0.245339
C188	C	1.202513	-0.073104	0.578673
C189	C	1.535847	0.260229	0.912006
C190	C	0.869205	-0.453353	0.245343
C191	C	1.202538	-0.120020	0.578676
C192	C	1.535872	0.213314	0.912009
C193	C	0.909510	-0.476782	0.216648
C194	C	1.242844	-0.143449	0.549981
C195	C	1.576177	0.189884	0.883314
O196	O	0.834992	-0.527600	0.269728
O197	O	1.168325	-0.194266	0.603061
O198	O	1.501658	0.139067	0.936394
O199	O	0.984088	-0.527534	0.163563
O200	O	1.317421	-0.194201	0.496896
O201	O	1.650755	0.139133	0.830230
C202	C	0.949915	-0.739489	0.187984
C203	C	1.283249	-0.406155	0.521317
C204	C	1.616582	-0.072822	0.854651
C205	C	0.909642	-0.762972	0.216682
C206	C	1.242976	-0.429639	0.550015
C207	C	1.576309	-0.096306	0.883348
C208	C	0.869347	-0.739540	0.245373
C209	C	1.202680	-0.406207	0.578707
C210	C	1.536014	-0.072874	0.912040
C211	C	0.909660	-0.809890	0.216685
C212	C	1.242993	-0.476557	0.550018
C213	C	1.576326	-0.143223	0.883352
C214	C	0.949955	-0.833322	0.187993
C215	C	1.283288	-0.499989	0.521326
C216	C	1.616622	-0.166655	0.854660
C217	C	0.990233	-0.809836	0.159298
C218	C	1.323566	-0.476503	0.492631
C219	C	1.656899	-0.143169	0.825965
C220	C	0.990210	-0.762920	0.159292
C221	C	1.323544	-0.429587	0.492625
C222	C	1.656877	-0.096254	0.825959
C223	C	0.829069	-0.763026	0.274069
C224	C	1.162403	-0.429693	0.607402
C225	C	1.495736	-0.096360	0.940735
C226	C	0.829094	-0.809942	0.274072
C227	C	1.162428	-0.476609	0.607405
C228	C	1.495761	-0.143275	0.940738
C229	C	0.869390	-0.833374	0.245380
C230	C	1.202723	-0.500040	0.578713
C231	C	1.536056	-0.166707	0.912047
C232	C	1.073753	-0.216267	0.216709
C233	C	1.407086	0.117066	0.550042
C234	C	1.740419	0.450400	0.883376
C235	C	1.143721	-0.216257	0.216731
C236	C	1.477054	0.117076	0.550065
C237	C	1.810388	0.450410	0.883398
C238	C	0.909580	-0.216286	0.333835
C239	C	1.242913	0.117047	0.667169
C240	C	1.576246	0.450380	1.000502
C241	C	0.909587	-0.216284	0.383770
C242	C	1.242920	0.117049	0.717103
C243	C	1.576253	0.450382	1.050436
C244	C	0.909694	-0.099112	0.216689
C245	C	1.243027	0.234221	0.550022
C246	C	1.576360	0.567555	0.883356
C247	C	0.909750	-0.049177	0.216703
C248	C	1.243083	0.284156	0.550036
C249	C	1.576416	0.617489	0.883369
C250	C	0.909582	-0.216262	0.099934
C251	C	1.242915	0.117071	0.433268
C252	C	1.576248	0.450405	0.766601
C253	C	0.909697	-0.216137	0.050000
C254	C	1.243030	0.117196	0.383334
C255	C	1.576363	0.450530	0.716667
C256	C	0.949923	-0.187470	0.693437
C257	C	1.283256	0.145863	1.026770
C258	C	1.616589	0.479197	1.360104
C259	C	0.949954	-0.187432	0.881110
C260	C	1.283287	0.145902	1.214443
C261	C	1.616621	0.479235	1.547777
O262	O	0.984202	-0.162975	0.905395
O263	O	1.317536	0.170358	1.238728
O264	O	1.650869	0.503692	1.572062
N265	N	0.909670	-0.216164	0.904555
N266	N	1.243004	0.117169	1.237888
N267	N	1.576337	0.450502	1.571222
C268	C	0.869373	-0.244906	0.881079
C269	C	1.202706	0.088427	1.214412
C270	C	1.536040	0.421760	1.547745
O271	O	0.835105	-0.269341	0.905326
O272	O	1.168439	0.063992	1.238660
O273	O	1.501772	0.397326	1.571993
C274	C	0.869339	-0.244942	0.693407
C275	C	1.202672	0.088391	1.026740
C276	C	1.536006	0.421725	1.360073
C277	C	0.909630	-0.216211	0.669964
C278	C	1.242963	0.117123	1.003297
C279	C	1.576297	0.450456	1.336631
C280	C	0.990210	-0.158741	0.669994
C281	C	1.323543	0.174593	1.003328
C282	C	1.656877	0.507926	1.336661
C283	C	0.990204	-0.158752	0.623079
C284	C	1.323538	0.174581	0.956412
C285	C	1.656871	0.507914	1.289746
C286	C	0.949911	-0.187493	0.599606
C287	C	1.283245	0.145840	0.932939
C288	C	1.616578	0.479174	1.266273
C289	C	0.909624	-0.216222	0.623049
C290	C	1.242957	0.117111	0.956382
C291	C	1.576291	0.450444	1.289715
C292	C	0.829039	-0.273681	0.669931
C293	C	1.162372	0.059652	1.003265
C294	C	1.495706	0.392985	1.336598
C295	C	0.829033	-0.273687	0.623010
C296	C	1.162366	0.059646	0.956343
C297	C	1.495700	0.392980	1.289677
C298	C	0.869324	-0.244956	0.599568
C299	C	1.202657	0.088378	0.932901
C300	C	1.535990	0.421711	1.266234
C301	C	0.869325	-0.244975	0.552660
C302	C	1.202659	0.088359	0.885993
C303	C	1.535992	0.421692	1.219327
N304	N	0.909609	-0.216242	0.529215
N305	N	1.242942	0.117091	0.862549
N306	N	1.576276	0.450424	1.195882
C307	C	0.949902	-0.187501	0.552688
C308	C	1.283235	0.145832	0.886021
C309	C	1.616569	0.479165	1.219355
C310	C	0.869394	-0.244886	0.979609
C311	C	1.202728	0.088447	1.312943
C312	C	1.536061	0.421781	1.646276
C313	C	0.869404	-0.244878	1.026527
C314	C	1.202737	0.088456	1.359861
C315	C	1.536070	0.421789	1.693194
C316	C	0.949984	-0.187402	1.026555
C317	C	1.283317	0.145931	1.359889
C318	C	1.616651	0.479264	1.693222
C319	C	0.949978	-0.187413	0.979637
C320	C	1.283311	0.145920	1.312970
C321	C	1.616644	0.479253	1.646303
C322	C	0.909678	-0.216154	0.956165
C323	C	1.243012	0.117180	1.289498
C324	C	1.576345	0.450513	1.622831
C325	C	0.949887	-0.187528	0.454162
C326	C	1.283221	0.145805	0.787496
C327	C	1.616554	0.479138	1.120829
C328	C	0.949880	-0.187544	0.407243
C329	C	1.283213	0.145790	0.740576
C330	C	1.616546	0.479123	1.073909
C331	C	0.869297	-0.245017	0.407219
C332	C	1.202631	0.088316	0.740552
C333	C	1.535964	0.421650	1.073885
C334	C	0.869307	-0.245004	0.454134
C335	C	1.202640	0.088330	0.787468
C336	C	1.535973	0.421663	1.120801
C337	C	0.909604	-0.216255	0.477605
C338	C	1.242937	0.117078	0.810938
C339	C	1.576271	0.450411	1.144271
O340	O	0.835090	-0.269415	0.528346
O341	O	1.168423	0.063918	0.861680
O342	O	1.501757	0.397252	1.195013
O343	O	0.984155	-0.163063	0.528432
O344	O	1.317488	0.170270	0.861766
O345	O	1.650821	0.503603	1.195099
C346	C	0.949929	-0.187458	0.740352
C347	C	1.283262	0.145875	1.073686
C348	C	1.616595	0.479208	1.407019
C349	C	0.909641	-0.216188	0.763795
C350	C	1.242975	0.117146	1.097128
C351	C	1.576308	0.450479	1.430462
C352	C	0.869349	-0.244928	0.740322
C353	C	1.202682	0.088405	1.073655
C354	C	1.536015	0.421738	1.406989
C355	C	0.909651	-0.216179	0.810713
C356	C	1.242984	0.117154	1.144046
C357	C	1.576317	0.450487	1.477379
C358	C	0.949944	-0.187438	0.834186
C359	C	1.283277	0.145895	1.167519
C360	C	1.616610	0.479228	1.500852
C361	C	0.990227	-0.158706	0.810741
C362	C	1.323561	0.174627	1.144074
C363	C	1.656894	0.507961	1.477407
C364	C	0.990222	-0.158718	0.763825
C365	C	1.323555	0.174616	1.097159
C366	C	1.656888	0.507949	1.430492
C367	C	0.829065	-0.273661	0.763767
C368	C	1.162398	0.059672	1.097100
C369	C	1.495731	0.393006	1.430434
C370	C	0.829074	-0.273647	0.810683
C371	C	1.162408	0.059686	1.144016
C372	C	1.495741	0.393019	1.477349
C373	C	0.869367	-0.244907	0.834155
C374	C	1.202701	0.088427	1.167489
C375	C	1.536034	0.421760	1.500822
H376	H	0.669911	-0.268544	0.268621
H377	H	1.003244	0.064790	0.601955
H378	H	1.336578	0.398123	0.935288
H379	H	0.149848	-0.164051	0.164700
H380	H	0.483182	0.169282	0.498034
H381	H	0.816515	0.502616	0.831367
Br382	Br	0.532792	-0.284142	0.284227
Br383	Br	0.866125	0.049191	0.617560
Br384	Br	1.199458	0.382525	0.950893
Br385	Br	0.774378	-0.731234	0.313012
Br386	Br	1.107712	-0.397900	0.646346
Br387	Br	1.441045	-0.064567	0.979679
Br388	Br	0.774335	-0.312692	0.591158
Br389	Br	1.107669	0.020641	0.924491
Br390	Br	1.441002	0.353974	1.257825
H391	H	0.796229	-0.297077	0.689010
H392	H	1.129563	0.036256	1.022343
H393	H	1.462896	0.369589	1.355677
H394	H	0.269116	-0.164070	0.164666
H395	H	0.602449	0.169264	0.498000
H396	H	0.935783	0.502597	0.831333
H397	H	0.669957	-0.164120	0.164568
H398	H	1.003290	0.169213	0.497901
H399	H	1.336623	0.502547	0.831235
H400	H	0.550686	-0.164110	0.164598
H401	H	0.884019	0.169223	0.497932
H402	H	1.217353	0.502557	0.831265
Br403	Br	0.286915	-0.284111	0.284289
Br404	Br	0.620248	0.049222	0.617622
Br405	Br	0.953581	0.382556	0.950955
H406	H	0.982692	-0.164147	0.388158
H407	H	1.316025	0.169186	0.721491
H408	H	1.649358	0.502520	1.054824
H409	H	0.836578	-0.268293	0.960503
H410	H	1.169912	0.065041	1.293836
H411	H	1.503245	0.398374	1.627169
Br412	Br	1.004572	-0.148510	0.486008
Br413	Br	1.337906	0.184824	0.819341
Br414	Br	1.671239	0.518157	1.152675
H415	H	0.149810	-0.268462	0.268761
H416	H	0.483143	0.064871	0.602095
H417	H	0.816477	0.398204	0.935428
H418	H	0.796266	-0.297048	0.829765
H419	H	1.129599	0.036285	1.163099
H420	H	1.462932	0.369619	1.496432
Br421	Br	1.004415	-0.374511	0.148994
Br422	Br	1.337749	-0.041178	0.482328
Br423	Br	1.671082	0.292155	0.815661
Br424	Br	1.004481	-0.485089	0.149010
Br425	Br	1.337815	-0.151755	0.482343
Br426	Br	1.671148	0.181578	0.815676
Br427	Br	1.044816	-0.590311	0.120329
Br428	Br	1.378149	-0.256978	0.453662
Br429	Br	1.711483	0.076356	0.786995
H430	H	0.836505	-0.268403	0.473222
H431	H	1.169838	0.064930	0.806555
H432	H	1.503171	0.398264	1.139889
Br433	Br	1.044861	-0.700881	0.120337
Br434	Br	1.378195	-0.367548	0.453670
Br435	Br	1.711528	-0.034214	0.787004
Br436	Br	1.044916	-0.841646	0.120357
Br437	Br	1.378249	-0.508312	0.453691
Br438	Br	1.711583	-0.174979	0.787024
H439	H	0.982793	-0.164001	1.045675
H440	H	1.316126	0.169332	1.379008
H441	H	1.649459	0.502666	1.712342
Br442	Br	0.774329	-0.590473	0.313011
Br443	Br	1.107662	-0.257140	0.646344
Br444	Br	1.440995	0.076193	0.979677
H445	H	1.023030	-0.135321	0.744743
H446	H	1.356364	0.198012	1.078076
H447	H	1.689697	0.531345	1.411409
H448	H	0.982805	-0.959655	0.164630
H449	H	1.316138	-0.626322	0.497963
H450	H	1.649472	-0.292988	0.831296
H451	H	0.982840	-1.044778	0.164643
H452	H	1.316174	-0.711444	0.497976
H453	H	1.649507	-0.378111	0.831310
H454	H	0.836652	-1.044862	0.268761
H455	H	1.169985	-0.711529	0.602094
H456	H	1.503319	-0.378195	0.935428
Br457	Br	0.774427	-0.841807	0.313025
Br458	Br	1.107760	-0.508473	0.646358
Br459	Br	1.441094	-0.175140	0.979691
H460	H	0.836623	-0.959753	0.268760
H461	H	1.169956	-0.626420	0.602093
H462	H	1.503289	-0.293087	0.935427
H463	H	0.796229	-0.688303	0.297436
H464	H	1.129562	-0.354970	0.630769
H465	H	1.462895	-0.021636	0.964103
Br466	Br	1.004660	-0.148420	0.947827
Br467	Br	1.337993	0.184914	1.281160
Br468	Br	1.671327	0.518247	1.614493
H469	H	0.836411	-0.472474	0.268714
H470	H	1.169745	-0.139141	0.602047
H471	H	1.503078	0.194193	0.935381
H472	H	0.836370	-0.387352	0.268699
H473	H	1.169703	-0.054019	0.602032
H474	H	1.503037	0.279315	0.935365
Br475	Br	0.814733	-0.283880	1.058336
Br476	Br	1.148066	0.049453	1.391670
Br477	Br	1.481399	0.382786	1.725003
Br478	Br	1.044884	-0.119755	0.591271
Br479	Br	1.378217	0.213578	0.924605
Br480	Br	1.711551	0.546911	1.257938
Br481	Br	1.044909	-0.119735	0.701842
Br482	Br	1.378242	0.213598	1.035175
Br483	Br	1.711575	0.546931	1.368508
H484	H	1.023007	-0.743804	0.135922
H485	H	1.356340	-0.410470	0.469255
H486	H	1.689674	-0.077137	0.802588
H487	H	1.023037	-0.135306	0.829861
H488	H	1.356371	0.198028	1.163194
H489	H	1.689704	0.531361	1.496527
Br490	Br	0.774374	-0.312669	0.731918
Br491	Br	1.107707	0.020664	1.065252
Br492	Br	1.441041	0.353997	1.398585
Br493	Br	0.814616	-0.284020	0.375354
Br494	Br	1.147949	0.049313	0.708687
Br495	Br	1.481282	0.382647	1.042020
