data_functionalizedCrystal
_audit_creation_method	'MofGen! by Chris Wilmer'
_symmetry_space_group_name_H-M	'P1'
_symmetry_Int_Tables_number	1
_symmetry_cell_setting	triclinic
loop_
_symmetry_equiv_pos_as_xyz
  x,y,z
_cell_length_a	16.992694
_cell_length_b	12.996460
_cell_length_c	16.974813
_cell_angle_alpha	93.660707
_cell_angle_beta	87.024634
_cell_angle_gamma	89.999814
loop_
_atom_site_label
_atom_site_type_symbol
_atom_site_fract_x
_atom_site_fract_y
_atom_site_fract_z
O1	O	1.040212	0.099396	0.167651
O2	O	1.540212	0.599396	0.667651
O3	O	0.811929	0.099273	0.165812
O4	O	1.311929	0.599273	0.665812
O5	O	0.932434	0.089777	0.052030
O6	O	1.432434	0.589777	0.552030
O7	O	0.919707	0.108891	0.281433
O8	O	1.419707	0.608891	0.781433
O9	O	0.932422	-0.081357	0.052022
O10	O	1.432422	0.418643	0.552022
O11	O	0.811916	-0.071862	0.165804
O12	O	1.311916	0.428138	0.665804
O13	O	1.040199	-0.071739	0.167644
O14	O	1.540199	0.428261	0.667644
Cu15	Cu	0.926057	-0.087426	0.166723
Cu16	Cu	1.426057	0.412574	0.666723
Cu17	Cu	0.926071	0.114960	0.166732
Cu18	Cu	1.426071	0.614960	0.666732
O19	O	0.919694	-0.062243	0.281426
O20	O	1.419694	0.437757	0.781426
C21	C	0.782712	0.013512	0.163442
C22	C	1.282712	0.513512	0.663442
C23	C	0.695676	0.012936	0.156382
C24	C	1.195676	0.512936	0.656382
N25	N	0.926052	-0.229774	0.166717
N26	N	1.426052	0.270226	0.666717
C27	C	0.645362	0.018611	0.224498
C28	C	1.145362	0.518611	0.724498
C29	C	0.563583	0.018043	0.217860
C30	C	1.063583	0.518043	0.717860
C31	C	0.532119	0.011809	0.143106
C32	C	1.032119	0.511809	0.643106
C33	C	0.582439	0.006131	0.074985
C34	C	1.082439	0.506131	0.574985
C35	C	0.664217	0.006691	0.081624
C36	C	1.164217	0.506691	0.581624
C37	C	0.288550	0.009489	0.115591
C38	C	0.788550	0.509489	0.615591
C39	C	0.206766	0.008932	0.108957
C40	C	0.706766	0.508932	0.608957
C41	C	0.187916	0.020843	0.251833
C42	C	0.687916	0.520843	0.751833
C43	C	0.269696	0.021409	0.258466
C44	C	0.769696	0.521409	0.758466
C45	C	0.320009	0.015725	0.190345
C46	C	0.820009	0.515725	0.690345
N47	N	0.448527	0.011232	0.136319
N48	N	0.948527	0.511232	0.636319
N49	N	0.403599	0.016295	0.197132
N50	N	0.903599	0.516295	0.697132
C51	C	0.926070	-0.649587	0.166733
C52	C	1.426070	-0.149587	0.666733
C53	C	0.926063	-0.532782	0.166731
C54	C	1.426063	-0.032782	0.666731
C55	C	0.926062	-0.439684	0.166726
C56	C	1.426062	0.060316	0.666726
C57	C	0.926053	-0.322872	0.166722
C58	C	1.426053	0.177128	0.666722
C59	C	1.069416	0.014024	0.170013
C60	C	1.569416	0.514024	0.670013
C61	C	1.156452	0.014607	0.177073
C62	C	1.656452	0.514607	0.677073
C63	C	0.931944	0.001756	0.022537
C64	C	1.431944	0.501756	0.522537
C65	C	0.930491	-0.005558	-0.065332
C66	C	1.430491	0.494442	0.434668
N67	N	0.926082	0.257307	0.166733
N68	N	1.426082	0.757307	0.666733
C69	C	0.929818	0.084291	-0.106604
C70	C	1.429818	0.584291	0.393396
C71	C	0.928448	0.077415	-0.189166
C72	C	1.428448	0.577415	0.310834
C73	C	0.927758	-0.019310	-0.230454
C74	C	1.427758	0.480690	0.269546
C75	C	0.928429	-0.109165	-0.189176
C76	C	1.428429	0.390835	0.310824
C77	C	0.929793	-0.102289	-0.106615
C78	C	1.429793	0.397711	0.393385
C79	C	0.923672	-0.049878	-0.477374
C80	C	1.423672	0.450122	0.022626
C81	C	0.922311	-0.056748	-0.559941
C82	C	1.422311	0.443252	-0.059941
C83	C	0.922328	0.129834	-0.559925
C84	C	1.422328	0.629834	-0.059925
C85	C	0.923697	0.136701	-0.477363
C86	C	1.423697	0.636701	0.022637
C87	C	0.924364	0.046846	-0.436092
C88	C	1.424364	0.546846	0.063908
N89	N	0.926360	-0.026340	-0.314845
N90	N	1.426360	0.473660	0.185155
N91	N	0.925756	0.053877	-0.351701
N92	N	1.425756	0.553877	0.148299
C93	C	0.920185	0.025781	0.310918
C94	C	1.420185	0.525781	0.810918
C95	C	0.921637	0.033101	0.398787
C96	C	1.421637	0.533101	0.898787
H97	H	0.670973	0.023688	0.285371
H98	H	1.170973	0.523688	0.785371
H99	H	0.522620	0.022665	0.273328
H100	H	1.022620	0.522665	0.773328
C101	C	0.304300	0.028251	0.340701
C102	C	0.804300	0.528251	0.840701
N103	N	0.330363	0.033402	0.402642
N104	N	0.830363	0.533402	0.902642
C105	C	0.930577	0.190697	-0.061194
C106	C	1.430577	0.690697	0.438806
N107	N	0.931145	0.270845	-0.026994
N108	N	1.431145	0.770845	0.473006
C109	C	0.927664	-0.215564	-0.234596
C110	C	1.427664	0.284436	0.265404
N111	N	0.927089	-0.295706	-0.268805
N112	N	1.427089	0.204294	0.231195
C113	C	0.921585	0.228668	-0.605329
C114	C	1.421585	0.728668	-0.105329
N115	N	0.921022	0.303114	-0.639528
N116	N	1.421022	0.803114	-0.139528
C117	C	0.921548	-0.163157	-0.605356
C118	C	1.421548	0.336843	-0.105356
N119	N	0.920975	-0.243301	-0.639563
N120	N	1.420975	0.256699	-0.139563
H121	H	0.181152	0.003856	0.048080
H122	H	0.681152	0.503856	0.548080
H123	H	0.329506	0.004860	0.060122
H124	H	0.829506	0.504860	0.560122
C125	C	0.547825	-0.000729	-0.007246
C126	C	1.047825	0.499271	0.492754
N127	N	0.521756	-0.005892	-0.069184
N128	N	1.021756	0.494108	0.430816
H129	H	0.924231	-0.123045	-0.443782
H130	H	1.424231	0.376955	0.056218
C131	C	0.719562	0.000451	0.006691
C132	C	1.219562	0.500451	0.506691
N133	N	0.761247	-0.004251	-0.049752
N134	N	1.261247	0.495749	0.450248
H135	H	0.146942	0.025468	0.307293
H136	H	0.646942	0.525468	0.807293
C137	C	0.930536	-0.201130	-0.061216
C138	C	1.430536	0.298870	0.438784
N139	N	0.931094	-0.275580	-0.027023
N140	N	1.431094	0.224420	0.472977
H141	H	0.927903	0.150580	-0.222766
H142	H	1.427903	0.650580	0.277234
C143	C	0.924456	0.243106	-0.431952
C144	C	1.424456	0.743106	0.068048
N145	N	0.925031	0.323252	-0.397748
N146	N	1.425031	0.823252	0.102252
