data_functionalizedCrystal
_audit_creation_method	'MofGen! by Chris Wilmer'
_symmetry_space_group_name_H-M	'P1'
_symmetry_Int_Tables_number	1
_symmetry_cell_setting	triclinic
loop_
_symmetry_equiv_pos_as_xyz
  x,y,z
_cell_length_a	16.120484
_cell_length_b	10.686220
_cell_length_c	10.685880
_cell_angle_alpha	90.358431
_cell_angle_beta	97.443083
_cell_angle_gamma	82.929033
loop_
_atom_site_label
_atom_site_type_symbol
_atom_site_fract_x
_atom_site_fract_y
_atom_site_fract_z
Zn1	Zn	-0.262275	-1.953705	-0.583880
Zn2	Zn	-0.392927	-1.928247	-0.384842
Zn3	Zn	-0.263987	-1.727713	-0.390343
Zn4	Zn	-0.414283	-1.733154	-0.612365
O5	O	-0.333368	-1.835705	-0.492858
O6	O	-0.269952	-2.126553	-0.543254
O7	O	-0.367602	-1.888714	-0.209356
O8	O	-0.146183	-1.766069	-0.406398
O9	O	-0.365941	-2.107849	-0.397021
O10	O	-0.144925	-1.932104	-0.548589
O11	O	-0.272871	-1.741383	-0.213398
O12	O	-0.293579	-1.552210	-0.434018
O13	O	-0.402340	-1.775341	-0.784802
O14	O	-0.404000	-1.556206	-0.597137
O15	O	-0.290660	-1.937380	-0.763874
O16	O	-0.513337	-1.893990	-0.424642
O17	O	-0.529027	-1.750655	-0.591802
C18	C	-0.351293	-1.508515	-0.519266
C19	C	-0.358983	-1.368542	-0.530595
C20	C	-0.551668	-1.820186	-0.510741
C21	C	-0.645053	-1.813666	-0.518424
C22	C	-0.348691	-1.859807	-0.821306
C23	C	-0.355221	-1.870078	-0.961271
C24	C	-0.816029	-1.801771	-0.532477
C25	C	-0.849855	-1.869866	-0.453241
C26	C	-0.944992	-1.863247	-0.461060
C27	C	-0.720884	-1.808388	-0.524659
C28	C	-0.114215	-1.851320	-0.474930
C29	C	-0.020825	-1.857974	-0.467290
C30	C	-0.315374	-2.164172	-0.466347
C31	C	-0.307705	-2.304146	-0.455049
C32	C	-0.318040	-1.811773	-0.165676
C33	C	-0.311260	-1.801763	-0.025673
H34	H	-0.807363	-1.933134	-0.379533
O35	O	-0.425001	-1.299714	-0.627655
H36	H	-0.461378	-1.368895	-0.681168
O37	O	-0.872303	-1.717941	-0.630089
H38	H	-0.939277	-1.725819	-0.620967
H39	H	-0.268630	-1.735407	-0.973733
H40	H	-0.397857	-1.936433	-1.013218
O41	O	-0.241761	-1.372962	-0.357892
H42	H	-0.252834	-1.339507	-0.262215
