data_functionalizedCrystal
_audit_creation_method	'MofGen! by Chris Wilmer'
_symmetry_space_group_name_H-M	'P1'
_symmetry_Int_Tables_number	1
_symmetry_cell_setting	triclinic
loop_
_symmetry_equiv_pos_as_xyz
  x,y,z
_cell_length_a	19.805407
_cell_length_b	12.759394
_cell_length_c	19.805407
_cell_angle_alpha	90.008007
_cell_angle_beta	90.009221
_cell_angle_gamma	90.013856
loop_
_atom_site_label
_atom_site_type_symbol
_atom_site_fract_x
_atom_site_fract_y
_atom_site_fract_z
Zn1	Zn	1.034726	-0.418439	0.382744
Zn2	Zn	1.534726	0.081561	0.882744
Zn3	Zn	1.034686	-0.594088	0.269567
Zn4	Zn	1.534686	-0.094088	0.769567
Zn5	Zn	0.921561	-0.418424	0.269569
Zn6	Zn	1.421561	0.081576	0.769569
Zn7	Zn	0.921529	-0.594076	0.382713
Zn8	Zn	1.421529	-0.094076	0.882713
O9	O	0.978125	-0.506257	0.326148
O10	O	1.478125	-0.006257	0.826148
O11	O	1.129437	-0.441750	0.367743
O12	O	1.629437	0.058250	0.867743
O13	O	1.019676	-0.570785	0.174850
O14	O	1.519676	-0.070785	0.674850
O15	O	0.936602	-0.271405	0.284596
O16	O	1.436602	0.228595	0.784596
O17	O	1.129407	-0.570799	0.284592
O18	O	1.629407	-0.070799	0.784592
O19	O	1.019744	-0.271416	0.367745
O20	O	1.519744	0.228584	0.867745
O21	O	0.936564	-0.441725	0.174852
O22	O	1.436564	0.058275	0.674852
O23	O	0.826840	-0.441713	0.284566
O24	O	1.326840	0.058287	0.784566
O25	O	0.936548	-0.570779	0.477434
O26	O	1.436548	-0.070779	0.977434
O27	O	0.826816	-0.570764	0.367693
O28	O	1.326816	-0.070764	0.867693
O29	O	1.019713	-0.441739	0.477457
O30	O	1.519713	0.058261	0.977457
O31	O	1.019645	-0.741108	0.284562
O32	O	1.519645	-0.241108	0.784562
O33	O	0.936509	-0.741099	0.367690
O34	O	1.436509	-0.241099	0.867690
C35	C	0.802269	-0.506237	0.326127
C36	C	1.302269	-0.006237	0.826127
C37	C	0.727037	-0.506253	0.326133
C38	C	1.227037	-0.006253	0.826133
C39	C	0.691698	-0.573551	0.369347
C40	C	1.191698	-0.073551	0.869347
C41	C	0.621010	-0.573553	0.369357
C42	C	1.121010	-0.073553	0.869357
C43	C	0.585662	-0.506262	0.326148
C44	C	1.085662	-0.006262	0.826148
C45	C	0.621005	-0.438956	0.282932
C46	C	1.121005	0.061044	0.782932
C47	C	0.691692	-0.438950	0.282927
C48	C	1.191692	0.061050	0.782927
C49	C	0.335932	-0.438980	0.282955
C50	C	0.835932	0.061020	0.782955
C51	C	0.265240	-0.438993	0.282962
C52	C	0.765240	0.061007	0.782962
C53	C	0.265249	-0.573583	0.369385
C54	C	0.765249	-0.073583	0.869385
C55	C	0.335937	-0.573577	0.369379
C56	C	0.835937	-0.073577	0.869379
C57	C	0.371274	-0.506268	0.326166
C58	C	0.871274	-0.006268	0.826166
C59	C	0.447923	-0.506265	0.326157
C60	C	0.947923	-0.006265	0.826157
C61	C	0.509014	-0.506269	0.326153
C62	C	1.009014	-0.006269	0.826153
C63	C	0.978087	-0.779224	0.326137
C64	C	1.478087	-0.279224	0.826137
C65	C	0.978133	-0.896001	0.326155
C66	C	1.478133	-0.396001	0.826155
C67	C	1.064644	-0.895854	0.412804
C68	C	1.564644	-0.395854	0.912804
C69	C	1.107921	-0.950642	0.456133
C70	C	1.607921	-0.450642	0.956133
C71	C	1.107961	-1.060363	0.456147
C72	C	1.607961	-0.560363	0.956147
C73	C	1.064718	-1.115300	0.412830
C74	C	1.564718	-0.615300	0.912830
C75	C	1.021442	-1.060513	0.369500
C76	C	1.521442	-0.560513	0.869500
C77	C	1.021408	-0.950788	0.369489
C78	C	1.521408	-0.450788	0.869489
C79	C	0.934929	-1.060659	0.282856
C80	C	1.434929	-0.560659	0.782856
C81	C	0.934891	-0.950938	0.282837
C82	C	1.434891	-0.450938	0.782837
C83	C	0.891686	-1.115596	0.239538
C84	C	1.391686	-0.615596	0.739538
C85	C	0.848412	-1.060809	0.196204
C86	C	1.348412	-0.560809	0.696204
C87	C	0.848374	-0.951081	0.196191
C88	C	1.348374	-0.451081	0.696191
C89	C	0.891614	-0.896150	0.239508
C90	C	1.391614	-0.396150	0.739508
C91	C	1.154668	-0.506278	0.326171
C92	C	1.654668	-0.006278	0.826171
C93	C	1.229900	-0.506287	0.326180
C94	C	1.729900	-0.006287	0.826180
C95	C	0.978131	-0.506259	0.502691
C96	C	1.478131	-0.006259	1.002691
C97	C	0.978134	-0.506260	0.577923
C98	C	1.478134	-0.006260	1.077923
C99	C	0.978181	-0.232223	0.326174
C100	C	1.478181	0.267777	0.826174
C101	C	0.978205	-0.115447	0.326186
C102	C	1.478205	0.384553	0.826186
C103	C	1.021433	-0.439079	0.613280
C104	C	1.521433	0.060921	1.113280
C105	C	1.021427	-0.439076	0.683969
C106	C	1.521427	0.060924	1.183969
C107	C	0.978125	-0.506260	0.719299
C108	C	1.478125	-0.006260	1.219299
C109	C	0.934821	-0.573443	0.683937
C110	C	1.434821	-0.073443	1.183937
C111	C	0.934824	-0.573441	0.613249
C112	C	1.434824	-0.073441	1.113249
C113	C	0.934808	-0.573456	0.969010
C114	C	1.434808	-0.073456	1.469010
C115	C	0.934810	-0.573456	1.039702
C116	C	1.434810	-0.073456	1.539702
C117	C	1.021410	-0.439091	1.039729
C118	C	1.521410	0.060909	1.539729
C119	C	1.021413	-0.439088	0.969042
C120	C	1.521413	0.060912	1.469042
C121	C	0.978108	-0.506267	0.933686
C122	C	1.478108	-0.006267	1.433686
C123	C	0.978114	-0.506269	0.857038
C124	C	1.478114	-0.006269	1.357038
C125	C	0.978122	-0.506264	0.795946
C126	C	1.478122	-0.006264	1.295946
C127	C	0.978113	-0.506276	1.150292
C128	C	1.478113	-0.006276	1.650292
C129	C	0.978106	-0.506269	1.075060
C130	C	1.478106	-0.006269	1.575060
H131	H	0.720474	-0.628352	0.404530
H132	H	1.220474	-0.128352	0.904530
Br133	Br	1.080183	-0.347915	1.087716
Br134	Br	1.580183	0.152085	1.587716
H135	H	0.236461	-0.384190	0.247777
H136	H	0.736461	0.115810	0.747777
H137	H	0.236469	-0.628385	0.404573
H138	H	0.736469	-0.128385	0.904573
H139	H	1.056687	-0.384373	0.712753
H140	H	1.556687	0.115627	1.212753
Br141	Br	1.166690	-1.134722	0.514955
Br142	Br	1.666690	-0.634722	1.014955
Br143	Br	0.876040	-0.664642	1.087650
Br144	Br	1.376040	-0.164642	1.587650
H145	H	0.592240	-0.628355	0.404545
H146	H	1.092240	-0.128355	0.904545
Br147	Br	0.891841	-1.264505	0.239456
Br148	Br	1.391841	-0.764505	0.739456
Br149	Br	0.383906	-0.664910	0.428017
Br150	Br	0.883906	-0.164910	0.928017
H151	H	0.899559	-0.628136	0.584463
H152	H	1.399559	-0.128136	1.084463
H153	H	0.891590	-0.806809	0.239498
H154	H	1.391590	-0.306809	0.739498
Br155	Br	0.789724	-1.135369	0.137431
Br156	Br	1.289724	-0.635369	0.637431
Br157	Br	1.080186	-0.347913	0.921097
Br158	Br	1.580186	0.152087	1.421097
H159	H	1.056696	-0.384373	0.584520
H160	H	1.556696	0.115627	1.084520
Br161	Br	0.876035	-0.664626	0.921036
Br162	Br	1.376035	-0.164626	1.421036
H163	H	0.899562	-0.628142	0.712708
H164	H	1.399562	-0.128142	1.212708
Br165	Br	0.383881	-0.347626	0.224312
Br166	Br	0.883881	0.152374	0.724312
H167	H	0.592219	-0.384162	0.247754
H168	H	1.092219	0.115838	0.747754
H169	H	0.720464	-0.384143	0.247741
H170	H	1.220464	0.115857	0.747741
Br171	Br	1.166596	-0.876082	0.514927
Br172	Br	1.666596	-0.376082	1.014927
H173	H	1.064622	-0.806513	0.412790
H174	H	1.564622	-0.306513	0.912790
Br175	Br	1.064880	-1.264209	0.412744
Br176	Br	1.564880	-0.764209	0.912744
Br177	Br	0.789633	-0.876735	0.137389
Br178	Br	1.289633	-0.376735	0.637389
