data_functionalizedCrystal
_audit_creation_method	'MofGen! by Chris Wilmer'
_symmetry_space_group_name_H-M	'P1'
_symmetry_Int_Tables_number	1
_symmetry_cell_setting	triclinic
loop_
_symmetry_equiv_pos_as_xyz
  x,y,z
_cell_length_a	29.839131
_cell_length_b	21.395362
_cell_length_c	21.395355
_cell_angle_alpha	89.956060
_cell_angle_beta	90.020172
_cell_angle_gamma	89.942703
loop_
_atom_site_label
_atom_site_type_symbol
_atom_site_fract_x
_atom_site_fract_y
_atom_site_fract_z
Zn1	Zn	-0.178715	-0.957813	0.354578
Zn2	Zn	0.321285	-0.457813	0.854578
Zn3	Zn	-0.253830	-0.957696	0.249798
Zn4	Zn	0.246170	-0.457696	0.749798
Zn5	Zn	-0.178736	-0.853028	0.249780
Zn6	Zn	0.321264	-0.353028	0.749780
Zn7	Zn	-0.253840	-0.852977	0.354503
Zn8	Zn	0.246160	-0.352977	0.854503
O9	O	-0.216280	-0.905378	0.302165
O10	O	0.283720	-0.405378	0.802165
O11	O	-0.188667	-1.045475	0.340718
O12	O	0.311333	-0.545475	0.840718
O13	O	-0.243874	-0.943783	0.162117
O14	O	0.256126	-0.443783	0.662117
O15	O	-0.115866	-0.866998	0.263706
O16	O	0.384134	-0.366998	0.763706
O17	O	-0.243853	-1.045389	0.263737
O18	O	0.256147	-0.545389	0.763737
O19	O	-0.115851	-0.943983	0.340701
O20	O	0.384149	-0.443983	0.840701
O21	O	-0.188702	-0.866884	0.162104
O22	O	0.311298	-0.366884	0.662104
O23	O	-0.188711	-0.765343	0.263632
O24	O	0.311289	-0.265343	0.763632
O25	O	-0.243869	-0.866912	0.442191
O26	O	0.256131	-0.366912	0.942191
O27	O	-0.243889	-0.765306	0.340571
O28	O	0.256111	-0.265306	0.840571
O29	O	-0.188676	-0.943934	0.442246
O30	O	0.311324	-0.443934	0.942246
O31	O	-0.316699	-0.943735	0.263663
O32	O	0.183301	-0.443735	0.763663
O33	O	-0.316705	-0.866798	0.340589
O34	O	0.183295	-0.366798	0.840589
C35	C	-0.216304	-0.742591	0.302092
C36	C	0.283696	-0.242591	0.802092
C37	C	-0.216325	-0.672950	0.302076
C38	C	0.283675	-0.172950	0.802076
C39	C	-0.333003	-0.905265	0.302133
C40	C	0.166997	-0.405265	0.802133
C41	C	-0.382937	-0.905274	0.302141
C42	C	0.117063	-0.405274	0.802141
C43	C	-0.216271	-0.905431	0.465588
C44	C	0.283729	-0.405431	0.965588
C45	C	-0.216267	-0.905453	0.535229
C46	C	0.283733	-0.405453	1.035229
C47	C	-0.692564	-0.945512	0.262168
C48	C	-0.192564	-0.445512	0.762168
C49	C	-0.880237	-0.945589	0.262192
C50	C	-0.380237	-0.445589	0.762192
O51	O	-0.904488	-0.979711	0.228181
O52	O	-0.404488	-0.479711	0.728181
N53	N	-0.903722	-0.905508	0.302212
N54	N	-0.403722	-0.405508	0.802212
C55	C	-0.880286	-0.865408	0.342231
C56	C	-0.380286	-0.365408	0.842231
O57	O	-0.904567	-0.831323	0.376276
O58	O	-0.404567	-0.331323	0.876276
C59	C	-0.692614	-0.865334	0.342210
C60	C	-0.192614	-0.365334	0.842210
C61	C	-0.669131	-0.905414	0.302183
C62	C	-0.169131	-0.405414	0.802183
C63	C	-0.669082	-0.985588	0.222145
C64	C	-0.169082	-0.485588	0.722145
C65	C	-0.622166	-0.985566	0.222136
C66	C	-0.122166	-0.485566	0.722136
C67	C	-0.598733	-0.945468	0.262152
C68	C	-0.098733	-0.445468	0.762152
C69	C	-0.622216	-0.905391	0.302175
C70	C	-0.122216	-0.405391	0.802175
C71	C	-0.669178	-0.825238	0.382232
C72	C	-0.169178	-0.325238	0.882232
C73	C	-0.622257	-0.825224	0.382224
C74	C	-0.122257	-0.325224	0.882224
C75	C	-0.598775	-0.865303	0.342197
C76	C	-0.098775	-0.365303	0.842197
C77	C	-0.551867	-0.865271	0.342182
C78	C	-0.051867	-0.365271	0.842182
N79	N	-0.528383	-0.905352	0.302162
N80	N	-0.028383	-0.405352	0.802162
C81	C	-0.551816	-0.945450	0.262147
C82	C	-0.051816	-0.445450	0.762147
C83	C	-0.978816	-0.865449	0.342239
C84	C	-0.478816	-0.365449	0.842239
C85	C	-1.025734	-0.865466	0.342244
C86	C	-0.525734	-0.365466	0.842244
C87	C	-1.025683	-0.945649	0.262205
C88	C	-0.525683	-0.445649	0.762205
C89	C	-0.978764	-0.945627	0.262198
C90	C	-0.478764	-0.445627	0.762198
C91	C	-0.955332	-0.905530	0.302219
C92	C	-0.455332	-0.405530	0.802219
C93	C	-0.453290	-0.945400	0.262132
C94	C	0.046710	-0.445400	0.762132
C95	C	-0.406370	-0.945373	0.262126
C96	C	0.093630	-0.445373	0.762126
C97	C	-0.406426	-0.865193	0.342167
C98	C	0.093574	-0.365193	0.842167
C99	C	-0.453342	-0.865218	0.342171
C100	C	0.046658	-0.365218	0.842171
C101	C	-0.476772	-0.905327	0.302152
C102	C	0.023228	-0.405327	0.802152
O103	O	-0.527587	-0.831172	0.376180
O104	O	-0.027587	-0.331172	0.876180
O105	O	-0.527526	-0.979540	0.228117
O106	O	-0.027526	-0.479540	0.728117
C107	C	-0.739480	-0.945534	0.262176
C108	C	-0.239480	-0.445534	0.762176
C109	C	-0.762962	-0.905458	0.302199
C110	C	-0.262962	-0.405458	0.802199
C111	C	-0.739529	-0.865359	0.342214
C112	C	-0.239529	-0.365359	0.842214
C113	C	-0.809880	-0.905475	0.302204
C114	C	-0.309880	-0.405475	0.802204
C115	C	-0.833313	-0.945574	0.262189
C116	C	-0.333313	-0.445574	0.762189
C117	C	-0.809828	-0.985655	0.222169
C118	C	-0.309828	-0.485655	0.722169
C119	C	-0.762913	-0.985633	0.222161
C120	C	-0.262913	-0.485633	0.722161
C121	C	-0.763014	-0.825278	0.382234
C122	C	-0.263014	-0.325278	0.882234
C123	C	-0.809929	-0.825303	0.382238
C124	C	-0.309929	-0.325303	0.882238
C125	C	-0.833362	-0.865402	0.342223
C126	C	-0.333362	-0.365402	0.842223
C127	C	-0.099102	-0.905509	0.302210
C128	C	0.400898	-0.405509	0.802210
C129	C	-0.049167	-0.905565	0.302229
C130	C	0.450833	-0.405565	0.802229
C131	C	-0.216257	-1.068802	0.302238
C132	C	0.283743	-0.568802	0.802238
C133	C	-0.216247	-1.138443	0.302269
C134	C	0.283753	-0.638443	0.802269
C135	C	-0.245094	-0.640233	0.342078
C136	C	0.254906	-0.140233	0.842078
C137	C	-0.245083	-0.574798	0.342106
C138	C	0.254917	-0.074798	0.842106
C139	C	-0.216308	-0.542081	0.302120
C140	C	0.283692	-0.042081	0.802120
C141	C	-0.187533	-0.574805	0.262115
C142	C	0.312467	-0.074805	0.762115
C143	C	-0.187541	-0.640239	0.262093
C144	C	0.312459	-0.140239	0.762093
C145	C	-0.212688	-0.438357	0.245715
C146	C	0.287312	0.061643	0.745715
C147	C	-0.212683	-0.372925	0.245736
C148	C	0.287317	0.127075	0.745736
C149	C	-0.216278	-0.340261	0.302189
C150	C	0.283722	0.159739	0.802189
C151	C	-0.219889	-0.373038	0.358623
C152	C	0.280111	0.126962	0.858623
C153	C	-0.219897	-0.438472	0.358601
C154	C	0.280103	0.061528	0.858601
C155	C	-0.216295	-0.471129	0.302140
C156	C	0.283705	0.028871	0.802140
C157	C	-0.245037	-0.236592	0.342226
C158	C	0.254963	0.263408	0.842226
C159	C	-0.245023	-0.171155	0.342254
C160	C	0.254977	0.328845	0.842254
C161	C	-0.187475	-0.171164	0.262258
C162	C	0.312525	0.328836	0.762258
C163	C	-0.187487	-0.236599	0.262235
C164	C	0.312513	0.263401	0.762235
C165	C	-0.216270	-0.269309	0.302218
C166	C	0.283730	0.230691	0.802218
C167	C	-0.216257	-0.905363	0.139377
C168	C	0.283743	-0.405363	0.639377
C169	C	-0.216134	-0.905462	0.069736
C170	C	0.283866	-0.405462	0.569736
C171	C	-0.187527	-0.945556	0.567972
C172	C	0.312473	-0.445556	1.067972
C173	C	-0.187507	-0.945556	0.633408
C174	C	0.312493	-0.445556	1.133408
C175	C	-0.216237	-0.905458	0.666098
C176	C	0.283763	-0.405458	1.166098
C177	C	-0.244979	-0.865346	0.633347
C178	C	0.255021	-0.365346	1.133347
C179	C	-0.244994	-0.865344	0.567912
C180	C	0.255006	-0.365344	1.067912
C181	C	-0.256689	-0.900471	0.769760
C182	C	0.243311	-0.400471	1.269760
C183	C	-0.256674	-0.900478	0.835193
C184	C	0.243326	-0.400478	1.335193
C185	C	-0.216189	-0.905461	0.867918
C186	C	0.283811	-0.405461	1.367918
C187	C	-0.175717	-0.910451	0.835203
C188	C	0.324283	-0.410451	1.335203
C189	C	-0.175733	-0.910449	0.769769
C190	C	0.324267	-0.410449	1.269769
C191	C	-0.216223	-0.905455	0.737050
C192	C	0.283777	-0.405455	1.237050
C193	C	-0.187425	-0.945566	0.971614
C194	C	0.312575	-0.445566	1.471614
C195	C	-0.187405	-0.945561	1.037051
C196	C	0.312595	-0.445561	1.537051
C197	C	-0.244881	-0.865355	1.036988
C198	C	0.255119	-0.365355	1.536988
C199	C	-0.244897	-0.865357	0.971553
C200	C	0.255103	-0.365357	1.471553
C201	C	-0.216170	-0.905466	0.938870
C202	C	0.283830	-0.405466	1.438870
H203	H	-0.472362	-0.978062	0.229546
H204	H	0.027638	-0.478062	0.729546
H205	H	-0.743797	-1.018269	0.189567
H206	H	-0.243797	-0.518269	0.689567
O207	O	-0.832610	-1.024689	0.183396
O208	O	-0.332610	-0.524689	0.683396
C209	C	-0.859699	-1.065133	0.219143
C210	C	-0.359699	-0.565133	0.719143
H211	H	-0.845535	-1.068949	0.268492
H212	H	-0.345535	-0.568949	0.768492
H213	H	-0.895277	-1.045785	0.221280
H214	H	-0.395277	-0.545785	0.721280
C215	C	-0.877758	-1.125609	0.128030
C216	C	-0.377758	-0.625609	0.628030
C217	C	-0.860359	-1.130300	0.188640
C218	C	-0.360359	-0.630300	0.688640
H219	H	-0.878167	-1.165806	0.109214
H220	H	-0.378167	-0.665806	0.609214
H221	H	-0.859509	-1.098360	0.103946
H222	H	-0.359509	-0.598360	0.603946
H223	H	-0.907405	-1.109483	0.129819
H224	H	-0.407405	-0.609483	0.629819
H225	H	-0.830711	-1.146418	0.186850
H226	H	-0.330711	-0.646418	0.686850
H227	H	-0.878603	-1.157554	0.212724
H228	H	-0.378603	-0.657554	0.712724
H229	H	-0.209746	-0.346242	0.199785
H230	H	0.290254	0.153758	0.699785
O231	O	-0.272741	-0.826316	1.068710
O232	O	0.227259	-0.326316	1.568710
C233	C	-0.262945	-0.763879	1.052666
C234	C	0.237055	-0.263879	1.552666
H235	H	-0.227061	-0.760753	1.034674
H236	H	0.272939	-0.260753	1.534674
H237	H	-0.287044	-0.747473	1.014674
H238	H	0.212956	-0.247473	1.514674
C239	C	-0.312237	-0.725903	1.132863
C240	C	0.187763	-0.225903	1.632863
C241	C	-0.268162	-0.722062	1.110770
C242	C	0.231838	-0.222062	1.610770
H243	H	-0.315458	-0.700107	1.168702
H244	H	0.184542	-0.200107	1.668702
H245	H	-0.318839	-0.767968	1.143671
H246	H	0.181161	-0.267968	1.643671
H247	H	-0.332315	-0.712232	1.101197
H248	H	0.167685	-0.212232	1.601197
H249	H	-0.248086	-0.735741	1.142432
H250	H	0.251914	-0.235741	1.642432
H251	H	-0.261558	-0.679999	1.099968
H252	H	0.238442	-0.179999	1.599968
O253	O	-0.273071	-0.543106	0.380989
O254	O	0.226929	-0.043106	0.880989
C255	C	-0.298467	-0.586008	0.416289
C256	C	0.201533	-0.086008	0.916289
H257	H	-0.300005	-0.632621	0.390606
H258	H	0.199995	-0.132621	0.890606
H259	H	-0.282066	-0.593048	0.463913
H260	H	0.217934	-0.093048	0.963913
C261	C	-0.344396	-0.503145	0.456751
C262	C	0.155604	-0.003145	0.956751
C263	C	-0.346288	-0.560394	0.425205
C264	C	0.153712	-0.060394	0.925205
H265	H	-0.373894	-0.487345	0.462255
H266	H	0.126106	0.012655	0.962255
H267	H	-0.327286	-0.474240	0.432971
H268	H	0.172714	0.025760	0.932971
H269	H	-0.330726	-0.509019	0.496435
H270	H	0.169274	-0.009019	0.996435
H271	H	-0.359952	-0.554518	0.385520
H272	H	0.140048	-0.054518	0.885520
H273	H	-0.363402	-0.589298	0.448979
H274	H	0.136598	-0.089298	0.948979
H275	H	-0.268369	-0.832696	0.659967
H276	H	0.231631	-0.332696	1.159967
H277	H	-1.044850	-0.832824	0.374832
H278	H	-0.544850	-0.332824	0.874832
O279	O	-0.832786	-0.786455	0.421155
O280	O	-0.332786	-0.286455	0.921155
C281	C	-0.859866	-0.822123	0.461684
C282	C	-0.359866	-0.322123	0.961684
H283	H	-0.866861	-0.869616	0.439643
H284	H	-0.366861	-0.369616	0.939643
H285	H	-0.841756	-0.828984	0.508116
H286	H	-0.341756	-0.328984	1.008116
C287	C	-0.895868	-0.729332	0.500080
C288	C	-0.395868	-0.229332	1.000080
C289	C	-0.904463	-0.787662	0.473005
C290	C	-0.404463	-0.287662	0.973005
H291	H	-0.923377	-0.708075	0.507066
H292	H	-0.423377	-0.208075	1.007066
H293	H	-0.877623	-0.705301	0.472776
H294	H	-0.377623	-0.205301	0.972776
H295	H	-0.880776	-0.735058	0.538770
H296	H	-0.380776	-0.235058	1.038770
H297	H	-0.919549	-0.781936	0.434312
H298	H	-0.419549	-0.281936	0.934312
H299	H	-0.922711	-0.811692	0.500302
H300	H	-0.422711	-0.311692	1.000302
H301	H	-0.209759	-0.464947	0.199741
H302	H	0.290241	0.035053	0.699741
O303	O	-1.048387	-0.984707	0.223368
O304	O	-0.548387	-0.484707	0.723368
C305	C	-1.036852	-1.047130	0.237178
C306	C	-0.536852	-0.547130	0.737178
H307	H	-1.002780	-1.048374	0.261269
H308	H	-0.502780	-0.548374	0.761269
H309	H	-1.063226	-1.068229	0.269424
H310	H	-0.563226	-0.568229	0.769424
C311	C	-1.076499	-1.083610	0.146573
C312	C	-0.576499	-0.583610	0.646573
C313	C	-1.034649	-1.085138	0.176157
C314	C	-0.534649	-0.585138	0.676157
H315	H	-1.075142	-1.107056	0.108933
H316	H	-0.575142	-0.607056	0.608933
H317	H	-1.084271	-1.041554	0.137270
H318	H	-0.584271	-0.541554	0.637270
H319	H	-1.098472	-1.101191	0.173451
H320	H	-0.598472	-0.601191	0.673451
H321	H	-1.012677	-1.067550	0.149282
H322	H	-0.512677	-0.567550	0.649282
H323	H	-1.026873	-1.127191	0.185454
H324	H	-0.526873	-0.627191	0.685454
H325	H	-0.289629	-0.896419	0.861825
H326	H	0.210371	-0.396419	1.361825
O327	O	-0.223394	-0.341414	0.413521
O328	O	0.276606	0.158586	0.913521
C329	C	-0.226565	-0.384374	0.463324
C330	C	0.273435	0.115626	0.963324
H331	H	-0.239583	-0.430971	0.445013
H332	H	0.260417	0.069029	0.945013
H333	H	-0.192052	-0.391426	0.485101
H334	H	0.307948	0.108574	0.985101
C335	C	-0.243078	-0.301599	0.535534
C336	C	0.256922	0.198401	1.035534
C337	C	-0.259070	-0.358828	0.513045
C338	C	0.240930	0.141172	1.013045
H339	H	-0.263127	-0.285840	0.566206
H340	H	0.236873	0.214160	1.066206
H341	H	-0.240941	-0.272655	0.501982
H342	H	0.259059	0.227345	1.001982
H343	H	-0.214317	-0.307483	0.553678
H344	H	0.285683	0.192517	1.053678
H345	H	-0.287828	-0.352942	0.494895
H346	H	0.212172	0.147058	0.994895
H347	H	-0.261214	-0.387771	0.546595
H348	H	0.238786	0.112229	1.046595
H349	H	-0.959741	-0.832795	0.374830
H350	H	-0.459741	-0.332795	0.874830
H351	H	-0.289648	-0.896245	0.743120
H352	H	0.210352	-0.396245	1.243120
H353	H	-0.472462	-0.832584	0.374766
H354	H	0.027538	-0.332584	0.874766
O355	O	-0.272755	-0.826339	0.939713
O356	O	0.227245	-0.326339	1.439713
C357	C	-0.247193	-0.785910	0.901822
C358	C	0.252807	-0.285910	1.401822
H359	H	-0.211806	-0.782078	0.921541
H360	H	0.288194	-0.282078	1.421541
H361	H	-0.245653	-0.805284	0.852246
H362	H	0.254347	-0.305284	1.352246
C363	C	-0.312614	-0.725458	0.876547
C364	C	0.187386	-0.225458	1.376547
C365	C	-0.269152	-0.720747	0.900768
C366	C	0.230848	-0.220747	1.400768
H367	H	-0.326160	-0.685263	0.875894
H368	H	0.173840	-0.185263	1.375894
H369	H	-0.329836	-0.752697	0.902073
H370	H	0.170164	-0.252697	1.402073
H371	H	-0.311325	-0.741605	0.835235
H372	H	0.188675	-0.241605	1.335235
H373	H	-0.270442	-0.704608	0.942081
H374	H	0.229558	-0.204608	1.442081
H375	H	-0.251931	-0.693504	0.875249
H376	H	0.248069	-0.193504	1.375249
O377	O	-0.272987	-0.672074	0.380955
O378	O	0.227013	-0.172074	0.880955
C379	C	-0.247456	-0.709995	0.421487
C380	C	0.252544	-0.209995	0.921487
H381	H	-0.213389	-0.719833	0.399471
H382	H	0.286611	-0.219833	0.899471
H383	H	-0.242563	-0.684831	0.467937
H384	H	0.257437	-0.184831	0.967937
C385	C	-0.314036	-0.760038	0.459797
C386	C	0.185964	-0.260038	0.959797
C387	C	-0.272195	-0.772125	0.432754
C388	C	0.227805	-0.272125	0.932754
H389	H	-0.329296	-0.798361	0.466750
H390	H	0.170704	-0.298361	0.966750
H391	H	-0.331237	-0.734488	0.432491
H392	H	0.168763	-0.234488	0.932491
H393	H	-0.309953	-0.739066	0.498502
H394	H	0.190047	-0.239066	0.998502
H395	H	-0.276279	-0.793089	0.394047
H396	H	0.223721	-0.293089	0.894047
H397	H	-0.254995	-0.797679	0.460054
H398	H	0.245005	-0.297679	0.960054
H399	H	-0.268398	-0.832683	0.541253
H400	H	0.231602	-0.332683	1.041253
O401	O	-0.223335	-0.470378	0.413385
O402	O	0.276665	0.029622	0.913385
C403	C	-0.185095	-0.508284	0.421540
C404	C	0.314905	-0.008284	0.921540
H405	H	-0.169154	-0.518058	0.374126
H406	H	0.330846	-0.018058	0.874126
H407	H	-0.159942	-0.483140	0.452753
H408	H	0.340058	0.016860	0.952753
C409	C	-0.218415	-0.558450	0.510570
C410	C	0.281585	-0.058450	1.010570
C411	C	-0.198838	-0.570458	0.452334
C412	C	0.301162	-0.070458	0.952334
H413	H	-0.226892	-0.596801	0.529567
H414	H	0.273108	-0.096801	1.029567
H415	H	-0.244178	-0.532911	0.505077
H416	H	0.255822	-0.032911	1.005077
H417	H	-0.197452	-0.537495	0.536573
H418	H	0.302548	-0.037495	1.036573
H419	H	-0.219804	-0.591406	0.426329
H420	H	0.280196	-0.091406	0.926329
H421	H	-0.173080	-0.596003	0.457823
H422	H	0.326920	-0.096003	0.957823
O423	O	-0.599448	-0.786240	0.421015
O424	O	-0.099448	-0.286240	0.921015
C425	C	-0.572367	-0.745762	0.385294
C426	C	-0.072367	-0.245762	0.885294
H427	H	-0.565329	-0.767876	0.337838
H428	H	-0.065329	-0.267876	0.837838
H429	H	-0.590498	-0.699343	0.378355
H430	H	-0.090498	-0.199343	0.878355
C431	C	-0.536447	-0.707217	0.478038
C432	C	-0.036447	-0.207217	0.978038
C433	C	-0.527799	-0.734380	0.419753
C434	C	-0.027799	-0.234380	0.919753
H435	H	-0.508956	-0.700193	0.499295
H436	H	-0.008956	-0.200193	0.999295
H437	H	-0.554692	-0.734486	0.502105
H438	H	-0.054692	-0.234486	1.002105
H439	H	-0.551556	-0.668537	0.472247
H440	H	-0.051556	-0.168537	0.972247
H441	H	-0.512695	-0.773062	0.425545
H442	H	-0.012695	-0.273062	0.925545
H443	H	-0.509550	-0.707117	0.395688
H444	H	-0.009550	-0.207117	0.895688
O445	O	-0.159475	-0.984541	0.939958
O446	O	0.340525	-0.484541	1.439958
C447	C	-0.134107	-1.019945	0.982894
C448	C	0.365893	-0.519945	1.482894
H449	H	-0.132544	-0.994283	1.029518
H450	H	0.367456	-0.494283	1.529518
H451	H	-0.150549	-1.067513	0.989889
H452	H	0.349451	-0.567513	1.489889
C453	C	-0.088218	-1.060544	0.900097
C454	C	0.411782	-0.560544	1.400097
C455	C	-0.086295	-1.029023	0.957361
C456	C	0.413705	-0.529023	1.457361
H457	H	-0.058726	-1.066147	0.884347
H458	H	0.441274	-0.566147	1.384347
H459	H	-0.105310	-1.036694	0.871170
H460	H	0.394690	-0.536694	1.371170
H461	H	-0.101922	-1.100181	0.905935
H462	H	0.398078	-0.600181	1.405935
H463	H	-0.072597	-0.989385	0.951521
H464	H	0.427403	-0.489385	1.451521
H465	H	-0.069200	-1.052868	0.986286
H466	H	0.430800	-0.552868	1.486286
O467	O	-0.273006	-0.268274	0.381128
O468	O	0.226994	0.231726	0.881128
C469	C	-0.298401	-0.225363	0.416437
C470	C	0.201599	0.274637	0.916437
H471	H	-0.279995	-0.178753	0.418669
H472	H	0.220005	0.321247	0.918669
H473	H	-0.332497	-0.218320	0.393412
H474	H	0.167503	0.281680	0.893412
C475	C	-0.327554	-0.308213	0.480355
C476	C	0.172446	0.191787	0.980355
C477	C	-0.304945	-0.250966	0.483100
C478	C	0.195055	0.249034	0.983100
H479	H	-0.331592	-0.324007	0.521475
H480	H	0.168408	0.175993	1.021475
H481	H	-0.310446	-0.337124	0.456565
H482	H	0.189554	0.162876	0.956565
H483	H	-0.355964	-0.302336	0.461165
H484	H	0.144036	0.197664	0.961165
H485	H	-0.276533	-0.256845	0.502283
H486	H	0.223467	0.243155	1.002283
H487	H	-0.322049	-0.222057	0.506895
H488	H	0.177951	0.277943	1.006895
H489	H	-0.268450	-0.144519	0.374833
H490	H	0.231550	0.355481	0.874833
H491	H	-0.164101	-0.978211	0.660072
H492	H	0.335899	-0.478211	1.160072
H493	H	-0.688290	-0.792598	0.414823
H494	H	-0.188290	-0.292598	0.914823
H495	H	-0.164043	-0.144526	0.229704
H496	H	0.335957	0.355474	0.729704
H497	H	-0.387252	-0.978010	0.229529
H498	H	0.112748	-0.478010	0.729529
O499	O	-0.740324	-0.786262	0.421123
O500	O	-0.240324	-0.286262	0.921123
C501	C	-0.771119	-0.750906	0.456453
C502	C	-0.271119	-0.250906	0.956453
H503	H	-0.804573	-0.748776	0.430790
H504	H	-0.304573	-0.248776	0.930790
H505	H	-0.776070	-0.773824	0.504071
H506	H	-0.276070	-0.273824	1.004071
C507	C	-0.711787	-0.686821	0.496911
C508	C	-0.211787	-0.186821	0.996911
C509	C	-0.752875	-0.684200	0.465387
C510	C	-0.252875	-0.184200	0.965387
H511	H	-0.700533	-0.645674	0.502425
H512	H	-0.200533	-0.145674	1.002425
H513	H	-0.691040	-0.710642	0.473110
H514	H	-0.191040	-0.210642	0.973110
H515	H	-0.715919	-0.705922	0.536589
H516	H	-0.215919	-0.205922	1.036589
H517	H	-0.748742	-0.665106	0.425708
H518	H	-0.248742	-0.165106	0.925708
H519	H	-0.773621	-0.660373	0.489182
H520	H	-0.273621	-0.160373	0.989182
O521	O	-0.599428	-1.024565	0.183241
O522	O	-0.099428	-0.524565	0.683241
C523	C	-0.630180	-1.059948	0.147920
C524	C	-0.130180	-0.559948	0.647920
H525	H	-0.663613	-1.062106	0.173594
H526	H	-0.163613	-0.562106	0.673594
H527	H	-0.635206	-1.037034	0.100304
H528	H	-0.135206	-0.537034	0.600304
C529	C	-0.570755	-1.123983	0.107445
C530	C	-0.070755	-0.623983	0.607445
C531	C	-0.611818	-1.126639	0.138981
C532	C	-0.111818	-0.626639	0.638981
H533	H	-0.559428	-1.165120	0.101928
H534	H	-0.059428	-0.665120	0.601928
H535	H	-0.550037	-1.100144	0.131239
H536	H	-0.050037	-0.600144	0.631239
H537	H	-0.574949	-1.104886	0.067768
H538	H	-0.074949	-0.604886	0.567768
H539	H	-0.607622	-1.145728	0.178660
H540	H	-0.107622	-0.645728	0.678660
H541	H	-0.632535	-1.150483	0.115194
H542	H	-0.132535	-0.650483	0.615194
O543	O	-0.159529	-0.268286	0.223312
O544	O	0.340471	0.231714	0.723312
C545	C	-0.134119	-0.225381	0.188036
C546	C	0.365881	0.274619	0.688036
H547	H	-0.152511	-0.178704	0.185835
H548	H	0.347489	0.321296	0.685835
H549	H	-0.100022	-0.218504	0.211070
H550	H	0.399978	0.281496	0.711070
C551	C	-0.104986	-0.308185	0.124064
C552	C	0.395014	0.191815	0.624064
C553	C	-0.127578	-0.250857	0.121356
C554	C	0.372422	0.249143	0.621356
H555	H	-0.100950	-0.323900	0.082933
H556	H	0.399050	0.176100	0.582933
H557	H	-0.122104	-0.337092	0.147831
H558	H	0.377896	0.162908	0.647831
H559	H	-0.076575	-0.302446	0.143262
H560	H	0.423425	0.197554	0.643262
H561	H	-0.155991	-0.256598	0.102166
H562	H	0.344009	0.243402	0.602166
H563	H	-0.110465	-0.221952	0.097584
H564	H	0.389535	0.278048	0.597584
O565	O	-0.159539	-0.543124	0.223252
O566	O	0.340461	-0.043124	0.723252
C567	C	-0.134155	-0.586035	0.187926
C568	C	0.365845	-0.086035	0.687926
H569	H	-0.132632	-0.632709	0.213579
H570	H	0.367368	-0.132709	0.713579
H571	H	-0.150557	-0.592917	0.140296
H572	H	0.349443	-0.092917	0.640296
C573	C	-0.088200	-0.503239	0.147519
C574	C	0.411800	-0.003239	0.647519
C575	C	-0.086326	-0.560564	0.179028
C576	C	0.413674	-0.060564	0.679028
H577	H	-0.058697	-0.487527	0.142027
H578	H	0.441303	0.012473	0.642027
H579	H	-0.105302	-0.474328	0.171316
H580	H	0.394698	0.025672	0.671316
H581	H	-0.101870	-0.508981	0.107831
H582	H	0.398130	-0.008981	0.607831
H583	H	-0.072661	-0.554819	0.218718
H584	H	0.427339	-0.054819	0.718718
H585	H	-0.069220	-0.589473	0.155237
H586	H	0.430780	-0.089473	0.655237
H587	H	-0.959647	-0.978263	0.229605
H588	H	-0.459647	-0.478263	0.729605
H589	H	-0.164112	-0.666876	0.229518
H590	H	0.335888	-0.166876	0.729518
H591	H	-0.164134	-0.978216	0.541366
H592	H	0.335866	-0.478216	1.041366
O593	O	-0.136380	-0.915267	0.738086
O594	O	0.363620	-0.415267	1.238086
C595	C	-0.100642	-0.919683	0.780995
C596	C	0.399358	-0.419683	1.280995
H597	H	-0.111268	-0.898622	0.827625
H598	H	0.388732	-0.398622	1.327625
H599	H	-0.091302	-0.970894	0.787988
H600	H	0.408698	-0.470894	1.287988
C601	C	-0.046814	-0.909647	0.698157
C602	C	0.453186	-0.409647	1.198157
C603	C	-0.059864	-0.883774	0.755428
C604	C	0.440136	-0.383774	1.255428
H605	H	-0.021660	-0.887499	0.682386
H606	H	0.478340	-0.387499	1.182386
H607	H	-0.070892	-0.906674	0.669248
H608	H	0.429108	-0.406674	1.169248
H609	H	-0.039034	-0.952322	0.703993
H610	H	0.460966	-0.452322	1.203993
H611	H	-0.067650	-0.841102	0.749590
H612	H	0.432350	-0.341102	1.249590
H613	H	-0.035787	-0.886739	0.784336
H614	H	0.464213	-0.386739	1.284336
H615	H	-0.387340	-0.832544	0.374745
H616	H	0.112660	-0.332544	0.874745
H617	H	-0.142751	-0.914510	0.861847
H618	H	0.357249	-0.414510	1.361847
H619	H	-0.163998	-0.978217	1.063709
H620	H	0.336002	-0.478217	1.563709
H621	H	-0.688156	-1.018245	0.189559
H622	H	-0.188156	-0.518245	0.689559
