data_functionalizedCrystal
_audit_creation_method	'MofGen! by Chris Wilmer'
_symmetry_space_group_name_H-M	'P1'
_symmetry_Int_Tables_number	1
_symmetry_cell_setting	triclinic
loop_
_symmetry_equiv_pos_as_xyz
  x,y,z
_cell_length_a	11.026607
_cell_length_b	10.967829
_cell_length_c	10.065875
_cell_angle_alpha	93.078793
_cell_angle_beta	79.302338
_cell_angle_gamma	83.619437
loop_
_atom_site_label
_atom_site_type_symbol
_atom_site_fract_x
_atom_site_fract_y
_atom_site_fract_z
O1	O	1.650232	-0.494401	-0.229769
O2	O	1.294313	-0.436514	-0.216157
O3	O	1.474049	-0.290844	-0.181891
O4	O	1.470496	-0.640071	-0.264035
O5	O	1.439782	-0.318764	0.038531
O6	O	1.260047	-0.464434	0.004264
O7	O	1.615965	-0.522321	-0.009348
Zn8	Zn	1.432565	-0.497810	0.032455
Zn9	Zn	1.477713	-0.461025	-0.257959
O10	O	1.436230	-0.667991	-0.043614
C11	C	1.231487	-0.439794	-0.103435
C12	C	1.095337	-0.407959	-0.095948
C13	C	1.454068	-0.259400	-0.061003
C14	C	1.445569	-0.124107	-0.029189
C15	C	1.025499	-0.495861	-0.116625
C16	C	0.884780	-0.462960	-0.108888
C17	C	1.678792	-0.519040	-0.122073
C18	C	1.814944	-0.550874	-0.129568
N19	N	1.401762	-0.522917	0.230655
C20	C	1.456211	-0.699435	-0.164505
C21	C	1.464712	-0.834726	-0.196328
C22	C	1.459531	-0.049332	-0.129191
C23	C	1.450747	0.090500	-0.096311
N24	N	1.508526	-0.435911	-0.456158
C25	C	1.466988	-0.469751	0.310940
C26	C	1.443291	-0.489085	0.463559
H27	H	0.840403	-0.363336	-0.085490
H28	H	1.432282	0.129999	0.013653
N29	N	0.873704	-0.682839	-0.160607
H30	H	0.913660	-0.710330	-0.082928
H31	H	0.939010	-0.689536	-0.246382
N32	N	1.036554	-0.276007	-0.064894
H33	H	0.944361	-0.271209	-0.063763
H34	H	1.075753	-0.223923	-0.136788
H35	H	1.328371	-0.582742	0.274908
H36	H	1.069885	-0.595475	-0.140049
N37	N	1.346068	-0.568334	0.522162
H38	H	1.386587	-0.639389	0.564729
H39	H	1.305825	-0.601068	0.447552
N40	N	1.489152	0.112973	-0.341992
H41	H	1.491961	0.020496	-0.344837
H42	H	1.571400	0.135188	-0.390832
N43	N	1.564189	-0.390496	0.252312
H44	H	1.648141	-0.426140	0.268691
H45	H	1.542118	-0.304336	0.297400
N46	N	1.605735	-0.356642	0.485254
H47	H	1.608885	-0.354062	0.384534
H48	H	1.689626	-0.392342	0.501742
N49	N	1.483822	-0.101629	-0.274843
H50	H	1.486581	-0.194101	-0.277684
H51	H	1.566042	-0.079457	-0.323811
N52	N	1.421128	-0.071789	0.116464
H53	H	1.489820	-0.107095	0.162285
H54	H	1.338836	-0.093924	0.165282
