data_functionalizedCrystal
_audit_creation_method	'MofGen! by Chris Wilmer'
_symmetry_space_group_name_H-M	'P1'
_symmetry_Int_Tables_number	1
_symmetry_cell_setting	triclinic
loop_
_symmetry_equiv_pos_as_xyz
  x,y,z
_cell_length_a	27.440280
_cell_length_b	21.606444
_cell_length_c	21.606444
_cell_angle_alpha	60.002891
_cell_angle_beta	90.004006
_cell_angle_gamma	59.998580
loop_
_atom_site_label
_atom_site_type_symbol
_atom_site_fract_x
_atom_site_fract_y
_atom_site_fract_z
Zr1	Zr	-0.063976	0.677478	0.596236
O2	O	-0.141793	0.806601	0.497405
O3	O	-0.040121	0.548358	0.626529
O4	O	-0.141796	0.677489	0.626517
O5	O	0.040084	0.677460	0.497431
O6	O	-0.141799	0.677493	0.728366
O7	O	-0.040118	0.677471	0.497417
O8	O	0.040078	0.446502	0.728389
O9	O	-0.141793	0.908451	0.497408
O10	O	-0.029950	0.601469	0.715463
O11	O	0.029906	0.601458	0.639464
O12	O	-0.089802	0.753493	0.639449
O13	O	-0.029946	0.753482	0.563450
Zr14	Zr	0.063932	0.677468	0.758696
Zr15	Zr	-0.063981	0.677485	0.758674
Zr16	Zr	0.063937	0.677461	0.596258
Zr17	Zr	-0.063977	0.839917	0.596242
Zr18	Zr	0.063933	0.515029	0.758690
O19	O	0.040077	0.806588	0.728403
O20	O	-0.141799	0.806611	0.728371
O21	O	0.040083	0.806578	0.497436
O22	O	0.141748	0.548345	0.857527
O23	O	-0.040128	0.548368	0.857496
O24	O	0.141755	0.548335	0.626560
O25	O	-0.040128	0.677486	0.857501
O26	O	0.141751	0.677457	0.728415
O27	O	0.141754	0.677453	0.626565
O28	O	0.040074	0.677476	0.857515
O29	O	-0.141797	0.908457	0.626525
O30	O	0.141752	0.446489	0.728406
O31	O	0.141749	0.446495	0.857523
O32	O	0.040075	0.446508	0.857506
O33	O	-0.040119	0.908438	0.497426
O34	O	-0.040123	0.908444	0.626543
O35	O	0.089758	0.601454	0.715483
O36	O	0.029902	0.601465	0.791482
O37	O	-0.029951	0.753488	0.715468
O38	O	0.029906	0.753477	0.639469
C39	C	-0.000021	0.474286	0.677458
C40	C	-0.000021	0.405326	0.677456
C41	C	-0.031266	-0.017977	0.717148
C42	C	-0.031269	0.046824	0.717142
C43	C	-0.000024	0.079215	0.677469
C44	C	0.031220	0.046809	0.637793
C45	C	0.031218	-0.017986	0.637794
C46	C	0.031225	0.308120	0.637785
C47	C	0.031226	0.372917	0.637788
C48	C	-0.031262	0.372929	0.717133
C49	C	-0.031263	0.308135	0.717134
C50	C	-0.000022	0.275737	0.677455
C51	C	-0.000021	0.205475	0.677460
C52	C	-0.000022	0.149472	0.677468
C53	C	-0.160022	0.677494	0.677438
C54	C	-0.214324	0.677501	0.677429
C55	C	-0.551023	0.677456	0.733596
C56	C	-0.602041	0.677450	0.733603
O57	O	-0.628417	0.677419	0.781339
N58	N	-0.627557	0.677449	0.677493
C59	C	-0.602050	0.677445	0.621376
O60	O	-0.628437	0.677443	0.573651
C61	C	-0.551030	0.677445	0.621373
C62	C	-0.525520	0.677455	0.677483
C63	C	-0.525513	0.677465	0.789702
C64	C	-0.474499	0.677473	0.789694
C65	C	-0.448996	0.677472	0.733581
C66	C	-0.474506	0.677463	0.677475
C67	C	-0.525521	0.677436	0.565261
C68	C	-0.474498	0.677435	0.565263
C69	C	-0.448988	0.677445	0.621373
C70	C	-0.397990	0.677470	0.621354
N71	N	-0.372473	0.677471	0.677465
C72	C	-0.397977	0.677472	0.733578
C73	C	-0.709193	0.677443	0.621387
C74	C	-0.760214	0.677450	0.621386
C75	C	-0.760202	0.677452	0.733615
C76	C	-0.709182	0.677452	0.733612
C77	C	-0.683677	0.677444	0.677498
C78	C	-0.290844	0.677490	0.733557
C79	C	-0.239828	0.677501	0.733543
C80	C	-0.239843	0.677494	0.621317
C81	C	-0.290857	0.677487	0.621329
C82	C	-0.316355	0.677482	0.677456
O83	O	-0.371579	0.677498	0.573644
O84	O	-0.371578	0.677463	0.781301
C85	C	0.159978	0.677453	0.677493
C86	C	0.214280	0.677446	0.677503
C87	C	-0.000016	0.677464	0.474280
C88	C	-0.000014	0.677461	0.405321
C89	C	-0.000023	0.880660	0.677474
C90	C	-0.000023	0.949620	0.677476
C91	C	0.031226	0.598107	0.412600
C92	C	0.031226	0.598110	0.347802
C93	C	-0.000017	0.677467	0.275727
C94	C	-0.031258	0.756828	0.268449
C95	C	-0.031255	0.756824	0.333246
C96	C	-0.031272	0.756843	0.007131
C97	C	-0.031274	0.756840	-0.057667
C98	C	0.031210	0.598128	0.021688
C99	C	0.031213	0.598125	0.086484
C100	C	-0.000025	0.677485	0.079201
C101	C	-0.000025	0.677481	0.149462
C102	C	-0.000022	0.677472	0.205466
C103	C	-0.000028	0.677482	0.880652
C104	C	-0.000030	0.677485	0.949611
C105	C	-0.000027	0.474295	0.880644
C106	C	-0.000029	0.405338	0.949601
C107	C	0.159979	0.474266	0.677486
C108	C	0.214281	0.405299	0.677492
C109	C	0.159973	0.474274	0.880672
C110	C	0.214274	0.405311	0.949638
C111	C	-0.160017	0.880672	0.474260
C112	C	-0.214318	0.949636	0.405294
C113	C	-0.000017	0.880651	0.474288
C114	C	-0.000016	0.949608	0.405331
C115	C	-0.160023	0.880681	0.677446
C116	C	-0.214326	0.949647	0.677439
C117	C	-0.031277	0.372958	0.942302
C118	C	-0.031290	0.308174	1.007088
C119	C	-0.000052	0.275768	1.079172
C120	C	0.031197	0.308155	1.086469
C121	C	0.031207	0.372942	1.021684
C122	C	0.271030	0.372909	0.717177
C123	C	0.322058	0.308117	0.717180
C124	C	0.316336	0.275711	0.677503
C125	C	0.259582	0.308107	0.637814
C126	C	0.208555	0.372903	0.637806
C127	C	0.208529	0.372930	1.021702
C128	C	0.259546	0.308141	1.086510
C129	C	0.316306	0.275728	1.079251
C130	C	0.322049	0.308115	1.007178
C131	C	0.271033	0.372908	0.942373
C132	C	-0.208574	0.982024	0.333229
C133	C	-0.259590	1.046834	0.268422
C134	C	-0.316350	1.079250	0.275681
C135	C	-0.322093	1.046859	0.347754
C136	C	-0.271077	0.982055	0.412559
C137	C	0.031227	0.981996	0.412629
C138	C	0.031227	1.046797	0.347843
C139	C	-0.000014	1.079205	0.275759
C140	C	-0.031260	1.046815	0.268462
C141	C	-0.031263	0.982019	0.333248
C142	C	-0.208585	0.982033	0.717124
C143	C	-0.259603	1.046826	0.717133
C144	C	-0.316362	1.079237	0.677452
C145	C	-0.322101	1.046845	0.637765
C146	C	-0.271084	0.982048	0.637762
H147	H	-0.056706	-0.044349	0.749458
H148	H	0.254859	0.281778	1.145188
H149	H	0.056656	0.399298	1.027637
C150	C	0.372473	0.204425	0.677527
N151	N	0.414758	0.150728	0.677551
H152	H	-0.056722	0.399342	0.883614
H153	H	-0.056737	0.281813	1.001132
H154	H	-0.056717	0.821466	-0.116356
C155	C	-0.788273	0.677448	0.559657
N156	N	-0.809403	0.677440	0.513163
C157	C	-0.277406	0.946424	0.491829
N158	N	-0.282177	0.919589	0.551535
H159	H	-0.311633	0.677492	0.575633
H160	H	-0.000007	1.131966	0.223013
H161	H	0.162350	0.399266	0.605493
C162	C	-0.065627	0.946390	0.325206
N163	N	-0.091510	0.919556	0.319144
C164	C	0.065590	0.082441	0.594152
N165	N	0.091480	0.109275	0.561285
C166	C	-0.065646	0.844141	-0.000890
N167	N	-0.091541	0.909899	-0.006932
C168	C	0.277361	0.408517	0.863103
N169	N	0.282133	0.435336	0.803397
H170	H	0.368270	0.281715	1.001279
C171	C	-0.788261	0.677444	0.795345
N172	N	-0.809397	0.677437	0.841839
H173	H	-0.254903	1.073196	0.209744
C174	C	0.065562	0.272493	1.165769
N175	N	0.091449	0.245625	1.225500
H176	H	0.056671	0.955614	0.471318
H177	H	-0.056710	0.073207	0.749445
H178	H	-0.056694	0.821442	0.209759
C179	C	0.384482	0.272485	0.760852
N180	N	0.431499	0.245646	0.793748
H181	H	-0.162362	0.955634	0.327304
C182	C	-0.065613	1.082462	0.189163
N183	N	-0.091481	1.109305	0.129432
C184	C	-0.372464	1.150530	0.204385
N185	N	-0.414727	1.204214	0.150682
C186	C	0.253298	0.272446	0.594176
N187	N	0.248566	0.245580	0.561312
C188	C	-0.384535	1.082518	0.355726
N189	N	-0.431568	1.109373	0.361729
H190	H	-0.162374	0.955654	0.749437
C191	C	0.065607	1.082407	0.355887
N192	N	0.091504	1.109225	0.361948
C193	C	-0.253276	1.082449	0.760788
N194	N	-0.248509	1.109279	0.793669
C195	C	0.372420	0.204447	1.150547
N196	N	0.414682	0.150755	1.204250
H197	H	-0.056702	0.399317	0.749439
H198	H	-0.546284	0.677427	0.519571
H199	H	-0.056703	0.281761	0.749443
C200	C	0.146098	0.408577	1.029706
N201	N	0.099076	0.435426	1.035741
H202	H	-0.453733	0.677426	0.519569
H203	H	-0.357899	1.131998	0.677460
H204	H	-0.056687	0.821443	0.327314
H205	H	0.056647	0.533509	0.027612
H206	H	-0.368321	1.073244	0.605458
H207	H	-0.219072	0.677497	0.575628
H208	H	0.056671	0.533485	0.471284
H209	H	-0.275766	0.955687	0.605442
H210	H	0.056666	0.281747	0.605478
C211	C	0.065601	0.408544	0.594145
N212	N	0.091493	0.435376	0.561277
H213	H	0.056658	-0.044366	0.605488
H214	H	-0.219060	0.677512	0.779234
H215	H	-0.311599	0.677484	0.779261
H216	H	0.275700	0.399287	0.749487
C217	C	-0.446439	0.677469	0.851427
N218	N	-0.425306	0.677461	0.897930
C219	C	-0.553555	0.677456	0.851442
N220	N	-0.574673	0.677451	0.897947
H221	H	-0.688432	0.677444	0.575687
H222	H	-0.688415	0.677460	0.779301
H223	H	0.056666	0.533491	0.353736
H224	H	0.056653	0.533504	0.145169
H225	H	-0.000064	0.223014	1.131919
