data_functionalizedCrystal
_audit_creation_method	'MofGen! by Chris Wilmer'
_symmetry_space_group_name_H-M	'P1'
_symmetry_Int_Tables_number	1
_symmetry_cell_setting	triclinic
loop_
_symmetry_equiv_pos_as_xyz
  x,y,z
_cell_length_a	14.519731
_cell_length_b	18.266242
_cell_length_c	14.519709
_cell_angle_alpha	89.993935
_cell_angle_beta	96.315501
_cell_angle_gamma	90.009033
loop_
_atom_site_label
_atom_site_type_symbol
_atom_site_fract_x
_atom_site_fract_y
_atom_site_fract_z
O1	O	1.223861	0.060884	-0.120985
O2	O	1.557195	0.394217	0.212349
O3	O	1.890528	0.727551	0.545682
O4	O	0.955387	0.060885	-0.135201
O5	O	1.288720	0.394219	0.198133
O6	O	1.622054	0.727552	0.531466
O7	O	1.096742	0.060878	0.006145
O8	O	1.430076	0.394211	0.339479
O9	O	1.763409	0.727545	0.672812
O10	O	1.082506	0.060891	-0.262331
O11	O	1.415839	0.394225	0.071003
O12	O	1.749173	0.727558	0.404336
O13	O	1.096718	-0.060884	0.006149
O14	O	1.430052	0.272450	0.339483
O15	O	1.763385	0.605783	0.672816
O16	O	0.955363	-0.060877	-0.135197
O17	O	1.288696	0.272457	0.198137
O18	O	1.622030	0.605790	0.531470
O19	O	1.223837	-0.060878	-0.120981
O20	O	1.557171	0.272455	0.212353
O21	O	1.890504	0.605789	0.545686
Zn22	Zn	1.089596	-0.080210	-0.128088
Zn23	Zn	1.422930	0.253124	0.205245
Zn24	Zn	1.756263	0.586457	0.538579
Zn25	Zn	1.089628	0.080217	-0.128093
Zn26	Zn	1.422961	0.413550	0.205240
Zn27	Zn	1.756295	0.746884	0.538573
O28	O	1.082482	-0.060871	-0.262326
O29	O	1.415815	0.272463	0.071007
O30	O	1.749149	0.605796	0.404340
C31	C	0.921016	0.000005	-0.134532
C32	C	1.254349	0.333338	0.198801
C33	C	1.587682	0.666671	0.532134
C34	C	0.818635	0.000005	-0.132536
C35	C	1.151969	0.333338	0.200797
C36	C	1.485302	0.666672	0.534130
C37	C	0.735491	0.000008	-0.130915
C38	C	1.068825	0.333341	0.202419
C39	C	1.402158	0.666674	0.535752
C40	C	0.631182	0.000008	-0.128888
C41	C	0.964516	0.333341	0.204445
C42	C	1.297849	0.666675	0.537779
C43	C	0.548043	0.000008	-0.127280
C44	C	0.881377	0.333341	0.206054
C45	C	1.214710	0.666674	0.539387
C46	C	0.443728	0.000009	-0.125253
C47	C	0.777061	0.333343	0.208080
C48	C	1.110395	0.666676	0.541414
N49	N	1.089581	-0.189696	-0.128084
N50	N	1.422915	0.143637	0.205250
N51	N	1.756248	0.476970	0.538583
C52	C	1.145596	-0.227997	-0.184151
C53	C	1.478930	0.105337	0.149182
C54	C	1.812263	0.438670	0.482515
C55	C	1.145612	-0.304642	-0.184149
C56	C	1.478945	0.028692	0.149184
C57	C	1.812278	0.362025	0.482518
C58	C	1.089595	-0.342983	-0.128089
C59	C	1.422928	-0.009650	0.205244
C60	C	1.756261	0.323683	0.538577
C61	C	1.033576	-0.304674	-0.072010
C62	C	1.366909	0.028659	0.261323
C63	C	1.700243	0.361993	0.594656
C64	C	1.033569	-0.228031	-0.072007
C65	C	1.366903	0.105303	0.261326
C66	C	1.700236	0.438636	0.594659
N67	N	1.008816	-0.463336	-0.125431
N68	N	1.342149	-0.130002	0.207902
N69	N	1.675483	0.203331	0.541235
N70	N	1.008825	-0.536144	-0.125439
N71	N	1.342158	-0.202811	0.207894
N72	N	1.675491	0.130523	0.541227
C73	C	1.089613	-0.573906	-0.128093
C74	C	1.422946	-0.240572	0.205241
C75	C	1.756280	0.092761	0.538574
N76	N	1.170393	-0.536109	-0.130756
N77	N	1.503726	-0.202776	0.202577
N78	N	1.837060	0.130558	0.535911
N79	N	1.170383	-0.463294	-0.130753
N80	N	1.503716	-0.129961	0.202580
N81	N	1.837050	0.203372	0.535914
C82	C	1.089596	-0.426090	-0.128086
C83	C	1.422930	-0.092757	0.205248
C84	C	1.756263	0.240576	0.538581
C85	C	1.145650	-0.695313	-0.184161
C86	C	1.478983	-0.361980	0.149173
C87	C	1.812316	-0.028646	0.482506
C88	C	1.145667	-0.771959	-0.184152
C89	C	1.479000	-0.438626	0.149182
C90	C	1.812333	-0.105293	0.482515
C91	C	1.033623	-0.771990	-0.072018
C92	C	1.366956	-0.438657	0.261315
C93	C	1.700289	-0.105324	0.594648
C94	C	1.033614	-0.695346	-0.072022
C95	C	1.366947	-0.362012	0.261311
C96	C	1.700281	-0.028679	0.594645
C97	C	1.089626	-0.657011	-0.128098
C98	C	1.422959	-0.323678	0.205235
C99	C	1.756293	0.009655	0.538568
C100	C	1.258209	0.000005	-0.121649
C101	C	1.591542	0.333338	0.211685
C102	C	1.924875	0.666671	0.545018
C103	C	1.360589	0.000009	-0.123645
C104	C	1.693922	0.333342	0.209689
C105	C	2.027256	0.666676	0.543022
C106	C	1.096067	-0.000003	0.040507
C107	C	1.429400	0.333330	0.373840
C108	C	1.762734	0.666664	0.707174
C109	C	1.094079	-0.000003	0.142889
C110	C	1.427412	0.333330	0.476222
C111	C	1.760745	0.666663	0.809555
N112	N	1.089650	0.189704	-0.128090
N113	N	1.422984	0.523037	0.205243
N114	N	1.756317	0.856371	0.538576
C115	C	1.083157	0.000012	-0.296688
C116	C	1.416491	0.333345	0.036645
C117	C	1.749824	0.666679	0.369978
C118	C	1.085146	0.000017	-0.399070
C119	C	1.418479	0.333351	-0.065736
C120	C	1.751812	0.666684	0.267597
C121	C	1.086759	0.000016	0.517785
C122	C	1.420093	0.333349	0.851118
C123	C	1.753426	0.666682	1.184452
C124	C	1.088792	0.000010	0.413477
C125	C	1.422125	0.333344	0.746810
C126	C	1.755459	0.666677	1.080143
C127	C	1.090419	0.000005	0.330340
C128	C	1.423752	0.333339	0.663673
C129	C	1.757085	0.666672	0.997007
C130	C	1.092452	0.000001	0.226025
C131	C	1.425785	0.333335	0.559359
C132	C	1.759118	0.666668	0.892692
H133	H	1.191226	-0.335832	-0.229808
H134	H	1.524560	-0.002498	0.103525
H135	H	1.857893	0.330835	0.436858
H136	H	0.987953	-0.196847	-0.026349
H137	H	1.321287	0.136486	0.306984
H138	H	1.654620	0.469820	0.640317
C139	C	0.972004	-0.814157	-0.010354
C140	C	1.305338	-0.480824	0.322979
C141	C	1.638671	-0.147490	0.656312
H142	H	0.980026	-0.865289	-0.018389
H143	H	1.313359	-0.531956	0.314945
H144	H	1.646693	-0.198623	0.648278
H145	H	0.989034	-0.801600	0.052708
H146	H	1.322367	-0.468266	0.386041
H147	H	1.655700	-0.134933	0.719374
H148	H	0.908931	-0.801607	-0.027352
H149	H	1.242264	-0.468273	0.305982
H150	H	1.575597	-0.134940	0.639315
H151	H	0.987968	-0.335897	-0.026365
H152	H	1.321301	-0.002564	0.306968
H153	H	1.654634	0.330770	0.640301
H154	H	1.191287	-0.803142	-0.229806
H155	H	1.524621	-0.469809	0.103527
H156	H	1.857954	-0.136475	0.436861
H157	H	1.191258	-0.664100	-0.229821
H158	H	1.524592	-0.330766	0.103513
H159	H	1.857925	0.002567	0.436846
C160	C	1.207215	-0.185830	-0.245821
C161	C	1.540549	0.147504	0.087513
C162	C	1.873882	0.480837	0.420846
H163	H	1.199187	-0.134697	-0.237795
H164	H	1.532520	0.198636	0.095539
H165	H	1.865854	0.531969	0.428872
H166	H	1.270284	-0.198384	-0.228833
H167	H	1.603617	0.134949	0.104501
H168	H	1.936951	0.468283	0.437834
H169	H	1.190176	-0.198385	-0.308887
H170	H	1.523509	0.134948	0.024446
H171	H	1.856843	0.468282	0.357780
H172	H	0.987996	-0.664161	-0.026369
H173	H	1.321330	-0.330828	0.306964
H174	H	1.654663	0.002505	0.640297
