data_functionalizedCrystal
_audit_creation_method	'MofGen! by Chris Wilmer'
_symmetry_space_group_name_H-M	'P1'
_symmetry_Int_Tables_number	1
_symmetry_cell_setting	triclinic
loop_
_symmetry_equiv_pos_as_xyz
  x,y,z
_cell_length_a	12.827893
_cell_length_b	12.827892
_cell_length_c	18.215399
_cell_angle_alpha	89.973563
_cell_angle_beta	89.985304
_cell_angle_gamma	90.015552
loop_
_atom_site_label
_atom_site_type_symbol
_atom_site_fract_x
_atom_site_fract_y
_atom_site_fract_z
Zn1	Zn	1.597622	-0.416014	-0.416094
Zn2	Zn	1.930956	-0.082681	-0.082761
Zn3	Zn	2.264289	0.250652	0.250573
Zn4	Zn	1.597530	-0.590781	-0.293036
Zn5	Zn	1.930864	-0.257448	0.040297
Zn6	Zn	2.264197	0.075886	0.373630
Zn7	Zn	1.422878	-0.416055	-0.293046
Zn8	Zn	1.756211	-0.082722	0.040287
Zn9	Zn	2.089544	0.250612	0.373621
Zn10	Zn	1.422849	-0.590715	-0.416066
Zn11	Zn	1.756182	-0.257381	-0.082732
Zn12	Zn	2.089516	0.075952	0.250601
O13	O	1.510220	-0.503391	-0.354561
O14	O	1.843553	-0.170058	-0.021227
O15	O	2.176887	0.163275	0.312106
O16	O	1.743846	-0.439208	-0.399778
O17	O	2.077180	-0.105875	-0.066445
O18	O	2.410513	0.227458	0.266889
O19	O	1.574336	-0.567648	-0.190053
O20	O	1.907669	-0.234315	0.143280
O21	O	2.241003	0.099019	0.476613
O22	O	1.446108	-0.269814	-0.309385
O23	O	1.779442	0.063520	0.023949
O24	O	2.112775	0.396853	0.357282
O25	O	1.743779	-0.567609	-0.309368
O26	O	2.077112	-0.234275	0.023965
O27	O	2.410445	0.099058	0.357299
O28	O	1.574493	-0.269784	-0.399788
O29	O	1.907826	0.063550	-0.066454
O30	O	2.241159	0.396883	0.266879
O31	O	1.446019	-0.439278	-0.190060
O32	O	1.779353	-0.105944	0.143273
O33	O	2.112686	0.227389	0.476606
O34	O	1.276638	-0.439213	-0.309357
O35	O	1.609971	-0.105880	0.023976
O36	O	1.943305	0.227453	0.357310
O37	O	1.446060	-0.567495	-0.519054
O38	O	1.779393	-0.234162	-0.185721
O39	O	2.112726	0.099171	0.147613
O40	O	1.276617	-0.567535	-0.399739
O41	O	1.609950	-0.234202	-0.066406
O42	O	1.943284	0.099132	0.266928
O43	O	1.574465	-0.439144	-0.519075
O44	O	1.907798	-0.105811	-0.185741
O45	O	2.241131	0.227523	0.147592
O46	O	1.574308	-0.737008	-0.309340
O47	O	1.907641	-0.403675	0.023993
O48	O	2.240975	-0.070342	0.357326
O49	O	1.445970	-0.736960	-0.399730
O50	O	1.779304	-0.403626	-0.066396
O51	O	2.112637	-0.070293	0.266937
C52	C	1.238710	-0.503372	-0.354547
C53	C	1.572043	-0.170039	-0.021213
C54	C	1.905377	0.163295	0.312120
C55	C	1.122557	-0.503389	-0.354558
C56	C	1.455890	-0.170056	-0.021225
C57	C	1.789224	0.163278	0.312109
C58	C	0.950695	-0.566844	-0.309774
C59	C	1.284028	-0.233510	0.023560
C60	C	1.617361	0.099823	0.356893
C61	C	1.070745	-0.566828	-0.309761
C62	C	1.404078	-0.233494	0.023572
C63	C	1.737412	0.099839	0.356906
C64	C	1.510155	-0.774901	-0.354547
C65	C	1.843488	-0.441568	-0.021214
C66	C	2.176821	-0.108235	0.312120
C67	C	1.510222	-0.891054	-0.354566
C68	C	1.843556	-0.557721	-0.021232
C69	C	2.176889	-0.224388	0.312101
C70	C	1.573722	-0.942741	-0.399340
C71	C	1.907056	-0.609408	-0.066007
C72	C	2.240389	-0.276074	0.267327
C73	C	1.573794	-1.062791	-0.399361
C74	C	1.907127	-0.729458	-0.066027
C75	C	2.240460	-0.396125	0.267306
C76	C	1.782790	-0.503411	-0.354575
C77	C	2.116123	-0.170078	-0.021242
C78	C	2.449457	0.163255	0.312092
C79	C	1.898943	-0.503420	-0.354581
C80	C	2.232276	-0.170087	-0.021248
C81	C	2.565610	0.163247	0.312085
C82	C	1.510269	-0.503308	-0.546514
C83	C	1.843603	-0.169974	-0.213180
C84	C	2.176936	0.163359	0.120153
C85	C	1.510290	-0.503272	-0.628313
C86	C	1.843624	-0.169939	-0.294979
C87	C	2.176957	0.163394	0.038354
C88	C	1.510314	-0.230821	-0.354590
C89	C	1.843647	0.102512	-0.021257
C90	C	2.176981	0.435845	0.312076
C91	C	1.510354	-0.114668	-0.354603
C92	C	1.843687	0.218665	-0.021270
C93	C	2.177021	0.551999	0.312064
C94	C	1.443532	-0.436385	-0.816511
C95	C	1.776866	-0.103051	-0.483178
C96	C	2.110199	0.230282	-0.149845
C97	C	1.443550	-0.436364	-0.893370
C98	C	1.776884	-0.103030	-0.560037
C99	C	2.110217	0.230303	-0.226703
C100	C	1.577173	-0.570035	-0.893352
C101	C	1.910507	-0.236702	-0.560018
C102	C	2.243840	0.096631	-0.226685
C103	C	1.577149	-0.570061	-0.816494
C104	C	1.910482	-0.236727	-0.483161
C105	C	2.243816	0.096606	-0.149828
C106	C	1.510330	-0.503230	-0.778076
C107	C	1.843663	-0.169896	-0.444743
C108	C	2.176997	0.163437	-0.111409
C109	C	1.510372	-0.503183	-0.931792
C110	C	1.843706	-0.169850	-0.598459
C111	C	2.177039	0.163484	-0.265126
C112	C	1.510393	-0.503161	-1.015126
C113	C	1.843726	-0.169827	-0.681793
C114	C	2.177059	0.163506	-0.348459
C115	C	1.510308	-0.503253	-0.694737
C116	C	1.843642	-0.169920	-0.361404
C117	C	2.176975	0.163414	-0.028070
C118	C	1.510231	-0.503399	-0.163354
C119	C	1.843564	-0.170066	0.169979
C120	C	2.176898	0.163268	0.503312
C121	C	1.510412	-0.503140	-0.081556
C122	C	1.843746	-0.169807	0.251778
C123	C	2.177079	0.163526	0.585111
H124	H	0.943514	-0.449104	-0.392930
H125	H	1.276847	-0.115771	-0.059596
H126	H	1.610180	0.217563	0.273737
O127	O	1.438343	-1.055801	-0.303817
O128	O	1.771676	-0.722468	0.029516
O129	O	2.105010	-0.389135	0.362850
H130	H	1.391891	-1.112071	-0.271029
H131	H	1.725224	-0.778737	0.062304
H132	H	2.058557	-0.445404	0.395637
O133	O	1.438287	-0.950159	-0.303800
O134	O	1.771620	-0.616826	0.029533
O135	O	2.104953	-0.283493	0.362867
H136	H	1.385169	-0.999911	-0.336741
H137	H	1.718502	-0.666577	-0.003408
H138	H	2.051835	-0.333244	0.329925
H139	H	1.115250	-0.621133	-0.271404
H140	H	1.448584	-0.287800	0.061930
H141	H	1.781917	0.045534	0.395263
H142	H	1.389156	-0.381933	-0.924660
H143	H	1.722489	-0.048599	-0.591327
H144	H	2.055823	0.284734	-0.257994
O145	O	1.645676	-0.883645	-0.450098
O146	O	1.979010	-0.550311	-0.116765
O147	O	2.312343	-0.216978	0.216569
H148	H	1.634336	-0.798626	-0.442112
H149	H	1.967669	-0.465293	-0.108778
H150	H	2.301003	-0.131959	0.224555
O151	O	1.063622	-0.431456	-0.405379
O152	O	1.396956	-0.098123	-0.072046
O153	O	1.730289	0.235210	0.261288
H154	H	1.084523	-0.349397	-0.392868
H155	H	1.417856	-0.016064	-0.059535
H156	H	1.751189	0.317269	0.273799
H157	H	1.631576	-0.624446	-0.924641
H158	H	1.964909	-0.291113	-0.591308
H159	H	2.298242	0.042221	-0.257975
H160	H	1.631546	-0.624498	-0.785200
H161	H	1.964880	-0.291165	-0.451866
H162	H	2.298213	0.042169	-0.118533
H163	H	0.906124	-0.621151	-0.271419
H164	H	1.239458	-0.287817	0.061915
H165	H	1.572791	0.045516	0.395248
H166	H	1.628163	-1.107241	-0.437691
H167	H	1.961496	-0.773908	-0.104358
H168	H	2.294829	-0.440574	0.228976
H169	H	1.389124	-0.381967	-0.785233
H170	H	1.722457	-0.048633	-0.451900
H171	H	2.055791	0.284700	-0.118567
