data_functionalizedCrystal
_audit_creation_method	'MofGen! by Chris Wilmer'
_symmetry_space_group_name_H-M	'P1'
_symmetry_Int_Tables_number	1
_symmetry_cell_setting	triclinic
loop_
_symmetry_equiv_pos_as_xyz
  x,y,z
_cell_length_a	19.077236
_cell_length_b	29.839131
_cell_length_c	19.076919
_cell_angle_alpha	87.739939
_cell_angle_beta	90.112677
_cell_angle_gamma	92.327558
loop_
_atom_site_label
_atom_site_type_symbol
_atom_site_fract_x
_atom_site_fract_y
_atom_site_fract_z
Zn1	Zn	1.058245	-0.163079	0.440490
Zn2	Zn	1.391579	0.170254	0.773824
Zn3	Zn	1.724912	0.503587	1.107157
Zn4	Zn	1.062865	-0.235075	0.322961
Zn5	Zn	1.396198	0.098258	0.656294
Zn6	Zn	1.729532	0.431592	0.989628
Zn7	Zn	0.945461	-0.162844	0.318271
Zn8	Zn	1.278794	0.170490	0.651604
Zn9	Zn	1.612128	0.503823	0.984937
Zn10	Zn	0.940683	-0.241068	0.435697
Zn11	Zn	1.274016	0.092265	0.769031
Zn12	Zn	1.607349	0.425598	1.102364
O13	O	1.001814	-0.200517	0.379355
O14	O	1.335147	0.132817	0.712688
O15	O	1.668480	0.466150	1.046022
O16	O	1.157193	-0.170220	0.428869
O17	O	1.490526	0.163113	0.762202
O18	O	1.823859	0.496447	1.095536
O19	O	1.051224	-0.222886	0.224009
O20	O	1.384558	0.110447	0.557342
O21	O	1.717891	0.443780	0.890676
O22	O	0.960488	-0.100007	0.334526
O23	O	1.293822	0.233326	0.667860
O24	O	1.627155	0.566659	1.001193
O25	O	1.160587	-0.223115	0.342521
O26	O	1.493920	0.110218	0.675854
O27	O	1.827253	0.443552	1.009187
O28	O	1.043351	-0.100180	0.424321
O29	O	1.376684	0.233153	0.757654
O30	O	1.710017	0.566486	1.090987
O31	O	0.964968	-0.169819	0.220563
O32	O	1.298301	0.163515	0.553896
O33	O	1.631635	0.496848	0.887229
O34	O	0.846493	-0.175630	0.329879
O35	O	1.179826	0.157703	0.663212
O36	O	1.513159	0.491037	0.996545
O37	O	0.952345	-0.233330	0.534663
O38	O	1.285678	0.100003	0.867997
O39	O	1.619011	0.433337	1.201330
O40	O	0.842982	-0.233102	0.416152
O41	O	1.176315	0.100232	0.749485
O42	O	1.509649	0.433565	1.082818
O43	O	1.038717	-0.176032	0.538185
O44	O	1.372051	0.157302	0.871518
O45	O	1.705384	0.490635	1.204851
O46	O	1.046591	-0.298738	0.337873
O47	O	1.379924	0.034596	0.671206
O48	O	1.713258	0.367929	1.004540
O49	O	0.956824	-0.303141	0.420700
O50	O	1.290157	0.030192	0.754033
O51	O	1.623491	0.363526	1.087366
C52	C	0.819240	-0.204991	0.371986
C53	C	1.152574	0.128342	0.705320
C54	C	1.485907	0.461676	1.038653
C55	C	0.741134	-0.206916	0.368851
C56	C	1.074467	0.126417	0.702184
C57	C	1.407801	0.459750	1.035517
C58	C	0.702670	-0.180329	0.412403
C59	C	1.036004	0.153004	0.745736
C60	C	1.369337	0.486338	1.079070
C61	C	0.629282	-0.182136	0.409451
C62	C	0.962615	0.151198	0.742784
C63	C	1.295948	0.484531	1.076118
C64	C	0.594358	-0.210533	0.362949
C65	C	0.927691	0.122801	0.696283
C66	C	1.261024	0.456134	1.029616
C67	C	0.632827	-0.237121	0.319392
C68	C	0.966160	0.096212	0.652725
C69	C	1.299493	0.429545	0.986059
C70	C	0.706214	-0.235312	0.322341
C71	C	1.039548	0.098022	0.655675
C72	C	1.372881	0.431355	0.989008
C73	C	0.375062	-0.218890	0.349297
C74	C	0.708395	0.114443	0.682630
C75	C	1.041729	0.447776	1.015964
C76	C	0.301669	-0.220699	0.346353
C77	C	0.635002	0.112635	0.679686
C78	C	0.968336	0.445968	1.013019
C79	C	0.298129	-0.165712	0.436411
C80	C	0.631462	0.167621	0.769744
C81	C	0.964796	0.500954	1.103078
C82	C	0.371518	-0.163907	0.439359
C83	C	0.704851	0.169426	0.772692
C84	C	1.038185	0.502759	1.106026
C85	C	0.409981	-0.190494	0.395799
C86	C	0.743314	0.142839	0.729133
C87	C	1.076647	0.476173	1.062466
N88	N	0.519342	-0.212381	0.359932
N89	N	0.852676	0.120952	0.693265
N90	N	1.186009	0.454285	1.026599
N91	N	0.484995	-0.188643	0.398814
N92	N	0.818328	0.144690	0.732147
N93	N	1.151661	0.478024	1.065480
C94	C	1.001709	-0.317240	0.379291
C95	C	1.335042	0.016093	0.712625
C96	C	1.668375	0.349426	1.045958
C97	C	1.001727	-0.367174	0.379290
C98	C	1.335061	-0.033841	0.712624
C99	C	1.668394	0.299492	1.045957
C100	C	1.044948	-0.676874	0.426174
C101	C	1.378281	-0.343541	0.759508
C102	C	1.711614	-0.010208	1.092841
C103	C	1.045022	-0.864546	0.426220
C104	C	1.378355	-0.531213	0.759553
C105	C	1.711689	-0.197880	1.092886
O106	O	1.081666	-0.888861	0.466034
O107	O	1.415000	-0.555527	0.799368
O108	O	1.748333	-0.222194	1.132701
N109	N	1.001930	-0.887958	0.379438
N110	N	1.335263	-0.554624	0.712771
N111	N	1.668596	-0.221291	1.046104
C112	C	0.958812	-0.864448	0.332644
C113	C	1.292146	-0.531115	0.665977
C114	C	1.625479	-0.197782	0.999311
O115	O	0.922156	-0.888668	0.292859
O116	O	1.255489	-0.555334	0.626192
O117	O	1.588823	-0.222001	0.959526
C118	C	0.958735	-0.676777	0.332603
C119	C	1.292068	-0.343444	0.665936
C120	C	1.625401	-0.010110	0.999269
C121	C	1.001835	-0.653368	0.379383
C122	C	1.335168	-0.320035	0.712716
C123	C	1.668502	0.013299	1.046050
C124	C	1.088044	-0.653465	0.472952
C125	C	1.421377	-0.320132	0.806285
C126	C	1.754710	0.013202	1.139618
C127	C	1.088028	-0.606550	0.472937
C128	C	1.421361	-0.273216	0.806271
C129	C	1.754694	0.060117	1.139604
C130	C	1.044915	-0.583043	0.426146
C131	C	1.378248	-0.249710	0.759479
C132	C	1.711582	0.083623	1.092812
C133	C	1.001819	-0.606453	0.379369
C134	C	1.335152	-0.273119	0.712702
C135	C	1.668485	0.060214	1.046035
C136	C	0.915614	-0.653269	0.285813
C137	C	1.248947	-0.319935	0.619146
C138	C	1.582281	0.013398	0.952480
C139	C	0.915597	-0.606348	0.285808
C140	C	1.248930	-0.273015	0.619141
C141	C	1.582264	0.060319	0.952475
C142	C	0.958697	-0.582939	0.332588
C143	C	1.292031	-0.249606	0.665922
C144	C	1.625364	0.083728	0.999255
C145	C	0.958690	-0.536031	0.332563
C146	C	1.292023	-0.202698	0.665896
C147	C	1.625357	0.130636	0.999229
N148	N	1.001782	-0.512620	0.379345
N149	N	1.335116	-0.179286	0.712678
N150	N	1.668449	0.154047	1.046012
C151	C	1.044895	-0.536126	0.426136
C152	C	1.378228	-0.202792	0.759470
C153	C	1.711561	0.130541	1.092803
C154	C	0.958857	-0.962978	0.332668
C155	C	1.292191	-0.629645	0.666001
C156	C	1.625524	-0.296312	0.999335
C157	C	0.958877	-1.009896	0.332677
C158	C	1.292211	-0.676563	0.666011
C159	C	1.625544	-0.343229	0.999344
C160	C	1.045086	-1.009991	0.426254
C161	C	1.378420	-0.676658	0.759588
C162	C	1.711753	-0.343324	1.092921
C163	C	1.045069	-0.963072	0.426241
C164	C	1.378403	-0.629739	0.759574
C165	C	1.711736	-0.296406	1.092908
C166	C	1.001950	-0.939567	0.379450
C167	C	1.335283	-0.606234	0.712784
C168	C	1.668616	-0.272900	1.046117
C169	C	1.044858	-0.437600	0.426102
C170	C	1.378191	-0.104267	0.759436
C171	C	1.711524	0.229067	1.092769
C172	C	1.044840	-0.390680	0.426082
C173	C	1.378173	-0.057347	0.759415
C174	C	1.711506	0.275986	1.092748
C175	C	0.958628	-0.390590	0.332508
C176	C	1.291962	-0.057256	0.665841
C177	C	1.625295	0.276077	0.999174
C178	C	0.958649	-0.437505	0.332525
C179	C	1.291982	-0.104172	0.665859
C180	C	1.625315	0.229161	0.999192
C181	C	1.001766	-0.461009	0.379328
C182	C	1.335099	-0.127676	0.712662
C183	C	1.668432	0.205657	1.045995
O184	O	0.922059	-0.511688	0.292775
O185	O	1.255392	-0.178355	0.626108
O186	O	1.588726	0.154979	0.959441
O187	O	1.081534	-0.511899	0.465926
O188	O	1.414867	-0.178566	0.799259
O189	O	1.748201	0.154768	1.132593
C190	C	1.044964	-0.723790	0.426189
C191	C	1.378297	-0.390456	0.759522
C192	C	1.711630	-0.057123	1.092856
C193	C	1.001867	-0.747199	0.379412
C194	C	1.335201	-0.413865	0.712745
C195	C	1.668534	-0.080532	1.046078
C196	C	0.958755	-0.723693	0.332620
C197	C	1.292088	-0.390359	0.665954
C198	C	1.625422	-0.057026	0.999287
C199	C	1.001888	-0.794116	0.379421
C200	C	1.335221	-0.460783	0.712754
C201	C	1.668554	-0.127450	1.046088
C202	C	1.045000	-0.817623	0.426213
C203	C	1.378334	-0.484289	0.759546
C204	C	1.711667	-0.150956	1.092879
C205	C	1.088093	-0.794211	0.472995
C206	C	1.421426	-0.460878	0.806328
C207	C	1.754759	-0.127545	1.139661
C208	C	1.088076	-0.747296	0.472980
C209	C	1.421410	-0.413962	0.806314
C210	C	1.754743	-0.080629	1.139647
C211	C	0.915663	-0.747104	0.285838
C212	C	1.248996	-0.413771	0.619172
C213	C	1.582329	-0.080437	0.952505
C214	C	0.915683	-0.794019	0.285856
C215	C	1.249016	-0.460686	0.619189
C216	C	1.582350	-0.127353	0.952523
C217	C	0.958796	-0.817526	0.332647
C218	C	1.292129	-0.484192	0.665981
C219	C	1.625462	-0.150859	0.999314
C220	C	1.185100	-0.196025	0.386753
C221	C	1.518433	0.137308	0.720086
C222	C	1.851766	0.470642	1.053419
C223	C	1.263205	-0.194111	0.389905
C224	C	1.596538	0.139222	0.723238
C225	C	1.929872	0.472556	1.056572
C226	C	0.994483	-0.205376	0.562633
C227	C	1.327816	0.127958	0.895966
C228	C	1.661149	0.461291	1.229299
C229	C	0.991359	-0.207446	0.640735
C230	C	1.324692	0.125887	0.974068
C231	C	1.658025	0.459220	1.307401
C232	C	1.001937	-0.083337	0.379435
C233	C	1.335271	0.249996	0.712768
C234	C	1.668604	0.583330	1.046101
C235	C	1.001990	-0.033402	0.379469
C236	C	1.335323	0.299931	0.712802
C237	C	1.668657	0.633264	1.046136
C238	C	1.009156	-0.195643	0.196792
C239	C	1.342490	0.137690	0.530125
C240	C	1.675823	0.471024	0.863458
C241	C	1.012417	-0.193443	0.118696
C242	C	1.345750	0.139891	0.452029
C243	C	1.679083	0.473224	0.785362
C244	C	1.034858	-0.178588	0.679262
C245	C	1.368192	0.154745	1.012595
C246	C	1.701525	0.488078	1.345928
C247	C	1.031914	-0.180532	0.752647
C248	C	1.365248	0.152801	1.085980
C249	C	1.698581	0.486134	1.419313
C250	C	0.985474	-0.211337	0.787503
C251	C	1.318807	0.121997	1.120836
C252	C	1.652140	0.455330	1.454170
C253	C	0.941969	-0.240196	0.748971
C254	C	1.275303	0.093137	1.082304
C255	C	1.608636	0.426471	1.415638
C256	C	0.944910	-0.238250	0.675587
C257	C	1.278244	0.095084	1.008921
C258	C	1.611577	0.428417	1.342254
C259	C	0.971853	-0.220355	1.006780
C260	C	1.305186	0.112978	1.340113
C261	C	1.638520	0.446311	1.673446
C262	C	0.968917	-0.222301	1.080169
C263	C	1.302250	0.111033	1.413502
C264	C	1.635584	0.444366	1.746835
C265	C	1.058861	-0.162636	1.083839
C266	C	1.392195	0.170697	1.417173
C267	C	1.725528	0.504031	1.750506
C268	C	1.061801	-0.160694	1.010454
C269	C	1.395134	0.172639	1.343788
C270	C	1.728468	0.505973	1.677121
C271	C	1.018294	-0.189552	0.971928
C272	C	1.351627	0.143782	1.305262
C273	C	1.684961	0.477115	1.638595
N274	N	0.982465	-0.213326	0.862514
N275	N	1.315798	0.120008	1.195848
N276	N	1.649132	0.453341	1.529181
N277	N	1.021300	-0.187560	0.896918
N278	N	1.354633	0.145773	1.230252
N279	N	1.687966	0.479106	1.563585
H280	H	0.273236	-0.243825	0.308485
H281	H	0.606569	0.089508	0.641818
H282	H	0.939903	0.422842	0.975152
N283	N	0.912123	-0.365235	0.282045
N284	N	1.245456	-0.031902	0.615378
N285	N	1.578790	0.301432	0.948711
H286	H	0.925082	-0.371809	0.232289
H287	H	1.258416	-0.038476	0.565623
H288	H	1.591749	0.294857	0.898956
H289	H	0.918671	-0.331970	0.289199
H290	H	1.252004	0.001363	0.622533
H291	H	1.585337	0.334696	0.955866
H292	H	0.399948	-0.140785	0.477228
H293	H	0.733281	0.192548	0.810562
H294	H	1.066614	0.525882	1.143895
H295	H	1.080165	-0.944015	0.464334
H296	H	1.413498	-0.610682	0.797667
H297	H	1.746832	-0.277349	1.131001
H298	H	1.123173	-0.728239	0.511073
H299	H	1.456506	-0.394906	0.844407
H300	H	1.789839	-0.061573	1.177740
N301	N	0.869190	-0.819261	0.235394
N302	N	1.202523	-0.485928	0.568727
N303	N	1.535857	-0.152594	0.902061
H304	H	0.835467	-0.840289	0.262615
H305	H	1.168800	-0.506956	0.595949
H306	H	1.502134	-0.173622	0.929282
H307	H	0.899123	-0.837134	0.204019
H308	H	1.232457	-0.503801	0.537352
H309	H	1.565790	-0.170467	0.870686
N310	N	0.416541	-0.247563	0.302315
N311	N	0.749875	0.085770	0.635649
N312	N	1.083208	0.419103	0.968982
H313	H	0.383279	-0.265827	0.272412
H314	H	0.716612	0.067506	0.605745
H315	H	1.049946	0.400840	0.939079
H316	H	0.445842	-0.268389	0.332072
H317	H	0.779176	0.064944	0.665406
H318	H	1.112509	0.398278	0.998739
H319	H	1.094281	-0.139141	1.115215
H320	H	1.427615	0.194192	1.448548
H321	H	1.760948	0.527525	1.781882
N322	N	0.912351	-0.937629	0.282194
N323	N	1.245684	-0.604296	0.615527
N324	N	1.579017	-0.270963	0.948861
H325	H	0.885061	-0.959584	0.252561
H326	H	1.218395	-0.626250	0.585894
H327	H	1.551728	-0.292917	0.919228
H328	H	0.942274	-0.916595	0.250850
H329	H	1.275607	-0.583261	0.584183
H330	H	1.608941	-0.249928	0.917516
H331	H	1.067338	-0.157034	0.784012
H332	H	1.400671	0.176299	1.117346
H333	H	1.734005	0.509633	1.450679
H334	H	0.737531	-0.256962	0.286876
H335	H	1.070864	0.076371	0.620209
H336	H	1.404197	0.409705	0.953542
N337	N	0.256645	-0.137037	0.483389
N338	N	0.589978	0.196296	0.816723
N339	N	0.923312	0.529630	1.150056
H340	H	0.204855	-0.142491	0.474467
H341	H	0.538188	0.190843	0.807800
H342	H	0.871522	0.524176	1.141133
H343	H	0.269929	-0.104337	0.473066
H344	H	0.603263	0.228996	0.806399
H345	H	0.936596	0.562329	1.139733
H346	H	0.936437	-0.243860	0.975421
H347	H	1.269770	0.089474	1.308754
H348	H	1.603103	0.422807	1.642088
H349	H	1.099620	-0.135611	0.982079
H350	H	1.432953	0.197722	1.315412
H351	H	1.766287	0.531056	1.648746
H352	H	0.931097	-0.247387	1.108547
H353	H	1.264431	0.085947	1.441880
H354	H	1.597764	0.419280	1.775213
H355	H	0.604386	-0.260240	0.281526
H356	H	0.937719	0.073093	0.614859
H357	H	1.271053	0.406426	0.948193
N358	N	0.891863	-0.273412	0.786561
N359	N	1.225196	0.059921	1.119895
N360	N	1.558530	0.393255	1.453228
H361	H	0.896597	-0.270265	0.838896
H362	H	1.229930	0.063068	1.172229
H363	H	1.563264	0.396401	1.505563
H364	H	0.903266	-0.304892	0.774159
H365	H	1.236600	0.028441	1.107492
H366	H	1.569933	0.361774	1.440825
N367	N	0.587807	-0.153450	0.456421
N368	N	0.921140	0.179883	0.789754
N369	N	1.254474	0.513217	1.123088
H370	H	0.598573	-0.161491	0.507120
H371	H	0.931906	0.171843	0.840453
H372	H	1.265240	0.505176	1.173786
H373	H	0.536030	-0.158908	0.447440
H374	H	0.869364	0.174425	0.780774
H375	H	1.202697	0.507758	1.114107
N376	N	1.134597	-0.819569	0.523461
N377	N	1.467930	-0.486235	0.856794
N378	N	1.801263	-0.152902	1.190127
H379	H	1.128063	-0.852842	0.516365
H380	H	1.461396	-0.519509	0.849699
H381	H	1.794729	-0.186175	1.183032
H382	H	1.121608	-0.812958	0.573191
H383	H	1.454942	-0.479624	0.906525
H384	H	1.788275	-0.146291	1.239858
N385	N	1.091329	-0.365432	0.476539
N386	N	1.424663	-0.032099	0.809872
N387	N	1.757996	0.301235	1.143205
H388	H	1.118640	-0.387445	0.506183
H389	H	1.451973	-0.054112	0.839517
H390	H	1.785307	0.279221	1.172850
H391	H	1.061393	-0.347533	0.507873
H392	H	1.394726	-0.014200	0.841206
H393	H	1.728059	0.319133	1.174539
N394	N	1.091573	-1.035342	0.476746
N395	N	1.424906	-0.702009	0.810079
N396	N	1.758239	-0.368675	1.143412
H397	H	1.142226	-1.025636	0.467918
H398	H	1.475560	-0.692303	0.801252
H399	H	1.808893	-0.358970	1.134585
H400	H	1.084985	-1.068610	0.469637
H401	H	1.418318	-0.735276	0.802971
H402	H	1.751652	-0.401943	1.136304
N403	N	1.091353	-0.462947	0.476588
N404	N	1.424686	-0.129614	0.809922
N405	N	1.758020	0.203719	1.143255
H406	H	1.118647	-0.440993	0.506217
H407	H	1.451980	-0.107659	0.839550
H408	H	1.785313	0.225674	1.172884
H409	H	1.125050	-0.480852	0.449340
H410	H	1.458384	-0.147519	0.782673
H411	H	1.791717	0.185815	1.116007
N412	N	1.134509	-0.581305	0.523398
N413	N	1.467842	-0.247971	0.856732
N414	N	1.801176	0.085362	1.190065
H415	H	1.161817	-0.603321	0.553041
H416	H	1.495150	-0.269988	0.886374
H417	H	1.828483	0.063346	1.219708
H418	H	1.104569	-0.563410	0.554734
H419	H	1.437902	-0.230076	0.888068
H420	H	1.771235	0.103257	1.221401
N421	N	0.897987	-0.269371	0.634029
N422	N	1.231320	0.063963	0.967362
N423	N	1.564653	0.397296	1.300696
H424	H	0.868119	-0.289180	0.667245
H425	H	1.201453	0.044153	1.000578
H426	H	1.534786	0.377486	1.333911
H427	H	0.927782	-0.288654	0.604719
H428	H	1.261116	0.044679	0.938053
H429	H	1.594449	0.378013	1.271386
N430	N	1.134529	-0.678815	0.523441
N431	N	1.467862	-0.345481	0.856774
N432	N	1.801195	-0.012148	1.190108
H433	H	1.161816	-0.656859	0.553073
H434	H	1.495150	-0.323526	0.886407
H435	H	1.828483	0.009807	1.219740
H436	H	1.168232	-0.696720	0.496201
H437	H	1.501565	-0.363387	0.829535
H438	H	1.834899	-0.030054	1.162868
N439	N	0.912402	-1.035141	0.282211
N440	N	1.245736	-0.701808	0.615545
N441	N	1.579069	-0.368475	0.948878
H442	H	0.885089	-1.013127	0.252571
H443	H	1.218423	-0.679793	0.585905
H444	H	1.551756	-0.346460	0.919238
H445	H	0.878722	-1.056173	0.309475
H446	H	1.212055	-0.722840	0.642808
H447	H	1.545389	-0.389507	0.976142
H448	H	0.880517	-0.672320	0.247719
H449	H	1.213851	-0.338987	0.581052
H450	H	1.547184	-0.005654	0.914386
N451	N	0.740336	-0.149703	0.462564
N452	N	1.073669	0.183630	0.795897
N453	N	1.407002	0.516963	1.129230
H454	H	0.704830	-0.133134	0.489704
H455	H	1.038164	0.200199	0.823038
H456	H	1.371497	0.533532	1.156371
H457	H	0.771937	-0.127377	0.435250
H458	H	1.105271	0.205956	0.768583
H459	H	1.438604	0.539290	1.101917
N460	N	0.869086	-0.580996	0.235341
N461	N	1.202420	-0.247663	0.568675
N462	N	1.535753	0.085670	0.902008
H463	H	0.841789	-0.602948	0.205711
H464	H	1.175122	-0.269615	0.539045
H465	H	1.508456	0.063718	0.872378
H466	H	0.899007	-0.559962	0.203993
H467	H	1.232340	-0.226629	0.537327
H468	H	1.565673	0.106705	0.870660
N469	N	0.869163	-0.721754	0.235365
N470	N	1.202496	-0.388421	0.568699
N471	N	1.535829	-0.055088	0.902032
H472	H	0.841871	-0.743708	0.205734
H473	H	1.175204	-0.410375	0.539068
H474	H	1.508538	-0.077042	0.872401
H475	H	0.899089	-0.700722	0.204020
H476	H	1.232422	-0.367389	0.537353
H477	H	1.565756	-0.034056	0.870686
N478	N	0.912173	-0.462757	0.282063
N479	N	1.245506	-0.129423	0.615397
N480	N	1.578839	0.203910	0.948730
H481	H	0.884861	-0.440744	0.252417
H482	H	1.218194	-0.107411	0.585751
H483	H	1.551528	0.225923	0.919084
H484	H	0.878491	-0.483784	0.309333
H485	H	1.211824	-0.150451	0.642666
H486	H	1.545157	0.182882	0.975999
H487	H	1.072677	-0.153505	0.650887
H488	H	1.406011	0.179828	0.984220
H489	H	1.739344	0.513162	1.317554
