data_functionalizedCrystal
_audit_creation_method	'MofGen! by Chris Wilmer'
_symmetry_space_group_name_H-M	'P1'
_symmetry_Int_Tables_number	1
_symmetry_cell_setting	triclinic
loop_
_symmetry_equiv_pos_as_xyz
  x,y,z
_cell_length_a	13.032951
_cell_length_b	13.032318
_cell_length_c	13.033454
_cell_angle_alpha	74.790997
_cell_angle_beta	89.089765
_cell_angle_gamma	89.113649
loop_
_atom_site_label
_atom_site_type_symbol
_atom_site_fract_x
_atom_site_fract_y
_atom_site_fract_z
Zn1	Zn	-1.442863	0.509569	0.709097
Zn2	Zn	-0.942863	1.009569	1.209097
Zn3	Zn	-1.442710	0.709802	0.508886
Zn4	Zn	-0.942710	1.209802	1.008886
Zn5	Zn	-1.292094	0.515157	0.514536
Zn6	Zn	-0.792094	1.015157	1.014536
Zn7	Zn	-1.253779	0.665819	0.665213
Zn8	Zn	-0.753779	1.165819	1.165213
O9	O	-1.357862	0.600087	0.599433
O10	O	-0.857862	1.100087	1.099433
O11	O	-1.585009	0.552199	0.698540
O12	O	-1.085009	1.052199	1.198540
O13	O	-1.438701	0.704728	0.362787
O14	O	-0.938701	1.204728	0.862787
O15	O	-1.328193	0.367565	0.561074
O16	O	-0.828193	0.867565	1.061074
O17	O	-1.584896	0.699310	0.551445
O18	O	-1.084896	1.199310	1.051445
O19	O	-1.438963	0.363460	0.704018
O20	O	-0.938963	0.863460	1.204018
O21	O	-1.328045	0.561723	0.366938
O22	O	-0.828045	1.061723	0.866938
O23	O	-1.144846	0.519074	0.518522
O24	O	-0.644846	1.019074	1.018522
O25	O	-1.262890	0.624346	0.817883
O26	O	-0.762890	1.124346	1.317883
O27	O	-1.116695	0.629765	0.629224
O28	O	-0.616695	1.129765	1.129224
O29	O	-1.401810	0.509550	0.850124
O30	O	-0.901810	1.009550	1.350124
O31	O	-1.401549	0.850819	0.508893
O32	O	-0.901549	1.350819	1.008893
O33	O	-1.262741	0.818504	0.623746
O34	O	-0.762741	1.318504	1.123746
C35	C	-1.093908	0.570253	0.569725
C36	C	-0.593908	1.070253	1.069725
C37	C	-0.980982	0.557512	0.557037
C38	C	-0.480982	1.057512	1.057037
C39	C	-1.327996	0.872738	0.560970
C40	C	-0.827996	1.372738	1.060970
C41	C	-1.315308	0.989385	0.544562
C42	C	-0.815308	1.489385	1.044562
C43	C	-0.916735	0.606715	0.606044
C44	C	-0.416735	1.106715	1.106044
C45	C	-0.800020	0.593548	0.592931
C46	C	-0.300020	1.093548	1.092931
C47	C	-0.622847	0.630027	0.629252
C48	C	-0.122847	1.130027	1.129252
C49	C	-0.735774	0.642758	0.641945
C50	C	-0.235774	1.142758	1.141945
C51	C	-1.364411	1.039262	0.608030
C52	C	-0.864411	1.539262	1.108030
C53	C	-1.351299	1.159823	0.591072
C54	C	-0.851299	1.659823	1.091072
C55	C	-1.328093	0.561419	0.873144
C56	C	-0.828093	1.061419	1.373144
C57	C	-1.315408	0.544941	0.989783
C58	C	-0.815408	1.044941	1.489783
C59	C	-1.387807	1.326363	0.638075
C60	C	-0.887807	1.826363	1.138075
C61	C	-1.400409	1.209697	0.654549
C62	C	-0.900409	1.709697	1.154549
C63	C	-1.387581	0.638535	0.326804
C64	C	-0.887581	1.138535	0.826804
C65	C	-1.400495	0.654740	0.210229
C66	C	-0.900495	1.154740	0.710229
C67	C	-1.364503	0.608351	1.039731
C68	C	-0.864503	1.108351	1.539731
C69	C	-1.351393	0.591321	1.160284
C70	C	-0.851393	1.091321	1.660284
H71	H	-0.948138	0.658584	0.657712
H72	H	-0.448138	1.158584	1.157712
N73	N	-1.433046	0.696958	0.978170
N74	N	-0.933046	1.196958	1.478170
H75	H	-1.432665	0.696588	0.900770
H76	H	-0.932665	1.196588	1.400770
H77	H	-1.406979	0.767437	0.984945
H78	H	-0.906979	1.267437	1.484945
H79	H	-1.263675	0.478042	1.036271
H80	H	-0.763675	0.978042	1.536271
N81	N	-1.282849	0.502709	1.221845
N82	N	-0.782849	1.002709	1.721845
H83	H	-1.210530	0.513477	1.192351
H84	H	-0.710530	1.013477	1.692351
H85	H	-1.308983	0.432221	1.215169
H86	H	-0.808983	0.932221	1.715169
N87	N	-1.469041	0.743351	1.148669
N88	N	-0.969041	1.243351	1.648669
H89	H	-1.468661	0.742977	1.071270
H90	H	-0.968661	1.242977	1.571270
H91	H	-1.442974	0.813831	1.155440
H92	H	-0.942974	1.313831	1.655440
H93	H	-0.768622	0.541667	0.541269
H94	H	-0.268622	1.041667	1.041269
N95	N	-1.246768	1.051036	0.455946
N96	N	-0.746768	1.551036	0.955946
H97	H	-1.174448	1.021582	0.466655
H98	H	-0.674448	1.521582	0.966655
H99	H	-1.247203	1.128408	0.456436
H100	H	-0.747203	1.628408	0.956436
N101	N	-0.777342	0.711476	0.710390
N102	N	-0.277342	1.211476	1.210390
H103	H	-0.820749	0.666958	0.770009
H104	H	-0.320749	1.166958	1.270009
H105	H	-0.820653	0.771000	0.665649
H106	H	-0.320653	1.271000	1.165649
N107	N	-0.939400	0.488806	0.488592
N108	N	-0.439400	0.988806	0.988592
H109	H	-0.861917	0.489143	0.488922
H110	H	-0.361917	0.989143	0.988922
H111	H	-0.964265	0.517697	0.413396
H112	H	-0.464265	1.017697	0.913396
H113	H	-1.416154	0.992710	0.674926
H114	H	-0.916154	1.492710	1.174926
H115	H	-1.299544	1.206371	0.524180
H116	H	-0.799544	1.706371	1.024180
H117	H	-1.452155	1.163147	0.721449
H118	H	-0.952155	1.663147	1.221449
