data_functionalizedCrystal
_audit_creation_method	'MofGen! by Chris Wilmer'
_symmetry_space_group_name_H-M	'P1'
_symmetry_Int_Tables_number	1
_symmetry_cell_setting	triclinic
loop_
_symmetry_equiv_pos_as_xyz
  x,y,z
_cell_length_a	12.759401
_cell_length_b	17.077402
_cell_length_c	12.759393
_cell_angle_alpha	89.964187
_cell_angle_beta	89.980163
_cell_angle_gamma	90.024408
loop_
_atom_site_label
_atom_site_type_symbol
_atom_site_fract_x
_atom_site_fract_y
_atom_site_fract_z
Zn1	Zn	1.606195	-0.312430	-0.593990
Zn2	Zn	2.106195	0.187570	-0.093990
Zn3	Zn	1.606065	-0.443718	-0.418297
Zn4	Zn	2.106065	0.056282	0.081703
Zn5	Zn	1.430497	-0.312474	-0.418325
Zn6	Zn	1.930497	0.187526	0.081675
Zn7	Zn	1.430461	-0.443661	-0.593934
Zn8	Zn	1.930461	0.056339	-0.093934
O9	O	1.518304	-0.378071	-0.506136
O10	O	2.018304	0.121929	-0.006136
O11	O	1.753199	-0.329851	-0.570695
O12	O	2.253199	0.170149	-0.070695
O13	O	1.582736	-0.426351	-0.271279
O14	O	2.082736	0.073649	0.228721
O15	O	1.453874	-0.202621	-0.441662
O16	O	1.953874	0.297379	0.058338
O17	O	1.753103	-0.426308	-0.441614
O18	O	2.253103	0.073692	0.058386
O19	O	1.582958	-0.202588	-0.570722
O20	O	2.082958	0.297412	-0.070722
O21	O	1.453747	-0.329926	-0.271300
O22	O	1.953747	0.170074	0.228700
O23	O	1.283471	-0.329871	-0.441608
O24	O	1.783471	0.170129	0.058392
O25	O	1.453812	-0.426210	-0.740962
O26	O	1.953812	0.073790	-0.240962
O27	O	1.283445	-0.426253	-0.570627
O28	O	1.783445	0.073747	-0.070627
O29	O	1.582923	-0.329795	-0.741003
O30	O	2.082923	0.170205	-0.241003
O31	O	1.582700	-0.553558	-0.441560
O32	O	2.082700	-0.053558	0.058440
O33	O	1.453685	-0.553515	-0.570600
O34	O	1.953685	-0.053515	-0.070600
C35	C	1.245337	-0.378061	-0.506115
C36	C	1.745337	0.121939	-0.006115
C37	C	1.128560	-0.378076	-0.506131
C38	C	1.628560	0.121924	-0.006131
C39	C	1.073712	-0.428339	-0.573206
C40	C	1.573712	0.071661	-0.073206
C41	C	0.963988	-0.428342	-0.573227
C42	C	1.463988	0.071658	-0.073227
C43	C	0.963970	-0.327817	-0.439089
C44	C	1.463970	0.172183	0.060911
C45	C	1.073693	-0.327811	-0.439075
C46	C	1.573693	0.172189	0.060925
C47	C	1.518203	-0.582018	-0.506094
C48	C	2.018203	-0.082018	-0.006094
C49	C	1.518256	-0.669268	-0.506111
C50	C	2.018256	-0.169268	-0.006111
C51	C	1.585503	-0.710254	-0.438993
C52	C	2.085503	-0.210254	0.061007
C53	C	1.585554	-0.792235	-0.439019
C54	C	2.085554	-0.292235	0.060981
C55	C	1.518352	-0.833228	-0.506161
C56	C	2.018352	-0.333228	-0.006161
C57	C	1.451103	-0.792236	-0.573287
C58	C	1.951103	-0.292236	-0.073287
C59	C	1.451057	-0.710257	-0.573265
C60	C	1.951057	-0.210257	-0.073265
C61	C	1.451200	-0.963106	-0.573327
C62	C	1.951200	-0.463106	-0.073327
C63	C	1.451244	-1.045090	-0.573348
C64	C	1.951244	-0.545090	-0.073348
C65	C	1.585697	-1.045084	-0.439082
C66	C	2.085697	-0.545084	0.060918
C67	C	1.585651	-0.963105	-0.439059
C68	C	2.085651	-0.463105	0.060941
C69	C	1.518400	-0.922119	-0.506184
C70	C	2.018400	-0.422119	-0.006184
C71	C	1.792338	-0.378081	-0.506158
C72	C	2.292338	0.121919	-0.006158
C73	C	1.909114	-0.378085	-0.506167
C74	C	2.409114	0.121915	-0.006167
C75	C	1.518378	-0.377991	-0.780170
C76	C	2.018378	0.122009	-0.280170
C77	C	1.518409	-0.377957	-0.896946
C78	C	2.018409	0.122043	-0.396946
C79	C	1.518435	-0.173326	-0.506201
C80	C	2.018435	0.326674	-0.006201
C81	C	1.518490	-0.086076	-0.506229
C82	C	2.018490	0.413924	-0.006229
C83	C	1.451269	-0.327740	-0.951819
C84	C	1.951269	0.172260	-0.451819
C85	C	1.451293	-0.327716	-1.061543
C86	C	1.951293	0.172284	-0.561543
C87	C	1.585607	-0.428129	-1.061513
C88	C	2.085607	0.071871	-0.561513
C89	C	1.585577	-0.428156	-0.951791
C90	C	2.085577	0.071844	-0.451791
C91	C	1.518292	-0.378093	-0.233169
C92	C	2.018292	0.121907	0.266831
C93	C	1.518464	-0.377906	-0.116393
C94	C	2.018464	0.122094	0.383607
H95	H	1.118351	-0.286876	-0.384454
H96	H	1.618351	0.213124	0.115546
H97	H	1.640221	-0.676883	-0.384314
H98	H	2.140221	-0.176883	0.115686
H99	H	1.640367	-0.929728	-0.384383
H100	H	2.140367	-0.429728	0.115617
H101	H	1.118382	-0.469266	-0.627811
H102	H	1.618382	0.030734	-0.127811
H103	H	1.640459	-1.078458	-0.384429
H104	H	2.140459	-0.578458	0.115571
F105	F	1.657131	-0.835852	-0.367585
F106	F	2.157131	-0.335852	0.132415
H107	H	0.919335	-0.469269	-0.627847
H108	H	1.419335	0.030731	-0.127847
F109	F	1.379711	-1.088717	-0.644797
F110	F	1.879711	-0.588717	-0.144797
F111	F	1.379487	-0.666637	-0.644705
F112	F	1.879487	-0.166637	-0.144705
H113	H	1.396620	-0.286824	-1.106215
H114	H	1.896620	0.213176	-0.606215
H115	H	0.919284	-0.286894	-0.384493
H116	H	1.419284	0.213106	0.115507
H117	H	1.396440	-0.929738	-0.627991
H118	H	1.896440	-0.429738	-0.127991
H119	H	1.396390	-0.825619	-0.627959
H120	H	1.896390	-0.325619	-0.127959
F121	F	1.379781	-0.274316	-0.893453
F122	F	1.879781	0.225684	-0.393453
F123	F	1.657089	-0.481550	-1.119891
F124	F	2.157089	0.018450	-0.619891
H125	H	1.640253	-0.469052	-0.907113
H126	H	2.140253	0.030948	-0.407113
