data_functionalizedCrystal
_audit_creation_method	'MofGen! by Chris Wilmer'
_symmetry_space_group_name_H-M	'P1'
_symmetry_Int_Tables_number	1
_symmetry_cell_setting	triclinic
loop_
_symmetry_equiv_pos_as_xyz
  x,y,z
_cell_length_a	13.339070
_cell_length_b	14.971487
_cell_length_c	14.048226
_cell_angle_alpha	89.999714
_cell_angle_beta	90.003085
_cell_angle_gamma	80.378152
loop_
_atom_site_label
_atom_site_type_symbol
_atom_site_fract_x
_atom_site_fract_y
_atom_site_fract_z
O1	O	0.131876	-1.219550	0.079017
O2	O	0.147668	-0.963054	0.079048
O3	O	-0.007527	-1.061865	0.079033
O4	O	0.287071	-1.120740	0.079032
O5	O	-0.007536	-1.061846	-0.079288
O6	O	0.147658	-0.963036	-0.079273
O7	O	0.131867	-1.219532	-0.079304
Zn8	Zn	0.139761	-1.091281	-0.104425
Zn9	Zn	0.139773	-1.091305	0.104170
O10	O	0.287062	-1.120721	-0.079289
C11	C	0.146957	-0.929546	-0.000108
C12	C	0.144840	-0.829725	-0.000096
C13	C	0.236013	-0.795041	-0.000097
C14	C	0.234018	-0.701248	-0.000109
C15	C	0.140849	-0.642142	-0.000114
C16	C	0.049669	-0.676832	-0.000116
C17	C	0.051665	-0.770623	-0.000111
C18	C	0.045516	-0.481343	-0.000125
C19	C	0.043519	-0.387545	-0.000128
C20	C	0.227868	-0.411968	-0.000123
C21	C	0.229864	-0.505759	-0.000118
C22	C	0.138684	-0.540443	-0.000118
C23	C	-0.045233	-1.051911	-0.000125
C24	C	-0.157571	-1.022266	-0.000117
C25	C	-0.522084	-1.252763	-0.000146
C26	C	-0.416538	-1.280618	-0.000158
C27	C	-0.351791	-1.216032	-0.000147
C28	C	-0.392601	-1.123587	-0.000125
C29	C	-0.498158	-1.095730	-0.000120
C30	C	-0.327864	-1.058999	-0.000122
C31	C	-0.368674	-0.966554	-0.000100
C32	C	-0.474221	-0.938701	-0.000094
C33	C	-0.538968	-1.003286	-0.000105
C34	C	-0.222308	-1.086857	-0.000127
C35	C	-0.198381	-0.929823	-0.000102
C36	C	-0.303927	-0.901968	-0.000089
C37	C	0.324768	-1.130676	-0.000129
C38	C	0.437106	-1.160320	-0.000130
C39	C	0.132577	-0.253040	-0.000140
C40	C	0.134692	-0.352860	-0.000129
N41	N	0.139752	-1.091270	-0.246786
C42	C	0.071061	-1.135050	-0.296611
C43	C	0.071060	-1.135056	-0.396268
C44	C	0.139757	-1.091287	-0.446100
C45	C	0.208452	-1.047502	-0.396268
C46	C	0.208447	-1.047491	-0.296612
C47	C	0.208459	-1.047530	-0.603982
C48	C	0.208466	-1.047542	-0.703645
C49	C	0.071072	-1.135094	-0.703638
C50	C	0.071067	-1.135083	-0.603983
C51	C	0.139764	-1.091299	-0.554158
N52	N	0.139774	-1.091321	0.246530
H53	H	0.305730	-0.553882	-0.000105
H54	H	-0.507444	-0.863426	-0.000084
C55	C	-0.052818	-0.611811	-0.000123
N56	N	-0.130013	-0.562838	-0.000124
C57	C	-0.004499	-1.183253	-0.758447
N58	N	-0.061415	-1.219526	-0.799734
H59	H	-0.189091	-1.162126	-0.000145
H60	H	-0.265851	-1.238717	-0.000158
H61	H	-0.337170	-0.826698	-0.000072
H62	H	-0.028733	-0.509578	-0.000126
H63	H	-0.383318	-1.355886	-0.000177
C64	C	0.284010	-0.999345	-0.451086
N65	N	0.340922	-0.963072	-0.492374
C66	C	0.338507	-0.860051	-0.000093
N67	N	0.415710	-0.909014	-0.000095
H68	H	-0.574810	-1.305338	-0.000162
H69	H	-0.624914	-0.980611	-0.000091
H70	H	-0.145664	-0.877232	-0.000098
C71	C	-0.004513	-1.183199	-0.241806
N72	N	-0.061441	-1.219463	-0.200529
C73	C	-0.004531	-1.183189	-0.451071
N74	N	-0.061479	-1.219435	-0.492348
C75	C	0.284030	-0.999387	-0.758458
N76	N	0.340945	-0.963115	-0.799742
C77	C	0.284022	-0.999339	-0.241806
N78	N	0.340947	-0.963071	-0.200527
H79	H	0.015134	-1.170728	-0.563410
C80	C	-0.058971	-0.322529	-0.000135
N81	N	-0.136168	-0.273559	-0.000140
H82	H	0.308260	-0.673013	-0.000108
H83	H	0.302111	-0.383724	-0.000127
H84	H	-0.022577	-0.798861	-0.000110
H85	H	0.264396	-1.011872	-0.563418
