data_functionalizedCrystal
_audit_creation_method	'MofGen! by Chris Wilmer'
_symmetry_space_group_name_H-M	'P1'
_symmetry_Int_Tables_number	1
_symmetry_cell_setting	triclinic
loop_
_symmetry_equiv_pos_as_xyz
  x,y,z
_cell_length_a	23.532407
_cell_length_b	23.532407
_cell_length_c	13.930277
_cell_angle_alpha	89.990782
_cell_angle_beta	89.995466
_cell_angle_gamma	82.848712
loop_
_atom_site_label
_atom_site_type_symbol
_atom_site_fract_x
_atom_site_fract_y
_atom_site_fract_z
O1	O	0.755262	0.069135	-0.079780
O2	O	0.589398	0.079138	-0.079797
O3	O	0.677332	-0.008795	-0.079770
O4	O	0.667328	0.157068	-0.079806
O5	O	0.677320	-0.008797	0.079892
O6	O	0.589386	0.079136	0.079865
O7	O	0.755250	0.069133	0.079882
Zn8	Zn	0.672316	0.074134	0.105223
Zn9	Zn	0.672332	0.074137	-0.105138
O10	O	0.667316	0.157066	0.079856
C11	C	0.568176	0.078882	0.000033
C12	C	0.504959	0.078116	0.000027
C13	C	0.677071	-0.030012	0.000063
C14	C	0.676305	-0.093229	0.000071
C15	C	0.238792	0.022921	0.000065
C16	C	0.298192	0.023632	0.000065
O17	O	0.334937	-0.020153	0.000108
N18	N	0.320818	0.075909	0.000047
C19	C	0.284041	0.127477	0.000039
O20	O	0.308740	0.172007	0.000025
C21	C	0.224642	0.126765	0.000046
C22	C	0.202019	0.074485	0.000055
C23	C	0.216168	-0.029354	0.000074
C24	C	0.156772	-0.030066	0.000073
C25	C	0.119999	0.021499	0.000062
C26	C	0.142623	0.073774	0.000053
C27	C	0.187865	0.178333	0.000045
C28	C	0.128463	0.177616	0.000053
C29	C	0.105840	0.125336	0.000062
C30	C	0.046454	0.124627	0.000041
N31	N	0.023828	0.072351	0.000059
C32	C	0.060600	0.020787	0.000070
C33	C	0.408783	0.128968	0.000025
C34	C	0.468181	0.129681	0.000011
C35	C	0.482328	0.025836	0.000039
C36	C	0.422929	0.025124	0.000046
C37	C	0.386157	0.076692	0.000043
C38	C	-0.064136	0.019297	0.000066
C39	C	-0.123538	0.018590	0.000061
C40	C	-0.137680	0.122435	0.000038
C41	C	-0.078284	0.123142	0.000038
C42	C	-0.041512	0.071568	0.000056
O43	O	0.009675	0.168390	0.000002
O44	O	0.035892	-0.023737	0.000097
C45	C	0.723538	-0.492332	0.000023
C46	C	0.722827	-0.551733	0.000015
O47	O	0.766613	-0.588477	-0.000016
N48	N	0.670551	-0.574359	0.000011
C49	C	0.618982	-0.537581	0.000004
O50	O	0.574452	-0.562281	-0.000002
C51	C	0.619695	-0.478182	0.000004
C52	C	0.671974	-0.455559	0.000019
C53	C	0.775814	-0.469709	0.000036
C54	C	0.776525	-0.410313	0.000045
C55	C	0.724961	-0.373540	0.000041
C56	C	0.672685	-0.396163	0.000028
C57	C	0.568127	-0.441406	-0.000010
C58	C	0.568843	-0.382003	-0.000010
C59	C	0.621123	-0.359381	0.000005
C60	C	0.621832	-0.299994	0.000033
N61	N	0.674109	-0.277368	0.000037
C62	C	0.725673	-0.314141	0.000041
C63	C	0.617491	-0.662324	0.000001
C64	C	0.616778	-0.721722	0.000007
C65	C	0.720623	-0.735869	0.000017
C66	C	0.721335	-0.676470	0.000018
C67	C	0.669767	-0.639698	0.000006
C68	C	0.727163	-0.189404	0.000061
C69	C	0.727869	-0.130002	0.000075
C70	C	0.624025	-0.115860	0.000060
C71	C	0.623318	-0.175257	0.000052
C72	C	0.674891	-0.212028	0.000049
O73	O	0.578069	-0.263215	0.000060
O74	O	0.770196	-0.289433	0.000034
C75	C	0.776472	0.069389	0.000051
C76	C	0.839689	0.070155	0.000050
C77	C	0.667577	0.178283	0.000020
C78	C	0.668343	0.241500	0.000006
N79	N	0.672309	0.074132	0.248789
N80	N	0.672343	0.074134	-0.248704
C81	C	0.633394	0.113058	0.701047
C82	C	0.711286	0.035210	0.701040
C83	C	0.711279	0.035209	0.600544
C84	C	0.672330	0.074133	0.550295
C85	C	0.633387	0.113059	0.600542
C86	C	0.750225	-0.003713	0.550290
C87	C	0.750220	-0.003716	0.449788
C88	C	0.711268	0.035206	0.399537
C89	C	0.672323	0.074133	0.449790
C90	C	0.633373	0.113058	0.399541
C91	C	0.594425	0.151983	0.449793
C92	C	0.594434	0.151981	0.550291
C93	C	0.711259	0.035208	0.299038
C94	C	0.633366	0.113058	0.299036
H95	H	-0.141954	-0.023984	0.000065
H96	H	0.742972	0.003519	0.258128
H97	H	0.206274	0.220904	0.000034
C98	C	-0.024152	-0.036653	-0.000073
C99	C	0.010375	-0.039272	-0.082205
C100	C	0.047220	-0.090801	-0.082367
H101	H	-0.046067	-0.067932	-0.000119
H102	H	-0.000653	-0.038546	0.055575
H103	H	-0.013121	-0.037385	-0.137838
H104	H	0.032302	-0.008005	-0.082176
H105	H	0.070718	-0.092693	-0.026719
H106	H	0.025300	-0.122076	-0.082411
H107	H	0.070654	-0.092582	-0.138087
C108	C	0.132326	-0.086886	0.000146
C109	C	0.177253	-0.131885	0.000185
C110	C	0.154760	-0.184239	0.000270
H111	H	0.109459	-0.089412	-0.055511
H112	H	0.109467	-0.089354	0.055851
H113	H	0.200103	-0.129419	-0.055515
H114	H	0.200125	-0.129378	0.055838
H115	H	0.131901	-0.186706	0.055976
H116	H	0.131893	-0.186759	-0.055388
H117	H	0.185239	-0.214777	0.000306
C118	C	0.512871	-0.342052	-0.000217
C119	C	0.510246	-0.307537	-0.082369
C120	C	0.458691	-0.270733	-0.082597
H121	H	0.510927	-0.318538	0.055397
H122	H	0.481620	-0.364016	-0.000278
H123	H	0.541488	-0.285575	-0.082299
H124	H	0.512180	-0.331035	-0.137997
H125	H	0.427440	-0.292697	-0.082657
H126	H	0.456751	-0.247224	-0.026978
H127	H	0.456900	-0.247315	-0.138339
C128	C	0.256154	-0.085302	-0.000071
C129	C	0.290676	-0.087922	-0.082208
C130	C	0.327518	-0.139452	-0.082378
H131	H	0.234236	-0.116579	-0.000114
H132	H	0.279656	-0.087197	0.055573
H133	H	0.267176	-0.086033	-0.137838
H134	H	0.312606	-0.056657	-0.082183
H135	H	0.351020	-0.141347	-0.026734
H136	H	0.305595	-0.170725	-0.082418
H137	H	0.350949	-0.141235	-0.138102
H138	H	0.781939	-0.035401	0.591206
C139	C	0.833305	-0.385790	-0.000149
C140	C	0.864450	-0.404494	-0.082304
C141	C	0.916758	-0.381915	-0.082526
H142	H	0.854587	-0.398426	0.055463
H143	H	0.826378	-0.345145	-0.000200
H144	H	0.871379	-0.445131	-0.082245
H145	H	0.843185	-0.391859	-0.137929
H146	H	0.909831	-0.341270	-0.082576
H147	H	0.938035	-0.394553	-0.026910
H148	H	0.937894	-0.394598	-0.138271
H149	H	0.486595	0.172252	-0.000009
C150	C	0.511306	-0.465846	-0.000079
C151	C	0.466308	-0.420918	-0.000114
C152	C	0.413953	-0.443409	-0.000193
H153	H	0.508774	-0.488720	0.055579
H154	H	0.508842	-0.488699	-0.055783
H155	H	0.468770	-0.398075	0.055584
H156	H	0.468821	-0.398040	-0.055768
H157	H	0.411490	-0.466262	-0.055897
H158	H	0.411428	-0.466283	0.055466
H159	H	0.383416	-0.412929	-0.000226
C160	C	0.568024	-0.075957	0.000246
C161	C	0.536517	-0.086129	0.082389
C162	C	0.484930	-0.049375	0.082589
H163	H	0.546514	-0.082745	-0.055375
H164	H	0.575915	-0.037333	0.000299
H165	H	0.528625	-0.124744	0.082326
H166	H	0.558010	-0.079338	0.138022
H167	H	0.492820	-0.010752	0.082643
H168	H	0.463425	-0.056166	0.026965
H169	H	0.463548	-0.056268	0.138326
C170	C	-0.177544	0.178461	0.000178
C171	C	-0.167358	0.209962	0.082304
C172	C	-0.204066	0.261579	0.082466
H173	H	-0.216179	0.170627	0.000232
H174	H	-0.170710	0.199946	-0.055474
H175	H	-0.174197	0.188480	0.137941
H176	H	-0.128731	0.217810	0.082268
H177	H	-0.197232	0.283065	0.026814
H178	H	-0.242698	0.253740	0.082517
H179	H	-0.197156	0.282961	0.138182
H180	H	0.512280	-0.016150	0.000048
C181	C	0.561437	-0.622496	0.000052
C182	C	0.515509	-0.655031	0.000074
C183	C	0.463865	-0.618365	0.000133
H184	H	0.559474	-0.599010	-0.055609
H185	H	0.559520	-0.599044	0.055754
H186	H	0.517426	-0.678472	-0.055622
H187	H	0.517454	-0.678515	0.055731
H188	H	0.461947	-0.594913	0.055834
H189	H	0.461907	-0.594881	-0.055529
H190	H	0.432697	-0.640434	0.000156
H191	H	0.601647	0.144753	0.258130
H192	H	0.770443	-0.111587	0.000089
H193	H	0.817806	-0.499644	0.000036
C194	C	-0.053643	0.179862	0.000181
C195	C	-0.019956	0.183295	0.082321
C196	C	0.002752	0.235535	0.082492
H197	H	-0.083997	0.210516	0.000223
H198	H	-0.030727	0.182311	-0.055461
H199	H	-0.042871	0.180852	0.137949
H200	H	0.010407	0.152653	0.082296
H201	H	0.025668	0.237984	0.026850
H202	H	-0.027606	0.266185	0.082532
H203	H	0.025615	0.237870	0.138218
H204	H	0.781933	-0.035411	0.408880
H205	H	0.404515	-0.017447	0.000053
H206	H	0.378846	0.170964	0.000016
H207	H	0.562715	0.183677	0.408868
H208	H	0.098525	0.219610	0.000056
C209	C	0.783217	-0.229227	0.000113
C210	C	0.829144	-0.196690	0.000152
C211	C	0.880789	-0.233355	0.000219
H212	H	0.785191	-0.252700	-0.055551
H213	H	0.785127	-0.252691	0.055811
H214	H	0.827236	-0.173236	-0.055541
H215	H	0.827190	-0.173219	0.055812
H216	H	0.882699	-0.256819	0.055917
H217	H	0.882757	-0.256826	-0.055446
H218	H	0.911957	-0.211284	0.000254
H219	H	0.763906	-0.658055	0.000028
H220	H	0.762610	-0.765821	0.000017
C221	C	0.566574	-0.199853	0.000242
C222	C	0.563115	-0.233543	0.082386
C223	C	0.510846	-0.256198	0.082591
H224	H	0.564084	-0.222758	-0.055377
H225	H	0.535951	-0.169457	0.000297
H226	H	0.593729	-0.263935	0.082323
H227	H	0.565594	-0.210650	0.138019
H228	H	0.480224	-0.225802	0.082645
H229	H	0.508362	-0.279101	0.026968
H230	H	0.508490	-0.279055	0.138328
C231	C	0.552219	0.194217	0.605024
C232	C	0.560576	0.185897	0.703791
C233	C	0.521706	0.224801	0.754243
H234	H	0.514219	0.188265	0.588690
H235	H	0.558192	0.232208	0.588594
H236	H	0.554598	0.147916	0.720214
H237	H	0.598568	0.191854	0.720153
H238	H	0.527679	0.262791	0.737813
H239	H	0.483708	0.218845	0.737902
H240	H	0.527374	0.219164	0.821261
H241	H	0.601681	0.144749	0.741964
C242	C	0.753479	-0.007112	0.755649
C243	C	0.723340	-0.041826	0.813350
C244	C	0.762188	-0.080828	0.863666
H245	H	0.777086	0.013188	0.794919
H246	H	0.776663	-0.030331	0.711364
H247	H	0.700165	-0.018611	0.857629
H248	H	0.699735	-0.062139	0.774104
H249	H	0.785373	-0.104046	0.819381
H250	H	0.785793	-0.060522	0.902930
H251	H	0.741745	-0.104389	0.902815
H252	H	0.574207	-0.740135	0.000012
