data_functionalizedCrystal
_audit_creation_method	'MofGen! by Chris Wilmer'
_symmetry_space_group_name_H-M	'P1'
_symmetry_Int_Tables_number	1
_symmetry_cell_setting	triclinic
loop_
_symmetry_equiv_pos_as_xyz
  x,y,z
_cell_length_a	18.215407
_cell_length_b	15.296118
_cell_length_c	18.215407
_cell_angle_alpha	99.699802
_cell_angle_beta	90.009037
_cell_angle_gamma	99.691242
loop_
_atom_site_label
_atom_site_type_symbol
_atom_site_fract_x
_atom_site_fract_y
_atom_site_fract_z
Zn1	Zn	1.074315	-0.359369	0.365331
Zn2	Zn	1.052971	-0.510233	0.220945
Zn3	Zn	0.951272	-0.359360	0.242280
Zn4	Zn	0.929940	-0.510221	0.343972
O5	O	1.002124	-0.434796	0.293132
O6	O	1.174467	-0.379390	0.346188
O7	O	1.039476	-0.490220	0.120791
O8	O	0.985454	-0.233088	0.276470
O9	O	1.158786	-0.490229	0.240109
O10	O	1.075853	-0.233094	0.366876
O11	O	0.964758	-0.379375	0.136465
O12	O	0.845459	-0.379363	0.255759
O13	O	0.949096	-0.490209	0.449790
O14	O	0.829786	-0.490200	0.330472
O15	O	1.055168	-0.379378	0.465482
O16	O	1.018791	-0.636505	0.219398
O17	O	0.928400	-0.636496	0.309785
C18	C	0.810920	-0.434780	0.293113
C19	C	0.729119	-0.434795	0.293119
C20	C	0.532771	-0.492599	0.331950
C21	C	0.455912	-0.492602	0.331959
C22	C	0.472227	-0.377009	0.254327
C23	C	0.549086	-0.377002	0.254323
C24	C	0.579355	-0.434802	0.293133
C25	C	0.425637	-0.434812	0.293146
C26	C	0.342303	-0.434814	0.293155
C27	C	0.662694	-0.434799	0.293125
C28	C	0.968985	-0.669242	0.259974
C29	C	0.954875	-0.769539	0.245814
C30	C	0.901204	-0.816735	0.192047
C31	C	0.887950	-0.910969	0.178746
C32	C	0.928361	-0.958016	0.219215
C33	C	0.982029	-0.910819	0.272987
C34	C	0.995288	-0.816576	0.286285
C35	C	1.022445	-0.957857	0.313454
C36	C	1.076113	-0.910660	0.367226
C37	C	1.089370	-0.816426	0.380522
C38	C	1.048959	-0.769379	0.340053
C39	C	1.009186	-1.052100	0.300156
C40	C	1.103270	-1.051941	0.394394
C41	C	1.116524	-0.957707	0.407695
C42	C	1.194075	-0.434812	0.293151
C43	C	1.275873	-0.434819	0.293160
C44	C	1.002133	-0.434793	0.485085
C45	C	1.002137	-0.434792	0.566884
C46	C	1.035413	-0.199434	0.326435
C47	C	1.049599	-0.099137	0.340627
C48	C	1.057347	-0.377090	0.840113
C49	C	1.057352	-0.377090	0.763254
C50	C	0.946903	-0.492510	0.746902
C51	C	0.946902	-0.492514	0.823759
C52	C	1.002123	-0.434799	0.870363
C53	C	1.002130	-0.434794	0.716648
C54	C	1.002135	-0.434795	0.633314
C55	C	1.002119	-0.434800	0.953702
C56	C	1.002110	-0.434813	1.101923
C57	C	1.002116	-0.434801	1.020126
H58	H	0.965488	-1.090518	0.256374
H59	H	0.901931	-0.539512	0.848387
Cl60	Cl	1.126781	-0.304540	0.725229
Cl61	Cl	1.126767	-0.304534	0.898699
Cl62	Cl	0.434169	-0.304352	0.205539
H63	H	0.844255	-0.949390	0.134963
H64	H	0.901943	-0.539498	0.708948
H65	H	0.868311	-0.778424	0.159097
Cl66	Cl	0.570822	-0.565258	0.380743
H67	H	1.059743	-0.692646	0.350884
Cl68	Cl	0.607653	-0.304331	0.205526
Cl69	Cl	0.397353	-0.565262	0.380762
H70	H	0.917566	-1.034745	0.208383
H71	H	1.133075	-0.777998	0.424300
H72	H	1.136177	-1.090246	0.427347
Cl73	Cl	1.183988	-0.898363	0.475294
