data_functionalizedCrystal
_audit_creation_method	'MofGen! by Chris Wilmer'
_symmetry_space_group_name_H-M	'P1'
_symmetry_Int_Tables_number	1
_symmetry_cell_setting	triclinic
loop_
_symmetry_equiv_pos_as_xyz
  x,y,z
_cell_length_a	13.897448
_cell_length_b	13.897449
_cell_length_c	19.076919
_cell_angle_alpha	92.279427
_cell_angle_beta	92.272955
_cell_angle_gamma	90.018519
loop_
_atom_site_label
_atom_site_type_symbol
_atom_site_fract_x
_atom_site_fract_y
_atom_site_fract_z
Zn1	Zn	-0.405928	1.452744	-0.397986
Zn2	Zn	-0.072595	1.786078	-0.064652
Zn3	Zn	0.260739	2.119411	0.268681
Zn4	Zn	-0.560754	1.459132	-0.280295
Zn5	Zn	-0.227421	1.792465	0.053039
Zn6	Zn	0.105912	2.125798	0.386372
Zn7	Zn	-0.399478	1.297927	-0.280302
Zn8	Zn	-0.066144	1.631260	0.053032
Zn9	Zn	0.267189	1.964593	0.386365
Zn10	Zn	-0.567183	1.291417	-0.397947
Zn11	Zn	-0.233850	1.624751	-0.064613
Zn12	Zn	0.099484	1.958084	0.268720
O13	O	-0.483336	1.375305	-0.339132
O14	O	-0.150002	1.708638	-0.005799
O15	O	0.183331	2.041972	0.327534
O16	O	-0.426475	1.588573	-0.382387
O17	O	-0.093142	1.921906	-0.049054
O18	O	0.240191	2.255239	0.284279
O19	O	-0.533971	1.443145	-0.181807
O20	O	-0.200637	1.776478	0.151527
O21	O	0.132696	2.109812	0.484860
O22	O	-0.265353	1.318514	-0.295932
O23	O	0.067981	1.651848	0.037401
O24	O	0.401314	1.985181	0.370735
O25	O	-0.540225	1.593265	-0.295920
O26	O	-0.206892	1.926599	0.037413
O27	O	0.126441	2.259932	0.370747
O28	O	-0.270092	1.432258	-0.382394
O29	O	0.063242	1.765592	-0.049061
O30	O	0.396575	2.098925	0.284273
O31	O	-0.415481	1.324708	-0.181812
O32	O	-0.082148	1.658041	0.151522
O33	O	0.251185	1.991375	0.484855
O34	O	-0.421715	1.162082	-0.295894
O35	O	-0.088382	1.495416	0.037439
O36	O	0.244952	1.828749	0.370773
O37	O	-0.551182	1.307420	-0.496441
O38	O	-0.217849	1.640754	-0.163108
O39	O	0.115485	1.974087	0.170226
O40	O	-0.544927	1.157300	-0.382327
O41	O	-0.211594	1.490633	-0.048994
O42	O	0.121739	1.823967	0.284339
O43	O	-0.432709	1.425947	-0.496470
O44	O	-0.099375	1.759280	-0.163136
O45	O	0.233958	2.092613	0.170197
O46	O	-0.696588	1.436833	-0.295882
O47	O	-0.363254	1.770166	0.037451
O48	O	-0.029921	2.103500	0.370784
O49	O	-0.701311	1.313614	-0.382321
O50	O	-0.367977	1.646947	-0.048987
O51	O	-0.034644	1.980281	0.284346
C52	C	-0.483320	1.124692	-0.339108
C53	C	-0.149986	1.458025	-0.005774
C54	C	0.183347	1.791359	0.327559
C55	C	-0.483337	1.017478	-0.339114
C56	C	-0.150003	1.350811	-0.005781
C57	C	0.183330	1.684144	0.327553
C58	C	-0.483341	0.930407	-0.339126
C59	C	-0.150007	1.263741	-0.005792
C60	C	0.183326	1.597074	0.327541
C61	C	-0.483349	0.821174	-0.339147
C62	C	-0.150015	1.154507	-0.005814
C63	C	0.183318	1.487840	0.327520
C64	C	-0.733949	1.375236	-0.339112
C65	C	-0.400616	1.708569	-0.005779
C66	C	-0.067282	2.041902	0.327555
C67	C	-0.841164	1.375293	-0.339127
C68	C	-0.507830	1.708626	-0.005793
C69	C	-0.174497	2.041960	0.327540
C70	C	-1.037461	1.375392	-0.339171
C71	C	-0.704128	1.708725	-0.005837
C72	C	-0.370794	2.042059	0.327496
C73	C	-0.928227	1.375334	-0.339148
C74	C	-0.594894	1.708667	-0.005815
C75	C	-0.261561	2.042001	0.327518
C76	C	-0.231745	1.375400	-0.339168
C77	C	0.101589	1.708733	-0.005835
C78	C	0.434922	2.042067	0.327499
C79	C	-0.124532	1.375440	-0.339183
C80	C	0.208802	1.708774	-0.005850
C81	C	0.542135	2.042107	0.327483
C82	C	-0.493382	1.365245	-0.522706
C83	C	-0.160049	1.698578	-0.189373
C84	C	0.173285	2.031912	0.143960
C85	C	-0.497663	1.360958	-0.600935
C86	C	-0.164330	1.694291	-0.267601
C87	C	0.169003	2.027625	0.065732
C88	C	-0.483353	1.626897	-0.339157
C89	C	-0.150019	1.960230	-0.005824
C90	C	0.183314	2.293563	0.327509
C91	C	-0.483360	1.734110	-0.339168
C92	C	-0.150027	2.067443	-0.005835
C93	C	0.183307	2.400777	0.327499
C94	C	-0.437995	1.420651	-0.637703
C95	C	-0.104661	1.753984	-0.304369
C96	C	0.228672	2.087318	0.028964
C97	C	-0.442014	1.416611	-0.711207
C98	C	-0.108680	1.749945	-0.377873
C99	C	0.224653	2.083278	-0.044540
C100	C	-0.505707	1.352883	-0.747941
C101	C	-0.172373	1.686216	-0.414608
C102	C	0.160960	2.019549	-0.081275
C103	C	-0.565378	1.293183	-0.711168
C104	C	-0.232044	1.626516	-0.377835
C105	C	0.101289	1.959850	-0.044501
C106	C	-0.561353	1.297219	-0.637666
C107	C	-0.228020	1.630552	-0.304332
C108	C	0.105313	1.963885	0.029001
C109	C	-0.524352	1.334191	-0.967769
C110	C	-0.191019	1.667525	-0.634435
C111	C	0.142314	2.000858	-0.301102
C112	C	-0.528375	1.330162	-1.041276
C113	C	-0.195041	1.663495	-0.707943
C114	C	0.138292	1.996829	-0.374610
C115	C	-0.405009	1.453590	-1.041310
C116	C	-0.071675	1.786923	-0.707976
C117	C	0.261658	2.120256	-0.374643
C118	C	-0.400994	1.457624	-0.967806
C119	C	-0.067661	1.790957	-0.634472
C120	C	0.265673	2.124290	-0.301139
C121	C	-0.460661	1.397921	-0.931039
C122	C	-0.127328	1.731254	-0.597706
C123	C	0.206005	2.064587	-0.264372
N124	N	-0.509818	1.348754	-0.823074
N125	N	-0.176485	1.682087	-0.489741
N126	N	0.156848	2.015421	-0.156407
N127	N	-0.456544	1.402045	-0.855908
N128	N	-0.123211	1.735379	-0.522574
N129	N	0.210123	2.068712	-0.189241
C130	C	-0.473259	1.385381	-0.156272
C131	C	-0.139925	1.718715	0.177061
C132	C	0.193408	2.052048	0.510394
C133	C	-0.468706	1.389855	-0.078044
C134	C	-0.135373	1.723189	0.255289
C135	C	0.197961	2.056522	0.588622
H136	H	-0.386132	1.472549	-0.607799
H137	H	-0.052798	1.805882	-0.274465
H138	H	0.280535	2.139216	0.058868
Cl139	Cl	-0.636365	1.222170	-0.591443
Cl140	Cl	-0.303032	1.555503	-0.258110
Cl141	Cl	0.030301	1.888836	0.075224
H142	H	-0.617234	1.241290	-0.741083
H143	H	-0.283901	1.574624	-0.407750
H144	H	0.049432	1.907957	-0.074417
H145	H	-0.349131	1.509521	-0.937901
H146	H	-0.015798	1.842854	-0.604568
H147	H	0.317536	2.176188	-0.271235
H148	H	-0.393427	1.465222	-0.741140
H149	H	-0.060094	1.798555	-0.407807
H150	H	0.273239	2.131889	-0.074473
Cl151	Cl	-0.599364	1.259136	-0.921557
Cl152	Cl	-0.266031	1.592469	-0.588224
Cl153	Cl	0.067302	1.925802	-0.254891
Cl154	Cl	-0.330000	1.528636	-1.087535
Cl155	Cl	0.003334	1.861970	-0.754201
Cl156	Cl	0.336667	2.195303	-0.420868
H157	H	-0.580243	1.278264	-1.071184
H158	H	-0.246910	1.611597	-0.737850
H159	H	0.086423	1.944930	-0.404517
