data_functionalizedCrystal
_audit_creation_method	'MofGen! by Chris Wilmer'
_symmetry_space_group_name_H-M	'P1'
_symmetry_Int_Tables_number	1
_symmetry_cell_setting	triclinic
loop_
_symmetry_equiv_pos_as_xyz
  x,y,z
_cell_length_a	23.532407
_cell_length_b	23.532407
_cell_length_c	22.610064
_cell_angle_alpha	89.990850
_cell_angle_beta	89.990066
_cell_angle_gamma	82.848678
loop_
_atom_site_label
_atom_site_type_symbol
_atom_site_fract_x
_atom_site_fract_y
_atom_site_fract_z
O1	O	0.755269	0.069133	-0.049117
O2	O	1.255269	0.569133	0.450883
O3	O	0.589405	0.079137	-0.049135
O4	O	1.089405	0.579137	0.450865
O5	O	0.677338	-0.008797	-0.049114
O6	O	1.177338	0.491203	0.450886
O7	O	0.667335	0.157067	-0.049137
O8	O	1.167335	0.657067	0.450863
O9	O	0.677313	-0.008797	0.049255
O10	O	1.177313	0.491203	0.549255
O11	O	0.589380	0.079137	0.049234
O12	O	1.089380	0.579137	0.549234
O13	O	0.755243	0.069133	0.049252
O14	O	1.255243	0.569133	0.549252
Zn15	Zn	0.672307	0.074135	0.064862
Zn16	Zn	1.172307	0.574135	0.564862
Zn17	Zn	0.672341	0.074135	-0.064744
Zn18	Zn	1.172341	0.574135	0.435256
O19	O	0.667310	0.157067	0.049232
O20	O	1.167310	0.657067	0.549232
C21	C	0.568176	0.078882	0.000048
C22	C	1.068176	0.578882	0.500048
C23	C	0.504959	0.078116	0.000041
C24	C	1.004959	0.578116	0.500041
C25	C	0.105856	0.125350	0.000061
C26	C	0.605856	0.625350	0.500061
C27	C	0.046456	0.124638	0.000065
C28	C	0.546456	0.624638	0.500065
O29	O	0.009711	0.168424	0.000081
O30	O	0.509711	0.668424	0.500081
N31	N	0.023830	0.072362	0.000071
N32	N	0.523830	0.572362	0.500071
C33	C	0.060607	0.020794	0.000080
C34	C	0.560607	0.520794	0.500080
O35	O	0.035908	-0.023737	0.000086
O36	O	0.535908	0.476263	0.500086
C37	C	0.120006	0.021506	0.000080
C38	C	0.620006	0.521506	0.500080
C39	C	0.142629	0.073785	0.000068
C40	C	0.642629	0.573785	0.500068
C41	C	0.128479	0.177625	0.000050
C42	C	0.628479	0.677625	0.500050
C43	C	0.187876	0.178336	0.000045
C44	C	0.687876	0.678336	0.500045
C45	C	0.224649	0.126772	0.000052
C46	C	0.724649	0.626772	0.500052
C47	C	0.202025	0.074497	0.000063
C48	C	0.702025	0.574497	0.500063
C49	C	0.156783	-0.030062	0.000093
C50	C	0.656783	0.469938	0.500093
C51	C	0.216185	-0.029345	0.000094
C52	C	0.716185	0.470655	0.500094
C53	C	0.238808	0.022934	0.000082
C54	C	0.738808	0.522934	0.500082
C55	C	0.298194	0.023643	0.000065
C56	C	0.798194	0.523643	0.500065
N57	N	0.320820	0.075920	0.000059
N58	N	0.820820	0.575920	0.500059
C59	C	0.284048	0.127484	0.000052
C60	C	0.784048	0.627484	0.500052
C61	C	-0.064135	0.019302	0.000080
C62	C	0.435865	0.519302	0.500080
C63	C	-0.123533	0.018589	0.000075
C64	C	0.376467	0.518589	0.500075
C65	C	-0.137680	0.122434	0.000061
C66	C	0.362320	0.622434	0.500061
C67	C	-0.078281	0.123146	0.000062
C68	C	0.421719	0.623146	0.500062
C69	C	-0.041509	0.071578	0.000074
C70	C	0.458491	0.571578	0.500074
C71	C	0.408784	0.128974	0.000042
C72	C	0.908784	0.628974	0.500042
C73	C	0.468186	0.129680	0.000034
C74	C	0.968186	0.629680	0.500034
C75	C	0.482329	0.025836	0.000051
C76	C	0.982329	0.525836	0.500051
C77	C	0.422932	0.025129	0.000055
C78	C	0.922932	0.525129	0.500055
C79	C	0.386160	0.076702	0.000052
C80	C	0.886160	0.576702	0.500052
O81	O	0.334974	-0.020119	0.000052
O82	O	0.834974	0.479881	0.500052
O83	O	0.308755	0.172007	0.000054
O84	O	0.808755	0.672007	0.500054
C85	C	0.677071	-0.030013	0.000072
C86	C	1.177071	0.469987	0.500072
C87	C	0.676305	-0.093230	0.000076
C88	C	1.176305	0.406770	0.500076
C89	C	0.723539	-0.492333	0.000049
C90	C	1.223539	0.007667	0.500049
C91	C	0.722827	-0.551733	0.000044
C92	C	1.222827	-0.051733	0.500044
O93	O	0.766613	-0.588478	0.000027
O94	O	1.266613	-0.088478	0.500027
N95	N	0.670551	-0.574359	0.000039
N96	N	1.170551	-0.074359	0.500039
C97	C	0.618983	-0.537582	0.000032
C98	C	1.118983	-0.037582	0.500032
O99	O	0.574452	-0.562281	0.000027
O100	O	1.074452	-0.062281	0.500027
C101	C	0.619695	-0.478182	0.000033
C102	C	1.119695	0.021818	0.500033
C103	C	0.671974	-0.455560	0.000044
C104	C	1.171974	0.044440	0.500044
C105	C	0.775814	-0.469710	0.000060
C106	C	1.275814	0.030290	0.500060
C107	C	0.776525	-0.410313	0.000065
C108	C	1.276525	0.089687	0.500065
C109	C	0.724961	-0.373540	0.000060
C110	C	1.224961	0.126460	0.500060
C111	C	0.672685	-0.396164	0.000050
C112	C	1.172685	0.103836	0.500050
C113	C	0.568127	-0.441406	0.000022
C114	C	1.068127	0.058594	0.500022
C115	C	0.568844	-0.382004	0.000021
C116	C	1.068844	0.117996	0.500021
C117	C	0.621123	-0.359381	0.000033
C118	C	1.121123	0.140619	0.500033
C119	C	0.621832	-0.299995	0.000050
C120	C	1.121832	0.200005	0.500050
N121	N	0.674109	-0.277368	0.000056
N122	N	1.174109	0.222632	0.500056
C123	C	0.725673	-0.314141	0.000061
C124	C	1.225673	0.185859	0.500061
C125	C	0.617491	-0.662324	0.000031
C126	C	1.117491	-0.162324	0.500031
C127	C	0.616778	-0.721722	0.000034
C128	C	1.116778	-0.221722	0.500034
C129	C	0.720623	-0.735869	0.000045
C130	C	1.220623	-0.235869	0.500045
C131	C	0.721335	-0.676470	0.000046
C132	C	1.221335	-0.176470	0.500046
C133	C	0.669767	-0.639698	0.000036
C134	C	1.169767	-0.139698	0.500036
C135	C	0.727163	-0.189405	0.000073
C136	C	1.227163	0.310595	0.500073
C137	C	0.727869	-0.130003	0.000081
C138	C	1.227869	0.369997	0.500081
C139	C	0.624025	-0.115860	0.000067
C140	C	1.124025	0.384140	0.500067
C141	C	0.623318	-0.175257	0.000062
C142	C	1.123318	0.324743	0.500062
C143	C	0.674891	-0.212029	0.000063
C144	C	1.174891	0.287971	0.500063
O145	O	0.578070	-0.263215	0.000065
O146	O	1.078070	0.236785	0.500065
O147	O	0.770196	-0.289433	0.000058
O148	O	1.270196	0.210567	0.500058
C149	C	0.776472	0.069388	0.000069
C150	C	1.276472	0.569388	0.500069
C151	C	0.839689	0.070154	0.000071
C152	C	1.339689	0.570154	0.500071
C153	C	0.667577	0.178283	0.000045
C154	C	1.167577	0.678283	0.500045
C155	C	0.668343	0.241500	0.000036
C156	C	1.168343	0.741500	0.500036
N157	N	0.672288	0.074135	0.153314
N158	N	1.172288	0.574135	0.653314
N159	N	0.672364	0.074131	-0.153196
N160	N	1.172364	0.574131	0.346804
C161	C	0.706686	0.108496	0.561955
C162	C	1.206686	0.608496	1.061955
C163	C	0.706693	0.108494	0.623874
C164	C	1.206693	0.608494	1.123874
O165	O	0.735916	0.137705	0.655892
O166	O	1.235916	0.637705	1.155892
N167	N	0.672352	0.074128	0.654851
N168	N	1.172352	0.574128	1.154851
C169	C	0.638006	0.039758	0.623905
C170	C	1.138006	0.539758	1.123905
O171	O	0.608797	0.010527	0.655939
O172	O	1.108797	0.510527	1.155939
C173	C	0.638002	0.039757	0.561986
C174	C	1.138002	0.539757	1.061986
C175	C	0.672341	0.074129	0.531013
C176	C	1.172341	0.574129	1.031013
C177	C	0.741022	0.142864	0.530981
C178	C	1.241022	0.642864	1.030981
C179	C	0.741014	0.142867	0.469065
C180	C	1.241014	0.642867	0.969065
C181	C	0.706669	0.108500	0.438123
C182	C	1.206669	0.608500	0.938123
C183	C	0.672333	0.074131	0.469097
C184	C	1.172333	0.574131	0.969097
C185	C	0.603660	0.005383	0.531041
C186	C	1.103660	0.505383	1.031041
C187	C	0.603659	0.005384	0.469118
C188	C	1.103659	0.505384	0.969118
C189	C	0.637998	0.039757	0.438144
C190	C	1.137998	0.539757	0.938144
C191	C	0.637980	0.039766	0.376239
C192	C	1.137980	0.539766	0.876239
N193	N	0.672321	0.074132	0.345262
N194	N	1.172321	0.574132	0.845262
C195	C	0.706666	0.108498	0.376204
C196	C	1.206666	0.608498	0.876204
C197	C	0.638017	0.039762	0.753938
C198	C	1.138017	0.539762	1.253938
C199	C	0.638017	0.039766	0.815856
C200	C	1.138017	0.539766	1.315856
C201	C	0.706705	0.108502	0.815821
C202	C	1.206705	0.608502	1.315821
C203	C	0.706701	0.108501	0.753903
C204	C	1.206701	0.608501	1.253903
C205	C	0.672358	0.074128	0.722962
C206	C	1.172358	0.574128	1.222962
C207	C	0.706646	0.108501	0.246177
C208	C	1.206646	0.608501	0.746177
C209	C	0.706633	0.108502	0.184256
C210	C	1.206633	0.608502	0.684256
C211	C	0.637948	0.039764	0.184296
C212	C	1.137948	0.539764	0.684296
C213	C	0.637958	0.039765	0.246212
C214	C	1.137958	0.539765	0.746212
C215	C	0.672312	0.074135	0.277151
C216	C	1.172312	0.574135	0.777151
O217	O	0.608774	0.010568	0.344182
O218	O	1.108774	0.510568	0.844182
O219	O	0.735875	0.137719	0.344163
O220	O	1.235875	0.637719	0.844163
H221	H	-0.034198	-0.022693	0.000084
H222	H	0.465802	0.477307	0.500084
H223	H	0.575496	-0.632386	0.000028
H224	H	1.075496	-0.132386	0.500028
Cl225	Cl	0.551053	-0.750154	0.000032
Cl226	Cl	1.051053	-0.250154	0.500032
Cl227	Cl	0.840647	-0.515929	0.000067
Cl228	Cl	1.340647	-0.015929	0.500067
Cl229	Cl	-0.049848	0.188872	0.000049
Cl230	Cl	0.450152	0.688872	0.500049
Cl231	Cl	-0.183920	0.187258	0.000056
Cl232	Cl	0.316080	0.687258	0.500056
H233	H	0.512280	-0.016146	0.000054
H234	H	1.012280	0.483854	0.500054
H235	H	0.734620	0.136488	0.271360
H236	H	1.234620	0.636488	0.771360
H237	H	0.098544	0.219617	0.000046
H238	H	0.598544	0.719617	0.500046
H239	H	0.525555	-0.459814	0.000009
H240	H	1.025555	0.040186	0.500009
H241	H	0.609984	0.011785	0.159092
H242	H	1.109984	0.511785	0.659092
H243	H	0.610048	0.011784	0.841070
H244	H	1.110048	0.511784	1.341070
H245	H	0.734595	0.136494	0.159040
H246	H	1.234595	0.636494	0.659040
H247	H	0.246123	-0.071339	0.000104
H248	H	0.746123	0.428661	0.500104
Cl249	Cl	0.559205	-0.069621	0.000059
Cl250	Cl	1.059205	0.430379	0.500059
H251	H	0.768979	0.170854	0.443852
H252	H	1.268979	0.670854	0.943852
H253	H	0.609989	0.011784	0.271432
H254	H	1.109989	0.511784	0.771432
H255	H	0.763906	-0.658056	0.000054
H256	H	1.263906	-0.158056	0.500054
Cl257	Cl	0.784203	0.186075	0.569868
Cl258	Cl	1.284203	0.686075	1.069868
H259	H	0.206289	0.220908	0.000035
H260	H	0.706289	0.720908	0.500035
Cl261	Cl	0.749874	0.151710	0.714971
Cl262	Cl	1.249874	0.651710	1.214971
H263	H	0.580748	-0.193677	0.000069
H264	H	1.080748	0.306323	0.500069
H265	H	0.610045	0.011774	0.728750
H266	H	1.110045	0.511774	1.228750
Cl267	Cl	0.496622	0.195408	0.000017
Cl268	Cl	0.996622	0.695408	0.500017
H269	H	0.526850	-0.352066	0.000013
H270	H	1.026850	0.147934	0.500013
Cl271	Cl	0.749885	0.151703	0.854732
Cl272	Cl	1.249885	0.651703	1.354732
Cl273	Cl	0.793597	-0.101567	0.000094
Cl274	Cl	1.293597	0.398433	0.500094
H275	H	0.762610	-0.765821	0.000047
H276	H	1.262610	-0.265821	0.500047
H277	H	0.575698	-0.022607	0.556249
H278	H	1.075698	0.477393	1.056249
H279	H	0.378851	0.170970	0.000041
H280	H	0.878851	0.670970	0.500041
Cl281	Cl	-0.151965	-0.047136	0.000075
Cl282	Cl	0.348035	0.452864	0.500075
H283	H	0.575693	-0.022607	0.443929
H284	H	1.075693	0.477393	0.943929
Cl285	Cl	0.128358	-0.095789	0.000098
Cl286	Cl	0.628358	0.404211	0.500098
H287	H	0.404512	-0.017441	0.000056
H288	H	0.904512	0.482559	0.500056
Cl289	Cl	0.791999	-0.235622	0.000075
Cl290	Cl	1.291999	0.264378	0.500075
H291	H	0.819097	-0.391900	0.000072
H292	H	1.319097	0.108100	0.500072
