data_functionalizedCrystal
_audit_creation_method	'MofGen! by Chris Wilmer'
_symmetry_space_group_name_H-M	'P1'
_symmetry_Int_Tables_number	1
_symmetry_cell_setting	triclinic
loop_
_symmetry_equiv_pos_as_xyz
  x,y,z
_cell_length_a	19.121102
_cell_length_b	29.839131
_cell_length_c	19.121175
_cell_angle_alpha	92.404073
_cell_angle_beta	85.212968
_cell_angle_gamma	87.589066
loop_
_atom_site_label
_atom_site_type_symbol
_atom_site_fract_x
_atom_site_fract_y
_atom_site_fract_z
Zn1	Zn	1.092558	-0.220826	-0.443606
Zn2	Zn	1.592558	0.279174	0.056394
Zn3	Zn	1.087438	-0.292604	-0.325918
Zn4	Zn	1.587438	0.207396	0.174082
Zn5	Zn	0.969885	-0.214140	-0.320946
Zn6	Zn	1.469885	0.285860	0.179054
Zn7	Zn	0.974838	-0.292574	-0.438530
Zn8	Zn	1.474838	0.207426	0.061470
O9	O	1.031180	-0.255036	-0.382250
O10	O	1.531180	0.244964	0.117750
O11	O	1.190342	-0.233159	-0.432200
O12	O	1.690342	0.266841	0.067800
O13	O	1.067629	-0.279409	-0.226796
O14	O	1.567629	0.220591	0.273204
O15	O	0.986228	-0.152163	-0.337260
O16	O	1.486228	0.347837	0.162740
O17	O	1.186580	-0.285893	-0.345735
O18	O	1.686580	0.214107	0.154265
O19	O	1.076355	-0.157075	-0.427378
O20	O	1.576355	0.342925	0.072622
O21	O	0.981263	-0.221762	-0.223143
O22	O	1.481263	0.278238	0.276857
O23	O	0.872079	-0.221734	-0.332338
O24	O	1.372079	0.278266	0.167662
O25	O	0.994670	-0.285843	-0.537666
O26	O	1.494670	0.214157	-0.037666
O27	O	0.875719	-0.279359	-0.418727
O28	O	1.375719	0.220641	0.081273
O29	O	1.081158	-0.233130	-0.541395
O30	O	1.581158	0.266870	-0.041395
O31	O	1.072432	-0.355464	-0.340813
O32	O	1.572432	0.144536	0.159187
O33	O	0.989705	-0.355442	-0.423549
O34	O	1.489705	0.144558	0.076451
C35	C	0.848369	-0.249818	-0.374443
C36	C	1.348369	0.250182	0.125557
C37	C	0.770162	-0.247597	-0.371120
C38	C	1.270162	0.252403	0.128880
C39	C	0.735330	-0.276597	-0.414466
C40	C	1.235330	0.223403	0.085534
C41	C	0.661847	-0.274504	-0.411347
C42	C	1.161847	0.225496	0.088653
C43	C	0.623196	-0.243413	-0.364877
C44	C	1.123196	0.256587	0.135123
C45	C	0.658033	-0.214410	-0.321529
C46	C	1.158033	0.285590	0.178471
C47	C	0.731515	-0.216501	-0.324653
C48	C	1.231515	0.283499	0.175347
C49	C	0.401232	-0.235595	-0.353204
C50	C	0.901232	0.264405	0.146796
C51	C	0.327744	-0.233507	-0.350082
C52	C	0.827744	0.266493	0.149918
C53	C	0.331563	-0.293601	-0.439901
C54	C	0.831563	0.206399	0.060099
C55	C	0.405047	-0.295691	-0.443017
C56	C	0.905047	0.204309	0.056983
C57	C	0.439877	-0.266686	-0.399672
C58	C	0.939877	0.233314	0.100328
C59	C	0.548084	-0.241274	-0.361686
C60	C	1.048084	0.258726	0.138314
C61	C	0.514988	-0.268823	-0.402867
C62	C	1.014988	0.231177	0.097133
C63	C	1.031070	-0.371754	-0.382186
C64	C	1.531070	0.128246	0.117814
C65	C	1.031089	-0.421689	-0.382185
C66	C	1.531089	0.078311	0.117815
C67	C	1.078102	-0.733861	-0.429238
C68	C	1.578102	-0.233861	0.070762
C69	C	1.078181	-0.921537	-0.429284
C70	C	1.578181	-0.421537	0.070716
O71	O	1.118046	-0.947948	-0.469241
O72	O	1.618046	-0.447948	0.030759
N73	N	1.031303	-0.942484	-0.382333
N74	N	1.531303	-0.442484	0.117667
C75	C	0.984399	-0.916508	-0.335371
C76	C	1.484399	-0.416508	0.164629
O77	O	0.944524	-0.938630	-0.295443
O78	O	1.444524	-0.438630	0.204557
C79	C	0.984318	-0.728832	-0.335330
C80	C	1.484318	-0.228832	0.164670
C81	C	1.031204	-0.707889	-0.382278
C82	C	1.531204	-0.207889	0.117722
C83	C	1.124984	-0.712917	-0.476184
C84	C	1.624984	-0.212917	0.023816
C85	C	1.124966	-0.666001	-0.476169
C86	C	1.624966	-0.166001	0.023831
C87	C	1.078067	-0.640028	-0.429209
C88	C	1.578067	-0.140028	0.070791
C89	C	1.031186	-0.660972	-0.382264
C90	C	1.531186	-0.160972	0.117736
C91	C	0.937412	-0.702857	-0.288371
C92	C	1.437412	-0.202857	0.211629
C93	C	0.937394	-0.655936	-0.288366
C94	C	1.437394	-0.155936	0.211634
C95	C	0.984280	-0.634992	-0.335315
C96	C	1.484280	-0.134992	0.164685
C97	C	0.984270	-0.588084	-0.335290
C98	C	1.484270	-0.088084	0.164710
N99	N	1.031148	-0.567137	-0.382240
N100	N	1.531148	-0.067137	0.117760
C101	C	1.078047	-0.593110	-0.429200
C102	C	1.578047	-0.093110	0.070800
C103	C	0.984446	-1.015040	-0.335395
C104	C	1.484446	-0.515040	0.164605
C105	C	0.984467	-1.061959	-0.335405
C106	C	1.484467	-0.561959	0.164595
C107	C	1.078248	-1.066985	-0.429318
C108	C	1.578248	-0.566985	0.070682
C109	C	1.078229	-1.020066	-0.429305
C110	C	1.578229	-0.520066	0.070695
C111	C	1.031324	-0.994094	-0.382346
C112	C	1.531324	-0.494094	0.117654
C113	C	1.078007	-0.494582	-0.429166
C114	C	1.578007	0.005418	0.070834
C115	C	1.077987	-0.447661	-0.429145
C116	C	1.577987	0.052339	0.070855
C117	C	0.984204	-0.442639	-0.335234
C118	C	1.484204	0.057361	0.164766
C119	C	0.984226	-0.489555	-0.335252
C120	C	1.484226	0.010445	0.164748
C121	C	1.031130	-0.515526	-0.382224
C122	C	1.531130	-0.015526	0.117776
O123	O	0.944420	-0.561645	-0.295358
O124	O	1.444420	-0.061645	0.204642
O125	O	1.117905	-0.570979	-0.469133
O126	O	1.617905	-0.070979	0.030867
C127	C	1.078120	-0.780777	-0.429253
C128	C	1.578120	-0.280777	0.070747
C129	C	1.031239	-0.801721	-0.382307
C130	C	1.531239	-0.301721	0.117693
C131	C	0.984340	-0.775749	-0.335347
C132	C	1.484340	-0.275749	0.164653
C133	C	1.031260	-0.848640	-0.382317
C134	C	1.531260	-0.348640	0.117683
C135	C	1.078158	-0.874612	-0.429277
C136	C	1.578158	-0.374612	0.070723
C137	C	1.125036	-0.853666	-0.476227
C138	C	1.625036	-0.353666	0.023773
C139	C	1.125018	-0.806750	-0.476213
C140	C	1.625018	-0.306750	0.023787
C141	C	0.937462	-0.796695	-0.288397
C142	C	1.437462	-0.296695	0.211603
C143	C	0.937484	-0.843612	-0.288415
C144	C	1.437484	-0.343612	0.211585
C145	C	0.984383	-0.869584	-0.335374
C146	C	1.484383	-0.369584	0.164626
C147	C	1.214705	-0.260275	-0.390088
C148	C	1.714705	0.239725	0.109912
C149	C	1.292913	-0.262507	-0.393428
C150	C	1.792913	0.237493	0.106572
C151	C	1.039038	-0.260229	-0.565775
C152	C	1.539038	0.239771	-0.065775
C153	C	1.042386	-0.262442	-0.643982
C154	C	1.542386	0.237558	-0.143982
C155	C	1.031310	-0.137863	-0.382330
C156	C	1.531310	0.362137	0.117670
C157	C	1.031366	-0.087931	-0.382365
C158	C	1.531366	0.412069	0.117635
C159	C	0.998995	-0.233468	-0.678821
C160	C	1.498995	0.266532	-0.178821
C161	C	1.002138	-0.235551	-0.752305
C162	C	1.502138	0.264449	-0.252305
C163	C	1.048677	-0.266606	-0.790948
C164	C	1.548677	0.233394	-0.290948
C165	C	1.092070	-0.295582	-0.756104
C166	C	1.592070	0.204418	-0.256104
C167	C	1.088922	-0.293501	-0.682621
C168	C	1.588922	0.206499	-0.182621
C169	C	1.060427	-0.274392	-1.012913
C170	C	1.560427	0.225608	-0.512913
C171	C	1.063573	-0.276470	-1.086401
C172	C	1.563573	0.223530	-0.586401
C173	C	0.973640	-0.216439	-1.082597
C174	C	1.473640	0.283561	-0.582597
C175	C	0.970499	-0.214359	-1.009113
C176	C	1.470499	0.285641	-0.509113
C177	C	1.013890	-0.243338	-0.974275
C178	C	1.513890	0.256662	-0.474275
C179	C	1.051893	-0.268734	-0.866061
C180	C	1.551893	0.231266	-0.366061
C181	C	1.010670	-0.241211	-0.899164
C182	C	1.510670	0.258789	-0.399164
C183	C	1.023394	-0.249832	-0.199441
C184	C	1.523394	0.250168	0.300559
C185	C	1.020182	-0.247497	-0.121240
C186	C	1.520182	0.252503	0.378760
H187	H	0.766794	-0.301916	-0.452304
H188	H	1.266794	0.198084	0.047696
F189	F	0.768585	-0.185634	-0.278519
F190	F	1.268585	0.314366	0.221481
H191	H	0.899305	-0.860660	-0.250177
H192	H	1.399305	-0.360660	0.249823
H193	H	1.163225	-0.874821	-0.514461
H194	H	1.663225	-0.374821	-0.014461
H195	H	0.966802	-0.211959	-0.780668
H196	H	1.466802	0.288041	-0.280668
F197	F	0.949465	-0.200413	-0.637700
F198	F	1.449465	0.299587	-0.137700
H199	H	1.163197	-0.789701	-0.514443
H200	H	1.663197	-0.289701	-0.014443
H201	H	0.633490	-0.298120	-0.446643
H202	H	1.133490	0.201880	0.053357
H203	H	1.116435	-1.088140	-0.467554
H204	H	1.616435	-0.588140	0.032446
H205	H	0.303196	-0.317215	-0.475191
H206	H	0.803196	0.182785	0.024809
H207	H	0.296277	-0.208184	-0.312246
H208	H	0.796277	0.291816	0.187754
H209	H	1.089784	-0.294019	-0.897532
H210	H	1.589784	0.205981	-0.397532
H211	H	0.932601	-0.189073	-0.977655
H212	H	1.432601	0.310927	-0.477655
H213	H	0.938313	-0.192848	-1.110970
H214	H	1.438313	0.307152	-0.610970
H215	H	0.436511	-0.321010	-0.480856
H216	H	0.936511	0.178990	0.019144
H217	H	0.899233	-0.719901	-0.250140
H218	H	1.399233	-0.219901	0.249860
H219	H	1.101473	-0.301759	-1.117863
H220	H	1.601473	0.198241	-0.617863
F221	F	0.616896	-0.181317	-0.272077
F222	F	1.116896	0.318683	0.227923
F223	F	1.106611	-0.305231	-0.975846
F224	F	1.606611	0.194769	-0.475846
F225	F	1.141596	-0.328635	-0.797233
F226	F	1.641596	0.171365	-0.297233
H227	H	1.124261	-0.317091	-0.654256
H228	H	1.624261	0.182909	-0.154256
F229	F	0.556124	-0.301911	-0.452322
F230	F	1.056124	0.198089	0.047678
F231	F	0.887540	-0.769059	-0.238416
F232	F	1.387540	-0.269059	0.261584
H233	H	0.516607	-0.215961	-0.323849
H234	H	1.016607	0.284039	0.176151
H235	H	1.116170	-0.430611	-0.467376
H236	H	1.616170	0.069389	0.032624
F237	F	1.174865	-0.643717	-0.526143
F238	F	1.674865	-0.143717	-0.026143
H239	H	0.429582	-0.211980	-0.317904
H240	H	0.929582	0.288020	0.182096
F241	F	0.961142	-0.208161	-0.858036
F242	F	1.461142	0.291839	-0.358036
H243	H	1.116196	-0.515722	-0.467419
H244	H	1.616196	-0.015722	0.032581
H245	H	0.946295	-1.079007	-0.297167
H246	H	1.446295	-0.579007	0.202833
H247	H	1.116407	-1.003016	-0.467535
H248	H	1.616407	-0.503016	0.032465
F249	F	1.174901	-0.740552	-0.526172
F250	F	1.674901	-0.240552	-0.026172
H251	H	0.946249	-0.993897	-0.297154
H252	H	1.446249	-0.493897	0.202846
H253	H	0.899196	-0.634791	-0.250127
H254	H	1.399196	-0.134791	0.249873
H255	H	0.946054	-0.506609	-0.297017
H256	H	1.446054	-0.006609	0.202983
F257	F	0.934295	-0.414989	-0.285258
F258	F	1.434295	0.085011	0.214742
