data_functionalizedCrystal
_audit_creation_method	'MofGen! by Chris Wilmer'
_symmetry_space_group_name_H-M	'P1'
_symmetry_Int_Tables_number	1
_symmetry_cell_setting	triclinic
loop_
_symmetry_equiv_pos_as_xyz
  x,y,z
_cell_length_a	10.654562
_cell_length_b	12.811415
_cell_length_c	9.130313
_cell_angle_alpha	84.567879
_cell_angle_beta	89.996930
_cell_angle_gamma	84.265449
loop_
_atom_site_label
_atom_site_type_symbol
_atom_site_fract_x
_atom_site_fract_y
_atom_site_fract_z
O1	O	1.667058	0.147485	-0.141482
O2	O	1.301508	0.161516	-0.143327
O3	O	1.493480	0.001776	-0.122113
O4	O	1.475086	0.307225	-0.162696
O5	O	1.493478	0.001780	0.121485
O6	O	1.301506	0.161521	0.100271
O7	O	1.667056	0.147489	0.102116
Cu8	Cu	1.484281	0.154505	0.123436
Cu9	Cu	1.484283	0.154500	-0.164647
O10	O	1.475084	0.307229	0.080902
C11	C	1.254715	0.160486	-0.021389
C12	C	1.115289	0.157395	-0.020971
C13	C	1.049764	0.155955	0.111994
C14	C	0.918757	0.153060	0.112355
C15	C	0.918810	0.153047	-0.153228
C16	C	1.049816	0.155935	-0.153586
C17	C	1.049732	0.155967	0.265326
C18	C	0.918725	0.153071	0.265687
C19	C	1.492449	-0.037334	0.004879
C20	C	1.489363	-0.153874	0.020355
C21	C	1.483544	-0.372859	-0.216167
C22	C	1.480644	-0.482359	-0.201634
C23	C	1.480655	-0.482375	0.063953
C24	C	1.483554	-0.372875	0.049420
C25	C	1.485001	-0.318121	-0.090645
C26	C	1.487909	-0.208620	-0.105177
C27	C	1.487911	-0.208637	0.160409
C28	C	1.485011	-0.318137	0.174942
C29	C	1.713849	0.148520	-0.019826
C30	C	1.853275	0.151611	-0.020253
C31	C	1.476116	0.346339	-0.046094
C32	C	1.479201	0.462879	-0.061579
N33	N	1.484288	0.154508	0.326058
N34	N	1.484286	0.154489	-0.367268
C35	C	1.569315	0.083799	0.412101
C36	C	1.569311	0.083787	0.565439
C37	C	1.399250	0.225201	0.546678
C38	C	1.399248	0.225208	0.393343
C39	C	1.667502	0.002158	0.422933
C40	C	1.667499	0.002145	0.576271
H41	H	1.103163	0.157091	-0.261857
O42	O	1.483443	-0.371430	0.310911
C43	C	1.371485	-0.483926	0.480037
C44	C	1.373109	-0.423643	0.325992
H45	H	1.282276	-0.526137	0.492291
H46	H	1.457851	-0.544218	0.494678
H47	H	1.373093	-0.425980	0.567232
H48	H	1.371458	-0.481509	0.238704
H49	H	1.286751	-0.363335	0.311478
O50	O	1.489106	-0.155398	0.282307
C51	C	1.383777	-0.020643	0.418550
C52	C	1.382243	-0.080868	0.280458
H53	H	1.297402	0.039644	0.417085
H54	H	1.382167	-0.078540	0.521194
H55	H	1.472962	0.021602	0.419551
H56	H	1.293073	-0.123116	0.279314
H57	H	1.383920	-0.022921	0.177877
H58	H	1.646479	-0.078520	0.392033
O59	O	1.105336	0.069321	0.346862
C60	C	1.137972	-0.120333	0.378708
C61	C	1.074954	-0.022300	0.286228
H62	H	1.113410	-0.194434	0.329740
H63	H	1.244667	-0.118069	0.378395
H64	H	1.102420	-0.121067	0.496534
H65	H	1.110405	-0.021503	0.168362
H66	H	0.968267	-0.024602	0.286665
H67	H	1.330002	0.282775	0.323289
H68	H	1.330013	0.282762	0.601478
O69	O	1.631642	-0.088904	0.644865
C70	C	1.564102	-0.259925	0.616679
C71	C	1.604695	-0.156874	0.538807
H72	H	1.542279	-0.314899	0.530965
H73	H	1.643611	-0.299712	0.692162
H74	H	1.476271	-0.241419	0.684574
H75	H	1.692498	-0.175289	0.470834
H76	H	1.525111	-0.117116	0.463411
O77	O	1.782575	0.023656	0.622823
C78	C	1.992302	0.062718	0.553603
C79	C	1.862035	0.038397	0.500681
H80	H	2.056590	0.074621	0.454882
H81	H	1.981297	0.137419	0.613008
H82	H	2.035485	-0.005964	0.632127
H83	H	1.818779	0.107014	0.422104
H84	H	1.873121	-0.036340	0.441360
H85	H	1.758552	0.027726	0.371973
H86	H	0.889534	0.076522	0.323437
O87	O	0.855120	0.151821	-0.282030
C88	C	0.693445	0.239289	-0.447776
C89	C	0.765493	0.240818	-0.301887
H90	H	0.620948	0.311223	-0.463861
H91	H	0.762716	0.240883	-0.542941
H92	H	0.643274	0.164576	-0.444477
H93	H	0.815668	0.315519	-0.305041
H94	H	0.696163	0.239168	-0.206784
O95	O	1.084338	0.247327	0.310054
C96	C	1.015153	0.416113	0.394260
C97	C	0.975788	0.312686	0.343672
H98	H	0.927411	0.468993	0.421424
H99	H	1.078102	0.397811	0.496277
H100	H	1.069098	0.458135	0.302419
H101	H	0.921793	0.270613	0.435413
H102	H	0.912900	0.331058	0.241615
O103	O	0.862796	0.239527	0.324389
C104	C	0.717052	0.396210	0.286326
C105	C	0.780336	0.298410	0.219556
H106	H	0.650390	0.443856	0.201590
H107	H	0.661469	0.370276	0.387752
H108	H	0.792531	0.446942	0.319046
H109	H	0.704940	0.247635	0.186746
H110	H	0.835947	0.324417	0.118189
H111	H	1.489091	-0.164041	-0.219225
H112	H	1.484732	-0.328278	-0.330213
H113	H	1.479453	-0.526922	-0.303848
H114	H	1.479467	-0.526974	0.177987
