data_functionalizedCrystal
_audit_creation_method	'MofGen! by Chris Wilmer'
_symmetry_space_group_name_H-M	'P1'
_symmetry_Int_Tables_number	1
_symmetry_cell_setting	triclinic
loop_
_symmetry_equiv_pos_as_xyz
  x,y,z
_cell_length_a	17.077404
_cell_length_b	17.077402
_cell_length_c	17.077396
_cell_angle_alpha	89.975636
_cell_angle_beta	89.978543
_cell_angle_gamma	90.025492
loop_
_atom_site_label
_atom_site_type_symbol
_atom_site_fract_x
_atom_site_fract_y
_atom_site_fract_z
Zn1	Zn	-1.200036	0.312527	0.443906
Zn2	Zn	-0.700036	0.812527	0.943906
Zn3	Zn	-1.199935	0.443802	0.312650
Zn4	Zn	-0.699935	0.943802	0.812650
Zn5	Zn	-1.068767	0.312552	0.312650
Zn6	Zn	-0.568767	0.812552	0.812650
Zn7	Zn	-1.068727	0.443753	0.443869
Zn8	Zn	-0.568727	0.943753	0.943869
O9	O	-1.134366	0.378158	0.378268
O10	O	-0.634366	0.878158	0.878268
O11	O	-1.309869	0.329951	0.426510
O12	O	-0.809869	0.829951	0.926510
O13	O	-1.182510	0.426422	0.202803
O14	O	-0.682510	0.926422	0.702803
O15	O	-1.086239	0.202702	0.330077
O16	O	-0.586239	0.702702	0.830077
O17	O	-1.309795	0.426398	0.330077
O18	O	-0.809795	0.926398	0.830077
O19	O	-1.182682	0.202683	0.426510
O20	O	-0.682682	0.702683	0.926510
O21	O	-1.086141	0.329993	0.202803
O22	O	-0.586141	0.829993	0.702803
O23	O	-0.958915	0.329946	0.330040
O24	O	-0.458915	0.829946	0.830040
O25	O	-1.086171	0.426314	0.553721
O26	O	-0.586171	0.926314	1.053721
O27	O	-0.958886	0.426338	0.426446
O28	O	-0.458886	0.926338	0.926446
O29	O	-1.182643	0.329903	0.553748
O30	O	-0.682643	0.829903	1.053748
O31	O	-1.182471	0.553642	0.330040
O32	O	-0.682471	1.053642	0.830040
O33	O	-1.086073	0.553606	0.426446
O34	O	-0.586073	1.053606	0.926446
C35	C	-0.930418	0.378140	0.378240
C36	C	-0.430418	0.878140	0.878240
C37	C	-0.843169	0.378151	0.378246
C38	C	-0.343169	0.878151	0.878246
C39	C	-0.802184	0.428418	0.428363
C40	C	-0.302184	0.928418	0.928363
C41	C	-0.720203	0.428418	0.428373
C42	C	-0.220203	0.928418	0.928373
C43	C	-0.679209	0.378155	0.378261
C44	C	-0.179209	0.878155	0.878261
C45	C	-0.720200	0.327883	0.328142
C46	C	-0.220200	0.827883	0.828142
C47	C	-0.802179	0.327879	0.328137
C48	C	-0.302179	0.827879	0.828137
C49	C	-0.549330	0.327895	0.328155
C50	C	-0.049330	0.827895	0.828155
C51	C	-0.467345	0.327899	0.328159
C52	C	0.032655	0.827899	0.828159
C53	C	-0.467354	0.428433	0.428391
C54	C	0.032646	0.928433	0.928391
C55	C	-0.549333	0.428430	0.428386
C56	C	-0.049333	0.928430	0.928386
C57	C	-0.590318	0.378159	0.378266
C58	C	-0.090318	0.878159	0.878266
C59	C	-1.134278	0.582106	0.378256
C60	C	-0.634278	1.082106	0.878256
C61	C	-1.134312	0.669356	0.378278
C62	C	-0.634312	1.169356	0.878278
C63	C	-0.339110	0.378172	0.378289
C64	C	0.160890	0.878172	0.878289
C65	C	-0.426360	0.378166	0.378276
C66	C	0.073640	0.878166	0.878276
C67	C	-1.134414	0.378100	0.583013
C68	C	-0.634414	0.878100	1.083013
C69	C	-1.134434	0.378076	0.670263
C70	C	-0.634434	0.878076	1.170263
C71	C	-1.184699	1.045163	0.328182
C72	C	-0.684699	1.545163	0.828182
C73	C	-1.184662	0.963183	0.328165
C74	C	-0.684662	1.463183	0.828165
C75	C	-1.134417	0.922205	0.378313
C76	C	-0.634417	1.422205	0.878313
C77	C	-1.084200	0.963212	0.428475
C78	C	-0.584200	1.463212	0.928475
C79	C	-1.084235	1.045191	0.428487
C80	C	-0.584235	1.545191	0.928487
C81	C	-1.084134	0.792342	0.428448
C82	C	-0.584134	1.292342	0.928448
C83	C	-1.084101	0.710357	0.428437
C84	C	-0.584101	1.210357	0.928437
C85	C	-1.184562	0.710334	0.328126
C86	C	-0.684562	1.210334	0.828126
C87	C	-1.184596	0.792313	0.328138
C88	C	-0.684596	1.292313	0.828138
C89	C	-1.134380	0.833314	0.378302
C90	C	-0.634380	1.333314	0.878302
C91	C	-1.134467	1.173414	0.378306
C92	C	-0.634467	1.673414	0.878306
C93	C	-1.134488	1.086164	0.378342
C94	C	-0.634488	1.586164	0.878342
C95	C	-1.134364	0.378159	0.174321
C96	C	-0.634364	0.878159	0.674321
C97	C	-1.134496	0.377963	0.087071
C98	C	-0.634496	0.877963	0.587071
C99	C	-1.184669	0.327870	0.711268
C100	C	-0.684669	0.827870	1.211268
C101	C	-1.184678	0.327844	0.793249
C102	C	-0.684678	0.827844	1.293249
C103	C	-1.134456	0.378028	0.834222
C104	C	-0.634456	0.878028	1.334222
C105	C	-1.084216	0.428236	0.793211
C106	C	-0.584216	0.928236	1.293211
C107	C	-1.084203	0.428257	0.711232
C108	C	-0.584203	0.928257	1.211232
C109	C	-1.084248	0.428188	0.964081
C110	C	-0.584248	0.928188	1.464081
C111	C	-1.084261	0.428168	1.046065
C112	C	-0.584261	0.928168	1.546065
C113	C	-1.184722	0.327776	1.046098
C114	C	-0.684722	0.827776	1.546098
C115	C	-1.184710	0.327797	0.964119
C116	C	-0.684710	0.827797	1.464119
C117	C	-1.134470	0.378006	0.923113
C118	C	-0.634470	0.878006	1.423113
H119	H	-0.686837	0.469351	0.469182
H120	H	-0.186837	0.969351	0.969182
H121	H	-1.225567	0.287007	0.677914
H122	H	-0.725567	0.787007	1.177914
O123	O	-1.030002	0.919022	0.482564
O124	O	-0.530002	1.419022	0.982564
H125	H	-1.065097	0.881626	0.522535
H126	H	-0.565097	1.381626	1.022535
H127	H	-0.433970	0.286961	0.287363
H128	H	0.066030	0.786961	0.787363
H129	H	-0.433980	0.469364	0.469203
H130	H	0.066020	0.969364	0.969203
H131	H	-1.225546	0.929800	0.287321
H132	H	-0.725546	1.429800	0.787321
O133	O	-1.030055	0.482335	0.919852
O134	O	-0.530055	0.982335	1.419852
H135	H	-1.043487	0.543942	0.935572
H136	H	-0.543487	1.043942	1.435572
O137	O	-1.029975	0.836574	0.482548
O138	O	-0.529975	1.336574	0.982548
H139	H	-1.043404	0.820801	0.544167
H140	H	-0.543404	1.320801	1.044167
H141	H	-1.225513	0.825674	0.287307
H142	H	-0.725513	1.325674	0.787307
H143	H	-0.582697	0.286952	0.287349
H144	H	-0.082697	0.786952	0.787349
O145	O	-1.238864	0.273699	0.837480
O146	O	-0.738864	0.773699	1.337480
H147	H	-1.273792	0.238816	0.795216
H148	H	-0.773792	0.738816	1.295216
O149	O	-0.593553	0.482637	0.482435
O150	O	-0.093553	0.982637	0.982435
H151	H	-0.551283	0.517589	0.517295
H152	H	-0.051283	1.017589	1.017295
O153	O	-1.238721	0.666118	0.274015
O154	O	-0.738721	1.166118	0.774015
H155	H	-1.230251	0.602229	0.282421
H156	H	-0.730251	1.102229	0.782421
H157	H	-1.043322	0.469093	0.826578
H158	H	-0.543322	0.969093	1.326578
H159	H	-0.835548	0.286943	0.287331
H160	H	-0.335548	0.786943	0.787331
O161	O	-0.675977	0.273690	0.274080
O162	O	-0.175977	0.773690	0.774080
H163	H	-0.638643	0.233804	0.309271
H164	H	-0.138643	0.733804	0.809271
O165	O	-1.238908	0.273621	1.090325
O166	O	-0.738908	0.773621	1.590325
H167	H	-1.273836	0.238737	1.048061
H168	H	-0.773836	0.738737	1.548061
H169	H	-1.225619	1.078521	0.287350
H170	H	-0.725619	1.578521	0.787350
O171	O	-1.030083	1.089420	0.482591
O172	O	-0.530083	1.589420	0.982591
H173	H	-0.995143	1.047154	0.517466
H174	H	-0.495143	1.547154	1.017466
H175	H	-1.043289	0.469132	0.677846
H176	H	-0.543289	0.969132	1.177846
O177	O	-1.029903	0.666156	0.482517
O178	O	-0.529903	1.166156	0.982517
H179	H	-1.043325	0.681847	0.544141
H180	H	-0.543325	1.181847	1.044141
O181	O	-1.238882	0.273678	0.919923
O182	O	-0.738882	0.773678	1.419923
H183	H	-1.225456	0.212062	0.935654
H184	H	-0.725456	0.712062	1.435654
O185	O	-0.846398	0.482627	0.482415
O186	O	-0.346398	0.982627	0.982415
H187	H	-0.804122	0.517574	0.517272
H188	H	-0.304122	1.017574	1.017272
O189	O	-1.030088	0.482285	1.090263
O190	O	-0.530088	0.982285	1.590263
H191	H	-0.995142	0.517193	1.047979
H192	H	-0.495142	1.017193	1.547979
