data_functionalizedCrystal
_audit_creation_method	'MofGen! by Chris Wilmer'
_symmetry_space_group_name_H-M	'P1'
_symmetry_Int_Tables_number	1
_symmetry_cell_setting	triclinic
loop_
_symmetry_equiv_pos_as_xyz
  x,y,z
_cell_length_a	19.851628
_cell_length_b	21.606444
_cell_length_c	21.606444
_cell_angle_alpha	60.001331
_cell_angle_beta	90.005276
_cell_angle_gamma	59.997133
loop_
_atom_site_label
_atom_site_type_symbol
_atom_site_fract_x
_atom_site_fract_y
_atom_site_fract_z
Zr1	Zr	0.648965	0.677381	-0.081128
O2	O	0.541391	0.806515	-0.179963
O3	O	0.681943	0.548258	-0.050833
O4	O	0.681934	0.677382	-0.179951
O5	O	0.541405	0.677387	0.051009
O6	O	0.792796	0.677370	-0.179939
O7	O	0.541400	0.677391	-0.050845
O8	O	0.792812	0.446391	0.051030
O9	O	0.541390	0.908366	-0.179960
O10	O	0.778741	0.601355	-0.037900
O11	O	0.696011	0.601361	0.038104
O12	O	0.696001	0.753387	-0.113917
O13	O	0.613270	0.753393	-0.037913
Zr14	Zr	0.825786	0.677355	0.081337
Zr15	Zr	0.825777	0.677362	-0.081109
Zr16	Zr	0.648974	0.677374	0.081317
Zr17	Zr	0.648963	0.839821	-0.081123
Zr18	Zr	0.825787	0.514915	0.081332
O19	O	0.792807	0.806478	0.051042
O20	O	0.792795	0.806488	-0.179935
O21	O	0.541404	0.806505	0.051014
O22	O	0.933359	0.548221	0.180172
O23	O	0.933347	0.548231	-0.050805
O24	O	0.681956	0.548248	0.180144
O25	O	0.933345	0.677349	-0.050801
O26	O	0.792816	0.677354	0.180160
O27	O	0.681954	0.677366	0.180148
O28	O	0.933351	0.677345	0.051053
O29	O	0.681932	0.908351	-0.179944
O30	O	0.792819	0.446385	0.180153
O31	O	0.933360	0.446370	0.180168
O32	O	0.933353	0.446375	0.051046
O33	O	0.541397	0.908360	-0.050837
O34	O	0.681939	0.908345	-0.050821
O35	O	0.778750	0.601349	0.114125
O36	O	0.861481	0.601343	0.038122
O37	O	0.778740	0.753375	-0.037895
O38	O	0.696009	0.753381	0.038108
C39	C	0.737378	0.474180	0.000098
C40	C	0.737378	0.405220	0.000095
C41	C	0.780561	0.372819	-0.039579
C42	C	0.780564	0.308019	-0.039573
C43	C	0.737379	0.275625	0.000102
C44	C	0.694195	0.308029	0.039781
C45	C	0.694197	0.372823	0.039780
C46	C	0.694185	0.046719	0.039787
C47	C	0.694184	-0.018078	0.039783
C48	C	0.780552	-0.018084	-0.039566
C49	C	0.780554	0.046710	-0.039567
C50	C	0.737374	0.079104	0.000115
C51	C	0.737373	0.149367	0.000110
C52	C	0.737375	0.205369	0.000103
C53	C	0.516211	0.677392	0.000080
C54	C	0.441149	0.677400	0.000071
C55	C	0.214691	0.760275	-0.041351
C56	C	0.192328	0.718841	-0.071387
C57	C	0.303743	0.677377	0.000093
C58	C	0.192365	0.718817	0.030115
C59	C	0.171011	0.677362	0.000114
C60	C	0.282369	0.635943	-0.029984
C61	C	0.282403	0.635931	0.071556
C62	C	0.260094	0.594436	0.041539
C63	C	0.380205	0.677389	0.000079
C64	C	0.094554	0.677344	0.000126
C65	C	0.958540	0.677344	0.000129
C66	C	1.033601	0.677336	0.000137
C67	C	0.737364	0.677377	-0.203090
C68	C	0.737360	0.677380	-0.272053
C69	C	0.737373	0.880556	0.000111
C70	C	0.737372	0.949516	0.000113
C71	C	0.694170	0.756738	-0.344131
C72	C	0.694177	0.756736	-0.408926
C73	C	0.737370	0.677374	-0.401641
C74	C	0.780566	0.598009	-0.329554
C75	C	0.780563	0.598012	-0.264761
C76	C	0.780579	0.597994	-0.590857
C77	C	0.780576	0.597997	-0.655658
C78	C	0.694193	0.756717	-0.735022
C79	C	0.694190	0.756721	-0.670229
C80	C	0.737389	0.677357	-0.598149
C81	C	0.737382	0.677360	-0.527891
C82	C	0.737373	0.677369	-0.471897
C83	C	0.737386	0.677359	0.203299
C84	C	0.737390	0.677356	0.272261
C85	C	0.958542	0.474156	0.000122
C86	C	1.033604	0.405188	0.000129
C87	C	0.737389	0.474171	0.203292
C88	C	0.737393	0.405208	0.272252
C89	C	0.958553	0.474147	0.203317
C90	C	1.033619	0.405176	0.272286
C91	C	0.516197	0.880589	-0.203108
C92	C	0.441131	0.949560	-0.272077
C93	C	0.516208	0.880580	0.000086
C94	C	0.441146	0.949548	0.000080
C95	C	0.737362	0.880565	-0.203084
C96	C	0.737357	0.949528	-0.272044
C97	C	1.025665	0.372806	-0.039558
C98	C	1.096187	0.308012	-0.039567
C99	C	1.174647	0.275597	0.000115
C100	C	1.182585	0.307985	0.039802
C101	C	1.112064	0.372782	0.039807
C102	C	0.780584	0.372816	0.344326
C103	C	0.780586	0.308027	0.409128
C104	C	0.737400	0.275627	0.401854
C105	C	0.694204	0.308025	0.329773
C106	C	0.694198	0.372818	0.264973
C107	C	1.112063	0.372784	0.265001
C108	C	1.182602	0.307987	0.329798
C109	C	1.174696	0.275579	0.401879
C110	C	1.096244	0.307978	0.409162
C111	C	1.025706	0.372778	0.344366
C112	C	0.362688	0.981960	-0.264792
C113	C	0.292149	1.046777	-0.329589
C114	C	0.300055	1.079188	-0.401670
C115	C	0.378507	1.046785	-0.408953
C116	C	0.449044	0.981974	-0.344157
C117	C	0.449085	0.981937	0.039760
C118	C	0.378563	1.046749	0.039751
C119	C	0.300103	1.079166	0.000067
C120	C	0.292166	1.046775	-0.039618
C121	C	0.362687	0.981969	-0.039613
C122	C	0.780551	0.981907	-0.264746
C123	C	0.780563	1.046697	-0.329535
C124	C	0.737375	1.079110	-0.401621
C125	C	0.694180	1.046724	-0.408918
C126	C	0.694174	0.981931	-0.344130
H127	H	0.815727	0.281638	-0.071878
H128	H	0.815752	0.533367	-0.649718
H129	H	0.815719	0.955527	-0.206055
H130	H	0.815736	1.073059	-0.323579
H131	H	0.961785	0.399198	-0.071881
Cl132	Cl	1.086190	0.267305	-0.089461
Cl133	Cl	0.639910	0.413553	0.089660
H134	H	0.659029	0.399183	0.206289
Cl135	Cl	1.281227	0.267221	0.089689
Cl136	Cl	0.639877	0.856494	-0.679394
Cl137	Cl	0.737389	1.160568	-0.483063
Cl138	Cl	0.639882	1.087490	-0.499547
Cl139	Cl	0.639905	0.087432	0.089676
H140	H	0.659043	0.281635	0.323861
H141	H	1.118516	0.399160	0.206315
H142	H	1.246475	0.281614	0.323854
H143	H	0.659037	0.281644	0.072089
H144	H	0.384935	1.073182	-0.467649
Cl145	Cl	1.122059	0.413477	0.089710
H146	H	0.196237	0.830369	-0.076449
Cl147	Cl	0.211455	1.160636	0.000071
H148	H	0.321215	0.600923	0.131971
H149	H	0.815754	0.533370	-0.532175
H150	H	1.089818	0.281583	0.467859
H151	H	0.153514	0.753878	-0.131814
H152	H	1.232063	0.222834	0.000106
H153	H	0.659021	0.821340	-0.793720
Cl154	Cl	0.193523	1.087534	-0.089499
H155	H	0.658996	0.955575	-0.350083
Cl156	Cl	0.352726	0.941228	-0.174184
Cl157	Cl	0.193534	1.087496	-0.320416
Cl158	Cl	0.342092	0.581914	-0.069301
Cl159	Cl	0.834868	0.498239	-0.320395
H160	H	0.356211	0.955600	-0.071923
Cl161	Cl	0.547713	0.941201	0.089651
Cl162	Cl	1.263380	0.194114	0.483331
H163	H	0.278703	0.524285	0.076587
H164	H	0.815723	0.399194	-0.071890
H165	H	0.153564	0.753867	0.055496
H166	H	0.815752	0.399189	0.350263
Cl167	Cl	0.927094	0.413487	0.353537
Cl168	Cl	0.639891	-0.058802	0.089666
H169	H	0.815716	0.073086	-0.071877
Cl170	Cl	0.639866	0.856514	-0.353300
H171	H	0.815764	0.281656	0.467813
H172	H	0.659009	0.821358	-0.467614
H173	H	0.815715	-0.044470	-0.071875
H174	H	0.815733	0.533390	-0.206071
Cl175	Cl	0.211370	1.160665	-0.483122
H176	H	0.737411	0.222869	0.454625
Cl177	Cl	0.547656	0.941243	-0.353328
H178	H	0.385042	1.073111	0.072070
