data_functionalizedCrystal
_audit_creation_method	'MofGen! by Chris Wilmer'
_symmetry_space_group_name_H-M	'P1'
_symmetry_Int_Tables_number	1
_symmetry_cell_setting	triclinic
loop_
_symmetry_equiv_pos_as_xyz
  x,y,z
_cell_length_a	11.169417
_cell_length_b	21.295417
_cell_length_c	21.295420
_cell_angle_alpha	90.018953
_cell_angle_beta	90.003038
_cell_angle_gamma	90.031386
loop_
_atom_site_label
_atom_site_type_symbol
_atom_site_fract_x
_atom_site_fract_y
_atom_site_fract_z
Zn1	Zn	1.834595	-0.250683	0.355855
Zn2	Zn	1.834473	-0.355930	0.250580
Zn3	Zn	1.633940	-0.250680	0.250606
Zn4	Zn	1.633818	-0.355920	0.355818
O5	O	1.734206	-0.303303	0.303215
O6	O	2.002529	-0.264650	0.341894
O7	O	1.807871	-0.341971	0.162494
O8	O	1.660660	-0.162591	0.264594
O9	O	2.002439	-0.341974	0.264550
O10	O	1.808080	-0.162593	0.341919
O11	O	1.660541	-0.264645	0.162513
O12	O	1.465974	-0.264635	0.264558
O13	O	1.660452	-0.341957	0.443912
O14	O	1.465884	-0.341954	0.341857
O15	O	1.807962	-0.264640	0.443939
O16	O	1.807753	-0.444018	0.264514
O17	O	1.660333	-0.444011	0.341832
C18	C	1.422382	-0.303294	0.303207
C19	C	1.288982	-0.303305	0.303218
C20	C	1.734049	-0.466855	0.303180
C21	C	1.734092	-0.536823	0.303186
C22	C	1.810922	-0.569672	0.262968
C23	C	1.810978	-0.635415	0.262982
C24	C	1.734183	-0.668305	0.303208
C25	C	1.657347	-0.635448	0.343434
C26	C	1.657302	-0.569707	0.343423
N27	N	1.629190	-0.771573	0.308004
N28	N	1.629237	-0.834025	0.308010
C29	C	1.734317	-0.866380	0.303244
N30	N	1.839352	-0.833925	0.298458
N31	N	1.839303	-0.771468	0.298448
C32	C	1.734224	-0.739591	0.303224
C33	C	1.811214	-0.970515	0.263039
C34	C	1.811273	-1.036259	0.263057
C35	C	1.657632	-1.036291	0.343506
C36	C	1.657584	-0.970548	0.343490
C37	C	1.734374	-0.937664	0.303254
C38	C	2.047249	-0.303313	0.303223
C39	C	2.180649	-0.303318	0.303227
C40	C	1.734207	-0.303298	0.467405
C41	C	1.734207	-0.303295	0.537373
C42	C	1.734397	-0.139113	0.303263
C43	C	1.734478	-0.069145	0.303284
C44	C	1.810962	-0.263043	1.036846
C45	C	1.810975	-0.263044	0.971104
C46	C	1.734177	-0.303298	0.938212
C47	C	1.657383	-0.343564	0.971069
C48	C	1.657381	-0.343566	1.036811
N49	N	1.629118	-0.308120	0.834987
N50	N	1.629123	-0.308115	0.772536
C51	C	1.734180	-0.303295	0.740138
N52	N	1.839234	-0.298469	0.772551
N53	N	1.839227	-0.298471	0.835008
C54	C	1.734171	-0.303300	0.866927
C55	C	1.810990	-0.263035	0.636003
C56	C	1.811004	-0.263041	0.570260
C57	C	1.657401	-0.343557	0.570227
C58	C	1.657397	-0.343555	0.635969
C59	C	1.734190	-0.303291	0.668853
C60	C	1.734191	-0.303317	1.139663
C61	C	1.734173	-0.303302	1.069695
H62	H	1.873451	-0.542900	0.230206
Cl63	Cl	1.560867	-0.394169	0.528884
H64	H	1.873499	-0.230260	1.063616
Cl65	Cl	1.560706	-0.528408	0.393986
H66	H	1.873546	-0.662166	0.230232
Cl67	Cl	1.907517	-0.212429	0.929799
H68	H	1.594823	-0.662231	0.376187
H69	H	1.594862	-0.376336	0.662715
H70	H	1.873544	-0.230259	0.543515
H71	H	1.873745	-0.943740	0.230277
H72	H	1.594855	-0.376340	0.944285
H73	H	1.594848	-0.376351	1.063556
H74	H	1.873844	-1.063004	0.230308
Cl75	Cl	1.561096	-1.077632	0.394080
Cl76	Cl	1.560987	-0.929249	0.394051
H77	H	1.873518	-0.230249	0.662779
