data_functionalizedCrystal
_audit_creation_method	'MofGen! by Chris Wilmer'
_symmetry_space_group_name_H-M	'P1'
_symmetry_Int_Tables_number	1
_symmetry_cell_setting	triclinic
loop_
_symmetry_equiv_pos_as_xyz
  x,y,z
_cell_length_a	10.540514
_cell_length_b	10.540539
_cell_length_c	9.730223
_cell_angle_alpha	90.000839
_cell_angle_beta	90.004003
_cell_angle_gamma	84.520326
loop_
_atom_site_label
_atom_site_type_symbol
_atom_site_fract_x
_atom_site_fract_y
_atom_site_fract_z
O1	O	1.685904	0.178745	0.114300
O2	O	1.316487	0.195634	0.114298
O3	O	1.509624	0.002482	0.114298
O4	O	1.492768	0.371897	0.114301
O5	O	1.509610	0.002482	-0.114282
O6	O	1.316473	0.195634	-0.114282
O7	O	1.685891	0.178745	-0.114280
Zn8	Zn	1.501180	0.187189	-0.150573
Zn9	Zn	1.501198	0.187189	0.150591
O10	O	1.492754	0.371897	-0.114279
C11	C	1.269177	0.194374	0.000008
C12	C	1.128227	0.190605	0.000008
C13	C	1.057522	0.328745	0.000012
C14	C	0.910908	0.324871	0.000538
C15	C	0.935897	0.115478	0.130292
C16	C	1.082437	0.120332	0.130394
C17	C	1.082824	0.118288	-0.129553
C18	C	0.935845	0.116955	-0.131259
C19	C	1.508353	-0.044821	0.000010
C20	C	1.504571	-0.185769	0.000017
C21	C	1.359652	-0.369182	0.000530
C22	C	1.363486	-0.222564	0.000015
C23	C	1.572459	-0.247432	-0.130513
C24	C	1.567644	-0.393976	-0.130623
C25	C	1.570529	-0.394495	0.129316
C26	C	1.571829	-0.247513	0.131041
C27	C	1.733201	0.180004	0.000013
C28	C	1.874151	0.183774	0.000023
C29	C	1.494025	0.419199	0.000012
C30	C	1.497807	0.560147	0.000013
N31	N	1.501177	0.187189	-0.356109
C32	C	1.578865	0.264920	-0.428029
C33	C	1.578886	0.264913	-0.571912
C34	C	1.423520	0.109440	-0.571942
C35	C	1.423506	0.109441	-0.428062
N36	N	1.501211	0.187180	0.356128
H37	H	0.894844	0.166865	-0.227633
H38	H	1.517460	-0.422171	-0.228197
C39	C	1.712426	-0.217259	-0.137081
H40	H	1.751667	-0.255454	-0.216767
H41	H	1.715672	-0.127578	-0.140991
H42	H	1.756299	-0.250160	-0.057536
C43	C	1.338057	0.023952	-0.651089
H44	H	1.291789	-0.022344	-0.587645
H45	H	1.280114	0.075431	-0.707215
H46	H	1.389546	-0.033986	-0.707218
C47	C	0.854525	0.397118	0.127431
H48	H	0.764623	0.395005	0.128180
H49	H	0.889826	0.357824	0.208474
H50	H	0.874327	0.483114	0.123912
C51	C	1.146666	-0.019356	-0.131265
H52	H	1.200736	-0.032737	-0.053451
H53	H	1.082997	-0.077300	-0.128602
H54	H	1.195678	-0.032934	-0.212786
H55	H	1.525289	-0.204828	-0.227649
H56	H	1.642149	0.328208	-0.630463
C57	C	1.338041	0.023935	-0.348945
H58	H	1.291772	-0.022355	-0.412402
H59	H	1.389531	-0.033988	-0.292807
H60	H	1.280079	0.075409	-0.292829
H61	H	1.130443	0.018858	0.135955
H62	H	1.303926	-0.397777	0.094135
H63	H	1.087755	0.383963	0.093293
H64	H	1.304141	-0.399385	-0.092552
H65	H	1.642110	0.328227	-0.369449
H66	H	1.114312	0.164271	-0.228324
C67	C	1.710789	-0.214817	0.141693
H68	H	1.729694	-0.162857	0.066029
H69	H	1.721952	-0.170230	0.225003
H70	H	1.766461	-0.291204	0.140584
H71	H	0.868239	0.378588	-0.092823
H72	H	1.672435	-0.441730	0.130194
C73	C	1.504826	-0.192204	0.261496
H74	H	1.436153	-0.131729	0.236233
H75	H	1.473046	-0.259042	0.312750
H76	H	1.563946	-0.151687	0.315978
H77	H	0.893296	0.162292	0.227608
C78	C	1.508851	-0.437102	0.262967
H79	H	1.438162	-0.482956	0.241155
H80	H	1.569616	-0.490337	0.313936
H81	H	1.480689	-0.364286	0.316251
C82	C	0.903181	-0.021982	-0.142424
H83	H	0.941665	-0.059957	-0.222612
H84	H	0.934371	-0.068234	-0.063667
H85	H	0.813348	-0.023470	-0.147900
H86	H	1.110667	0.170213	0.228145
C87	C	1.096073	0.404460	-0.126157
H88	H	1.155641	0.352511	-0.179966
H89	H	1.022621	0.429470	-0.179805
H90	H	1.133773	0.478107	-0.096533
H91	H	0.913583	0.011846	0.134767
H92	H	1.310067	-0.179956	0.093584
H93	H	1.669110	-0.441954	-0.136544
C94	C	1.290807	-0.166134	-0.126596
H95	H	1.292892	-0.076228	-0.127336
H96	H	1.329841	-0.201380	-0.207794
H97	H	1.204832	-0.185963	-0.122756
