data_functionalizedCrystal
_audit_creation_method	'MofGen! by Chris Wilmer'
_symmetry_space_group_name_H-M	'P1'
_symmetry_Int_Tables_number	1
_symmetry_cell_setting	triclinic
loop_
_symmetry_equiv_pos_as_xyz
  x,y,z
_cell_length_a	14.446369
_cell_length_b	14.446369
_cell_length_c	20.875625
_cell_angle_alpha	61.741144
_cell_angle_beta	92.971911
_cell_angle_gamma	59.999699
loop_
_atom_site_label
_atom_site_type_symbol
_atom_site_fract_x
_atom_site_fract_y
_atom_site_fract_z
Zr1	Zr	0.885472	1.013195	-0.084188
O2	O	0.729990	1.206326	-0.186621
O3	O	0.933135	0.820073	-0.052783
O4	O	0.923110	1.013196	-0.186610
O5	O	0.747924	1.013199	0.052767
O6	O	1.075448	1.013188	-0.186606
O7	O	0.740015	1.013202	-0.052794
O8	O	1.093380	0.667725	0.052787
O9	O	0.729991	1.358661	-0.186626
O10	O	1.067151	0.899498	-0.039391
O11	O	0.959366	0.899502	0.039385
O12	O	0.947563	1.126879	-0.118180
O13	O	0.839777	1.126883	-0.039404
Zr14	Zr	1.141047	1.013177	0.084175
Zr15	Zr	1.128433	1.013182	-0.084182
Zr16	Zr	0.898086	1.013190	0.084169
Zr17	Zr	0.885474	1.256153	-0.084196
Zr18	Zr	1.141045	0.770219	0.084183
O19	O	1.093384	1.206300	0.052770
O20	O	1.075449	1.206307	-0.186612
O21	O	0.747925	1.206318	0.052761
O22	O	1.296529	0.820047	0.186608
O23	O	1.278594	0.820054	-0.052774
O24	O	0.951070	0.820066	0.186600
O25	O	1.278595	1.013173	-0.052780
O26	O	1.103409	1.013176	0.186597
O27	O	0.951071	1.013185	0.186593
O28	O	1.286504	1.013170	0.052781
O29	O	0.923112	1.358651	-0.186621
O30	O	1.103406	0.667721	0.186608
O31	O	1.296528	0.667711	0.186613
O32	O	1.286501	0.667715	0.052792
O33	O	0.740017	1.358657	-0.052805
O34	O	0.933139	1.358647	-0.052800
O35	O	1.078956	0.899493	0.118167
O36	O	1.186741	0.899489	0.039391
O37	O	1.067153	1.126871	-0.039398
O38	O	0.959367	1.126875	0.039378
C39	C	1.013257	0.709283	0.000003
C40	C	1.013257	0.606141	0.000007
C41	C	0.709353	1.013203	-0.000014
C42	C	0.606210	1.013208	-0.000017
C43	C	0.945637	0.459133	0.049918
C44	C	0.945234	0.566753	0.049716
C45	C	0.954536	0.655142	-0.085602
C46	C	0.954020	0.547910	-0.085343
C47	C	1.139592	0.372675	0.034967
C48	C	1.139541	0.478826	0.036714
C49	C	0.384138	1.156603	-0.049459
C50	C	0.491349	1.156700	-0.049736
C51	C	0.600170	0.941978	-0.036256
C52	C	0.492374	0.942888	-0.036619
C53	C	0.502904	0.939931	0.085727
C54	C	0.608863	0.942634	0.085592
C55	C	1.317166	1.013169	0.000001
C56	C	1.420309	1.013164	0.000004
C57	C	0.997482	1.013192	-0.210595
C58	C	0.992127	1.013195	-0.282067
C59	C	1.013261	1.317089	-0.000016
C60	C	1.013262	1.420231	-0.000019
C61	C	1.073535	1.013192	-0.315643
C62	C	1.068506	1.013183	-0.382794
C63	C	0.982065	1.013185	-0.416372
C64	C	0.900653	1.013183	-0.382791
C65	C	0.905687	1.013183	-0.315637
C66	C	0.958014	1.013176	-0.617210
C67	C	0.952984	1.013180	-0.684370
C68	C	1.120840	1.013177	-0.684368
C69	C	1.125862	1.013185	-0.617216
C70	C	1.044454	1.013176	-0.583638
N71	N	0.976921	1.013179	-0.485014
N72	N	1.049604	1.013173	-0.514995
C73	C	1.029037	1.013180	0.210583
C74	C	1.034392	1.013178	0.282055
C75	C	1.317164	0.709266	0.000011
C76	C	1.420307	0.606118	0.000017
C77	C	1.029035	0.709276	0.210592
C78	C	1.034389	0.606132	0.282068
C79	C	1.332942	0.709260	0.210600
C80	C	1.441439	0.606110	0.282078
C81	C	0.693577	1.317112	-0.210613
C82	C	0.585080	1.420262	-0.282091
C83	C	0.709355	1.317106	-0.000024
C84	C	0.606212	1.420254	-0.000030
C85	C	0.997484	1.317096	-0.210605
C86	C	0.992130	1.420240	-0.282080
C87	C	1.099329	0.557690	0.356763
C88	C	1.104356	0.460789	0.423928
C89	C	1.044449	0.412325	0.416396
C90	C	0.979501	0.460776	0.341692
C91	C	0.974469	0.557683	0.274529
C92	C	1.548664	0.557668	0.274525
C93	C	1.650617	0.460761	0.341679
C94	C	1.645344	0.412292	0.416386
C95	C	1.538107	0.460743	0.423938
C96	C	1.436156	0.557655	0.356784
C97	C	0.477855	1.468716	-0.274537
C98	C	0.375902	1.565653	-0.341692
C99	C	0.381175	1.614128	-0.416399
C100	C	0.488411	1.565670	-0.423951
C101	C	0.590362	1.468741	-0.356797
C102	C	1.052050	1.468673	-0.274523
C103	C	1.047042	1.565575	-0.341675
C104	C	0.982106	1.614049	-0.416384
C105	C	0.922184	1.565606	-0.423940
C106	C	0.927199	1.468699	-0.356789
C107	C	1.642378	0.459792	0.049453
C108	C	1.535168	0.566720	0.049732
C109	C	1.426349	0.479258	0.036261
C110	C	1.534144	0.371875	0.036623
C111	C	1.523606	0.546858	-0.085728
C112	C	1.417648	0.655336	-0.085593
H113	H	0.985272	0.370262	0.113114
O114	O	0.494089	1.617960	-0.504531
H115	H	0.540627	1.536613	-0.511365
O116	O	0.315064	1.231189	-0.017432
H117	H	0.228324	1.318204	-0.063628
H118	H	1.143920	1.013199	-0.288311
H119	H	1.001112	0.683926	-0.124418
H120	H	1.533831	0.421265	0.484774
H121	H	1.148113	0.597139	0.362911
H122	H	0.521552	0.837649	-0.002922
H123	H	0.681007	0.836473	-0.001964
H124	H	1.428897	0.440697	0.098743
H125	H	0.978032	1.692957	-0.471057
H126	H	1.157247	0.421351	0.484749
H127	H	1.348854	0.597084	0.362946
O128	O	1.208637	1.013185	-0.720587
H129	H	1.269584	1.013195	-0.685960
H130	H	0.862261	0.747456	-0.113801
H131	H	0.869314	1.605088	-0.484777
H132	H	0.921591	0.597111	0.213711
H133	H	0.878400	1.429275	-0.362953
H134	H	0.484165	1.212931	-0.112972
O135	O	1.049902	0.307782	0.488839
H136	H	1.105142	0.282231	0.542043
O137	O	1.766270	0.408497	0.333526
H138	H	1.752799	0.458468	0.270294
O139	O	1.586853	0.599277	-0.125833
H140	H	1.526762	0.688547	-0.186162
O141	O	0.305110	1.230809	-0.132728
H142	H	0.291480	1.165974	-0.139039
O143	O	0.706012	1.416465	-0.364948
H144	H	0.692539	1.466452	-0.428180
O145	O	0.260254	1.617894	-0.333531
H146	H	0.190238	1.693451	-0.392774
H147	H	1.534961	0.656071	0.025423
O148	O	1.483575	0.514028	-0.134771
H149	H	1.425297	0.603938	-0.195197
H150	H	0.830273	1.013177	-0.410131
H151	H	0.491397	1.212871	-0.025617
O152	O	0.914926	0.408463	0.333572
H153	H	0.929367	0.332920	0.392828
O154	O	0.271204	1.718686	-0.488824
H155	H	0.220029	1.681496	-0.488778
O156	O	1.111669	1.617817	-0.333512
H157	H	1.175140	1.599192	-0.362118
H158	H	0.533116	0.834267	0.122755
H159	H	1.345513	0.501510	0.001973
H160	H	1.552979	0.597117	0.213700
H161	H	0.999704	0.525939	-0.124571
O162	O	1.206762	0.338267	-0.012984
H163	H	1.236234	0.400868	-0.037830
O164	O	0.596781	1.007515	-0.119025
H165	H	0.599382	1.090806	-0.134501
H166	H	1.104927	1.429221	-0.213697
H167	H	0.610374	0.994570	0.112665
O168	O	1.219085	1.013209	-0.581013
H169	H	1.208896	1.013233	-0.528684
H170	H	1.728367	0.333380	0.471061
O171	O	0.439665	1.000727	0.125832
H172	H	0.348648	1.083828	0.085106
H173	H	1.694523	0.497031	0.025266
O174	O	0.859759	1.013159	-0.720583
H175	H	0.804005	1.013135	-0.685946
O176	O	1.544673	0.517096	0.133492
H177	H	1.625947	0.416536	0.173957
H178	H	0.473539	1.429254	-0.213713
H179	H	1.183343	0.439221	0.099782
H180	H	0.691014	0.837948	0.125546
H181	H	1.187944	0.278924	0.097036
H182	H	0.985043	0.530040	0.112755
H183	H	1.702072	0.370119	0.112308
H184	H	1.134795	1.013180	-0.410131
O185	O	1.212685	0.507284	-0.006453
H186	H	1.159934	0.613087	-0.054963
O187	O	1.607097	0.251637	0.120176
H188	H	1.565208	0.270589	0.159944
O189	O	1.495513	0.332169	-0.007996
H190	H	1.399992	0.389672	-0.029731
O191	O	1.415600	0.775235	-0.121479
H192	H	1.416469	0.799685	-0.078529
O193	O	0.870207	1.013179	-0.581003
H194	H	0.782324	1.101938	-0.624644
O195	O	0.823092	0.506497	0.018074
H196	H	0.810139	0.502454	-0.033167
O197	O	0.821959	0.684415	0.017566
H198	H	0.762400	0.664584	0.002095
O199	O	1.308574	0.698268	-0.138464
H200	H	1.303849	0.614549	-0.114880
O201	O	0.830662	0.601810	-0.122440
H202	H	0.780724	0.629901	-0.088186
O203	O	0.419407	1.009965	-0.120175
H204	H	0.470589	0.955910	-0.143989
O205	O	0.817880	1.013195	-0.279422
H206	H	0.756917	1.013210	-0.314056
