data_functionalizedCrystal
_audit_creation_method	'MofGen! by Chris Wilmer'
_symmetry_space_group_name_H-M	'P1'
_symmetry_Int_Tables_number	1
_symmetry_cell_setting	triclinic
loop_
_symmetry_equiv_pos_as_xyz
  x,y,z
_cell_length_a	16.956984
_cell_length_b	14.044190
_cell_length_c	15.455313
_cell_angle_alpha	92.904485
_cell_angle_beta	87.518126
_cell_angle_gamma	84.622598
loop_
_atom_site_label
_atom_site_type_symbol
_atom_site_fract_x
_atom_site_fract_y
_atom_site_fract_z
O1	O	1.064001	0.034660	-0.072138
O2	O	0.834198	0.067754	-0.072141
O3	O	0.945646	-0.086506	-0.072122
O4	O	0.952552	0.188920	-0.072156
O5	O	0.939271	-0.077719	0.072139
O6	O	0.827823	0.076541	0.072120
O7	O	1.057625	0.043447	0.072123
Cu8	Cu	0.942142	0.060796	0.085294
Cu9	Cu	0.949682	0.050405	-0.085312
O10	O	0.946177	0.197707	0.072105
C11	C	0.801423	0.073842	-0.000011
C12	C	0.713261	0.078881	-0.000012
C13	C	0.675182	-0.005360	0.000000
C14	C	0.592344	-0.000620	-0.000006
C15	C	0.547586	0.088361	-0.000019
C16	C	0.585671	0.172607	-0.000034
C17	C	0.668507	0.167866	-0.000033
C18	C	0.299484	0.111826	-0.000028
C19	C	0.216642	0.116560	-0.000026
C20	C	0.223321	-0.056668	-0.000000
C21	C	0.306159	-0.061400	0.000006
C22	C	0.344236	0.022846	-0.000014
N23	N	0.462913	0.093207	-0.000023
N24	N	0.428908	0.017998	-0.000016
C25	C	0.939438	-0.117190	0.000011
C26	C	0.930428	-0.221710	0.000018
C27	C	0.977857	-0.475715	-0.000015
C28	C	0.913970	-0.413079	-0.000010
C29	C	0.923130	-0.306592	0.000005
C30	C	0.968699	-0.582212	-0.000031
C31	C	1.090401	0.037358	-0.000009
C32	C	1.178563	0.032320	-0.000014
C33	C	0.952385	0.228391	-0.000030
C34	C	0.961396	0.332910	-0.000043
N35	N	0.936844	0.068104	0.205288
N36	N	0.954985	0.043088	-0.205306
C37	C	0.984211	0.002590	0.250691
C38	C	0.980213	0.008125	0.341498
C39	C	0.928852	0.079179	0.386901
C40	C	0.881479	0.144696	0.341493
C41	C	0.885474	0.139157	0.250687
C42	C	0.911607	0.103066	0.658480
C43	C	0.907618	0.108603	0.749292
C44	C	1.006351	-0.027970	0.749290
C45	C	1.010344	-0.033500	0.658483
C46	C	0.962969	0.032014	0.613083
N47	N	0.924765	0.084840	0.479721
N48	N	0.967052	0.026348	0.520265
H49	H	0.180201	0.189023	-0.000032
C50	C	1.118282	-0.518714	-0.000012
C51	C	1.060977	-0.440150	-0.000004
H52	H	1.169595	-0.496747	-0.000009
H53	H	1.109837	-0.553283	0.050287
H54	H	1.114283	-0.559384	-0.050328
H55	H	1.064971	-0.399483	0.050316
H56	H	1.069424	-0.405566	-0.050307
H57	H	0.699509	0.236464	-0.000039
C58	C	1.104335	-0.163529	0.740167
C59	C	1.058413	-0.099992	0.799196
H60	H	1.136477	-0.207993	0.770977
H61	H	1.070470	-0.197023	0.704764
H62	H	1.137211	-0.128659	0.704735
H63	H	1.025532	-0.134861	0.834624
H64	H	1.092281	-0.066495	0.834613
C65	C	0.851746	0.304253	0.222694
C66	C	0.833412	0.211174	0.200775
H67	H	0.819605	0.348711	0.191876
H68	H	0.842014	0.317717	0.283264
H69	H	0.906054	0.309459	0.207792
H70	H	0.779105	0.205966	0.215683
H71	H	0.843138	0.197707	0.140192
H72	H	0.711618	-0.077817	0.000014
C73	C	1.022383	-0.169690	0.556899
C74	C	1.066562	-0.112027	0.608811
H75	H	1.057022	-0.218288	0.526300
H76	H	0.985224	-0.198379	0.592500
H77	H	0.994951	-0.131508	0.516679
H78	H	1.093989	-0.150208	0.649036
H79	H	1.103735	-0.083337	0.573206
C80	C	0.837740	-0.548782	-0.000022
C81	C	0.830845	-0.448644	-0.000012
H82	H	0.786423	-0.570738	-0.000016
H83	H	0.867947	-0.574809	-0.050330
H84	H	0.863515	-0.568708	0.050284
H85	H	0.805075	-0.428718	-0.050322
H86	H	0.800625	-0.422607	0.050301
C87	C	1.081395	-0.131855	0.259820
C88	C	1.040668	-0.075517	0.200787
H89	H	1.116245	-0.180080	0.229011
H90	H	1.111151	-0.092672	0.295218
H91	H	1.044407	-0.161031	0.295255
H92	H	1.077656	-0.046335	0.165356
H93	H	1.010910	-0.114705	0.165374
C94	C	0.810398	0.243027	0.740177
C95	C	0.851145	0.186698	0.799201
H96	H	0.775532	0.291231	0.770991
H97	H	0.847368	0.272223	0.704747
H98	H	0.780651	0.203826	0.704772
H99	H	0.880897	0.225898	0.834603
H100	H	0.814171	0.157501	0.834646
C101	C	0.908019	0.226468	0.556353
C102	C	0.859544	0.175093	0.608586
H103	H	0.875876	0.270935	0.525547
H104	H	0.941879	0.259958	0.591764
H105	H	0.939168	0.183349	0.516314
H106	H	0.828400	0.218212	0.648630
H107	H	0.825671	0.141601	0.573173
C108	C	1.082178	-0.014464	0.443604
C109	C	1.032281	-0.063881	0.391412
H110	H	1.114319	-0.058921	0.474423
H111	H	1.115048	0.020390	0.408164
H112	H	1.051003	0.028642	0.483631
H113	H	1.063456	-0.106983	0.351380
H114	H	0.999408	-0.098751	0.426855
C115	C	0.607266	-0.172320	0.000040
C116	C	0.550488	-0.093220	0.000017
H117	H	0.581424	-0.229488	0.000060
H118	H	0.641658	-0.173638	-0.050265
H119	H	0.637214	-0.167486	0.050350
H120	H	0.520544	-0.098050	-0.050296
H121	H	0.516083	-0.091903	0.050327
C122	C	0.340630	-0.215030	-0.074137
C123	C	0.355352	-0.159213	0.000016
H124	H	0.371003	-0.275413	-0.074128
H125	H	0.285852	-0.224258	-0.074130
H126	H	0.355064	-0.183276	-0.124443
H127	H	0.340912	-0.190964	0.050322
H128	H	0.410142	-0.149988	0.000017
C129	C	0.099305	-0.126322	0.000001
C130	C	0.181465	-0.149268	0.000008
H131	H	0.073468	-0.183494	-0.000002
H132	H	0.082138	-0.086905	0.050302
H133	H	0.086591	-0.093019	-0.050312
H134	H	0.194181	-0.182565	0.050325
H135	H	0.198639	-0.188701	-0.050298
C136	C	0.284549	0.283527	-0.000038
C137	C	0.341331	0.204429	-0.000036
H138	H	0.310387	0.340699	-0.000036
H139	H	0.254604	0.278710	-0.050342
H140	H	0.250154	0.284824	0.050273
H141	H	0.375722	0.203128	-0.050350
H142	H	0.371289	0.209247	0.050273
C143	C	0.455724	0.256792	-0.000035
C144	C	0.536474	0.270418	-0.000044
H145	H	0.425355	0.317180	-0.000034
H146	H	0.445744	0.218926	-0.050335
H147	H	0.441306	0.225043	0.050279
H148	H	0.550893	0.302161	-0.050362
H149	H	0.546458	0.308299	0.050261
H150	H	0.839656	0.202547	0.378465
