data_functionalizedCrystal
_audit_creation_method	'MofGen! by Chris Wilmer'
_symmetry_space_group_name_H-M	'P1'
_symmetry_Int_Tables_number	1
_symmetry_cell_setting	triclinic
loop_
_symmetry_equiv_pos_as_xyz
  x,y,z
_cell_length_a	12.759395
_cell_length_b	21.295417
_cell_length_c	12.759387
_cell_angle_alpha	90.037489
_cell_angle_beta	90.021028
_cell_angle_gamma	90.030463
loop_
_atom_site_label
_atom_site_type_symbol
_atom_site_fract_x
_atom_site_fract_y
_atom_site_fract_z
Zn1	Zn	1.606159	-0.250563	0.593971
Zn2	Zn	1.606004	-0.355846	0.418271
Zn3	Zn	1.430457	-0.250596	0.418306
Zn4	Zn	1.430404	-0.355800	0.593908
O5	O	1.518256	-0.303201	0.506114
O6	O	1.753160	-0.264535	0.570675
O7	O	1.582675	-0.341918	0.271254
O8	O	1.453852	-0.162502	0.441649
O9	O	1.753045	-0.341886	0.441589
O10	O	1.582939	-0.162478	0.570709
O11	O	1.453701	-0.264591	0.271280
O12	O	1.283429	-0.264546	0.441589
O13	O	1.453761	-0.341807	0.740938
O14	O	1.283390	-0.341839	0.570603
O15	O	1.582887	-0.264490	0.740984
O16	O	1.582623	-0.443929	0.441528
O17	O	1.453610	-0.443895	0.570569
C18	C	1.245289	-0.303191	0.506093
C19	C	1.128512	-0.303202	0.506110
C20	C	0.909196	-0.222801	0.640779
C21	C	0.964121	-0.182587	0.708084
C22	C	1.073843	-0.182576	0.708065
C23	C	1.128642	-0.222785	0.640737
C24	C	1.073716	-0.262999	0.573433
C25	C	0.963992	-0.263004	0.573456
C26	C	1.073586	-0.343417	0.438805
C27	C	0.963865	-0.343425	0.438816
C28	C	1.128385	-0.383626	0.371477
C29	C	1.073459	-0.423837	0.304165
C30	C	0.963731	-0.423846	0.304185
C31	C	0.908939	-0.383639	0.371511
C32	C	1.518122	-0.466753	0.506061
C33	C	1.518161	-0.536721	0.506073
C34	C	1.585338	-0.569518	0.573323
C35	C	1.585375	-0.635260	0.573349
C36	C	1.518246	-0.668204	0.506106
C37	C	1.451056	-0.635399	0.438852
C38	C	1.451013	-0.569658	0.438835
N39	N	1.510305	-0.771472	0.414160
N40	N	1.510352	-0.833924	0.414178
C41	C	1.518369	-0.866278	0.506154
N42	N	1.526358	-0.833822	0.598112
N43	N	1.526317	-0.771365	0.598092
C44	C	1.518284	-0.739489	0.506117
C45	C	1.585590	-0.970361	0.573437
C46	C	1.585620	-1.036104	0.573465
C47	C	1.451306	-1.036241	0.438959
C48	C	1.451270	-0.970499	0.438940
C49	C	1.518418	-0.937562	0.506178
C50	C	1.792289	-0.303212	0.506135
C51	C	1.909066	-0.303216	0.506144
C52	C	1.518335	-0.303140	0.780148
C53	C	1.518369	-0.303113	0.896924
C54	C	1.518419	-0.139011	0.506190
C55	C	1.518489	-0.069043	0.506223
C56	C	1.518237	-0.303217	0.233146
C57	C	1.518407	-0.303066	0.116370
C58	C	1.652838	-0.222609	0.896992
C59	C	1.720087	-0.182347	0.951887
C60	C	1.720113	-0.182324	1.061608
C61	C	1.652880	-0.222566	1.116438
C62	C	1.585631	-0.262827	1.061543
C63	C	1.585615	-0.262847	0.951819
C64	C	1.451158	-0.343328	1.061476
C65	C	1.451136	-0.343355	0.951754
C66	C	1.383925	-0.383570	1.116305
C67	C	1.316680	-0.423836	1.061410
C68	C	1.316658	-0.423858	0.951682
C69	C	1.383887	-0.383617	0.896859
H70	H	1.118085	-0.456576	0.249357
C71	C	0.788499	-0.222805	0.640799
N72	N	0.697589	-0.222808	0.640816
H73	H	1.774825	-0.149582	0.907232
C74	C	1.249081	-0.383610	0.371455
N75	N	1.339992	-0.383597	0.371432
H76	H	1.383880	-0.383634	0.807518
H77	H	1.640011	-0.542703	0.628074
H78	H	1.396641	-1.063063	0.384215
H79	H	1.396396	-0.662225	0.384105
C80	C	1.659529	-1.072181	0.647444
N81	N	1.715203	-1.099354	0.703162
C82	C	0.903835	-0.138349	0.782125
N83	N	0.858430	-0.105026	0.837888
C84	C	1.377105	-0.533580	0.364856
N85	N	1.321436	-0.506405	0.309135
H86	H	1.652834	-0.222629	0.807651
H87	H	1.261939	-0.456594	1.106061
H88	H	0.819598	-0.383635	0.371521
C89	C	1.134263	-0.138338	0.782103
N90	N	1.179771	-0.105018	0.837867
C91	C	0.903321	-0.468085	0.230142
N92	N	0.857825	-0.501406	0.174369
H93	H	1.774866	-0.149535	1.106303
C94	C	1.249338	-0.222773	0.640725
N95	N	1.340249	-0.222763	0.640713
C96	C	1.652913	-0.222538	1.237135
N97	N	1.652940	-0.222520	1.328045
H98	H	1.640070	-0.661969	0.628124
H99	H	1.383947	-0.383546	1.205646
C100	C	1.659439	-0.934128	0.647413
N101	N	1.715059	-0.906840	0.703136
C102	C	1.377363	-0.934421	0.364965
N103	N	1.321686	-0.907247	0.309251
H104	H	1.261884	-0.456637	0.906993
