data_functionalizedCrystal
_audit_creation_method	'MofGen! by Chris Wilmer'
_symmetry_space_group_name_H-M	'P1'
_symmetry_Int_Tables_number	1
_symmetry_cell_setting	triclinic
loop_
_symmetry_equiv_pos_as_xyz
  x,y,z
_cell_length_a	19.188930
_cell_length_b	19.288864
_cell_length_c	18.366186
_cell_angle_alpha	90.023340
_cell_angle_beta	89.979752
_cell_angle_gamma	96.859491
loop_
_atom_site_label
_atom_site_type_symbol
_atom_site_fract_x
_atom_site_fract_y
_atom_site_fract_z
O1	O	-0.926141	0.086713	0.060818
O2	O	-0.722828	0.098387	0.060773
O3	O	-0.830359	-0.008580	0.060752
O4	O	-0.818610	0.193680	0.060839
O5	O	-0.830345	-0.008576	-0.060347
O6	O	-0.722815	0.098391	-0.060326
O7	O	-0.926127	0.086717	-0.060281
Zn8	Zn	-0.824468	0.092554	-0.079531
Zn9	Zn	-0.824487	0.092549	0.080023
O10	O	-0.818596	0.193684	-0.060260
C11	C	-0.696811	0.098011	0.000217
C12	C	-0.619306	0.096876	0.000197
C13	C	-0.829974	-0.034454	0.000192
C14	C	-0.828839	-0.111558	0.000162
C15	C	-0.952145	0.087093	0.000277
C16	C	-1.029649	0.088228	0.000301
C17	C	-0.574377	0.159640	0.000236
C18	C	-0.501554	0.158574	0.000243
C19	C	-0.473662	0.094740	0.000227
C20	C	-0.518600	0.031967	0.000184
C21	C	-0.591423	0.033035	0.000169
N22	N	-0.365690	0.045945	0.041451
N23	N	-0.296512	0.044935	0.041466
C24	C	-0.254254	0.091519	0.000270
N25	N	-0.283786	0.139161	-0.040933
N26	N	-0.352971	0.140173	-0.040946
C27	C	-0.394700	0.093575	0.000243
C28	C	-0.130361	0.153132	0.000316
C29	C	-0.057536	0.152063	0.000319
C30	C	-0.074584	0.025454	0.000267
C31	C	-0.147407	0.026525	0.000257
C32	C	-0.175291	0.090365	0.000285
C33	C	-0.818981	0.219558	0.000301
C34	C	-0.820116	0.296662	0.000336
N35	N	-0.824461	0.092557	-0.188422
C36	C	-0.757022	0.341354	0.000308
C37	C	-0.758088	0.413801	0.000291
C38	C	-0.822252	0.441553	0.000289
C39	C	-0.885354	0.396852	0.000322
C40	C	-0.884286	0.324406	0.000346
C41	C	-0.872687	0.549808	-0.042165
C42	C	-0.873752	0.622253	-0.042193
C43	C	-0.825548	0.664999	0.000220
C44	C	-0.776268	0.635293	0.042651
C45	C	-0.775200	0.562848	0.042675
C46	C	-0.823417	0.520107	0.000264
C47	C	-0.763606	0.788246	0.000175
C48	C	-0.764675	0.860695	0.000163
C49	C	-0.891943	0.843744	0.000186
C50	C	-0.890872	0.771297	0.000205
C51	C	-0.826702	0.743553	0.000196
C52	C	-0.866711	0.134558	-0.772942
C53	C	-0.866703	0.134565	-0.696715
C54	C	-0.824493	0.092542	-0.658633
C55	C	-0.782274	0.050522	-0.696786
C56	C	-0.782277	0.050522	-0.773013
C57	C	-0.822757	0.029917	-0.537895
C58	C	-0.822759	0.029916	-0.461671
C59	C	-0.824479	0.092544	-0.423526
C60	C	-0.826212	0.155173	-0.461615
C61	C	-0.826216	0.155173	-0.537842
C62	C	-0.824485	0.092538	-0.575979
C63	C	-0.866685	0.134572	-0.302727
C64	C	-0.866672	0.134580	-0.226498
C65	C	-0.782247	0.050531	-0.226571
C66	C	-0.782255	0.050529	-0.302799
C67	C	-0.824478	0.092548	-0.340872
N68	N	-0.824500	0.092541	0.188914
H69	H	-0.597075	0.211624	0.000260
N70	N	-0.828072	0.222728	-0.420486
H71	H	-0.827804	0.213228	-0.366418
H72	H	-0.785565	0.256375	-0.433817
H73	H	-0.827625	0.206168	-0.568851
H74	H	-0.747886	0.016311	-0.333856
N75	N	-0.488520	-0.036882	0.000174
H76	H	-0.528036	-0.076483	0.000148
H77	H	-0.458650	-0.040081	-0.044712
H78	H	-0.937597	0.419452	0.000334
H79	H	-0.901062	0.168790	-0.333728
N80	N	-0.724278	0.681387	0.088407
H81	H	-0.674963	0.675318	0.072565
H82	H	-0.732497	0.731767	0.081941
H83	H	-0.464966	0.209686	0.000273
H84	H	-0.901090	0.168775	-0.803937
N85	N	-0.160436	0.221987	0.000336
H86	H	-0.190250	0.225252	-0.044559
H87	H	-0.190256	0.225211	0.045254
H88	H	-0.183989	-0.024585	0.000229
N89	N	-0.912206	0.179900	-0.185358
H90	H	-0.946467	0.149570	-0.153728
H91	H	-0.881655	0.213973	-0.153774
N92	N	-0.694398	0.758315	0.000168
H93	H	-0.654588	0.797624	0.000154
H94	H	-0.691190	0.728653	0.045069
H95	H	-0.051876	-0.026521	0.000299
H96	H	-0.735074	0.538664	0.077225
N97	N	-0.639885	-0.034665	0.000139
H98	H	-0.690248	-0.024302	0.000136
H99	H	-0.630857	-0.062494	-0.044763
H100	H	-0.935667	0.288017	0.000370
H101	H	-0.020955	0.203175	0.000346
N102	N	-0.687812	0.311429	0.000291
H103	H	-0.648004	0.350739	0.000268
H104	H	-0.684594	0.281769	0.045190
N105	N	-0.820891	-0.037637	-0.420603
H106	H	-0.776872	-0.058708	-0.433900
H107	H	-0.821182	-0.028092	-0.366538
H108	H	-0.821350	-0.021084	-0.568947
H109	H	-0.747874	0.016319	-0.195566
H110	H	-0.706707	0.450196	0.000266
N111	N	-0.736749	0.005194	-0.655718
H112	H	-0.743155	0.011567	-0.601641
H113	H	-0.750706	-0.045356	-0.669063
N114	N	-0.912231	0.179886	-0.655561
H115	H	-0.938978	0.206505	-0.691247
H116	H	-0.946452	0.149510	-0.623934
N117	N	-0.696620	0.908902	0.000139
H118	H	-0.655809	0.880330	0.000135
H119	H	-0.694289	0.939302	-0.044763
H120	H	-0.944187	0.866339	0.000238
N121	N	-0.958924	0.723089	0.000229
H122	H	-0.999735	0.751660	0.000224
H123	H	-0.961245	0.692633	-0.044655
N124	N	-0.926900	0.654283	-0.087964
H125	H	-0.975840	0.635145	-0.072106
H126	H	-0.920201	0.706659	-0.081534
N127	N	-0.924685	0.503705	-0.087908
H128	H	-0.956061	0.533515	-0.114794
H129	H	-0.898545	0.477044	-0.124141
N130	N	-0.736755	0.005194	-0.814159
H131	H	-0.710014	-0.021429	-0.778471
H132	H	-0.767314	-0.028837	-0.845781
