data_functionalizedCrystal
_audit_creation_method	'MofGen! by Chris Wilmer'
_symmetry_space_group_name_H-M	'P1'
_symmetry_Int_Tables_number	1
_symmetry_cell_setting	triclinic
loop_
_symmetry_equiv_pos_as_xyz
  x,y,z
_cell_length_a	23.532407
_cell_length_b	14.044220
_cell_length_c	12.503572
_cell_angle_alpha	86.156832
_cell_angle_beta	93.490724
_cell_angle_gamma	88.018778
loop_
_atom_site_label
_atom_site_type_symbol
_atom_site_fract_x
_atom_site_fract_y
_atom_site_fract_z
O1	O	-0.764493	-0.109506	-0.089188
O2	O	-0.599532	-0.126145	-0.089220
O3	O	-0.679536	0.020135	-0.089194
O4	O	-0.684489	-0.255786	-0.089214
O5	O	-0.673520	0.009116	0.089446
O6	O	-0.593517	-0.137164	0.089420
O7	O	-0.758477	-0.120525	0.089452
Cu8	Cu	-0.675447	-0.129851	0.105747
Cu9	Cu	-0.682562	-0.116819	-0.105515
O10	O	-0.678473	-0.266805	0.089426
C11	C	-0.575286	-0.131230	0.000096
C12	C	-0.512000	-0.129956	0.000084
C13	C	-0.674361	0.049920	0.000126
C14	C	-0.667895	0.155085	0.000126
C15	C	-0.782724	-0.115439	0.000134
C16	C	-0.846010	-0.116714	0.000138
C17	C	-0.117154	-0.208534	0.000127
C18	C	-0.057690	-0.207350	0.000134
O19	O	-0.024892	-0.280193	0.000168
N20	N	-0.030350	-0.120386	0.000139
C21	C	-0.062477	-0.034600	0.000147
O22	O	-0.033762	0.039478	0.000153
C23	C	-0.121941	-0.035785	0.000148
C24	C	-0.149278	-0.122754	0.000133
C25	C	-0.144492	-0.295496	0.000113
C26	C	-0.203952	-0.296678	0.000104
C27	C	-0.236075	-0.210899	0.000110
C28	C	-0.208738	-0.123937	0.000124
C29	C	-0.154067	0.050000	0.000165
C30	C	-0.213534	0.048807	0.000167
C31	C	-0.240871	-0.038162	0.000151
C32	C	-0.300322	-0.039340	0.000121
N33	N	-0.327662	-0.126304	0.000117
C34	C	-0.295539	-0.212083	0.000111
C35	C	0.062400	-0.032119	0.000147
C36	C	0.121862	-0.030933	0.000138
C37	C	0.126645	-0.203684	0.000127
C38	C	0.067182	-0.204868	0.000128
C39	C	0.035060	-0.119083	0.000143
C40	C	-0.420410	-0.214560	0.000092
C41	C	-0.479877	-0.215735	0.000079
C42	C	-0.484655	-0.042985	0.000096
C43	C	-0.425194	-0.041810	0.000103
C44	C	-0.393073	-0.127605	0.000105
O45	O	-0.333156	0.033464	0.000092
O46	O	-0.324261	-0.286150	0.000120
C47	C	-0.683649	-0.296589	0.000104
C48	C	-0.690115	-0.401754	0.000097
N49	N	-0.670448	-0.139016	0.254338
C50	C	-0.656074	0.347636	0.000109
C51	C	-0.701933	0.405701	0.000114
C52	C	-0.695356	0.512843	0.000104
C53	C	-0.662650	0.240484	0.000119
N54	N	-0.687566	-0.107646	-0.254106
C55	C	-0.663093	-0.152506	0.473451
C56	C	-0.694919	-0.094159	0.526788
C57	C	-0.690826	-0.101666	0.648710
C58	C	-0.667185	-0.145001	0.351518
H59	H	-0.502131	-0.286559	0.000066
H60	H	-0.394264	-0.284424	0.000097
C61	C	-0.761646	0.364153	0.000141
N62	N	-0.806620	0.332854	0.000167
H63	H	-0.226204	-0.367497	0.000091
C64	C	0.037117	-0.300541	0.000123
N65	N	0.014476	-0.372606	0.000123
H66	H	-0.725239	-0.038571	0.480885
H67	H	-0.118342	-0.365352	0.000112
H68	H	-0.611877	0.378390	0.000098
C69	C	-0.248865	0.143181	0.000178
N70	N	-0.275475	0.214263	0.000183
C71	C	0.161993	-0.298044	0.000132
N72	N	0.188618	-0.369112	0.000137
H73	H	0.144114	0.039887	0.000134
C74	C	0.027070	0.062259	0.000146
N75	N	0.000462	0.133344	0.000144
H76	H	-0.131819	0.120819	0.000179
C77	C	-0.395123	0.053861	0.000107
N78	N	-0.372477	0.125921	0.000118
C79	C	-0.520001	0.051367	0.000115
N80	N	-0.546626	0.122432	0.000140
H81	H	-0.632776	-0.208092	0.519348
