data_functionalizedCrystal
_audit_creation_method	'MofGen! by Chris Wilmer'
_symmetry_space_group_name_H-M	'P1'
_symmetry_Int_Tables_number	1
_symmetry_cell_setting	triclinic
loop_
_symmetry_equiv_pos_as_xyz
  x,y,z
_cell_length_a	10.654562
_cell_length_b	10.654536
_cell_length_c	9.730223
_cell_angle_alpha	90.016261
_cell_angle_beta	89.991338
_cell_angle_gamma	95.513958
loop_
_atom_site_label
_atom_site_type_symbol
_atom_site_fract_x
_atom_site_fract_y
_atom_site_fract_z
O1	O	1.667830	-0.176477	-0.114417
O2	O	1.302353	-0.193266	-0.114403
O3	O	1.493499	-0.002132	-0.114364
O4	O	1.476684	-0.367611	-0.114456
O5	O	1.493478	-0.002123	0.114216
O6	O	1.302331	-0.193258	0.114177
O7	O	1.667808	-0.176468	0.114163
Zn8	Zn	1.485067	-0.184861	0.150462
Zn9	Zn	1.485095	-0.184873	-0.150702
O10	O	1.476662	-0.367602	0.114124
C11	C	1.255544	-0.192026	-0.000111
C12	C	1.116102	-0.188327	-0.000103
C13	C	1.050560	-0.186598	0.124486
C14	C	0.919538	-0.183133	0.124464
C15	C	0.919611	-0.183133	-0.124747
C16	C	1.050632	-0.186589	-0.124723
C17	C	1.116030	-0.188337	0.249106
C18	C	1.050487	-0.186608	0.373705
C19	C	0.919465	-0.183143	0.373683
C20	C	0.853986	-0.181407	0.249062
C21	C	1.492256	0.044671	-0.000065
C22	C	1.488567	0.184115	-0.000038
C23	C	1.717131	0.212075	-0.000025
C24	C	1.829675	0.291565	-0.000002
C25	C	1.826201	0.422583	0.000021
C26	C	1.710172	0.474114	0.000017
C27	C	1.597628	0.394624	-0.000006
C28	C	1.601114	0.263604	-0.000025
C29	C	1.369067	0.366664	-0.000028
C30	C	1.372538	0.235645	-0.000041
C31	C	1.253038	0.418195	-0.000032
C32	C	1.140491	0.338705	-0.000045
C33	C	1.143969	0.207679	-0.000066
C34	C	1.259994	0.156156	-0.000064
C35	C	1.714617	-0.177708	-0.000132
C36	C	1.854059	-0.181407	-0.000149
C37	C	1.477910	0.585596	-0.000126
C38	C	1.481611	0.446153	-0.000005
N39	N	1.485056	-0.184853	0.355999
N40	N	1.485115	-0.184871	-0.356238
C41	C	1.400445	-0.269473	0.571826
C42	C	1.400412	-0.269461	0.427943
C43	C	1.569730	-0.100243	0.427944
C44	C	1.569756	-0.100249	0.571824
C45	C	1.315803	-0.354095	0.643764
C46	C	1.231127	-0.438704	0.571828
C47	C	1.231095	-0.438692	0.427945
C48	C	1.315738	-0.354071	0.355998
H49	H	0.866105	-0.181726	0.475137
C50	C	1.137997	-0.531752	0.650957
H51	H	1.087549	-0.582120	0.587504
H52	H	1.183610	-0.584470	0.707059
H53	H	1.085346	-0.486056	0.707110
H54	H	1.262837	0.049476	-0.000073
C55	C	1.122509	-0.188516	0.510775
H56	H	1.209926	-0.190838	0.492948
H57	H	1.109958	-0.114840	0.561993
H58	H	1.092084	-0.261067	0.561943
H59	H	1.315825	-0.354114	0.760921
H60	H	1.162140	-0.507575	0.369377
H61	H	1.046029	0.380673	-0.000057
H62	H	1.052322	0.142965	-0.000091
H63	H	1.315696	-0.354060	0.238839
C64	C	1.249215	0.562311	-0.000002
H65	H	1.332858	0.602274	0.000027
H66	H	1.206237	0.586786	-0.079709
H67	H	1.206205	0.586785	0.079722
C68	C	1.662846	-0.007186	0.348805
H69	H	1.650714	-0.019310	0.252813
H70	H	1.648501	0.076767	0.372414
H71	H	1.746783	-0.021629	0.372353
H72	H	1.638701	-0.031358	0.630395
C73	C	0.709864	-0.177593	0.249039
H74	H	0.680204	-0.176816	0.341089
H75	H	0.689169	-0.103705	0.203032
H76	H	0.671306	-0.249932	0.202999
H77	H	1.103997	-0.188003	-0.226174
H78	H	1.719970	0.105394	-0.000025
C79	C	1.260150	-0.192141	0.249136
H80	H	1.289758	-0.192920	0.341195
H81	H	1.280872	-0.266029	0.203094
H82	H	1.298734	-0.119802	0.203151
H83	H	0.866287	-0.181722	-0.226207
C84	C	1.949992	0.510029	0.000042
H85	H	1.931298	0.595437	0.000045
H86	H	1.997510	0.494313	0.079750
H87	H	1.997529	0.494297	-0.079682
C88	C	1.957297	0.234879	0.000007
H89	H	1.943253	0.145465	0.000004
H90	H	2.003704	0.262086	-0.079693
H91	H	2.003662	0.262104	0.079739
H92	H	1.707354	0.580797	0.000019
