data_functionalizedCrystal
_audit_creation_method	'MofGen! by Chris Wilmer'
_symmetry_space_group_name_H-M	'P1'
_symmetry_Int_Tables_number	1
_symmetry_cell_setting	triclinic
loop_
_symmetry_equiv_pos_as_xyz
  x,y,z
_cell_length_a	23.532407
_cell_length_b	14.044220
_cell_length_c	13.101018
_cell_angle_alpha	93.664400
_cell_angle_beta	86.664201
_cell_angle_gamma	88.018778
loop_
_atom_site_label
_atom_site_type_symbol
_atom_site_fract_x
_atom_site_fract_y
_atom_site_fract_z
O1	O	-0.764358	-0.109763	0.085088
O2	O	-0.599398	-0.126402	0.085119
O3	O	-0.679402	0.019879	0.085094
O4	O	-0.684355	-0.256043	0.085113
O5	O	-0.673655	0.009374	-0.085335
O6	O	-0.593651	-0.136906	-0.085310
O7	O	-0.758612	-0.120267	-0.085340
Zn8	Zn	-0.675219	-0.130255	-0.112384
Zn9	Zn	-0.682791	-0.116414	0.112163
O10	O	-0.678608	-0.266547	-0.085315
C11	C	-0.575286	-0.131230	-0.000092
C12	C	-0.512000	-0.129955	-0.000081
C13	C	-0.674361	0.049920	-0.000121
C14	C	-0.667895	0.155085	-0.000121
C15	C	-0.782724	-0.115439	-0.000128
C16	C	-0.846010	-0.116713	-0.000132
C17	C	-0.117154	-0.208533	-0.000121
C18	C	-0.057690	-0.207350	-0.000128
O19	O	-0.024892	-0.280192	-0.000160
N20	N	-0.030350	-0.120386	-0.000132
C21	C	-0.062478	-0.034600	-0.000141
O22	O	-0.033763	0.039479	-0.000146
C23	C	-0.121941	-0.035784	-0.000142
C24	C	-0.149278	-0.122754	-0.000127
C25	C	-0.144492	-0.295495	-0.000108
C26	C	-0.203952	-0.296678	-0.000100
C27	C	-0.236076	-0.210898	-0.000105
C28	C	-0.208738	-0.123936	-0.000119
C29	C	-0.154067	0.050000	-0.000157
C30	C	-0.213534	0.048808	-0.000159
C31	C	-0.240871	-0.038161	-0.000144
C32	C	-0.300322	-0.039339	-0.000116
N33	N	-0.327662	-0.126303	-0.000111
C34	C	-0.295539	-0.212083	-0.000106
C35	C	0.062399	-0.032119	-0.000140
C36	C	0.121861	-0.030933	-0.000132
C37	C	0.126645	-0.203683	-0.000121
C38	C	0.067182	-0.204868	-0.000122
C39	C	0.035060	-0.119083	-0.000136
C40	C	-0.420411	-0.214560	-0.000088
C41	C	-0.479877	-0.215735	-0.000075
C42	C	-0.484655	-0.042985	-0.000092
C43	C	-0.425194	-0.041809	-0.000099
C44	C	-0.393073	-0.127605	-0.000100
O45	O	-0.333156	0.033464	-0.000088
O46	O	-0.324261	-0.286150	-0.000114
C47	C	-0.683649	-0.296589	-0.000099
C48	C	-0.690115	-0.401754	-0.000092
N49	N	-0.670055	-0.139700	-0.265632
C50	C	-0.656074	0.347636	-0.000104
C51	C	-0.701933	0.405701	-0.000109
C52	C	-0.695356	0.512843	-0.000100
C53	C	-0.662650	0.240484	-0.000113
C54	C	-0.694980	-0.094108	-0.525549
C55	C	-0.663035	-0.152551	-0.474666
C56	C	-0.666942	-0.145398	-0.358349
C57	C	-0.691074	-0.101259	-0.641877
N58	N	-0.687958	-0.106962	0.265410
H59	H	-0.502131	-0.286558	-0.000063
O60	O	-0.389245	-0.297914	0.000100
C61	C	-0.369971	-0.439781	0.088389
C62	C	-0.405295	-0.345403	0.088307
H63	H	-0.382943	-0.478214	0.159686
H64	H	-0.322767	-0.424065	0.088449
H65	H	-0.378080	-0.486969	0.017041
H66	H	-0.397234	-0.298170	0.159642
H67	H	-0.452487	-0.361190	0.088193
H68	H	-0.725262	-0.038706	-0.481758
O69	O	-0.754709	0.369178	-0.000088
C70	C	-0.855822	0.402709	-0.000196
C71	C	-0.796093	0.444205	-0.000189
H72	H	-0.889297	0.463346	-0.000299
H73	H	-0.863637	0.361440	0.071136
H74	H	-0.858747	0.352603	-0.071512
H75	H	-0.793126	0.494350	0.071079
H76	H	-0.788303	0.485416	-0.071568
H77	H	-0.226205	-0.367497	-0.000087
O78	O	-0.603340	0.384285	0.000085
C79	C	-0.516793	0.400016	0.088351
C80	C	-0.576505	0.358459	0.088281
H81	H	-0.495075	0.379135	0.159638
H82	H	-0.520786	0.481151	0.088420
H83	H	-0.490294	0.370471	0.016994
H84	H	-0.603036	0.387931	0.159626
H85	H	-0.572469	0.277325	0.088158
H86	H	-0.632752	-0.207957	-0.518462
H87	H	-0.118343	-0.365352	-0.000107
H88	H	0.044928	-0.275686	-0.000116
H89	H	0.152811	-0.273530	-0.000122
H90	H	0.144113	0.039887	-0.000128
H91	H	-0.131820	0.120819	-0.000170
O92	O	0.031282	0.051310	-0.000092
C93	C	0.032827	0.222775	-0.000153
C94	C	0.068131	0.128366	-0.000183
H95	H	0.062605	0.285098	-0.000249
H96	H	0.002482	0.231005	0.071189
H97	H	0.007253	0.222104	-0.071459
H98	H	0.093739	0.128972	0.071074
H99	H	0.098441	0.120173	-0.071573
H100	H	-0.239685	0.118666	-0.000171
H101	H	-0.510821	0.026855	-0.000092
O102	O	-0.398725	0.042752	-0.000145
C103	C	-0.409755	0.213975	-0.000086
C104	C	-0.439798	0.118276	-0.000048
H105	H	-0.442950	0.275063	0.000013
H106	H	-0.379656	0.214520	-0.071434
H107	H	-0.384414	0.223189	0.071215
H108	H	-0.465170	0.109000	-0.071301
H109	H	-0.469863	0.117774	0.071346
