data_functionalizedCrystal
_audit_creation_method	'MofGen! by Chris Wilmer'
_symmetry_space_group_name_H-M	'P1'
_symmetry_Int_Tables_number	1
_symmetry_cell_setting	triclinic
loop_
_symmetry_equiv_pos_as_xyz
  x,y,z
_cell_length_a	8.559649
_cell_length_b	8.559649
_cell_length_c	7.088899
_cell_angle_alpha	82.328823
_cell_angle_beta	82.350559
_cell_angle_gamma	69.778664
loop_
_atom_site_label
_atom_site_type_symbol
_atom_site_fract_x
_atom_site_fract_y
_atom_site_fract_z
O1	O	2.113870	-0.068118	0.158958
O2	O	1.638385	0.015663	0.158965
O3	O	1.918018	-0.263970	0.158959
O4	O	1.834237	0.211515	0.158964
O5	O	1.944025	-0.237804	-0.159017
O6	O	1.664392	0.041828	-0.159011
O7	O	2.139877	-0.041952	-0.159018
Cu8	Cu	1.904509	0.002327	-0.188048
Cu9	Cu	1.873753	-0.028617	0.187995
O10	O	1.860243	0.237680	-0.159012
C11	C	1.591079	0.035095	-0.000022
C12	C	1.411380	0.053993	-0.000019
C13	C	1.937371	-0.311196	-0.000026
C14	C	1.956269	-0.490896	-0.000015
C15	C	2.187182	-0.061385	-0.000027
C16	C	2.366881	-0.080284	-0.000017
C17	C	1.840891	0.284906	-0.000023
C18	C	1.821992	0.464605	-0.000021
N19	N	1.852123	-0.050392	0.452484
N20	N	1.926153	0.024088	-0.452536
H21	H	1.692572	-0.436016	-0.000025
H22	H	2.085698	-0.590283	-0.000033
O23	O	2.017886	0.116052	0.450282
C24	C	2.184117	0.047272	0.499003
H25	H	2.187132	-0.028407	0.644374
H26	H	2.263818	-0.037766	0.386364
C27	C	2.250259	0.282195	0.329463
C28	C	2.253960	0.189256	0.508018
H29	H	2.293346	0.369775	0.335016
H30	H	2.138268	0.328532	0.296632
H31	H	2.316675	0.211312	0.235616
H32	H	2.187529	0.260134	0.601856
H33	H	2.365942	0.142934	0.540865
O34	O	1.760491	-0.142503	0.549589
C35	C	1.695197	-0.208261	0.418513
H36	H	1.688940	-0.128259	0.275789
H37	H	1.779594	-0.341955	0.397267
C38	C	1.526001	-0.305825	0.672127
C39	C	1.518304	-0.207556	0.496836
H40	H	1.416889	-0.305398	0.720442
H41	H	1.569995	-0.261528	0.760438
H42	H	1.596340	-0.417227	0.654398
H43	H	1.447984	-0.096153	0.514571
H44	H	1.474294	-0.251834	0.408530
H45	H	1.466258	-0.209705	-0.000009
H46	H	1.311990	0.183421	-0.000007
