data_functionalizedCrystal
_audit_creation_method	'MofGen! by Chris Wilmer'
_symmetry_space_group_name_H-M	'P1'
_symmetry_Int_Tables_number	1
_symmetry_cell_setting	triclinic
loop_
_symmetry_equiv_pos_as_xyz
  x,y,z
_cell_length_a	12.759400
_cell_length_b	17.077404
_cell_length_c	17.077396
_cell_angle_alpha	90.021457
_cell_angle_beta	89.974414
_cell_angle_gamma	89.986212
loop_
_atom_site_label
_atom_site_type_symbol
_atom_site_fract_x
_atom_site_fract_y
_atom_site_fract_z
Zn1	Zn	-0.418291	-1.200099	-0.443899
Zn2	Zn	0.081709	-0.700099	0.056101
Zn3	Zn	-0.593992	-1.200025	-0.312640
Zn4	Zn	-0.093992	-0.700025	0.187360
Zn5	Zn	-0.418325	-1.068831	-0.312643
Zn6	Zn	0.081675	-0.568831	0.187357
Zn7	Zn	-0.593926	-1.068818	-0.443859
Zn8	Zn	-0.093926	-0.568818	0.056141
O9	O	-0.506134	-1.134443	-0.378260
O10	O	-0.006134	-0.634443	0.121740
O11	O	-0.441612	-1.309936	-0.426503
O12	O	0.058388	-0.809936	0.073497
O13	O	-0.570731	-1.182597	-0.202794
O14	O	-0.070731	-0.682597	0.297206
O15	O	-0.271299	-1.086281	-0.330072
O16	O	0.228701	-0.586281	0.169928
O17	O	-0.570698	-1.309882	-0.330068
O18	O	-0.070698	-0.809882	0.169932
O19	O	-0.271275	-1.182723	-0.426506
O20	O	0.228725	-0.682723	0.073494
O21	O	-0.441669	-1.086209	-0.202796
O22	O	0.058331	-0.586209	0.297204
O23	O	-0.441605	-0.958983	-0.330033
O24	O	0.058395	-0.458983	0.169967
O25	O	-0.570586	-1.086258	-0.553712
O26	O	-0.070586	-0.586258	-0.053712
O27	O	-0.570619	-0.958973	-0.426437
O28	O	-0.070619	-0.458973	0.073563
O29	O	-0.441548	-1.182710	-0.553741
O30	O	0.058452	-0.682710	-0.053741
O31	O	-0.741004	-1.182584	-0.330029
O32	O	-0.241004	-0.682584	0.169971
O33	O	-0.740956	-1.086186	-0.426435
O34	O	-0.240956	-0.586186	0.073565
C35	C	-0.506109	-0.930496	-0.378232
C36	C	-0.006109	-0.430496	0.121768
C37	C	-0.506124	-0.843246	-0.378238
C38	C	-0.006124	-0.343246	0.121762
C39	C	-0.779101	-1.134397	-0.378244
C40	C	-0.279101	-0.634397	0.121756
C41	C	-0.895878	-1.134449	-0.378263
C42	C	-0.395878	-0.634449	0.121737
C43	C	-0.573402	-0.802271	-0.428354
C44	C	-0.073402	-0.302271	0.071646
C45	C	-0.573402	-0.720291	-0.428364
C46	C	-0.073402	-0.220291	0.071636
C47	C	-0.506129	-0.679286	-0.378253
C48	C	-0.006129	-0.179286	0.121747
C49	C	-0.438844	-0.720267	-0.328135
C50	C	0.061156	-0.220267	0.171865
C51	C	-0.438839	-0.802246	-0.328130
C52	C	0.061161	-0.302246	0.171870
C53	C	-0.438860	-0.549397	-0.328148
C54	C	0.061140	-0.049397	0.171852
C55	C	-0.438866	-0.467412	-0.328152
C56	C	0.061134	0.032588	0.171848
C57	C	-0.573423	-0.467442	-0.428382
C58	C	-0.073423	0.032558	0.071618
C59	C	-0.573418	-0.549421	-0.428377
C60	C	-0.073418	-0.049421	0.071623
C61	C	-0.506134	-0.590395	-0.378258
C62	C	-0.006134	-0.090395	0.121742
C63	C	-0.950730	-1.184699	-0.328120
C64	C	-0.450730	-0.684699	0.171880
C65	C	-1.060454	-1.184747	-0.328144
C66	C	-0.560454	-0.684747	0.171856
C67	C	-1.060464	-1.084289	-0.428457
C68	C	-0.560464	-0.584289	0.071543
C69	C	-0.950742	-1.084245	-0.428436
C70	C	-0.450742	-0.584245	0.071564
C71	C	-0.950725	-1.242695	-0.270203
C72	C	-0.450725	-0.742695	0.229797
C73	C	-1.060449	-1.242743	-0.270227
C74	C	-0.560449	-0.742743	0.229773
C75	C	-0.232100	-1.134512	-0.378294
C76	C	0.267900	-0.634512	0.121706
C77	C	-0.115324	-1.134541	-0.378308
C78	C	0.384676	-0.634541	0.121692
C79	C	-0.506056	-1.134491	-0.583005
C80	C	-0.006056	-0.634491	-0.083005
C81	C	-0.506023	-1.134511	-0.670255
C82	C	-0.006023	-0.634511	-0.170255
C83	C	-0.506152	-0.339188	-0.378281
C84	C	-0.006152	0.160812	0.121719
C85	C	-0.506143	-0.426437	-0.378268
C86	C	-0.006143	0.073563	0.121732
C87	C	-0.438827	-1.184735	-0.711261
C88	C	0.061173	-0.684735	-0.211261
C89	C	-0.438792	-1.184745	-0.793242
C90	C	0.061208	-0.684745	-0.293242
C91	C	-0.505959	-1.134533	-0.834214
C92	C	-0.005959	-0.634533	-0.334214
C93	C	-0.573158	-1.084304	-0.793202
C94	C	-0.073158	-0.584304	-0.293202
C95	C	-0.573187	-1.084291	-0.711223
C96	C	-0.073187	-0.584291	-0.211223
C97	C	-0.573095	-1.084335	-0.964072
C98	C	-0.073095	-0.584335	-0.464072
C99	C	-0.573068	-1.084349	-1.046056
C100	C	-0.073068	-0.584349	-0.546056
C101	C	-0.438700	-1.184789	-1.046091
C102	C	0.061300	-0.684789	-0.546091
C103	C	-0.438729	-1.184777	-0.964112
C104	C	0.061271	-0.684777	-0.464112
C105	C	-0.505930	-1.134547	-0.923105
C106	C	-0.005930	-0.634547	-0.423105
C107	C	-0.506135	-1.134441	-0.174313
C108	C	-0.006135	-0.634441	0.325687
C109	C	-0.505872	-1.134573	-0.087063
C110	C	-0.005872	-0.634573	0.412937
H111	H	-0.628187	-0.835651	-0.469157
H112	H	-0.128187	-0.335651	0.030843
Br113	Br	-0.664709	-0.664685	-0.496383
Br114	Br	-0.164709	-0.164685	0.003617
H115	H	-0.628203	-0.582804	-0.469177
H116	H	-0.128203	-0.082804	0.030823
H117	H	-0.384064	-0.686875	-0.287338
H118	H	0.115936	-0.186875	0.212662
H119	H	-1.105147	-1.043415	-0.469307
H120	H	-0.605147	-0.543415	0.030693
Br121	Br	-0.347524	-0.857855	-0.260118
Br122	Br	0.152476	-0.357855	0.239882
Br123	Br	-0.664213	-1.016196	-1.101662
Br124	Br	-0.164213	-0.516196	-0.601662
H125	H	-0.628205	-0.434076	-0.469193
H126	H	-0.128205	0.065924	0.030807
Br127	Br	-1.117045	-1.338997	-0.306630
Br128	Br	-0.617045	-0.838997	0.193370
H129	H	-0.627800	-1.043421	-0.930686
H130	H	-0.127800	-0.543421	-0.430686
H131	H	-0.384074	-0.434029	-0.287357
H132	H	0.115926	0.065971	0.212643
Br133	Br	-0.347543	-0.605005	-0.260131
Br134	Br	0.152457	-0.105005	0.239869
Br135	Br	-0.876301	-1.016061	-0.496505
Br136	Br	-0.376301	-0.516061	0.003495
Br137	Br	-0.900956	-1.343987	-0.297421
Br138	Br	-0.400956	-0.843987	0.202579
H139	H	-0.384042	-1.225668	-0.930755
H140	H	0.115958	-0.725668	-0.430755
Br141	Br	-0.894119	-1.206407	-0.173917
Br142	Br	-0.394119	-0.706407	0.326083
Br143	Br	-1.110217	-1.215682	-0.168885
Br144	Br	-0.610217	-0.715682	0.331115
Br145	Br	-0.347675	-1.252890	-0.655664
Br146	Br	0.152325	-0.752890	-0.155664
Br147	Br	-0.664378	-1.016122	-0.655569
Br148	Br	-0.164378	-0.516122	-0.155569
Br149	Br	-0.347643	-1.252946	-0.848891
Br150	Br	0.152357	-0.752946	-0.348891
Br151	Br	-0.347504	-1.252961	-1.101742
Br152	Br	0.152496	-0.752961	-0.601742
Br153	Br	-0.664308	-1.016153	-0.848806
Br154	Br	-0.164308	-0.516153	-0.348806
