data_functionalizedCrystal
_audit_creation_method	'MofGen! by Chris Wilmer'
_symmetry_space_group_name_H-M	'P1'
_symmetry_Int_Tables_number	1
_symmetry_cell_setting	triclinic
loop_
_symmetry_equiv_pos_as_xyz
  x,y,z
_cell_length_a	14.853567
_cell_length_b	23.532407
_cell_length_c	13.330367
_cell_angle_alpha	89.990692
_cell_angle_beta	89.995418
_cell_angle_gamma	83.241804
loop_
_atom_site_label
_atom_site_type_symbol
_atom_site_fract_x
_atom_site_fract_y
_atom_site_fract_z
O1	O	1.195556	0.074353	-0.083365
O2	O	1.695556	0.574353	0.416635
O3	O	0.932999	0.083210	-0.083383
O4	O	1.432999	0.583210	0.416617
O5	O	1.072195	-0.004116	-0.083355
O6	O	1.572195	0.495884	0.416645
O7	O	1.056360	0.161678	-0.083393
O8	O	1.556360	0.661678	0.416607
O9	O	1.072175	-0.004118	0.083492
O10	O	1.572175	0.495882	0.583492
O11	O	0.932979	0.083208	0.083464
O12	O	1.432979	0.583208	0.583464
O13	O	1.195536	0.074351	0.083482
O14	O	1.695536	0.574351	0.583482
Cu15	Cu	1.064255	0.078779	0.098707
Cu16	Cu	1.564255	0.578779	0.598707
Cu17	Cu	1.064279	0.078782	-0.098609
Cu18	Cu	1.564279	0.578782	0.401391
O19	O	1.056340	0.161677	0.083454
O20	O	1.556340	0.661677	0.583454
C21	C	0.899405	0.082808	0.000038
C22	C	1.399405	0.582808	0.500038
C23	C	0.799334	0.081605	0.000032
C24	C	1.299334	0.581605	0.500032
C25	C	0.387423	0.024648	0.000067
C26	C	0.887423	0.524648	0.500067
C27	C	0.365008	0.128393	0.000043
C28	C	0.865008	0.628393	0.500043
C29	C	0.459029	0.129524	0.000039
C30	C	0.959029	0.629524	0.500039
C31	C	0.517252	0.078216	0.000048
C32	C	1.017252	0.578216	0.500048
C33	C	0.481454	0.025777	0.000061
C34	C	0.981454	0.525777	0.500061
C35	C	0.494835	0.181961	0.000016
C36	C	0.994835	0.681961	0.500016
C37	C	0.588861	0.183094	0.000012
C38	C	1.088861	0.683094	0.500012
C39	C	0.647086	0.131786	0.000028
C40	C	1.147086	0.631786	0.500028
C41	C	0.611283	0.079345	0.000042
C42	C	1.111283	0.579345	0.500042
C43	C	0.669506	0.028037	0.000051
C44	C	1.169506	0.528037	0.500051
C45	C	0.633704	-0.024404	0.000072
C46	C	1.133704	0.475596	0.500072
C47	C	0.539679	-0.025531	0.000077
C48	C	1.039679	0.474469	0.500077
C49	C	0.741111	0.132913	0.000023
C50	C	1.241111	0.632913	0.500023
C51	C	0.763536	0.029166	0.000044
C52	C	1.263536	0.529166	0.500044
C53	C	1.071782	-0.025335	0.000071
C54	C	1.571782	0.474665	0.500071
C55	C	1.070569	-0.088557	0.000078
C56	C	1.570569	0.411443	0.500078
C57	C	1.145338	-0.487334	0.000029
C58	C	1.645338	0.012666	0.500029
C59	C	1.144212	-0.546739	0.000021
C60	C	1.644212	-0.046739	0.500021
O61	O	1.213524	-0.583181	-0.000011
O62	O	1.713524	-0.083181	0.499989
N63	N	1.061460	-0.569726	0.000016
N64	N	1.561460	-0.069726	0.500016
C65	C	0.979829	-0.533305	0.000008
C66	C	1.479829	-0.033305	0.500008
O67	O	0.909339	-0.558312	0.000002
O68	O	1.409339	-0.058312	0.500002
C69	C	0.980957	-0.473901	0.000009
C70	C	1.480957	0.026099	0.500009
C71	C	1.063714	-0.450917	0.000024
C72	C	1.563714	0.049083	0.500024
C73	C	1.228089	-0.464349	0.000043
C74	C	1.728089	0.035651	0.500043
C75	C	1.229214	-0.404948	0.000052
C76	C	1.729214	0.095052	0.500052
C77	C	1.147590	-0.368531	0.000048
C78	C	1.647590	0.131469	0.500048
C79	C	1.064839	-0.391516	0.000034
C80	C	1.564839	0.108484	0.500034
C81	C	0.899327	-0.437481	-0.000006
C82	C	1.399327	0.062519	0.499994
C83	C	0.900461	-0.378073	-0.000006
C84	C	1.400461	0.121927	0.499994
C85	C	0.983218	-0.355089	0.000009
C86	C	1.483218	0.144911	0.500009
C87	C	0.984341	-0.295698	0.000039
C88	C	1.484341	0.204302	0.500039
N89	N	1.067092	-0.272711	0.000044
N90	N	1.567092	0.227289	0.500044
C91	C	1.148717	-0.309128	0.000048
C92	C	1.648717	0.190872	0.500048
C93	C	0.977469	-0.658058	0.000005
C94	C	1.477469	-0.158058	0.500005
C95	C	0.976340	-0.717461	0.000012
C96	C	1.476340	-0.217461	0.500012
C97	C	1.140723	-0.730890	0.000023
C98	C	1.640723	-0.230890	0.500023
C99	C	1.141851	-0.671486	0.000023
C100	C	1.641851	-0.171486	0.500023
C101	C	1.060220	-0.635070	0.000011
C102	C	1.560220	-0.135070	0.500011
C103	C	1.151075	-0.184380	0.000069
C104	C	1.651075	0.315620	0.500069
C105	C	1.152194	-0.124974	0.000083
C106	C	1.652194	0.375026	0.500083
C107	C	0.987811	-0.111549	0.000067
C108	C	1.487811	0.388451	0.500067
C109	C	0.986692	-0.170951	0.000058
C110	C	1.486692	0.329049	0.500058
C111	C	1.068331	-0.207365	0.000056
C112	C	1.568331	0.292635	0.500056
O113	O	0.915065	-0.259221	0.000067
O114	O	1.415065	0.240779	0.500067
O115	O	1.219196	-0.284112	0.000041
O116	O	1.719196	0.215888	0.500041
C117	C	1.229130	0.074753	0.000058
C118	C	1.729130	0.574753	0.500058
C119	C	1.329200	0.075956	0.000058
C120	C	1.829200	0.575956	0.500058
C121	C	1.056753	0.182895	0.000026
C122	C	1.556753	0.682895	0.500026
C123	C	1.057966	0.246118	0.000011
C124	C	1.557966	0.746118	0.500011
N125	N	1.064245	0.078777	0.237489
N126	N	1.564245	0.578777	0.737489
N127	N	1.064296	0.078779	-0.237390
N128	N	1.564296	0.578779	0.262610
C129	C	1.002641	0.117434	0.710099
C130	C	1.502641	0.617434	1.210099
C131	C	1.125942	0.040124	0.710092
C132	C	1.625942	0.540124	1.210092
C133	C	1.125932	0.040123	0.605074
C134	C	1.625932	0.540123	1.105074
C135	C	1.064276	0.078778	0.552563
C136	C	1.564276	0.578778	1.052563
C137	C	1.002631	0.117435	0.605071
C138	C	1.502631	0.617435	1.105071
C139	C	1.187582	0.001470	0.552558
C140	C	1.687582	0.501470	1.052558
C141	C	1.187575	0.001467	0.447533
C142	C	1.687575	0.501467	0.947533
C143	C	1.125914	0.040120	0.395021
C144	C	1.625914	0.540120	0.895021
C145	C	1.064266	0.078778	0.447535
C146	C	1.564266	0.578778	0.947535
C147	C	1.002610	0.117434	0.395025
C148	C	1.502610	0.617434	0.895025
C149	C	0.940957	0.156089	0.447537
C150	C	1.440957	0.656089	0.947537
C151	C	0.940970	0.156088	0.552559
C152	C	1.440970	0.656088	1.052559
C153	C	1.125901	0.040122	0.289999
C154	C	1.625901	0.540122	0.789999
C155	C	1.002600	0.117434	0.289997
C156	C	1.502600	0.617434	0.789997
H157	H	0.447423	0.223733	-0.000001
H158	H	0.947423	0.723733	0.499999
N159	N	1.254073	-0.040214	0.609208
N160	N	1.754073	0.459786	1.109208
H161	H	1.219847	-0.065467	0.652791
H162	H	1.719847	0.434533	1.152791
H163	H	1.293119	-0.064666	0.559957
H164	H	1.793119	0.435334	1.059957
N165	N	1.318474	-0.380163	0.000065
N166	N	1.818474	0.119837	0.500065
H167	H	1.370004	-0.412253	0.000065
H168	H	1.870004	0.087747	0.500065
H169	H	1.322534	-0.355803	-0.061786
H170	H	1.822534	0.144197	0.438214
N171	N	0.627474	0.239652	-0.000017
N172	N	1.127474	0.739652	0.499983
H173	H	0.576321	0.271983	-0.000026
H174	H	1.076321	0.771983	0.499974
H175	H	0.665995	0.242383	0.061832
H176	H	1.165995	0.742383	0.561832
H177	H	1.176102	0.008652	0.247249
H178	H	1.676102	0.508652	0.747249
H179	H	0.908951	-0.736168	0.000017
H180	H	1.408951	-0.236168	0.500017
H181	H	0.770257	0.175610	0.000007
H182	H	1.270257	0.675610	0.500007
H183	H	1.237775	-0.030008	0.404784
H184	H	1.737775	0.469992	0.904784
N185	N	1.239126	-0.223651	0.000067
N186	N	1.739126	0.276349	0.500067
H187	H	1.291712	-0.200069	0.000080
H188	H	1.791712	0.299931	0.500080
H189	H	1.242234	-0.248598	0.061918
H190	H	1.742234	0.251402	0.561918
H191	H	0.952389	0.148910	0.247249
H192	H	1.452389	0.648910	0.747249
N193	N	0.899777	-0.072266	0.000089
N194	N	1.399777	0.427734	0.500089
H195	H	0.913055	-0.031147	0.000100
H196	H	1.413055	0.468853	0.500100
H197	H	0.863685	-0.079701	-0.061763
H198	H	1.363685	0.420299	0.438237
N199	N	0.302216	0.183730	0.000025
N200	N	0.802216	0.683730	0.500025
H201	H	0.262711	0.185571	-0.061826
H202	H	0.762711	0.685571	0.438174
H203	H	0.262760	0.185539	0.061915
H204	H	0.762760	0.685539	0.561915
N205	N	0.874493	0.197785	0.609199
N206	N	1.374493	0.697785	1.109199
H207	H	0.835431	0.222274	0.560001
H208	H	1.335431	0.722274	1.060001
H209	H	0.834841	0.175940	0.652795
H210	H	1.334841	0.675940	1.152795
H211	H	0.810936	-0.012615	0.000056
H212	H	1.310936	0.487385	0.500056
H213	H	1.207187	-0.760552	0.000023
H214	H	1.707187	-0.260552	0.500023
H215	H	1.219587	-0.106264	0.000098
H216	H	1.719587	0.393736	0.500098
N217	N	0.501061	-0.082088	0.000079
N218	N	1.001061	0.417912	0.500079
H219	H	0.552210	-0.114421	0.000085
H220	H	1.052210	0.385579	0.500085
H221	H	0.462532	-0.084818	0.061930
H222	H	0.962532	0.415182	0.561930
N223	N	0.348817	-0.031912	0.000103
N224	N	0.848817	0.468088	0.500103
H225	H	0.280418	-0.024845	0.000112
H226	H	0.780418	0.475155	0.500112
H227	H	0.370145	-0.054369	-0.061743
H228	H	0.870145	0.445631	0.438257
H229	H	1.294561	-0.493994	0.000043
H230	H	1.794561	0.006006	0.500043
N231	N	0.936140	0.159123	0.766728
N232	N	1.436140	0.659123	1.266728
H233	H	0.945496	0.153258	0.841228
H234	H	1.445496	0.653258	1.341228
H235	H	0.946185	0.199537	0.748359
H236	H	1.446185	0.699537	1.248359
N237	N	0.874454	0.197777	0.390894
N238	N	1.374454	0.697777	0.890894
H239	H	0.835396	0.222264	0.440089
H240	H	1.335396	0.722264	0.940089
H241	H	0.908736	0.222994	0.347307
H242	H	1.408736	0.722994	0.847307
H243	H	1.176144	0.008655	0.752850
H244	H	1.676144	0.508655	1.252850
N245	N	1.231111	-0.646702	0.000037
N246	N	1.731111	-0.146702	0.500037
H247	H	1.235258	-0.622350	-0.061812
H248	H	1.735258	-0.122350	0.438188
H249	H	1.235181	-0.622389	0.061929
H250	H	1.735181	-0.122389	0.561929
H251	H	0.681121	-0.066179	0.000072
H252	H	1.181121	0.433821	0.500072
N253	N	0.889424	-0.618777	0.000009
N254	N	1.389424	-0.118777	0.500009
H255	H	0.853299	-0.626174	-0.061842
H256	H	1.353299	-0.126174	0.438158
H257	H	0.853366	-0.626206	0.061900
H258	H	1.353366	-0.126206	0.561900
N259	N	0.810060	-0.462253	-0.000016
N260	N	1.310060	0.037747	0.499984
H261	H	0.774339	-0.448966	-0.061871
H262	H	1.274339	0.051034	0.438129
H263	H	0.821783	-0.505408	0.000023
H264	H	1.321783	-0.005408	0.500023
N265	N	0.812415	-0.338796	-0.000025
N266	N	1.312415	0.161204	0.499975
H267	H	0.759824	-0.362374	-0.000035
H268	H	1.259824	0.137626	0.499965
H269	H	0.809287	-0.313863	0.061830
H270	H	1.309287	0.186137	0.561830
N271	N	0.897436	-0.195745	0.000056
N272	N	1.397436	0.304255	0.500056
H273	H	0.845899	-0.163659	0.000058
H274	H	1.345899	0.336341	0.500058
H275	H	0.893396	-0.220088	-0.061805
H276	H	1.393396	0.279912	0.438195
