data_functionalizedCrystal
_audit_creation_method	'MofGen! by Chris Wilmer'
_symmetry_space_group_name_H-M	'P1'
_symmetry_Int_Tables_number	1
_symmetry_cell_setting	triclinic
loop_
_symmetry_equiv_pos_as_xyz
  x,y,z
_cell_length_a	18.101398
_cell_length_b	16.959454
_cell_length_c	16.959447
_cell_angle_alpha	89.973264
_cell_angle_beta	90.020773
_cell_angle_gamma	89.984658
loop_
_atom_site_label
_atom_site_type_symbol
_atom_site_fract_x
_atom_site_fract_y
_atom_site_fract_z
Zn1	Zn	1.132152	0.314766	0.447064
Zn2	Zn	1.132079	0.446958	0.314894
Zn3	Zn	1.008318	0.314787	0.314887
Zn4	Zn	1.008285	0.446895	0.447018
O5	O	1.070209	0.380851	0.380966
O6	O	1.235775	0.332319	0.429554
O7	O	1.115646	0.429460	0.204282
O8	O	1.024789	0.204173	0.332437
O9	O	1.235722	0.429440	0.332449
O10	O	1.115769	0.204158	0.429547
O11	O	1.024719	0.332355	0.204277
O12	O	0.904681	0.332294	0.332392
O13	O	1.024733	0.429333	0.557635
O14	O	0.904657	0.429353	0.429468
O15	O	1.115737	0.332258	0.557669
O16	O	1.115613	0.557561	0.332404
O17	O	1.024663	0.557514	0.429475
C18	C	1.070147	0.586218	0.380952
C19	C	1.070188	0.674074	0.380973
C20	C	0.877798	0.380819	0.380925
C21	C	0.795484	0.380825	0.380926
C22	C	1.070240	0.380786	0.587134
C23	C	1.070253	0.380758	0.674991
C24	C	0.496393	0.380874	0.380992
C25	C	0.527709	0.319501	0.320213
C26	C	0.613327	0.319666	0.319953
C27	C	0.644776	0.380849	0.380959
C28	C	0.613674	0.464114	0.358205
C29	C	0.528029	0.463773	0.357782
C30	C	0.527999	0.359705	0.464669
C31	C	0.613650	0.357851	0.464212
C32	C	0.728635	0.380840	0.380942
C33	C	0.412534	0.380889	0.381007
C34	C	1.263371	0.380884	0.381008
C35	C	1.345685	0.380898	0.381026
C36	C	1.070291	0.174683	0.380997
C37	C	1.070326	0.086827	0.381010
C38	C	1.022919	1.045556	0.431505
C39	C	1.117704	1.045544	0.330507
C40	C	1.117679	0.962998	0.330500
C41	C	1.070272	0.921727	0.380995
C42	C	1.022890	0.963002	0.431498
C43	C	1.165053	0.921717	0.279992
C44	C	1.165029	0.839166	0.279982
C45	C	1.117625	0.797894	0.330482
C46	C	1.070243	0.839174	0.380988
C47	C	1.022836	0.797903	0.431483
C48	C	0.975456	0.839181	0.481993
C49	C	0.975487	0.921730	0.481998
C50	C	1.117595	0.715345	0.330478
C51	C	1.022807	0.715349	0.431476
C52	C	1.070221	0.380860	0.175600
C53	C	1.070351	0.380665	0.087743
C54	C	1.022959	0.431217	1.046451
C55	C	1.117723	0.330132	1.046482
C56	C	1.117703	0.330149	0.963936
C57	C	1.070312	0.380701	0.922644
C58	C	1.022940	0.431237	0.963898
C59	C	1.165079	0.279620	0.922676
C60	C	1.165062	0.279635	0.840125
C61	C	1.117666	0.330184	0.798831
C62	C	1.070292	0.380721	0.840090
C63	C	1.022900	0.431274	0.798798
C64	C	0.975522	0.481808	0.840056
C65	C	0.975544	0.481786	0.922604
C66	C	1.117644	0.330206	0.716283
C67	C	1.022881	0.431294	0.716245
H68	H	0.507127	0.257568	0.334317
H69	H	1.203640	0.238487	0.806540
H70	H	0.984282	0.472453	0.682630
O71	O	0.637801	0.284742	0.484789
C72	C	0.637021	0.181879	0.582849
C73	C	0.609603	0.264676	0.559642
H74	H	0.614248	0.165636	0.643376
H75	H	0.617195	0.137073	0.537443
H76	H	0.699971	0.181655	0.584926
H77	H	0.546656	0.264977	0.557573
H78	H	0.629485	0.309446	0.605054
H79	H	0.936939	0.522971	0.806425
H80	H	0.634044	0.511067	0.401089
H81	H	1.156167	0.681740	0.289350
H82	H	0.507313	0.511049	0.400121
H83	H	1.203608	0.805562	0.238856
H84	H	1.203668	0.238468	0.956302
O85	O	0.929595	0.530847	0.962803
C86	C	0.887600	0.575578	1.089963
C87	C	0.939685	0.519992	1.044533
H88	H	0.895728	0.566809	1.156049
H89	H	0.900574	0.639339	1.073779
H90	H	0.827894	0.561698	1.073684
H91	H	0.999408	0.533800	1.060787
H92	H	0.926647	0.456248	1.060720
O93	O	0.504031	0.485206	0.284859
C94	C	0.399078	0.509394	0.200808
C95	C	0.426149	0.485129	0.283434
H96	H	0.336108	0.509323	0.199624
H97	H	0.420238	0.571024	0.186306
H98	H	0.420856	0.465742	0.155304
H99	H	0.404381	0.528727	0.328992
H100	H	0.404996	0.423481	0.297870
O101	O	0.638519	0.246017	0.336840
C102	C	0.710031	0.134617	0.292683
C103	C	0.681564	0.218031	0.273477
H104	H	0.744826	0.111959	0.241459
H105	H	0.745218	0.136640	0.348411
H106	H	0.661072	0.093474	0.302382
H107	H	0.730478	0.259221	0.263738
H108	H	0.646355	0.215946	0.217768
O109	O	0.639213	0.486061	0.286058
C110	C	0.639739	0.585699	0.184720
C111	C	0.610757	0.560943	0.266431
H112	H	0.616732	0.646236	0.168819
H113	H	0.702658	0.588372	0.186030
H114	H	0.621242	0.540781	0.138791
H115	H	0.629199	0.605836	0.312405
H116	H	0.547841	0.558247	0.265055
H117	H	0.984205	0.681751	0.472598
H118	H	0.506415	0.300044	0.485358
H119	H	0.936912	0.955346	0.523119
O120	O	0.929340	0.799210	0.531071
C121	C	0.835370	0.807912	0.631297
C122	C	0.887542	0.853282	0.575743
H123	H	0.801574	0.851610	0.667440
H124	H	0.796604	0.769335	0.595000
H125	H	0.869351	0.769195	0.672618
H126	H	0.853621	0.892042	0.534411
H127	H	0.926310	0.891810	0.612089
O128	O	0.976920	1.085770	0.480493
C129	C	0.934988	1.212942	0.525311
C130	C	0.987107	1.167497	0.469780
H131	H	0.943217	1.279026	0.516680
H132	H	0.875259	1.196820	0.511362
H133	H	0.947940	1.196614	0.589049
H134	H	0.974222	1.183800	0.406022
H135	H	1.046820	1.183623	0.483796
O136	O	0.501922	0.335924	0.246689
C137	C	0.432371	0.289637	0.134732
C138	C	0.461516	0.270914	0.217992
H139	H	0.399710	0.237082	0.111499
H140	H	0.394953	0.343658	0.137267
H141	H	0.480926	0.302018	0.093767
H142	H	0.413007	0.258496	0.259003
H143	H	0.498956	0.216914	0.215395
O144	O	1.163701	1.085753	0.281503
C145	C	1.205652	1.212923	0.236650
C146	C	1.153551	1.167481	0.292220
H147	H	1.197453	1.279007	0.245283
H148	H	1.265384	1.196729	0.250556
H149	H	1.192654	1.196665	0.172921
H150	H	1.166483	1.183714	0.355967
H151	H	1.093835	1.183678	0.278245
O152	O	0.977008	0.480278	1.086645
C153	C	0.934996	0.525013	1.213798
C154	C	0.987086	0.469425	1.168377
H155	H	0.943115	0.516245	1.279886
H156	H	0.947973	0.588773	1.197615
H157	H	0.875293	0.511134	1.197511
H158	H	1.046807	0.483233	1.184640
H159	H	0.974046	0.405681	1.184563
O160	O	1.211012	0.961928	0.230950
C161	C	1.252882	1.089099	0.186015
C162	C	1.200847	1.043655	0.241654
H163	H	1.244670	1.155183	0.194638
H164	H	1.312631	1.072931	0.199862
H165	H	1.239828	1.072819	0.122305
H166	H	1.213834	1.059911	0.305383
H167	H	1.141113	1.059827	0.227739
H168	H	1.156221	0.289064	0.682695
H169	H	1.156311	0.288979	1.080107
H170	H	0.633787	0.333661	0.257949
H171	H	0.635059	0.399293	0.511924
H172	H	0.507748	0.404406	0.509955
