data_functionalizedCrystal
_audit_creation_method	'MofGen! by Chris Wilmer'
_symmetry_space_group_name_H-M	'P1'
_symmetry_Int_Tables_number	1
_symmetry_cell_setting	triclinic
loop_
_symmetry_equiv_pos_as_xyz
  x,y,z
_cell_length_a	14.908979
_cell_length_b	12.759394
_cell_length_c	14.908308
_cell_angle_alpha	93.270151
_cell_angle_beta	96.371071
_cell_angle_gamma	93.315362
loop_
_atom_site_label
_atom_site_type_symbol
_atom_site_fract_x
_atom_site_fract_y
_atom_site_fract_z
Zn1	Zn	1.354275	-0.356192	-0.432052
Zn2	Zn	1.362928	-0.521145	-0.280706
Zn3	Zn	1.211648	-0.356243	-0.289431
Zn4	Zn	1.202901	-0.542595	-0.440738
O5	O	1.282938	-0.444044	-0.360732
O6	O	1.482085	-0.369076	-0.404689
O7	O	1.350143	-0.490315	-0.155202
O8	O	1.230607	-0.209213	-0.308367
O9	O	1.488442	-0.490266	-0.293495
O10	O	1.335395	-0.209176	-0.413149
O11	O	1.238998	-0.369161	-0.161612
O12	O	1.083826	-0.389961	-0.316789
O13	O	1.215699	-0.526824	-0.566248
O14	O	1.077400	-0.526873	-0.427954
O15	O	1.326913	-0.389875	-0.559866
O16	O	1.341661	-0.671013	-0.301918
O17	O	1.224090	-0.686773	-0.419493
C18	C	1.047771	-0.460751	-0.374262
C19	C	0.947164	-0.467925	-0.380071
C20	C	1.282889	-0.717014	-0.360720
C21	C	1.282949	-0.833788	-0.360740
C22	C	0.802047	-0.549414	-0.446033
C23	C	0.896576	-0.542675	-0.440582
C24	C	0.903217	-0.399912	-0.325005
C25	C	0.808689	-0.406652	-0.330456
C26	C	0.758107	-0.481404	-0.390973
C27	C	0.663576	-0.488138	-0.396428
C28	C	0.670220	-0.345382	-0.280847
C29	C	0.764748	-0.338642	-0.275396
C30	C	1.391972	-0.833604	-0.469942
C31	C	1.446512	-0.888371	-0.524549
C32	C	1.446565	-0.998090	-0.524565
C33	C	1.392069	-1.053045	-0.469971
C34	C	1.337530	-0.998278	-0.415365
C35	C	1.337485	-0.888556	-0.415353
C36	C	1.228503	-0.998463	-0.306169
C37	C	1.228454	-0.888743	-0.306146
C38	C	1.174008	-1.053417	-0.251575
C39	C	1.119472	-0.998650	-0.196963
C40	C	1.119422	-0.888924	-0.196948
C41	C	1.173914	-0.833976	-0.251540
C42	C	1.519024	-0.427272	-0.347150
C43	C	1.619629	-0.420125	-0.341362
C44	C	1.269365	-0.460737	-0.596817
C45	C	1.263581	-0.467850	-0.697422
C46	C	1.283011	-0.170008	-0.360762
C47	C	1.283043	-0.053230	-0.360775
C48	C	1.368516	-0.338588	-0.879827
C49	C	1.363085	-0.345268	-0.974354
C50	C	1.247282	-0.487884	-0.981007
C51	C	1.252713	-0.481205	-0.886479
C52	C	1.313334	-0.406555	-0.835892
C53	C	1.318770	-0.399880	-0.741363
C54	C	1.202963	-0.542492	-0.748017
C55	C	1.197531	-0.549172	-0.842545
C56	C	1.296511	-0.427336	-0.125562
C57	C	1.302470	-0.419914	-0.024947
H58	H	0.760862	-0.610272	-0.495316
H59	H	1.417880	-0.277810	-0.838638
H60	H	1.391944	-0.744263	-0.469925
H61	H	1.148174	-0.609947	-0.883745
O62	O	0.614391	-0.560609	-0.455308
C63	C	0.500616	-0.591215	-0.583609
C64	C	0.556271	-0.509028	-0.517002
H65	H	0.453599	-0.549545	-0.633493
H66	H	0.548216	-0.638659	-0.622094
H67	H	0.458783	-0.646301	-0.544503
H68	H	0.598109	-0.453873	-0.556039
H69	H	0.508622	-0.461661	-0.478517
H70	H	0.944418	-0.339060	-0.275729
O71	O	0.939115	-0.608786	-0.494163
C72	C	0.922551	-0.751139	-0.609338
C73	C	0.874260	-0.676313	-0.548723
H74	H	0.870137	-0.805768	-0.653450
H75	H	0.964063	-0.703240	-0.654246
H76	H	0.969216	-0.799853	-0.565135
H77	H	0.827549	-0.627582	-0.592855
H78	H	0.832805	-0.724273	-0.503808
O79	O	0.814022	-0.266060	-0.216692
C80	C	0.962593	-0.192446	-0.157034
C81	C	0.906904	-0.274681	-0.223569
H82	H	1.037699	-0.199403	-0.162557
H83	H	0.943164	-0.110188	-0.174126
H84	H	0.948137	-0.206915	-0.085107
H85	H	0.921331	-0.260310	-0.295518
H86	H	0.926341	-0.356910	-0.206398
H87	H	0.634433	-0.289999	-0.236016
O88	O	1.173787	-0.727392	-0.251391
C89	C	1.113846	-0.570042	-0.191508
C90	C	1.113919	-0.690745	-0.191569
H91	H	1.065434	-0.540378	-0.143162
H92	H	1.184992	-0.533824	-0.168688
H93	H	1.091011	-0.546571	-0.262691
H94	H	1.136714	-0.714310	-0.120409
H95	H	1.042762	-0.726896	-0.214440
O96	O	1.499339	-0.835047	-0.577715
C97	C	1.534326	-0.809190	-0.729182
C98	C	1.474428	-0.869633	-0.669076
H99	H	1.514220	-0.837145	-0.803058
H100	H	1.524912	-0.721357	-0.719870
H101	H	1.608241	-0.824371	-0.709099
H102	H	1.400491	-0.854538	-0.689121
H103	H	1.483919	-0.957446	-0.678396
H104	H	1.368131	-0.339098	-0.700176
H105	H	1.392109	-1.142385	-0.469998
H106	H	1.408018	-0.289919	-1.010122
O107	O	1.066456	-1.051873	-0.143914
C108	C	0.958352	-1.040483	-0.035556
C109	C	1.018332	-0.980075	-0.095608
H110	H	0.919443	-0.982459	0.003529
H111	H	0.908570	-1.098148	-0.079773
H112	H	1.002696	-1.085568	0.014084
H113	H	0.974060	-0.934929	-0.145256
H114	H	1.068120	-0.922473	-0.051334
O115	O	1.499404	-1.051364	-0.577712
C116	C	1.504510	-1.183029	-0.699197
C117	C	1.444566	-1.122752	-0.639085
H118	H	1.460200	-1.240776	-0.748819
H119	H	1.543431	-1.124970	-0.738287
H120	H	1.554294	-1.228018	-0.654934
H121	H	1.394731	-1.077761	-0.683282
H122	H	1.405709	-1.180863	-0.599989
O123	O	1.188321	-0.560421	-1.030020
C124	C	1.074070	-0.701215	-1.026653
C125	C	1.140788	-0.619101	-0.971037
H126	H	1.035636	-0.748695	-0.978988
H127	H	1.024151	-0.659519	-1.073611
H128	H	1.113084	-0.756274	-1.068540
H129	H	1.101850	-0.564019	-0.929096
H130	H	1.190706	-0.660866	-0.924136
H131	H	1.075005	-0.844339	-0.152485
O132	O	1.149391	-0.608410	-0.705197
C133	C	1.106484	-0.661381	-0.562519
C134	C	1.167183	-0.586646	-0.610898
H135	H	1.120861	-0.643826	-0.486270
H136	H	1.032417	-0.649432	-0.585237
H137	H	1.121282	-0.746272	-0.580243
H138	H	1.152465	-0.501727	-0.593198
H139	H	1.241231	-0.598686	-0.588177
H140	H	1.174051	-1.142757	-0.251596
