data_functionalizedCrystal
_audit_creation_method	'MofGen! by Chris Wilmer'
_symmetry_space_group_name_H-M	'P1'
_symmetry_Int_Tables_number	1
_symmetry_cell_setting	triclinic
loop_
_symmetry_equiv_pos_as_xyz
  x,y,z
_cell_length_a	14.853569
_cell_length_b	13.330367
_cell_length_c	16.992695
_cell_angle_alpha	90.004919
_cell_angle_beta	92.848106
_cell_angle_gamma	90.004944
loop_
_atom_site_label
_atom_site_type_symbol
_atom_site_fract_x
_atom_site_fract_y
_atom_site_fract_z
O1	O	1.203597	0.083378	-0.102374
O2	O	0.941999	0.083391	-0.114568
O3	O	1.071749	0.083377	0.005673
O4	O	1.073846	0.083392	-0.222615
O5	O	1.071729	-0.083470	0.005654
O6	O	0.941979	-0.083456	-0.114587
O7	O	1.203577	-0.083469	-0.102393
Cu8	Cu	1.072776	-0.098697	-0.108492
Cu9	Cu	1.072800	0.098619	-0.108469
O10	O	1.073827	-0.083455	-0.222634
C11	C	0.908361	-0.000031	-0.114025
C12	C	0.808160	-0.000027	-0.112369
N13	N	1.072766	-0.237479	-0.108507
C14	C	0.766686	-0.000028	-0.040166
C15	C	0.755483	-0.000030	-0.183015
C16	C	0.661339	-0.000031	-0.181462
C17	C	0.619864	-0.000032	-0.109259
C18	C	0.672533	-0.000033	-0.038609
C19	C	0.608662	-0.000041	-0.252109
C20	C	0.514513	-0.000043	-0.250558
C21	C	0.473036	-0.000038	-0.178354
C22	C	0.525712	-0.000037	-0.107702
C23	C	0.484237	-0.000038	-0.035499
C24	C	0.536911	-0.000030	0.035153
C25	C	0.631057	-0.000027	0.033594
C26	C	0.378890	-0.000041	-0.176795
C27	C	0.390084	-0.000042	-0.033943
C28	C	1.130918	-0.710090	-0.156103
C29	C	1.014706	-0.710081	-0.060804
C30	C	1.014693	-0.605062	-0.060816
C31	C	1.072795	-0.552553	-0.108471
C32	C	1.130910	-0.605062	-0.156114
C33	C	0.956587	-0.552546	-0.013168
C34	C	0.956573	-0.447521	-0.013178
C35	C	1.014671	-0.395010	-0.060838
C36	C	1.072787	-0.447525	-0.108483
C37	C	1.130889	-0.395016	-0.156138
C38	C	1.189001	-0.447529	-0.203789
C39	C	1.189008	-0.552551	-0.203774
C40	C	1.014664	-0.289988	-0.060852
C41	C	1.130880	-0.289987	-0.156150
C42	C	1.237215	-0.000044	-0.102936
C43	C	1.337415	-0.000042	-0.104592
C44	C	1.069041	-0.000047	0.034879
C45	C	1.060991	-0.000046	0.121932
N46	N	1.072816	0.237401	-0.108447
C47	C	1.076535	-0.000029	-0.251840
C48	C	1.084585	-0.000023	-0.338893
C49	C	1.138666	-0.000051	0.172087
C50	C	1.131096	-0.000041	0.253882
C51	C	1.045851	-0.000033	0.285520
C52	C	0.968169	-0.000026	0.235358
C53	C	0.975740	-0.000028	0.153565
C54	C	1.014474	-0.000018	0.529152
C55	C	1.006910	-0.000019	0.610952
C56	C	1.169837	-0.000032	0.629470
C57	C	1.177400	-0.000040	0.547675
C58	C	1.099719	-0.000027	0.497520
N59	N	1.038111	-0.000027	0.369127
N60	N	1.107459	-0.000027	0.413914
H61	H	0.356323	-0.000038	0.024854
N62	N	0.893891	-0.390880	0.038202
H63	H	0.930373	-0.347283	0.076515
H64	H	0.857096	-0.440142	0.068341
N65	N	0.876223	-0.000025	0.269474
H66	H	0.841933	0.061827	0.251196
H67	H	0.883285	-0.000067	0.328895
H68	H	0.967407	-0.752840	-0.022000
H69	H	0.503130	-0.000025	0.093941
N70	N	1.253618	-0.000047	0.683564
H71	H	1.235891	-0.000045	0.740181
H72	H	1.290523	0.061802	0.673315
H73	H	0.673952	-0.000022	0.091116
N74	N	0.800218	-0.000028	-0.260884
H75	H	0.781391	0.061823	-0.291835
H76	H	0.781367	-0.061918	-0.291783
H77	H	0.951220	-0.000008	0.488325
H78	H	0.912488	-0.000024	0.112728
N79	N	1.230613	-0.000065	0.137971
H80	H	1.237396	0.061781	0.104448
H81	H	1.237317	-0.061961	0.104486
H82	H	0.967353	-0.247236	-0.022054
N83	N	1.193555	-0.233363	-0.207550
H84	H	1.235225	-0.189776	-0.173483
H85	H	1.157000	-0.189861	-0.245867
N86	N	1.269351	-0.000046	0.513566
H87	H	1.303652	0.061804	0.531856
H88	H	1.262296	-0.000087	0.454144
N89	N	0.457679	-0.000052	-0.326743
H90	H	0.418367	-0.061906	-0.329267
H91	H	0.498277	-0.000017	-0.372690
N92	N	1.214874	-0.000052	0.307979
H93	H	1.270025	-0.000066	0.275526
H94	H	1.215266	-0.061904	0.342315
N95	N	1.193602	-0.766724	-0.207485
H96	H	1.230408	-0.717520	-0.237672
H97	H	1.157059	-0.810316	-0.245755
N98	N	0.914960	-0.000009	0.645074
H99	H	0.880674	0.061848	0.626801
H100	H	0.922031	-0.000052	0.704495
N101	N	0.823485	-0.000022	0.036038
H102	H	0.862798	0.061831	0.038584
H103	H	0.862740	-0.061911	0.038529
N104	N	0.653392	-0.000045	-0.329981
H105	H	0.721027	-0.000035	-0.320244
H106	H	0.634491	0.061804	-0.360896
N107	N	0.322087	-0.000049	-0.252994
H108	H	0.282780	0.061800	-0.255534
H109	H	0.282827	-0.061942	-0.255489
N110	N	1.251675	-0.390890	-0.255180
H111	H	1.242851	-0.316392	-0.247950
H112	H	1.237970	-0.409255	-0.312184
H113	H	0.909291	-0.595306	0.025637
N114	N	1.251686	-0.609185	-0.255162
H115	H	1.215199	-0.652782	-0.293473
H116	H	1.293349	-0.652679	-0.221028
