data_functionalizedCrystal
_audit_creation_method	'MofGen! by Chris Wilmer'
_symmetry_space_group_name_H-M	'P1'
_symmetry_Int_Tables_number	1
_symmetry_cell_setting	triclinic
loop_
_symmetry_equiv_pos_as_xyz
  x,y,z
_cell_length_a	6.817900
_cell_length_b	12.908942
_cell_length_c	16.305550
_cell_angle_alpha	95.699267
_cell_angle_beta	103.455250
_cell_angle_gamma	100.860556
loop_
_atom_site_label
_atom_site_type_symbol
_atom_site_fract_x
_atom_site_fract_y
_atom_site_fract_z
V1	V	-4.012758	-0.146740	-0.262559
O2	O	-4.014405	0.006136	-0.258044
O3	O	-3.951034	-0.290081	-0.260299
O4	O	-3.964335	-0.144885	-0.377282
O5	O	-4.001012	-0.140065	-0.140251
V6	V	-4.498116	-0.128407	-0.247987
O7	O	-4.269993	-0.186956	-0.294525
O8	O	-4.691079	-0.088192	-0.216020
O9	O	-4.336633	0.014934	-0.250247
O10	O	-4.613866	-0.281284	-0.252502
O11	O	-4.627258	-0.135082	-0.370295
O12	O	-4.323332	-0.130263	-0.133264
C13	C	-3.792794	-0.325012	-0.256037
C14	C	-3.823614	-0.442198	-0.254954
C15	C	-4.244793	-0.673172	-0.261320
C16	C	-4.273760	-0.783279	-0.260303
C17	C	-3.910523	-0.772520	-0.251907
C18	C	-3.881555	-0.662414	-0.252925
C19	C	-4.048697	-0.612744	-0.257630
C20	C	-4.019724	-0.502634	-0.258642
C21	C	-3.656493	-0.491879	-0.250252
C22	C	-3.685460	-0.601985	-0.249235
C23	C	-3.809760	-0.139798	-0.405260
C24	C	-3.851364	-0.139230	-0.499043
C25	C	-4.002653	-0.137027	-0.839796
C26	C	-3.767206	-0.130486	-0.798888
C27	C	-3.723918	-0.131513	-0.701390
C28	C	-3.927595	-0.138119	-0.670745
C29	C	-4.085059	-0.242229	-0.721036
C30	C	-4.126977	-0.241640	-0.818588
C31	C	-4.066300	-0.040290	-0.794264
C32	C	-4.018446	-0.039466	-0.696424
C33	C	-3.885188	-0.138740	-0.575205
C34	C	-4.045069	-0.136413	-0.935337
C35	C	-4.158214	0.049859	-0.254506
C36	C	-4.106633	0.167043	-0.255595
C37	C	-4.141249	-0.135353	-0.105281
C38	C	-4.078884	-0.135916	-0.011497
H39	H	-4.380880	-0.632728	-0.265139
H40	H	-3.549387	-0.642443	-0.245407
Br41	Br	-3.390346	-0.409862	-0.245244
Br42	Br	-4.246554	-0.435224	-0.265025
Br43	Br	-3.683723	-0.839952	-0.245536
Br44	Br	-4.539901	-0.865289	-0.265317
H45	H	-3.604301	-0.056659	-0.666608
Br46	Br	-3.601837	-0.005015	-0.819737
H47	H	-3.715728	-0.199987	-0.830177
Br48	Br	-3.981459	-0.364325	-0.692623
Br49	Br	-4.055522	-0.363699	-0.868838
H50	H	-4.237425	-0.250828	-0.702096
Br51	Br	-4.352489	-0.046729	-0.838939
H52	H	-3.904477	0.037539	-0.662293
Br53	Br	-3.602447	-0.248696	-0.673849
Br54	Br	-4.415304	-0.256832	-0.865195
H55	H	-3.982149	0.038593	-0.807885
H56	H	-4.165853	-0.038171	-0.675080
