data_functionalizedCrystal
_audit_creation_method	'MofGen! by Chris Wilmer'
_symmetry_space_group_name_H-M	'P1'
_symmetry_Int_Tables_number	1
_symmetry_cell_setting	triclinic
loop_
_symmetry_equiv_pos_as_xyz
  x,y,z
_cell_length_a	21.295417
_cell_length_b	21.295419
_cell_length_c	21.295420
_cell_angle_alpha	89.992868
_cell_angle_beta	90.018953
_cell_angle_gamma	89.952934
loop_
_atom_site_label
_atom_site_type_symbol
_atom_site_fract_x
_atom_site_fract_y
_atom_site_fract_z
Zn1	Zn	-0.250420	-0.962243	0.355924
Zn2	Zn	0.249580	-0.462243	0.855924
Zn3	Zn	-0.355667	-0.962179	0.250649
Zn4	Zn	0.144333	-0.462179	0.750649
Zn5	Zn	-0.250446	-0.856999	0.250667
Zn6	Zn	0.249554	-0.356999	0.750667
Zn7	Zn	-0.355685	-0.856935	0.355879
Zn8	Zn	0.144315	-0.356935	0.855879
O9	O	-0.303054	-0.909589	0.303280
O10	O	0.196946	-0.409589	0.803280
O11	O	-0.264362	-1.050324	0.341969
O12	O	0.235638	-0.550324	0.841969
O13	O	-0.341712	-0.948226	0.162562
O14	O	0.158288	-0.448226	0.662562
O15	O	-0.162353	-0.871014	0.264656
O16	O	0.337647	-0.371014	0.764656
O17	O	-0.341687	-1.050276	0.264625
O18	O	0.158313	-0.550276	0.764625
O19	O	-0.162334	-0.948336	0.341987
O20	O	0.337666	-0.448336	0.841987
O21	O	-0.264406	-0.870951	0.162575
O22	O	0.235594	-0.370951	0.662575
O23	O	-0.264425	-0.768901	0.264613
O24	O	0.235575	-0.268901	0.764613
O25	O	-0.341719	-0.870905	0.443975
O26	O	0.158281	-0.370905	0.943975
O27	O	-0.341744	-0.768854	0.341912
O28	O	0.158256	-0.268854	0.841912
O29	O	-0.264380	-0.948274	0.444007
O30	O	0.235620	-0.448274	0.944007
O31	O	-0.443758	-0.948164	0.264582
O32	O	0.056242	-0.448164	0.764582
O33	O	-0.443772	-0.870842	0.341894
O34	O	0.056228	-0.370842	0.841894
C35	C	-0.303089	-0.746037	0.303260
C36	C	0.196911	-0.246037	0.803260
C37	C	-0.303120	-0.676069	0.303266
C38	C	0.196880	-0.176069	0.803266
C39	C	-0.262924	-0.643250	0.343602
C40	C	0.237076	-0.143250	0.843602
C41	C	-0.262909	-0.577507	0.343603
C42	C	0.237091	-0.077507	0.843603
C43	C	-0.303101	-0.544587	0.303276
C44	C	0.196899	-0.044587	0.803276
C45	C	-0.343300	-0.577414	0.262933
C46	C	0.156700	-0.077414	0.762933
C47	C	-0.343309	-0.643156	0.262928
C48	C	0.156691	-0.143156	0.762928
N49	N	-0.358181	-0.441313	0.298355
N50	N	0.141819	0.058687	0.798355
N51	N	-0.358171	-0.378861	0.298363
N52	N	0.141829	0.121139	0.798363
C53	C	-0.303075	-0.346512	0.303287
C54	C	0.196925	0.153488	0.803287
N55	N	-0.247988	-0.378973	0.308215
N56	N	0.252012	0.121027	0.808215
N57	N	-0.248000	-0.441431	0.308210
N58	N	0.252000	0.058569	0.808210
C59	C	-0.303095	-0.473301	0.303277
C60	C	0.196905	0.026699	0.803277
C61	C	-0.262859	-0.242407	0.343627
C62	C	0.237141	0.257593	0.843627
C63	C	-0.262843	-0.176663	0.343624
C64	C	0.237157	0.323337	0.843624
C65	C	-0.343240	-0.176572	0.262957
C66	C	0.156760	0.323428	0.762957
C67	C	-0.343250	-0.242314	0.262956
C68	C	0.156750	0.257686	0.762956
C69	C	-0.303061	-0.275228	0.303295
C70	C	0.196939	0.224772	0.803295
C71	C	-0.466606	-0.909506	0.303245
C72	C	0.033394	-0.409506	0.803245
C73	C	-0.536574	-0.909529	0.303251
C74	C	-0.036574	-0.409529	0.803251
C75	C	-0.569413	-0.949826	0.263036
C76	C	-0.069413	-0.449826	0.763036
C77	C	-0.635155	-0.949855	0.263050
C78	C	-0.135155	-0.449855	0.763050
C79	C	-0.668056	-0.909577	0.303273
C80	C	-0.168056	-0.409577	0.803273
C81	C	-0.635210	-0.869277	0.343496
C82	C	-0.135210	-0.369277	0.843496
C83	C	-0.569469	-0.869253	0.343485
C84	C	-0.069469	-0.369253	0.843485
N85	N	-0.771339	-0.854508	0.308065
N86	N	-0.271339	-0.354508	0.808065
N87	N	-0.833791	-0.854532	0.308072
N88	N	-0.333791	-0.354532	0.808072
C89	C	-0.866131	-0.909647	0.303309
C90	C	-0.366131	-0.409647	0.803309
N91	N	-0.833661	-0.964737	0.298527
N92	N	-0.333661	-0.464737	0.798527
N93	N	-0.771204	-0.964712	0.298517
N94	N	-0.271204	-0.464712	0.798517
C95	C	-0.739342	-0.909598	0.303289
C96	C	-0.239342	-0.409598	0.803289
C97	C	-0.970255	-0.949980	0.263107
C98	C	-0.470255	-0.449980	0.763107
C99	C	-1.035999	-0.950010	0.263125
C100	C	-0.535999	-0.450010	0.763125
C101	C	-1.036053	-0.869426	0.343568
C102	C	-0.536053	-0.369426	0.843568
C103	C	-0.970310	-0.869401	0.343553
C104	C	-0.470310	-0.369401	0.843553
C105	C	-0.937415	-0.909677	0.303319
C106	C	-0.437415	-0.409677	0.803319
C107	C	-0.138864	-0.909689	0.303329
C108	C	0.361136	-0.409689	0.803329
C109	C	-0.068896	-0.909732	0.303349
C110	C	0.431104	-0.409732	0.803349
C111	C	-0.303049	-0.909589	0.467470
C112	C	0.196951	-0.409589	0.967470
C113	C	-0.303046	-0.909589	0.537438
C114	C	0.196954	-0.409589	1.037438
C115	C	-0.303027	-0.073779	0.303297
C116	C	0.196973	0.426221	0.803297
C117	C	-0.303035	-0.143747	0.303296
C118	C	0.196965	0.356253	0.803296
C119	C	-0.262783	-0.949847	1.036914
C120	C	0.237217	-0.449847	1.536914
C121	C	-0.262784	-0.949854	0.971171
C122	C	0.237216	-0.449854	1.471171
C123	C	-0.303049	-0.909574	0.938278
C124	C	0.196951	-0.409574	1.438278
C125	C	-0.343326	-0.869295	0.971132
C126	C	0.156674	-0.369295	1.471132
C127	C	-0.343328	-0.869294	1.036873
C128	C	0.156672	-0.369294	1.536873
N129	N	-0.307886	-0.854470	0.835048
N130	N	0.192114	-0.354470	1.335048
N131	N	-0.307881	-0.854473	0.772597
N132	N	0.192119	-0.354473	1.272597
C133	C	-0.303046	-0.909575	0.740203
C134	C	0.196954	-0.409575	1.240203
N135	N	-0.298205	-0.964676	0.772620
N136	N	0.201795	-0.464676	1.272620
N137	N	-0.298207	-0.964672	0.835077
N138	N	0.201793	-0.464672	1.335077
C139	C	-0.303051	-0.909571	0.866992
C140	C	0.196949	-0.409571	1.366992
C141	C	-0.262775	-0.949862	0.636071
C142	C	0.237225	-0.449862	1.136071
C143	C	-0.262781	-0.949869	0.570327
C144	C	0.237219	-0.449869	1.070327
C145	C	-0.343319	-0.869305	0.570289
C146	C	0.156681	-0.369305	1.070289
C147	C	-0.343317	-0.869303	0.636031
C148	C	0.156683	-0.369303	1.136031
C149	C	-0.303042	-0.909580	0.668919
C150	C	0.196958	-0.409580	1.168919
C151	C	-0.303068	-0.909581	1.139728
C152	C	0.196932	-0.409581	1.639728
C153	C	-0.303053	-0.909572	1.069760
C154	C	0.196947	-0.409572	1.569760
H155	H	-0.230130	-0.269207	0.376468
H156	H	0.269870	0.230793	0.876468
C157	C	-0.387533	-0.679258	0.218557
C158	C	0.112467	-0.179258	0.718557
N159	N	-0.420844	-0.706452	0.185138
N160	N	0.079156	-0.206452	0.685138
C161	C	-0.387452	-0.140363	0.218596
C162	C	0.112548	0.359637	0.718596
N163	N	-0.420752	-0.113088	0.185181
N164	N	0.079248	0.386912	0.685181
C165	C	-0.218621	-0.140562	0.387997
C166	C	0.281379	0.359438	0.887997
N167	N	-0.185313	-0.113370	0.421421
N168	N	0.314687	0.386630	0.921421
H169	H	-0.229980	-0.982658	0.662849
H170	H	0.270020	-0.482658	1.162849
H171	H	-0.662003	-0.836482	0.376247
H172	H	-0.162003	-0.336482	0.876247
C173	C	-0.533232	-0.994124	0.218770
C174	C	-0.033232	-0.494124	0.718770
N175	N	-0.505980	-1.027488	0.185427
N176	N	-0.005980	-0.527488	0.685427
C177	C	-0.387475	-0.278417	0.218589
C178	C	0.112525	0.221583	0.718589
N179	N	-0.420786	-0.305610	0.185169
N180	N	0.079214	0.194390	0.685169
C181	C	-0.533345	-0.824929	0.387735
C182	C	-0.033345	-0.324929	0.887735
N183	N	-0.506136	-0.791545	0.421067
N184	N	-0.006136	-0.291545	0.921067
C185	C	-0.387626	-0.824981	1.073005
C186	C	0.112374	-0.324981	1.573005
N187	N	-0.420990	-0.791602	1.100220
N188	N	0.079010	-0.291602	1.600220
H189	H	-0.376111	-0.836499	0.944345
H190	H	0.123889	-0.336499	1.444345
C191	C	-0.218477	-0.994177	0.534197
C192	C	0.281523	-0.494177	1.034197
N193	N	-0.185105	-1.027549	0.506983
N194	N	0.314895	-0.527549	1.006983
C195	C	-0.218692	-0.541398	0.387981
C196	C	0.281308	-0.041398	0.887981
N197	N	-0.185389	-0.514203	0.421407
N198	N	0.314611	-0.014203	0.921407
H199	H	-0.661897	-0.982672	0.230302
H200	H	-0.161897	-0.482672	0.730302
H201	H	-0.943471	-0.982777	0.230348
H202	H	-0.443471	-0.482777	0.730348
C203	C	-0.218706	-0.679451	0.387967
C204	C	0.281294	-0.179451	0.887967
N205	N	-0.185398	-0.706719	0.421381
N206	N	0.314602	-0.206719	0.921381
H207	H	-0.376106	-0.836510	0.543507
H208	H	0.123894	-0.336510	1.043507
C209	C	-1.072240	-0.825119	0.387815
C210	C	-0.572240	-0.325119	0.887815
N211	N	-1.099500	-0.791748	0.421144
N212	N	-0.599500	-0.291748	0.921144
H213	H	-0.376024	-0.550606	0.230098
H214	H	0.123976	-0.050606	0.730098
H215	H	-0.943571	-0.836584	0.376297
H216	H	-0.443571	-0.336584	0.876297
C217	C	-0.387611	-0.824988	0.672163
C218	C	0.112389	-0.324988	1.172163
N219	N	-0.420975	-0.791609	0.699378
N220	N	0.079025	-0.291609	1.199378
H221	H	-1.062735	-0.982829	0.230379
H222	H	-0.562735	-0.482829	0.730379
H223	H	-0.229991	-0.982647	1.063687
H224	H	0.270009	-0.482647	1.563687
H225	H	-0.229990	-0.982651	0.944423
H226	H	0.270010	-0.482651	1.444423
