data_functionalizedCrystal
_audit_creation_method	'MofGen! by Chris Wilmer'
_symmetry_space_group_name_H-M	'P1'
_symmetry_Int_Tables_number	1
_symmetry_cell_setting	triclinic
loop_
_symmetry_equiv_pos_as_xyz
  x,y,z
_cell_length_a	16.959455
_cell_length_b	21.295417
_cell_length_c	16.959455
_cell_angle_alpha	90.019041
_cell_angle_beta	90.001568
_cell_angle_gamma	90.027454
loop_
_atom_site_label
_atom_site_type_symbol
_atom_site_fract_x
_atom_site_fract_y
_atom_site_fract_z
Zn1	Zn	1.208227	-0.250748	0.446882
Zn2	Zn	1.458227	-0.000748	0.696882
Zn3	Zn	1.708227	0.249252	0.946882
Zn4	Zn	1.958227	0.499252	1.196882
Zn5	Zn	1.208155	-0.355995	0.314692
Zn6	Zn	1.458155	-0.105995	0.564692
Zn7	Zn	1.708155	0.144005	0.814692
Zn8	Zn	1.958155	0.394005	1.064692
Zn9	Zn	1.076085	-0.250738	0.314719
Zn10	Zn	1.326085	-0.000738	0.564719
Zn11	Zn	1.576085	0.249262	0.814719
Zn12	Zn	1.826085	0.499262	1.064719
Zn13	Zn	1.075996	-0.355978	0.446830
Zn14	Zn	1.325996	-0.105978	0.696830
Zn15	Zn	1.575996	0.144022	0.946830
Zn16	Zn	1.825996	0.394022	1.196830
O17	O	1.142116	-0.303365	0.380781
O18	O	1.392116	-0.053365	0.630781
O19	O	1.642116	0.196635	0.880781
O20	O	1.892116	0.446635	1.130781
O21	O	1.318828	-0.264721	0.429356
O22	O	1.568828	-0.014721	0.679356
O23	O	1.818828	0.235279	0.929356
O24	O	2.068828	0.485279	1.179356
O25	O	1.190642	-0.342036	0.204085
O26	O	1.440642	-0.092036	0.454085
O27	O	1.690642	0.157964	0.704085
O28	O	1.940642	0.407964	0.954085
O29	O	1.093681	-0.162650	0.332284
O30	O	1.343681	0.087350	0.582284
O31	O	1.593681	0.337350	0.832284
O32	O	1.843681	0.587350	1.082284
O33	O	1.318775	-0.342046	0.332237
O34	O	1.568775	-0.092046	0.582237
O35	O	1.818775	0.157954	0.832237
O36	O	2.068775	0.407954	1.082237
O37	O	1.190765	-0.162658	0.429383
O38	O	1.440765	0.087342	0.679383
O39	O	1.690765	0.337342	0.929383
O40	O	1.940765	0.587342	1.179383
O41	O	1.093611	-0.264704	0.204105
O42	O	1.343611	-0.014704	0.454105
O43	O	1.593611	0.235296	0.704105
O44	O	1.843611	0.485296	0.954105
O45	O	0.965462	-0.264687	0.332234
O46	O	1.215462	-0.014687	0.582234
O47	O	1.465462	0.235313	0.832234
O48	O	1.715462	0.485313	1.082234
O49	O	1.093530	-0.342016	0.557448
O50	O	1.343530	-0.092016	0.807448
O51	O	1.593530	0.157984	1.057448
O52	O	1.843530	0.407984	1.307448
O53	O	0.965397	-0.342006	0.429296
O54	O	1.215397	-0.092006	0.679296
O55	O	1.465397	0.157994	0.929296
O56	O	1.715397	0.407994	1.179296
O57	O	1.190679	-0.264704	0.557486
O58	O	1.440679	-0.014704	0.807486
O59	O	1.690679	0.235296	1.057486
O60	O	1.940679	0.485296	1.307486
O61	O	1.190556	-0.444083	0.332187
O62	O	1.440556	-0.194083	0.582187
O63	O	1.690556	0.055917	0.832187
O64	O	1.940556	0.305917	1.082187
O65	O	1.093460	-0.444070	0.429269
O66	O	1.343460	-0.194070	0.679269
O67	O	1.593460	0.055930	0.929269
O68	O	1.843460	0.305930	1.179269
C69	C	0.936749	-0.303344	0.380763
C70	C	1.186749	-0.053344	0.630763
C71	C	1.436749	0.196656	0.880763
C72	C	1.686749	0.446656	1.130763
C73	C	0.848893	-0.303351	0.380774
C74	C	1.098893	-0.053351	0.630774
C75	C	1.348893	0.196649	0.880774
C76	C	1.598893	0.446649	1.130774
C77	C	0.477427	-0.263072	0.330346
C78	C	0.727427	-0.013072	0.580346
C79	C	0.977427	0.236928	0.830346
C80	C	1.227427	0.486928	1.080346
C81	C	0.477408	-0.343710	0.431260
C82	C	0.727408	-0.093710	0.681260
C83	C	0.977408	0.156290	0.931260
C84	C	1.227408	0.406290	1.181260
C85	C	0.559953	-0.343701	0.431256
C86	C	0.809953	-0.093701	0.681256
C87	C	1.059953	0.156299	0.931256
C88	C	1.309953	0.406299	1.181256
C89	C	0.601240	-0.303378	0.380795
C90	C	0.851240	-0.053378	0.630795
C91	C	1.101240	0.196622	0.880795
C92	C	1.351240	0.446622	1.130795
C93	C	0.559980	-0.263063	0.330338
C94	C	0.809980	-0.013063	0.580338
C95	C	1.059980	0.236937	0.830338
C96	C	1.309980	0.486937	1.080338
C97	C	0.601219	-0.384019	0.481705
C98	C	0.851219	-0.134019	0.731705
C99	C	1.101219	0.115981	0.981705
C100	C	1.351219	0.365981	1.231705
C101	C	0.683770	-0.384012	0.481702
C102	C	0.933770	-0.134012	0.731702
C103	C	1.183770	0.115988	0.981702
C104	C	1.433770	0.365988	1.231702
C105	C	0.725058	-0.343685	0.431244
C106	C	0.975058	-0.093685	0.681244
C107	C	1.225058	0.156315	0.931244
C108	C	1.475058	0.406315	1.181244
C109	C	0.683793	-0.303369	0.380786
C110	C	0.933793	-0.053369	0.630786
C111	C	1.183793	0.196631	0.880786
C112	C	1.433793	0.446631	1.130786
C113	C	0.725080	-0.263045	0.330325
C114	C	0.975080	-0.013045	0.580325
C115	C	1.225080	0.236955	0.830325
C116	C	1.475080	0.486955	1.080325
C117	C	0.683817	-0.222725	0.279871
C118	C	0.933817	0.027275	0.529871
C119	C	1.183817	0.277275	0.779871
C120	C	1.433817	0.527275	1.029871
C121	C	0.601268	-0.222736	0.279881
C122	C	0.851268	0.027264	0.529881
C123	C	1.101268	0.277264	0.779881
C124	C	1.351268	0.527264	1.029881
C125	C	0.807606	-0.343674	0.431235
C126	C	1.057606	-0.093674	0.681235
C127	C	1.307606	0.156326	0.931235
C128	C	1.557606	0.406326	1.181235
C129	C	0.807633	-0.263036	0.330317
C130	C	1.057633	-0.013036	0.580317
C131	C	1.307633	0.236964	0.830317
C132	C	1.557633	0.486964	1.080317
C133	C	1.142012	-0.466917	0.380737
C134	C	1.392012	-0.216917	0.630737
C135	C	1.642012	0.033083	0.880737
C136	C	1.892012	0.283083	1.130737
C137	C	1.142040	-0.536885	0.380745
C138	C	1.392040	-0.286885	0.630745
C139	C	1.642040	-0.036885	0.880745
C140	C	1.892040	0.213115	1.130745
C141	C	1.192643	-0.569737	0.330246
C142	C	1.442643	-0.319737	0.580246
C143	C	1.692643	-0.069737	0.830246
C144	C	1.942643	0.180263	1.080246
C145	C	1.192680	-0.635480	0.330264
C146	C	1.442680	-0.385480	0.580264
C147	C	1.692680	-0.135480	0.830264
C148	C	1.942680	0.114520	1.080264
C149	C	1.142100	-0.668367	0.380772
C150	C	1.392100	-0.418367	0.630772
C151	C	1.642100	-0.168367	0.880772
C152	C	1.892100	0.081633	1.130772
C153	C	1.091493	-0.635507	0.431280
C154	C	1.341493	-0.385507	0.681280
C155	C	1.591493	-0.135507	0.931280
C156	C	1.841493	0.114493	1.181280
C157	C	1.091463	-0.569766	0.431267
C158	C	1.341463	-0.319766	0.681267
C159	C	1.591463	-0.069766	0.931267
C160	C	1.841463	0.180234	1.181267
N161	N	1.072952	-0.771631	0.386792
N162	N	1.322952	-0.521631	0.636792
N163	N	1.572952	-0.271631	0.886792
N164	N	1.822952	-0.021631	1.136792
N165	N	1.072983	-0.834083	0.386800
N166	N	1.322983	-0.584083	0.636800
N167	N	1.572983	-0.334083	0.886800
N168	N	1.822983	-0.084083	1.136800
C169	C	1.142189	-0.866442	0.380817
C170	C	1.392189	-0.616442	0.630817
C171	C	1.642189	-0.366442	0.880817
C172	C	1.892189	-0.116442	1.130817
N173	N	1.211364	-0.833991	0.374810
N174	N	1.461364	-0.583991	0.624810
N175	N	1.711364	-0.333991	0.874810
N176	N	1.961364	-0.083991	1.124810
N177	N	1.211332	-0.771534	0.374798
N178	N	1.461332	-0.521534	0.624798
N179	N	1.711332	-0.271534	0.874798
N180	N	1.961332	-0.021534	1.124798
C181	C	1.142127	-0.739653	0.380793
C182	C	1.392127	-0.489653	0.630793
C183	C	1.642127	-0.239653	0.880793
C184	C	1.892127	0.010347	1.130793
C185	C	1.192836	-0.970580	0.330335
C186	C	1.442836	-0.720580	0.580335
C187	C	1.692836	-0.470580	0.830335
C188	C	1.942836	-0.220580	1.080335
C189	C	1.192874	-1.036324	0.330359
C190	C	1.442874	-0.786324	0.580359
C191	C	1.692874	-0.536324	0.830359
C192	C	1.942874	-0.286324	1.080359
C193	C	1.091681	-1.036350	0.431371
C194	C	1.341681	-0.786350	0.681371
C195	C	1.591681	-0.536350	0.931371
C196	C	1.841681	-0.286350	1.181371
C197	C	1.091649	-0.970607	0.431352
C198	C	1.341649	-0.720607	0.681352
C199	C	1.591649	-0.470607	0.931352
C200	C	1.841649	-0.220607	1.181352
C201	C	1.142226	-0.937726	0.380830
C202	C	1.392226	-0.687726	0.630830
C203	C	1.642226	-0.437726	0.880830
C204	C	1.892226	-0.187726	1.130830
C205	C	1.348284	-0.303386	0.380799
C206	C	1.598284	-0.053386	0.630799
C207	C	1.848284	0.196614	0.880799
C208	C	2.098284	0.446614	1.130799
C209	C	1.436140	-0.303396	0.380807
C210	C	1.686140	-0.053396	0.630807
C211	C	1.936140	0.196604	0.880807
C212	C	2.186140	0.446604	1.130807
C213	C	1.142103	-0.303359	0.586949
C214	C	1.392103	-0.053359	0.836949
C215	C	1.642103	0.196641	1.086949
C216	C	1.892103	0.446641	1.336949
C217	C	1.142097	-0.303357	0.674806
C218	C	1.392097	-0.053357	0.924806
C219	C	1.642097	0.196643	1.174806
C220	C	1.892097	0.446643	1.424806
C221	C	1.142241	-0.139175	0.380842
C222	C	1.392241	0.110825	0.630842
C223	C	1.642241	0.360825	0.880842
C224	C	1.892241	0.610825	1.130842
C225	C	1.142295	-0.069207	0.380868
C226	C	1.392295	0.180793	0.630868
C227	C	1.642295	0.430793	0.880868
C228	C	1.892295	0.680793	1.130868
C229	C	1.091527	-0.343627	1.046264
C230	C	1.341527	-0.093627	1.296264
C231	C	1.591527	0.156373	1.546264
C232	C	1.841527	0.406373	1.796264
C233	C	1.192690	-0.263121	1.046298
C234	C	1.442690	-0.013121	1.296298
C235	C	1.692690	0.236879	1.546298
C236	C	1.942690	0.486879	1.796298
C237	C	1.192687	-0.263116	0.963752
C238	C	1.442687	-0.013116	1.213752
C239	C	1.692687	0.236884	1.463752
C240	C	1.942687	0.486884	1.713752
C241	C	1.142105	-0.303367	0.922459
C242	C	1.392105	-0.053367	1.172459
C243	C	1.642105	0.196633	1.422459
C244	C	1.892105	0.446633	1.672459
C245	C	1.091525	-0.343624	0.963710
C246	C	1.341525	-0.093624	1.213710
C247	C	1.591525	0.156376	1.463710
C248	C	1.841525	0.406376	1.713710
C249	C	1.243272	-0.222865	0.922494
C250	C	1.493272	0.027135	1.172494
C251	C	1.743272	0.277135	1.422494
C252	C	1.993272	0.527135	1.672494
C253	C	1.243272	-0.222858	0.839943
C254	C	1.493272	0.027142	1.089943
C255	C	1.743272	0.277142	1.339943
C256	C	1.993272	0.527142	1.589943
C257	C	1.192685	-0.263107	0.798648
C258	C	1.442685	-0.013107	1.048648
C259	C	1.692685	0.236893	1.298648
C260	C	1.942685	0.486893	1.548648
C261	C	1.142102	-0.303365	0.839905
C262	C	1.392102	-0.053365	1.089905
C263	C	1.642102	0.196635	1.339905
C264	C	1.892102	0.446635	1.589905
C265	C	1.091520	-0.343616	0.798611
C266	C	1.341520	-0.093616	1.048611
C267	C	1.591520	0.156384	1.298611
C268	C	1.841520	0.406384	1.548611
C269	C	1.040932	-0.383871	0.839867
C270	C	1.290932	-0.133871	1.089867
C271	C	1.540932	0.116129	1.339867
C272	C	1.790932	0.366129	1.589867
C273	C	1.040938	-0.383873	0.922415
C274	C	1.290938	-0.133873	1.172415
C275	C	1.540938	0.116127	1.422415
C276	C	1.790938	0.366127	1.672415
C277	C	1.192680	-0.263106	0.716099
C278	C	1.442680	-0.013106	0.966099
C279	C	1.692680	0.236894	1.216099
C280	C	1.942680	0.486894	1.466099
C281	C	1.091517	-0.343613	0.716058
C282	C	1.341517	-0.093613	0.966058
C283	C	1.591517	0.156387	1.216058
C284	C	1.841517	0.406387	1.466058
C285	C	1.142118	-0.303382	1.175415
C286	C	1.392118	-0.053382	1.425415
C287	C	1.642118	0.196618	1.675415
C288	C	1.892118	0.446618	1.925415
C289	C	1.142110	-0.303375	1.087558
C290	C	1.392110	-0.053375	1.337558
C291	C	1.642110	0.196625	1.587558
C292	C	1.892110	0.446625	1.837558
H293	H	0.841243	-0.230196	0.289230
H294	H	1.091243	0.019804	0.539230
H295	H	1.341243	0.269804	0.789230
H296	H	1.591243	0.519804	1.039230
H297	H	1.050440	-0.943857	0.472469
H298	H	1.300440	-0.693857	0.722469
H299	H	1.550440	-0.443857	0.972469
H300	H	1.800440	-0.193857	1.222469
H301	H	1.234021	-0.943807	0.289200
H302	H	1.484021	-0.693807	0.539200
H303	H	1.734021	-0.443807	0.789200
H304	H	1.984021	-0.193807	1.039200
H305	H	0.841199	-0.376504	0.472311
H306	H	1.091199	-0.126504	0.722311
H307	H	1.341199	0.123496	0.972311
H308	H	1.591199	0.373496	1.222311
H309	H	1.233827	-0.542968	0.289110
H310	H	1.483827	-0.292968	0.539110
H311	H	1.733827	-0.042968	0.789110
H312	H	1.983827	0.207032	1.039110
H313	H	1.233890	-0.662233	0.289142
H314	H	1.483890	-0.412233	0.539142
H315	H	1.733890	-0.162233	0.789142
H316	H	1.983890	0.087767	1.039142
H317	H	1.050256	-0.543017	0.472390
H318	H	1.300256	-0.293017	0.722390
H319	H	1.550256	-0.043017	0.972390
H320	H	1.800256	0.206983	1.222390
H321	H	0.717443	-0.189897	0.238782
H322	H	0.967443	0.060103	0.488782
H323	H	1.217443	0.310103	0.738782
H324	H	1.467443	0.560103	0.988782
H325	H	0.999752	-0.416646	0.806234
H326	H	1.249752	-0.166646	1.056234
H327	H	1.499752	0.083354	1.306234
H328	H	1.749752	0.333354	1.556234
H329	H	1.050312	-0.662288	0.472406
H330	H	1.300312	-0.412288	0.722406
H331	H	1.550312	-0.162288	0.972406
H332	H	1.800312	0.087712	1.222406
H333	H	0.567598	-0.416853	0.522782
H334	H	0.817598	-0.166853	0.772782
H335	H	1.067598	0.083147	1.022782
H336	H	1.317598	0.333147	1.272782
H337	H	0.443827	-0.230243	0.289270
H338	H	0.693827	0.019757	0.539270
H339	H	0.943827	0.269757	0.789270
H340	H	1.193827	0.519757	1.039270
H341	H	0.717360	-0.416843	0.522785
H342	H	0.967360	-0.166843	0.772785
H343	H	1.217360	0.083157	1.022785
H344	H	1.467360	0.333157	1.272785
H345	H	1.284459	-0.190098	0.956122
H346	H	1.534459	0.059902	1.206122
H347	H	1.784459	0.309902	1.456122
H348	H	2.034459	0.559902	1.706122
H349	H	1.050501	-1.063126	0.472499
H350	H	1.300501	-0.813126	0.722499
H351	H	1.550501	-0.563126	0.972499
H352	H	1.800501	-0.313126	1.222499
H353	H	0.999755	-0.416648	0.956013
H354	H	1.249755	-0.166648	1.206013
H355	H	1.499755	0.083352	1.456013
H356	H	1.749755	0.333352	1.706013
H357	H	1.050338	-0.376399	1.079858
H358	H	1.300338	-0.126399	1.329858
H359	H	1.550338	0.123601	1.579858
H360	H	1.800338	0.373601	1.829858
H361	H	1.233877	-0.230354	1.079925
H362	H	1.483877	0.019646	1.329925
H363	H	1.733877	0.269646	1.579925
H364	H	1.983877	0.519646	1.829925
H365	H	0.567664	-0.189910	0.238803
H366	H	0.817664	0.060090	0.488803
H367	H	1.067664	0.310090	0.738803
H368	H	1.317664	0.560090	0.988803
H369	H	0.443787	-0.376543	0.472339
H370	H	0.693787	-0.126543	0.722339
H371	H	0.943787	0.123457	0.972339
H372	H	1.193787	0.373457	1.222339
H373	H	1.050319	-0.376386	0.682442
H374	H	1.300319	-0.126386	0.932442
H375	H	1.550319	0.123614	1.182442
H376	H	1.800319	0.373614	1.432442
H377	H	1.284463	-0.190080	0.806360
H378	H	1.534463	0.059920	1.056360
H379	H	1.784463	0.309920	1.306360
H380	H	2.034463	0.559920	1.556360
H381	H	1.234086	-1.063071	0.289238
H382	H	1.484086	-0.813071	0.539238
H383	H	1.734086	-0.563071	0.789238
H384	H	1.984086	-0.313071	1.039238
H385	H	1.233869	-0.230332	0.682513
H386	H	1.483869	0.019668	0.932513
H387	H	1.733869	0.269668	1.182513
H388	H	1.983869	0.519668	1.432513
