data_functionalizedCrystal
_audit_creation_method	'MofGen! by Chris Wilmer'
_symmetry_space_group_name_H-M	'P1'
_symmetry_Int_Tables_number	1
_symmetry_cell_setting	triclinic
loop_
_symmetry_equiv_pos_as_xyz
  x,y,z
_cell_length_a	6.817900
_cell_length_b	17.253796
_cell_length_c	17.078481
_cell_angle_alpha	99.953167
_cell_angle_beta	99.306161
_cell_angle_gamma	102.657420
loop_
_atom_site_label
_atom_site_type_symbol
_atom_site_fract_x
_atom_site_fract_y
_atom_site_fract_z
V1	V	-3.979151	-0.111101	-0.254880
O2	O	-3.968069	0.005532	-0.242278
O3	O	-3.930514	-0.220480	-0.260591
O4	O	-3.910205	-0.109307	-0.362642
O5	O	-3.988520	-0.106411	-0.139521
V6	V	-4.465472	-0.097160	-0.240177
O7	O	-4.234272	-0.141681	-0.287134
O8	O	-4.660549	-0.066580	-0.207924
O9	O	-4.290902	0.012219	-0.234466
O10	O	-4.593951	-0.213793	-0.252779
O11	O	-4.573501	-0.101851	-0.355536
O12	O	-4.311212	-0.098954	-0.132415
C13	C	-3.776122	-0.247147	-0.258493
C14	C	-3.817506	-0.336566	-0.263881
C15	C	-4.053401	-0.841126	-0.302077
C16	C	-4.014507	-0.757108	-0.297015
C17	C	-3.968689	-0.703665	-0.221056
C18	C	-3.961785	-0.734244	-0.150154
C19	C	-4.000693	-0.818262	-0.155216
C20	C	-3.849510	-0.451163	-0.198041
C21	C	-3.810596	-0.367140	-0.192984
C22	C	-3.863324	-0.390010	-0.339846
C23	C	-3.902218	-0.474027	-0.344902
C24	C	-3.895322	-0.504600	-0.274000
N25	N	-3.928926	-0.617784	-0.215880
N26	N	-3.935098	-0.590479	-0.279177
C27	C	-3.750215	-0.105334	-0.388669
C28	C	-3.775125	-0.104591	-0.476813
C29	C	-3.968152	-0.108257	-0.522537
C30	C	-3.991546	-0.107559	-0.605358
C31	C	-3.821914	-0.103200	-0.642455
C32	C	-3.628871	-0.099531	-0.596724
C33	C	-3.605476	-0.100224	-0.513903
C34	C	-3.872435	-0.100692	-0.889688
C35	C	-3.895847	-0.100002	-0.972515
C36	C	-4.258520	-0.108029	-0.981143
C37	C	-4.235111	-0.108726	-0.898322
C38	C	-4.042069	-0.105053	-0.852597
N39	N	-3.845824	-0.102488	-0.727111
N40	N	-4.018159	-0.105759	-0.767941
C41	C	-4.108637	0.038882	-0.236562
C42	C	-4.046491	0.128300	-0.231180
C43	C	-4.134545	-0.102930	-0.106385
C44	C	-4.088873	-0.103669	-0.018239
H45	H	-3.868936	-0.365108	-0.397571
H46	H	-3.715267	-0.097730	-0.852476
H47	H	-3.995064	-0.843153	-0.097484
H48	H	-4.090692	-0.884634	-0.363931
Br49	Br	-3.398651	-0.093613	-0.647068
H50	H	-4.373247	-0.112275	-0.868124
Br51	Br	-4.253525	-0.112544	-0.667411
H52	H	-4.106292	-0.111812	-0.492341
Br53	Br	-3.964144	-0.546546	-0.447988
Br54	Br	-3.665617	-0.094089	-1.022861
H55	H	-4.415688	-0.111018	-1.018380
H56	H	-3.448285	-0.097218	-0.476671
Br57	Br	-3.748398	-0.294609	-0.089889
Br58	Br	-3.840163	-0.492644	-0.101817
H59	H	-4.020118	-0.732218	-0.354747
H60	H	-3.924490	-0.690725	-0.088306
