data_functionalizedCrystal
_audit_creation_method	'MofGen! by Chris Wilmer'
_symmetry_space_group_name_H-M	'P1'
_symmetry_Int_Tables_number	1
_symmetry_cell_setting	triclinic
loop_
_symmetry_equiv_pos_as_xyz
  x,y,z
_cell_length_a	12.996460
_cell_length_b	10.654550
_cell_length_c	10.654550
_cell_angle_alpha	95.515069
_cell_angle_beta	90.005980
_cell_angle_gamma	89.997676
loop_
_atom_site_label
_atom_site_type_symbol
_atom_site_fract_x
_atom_site_fract_y
_atom_site_fract_z
O1	O	0.085490	-1.667843	0.176401
O2	O	0.418823	-1.334510	0.509735
O3	O	0.752156	-1.001176	0.843068
O4	O	0.085509	-1.302364	0.193207
O5	O	0.418842	-0.969031	0.526541
O6	O	0.752175	-0.635698	0.859874
O7	O	0.085492	-1.493507	0.002065
O8	O	0.418826	-1.160173	0.335399
O9	O	0.752159	-0.826840	0.668732
O10	O	0.085506	-1.476701	0.367544
O11	O	0.418839	-1.143367	0.700877
O12	O	0.752173	-0.810034	1.034210
O13	O	-0.085642	-1.493487	0.002054
O14	O	0.247692	-1.160153	0.335388
O15	O	0.581025	-0.826820	0.668721
O16	O	-0.085625	-1.302344	0.193197
O17	O	0.247708	-0.969011	0.526530
O18	O	0.581041	-0.635678	0.859863
O19	O	-0.085644	-1.667823	0.176391
O20	O	0.247689	-1.334489	0.509724
O21	O	0.581023	-1.001156	0.843057
Cu22	Cu	-0.101260	-1.485082	0.184793
Cu23	Cu	0.232073	-1.151748	0.518126
Cu24	Cu	0.565406	-0.818415	0.851459
Cu25	Cu	0.101125	-1.485106	0.184805
Cu26	Cu	0.434458	-1.151772	0.518139
Cu27	Cu	0.767792	-0.818439	0.851472
O28	O	-0.085628	-1.476680	0.367533
O29	O	0.247706	-1.143347	0.700866
O30	O	0.581039	-0.810014	1.034200
C31	C	-0.000056	-1.255556	0.191968
C32	C	0.333277	-0.922223	0.525301
C33	C	0.666611	-0.588890	0.858635
C34	C	-0.000049	-1.116113	0.188276
C35	C	0.333284	-0.782780	0.521609
C36	C	0.666618	-0.449446	0.854943
N37	N	-0.243608	-1.485074	0.184783
N38	N	0.089726	-1.151741	0.518116
N39	N	0.423059	-0.818407	0.851450
C40	C	-0.000074	-1.492263	-0.044738
C41	C	0.333259	-1.158929	0.288595
C42	C	0.666593	-0.825596	0.621928
C43	C	-0.000072	-1.488571	-0.184181
C44	C	0.333261	-1.155237	0.149152
C45	C	0.666594	-0.821904	0.482485
C46	C	-0.663422	-1.485104	0.184807
C47	C	-0.330089	-1.151770	0.518140
C48	C	0.003245	-0.818437	0.851473
C49	C	-0.546617	-1.485092	0.184804
C50	C	-0.213283	-1.151758	0.518138
C51	C	0.120050	-0.818425	0.851471
C52	C	-0.453518	-1.485090	0.184796
C53	C	-0.120185	-1.151756	0.518129
C54	C	0.213148	-0.818423	0.851462
C55	C	-0.336706	-1.485076	0.184791
C56	C	-0.003373	-1.151743	0.518125
C57	C	0.329961	-0.818410	0.851458
N58	N	0.243472	-1.485123	0.184805
N59	N	0.576805	-1.151790	0.518139
N60	N	0.910139	-0.818456	0.851472
C61	C	-0.000077	-1.714631	0.177630
C62	C	0.333256	-1.381297	0.510963
C63	C	0.666589	-1.047964	0.844297
C64	C	-0.000078	-1.854074	0.181322
C65	C	0.333256	-1.520741	0.514655
C66	C	0.666589	-1.187407	0.847989
C67	C	-0.000048	-1.036628	0.300818
C68	C	0.333286	-0.703294	0.634151
C69	C	0.666619	-0.369961	0.967484
C70	C	-0.000066	-0.905607	0.297341
C71	C	0.333268	-0.572273	0.630675
C72	C	0.666601	-0.238940	0.964008
C73	C	-0.000082	-0.933570	0.068772
C74	C	0.333251	-0.600237	0.402105
C75	C	0.666585	-0.266903	0.735438
C76	C	-0.000071	-1.064588	0.072250
C77	C	0.333262	-0.731255	0.405583
C78	C	0.666595	-0.397922	0.738916
C79	C	-0.000078	-1.601112	-0.263667
C80	C	0.333256	-1.267779	0.069666
C81	C	0.666589	-0.934446	0.403000
C82	C	-0.000065	-1.597636	-0.394688
C83	C	0.333268	-1.264302	-0.061355
C84	C	0.666602	-0.930969	0.271979
C85	C	-0.000046	-1.369066	-0.366725
C86	C	0.333288	-1.035733	-0.033391
C87	C	0.666621	-0.702400	0.299942
C88	C	-0.000051	-1.372544	-0.235706
C89	C	0.333282	-1.039211	0.097627
C90	C	0.666616	-0.705877	0.430960
C91	C	-0.000059	-1.477925	0.414336
C92	C	0.333274	-1.144591	0.747670
C93	C	0.666608	-0.811258	1.081003
C94	C	-0.000054	-1.481616	0.553779
C95	C	0.333279	-1.148283	0.887113
C96	C	0.666613	-0.814950	1.220446
H97	H	-0.000037	-1.078574	0.395294
H98	H	0.333296	-0.745241	0.728627
H99	H	0.666630	-0.411908	1.061961
H100	H	-0.000075	-1.129309	-0.019401
H101	H	0.333258	-0.795976	0.313932
H102	H	0.666591	-0.462643	0.647266
H103	H	-0.000093	-1.695588	-0.221720
H104	H	0.333241	-1.362255	0.111613
H105	H	0.666574	-1.028922	0.444946
H106	H	-0.000067	-1.689279	-0.459401
H107	H	0.333266	-1.355945	-0.126067
H108	H	0.666600	-1.022612	0.207266
H109	H	-0.000030	-1.274601	-0.408693
H110	H	0.333303	-0.941268	-0.075359
H111	H	0.666636	-0.607935	0.257974
H112	H	-0.000067	-0.840894	0.388984
H113	H	0.333267	-0.507561	0.722317
H114	H	0.666600	-0.174227	1.055651
H115	H	-0.000044	-1.280893	-0.170985
H116	H	0.333290	-0.947560	0.162348
H117	H	0.666623	-0.614227	0.495681
H118	H	-0.000106	-0.891602	-0.025693
H119	H	0.333227	-0.558269	0.307640
H120	H	0.666560	-0.224935	0.640973
