data_functionalizedCrystal
_audit_creation_method	'MofGen! by Chris Wilmer'
_symmetry_space_group_name_H-M	'P1'
_symmetry_Int_Tables_number	1
_symmetry_cell_setting	triclinic
loop_
_symmetry_equiv_pos_as_xyz
  x,y,z
_cell_length_a	8.559649
_cell_length_b	10.540539
_cell_length_c	7.681481
_cell_angle_alpha	84.202085
_cell_angle_beta	94.913240
_cell_angle_gamma	77.152078
loop_
_atom_site_label
_atom_site_type_symbol
_atom_site_fract_x
_atom_site_fract_y
_atom_site_fract_z
O1	O	2.104686	-0.029542	-0.146402
O2	O	1.640228	0.035941	-0.146408
O3	O	1.883054	-0.182616	-0.146403
O4	O	1.861861	0.189016	-0.146407
O5	O	1.912941	-0.209571	0.146456
O6	O	1.670116	0.008986	0.146450
O7	O	2.134573	-0.056497	0.146457
Zn8	Zn	1.907089	-0.028035	0.192951
Zn9	Zn	1.867712	0.007479	-0.192902
O10	O	1.891748	0.162061	0.146451
C11	C	1.595699	0.027426	0.000020
C12	C	1.418487	0.042198	0.000017
C13	C	1.896408	-0.243230	0.000023
C14	C	1.891652	-0.383679	0.000014
C15	C	1.709382	-0.547970	-0.000646
C16	C	1.714270	-0.401917	0.000013
C17	C	1.994083	-0.469667	0.167252
C18	C	1.988043	-0.615591	0.167393
C19	C	1.957664	-0.585834	-0.165642
C20	C	1.959072	-0.438819	-0.167853
C21	C	2.179102	-0.047981	0.000025
C22	C	2.356313	-0.062752	0.000016
C23	C	1.878393	0.222675	0.000021
C24	C	1.883148	0.363125	0.000019
N25	N	1.933975	-0.052274	0.456286
N26	N	1.840839	0.031708	-0.456237
H27	H	1.438655	-0.163903	0.000009
H28	H	1.336134	0.143358	0.000006
Cl29	Cl	1.582293	-0.563753	-0.185809
Cl30	Cl	1.591675	-0.308242	-0.185075
Cl31	Cl	1.620068	-0.600735	0.182930
Cl32	Cl	1.628754	-0.343569	0.185406
H33	H	1.937713	-0.648691	0.292404
Cl34	Cl	2.080791	-0.184620	0.572392
H35	H	1.887318	-0.599710	-0.292398
H36	H	2.116388	-0.677614	0.174981
Cl37	Cl	2.157148	-0.420887	-0.183456
Cl38	Cl	1.694047	0.164059	0.427664
H39	H	2.124982	-0.461523	0.173472
Cl40	Cl	1.922142	-0.412005	0.359400
H41	H	1.883986	-0.380035	-0.291571
Cl42	Cl	2.155294	-0.679298	-0.167382
