data_functionalizedCrystal
_audit_creation_method	'MofGen! by Chris Wilmer'
_symmetry_space_group_name_H-M	'P1'
_symmetry_Int_Tables_number	1
_symmetry_cell_setting	triclinic
loop_
_symmetry_equiv_pos_as_xyz
  x,y,z
_cell_length_a	12.759401
_cell_length_b	12.759400
_cell_length_c	12.759393
_cell_angle_alpha	90.030447
_cell_angle_beta	90.018567
_cell_angle_gamma	90.012209
loop_
_atom_site_label
_atom_site_type_symbol
_atom_site_fract_x
_atom_site_fract_y
_atom_site_fract_z
Zn1	Zn	1.606267	-0.418231	0.593991
Zn2	Zn	1.606166	-0.593950	0.418315
Zn3	Zn	1.430569	-0.418283	0.418331
Zn4	Zn	1.430562	-0.593866	0.593956
O5	O	1.518391	-0.506082	0.506148
O6	O	1.753274	-0.441554	0.570696
O7	O	1.582833	-0.570704	0.271296
O8	O	1.453920	-0.271255	0.441654
O9	O	1.753200	-0.570654	0.441627
O10	O	1.583005	-0.271217	0.570711
O11	O	1.453822	-0.441642	0.271307
O12	O	1.283547	-0.441560	0.441620
O13	O	1.453909	-0.570511	0.740982
O14	O	1.283542	-0.570561	0.570651
O15	O	1.582998	-0.441473	0.741008
O16	O	1.582826	-0.740960	0.441593
O17	O	1.453811	-0.740898	0.570636
C18	C	1.245423	-0.506058	0.506134
C19	C	1.128647	-0.506072	0.506152
C20	C	1.073816	-0.438977	0.573463
C21	C	0.964092	-0.438997	0.573469
C22	C	0.964039	-0.573217	0.438853
C23	C	1.073761	-0.573191	0.438841
C24	C	1.128702	-0.371858	0.640774
C25	C	1.073872	-0.304758	0.708090
C26	C	0.964148	-0.304778	0.708097
C27	C	0.909254	-0.371899	0.640787
C28	C	1.518336	-0.779050	0.506132
C29	C	1.518408	-0.895826	0.506160
C30	C	1.585589	-0.950589	0.573415
C31	C	1.585638	-1.060313	0.573441
C32	C	1.451322	-1.060502	0.438947
C33	C	1.451269	-0.950780	0.438927
C34	C	1.652728	-0.895635	0.640647
C35	C	1.719915	-0.950398	0.707907
C36	C	1.719964	-1.060122	0.707933
C37	C	1.652826	-1.115083	0.640699
C38	C	1.792424	-0.506108	0.506164
C39	C	1.909201	-0.506119	0.506170
C40	C	1.518464	-0.505976	0.780182
C41	C	1.518496	-0.505931	0.896959
C42	C	1.518475	-0.232049	0.506188
C43	C	1.518510	-0.115272	0.506205
C44	C	1.518378	-0.506112	0.233181
C45	C	1.518550	-0.505861	0.116405
C46	C	1.585722	-0.438735	0.951836
C47	C	1.585747	-0.438697	1.061560
C48	C	1.451316	-0.573061	1.061520
C49	C	1.451287	-0.573093	0.951798
C50	C	1.652930	-0.371573	0.896997
C51	C	1.720163	-0.304372	0.951874
C52	C	1.720188	-0.304334	1.061598
C53	C	1.652980	-0.371497	1.116445
H54	H	1.118573	-0.250105	0.762885
H55	H	1.652698	-0.806292	0.640632
H56	H	1.396563	-0.906192	0.384163
H57	H	0.819909	-0.371887	0.640775
H58	H	1.396529	-0.627794	0.907116
H59	H	1.218045	-0.371834	0.640776
H60	H	1.396599	-0.627741	1.106185
H61	H	1.652859	-1.204428	0.640737
H62	H	1.652920	-0.371599	0.807654
H63	H	1.774874	-0.249684	0.907210
H64	H	1.396662	-1.105260	0.384208
H65	H	1.774924	-0.249608	1.106276
H66	H	1.774571	-0.905643	0.762653
H67	H	0.919508	-0.250135	0.762901
H68	H	0.919335	-0.627865	0.384054
H69	H	1.652994	-0.371449	1.205790
H70	H	1.118405	-0.627826	0.384032
H71	H	1.774662	-1.104707	0.762707
