data_functionalizedCrystal
_audit_creation_method	'MofGen! by Chris Wilmer'
_symmetry_space_group_name_H-M	'P1'
_symmetry_Int_Tables_number	1
_symmetry_cell_setting	triclinic
loop_
_symmetry_equiv_pos_as_xyz
  x,y,z
_cell_length_a	12.759400
_cell_length_b	19.805407
_cell_length_c	19.805399
_cell_angle_alpha	89.983114
_cell_angle_beta	90.019137
_cell_angle_gamma	89.996893
loop_
_atom_site_label
_atom_site_type_symbol
_atom_site_fract_x
_atom_site_fract_y
_atom_site_fract_z
Zn1	Zn	0.418276	1.034827	-0.382766
Zn2	Zn	0.918276	1.534827	0.117234
Zn3	Zn	0.593974	1.034794	-0.269597
Zn4	Zn	1.093974	1.534794	0.230403
Zn5	Zn	0.418309	0.921647	-0.269591
Zn6	Zn	0.918309	1.421647	0.230409
Zn7	Zn	0.593913	0.921652	-0.382744
Zn8	Zn	1.093913	1.421652	0.117256
O9	O	0.506118	0.978230	-0.326174
O10	O	1.006118	1.478230	0.173826
O11	O	0.441594	1.129539	-0.367766
O12	O	0.941594	1.629539	0.132234
O13	O	0.570710	1.019769	-0.174880
O14	O	1.070710	1.519769	0.325120
O15	O	0.271284	0.936673	-0.284610
O16	O	0.771284	1.436673	0.215390
O17	O	0.570678	1.129515	-0.284621
O18	O	1.070678	1.629515	0.215379
O19	O	0.271259	1.019826	-0.367759
O20	O	0.771259	1.519826	0.132241
O21	O	0.441651	0.936640	-0.174875
O22	O	0.941651	1.436640	0.325125
O23	O	0.441592	0.826931	-0.284589
O24	O	0.941592	1.326931	0.215411
O25	O	0.570576	0.936680	-0.477464
O26	O	1.070576	1.436680	0.022536
O27	O	0.570608	0.826934	-0.367722
O28	O	1.070608	1.326934	0.132278
O29	O	0.441536	1.019830	-0.477480
O30	O	0.941536	1.519830	0.022520
O31	O	0.740987	1.019773	-0.284600
O32	O	1.240987	1.519773	0.215400
O33	O	0.740942	0.936648	-0.367728
O34	O	1.240942	1.436648	0.132272
C35	C	0.506098	0.802374	-0.326153
C36	C	1.006098	1.302374	0.173847
C37	C	0.506115	0.727142	-0.326159
C38	C	1.006115	1.227142	0.173841
C39	C	0.573394	0.691817	-0.369377
C40	C	1.073394	1.191817	0.130623
C41	C	0.573396	0.621129	-0.369386
C42	C	1.073396	1.121129	0.130614
C43	C	0.506123	0.585766	-0.326174
C44	C	1.006123	1.085766	0.173826
C45	C	0.438836	0.621096	-0.282955
C46	C	0.938836	1.121096	0.217045
C47	C	0.438830	0.691783	-0.282949
C48	C	0.938830	1.191783	0.217051
C49	C	0.438859	0.336023	-0.282977
C50	C	0.938859	0.836023	0.217023
C51	C	0.438873	0.265331	-0.282985
C52	C	0.938873	0.765331	0.217015
C53	C	0.573426	0.265368	-0.369414
C54	C	1.073426	0.765368	0.130586
C55	C	0.573419	0.336055	-0.369409
C56	C	1.073419	0.836055	0.130591
C57	C	0.506129	0.371379	-0.326192
C58	C	1.006129	0.871379	0.173808
C59	C	0.506126	0.448027	-0.326183
C60	C	1.006126	0.948027	0.173817
C61	C	0.506130	0.509119	-0.326179
C62	C	1.006130	1.009119	0.173821
C63	C	0.232085	0.978253	-0.326186
C64	C	0.732085	1.478253	0.173814
C65	C	0.115308	0.978263	-0.326192
C66	C	0.615308	1.478263	0.173808
C67	C	0.060426	0.934989	-0.369472
C68	C	0.560426	1.434989	0.130528
C69	C	-0.049299	0.935001	-0.369479
C70	C	0.450701	1.435001	0.130521
C71	C	-0.049248	1.021564	-0.282919
C72	C	0.450752	1.521564	0.217081
C73	C	0.060474	1.021555	-0.282916
C74	C	0.560474	1.521555	0.217084
C75	C	-0.199288	0.910843	-0.449304
C76	C	0.300712	1.410843	0.050696
C77	C	-0.254175	0.867558	-0.492579
C78	C	0.245825	1.367558	0.007421
C79	C	-0.218577	0.801513	-0.502960
C80	C	0.281423	1.301513	-0.002960
C81	C	-0.128095	0.778739	-0.470057
C82	C	0.371905	1.278739	0.029943
C83	C	-0.073214	0.822020	-0.426777
C84	C	0.426786	1.322020	0.073223
C85	C	-0.108810	0.888075	-0.416408
C86	C	0.391190	1.388075	0.083592
C87	C	0.210466	1.045706	-0.203090
C88	C	0.710466	1.545706	0.296910
C89	C	0.265349	1.088984	-0.159806
C90	C	0.765349	1.588984	0.340194
C91	C	0.229754	1.155031	-0.149418
C92	C	0.729754	1.655031	0.350582
C93	C	0.139268	1.177802	-0.182309
C94	C	0.639268	1.677802	0.317691
C95	C	0.084385	1.134524	-0.225593
C96	C	0.584385	1.634524	0.274407
C97	C	0.119988	1.068478	-0.235982
C98	C	0.619988	1.568478	0.264018
C99	C	0.779085	0.978225	-0.326177
C100	C	1.279085	1.478225	0.173823
C101	C	0.895862	0.978285	-0.326201
C102	C	1.395862	1.478285	0.173799
C103	C	0.506045	0.978260	-0.502717
C104	C	1.006045	1.478260	-0.002717
C105	C	0.506014	0.978272	-0.577949
C106	C	1.006014	1.478272	-0.077949
C107	C	0.506139	1.154773	-0.326197
C108	C	1.006139	1.654773	0.173803
C109	C	0.506148	1.230005	-0.326206
C110	C	1.006148	1.730005	0.173794
C111	C	0.438806	0.935000	-0.613290
C112	C	0.938806	1.435000	-0.113290
C113	C	0.438786	0.935009	-0.683979
C114	C	0.938786	1.435009	-0.183979
C115	C	0.505969	0.978295	-0.719325
C116	C	1.005969	1.478295	-0.219325
C117	C	0.573184	1.021569	-0.683979
C118	C	1.073184	1.521569	-0.183979
C119	C	0.573209	1.021556	-0.613292
C120	C	1.073209	1.521556	-0.113292
C121	C	0.573086	1.021623	-0.969052
C122	C	1.073086	1.521623	-0.469052
C123	C	0.573053	1.021634	-1.039744
C124	C	1.073053	1.521634	-0.539744
C125	C	0.438663	0.935076	-1.039739
C126	C	0.938663	1.435076	-0.539739
C127	C	0.438688	0.935063	-0.969052
C128	C	0.938688	1.435063	-0.469052
C129	C	0.505906	0.978334	-0.933712
C130	C	1.005906	1.478334	-0.433712
C131	C	0.505929	0.978323	-0.857064
C132	C	1.005929	1.478323	-0.357064
C133	C	0.505941	0.978310	-0.795972
C134	C	1.005941	1.478310	-0.295972
C135	C	0.506115	0.978239	-0.150318
C136	C	1.006115	1.478239	0.349682
C137	C	0.505850	0.978358	-0.075087
C138	C	1.005850	1.478358	0.424913
H139	H	0.628180	0.720604	-0.404563
H140	H	1.128180	1.220604	0.095437
H141	H	0.628213	0.236599	-0.404606
H142	H	1.128213	0.736599	0.095394
H143	H	0.000455	0.803479	-0.399988
H144	H	0.500455	1.303479	0.100012
C145	C	0.647429	0.582275	-0.416916
C146	C	1.147429	1.082275	0.083084
N147	N	0.703201	0.553010	-0.452713
N148	N	1.203201	1.053010	0.047287
C149	C	0.364728	0.887471	-1.078620
C150	C	0.864728	1.387471	-0.578620
N151	N	0.309040	0.851616	-1.107903
N152	N	0.809040	1.351616	-0.607903
C153	C	0.364855	0.226434	-0.235451
C154	C	0.864855	0.726434	0.264549
N155	N	0.309107	0.197136	-0.199652
N156	N	0.809107	0.697136	0.300348
H157	H	0.627891	1.056810	-0.712763
H158	H	1.127891	1.556810	-0.212763
C159	C	-0.088950	0.706081	-0.481474
C160	C	0.411050	1.206081	0.018526
N161	N	-0.059462	0.651354	-0.490076
N162	N	0.440538	1.151354	0.009924
C163	C	0.249633	0.973051	-0.214517
C164	C	0.749633	1.473051	0.285483
N165	N	0.279133	0.918327	-0.223121
N166	N	0.779133	1.418327	0.276879
H167	H	0.384075	0.364775	-0.247783
H168	H	0.884075	0.864775	0.252217
H169	H	0.274445	1.190265	-0.114168
H170	H	0.774445	1.690265	0.385832
H171	H	-0.327846	0.886107	-0.519368
H172	H	0.172154	1.386107	-0.019368
H173	H	0.627766	1.056884	-1.068521
H174	H	1.127766	1.556884	-0.568521
H175	H	0.384038	0.720544	-0.247761
H176	H	0.884038	1.220544	0.252239
C177	C	0.646970	1.069261	-0.930188
C178	C	1.146970	1.569261	-0.430188
N179	N	0.702602	1.105157	-0.900912
N180	N	1.202602	1.605157	-0.400912
C181	C	-0.238451	0.983498	-0.437892
C182	C	0.261549	1.483498	0.062108
N183	N	-0.267955	1.038222	-0.429294
N184	N	0.232045	1.538222	0.070706
H185	H	0.384056	0.592298	-0.247774
H186	H	0.884056	1.092298	0.252226
C187	C	0.647138	1.069162	-0.574417
C188	C	1.147138	1.569162	-0.074417
N189	N	0.702825	1.105020	-0.545137
N190	N	1.202825	1.605020	-0.045137
H191	H	0.628204	0.364844	-0.404594
H192	H	1.128204	0.864844	0.095406
H193	H	0.383977	0.899817	-0.940277
H194	H	0.883977	1.399817	-0.440277
H195	H	0.105068	0.899742	-0.404715
H196	H	0.605068	1.399742	0.095285
H197	H	-0.263275	0.766270	-0.538195
H198	H	0.236725	1.266270	-0.038195
H199	H	-0.093904	1.056811	-0.247683
H200	H	0.406096	1.556811	0.252317
C201	C	-0.015147	1.159577	-0.261780
C202	C	0.484853	1.659577	0.238220
N203	N	-0.090111	1.178448	-0.289037
N204	N	0.409889	1.678448	0.210963
C205	C	0.364888	1.063933	-0.123626
C206	C	0.864888	1.563933	0.376374
N207	N	0.439863	1.045066	-0.096378
N208	N	0.939863	1.545066	0.403622
C209	C	0.100110	1.250457	-0.170883
C210	C	0.600110	1.750457	0.329117
N211	N	0.070619	1.305182	-0.162275
N212	N	0.570619	1.805182	0.337725
H213	H	0.384092	0.899755	-0.584517
H214	H	0.884092	1.399755	-0.084517
H215	H	0.384063	0.899770	-0.712750
H216	H	0.884063	1.399770	-0.212750
