data_functionalizedCrystal
_audit_creation_method	'MofGen! by Chris Wilmer'
_symmetry_space_group_name_H-M	'P1'
_symmetry_Int_Tables_number	1
_symmetry_cell_setting	triclinic
loop_
_symmetry_equiv_pos_as_xyz
  x,y,z
_cell_length_a	16.120256
_cell_length_b	10.686220
_cell_length_c	10.686285
_cell_angle_alpha	89.654569
_cell_angle_beta	88.729351
_cell_angle_gamma	82.988389
loop_
_atom_site_label
_atom_site_type_symbol
_atom_site_fract_x
_atom_site_fract_y
_atom_site_fract_z
Zn1	Zn	-0.354352	-1.931206	-0.381236
Zn2	Zn	0.145648	-1.431206	0.118764
Zn3	Zn	-0.203616	-1.957822	-0.578626
Zn4	Zn	0.296384	-1.457822	-0.078626
Zn5	Zn	-0.224835	-1.730560	-0.386738
Zn6	Zn	0.275165	-1.230560	0.113262
Zn7	Zn	-0.352698	-1.737648	-0.606922
Zn8	Zn	0.147302	-1.237648	-0.106922
O9	O	-0.283875	-1.839309	-0.488381
O10	O	0.216125	-1.339309	0.011619
O11	O	-0.326169	-2.110851	-0.393277
O12	O	0.173831	-1.610851	0.106723
O13	O	-0.089836	-1.935847	-0.543633
O14	O	0.410164	-1.435847	-0.043633
O15	O	-0.251588	-1.743071	-0.211252
O16	O	0.248412	-1.243071	0.288748
O17	O	-0.215424	-2.130406	-0.538298
O18	O	0.284576	-1.630406	-0.038298
O19	O	-0.346744	-1.890485	-0.207210
O20	O	0.153256	-1.390485	0.292790
O21	O	-0.105425	-1.768879	-0.402653
O22	O	0.394575	-1.268879	0.097347
O23	O	-0.249984	-1.555385	-0.430090
O24	O	0.250016	-1.055385	0.069910
O25	O	-0.469512	-1.755151	-0.586523
O26	O	0.030488	-1.255151	-0.086523
O27	O	-0.343924	-1.560593	-0.591858
O28	O	0.156076	-1.060593	-0.091858
O29	O	-0.470728	-1.897358	-0.420713
O30	O	0.029272	-1.397358	0.079287
O31	O	-0.213819	-1.942720	-0.757136
O32	O	0.286181	-1.442720	-0.257136
O33	O	-0.323349	-1.780960	-0.777924
O34	O	0.176651	-1.280960	-0.277924
C35	C	-0.299077	-1.512325	-0.514642
C36	C	0.200923	-1.012325	-0.014642
C37	C	-0.305599	-1.372440	-0.525909
C38	C	0.194401	-0.872440	-0.025909
C39	C	-0.266119	-1.865530	-0.812841
C40	C	0.233881	-1.365530	-0.312841
C41	C	-0.258545	-1.876861	-0.951640
C42	C	0.241455	-1.376861	-0.451640
C43	C	-0.501197	-1.824076	-0.506161
C44	C	-0.001197	-1.324076	-0.006161
C45	C	-0.593806	-1.817585	-0.513738
C46	C	-0.093806	-1.317585	-0.013738
C47	C	-0.805236	-1.873155	-0.448836
C48	C	-0.305236	-1.373155	0.051164
C49	C	-0.763365	-1.805688	-0.527523
C50	C	-0.263365	-1.305688	-0.027523
C51	C	-0.669014	-1.812309	-0.519851
C52	C	-0.169014	-1.312309	-0.019851
C53	C	-0.899595	-1.866535	-0.456507
C54	C	-0.399595	-1.366535	0.043493
C55	C	-0.067400	-1.854547	-0.470573
C56	C	0.432600	-1.354547	0.029427
C57	C	0.025201	-1.861254	-0.462625
C58	C	0.525201	-1.361254	0.037375
C59	C	-0.268614	-2.167570	-0.462017
C60	C	0.231386	-1.667570	0.037983
C61	C	-0.262111	-2.307455	-0.450783
C62	C	0.237889	-1.807455	0.049217
C63	C	-0.301717	-1.813018	-0.162652
C64	C	0.198283	-1.313018	0.337348
C65	C	-0.309321	-1.801815	-0.023845
C66	C	0.190679	-1.301815	0.476155
H67	H	-0.798379	-1.742946	-0.600645
H68	H	-0.298379	-1.242946	-0.100645
Br69	Br	-0.391436	-1.680273	-0.949903
Br70	Br	0.108564	-1.180273	-0.449903
Br71	Br	-0.746883	-1.977689	-0.326939
Br72	Br	-0.246883	-1.477689	0.173061
Br73	Br	-0.176413	-1.998388	-1.025587
Br74	Br	0.323587	-1.498388	-0.525587
Br75	Br	-0.191731	-1.393086	-0.329215
Br76	Br	0.308269	-0.893086	0.170785
H77	H	-0.347819	-1.321056	-0.598858
H78	H	0.152181	-0.821056	-0.098858
