data_functionalizedCrystal
_audit_creation_method	'MofGen! by Chris Wilmer'
_symmetry_space_group_name_H-M	'P1'
_symmetry_Int_Tables_number	1
_symmetry_cell_setting	triclinic
loop_
_symmetry_equiv_pos_as_xyz
  x,y,z
_cell_length_a	10.686220
_cell_length_b	16.959454
_cell_length_c	10.686551
_cell_angle_alpha	94.404578
_cell_angle_beta	89.691918
_cell_angle_gamma	94.401635
loop_
_atom_site_label
_atom_site_type_symbol
_atom_site_fract_x
_atom_site_fract_y
_atom_site_fract_z
Zn1	Zn	1.972261	-0.192706	0.562392
Zn2	Zn	1.956011	-0.335773	0.352638
Zn3	Zn	1.746376	-0.212926	0.368710
Zn4	Zn	1.762442	-0.334171	0.578415
O5	O	1.859272	-0.268894	0.465539
O6	O	2.145648	-0.203892	0.521135
O7	O	1.914679	-0.328610	0.179225
O8	O	1.776417	-0.099628	0.394423
O9	O	2.133710	-0.309003	0.367030
O10	O	1.942373	-0.084773	0.536720
O11	O	1.760661	-0.238355	0.191033
O12	O	1.572964	-0.236801	0.409960
O13	O	1.803798	-0.306273	0.751835
O14	O	1.584768	-0.325880	0.564030
O15	O	1.957951	-0.202339	0.740063
O16	O	1.930257	-0.446176	0.382567
O17	O	1.788042	-0.444999	0.548445
C18	C	1.533350	-0.283361	0.490478
C19	C	1.393921	-0.289568	0.501177
C20	C	1.859166	-0.474266	0.465525
C21	C	1.859238	-0.562118	0.465553
C22	C	1.785337	-0.933005	0.551894
C23	C	1.933567	-0.934158	0.379285
C24	C	1.933522	-0.851615	0.379276
C25	C	1.859382	-0.809763	0.465577
C26	C	1.785287	-0.850454	0.551886
C27	C	2.007607	-0.810918	0.292961
C28	C	2.007564	-0.728369	0.292948
C29	C	1.933430	-0.686515	0.379256
C30	C	1.859333	-0.727212	0.465569
C31	C	1.785193	-0.685360	0.551870
C32	C	1.711101	-0.726054	0.638190
C33	C	1.711153	-0.808600	0.638193
C34	C	1.933378	-0.603970	0.379252
C35	C	1.785143	-0.602809	0.551862
C36	C	2.186468	-0.254371	0.440502
C37	C	2.325899	-0.248182	0.429834
C38	C	1.884480	-0.251872	0.792738
C39	C	1.895221	-0.244618	0.932171
C40	C	1.859416	-0.062717	0.465577
C41	C	1.859477	0.025143	0.465593
C42	C	1.834236	-0.285790	0.139606
C43	C	1.823737	-0.292810	0.000156
H44	H	1.345483	-0.329756	0.570441
C45	C	1.730983	-0.355188	0.935721
C46	C	1.609300	-0.341868	0.977027
C47	C	1.523827	-0.399323	0.917704
H48	H	1.735649	-0.351995	0.847445
H49	H	1.750871	-0.406395	0.955759
H50	H	1.589418	-0.290673	0.956980
H51	H	1.604594	-0.345068	1.065295
H52	H	1.543714	-0.450531	0.937742
H53	H	1.528503	-0.396126	0.829430
H54	H	1.441257	-0.390298	0.945730
C55	C	2.087925	-0.684306	0.199044
C56	C	2.051185	-0.712094	0.076986
C57	C	2.125201	-0.671528	-0.009547
H58	H	2.077353	-0.629143	0.211222
H59	H	2.173636	-0.693115	0.210953
H60	H	1.965495	-0.703279	0.065082
H61	H	2.061762	-0.767252	0.064769
H62	H	2.210912	-0.680337	0.002362
H63	H	2.114623	-0.616367	0.002642
H64	H	2.100291	-0.690382	-0.092373
C65	C	1.704516	-0.557519	0.645625
C66	C	1.639626	-0.610829	0.721196
C67	C	1.565331	-0.569138	0.807574
H68	H	1.756523	-0.520308	0.696768
H69	H	1.646107	-0.530296	0.601806
H70	H	1.698028	-0.638039	0.765012
H71	H	1.587596	-0.648041	0.670088
H72	H	1.506922	-0.541914	0.763755
H73	H	1.617347	-0.531928	0.858707
H74	H	1.521286	-0.605302	0.858851
H75	H	1.964650	-0.197809	0.980643
H76	H	2.067958	-0.845000	0.222691
C77	C	1.630743	-0.852931	0.731754
C78	C	1.646626	-0.934182	0.713259
C79	C	1.572556	-0.975048	0.799408
H80	H	1.655437	-0.834286	0.814716
H81	H	1.545018	-0.844193	0.719758
H82	H	1.732332	-0.942915	0.725266
H83	H	1.621923	-0.952850	0.630315
H84	H	1.486831	-0.966310	0.787412
H85	H	1.597257	-0.956397	0.882364
H86	H	1.583313	-1.030181	0.786863
H87	H	1.374330	-0.208002	0.360567
H88	H	1.650730	-0.691970	0.708451
H89	H	1.993921	-0.968239	0.309016
C90	C	2.013716	-0.559901	0.285344
C91	C	1.976958	-0.587691	0.163292
C92	C	2.050952	-0.547121	0.076746
H93	H	2.003137	-0.504739	0.297524
H94	H	2.099432	-0.568705	0.297237
H95	H	1.891264	-0.578881	0.151403
H96	H	1.987542	-0.642848	0.151071
H97	H	2.136667	-0.555925	0.088640
H98	H	2.040366	-0.491961	0.088938
H99	H	2.026029	-0.565976	-0.006075
H100	H	1.725017	-0.966141	0.622177
