data_functionalizedCrystal
_audit_creation_method	'MofGen! by Chris Wilmer'
_symmetry_space_group_name_H-M	'P1'
_symmetry_Int_Tables_number	1
_symmetry_cell_setting	triclinic
loop_
_symmetry_equiv_pos_as_xyz
  x,y,z
_cell_length_a	14.519731
_cell_length_b	12.996460
_cell_length_c	16.992695
_cell_angle_alpha	89.993670
_cell_angle_beta	92.821462
_cell_angle_gamma	90.005673
loop_
_atom_site_label
_atom_site_type_symbol
_atom_site_fract_x
_atom_site_fract_y
_atom_site_fract_z
O1	O	1.231239	0.085570	-0.102876
O2	O	0.963632	0.085572	-0.114964
O3	O	1.096363	0.085563	0.005224
O4	O	1.098508	0.085579	-0.223065
O5	O	1.096348	-0.085571	0.005230
O6	O	0.963617	-0.085562	-0.114958
O7	O	1.231224	-0.085564	-0.102870
Cu8	Cu	1.097419	-0.101189	-0.108913
Cu9	Cu	1.097437	0.101197	-0.108921
O10	O	1.098493	-0.085555	-0.223058
C11	C	0.929225	0.000005	-0.114395
C12	C	0.826723	0.000006	-0.112697
C13	C	0.743479	0.000010	-0.111318
C14	C	0.639047	0.000010	-0.109595
C15	C	0.555810	0.000010	-0.108227
C16	C	0.451371	0.000012	-0.106504
N17	N	1.097413	-0.243536	-0.108907
C18	C	1.097436	-0.663350	-0.108922
C19	C	1.097427	-0.546545	-0.108920
C20	C	1.097425	-0.453447	-0.108915
C21	C	1.097415	-0.336634	-0.108912
C22	C	1.265632	0.000005	-0.103439
C23	C	1.368134	0.000012	-0.105137
C24	C	1.093595	-0.000004	0.034444
C25	C	1.085360	-0.000003	0.121500
N26	N	1.097450	0.243544	-0.108921
C27	C	1.101261	0.000015	-0.252278
C28	C	1.109496	0.000021	-0.339334
C29	C	1.164819	-0.000005	0.171624
C30	C	1.157076	0.000005	0.253422
C31	C	1.069872	0.000009	0.285094
C32	C	0.990407	0.000013	0.234964
C33	C	0.998151	0.000011	0.153168
C34	C	1.037775	0.000023	0.528739
C35	C	1.030037	0.000023	0.610542
C36	C	1.196707	0.000016	0.628994
C37	C	1.204443	0.000007	0.547195
C38	C	1.124978	0.000017	0.497072
N39	N	1.061955	0.000016	0.368705
N40	N	1.132896	0.000018	0.413463
H41	H	1.235830	-0.000015	0.145843
H42	H	1.221781	0.000001	0.294230
H43	H	1.275454	0.000004	0.521414
H44	H	1.261403	0.000009	0.669813
H45	H	0.973068	0.000031	0.487938
H46	H	0.959022	0.000009	0.636326
O47	O	0.905767	-0.000028	0.265858
C48	C	0.915968	-0.000004	0.348802
H49	H	0.986525	-0.032404	0.367908
H50	H	0.909828	0.082097	0.371571
C51	C	0.753435	-0.027322	0.359375
C52	C	0.840092	-0.067124	0.382841
H53	H	0.706629	-0.068720	0.380372
H54	H	0.746561	-0.027334	0.303494
H55	H	0.748331	0.041095	0.378350
H56	H	0.845199	-0.135535	0.363857
H57	H	0.846965	-0.067125	0.438719
O58	O	0.920870	-0.000033	0.104587
C59	C	0.842241	-0.000003	0.150079
H60	H	0.861145	-0.032406	0.211094
H61	H	0.815807	0.082101	0.155936
C62	C	0.743303	-0.027309	0.034501
C63	C	0.766520	-0.067115	0.109438
H64	H	0.696592	-0.068702	0.009430
H65	H	0.796276	-0.027325	0.003850
H66	H	0.721280	0.041110	0.039392
H67	H	0.788553	-0.135528	0.104545
H68	H	0.713548	-0.067112	0.140086
