data_functionalizedCrystal
_audit_creation_method	'MofGen! by Chris Wilmer'
_symmetry_space_group_name_H-M	'P1'
_symmetry_Int_Tables_number	1
_symmetry_cell_setting	triclinic
loop_
_symmetry_equiv_pos_as_xyz
  x,y,z
_cell_length_a	6.817900
_cell_length_b	12.000057
_cell_length_c	14.125286
_cell_angle_alpha	92.872387
_cell_angle_beta	100.396688
_cell_angle_gamma	119.141479
loop_
_atom_site_label
_atom_site_type_symbol
_atom_site_fract_x
_atom_site_fract_y
_atom_site_fract_z
V1	V	-4.077802	-0.175872	-0.301605
O2	O	-3.974875	0.009467	-0.294193
O3	O	-4.115018	-0.349701	-0.301148
O4	O	-4.012405	-0.172721	-0.432412
O5	O	-4.078199	-0.168739	-0.162021
V6	V	-4.552539	-0.153756	-0.284714
O7	O	-4.358334	-0.224385	-0.338655
O8	O	-4.722204	-0.105243	-0.247663
O9	O	-4.292116	0.020074	-0.285170
O10	O	-4.772863	-0.339095	-0.292126
O11	O	-4.669539	-0.160889	-0.424298
O12	O	-4.394730	-0.156907	-0.153907
C13	C	-3.981397	-0.392091	-0.296805
C14	C	-4.092999	-0.534196	-0.297304
C15	C	-3.850501	-0.166333	-0.464243
C16	C	-3.878882	-0.164907	-0.571190
C17	C	-4.082522	-0.738252	-0.293417
C18	C	-3.967173	-0.591380	-0.292905
C19	C	-4.118927	-0.167498	-0.819335
C20	C	-3.930794	-0.162128	-0.766972
C21	C	-3.901911	-0.163675	-0.658028
C22	C	-4.147818	-0.165951	-0.928288
C23	C	-4.089083	0.062457	-0.289511
C24	C	-3.956720	0.204560	-0.289019
C25	C	-4.219978	-0.163299	-0.122070
C26	C	-4.170833	-0.164718	-0.015123
H27	H	-3.774062	-0.531610	-0.288755
N28	N	-3.700942	-0.716277	-0.283539
H29	H	-3.632835	-0.774620	-0.280677
H30	H	-3.623181	-0.648373	-0.223103
N31	N	-4.348795	-0.613356	-0.302804
H32	H	-4.416898	-0.555012	-0.305670
H33	H	-4.373947	-0.656821	-0.243172
N34	N	-4.338213	-0.817370	-0.298699
H35	H	-4.384327	-0.911056	-0.298218
H36	H	-4.427316	-0.809259	-0.360717
N37	N	-3.746167	-0.154499	-0.815957
H38	H	-3.793291	-0.154463	-0.887968
H39	H	-3.726218	-0.231551	-0.806403
H40	H	-4.258290	-0.173259	-0.782349
