data_functionalizedCrystal
_audit_creation_method	'MofGen! by Chris Wilmer'
_symmetry_space_group_name_H-M	'P1'
_symmetry_Int_Tables_number	1
_symmetry_cell_setting	triclinic
loop_
_symmetry_equiv_pos_as_xyz
  x,y,z
_cell_length_a	14.044220
_cell_length_b	11.792241
_cell_length_c	13.101018
_cell_angle_alpha	93.381193
_cell_angle_beta	93.664400
_cell_angle_gamma	91.308853
loop_
_atom_site_label
_atom_site_type_symbol
_atom_site_fract_x
_atom_site_fract_y
_atom_site_fract_z
O1	O	0.124794	-1.524830	-0.085117
O2	O	0.624794	-1.024830	0.414883
O3	O	0.138189	-1.195748	-0.085141
O4	O	0.638189	-0.695748	0.414859
O5	O	-0.006518	-1.355348	-0.085119
O6	O	0.493482	-0.855348	0.414881
O7	O	0.269501	-1.365229	-0.085139
O8	O	0.769501	-0.865229	0.414861
O9	O	0.003874	-1.343884	0.085309
O10	O	0.503874	-0.843884	0.585309
O11	O	0.148581	-1.184283	0.085288
O12	O	0.648581	-0.684283	0.585288
O13	O	0.135186	-1.513365	0.085312
O14	O	0.635186	-1.013365	0.585312
Zn15	Zn	0.143533	-1.347004	0.112359
Zn16	Zn	0.643533	-0.847004	0.612359
Zn17	Zn	0.129842	-1.362109	-0.112188
Zn18	Zn	0.629842	-0.862109	0.387812
O19	O	0.279893	-1.353764	0.085290
O20	O	0.779893	-0.853764	0.585290
C21	C	-0.036659	-1.345292	0.000095
C22	C	0.463341	-0.845292	0.500095
C23	C	-0.141951	-1.332393	0.000095
C24	C	0.358049	-0.832393	0.500095
C25	C	0.142543	-1.147646	0.000070
C26	C	0.642543	-0.647646	0.500070
C27	C	0.140024	-1.021396	0.000061
C28	C	0.640024	-0.521396	0.500061
N29	N	0.152877	-1.336703	0.265606
N30	N	0.652877	-0.836703	0.765606
C31	C	-0.334734	-1.308812	0.000079
C32	C	0.165266	-0.808812	0.500079
C33	C	-0.391897	-1.400296	0.000083
C34	C	0.108103	-0.900296	0.500083
C35	C	-0.499168	-1.387176	0.000073
C36	C	0.000832	-0.887176	0.500073
C37	C	-0.227453	-1.321931	0.000088
C38	C	0.272547	-0.821931	0.500088
C39	C	0.310033	-1.363821	0.000073
C40	C	0.810033	-0.863821	0.500073
C41	C	0.415325	-1.376720	0.000066
C42	C	0.915325	-0.876720	0.500066
C43	C	0.130832	-1.561467	0.000098
C44	C	0.630832	-1.061467	0.500098
C45	C	0.133350	-1.687717	0.000100
C46	C	0.633350	-1.187717	0.500100
C47	C	0.135394	-0.790247	0.000091
C48	C	0.635394	-0.290247	0.500091
C49	C	0.137967	-0.918875	0.000075
C50	C	0.637967	-0.418875	0.500075
N51	N	0.120491	-1.372418	-0.265436
N52	N	0.620491	-0.872418	0.234564
C53	C	0.107775	-1.386426	0.525523
C54	C	0.607775	-0.886426	1.025523
C55	C	0.165589	-1.322698	0.474641
C56	C	0.665589	-0.822698	0.974641
C57	C	0.158514	-1.330493	0.358323
C58	C	0.658514	-0.830493	0.858323
C59	C	0.114849	-1.378633	0.641851
C60	C	0.614849	-0.878633	1.141851
H61	H	-0.360277	-1.488478	0.000020
H62	H	0.139723	-0.988478	0.500020
O63	O	0.042363	-1.458362	0.473161
O64	O	0.542363	-0.958362	0.973161
C65	C	-0.020185	-1.395697	0.411105
C66	C	0.479815	-0.895697	0.911105
H67	H	0.016156	-1.311721	0.395178
H68	H	0.516156	-0.811721	0.895178
H69	H	-0.087861	-1.378152	0.452356
H70	H	0.412139	-0.878152	0.952356
C71	C	-0.090817	-1.567527	0.328671
C72	C	0.409183	-1.067527	0.828671
C73	C	-0.046179	-1.464390	0.309102
C74	C	0.453821	-0.964390	0.809102
H75	H	-0.106855	-1.609900	0.265752
H76	H	0.393145	-1.109900	0.765752
H77	H	-0.048680	-1.609746	0.370482
H78	H	0.451320	-1.109746	0.870482
H79	H	-0.147209	-1.552891	0.363049
H80	H	0.352791	-1.052891	0.863049
H81	H	0.010217	-1.479027	0.274736
H82	H	0.510217	-0.979027	0.774736
H83	H	-0.088307	-1.422175	0.267283
H84	H	0.411693	-0.922175	0.767283
H85	H	-0.366357	-1.220642	0.000070
H86	H	0.133643	-0.720642	0.500070
H87	H	0.220400	-1.262287	0.518438
H88	H	0.720400	-0.762287	1.018438
