data_functionalizedCrystal
_audit_creation_method	'MofGen! by Chris Wilmer'
_symmetry_space_group_name_H-M	'P1'
_symmetry_Int_Tables_number	1
_symmetry_cell_setting	triclinic
loop_
_symmetry_equiv_pos_as_xyz
  x,y,z
_cell_length_a	17.640112
_cell_length_b	21.395361
_cell_length_c	21.395355
_cell_angle_alpha	89.978489
_cell_angle_beta	78.830983
_cell_angle_gamma	78.743552
loop_
_atom_site_label
_atom_site_type_symbol
_atom_site_fract_x
_atom_site_fract_y
_atom_site_fract_z
Zn1	Zn	1.208339	0.055627	0.160932
Zn2	Zn	1.708339	0.555627	0.660932
Zn3	Zn	1.208216	0.160407	0.056169
Zn4	Zn	1.708216	0.660407	0.556169
Zn5	Zn	1.076153	0.076837	0.077317
Zn6	Zn	1.576153	0.576837	0.577317
Zn7	Zn	1.076114	0.181587	0.182043
Zn8	Zn	1.576114	0.681587	0.682043
O9	O	1.142206	0.118615	0.119115
O10	O	1.642206	0.618615	0.619115
O11	O	1.318929	0.051786	0.129349
O12	O	1.818929	0.551786	0.629349
O13	O	1.190663	0.149334	-0.028698
O14	O	1.690663	0.649334	0.471302
O15	O	1.093756	-0.013665	0.088424
O16	O	1.593756	0.486335	0.588424
O17	O	1.318838	0.128767	0.052380
O18	O	1.818838	0.628767	0.552380
O19	O	1.190872	-0.029248	0.149856
O20	O	1.690872	0.470752	0.649856
O21	O	1.093636	0.087935	-0.013161
O22	O	1.593636	0.587935	0.486839
O23	O	0.965542	0.108473	0.108894
O24	O	1.465542	0.608473	0.608894
O25	O	1.093689	0.164866	0.266915
O26	O	1.593689	0.664866	0.766915
O27	O	0.965514	0.185432	0.185837
O28	O	1.465514	0.685432	0.685837
O29	O	1.190835	0.072324	0.251405
O30	O	1.690835	0.572324	0.751405
O31	O	1.190625	0.250905	0.072851
O32	O	1.690625	0.750905	0.572851
O33	O	1.093570	0.266466	0.165331
O34	O	1.593570	0.766466	0.665331
C35	C	0.936849	0.151553	0.151952
C36	C	1.436849	0.651553	0.651952
C37	C	0.848997	0.165659	0.166014
C38	C	1.348997	0.665659	0.666014
C39	C	1.142101	0.281419	0.119097
C40	C	1.642101	0.781419	0.619097
C41	C	1.142129	0.351056	0.119099
C42	C	1.642129	0.851056	0.619099
C43	C	1.142271	0.118591	0.282528
C44	C	1.642271	0.618591	0.782528
C45	C	1.142299	0.118582	0.352165
C46	C	1.642299	0.618582	0.852165
C47	C	0.560026	0.011440	0.012290
C48	C	1.060026	0.511440	0.512290
C49	C	0.477475	0.024707	0.025512
C50	C	0.977475	0.524707	0.525512
C51	C	0.477500	0.104955	0.105494
C52	C	0.977500	0.604955	0.605494
C53	C	0.560052	0.091692	0.092280
C54	C	1.060052	0.591692	0.592280
C55	C	0.601309	0.044934	0.045677
C56	C	1.101309	0.544934	0.545677
C57	C	0.601335	0.125187	0.125668
C58	C	1.101335	0.625187	0.625668
C59	C	0.683880	0.111927	0.112453
C60	C	1.183880	0.611927	0.612453
C61	C	0.725143	0.065172	0.065851
C62	C	1.225143	0.565172	0.565851
C63	C	0.683854	0.031674	0.032462
C64	C	1.183854	0.531674	0.532462
C65	C	0.560077	0.171948	0.172268
C66	C	1.060077	0.671948	0.672268
C67	C	0.601360	0.205442	0.205655
C68	C	1.101360	0.705442	0.705655
C69	C	0.683906	0.192179	0.192444
C70	C	1.183906	0.692179	0.692444
C71	C	0.725169	0.145425	0.145841
C72	C	1.225169	0.645425	0.645841
C73	C	0.725195	0.225677	0.225832
C74	C	1.225195	0.725677	0.725832
C75	C	0.807740	0.212417	0.212617
C76	C	1.307740	0.712417	0.712617
C77	C	0.807714	0.132165	0.132627
C78	C	1.307714	0.632165	0.632627
C79	C	1.348364	0.085548	0.086151
C80	C	1.848364	0.585548	0.586151
C81	C	1.436217	0.071457	0.072104
C82	C	1.936217	0.571457	0.572104
C83	C	1.142332	-0.044829	0.119144
C84	C	1.642332	0.455171	0.619144
C85	C	1.142386	-0.114479	0.119156
C86	C	1.642386	0.385521	0.619156
C87	C	1.192710	0.375638	0.070978
C88	C	1.692710	0.875638	0.570978
C89	C	1.192747	0.441068	0.070987
C90	C	1.692747	0.941068	0.570987
C91	C	1.142189	0.481915	0.119111
C92	C	1.642189	0.981915	0.619111
C93	C	1.091604	0.457325	0.167239
C94	C	1.591604	0.957325	0.667239
C95	C	1.091574	0.391895	0.167233
C96	C	1.591574	0.891895	0.667233
C97	C	1.071021	0.597049	0.135406
C98	C	1.571021	1.097049	0.635406
C99	C	1.071050	0.662477	0.135408
C100	C	1.571050	1.162477	0.635408
C101	C	1.142281	0.683721	0.119133
C102	C	1.642281	1.183721	0.619133
C103	C	1.213485	0.639527	0.102842
C104	C	1.713485	1.139527	0.602842
C105	C	1.213456	0.574098	0.102836
C106	C	1.713456	1.074098	0.602836
C107	C	1.142215	0.552863	0.119123
C108	C	1.642215	1.052863	0.619123
C109	C	1.192906	0.779249	0.071018
C110	C	1.692906	1.279249	0.571018
C111	C	1.192944	0.844679	0.071031
C112	C	1.692944	1.344679	0.571031
C113	C	1.091794	0.860936	0.167281
C114	C	1.591794	1.360936	0.667281
C115	C	1.091763	0.795505	0.167271
C116	C	1.591763	1.295505	0.667271
C117	C	1.142318	0.754666	0.119137
C118	C	1.642318	1.254666	0.619137
C119	C	1.142186	0.118585	-0.043669
C120	C	1.642186	0.618585	0.456331
C121	C	1.142311	0.118394	-0.113330
C122	C	1.642311	0.618394	0.386670
C123	C	1.192881	0.070394	0.376803
C124	C	1.692881	0.570394	0.876803
C125	C	1.192880	0.070367	0.442239
C126	C	1.692880	0.570367	0.942239
C127	C	1.142306	0.118538	0.483032
C128	C	1.642306	0.618538	0.983032
C129	C	1.091714	0.166730	0.458388
C130	C	1.591714	0.666730	0.958388
C131	C	1.091711	0.166752	0.392954
C132	C	1.591711	0.666752	0.892954
C133	C	1.136028	0.175960	0.587699
C134	C	1.636028	0.675960	1.087699
C135	C	1.136037	0.175939	0.653131
C136	C	1.636037	0.675939	1.153131
C137	C	1.142310	0.118471	0.684852
C138	C	1.642310	0.618471	1.184852
C139	C	1.148592	0.061020	0.651132
C140	C	1.648592	0.561020	1.151132
C141	C	1.148589	0.061042	0.585698
C142	C	1.648589	0.561042	1.085698
C143	C	1.142303	0.118519	0.553985
C144	C	1.642303	0.618519	1.053985
C145	C	1.192893	0.070250	0.780443
C146	C	1.692893	0.570250	1.280443
C147	C	1.192887	0.070223	0.845881
C148	C	1.692887	0.570223	1.345881
C149	C	1.091726	0.166592	0.862028
C150	C	1.591726	0.666592	1.362028
C151	C	1.091728	0.166614	0.796592
C152	C	1.591728	0.666614	1.296592
C153	C	1.142316	0.118443	0.755803
C154	C	1.642316	0.618443	1.255803
H155	H	0.841307	0.094081	0.094687
H156	H	1.341307	0.594081	0.594687
H157	H	0.567757	0.243514	0.243598
H158	H	1.067757	0.743514	0.743598
O159	O	1.290323	0.662426	0.085291
O160	O	1.790323	1.162426	0.585291
H161	H	1.278386	0.715346	0.088040
H162	H	1.778386	1.215346	0.588040
O163	O	0.680695	0.276108	0.276095
O164	O	1.180695	0.776108	0.776095
H165	H	0.616360	0.279700	0.279676
H166	H	1.116360	0.779700	0.779676
O167	O	0.471045	0.186256	0.186489
O168	O	0.971045	0.686256	0.686489
H169	H	0.449274	0.236993	0.177204
H170	H	0.949274	0.736993	0.677204
H171	H	1.153701	0.014264	0.558246
H172	H	1.653701	0.514264	1.058246
O173	O	1.247442	0.018438	0.332812
O174	O	1.747442	0.518438	0.832812
H175	H	1.212093	-0.007760	0.308643
H176	H	1.712093	0.492240	0.808643
H177	H	0.792356	0.054378	0.055091
H178	H	1.292356	0.554378	0.555091
H179	H	0.593619	-0.026645	-0.025650
H180	H	1.093619	0.473355	0.474350
H181	H	1.050534	0.205950	0.491607
H182	H	1.550534	0.705950	0.991607
H183	H	1.050384	0.371881	0.206419
H184	H	1.550384	0.871881	0.706419
H185	H	1.130927	0.222718	0.680580
H186	H	1.630927	0.722718	1.180580
O187	O	1.247420	0.018386	0.468834
O188	O	1.747420	0.518386	0.968834
H189	H	1.287604	0.039972	0.492238
H190	H	1.787604	0.539972	0.992238
O191	O	0.994187	0.574141	0.152956
O192	O	1.494187	1.074141	0.652956
H193	H	0.964668	0.591436	0.202232
H194	H	1.464668	1.091436	0.702232
H195	H	0.841353	0.239691	0.239805
H196	H	1.341353	0.739691	0.739805
O197	O	1.247504	0.871200	0.019131
O198	O	1.747504	1.371200	0.519131
H199	H	1.233963	0.860859	-0.027890
H200	H	1.733963	1.360859	0.472110
H201	H	1.234081	0.031024	0.747231
H202	H	1.734081	0.531024	1.247231
H203	H	1.013070	0.698455	0.148667
H204	H	1.513070	1.198455	0.648667
H205	H	0.443866	-0.002576	-0.001675
H206	H	0.943866	0.497424	0.498325
O207	O	0.728364	-0.018758	-0.017803
O208	O	1.228364	0.481242	0.482197
H209	H	0.685791	-0.039822	-0.038803
H210	H	1.185791	0.460178	0.461197
H211	H	1.233877	0.342388	0.031786
H212	H	1.733877	0.842388	0.531786
O213	O	1.290248	0.526431	0.085268
O214	O	1.790248	1.026431	0.585268
H215	H	1.298267	0.495300	0.125956
H216	H	1.798267	0.995300	0.625956
O217	O	1.247297	0.467595	0.019080
O218	O	1.747297	0.967595	0.519080
H219	H	1.282441	0.428205	-0.014394
H220	H	1.782441	0.928205	0.485606
O221	O	0.433001	0.155382	0.155761
O222	O	0.933001	0.655382	0.655761
H223	H	0.368666	0.158973	0.159345
H224	H	0.868666	0.658973	0.659345
H225	H	1.234074	0.745995	0.031826
H226	H	1.734074	1.245995	0.531826
H227	H	1.153702	0.014224	0.676958
H228	H	1.653702	0.514224	1.176958
O229	O	1.037070	0.501383	0.219140
O230	O	1.537070	1.001383	0.719140
H231	H	1.050594	0.486627	0.266160
H232	H	1.550594	0.986627	0.766160
O233	O	1.247446	0.018247	0.872459
O234	O	1.747446	0.518247	1.372459
H235	H	1.282626	-0.015238	0.833100
H236	H	1.782626	0.484762	1.333100
O237	O	1.037174	0.218550	0.906016
O238	O	1.537174	0.718550	1.406016
H239	H	1.045675	0.210442	0.955656
H240	H	1.545675	0.710442	1.455656
H241	H	1.050631	0.894192	0.206467
H242	H	1.550631	1.394192	0.706467
O243	O	1.037187	0.768988	0.219159
O244	O	1.537187	1.268988	0.719159
H245	H	1.002026	0.808383	0.252620
H246	H	1.502026	1.308383	0.752620
H247	H	1.050544	0.205857	0.776531
H248	H	1.550544	0.705857	1.276531
H249	H	1.130708	0.222780	0.561911
H250	H	1.630708	0.722780	1.061911
O251	O	1.037137	0.218717	0.366377
O252	O	1.537137	0.718717	0.866377
H253	H	1.001961	0.252207	0.405734
H254	H	1.501961	0.752207	0.905734
