data_functionalizedCrystal
_audit_creation_method	'MofGen! by Chris Wilmer'
_symmetry_space_group_name_H-M	'P1'
_symmetry_Int_Tables_number	1
_symmetry_cell_setting	triclinic
loop_
_symmetry_equiv_pos_as_xyz
  x,y,z
_cell_length_a	27.731994
_cell_length_b	27.732048
_cell_length_c	18.266242
_cell_angle_alpha	89.988683
_cell_angle_beta	89.997046
_cell_angle_gamma	82.631595
loop_
_atom_site_label
_atom_site_type_symbol
_atom_site_fract_x
_atom_site_fract_y
_atom_site_fract_z
O1	O	0.640947	0.057393	-0.060784
O2	O	0.974281	0.390726	0.272549
O3	O	1.307614	0.724060	0.605882
O4	O	0.500150	0.066166	-0.060810
O5	O	0.833484	0.399499	0.272524
O6	O	1.166817	0.732833	0.605857
O7	O	0.574922	-0.008618	-0.060782
O8	O	0.908255	0.324715	0.272551
O9	O	1.241588	0.658048	0.605884
O10	O	0.566176	0.132177	-0.060812
O11	O	0.899509	0.465510	0.272522
O12	O	1.232843	0.798844	0.605855
O13	O	0.574909	-0.008622	0.060980
O14	O	0.908242	0.324711	0.394313
O15	O	1.241576	0.658045	0.727646
O16	O	0.500138	0.066162	0.060952
O17	O	0.833471	0.399495	0.394285
O18	O	1.166804	0.732829	0.727619
O19	O	0.640935	0.057389	0.060978
O20	O	0.974268	0.390723	0.394311
O21	O	1.307602	0.724056	0.727644
Zn22	Zn	0.570534	0.061775	0.080297
Zn23	Zn	0.903868	0.395108	0.413631
Zn24	Zn	1.237201	0.728442	0.746964
Zn25	Zn	0.570551	0.061780	-0.080129
Zn26	Zn	0.903884	0.395113	0.253204
Zn27	Zn	1.237217	0.728447	0.586537
O28	O	0.566163	0.132173	0.060950
O29	O	0.899497	0.465507	0.394284
O30	O	1.232830	0.798840	0.727617
C31	C	0.482137	0.065984	0.000068
C32	C	0.815470	0.399317	0.333401
C33	C	1.148803	0.732651	0.666735
C34	C	0.428480	0.065442	0.000059
C35	C	0.761814	0.398775	0.333392
C36	C	1.095147	0.732108	0.666726
C37	C	0.095755	0.062024	0.066460
C38	C	0.429088	0.395357	0.399794
C39	C	0.762422	0.728690	0.733127
C40	C	-0.105903	0.059962	0.066469
C41	C	0.227430	0.393296	0.399803
C42	C	0.560763	0.726629	0.733136
O43	O	-0.131982	0.059673	0.122916
O44	O	0.201352	0.393006	0.456250
O45	O	0.534685	0.726340	0.789583
N46	N	-0.131111	0.059708	0.000097
N47	N	0.202222	0.393042	0.333430
N48	N	0.535555	0.726375	0.666764
C49	C	-0.105901	0.059966	-0.066282
C50	C	0.227432	0.393300	0.267051
C51	C	0.560766	0.726633	0.600384
O52	O	-0.131969	0.059698	-0.122736
O53	O	0.201365	0.393031	0.210597
O54	O	0.534698	0.726365	0.543931
C55	C	0.095757	0.062025	-0.066290
C56	C	0.429090	0.395358	0.267043
C57	C	0.762423	0.728691	0.600376
C58	C	0.120961	0.062283	0.000086
C59	C	0.454295	0.395617	0.333420
C60	C	0.787628	0.728950	0.666753
C61	C	0.120960	0.062282	0.132832
C62	C	0.454293	0.395615	0.466165
C63	C	0.787626	0.728949	0.799498
C64	C	0.171371	0.062800	0.132829
C65	C	0.504704	0.396134	0.466162
C66	C	0.838038	0.729467	0.799496
C67	C	0.196577	0.063060	0.066455
C68	C	0.529911	0.396393	0.399788
C69	C	0.863244	0.729727	0.733121
C70	C	0.171372	0.062801	0.000083
C71	C	0.504706	0.396135	0.333417
C72	C	0.838039	0.729468	0.666750
C73	C	0.120966	0.062279	-0.132669
C74	C	0.454300	0.395613	0.200664
C75	C	0.787633	0.728946	0.533998
C76	C	0.171384	0.062793	-0.132665
C77	C	0.504717	0.396126	0.200668
C78	C	0.838051	0.729459	0.534002
C79	C	0.196589	0.063052	-0.066288
C80	C	0.529922	0.396385	0.267045
C81	C	0.863255	0.729718	0.600378
C82	C	0.246990	0.063579	-0.066294
C83	C	0.580323	0.396913	0.267040
C84	C	0.913657	0.730246	0.600373
N85	N	0.272198	0.063833	0.000079
N86	N	0.605531	0.397167	0.333412
N87	N	0.938865	0.730500	0.666745
C88	C	0.246992	0.063574	0.066453
C89	C	0.580325	0.396907	0.399786
C90	C	0.913658	0.730240	0.733120
C91	C	-0.211774	0.058887	-0.066274
C92	C	0.121559	0.392220	0.267060
C93	C	0.454892	0.725554	0.600393
C94	C	-0.262189	0.058373	-0.066272
C95	C	0.071145	0.391707	0.267062
C96	C	0.404478	0.725040	0.600395
C97	C	-0.262187	0.058368	0.066480
C98	C	0.071146	0.391701	0.399813
C99	C	0.404479	0.725035	0.733147
C100	C	-0.211773	0.058885	0.066478
C101	C	0.121561	0.392219	0.399811
C102	C	0.454894	0.725552	0.733144
C103	C	-0.186566	0.059141	0.000099
C104	C	0.146767	0.392474	0.333432
C105	C	0.480100	0.725807	0.666765
C106	C	0.352859	0.064662	0.066442
C107	C	0.686192	0.397995	0.399775
C108	C	1.019525	0.731328	0.733109
C109	C	0.403274	0.065182	0.066433
C110	C	0.736607	0.398515	0.399766
C111	C	1.069941	0.731849	0.733100
C112	C	0.403268	0.065184	-0.066318
C113	C	0.736602	0.398518	0.267015
C114	C	1.069935	0.731851	0.600348
C115	C	0.352857	0.064667	-0.066310
C116	C	0.686190	0.398000	0.267023
C117	C	1.019524	0.731334	0.600357
C118	C	0.327654	0.064404	0.000076
C119	C	0.660987	0.397737	0.333409
C120	C	0.994320	0.731071	0.666743
O121	O	0.273100	0.063863	-0.122711
O122	O	0.606433	0.397196	0.210622
O123	O	0.939767	0.730530	0.543956
O124	O	0.273069	0.063831	0.122898
O125	O	0.606402	0.397164	0.456231
O126	O	0.939736	0.730498	0.789565
C127	C	0.045344	0.061506	0.066463
C128	C	0.378677	0.394839	0.399797
C129	C	0.712010	0.728172	0.733130
C130	C	0.020139	0.061247	0.000092
C131	C	0.353472	0.394581	0.333425
C132	C	0.686806	0.727914	0.666759
C133	C	0.045345	0.061507	-0.066282
C134	C	0.378679	0.394840	0.267051
C135	C	0.712012	0.728174	0.600385
C136	C	-0.030275	0.060734	0.000094
C137	C	0.303058	0.394067	0.333427
C138	C	0.636391	0.727400	0.666760
C139	C	-0.055482	0.060474	0.066468
C140	C	0.277852	0.393807	0.399801
C141	C	0.611185	0.727141	0.733135
C142	C	-0.030274	0.060728	0.132840
C143	C	0.303060	0.394061	0.466174
C144	C	0.636393	0.727395	0.799507
C145	C	0.020137	0.061246	0.132837
C146	C	0.353471	0.394579	0.466171
C147	C	0.686804	0.727913	0.799504
C148	C	0.020137	0.061253	-0.132654
C149	C	0.353471	0.394586	0.200679
C150	C	0.686804	0.727920	0.534012
C151	C	-0.030274	0.060736	-0.132646
C152	C	0.303059	0.394069	0.200687
C153	C	0.636393	0.727402	0.534020
C154	C	-0.055480	0.060476	-0.066272
C155	C	0.277853	0.393809	0.267061
C156	C	0.611186	0.727143	0.600395
C157	C	0.574732	-0.026627	0.000101
C158	C	0.908065	0.306706	0.333434
C159	C	1.241398	0.640040	0.666767
C160	C	0.574179	-0.080282	0.000107
C161	C	0.907512	0.253052	0.333440
C162	C	1.240846	0.586385	0.666773
C163	C	0.614884	-0.419105	0.000076
C164	C	0.948217	-0.085771	0.333410
C165	C	1.281551	0.247562	0.666743
C166	C	0.612833	-0.620764	0.000066
C167	C	0.946166	-0.287431	0.333399
C168	C	1.279499	0.045903	0.666732
O169	O	0.650055	-0.652027	0.000040
O170	O	0.983388	-0.318693	0.333374
O171	O	1.316721	0.014640	0.666707
N172	N	0.568496	-0.639879	0.000058
N173	N	0.901830	-0.306546	0.333392
N174	N	1.235163	0.026788	0.666725
C175	C	0.524670	-0.608576	0.000049
C176	C	0.858003	-0.275242	0.333382
C177	C	1.191336	0.058091	0.666716
O178	O	0.486912	-0.629462	0.000035
O179	O	0.820245	-0.296128	0.333368
O180	O	1.153578	0.037205	0.666702
C181	C	0.526721	-0.406918	0.000054
C182	C	0.860055	-0.073584	0.333388
C183	C	1.193388	0.259749	0.666721
C184	C	0.571061	-0.387805	0.000069
C185	C	0.904394	-0.054472	0.333402
C186	C	1.237727	0.278861	0.666736
C187	C	0.659220	-0.399992	0.000090
C188	C	0.992553	-0.066659	0.333424
C189	C	1.325886	0.266675	0.666757
C190	C	0.659732	-0.349580	0.000097
C191	C	0.993065	-0.016247	0.333430
C192	C	1.326399	0.317086	0.666764
C193	C	0.615908	-0.318281	0.000090
C194	C	0.949242	0.015052	0.333423
C195	C	1.282575	0.348386	0.666756
C196	C	0.571573	-0.337394	0.000076
C197	C	0.904906	-0.004060	0.333409
C198	C	1.238239	0.329273	0.666742
C199	C	0.482895	-0.375615	0.000040
C200	C	0.816228	-0.042282	0.333373
C201	C	1.149562	0.291051	0.666706
C202	C	0.483412	-0.325198	0.000039
C203	C	0.816745	0.008135	0.333372
C204	C	1.150079	0.341468	0.666706
C205	C	0.527751	-0.306086	0.000054
C206	C	0.861084	0.027247	0.333387
C207	C	1.194418	0.360581	0.666720
C208	C	0.528262	-0.255683	0.000075
C209	C	0.861595	0.077651	0.333408
C210	C	1.194928	0.410984	0.666742
N211	N	0.572598	-0.236567	0.000082
N212	N	0.905931	0.096766	0.333416
N213	N	1.239265	0.430099	0.666749
C214	C	0.616421	-0.267867	0.000090
C215	C	0.949755	0.065467	0.333423
C216	C	1.283088	0.398800	0.666756
C217	C	0.523596	-0.714450	0.000048
C218	C	0.856929	-0.381116	0.333381
C219	C	1.190262	-0.047783	0.666714
C220	C	0.523083	-0.764864	0.000048
C221	C	0.856416	-0.431531	0.333381
C222	C	1.189749	-0.098197	0.666714
C223	C	0.611246	-0.777049	0.000063
C224	C	0.944579	-0.443715	0.333396
C225	C	1.277913	-0.110382	0.666730
C226	C	0.611759	-0.726633	0.000068
C227	C	0.945092	-0.393300	0.333402
C228	C	1.278425	-0.059967	0.666735
C229	C	0.567932	-0.695335	0.000055
C230	C	0.901265	-0.362001	0.333388
C231	C	1.234599	-0.028668	0.666722
C232	C	0.617494	-0.161998	0.000104
C233	C	0.950827	0.171336	0.333438
C234	C	1.284161	0.504669	0.666771
C235	C	0.618002	-0.111581	0.000114
C236	C	0.951336	0.221752	0.333447
C237	C	1.284669	0.555086	0.666781
C238	C	0.529839	-0.099401	0.000095
C239	C	0.863173	0.233933	0.333428
C240	C	1.196506	0.567266	0.666761
C241	C	0.529331	-0.149813	0.000089
C242	C	0.862664	0.183520	0.333422
C243	C	1.195997	0.516854	0.666755
C244	C	0.573162	-0.181111	0.000091
C245	C	0.906495	0.152222	0.333424
C246	C	1.239829	0.485556	0.666758
O247	O	0.491060	-0.224391	0.000092
O248	O	0.824393	0.108942	0.333425
O249	O	1.157727	0.442275	0.666759
O250	O	0.654174	-0.246971	0.000087
O251	O	0.987507	0.086362	0.333421
O252	O	1.320841	0.419695	0.666754
C253	C	0.614372	-0.469517	0.000070
C254	C	0.947705	-0.136183	0.333403
C255	C	1.281038	0.197150	0.666736
C256	C	0.570036	-0.488629	0.000056
C257	C	0.903369	-0.155296	0.333389
C258	C	1.236703	0.178037	0.666722
C259	C	0.526213	-0.457330	0.000048
C260	C	0.859546	-0.123997	0.333382
C261	C	1.192879	0.209337	0.666715
C262	C	0.569523	-0.539043	0.000056
C263	C	0.902856	-0.205710	0.333389
C264	C	1.236190	0.127623	0.666722
C265	C	0.613346	-0.570343	0.000063
C266	C	0.946680	-0.237009	0.333396
C267	C	1.280013	0.096324	0.666730
C268	C	0.657683	-0.551228	0.000070
C269	C	0.991016	-0.217894	0.333404
C270	C	1.324349	0.115439	0.666737
C271	C	0.658195	-0.500816	0.000077
C272	C	0.991528	-0.167482	0.333410
C273	C	1.324862	0.165851	0.666744
C274	C	0.481876	-0.476445	0.000041
C275	C	0.815209	-0.143112	0.333374
C276	C	1.148543	0.190222	0.666708
C277	C	0.481367	-0.526857	0.000035
C278	C	0.814701	-0.193524	0.333369
C279	C	1.148034	0.139809	0.666702
C280	C	0.525191	-0.558157	0.000043
C281	C	0.858524	-0.224823	0.333376
C282	C	1.191858	0.108510	0.666709
C283	C	0.658949	0.057571	0.000098
C284	C	0.992282	0.390904	0.333431
C285	C	1.325615	0.724238	0.666765
C286	C	0.712605	0.058114	0.000102
C287	C	1.045938	0.391447	0.333436
C288	C	1.379272	0.724780	0.666769
C289	C	0.566353	0.150182	0.000066
C290	C	0.899687	0.483515	0.333399
C291	C	1.233020	0.816849	0.666732
C292	C	0.566906	0.203837	0.000055
C293	C	0.900239	0.537170	0.333388
C294	C	1.233573	0.870503	0.666722
N295	N	0.570527	0.061771	0.189784
N296	N	0.903860	0.395105	0.523118
N297	N	1.237193	0.728438	0.856451
N298	N	0.570562	0.061780	-0.189616
N299	N	0.903896	0.395113	0.143717
N300	N	1.237229	0.728446	0.477050
C301	C	0.603646	0.028673	0.228105
C302	C	0.936979	0.362006	0.561439
C303	C	1.270313	0.695340	0.894772
C304	C	0.603649	0.028671	0.304750
C305	C	0.936982	0.362004	0.638083
C306	C	1.270316	0.695337	0.971417
C307	C	0.570537	0.061775	0.343071
C308	C	0.903871	0.395108	0.676404
C309	C	1.237204	0.728442	1.009738
C310	C	0.537412	0.094876	0.304741
C311	C	0.870745	0.428209	0.638074
C312	C	1.204078	0.761543	0.971407
C313	C	0.537406	0.094874	0.228097
C314	C	0.870740	0.428207	0.561431
C315	C	1.204073	0.761541	0.894764
N316	N	0.564065	0.104595	0.463394
N317	N	0.897398	0.437928	0.796727
N318	N	1.230731	0.771262	1.130061
N319	N	0.564073	0.104595	0.536202
N320	N	0.897406	0.437929	0.869535
N321	N	1.230740	0.771262	1.202869
C322	C	0.570551	0.061782	0.573993
C323	C	0.903884	0.395115	0.907327
C324	C	1.237217	0.728449	1.240660
N325	N	0.577030	0.018967	0.536226
N326	N	0.910363	0.352300	0.869560
N327	N	1.243697	0.685634	1.202893
N328	N	0.577024	0.018967	0.463412
N329	N	0.910358	0.352301	0.796745
N330	N	1.243691	0.685634	1.130078
C331	C	0.570539	0.061781	0.426178
C332	C	0.903873	0.395114	0.759511
C333	C	1.237206	0.728447	1.092845
C334	C	0.603675	0.028679	0.695422
C335	C	0.937009	0.362012	1.028755
C336	C	1.270342	0.695345	1.362088
C337	C	0.603675	0.028676	0.772068
C338	C	0.937008	0.362009	1.105401
C339	C	1.270342	0.695342	1.438735
C340	C	0.537440	0.094885	0.772057
C341	C	0.870773	0.428218	1.105391
C342	C	1.204107	0.761552	1.438724
C343	C	0.537438	0.094884	0.695412
C344	C	0.870771	0.428217	1.028746
C345	C	1.204105	0.761550	1.362079
C346	C	0.570558	0.061781	0.657099
C347	C	0.903892	0.395114	0.990433
C348	C	1.237225	0.728448	1.323766
H349	H	0.191904	0.063001	-0.186720
H350	H	0.525237	0.396334	0.146613
H351	H	0.858571	0.729668	0.479947
H352	H	0.654110	-0.096023	0.000128
H353	H	0.987444	0.237310	0.333461
H354	H	1.320777	0.570644	0.666794
H355	H	0.630620	0.001717	0.335957
H356	H	0.963953	0.335050	0.669290
H357	H	1.297286	0.668384	1.002624
Br358	Br	0.718373	-0.474886	0.000093
Br359	Br	1.051706	-0.141553	0.333426
Br360	Br	1.385040	0.191781	0.666759
Br361	Br	0.648622	-0.016251	0.824079
Br362	Br	0.981956	0.317082	1.157413
Br363	Br	1.315289	0.650416	1.490746
H364	H	0.510436	0.121827	0.196896
H365	H	0.843769	0.455161	0.530229
H366	H	1.177102	0.788494	0.863562
Br367	Br	0.492490	0.139806	0.643399
Br368	Br	0.825823	0.473140	0.976733
Br369	Br	1.159156	0.806473	1.310066
Br370	Br	0.492470	0.139801	0.356745
Br371	Br	0.825803	0.473134	0.690078
Br372	Br	1.159137	0.806467	1.023411
H373	H	0.630643	0.001723	0.664226
H374	H	0.963976	0.335056	0.997559
H375	H	1.297309	0.668389	1.330892
Br376	Br	0.437477	0.065536	0.156522
Br377	Br	0.770810	0.398870	0.489855
Br378	Br	1.104144	0.732203	0.823189
Br379	Br	0.648592	-0.016252	0.176108
Br380	Br	0.981925	0.317081	0.509441
Br381	Br	1.315259	0.650414	0.842775
H382	H	0.646929	-0.802541	0.000069
H383	H	0.980262	-0.469208	0.333403
H384	H	1.313595	-0.135875	0.666736
H385	H	0.647863	-0.711076	0.000080
H386	H	0.981197	-0.377743	0.333413
H387	H	1.314530	-0.044409	0.666746
H388	H	0.653186	-0.187475	0.000103
H389	H	0.986519	0.145858	0.333437
H390	H	1.319852	0.479192	0.666770
H391	H	0.332343	0.064452	0.120500
H392	H	0.665677	0.397785	0.453833
H393	H	0.999010	0.731119	0.787166
Br394	Br	0.719910	-0.323651	0.000096
Br395	Br	1.053243	0.009683	0.333430
Br396	Br	1.386576	0.343016	0.666763
Br397	Br	0.464111	-0.671979	0.000028
Br398	Br	0.797444	-0.338646	0.333361
Br399	Br	1.130777	-0.005313	0.666695
H400	H	0.494160	-0.073908	0.000091
H401	H	0.827493	0.259425	0.333425
H402	H	1.160826	0.592759	0.666758
Br403	Br	0.492497	0.139808	0.824058
Br404	Br	0.825830	0.473141	1.157391
Br405	Br	1.159164	0.806474	1.490724
Br406	Br	0.054336	0.061598	0.222925
Br407	Br	0.387669	0.394932	0.556258
Br408	Br	0.721003	0.728265	0.889592
H409	H	0.332333	0.064464	-0.120359
H410	H	0.665667	0.397797	0.212974
H411	H	0.999000	0.731131	0.546307
Br412	Br	0.086773	0.061927	-0.222758
Br413	Br	0.420106	0.395261	0.110576
Br414	Br	0.753439	0.728594	0.443909
Br415	Br	0.422395	-0.433975	0.000027
Br416	Br	0.755728	-0.100641	0.333361
Br417	Br	1.089062	0.232692	0.666694
Br418	Br	0.205570	0.063149	0.222916
Br419	Br	0.538903	0.396483	0.556250
Br420	Br	0.872236	0.729816	0.889583
H421	H	0.100442	0.062070	0.186885
H422	H	0.433776	0.395403	0.520218
H423	H	0.767109	0.728736	0.853551
H424	H	-0.050792	0.060529	-0.186702
H425	H	0.282541	0.393862	0.146631
H426	H	0.615875	0.727195	0.479964
Br427	Br	-0.177571	0.059236	0.156563
Br428	Br	0.155762	0.392570	0.489896
Br429	Br	0.489095	0.725903	0.823230
H430	H	-0.282719	0.058158	0.120525
H431	H	0.050614	0.391491	0.453858
H432	H	0.383948	0.724824	0.787191
Br433	Br	0.462906	-0.790795	0.000045
Br434	Br	0.796239	-0.457462	0.333378
Br435	Br	1.129572	-0.124129	0.666712
H436	H	-0.282707	0.058170	-0.120322
H437	H	0.050626	0.391503	0.213011
H438	H	0.383959	0.724837	0.546344
H439	H	0.423800	0.065398	-0.120358
H440	H	0.757133	0.398731	0.212975
H441	H	1.090467	0.732065	0.546308
Br442	Br	-0.064493	0.060379	0.222919
Br443	Br	0.268840	0.393712	0.556252
Br444	Br	0.602174	0.727046	0.889585
Br445	Br	-0.177574	0.059234	-0.156368
Br446	Br	0.155760	0.392567	0.176965
Br447	Br	0.489093	0.725901	0.510298
H448	H	0.040655	0.061463	-0.186705
H449	H	0.373989	0.394796	0.146628
H450	H	0.707322	0.728130	0.479961
H451	H	0.694908	-0.425472	0.000094
H452	H	1.028241	-0.092138	0.333427
H453	H	1.361575	0.241195	0.666760
Br454	Br	0.423929	-0.282724	0.000018
Br455	Br	0.757263	0.050610	0.333351
Br456	Br	1.090596	0.383943	0.666684
Br457	Br	0.469156	-0.175752	0.000086
Br458	Br	0.802489	0.157581	0.333419
Br459	Br	1.135822	0.490915	0.666752
H460	H	0.446789	-0.391167	0.000023
H461	H	0.780123	-0.057834	0.333356
H462	H	1.113456	0.275499	0.666690
Br463	Br	0.717157	-0.593715	0.000086
Br464	Br	1.050490	-0.260382	0.333419
Br465	Br	1.383823	0.072952	0.666753
H466	H	0.445258	-0.542413	0.000030
H467	H	0.778592	-0.209080	0.333363
H468	H	1.111925	0.124253	0.666696
