data_functionalizedCrystal
_audit_creation_method	'MofGen! by Chris Wilmer'
_symmetry_space_group_name_H-M	'P1'
_symmetry_Int_Tables_number	1
_symmetry_cell_setting	triclinic
loop_
_symmetry_equiv_pos_as_xyz
  x,y,z
_cell_length_a	19.077105
_cell_length_b	19.121063
_cell_length_c	19.076919
_cell_angle_alpha	85.393653
_cell_angle_beta	89.923776
_cell_angle_gamma	90.263052
loop_
_atom_site_label
_atom_site_type_symbol
_atom_site_fract_x
_atom_site_fract_y
_atom_site_fract_z
Zn1	Zn	1.043169	-0.339734	0.454309
Zn2	Zn	1.042790	-0.452646	0.341419
Zn3	Zn	0.930805	-0.330327	0.331718
Zn4	Zn	0.920631	-0.452222	0.454155
O5	O	0.984349	-0.393732	0.395400
O6	O	1.141268	-0.358826	0.443459
O7	O	1.032035	-0.432660	0.241647
O8	O	0.950127	-0.233307	0.343985
O9	O	1.140989	-0.441782	0.360519
O10	O	1.032681	-0.240219	0.434052
O11	O	0.949760	-0.342793	0.234520
O12	O	0.831307	-0.342382	0.343835
O13	O	0.932786	-0.441060	0.552660
O14	O	0.823831	-0.431938	0.433788
O15	O	1.022815	-0.358416	0.552774
O16	O	1.022169	-0.550857	0.360369
O17	O	0.932419	-0.550546	0.443195
C18	C	0.802120	-0.386094	0.387742
C19	C	0.724160	-0.382844	0.384484
C20	C	0.683661	-0.428009	0.429719
C21	C	0.610410	-0.424946	0.426660
C22	C	0.577659	-0.376721	0.378362
C23	C	0.618164	-0.331551	0.333125
C24	C	0.691414	-0.334611	0.336188
C25	C	0.359002	-0.362559	0.364190
C26	C	0.285746	-0.359503	0.361130
C27	C	0.277998	-0.452898	0.454666
C28	C	0.351249	-0.455957	0.457722
C29	C	0.391747	-0.410784	0.412487
N30	N	0.502785	-0.373590	0.375233
N31	N	0.466620	-0.413912	0.415620
C32	C	0.976167	-0.576182	0.402834
C33	C	0.972730	-0.654239	0.406041
C34	C	1.017877	-0.691052	0.364463
C35	C	1.014648	-0.764395	0.367483
C36	C	0.966269	-0.800923	0.412078
C37	C	0.921120	-0.764105	0.453660
C38	C	0.924353	-0.690764	0.450644
C39	C	0.954173	-1.022359	0.423346
C40	C	0.950942	-1.095705	0.426358
C41	C	1.044471	-1.095990	0.340181
C42	C	1.047697	-1.022647	0.337165
C43	C	1.002551	-0.985836	0.378750
C44	C	0.962966	-0.875891	0.415164
C45	C	1.005857	-0.910869	0.375667
C46	C	1.167289	-0.401401	0.403088
C47	C	1.245247	-0.404669	0.406365
C48	C	0.976708	-0.400740	0.578967
C49	C	0.973452	-0.403726	0.657192
C50	C	0.992581	-0.210571	0.387953
C51	C	0.996089	-0.132518	0.384780
C52	C	0.992003	-0.386702	0.212547
C53	C	0.995403	-0.383524	0.134320
C54	C	1.018793	-0.362103	0.694003
C55	C	1.015725	-0.364906	0.767503
C56	C	0.967319	-0.409336	0.804192
C57	C	0.921973	-0.450962	0.767376
C58	C	0.925038	-0.448154	0.693877
C59	C	0.953123	-0.422342	1.024005
C60	C	0.950063	-0.425148	1.097510
C61	C	1.043814	-0.339090	1.097632
C62	C	1.046877	-0.336290	1.024131
C63	C	1.001529	-0.377913	0.987321
N64	N	0.964183	-0.412204	0.879321
N65	N	1.004662	-0.375041	0.912193
H66	H	0.259084	-0.320225	0.321804
O67	O	0.881072	-0.488698	0.658152
C68	C	0.892500	-0.560013	0.679614
H69	H	0.947527	-0.566674	0.702328
H70	H	0.886925	-0.592606	0.632432
H71	H	0.852289	-0.578428	0.721435
O72	O	0.398369	-0.318616	0.320347
C73	C	0.441118	-0.276636	0.360416
H74	H	0.416937	-0.273577	0.414756
H75	H	0.445424	-0.221621	0.332879
H76	H	0.495561	-0.300762	0.366012
H77	H	0.724388	-0.297829	0.299356
O78	O	0.586240	-0.284763	0.286232
C79	C	0.512903	-0.291734	0.293240
H80	H	0.499517	-0.346423	0.317987
H81	H	0.487464	-0.283708	0.239170
H82	H	0.492426	-0.250707	0.328227
O83	O	1.088302	-1.131859	0.299867
C84	C	1.075069	-1.204424	0.312079
H85	H	1.049345	-1.215546	0.365814
H86	H	1.126582	-1.234271	0.310710
H87	H	1.038580	-1.222134	0.269589
O88	O	0.715360	-0.474876	0.476699
C89	C	0.663903	-0.514093	0.515958
H90	H	0.612874	-0.483246	0.515084
H91	H	0.682430	-0.524669	0.572590
H92	H	0.654795	-0.566074	0.491945
O93	O	0.874218	-0.799670	0.497022
C94	C	0.910352	-0.845437	0.545939
H95	H	0.964074	-0.857670	0.523846
H96	H	0.879110	-0.896193	0.556267
H97	H	0.917092	-0.819456	0.597260
O98	O	1.065836	-0.318881	0.658474
C99	C	1.105207	-0.282757	0.706730
H100	H	1.074403	-0.281123	0.757814
H101	H	1.116061	-0.226931	0.683561
H102	H	1.156994	-0.311003	0.717835
O103	O	0.880428	-0.655109	0.491059
C104	C	0.837046	-0.703076	0.531081
H105	H	0.833530	-0.754167	0.504300
H106	H	0.782403	-0.679896	0.535359
H107	H	0.860126	-0.713950	0.585946
H108	H	0.911554	-1.125446	0.462685
H109	H	0.910642	-0.461330	1.127379
H110	H	0.577438	-0.461725	0.463495
H111	H	1.086296	-0.300112	0.994264
H112	H	1.045250	-0.881126	0.339361
O113	O	0.238689	-0.496868	0.498543
C114	C	0.254107	-0.566991	0.486666
H115	H	0.276411	-0.569151	0.431417
H116	H	0.204132	-0.599911	0.492081
H117	H	0.294244	-0.588616	0.526894
O118	O	1.064933	-0.655681	0.321126
C119	C	1.104076	-0.703904	0.285063
H120	H	1.102978	-0.757369	0.316145
H121	H	1.160589	-0.684699	0.279048
H122	H	1.080313	-0.708636	0.230838
H123	H	1.052648	-0.331013	0.797471
H124	H	0.917412	-0.992393	0.457205
O125	O	0.383025	-0.502730	0.504739
C126	C	0.362887	-0.489434	0.573537
H127	H	0.345116	-0.432637	0.574055
H128	H	0.409344	-0.498879	0.610562
H129	H	0.317918	-0.526034	0.591627
H130	H	0.923575	-0.905641	0.451472
H131	H	1.080733	-0.305203	1.127610
H132	H	0.916207	-0.456245	0.994044
H133	H	1.051411	-0.794364	0.333625
H134	H	0.882558	-0.487135	0.797254
O135	O	1.094761	-0.987276	0.293837
C136	C	1.133907	-1.035495	0.257774
H137	H	1.132806	-1.088964	0.288851
H138	H	1.190422	-1.016291	0.251767
H139	H	1.110151	-1.040222	0.203545
