data_functionalizedCrystal
_audit_creation_method	'MofGen! by Chris Wilmer'
_symmetry_space_group_name_H-M	'P1'
_symmetry_Int_Tables_number	1
_symmetry_cell_setting	triclinic
loop_
_symmetry_equiv_pos_as_xyz
  x,y,z
_cell_length_a	14.971506
_cell_length_b	16.053802
_cell_length_c	14.971486
_cell_angle_alpha	92.568439
_cell_angle_beta	96.381742
_cell_angle_gamma	92.584838
loop_
_atom_site_label
_atom_site_type_symbol
_atom_site_fract_x
_atom_site_fract_y
_atom_site_fract_z
O1	O	1.190703	0.069436	-0.112887
O2	O	1.690703	0.569436	0.387113
O3	O	0.930306	0.069436	-0.126827
O4	O	1.430306	0.569436	0.373173
O5	O	1.067483	0.069430	0.010343
O6	O	1.567483	0.569430	0.510343
O7	O	1.053525	0.069442	-0.250056
O8	O	1.553525	0.569442	0.249944
O9	O	1.059933	-0.069429	0.002823
O10	O	1.559933	0.430571	0.502823
O11	O	0.922755	-0.069423	-0.134346
O12	O	1.422755	0.430577	0.365654
O13	O	1.183153	-0.069423	-0.120406
O14	O	1.683153	0.430577	0.379594
Zn15	Zn	1.051755	-0.091470	-0.128570
Zn16	Zn	1.551755	0.408530	0.371430
Zn17	Zn	1.061703	0.091483	-0.118663
Zn18	Zn	1.561703	0.591483	0.381337
O19	O	1.045975	-0.069417	-0.257575
O20	O	1.545975	0.430583	0.242425
C21	C	0.893206	0.000007	-0.129960
C22	C	1.393206	0.500007	0.370040
C23	C	0.793910	0.000007	-0.128082
C24	C	1.293910	0.500007	0.371918
C25	C	0.355628	0.000019	-0.201499
C26	C	0.855628	0.500019	0.298501
C27	C	0.448928	0.000022	-0.203256
C28	C	0.948928	0.500022	0.296744
C29	C	0.506148	0.000015	-0.122664
C30	C	1.006148	0.500015	0.377336
C31	C	0.470063	0.000012	-0.040309
C32	C	0.970063	0.500012	0.459691
C33	C	0.376765	0.000015	-0.038553
C34	C	0.876765	0.500015	0.461447
C35	C	0.664526	0.000005	-0.043977
C36	C	1.164526	0.500005	0.456023
C37	C	0.757831	0.000002	-0.045733
C38	C	1.257831	0.500002	0.454267
C39	C	0.736689	0.000013	-0.208680
C40	C	1.236689	0.500013	0.291320
C41	C	0.643391	0.000015	-0.206924
C42	C	1.143391	0.500015	0.293076
C43	C	0.607313	0.000011	-0.124568
C44	C	1.107313	0.500011	0.375432
N45	N	1.044972	-0.216330	-0.135330
N46	N	1.544972	0.283670	0.364670
C47	C	1.103363	-0.260026	-0.076985
C48	C	1.603363	0.239974	0.423015
C49	C	1.098626	-0.347433	-0.081723
C50	C	1.598626	0.152567	0.418277
C51	C	1.035503	-0.391141	-0.144810
C52	C	1.535503	0.108859	0.355190
C53	C	0.977106	-0.347438	-0.203157
C54	C	1.477106	0.152562	0.296843
C55	C	0.981839	-0.260033	-0.198415
C56	C	1.481839	0.239967	0.301585
C57	C	1.014829	-0.652550	-0.165500
C58	C	1.514829	-0.152550	0.334500
C59	C	1.010103	-0.739961	-0.170240
C60	C	1.510103	-0.239961	0.329760
C61	C	1.131622	-0.739949	-0.048804
C62	C	1.631622	-0.239949	0.451196
C63	C	1.136353	-0.652543	-0.044070
C64	C	1.636353	-0.152543	0.455930
C65	C	1.077953	-0.608847	-0.102415
C66	C	1.577953	-0.108847	0.397585
N67	N	1.030662	-0.480485	-0.149656
N68	N	1.530662	0.019515	0.350344
N69	N	1.082791	-0.519506	-0.097564
N70	N	1.582791	-0.019506	0.402436
C71	C	1.220252	0.000008	-0.117273
C72	C	1.720252	0.500008	0.382727
C73	C	1.319549	0.000014	-0.119150
C74	C	1.819549	0.500014	0.380850
C75	C	1.063084	0.000001	0.039908
C76	C	1.563084	0.500001	0.539908
C77	C	1.061213	0.000001	0.139205
C78	C	1.561213	0.500001	0.639205
N79	N	1.068493	0.216343	-0.111895
N80	N	1.568493	0.716343	0.388105
C81	C	1.050374	0.000014	-0.287140
C82	C	1.550374	0.500014	0.212860
C83	C	1.052245	0.000019	-0.386437
C84	C	1.552245	0.500019	0.113563
C85	C	1.141802	0.000001	0.196424
C86	C	1.641802	0.500001	0.696424
C87	C	1.140039	0.000009	0.289725
C88	C	1.640039	0.500009	0.789725
C89	C	1.057687	0.000012	0.325803
C90	C	1.557687	0.500012	0.825803
C91	C	0.977092	0.000016	0.268576
C92	C	1.477092	0.500016	0.768576
C93	C	0.978856	0.000013	0.175278
C94	C	1.478856	0.500013	0.675278
C95	C	0.973421	0.000019	0.463039
C96	C	1.473421	0.500019	0.963039
C97	C	0.971657	0.000019	0.556343
C98	C	1.471657	0.500019	1.056343
C99	C	1.134604	0.000015	0.577485
C100	C	1.634604	0.500015	1.077485
C101	C	1.136368	0.000012	0.484187
C102	C	1.636368	0.500012	0.984187
C103	C	1.055773	0.000014	0.426967
C104	C	1.555773	0.500014	0.926967
H105	H	0.347391	0.000012	0.028504
H106	H	0.847391	0.500012	0.528504
H107	H	0.478299	0.000034	-0.270312
H108	H	0.978299	0.500034	0.229688
F109	F	0.884009	0.000022	0.594739
F110	F	1.384009	0.500022	1.094739
F111	F	0.952679	-0.606053	-0.227596
F112	F	1.452679	-0.106053	0.272404
H113	H	0.913233	0.000014	0.128690
H114	H	1.413233	0.500014	0.628690
H115	H	0.907792	0.000022	0.416452
H116	H	1.407792	0.500022	0.916452
H117	H	0.309045	0.000018	-0.267127
H118	H	0.809045	0.500018	0.232873
F119	F	1.229453	-0.000011	0.158036
F120	F	1.729453	0.499989	0.658036
F121	F	0.889447	0.000028	0.306977
F122	F	1.389447	0.500028	0.806977
H123	H	1.154768	-0.224445	-0.025617
H124	H	1.654768	0.275555	0.474383
F125	F	1.224017	0.000011	0.445792
F126	F	1.724017	0.500011	0.945792
F127	F	0.582495	0.000019	-0.292699
F128	F	1.082495	0.500019	0.207301
F129	F	0.775087	0.000011	-0.296330
F130	F	1.275087	0.500011	0.203670
F131	F	1.203537	-0.606026	0.023073
F132	F	1.703537	-0.106026	0.523073
H133	H	0.804418	0.000002	0.019892
H134	H	1.304418	0.500002	0.519892
F135	F	0.626131	-0.000002	0.043676
F136	F	1.126131	0.499998	0.543676
F137	F	1.193770	-0.786458	0.013288
F138	F	1.693770	-0.286458	0.513288
F139	F	1.220380	0.000017	0.638384
F140	F	1.720380	0.500017	1.138384
H141	H	0.516659	0.000011	0.025310
H142	H	1.016659	0.500011	0.525310
H143	H	1.146172	-0.383010	-0.034213
H144	H	1.646172	0.116990	0.465787
F145	F	0.942915	-0.786473	-0.237392
F146	F	1.442915	-0.286473	0.262608
F147	F	0.909920	-0.393957	-0.270297
F148	F	1.409920	0.106043	0.229703
H149	H	0.934290	-0.224457	-0.245924
H150	H	1.434290	0.275543	0.254076
F151	F	1.225812	0.000007	0.350618
F152	F	1.725812	0.500007	0.850618
