data_functionalizedCrystal
_audit_creation_method	'MofGen! by Chris Wilmer'
_symmetry_space_group_name_H-M	'P1'
_symmetry_Int_Tables_number	1
_symmetry_cell_setting	triclinic
loop_
_symmetry_equiv_pos_as_xyz
  x,y,z
_cell_length_a	18.050591
_cell_length_b	18.050589
_cell_length_c	18.215399
_cell_angle_alpha	89.976397
_cell_angle_beta	89.975463
_cell_angle_gamma	90.024669
loop_
_atom_site_label
_atom_site_type_symbol
_atom_site_fract_x
_atom_site_fract_y
_atom_site_fract_z
Zn1	Zn	1.135328	-0.295737	-0.416230
Zn2	Zn	1.635328	0.204263	0.083770
Zn3	Zn	1.135228	-0.419932	-0.293173
Zn4	Zn	1.635228	0.080068	0.206827
Zn5	Zn	1.011136	-0.295753	-0.293168
Zn6	Zn	1.511136	0.204247	0.206832
Zn7	Zn	1.011095	-0.419882	-0.416188
Zn8	Zn	1.511095	0.080118	0.083812
O9	O	1.073197	-0.357826	-0.354690
O10	O	1.573197	0.142174	0.145310
O11	O	1.239239	-0.312227	-0.399927
O12	O	1.739239	0.187773	0.100073
O13	O	1.118743	-0.403487	-0.190188
O14	O	1.618743	0.096513	0.309812
O15	O	1.027670	-0.191826	-0.309507
O16	O	1.527670	0.308174	0.190493
O17	O	1.239166	-0.403472	-0.309517
O18	O	1.739166	0.096528	0.190483
O19	O	1.118912	-0.191815	-0.399921
O20	O	1.618912	0.308185	0.100079
O21	O	1.027573	-0.312253	-0.190184
O22	O	1.527573	0.187747	0.309816
O23	O	0.907206	-0.312205	-0.309467
O24	O	1.407206	0.187795	0.190533
O25	O	1.027599	-0.403387	-0.519178
O26	O	1.527599	0.096613	-0.019178
O27	O	0.907176	-0.403402	-0.399849
O28	O	1.407176	0.096598	0.100151
O29	O	1.118872	-0.312178	-0.519209
O30	O	1.618872	0.187822	-0.019209
O31	O	1.118702	-0.523850	-0.309476
O32	O	1.618702	-0.023850	0.190524
O33	O	1.027502	-0.523814	-0.399855
O34	O	1.527502	-0.023814	0.100145
C35	C	0.880245	-0.357800	-0.354653
C36	C	1.380245	0.142200	0.145347
C37	C	0.797699	-0.357807	-0.354655
C38	C	1.297699	0.142193	0.145345
C39	C	1.073107	-0.550778	-0.354678
C40	C	1.573107	-0.050778	0.145322
C41	C	1.073137	-0.633324	-0.354697
C42	C	1.573137	-0.133324	0.145303
C43	C	0.548868	-0.308162	-0.305621
C44	C	1.048868	0.191838	0.194379
C45	C	0.598306	-0.290075	-0.372783
C46	C	1.098306	0.209925	0.127217
C47	C	0.500578	-0.357845	-0.354715
C48	C	1.000578	0.142155	0.145285
C49	C	0.598222	-0.375879	-0.287528
C50	C	1.098222	0.124121	0.212472
C51	C	0.646563	-0.357824	-0.354682
C52	C	1.146563	0.142176	0.145318
C53	C	0.548929	-0.339722	-0.421912
C54	C	1.048929	0.160278	0.078088
C55	C	0.548841	-0.425557	-0.336612
C56	C	1.048841	0.074443	0.163388
C57	C	0.598256	-0.407496	-0.403820
C58	C	1.098256	0.092504	0.096180
C59	C	0.416480	-0.357855	-0.354733
C60	C	0.916480	0.142145	0.145267
C61	C	0.730660	-0.357815	-0.354671
C62	C	1.230660	0.142185	0.145329
C63	C	1.023591	-0.832782	-0.403828
C64	C	1.523591	-0.332782	0.096172
C65	C	1.005487	-0.882221	-0.336672
C66	C	1.505487	-0.382221	0.163328
C67	C	1.073210	-0.784455	-0.354707
C68	C	1.573210	-0.284455	0.145293
C69	C	1.091350	-0.882097	-0.421870
C70	C	1.591350	-0.382097	0.078130
C71	C	1.073279	-0.930440	-0.354722
C72	C	1.573279	-0.430440	0.145278
C73	C	1.055070	-0.832807	-0.287515
C74	C	1.555070	-0.332807	0.212485
C75	C	1.140964	-0.832678	-0.372759
C76	C	1.640964	-0.332678	0.127241
C77	C	1.122886	-0.882095	-0.305557
C78	C	1.622886	-0.382095	0.194443
C79	C	1.073168	-0.700356	-0.354699
C80	C	1.573168	-0.200356	0.145301
C81	C	1.073320	-1.014536	-0.354722
C82	C	1.573320	-0.514536	0.145278
C83	C	1.266902	-0.357853	-0.354727
C84	C	1.766902	0.142147	0.145273
C85	C	1.349448	-0.357865	-0.354743
C86	C	1.849448	0.142135	0.145257
C87	C	1.073242	-0.357775	-0.546643
C88	C	1.573242	0.142225	-0.046643
C89	C	1.073261	-0.357753	-0.628442
C90	C	1.573261	0.142247	-0.128442
C91	C	1.073307	-0.164121	-0.354718
C92	C	1.573307	0.335879	0.145282
C93	C	1.073354	-0.081575	-0.354730
C94	C	1.573354	0.418425	0.145270
C95	C	1.120804	-0.310216	-0.816653
C96	C	1.620804	0.189784	-0.316653
C97	C	1.120813	-0.310195	-0.893512
C98	C	1.620813	0.189805	-0.393512
C99	C	1.025771	-0.405175	-0.893469
C100	C	1.525771	0.094825	-0.393469
C101	C	1.025759	-0.405193	-0.816611
C102	C	1.525759	0.094807	-0.316611
C103	C	1.073280	-0.357714	-0.778205
C104	C	1.573280	0.142286	-0.278205
C105	C	1.073301	-0.357675	-0.931922
C106	C	1.573301	0.142325	-0.431922
C107	C	1.073310	-0.357652	-1.015255
C108	C	1.573310	0.142348	-0.515255
C109	C	1.073270	-0.357736	-0.694866
C110	C	1.573270	0.142264	-0.194866
C111	C	1.073194	-0.357824	-0.163484
C112	C	1.573194	0.142176	0.336516
C113	C	1.073319	-0.357636	-0.081685
C114	C	1.573319	0.142364	0.418315
H115	H	0.620020	-0.232800	-0.388094
H116	H	1.120020	0.267200	0.111906
H117	H	1.159497	-0.271555	-0.785386
H118	H	1.659497	0.228445	-0.285386
O119	O	1.111643	-0.910775	-0.497097
O120	O	1.611643	-0.410775	0.002903
H121	H	1.070337	-0.891024	-0.537754
H122	H	1.570337	-0.391024	-0.037754
H123	H	0.987082	-0.443832	-0.924748
H124	H	1.487082	0.056168	-0.424748
O125	O	0.520370	-0.319409	-0.497178
O126	O	1.020370	0.180591	0.002822
H127	H	0.567895	-0.309337	-0.534563
H128	H	1.067895	0.190663	-0.034563
O129	O	1.172076	-0.258970	-0.934984
O130	O	1.672076	0.241030	-0.434984
H131	H	1.205120	-0.225965	-0.895363
H132	H	1.705120	0.274035	-0.395363
O133	O	0.626811	-0.463138	-0.458852
O134	O	1.126811	0.036862	0.041148
H135	H	0.606963	-0.447985	-0.514531
H136	H	1.106963	0.052015	-0.014531
O137	O	0.520025	-0.501395	-0.316320
O138	O	1.020025	-0.001395	0.183680
H139	H	0.539728	-0.516249	-0.260511
H140	H	1.039728	-0.016249	0.239489
H141	H	0.619878	-0.391140	-0.230722
H142	H	1.119878	0.108860	0.269278
O143	O	0.967934	-0.804084	-0.458773
O144	O	1.467934	-0.304084	0.041227
H145	H	0.911762	-0.823927	-0.443613
H146	H	1.411762	-0.323927	0.056387
H147	H	1.164877	-0.903611	-0.263975
H148	H	1.664877	-0.403611	0.236025
O149	O	0.974474	-0.456410	-0.775145
O150	O	1.474474	0.043590	-0.275145
H151	H	0.987167	-0.514701	-0.789877
H152	H	1.487167	-0.014701	-0.289877
O153	O	0.929632	-0.911049	-0.316441
O154	O	1.429632	-0.411049	0.183559
H155	H	0.888512	-0.891304	-0.357287
H156	H	1.388512	-0.391304	0.142713
H157	H	1.039689	-0.811245	-0.230707
H158	H	1.539689	-0.311245	0.269293
O159	O	1.216887	-0.803994	-0.392920
O160	O	1.716887	-0.303994	0.107080
H161	H	1.231824	-0.823759	-0.448686
H162	H	1.731824	-0.323759	0.051314
H163	H	0.527185	-0.266125	-0.264169
H164	H	1.027185	0.233875	0.235831
