data_functionalizedCrystal
_audit_creation_method	'MofGen! by Chris Wilmer'
_symmetry_space_group_name_H-M	'P1'
_symmetry_Int_Tables_number	1
_symmetry_cell_setting	triclinic
loop_
_symmetry_equiv_pos_as_xyz
  x,y,z
_cell_length_a	16.109302
_cell_length_b	17.038272
_cell_length_c	16.098557
_cell_angle_alpha	92.932876
_cell_angle_beta	87.273622
_cell_angle_gamma	87.286668
loop_
_atom_site_label
_atom_site_type_symbol
_atom_site_fract_x
_atom_site_fract_y
_atom_site_fract_z
O1	O	1.113731	0.096988	-0.069295
O2	O	0.872557	0.109494	-0.069288
O3	O	0.991710	-0.010574	-0.069285
O4	O	0.994577	0.217056	-0.069298
O5	O	0.984779	-0.003560	0.069228
O6	O	0.865625	0.116508	0.069224
O7	O	1.106799	0.104002	0.069218
Zn8	Zn	0.985112	0.111368	0.091213
Zn9	Zn	0.994244	0.102128	-0.091283
O10	O	0.987646	0.224070	0.069214
C11	C	0.838080	0.112494	-0.000031
C12	C	0.745677	0.110975	-0.000029
C13	C	0.529309	0.111286	0.075467
C14	C	0.442487	0.109850	0.075464
C15	C	0.450054	0.102207	-0.075550
C16	C	0.536875	0.103638	-0.075547
C17	C	0.576499	0.108181	-0.000036
C18	C	0.402857	0.105315	-0.000042
C19	C	0.308721	0.103758	-0.000046
C20	C	0.670642	0.109736	-0.000032
C21	C	0.985637	-0.036195	-0.000029
C22	C	0.977858	-0.122988	-0.000029
C23	C	1.049279	-0.173103	-0.000030
C24	C	1.041965	-0.254654	-0.000037
C25	C	0.963229	-0.286088	-0.000038
C26	C	0.891803	-0.235967	-0.000040
C27	C	0.899118	-0.154418	-0.000038
C28	C	0.937387	-0.531846	-0.000049
C29	C	0.930078	-0.613402	-0.000048
C30	C	1.080240	-0.632083	-0.000048
C31	C	1.087548	-0.550531	-0.000041
C32	C	1.016122	-0.500418	-0.000047
C33	C	0.955751	-0.369446	-0.000043
C34	C	1.023601	-0.417062	-0.000047
C35	C	1.141276	0.101001	-0.000041
C36	C	1.233680	0.102520	-0.000049
C37	C	0.993719	0.249691	-0.000044
C38	C	1.001499	0.336484	-0.000049
N39	N	0.978885	0.117674	0.215762
C40	C	0.949893	0.146780	0.740580
C41	C	0.954268	0.142383	0.653391
C42	C	1.009235	0.087041	0.609792
C43	C	1.059825	0.036087	0.653386
C44	C	1.055445	0.040480	0.740573
C45	C	1.025095	0.071114	0.346543
C46	C	1.029473	0.066726	0.259349
C47	C	0.923915	0.173021	0.259361
C48	C	0.919543	0.177413	0.346550
C49	C	0.970130	0.126456	0.390136
C50	C	1.013710	0.082547	0.520671
C51	C	0.965650	0.130947	0.479255
N52	N	1.000481	0.095831	0.784168
H53	H	0.404067	0.112378	0.136945
O54	O	1.110010	-0.014473	0.787585
H55	H	1.097725	-0.002127	0.855536
H56	H	0.913075	0.183869	0.617902
H57	H	0.905137	0.191848	0.776073
O58	O	0.869333	0.227961	0.212353
H59	H	0.881599	0.215602	0.144401
O60	O	0.407317	0.097319	-0.156993
H61	H	0.339016	0.096855	-0.144313
H62	H	0.575299	0.101107	-0.137033
H63	H	1.074237	0.021657	0.223855
O64	O	0.860305	0.237145	0.393576
H65	H	0.825876	0.271848	0.348618
O66	O	0.860345	-0.477809	-0.000044
H67	H	0.862898	-0.443069	-0.056503
O68	O	0.572044	0.116182	0.156910
H69	H	0.640344	0.116664	0.144231
O70	O	1.134201	-0.139200	-0.000037
H71	H	1.182636	-0.187752	-0.000050
H72	H	0.920892	0.176004	0.514756
O73	O	1.118995	-0.308708	-0.000025
H74	H	1.174973	-0.273149	-0.000009
O75	O	1.172471	-0.516627	-0.000060
H76	H	1.220908	-0.565177	-0.000075
O77	O	0.845152	-0.647311	-0.000043
H78	H	0.841061	-0.686884	-0.056491
H79	H	1.066287	0.029624	0.382024
H80	H	1.138391	-0.672894	-0.000044
H81	H	0.827695	-0.261568	-0.000046
O82	O	1.119088	-0.023628	0.606367
H83	H	1.113633	-0.018127	0.538417
O84	O	1.072970	0.022844	0.473630
H85	H	1.117696	0.053756	0.433910
O86	O	0.822085	-0.100362	-0.000036
H87	H	0.819005	-0.059902	0.056417
O88	O	1.108524	-0.383166	-0.000050
H89	H	1.112620	-0.343607	0.056409
H90	H	0.891644	-0.395049	-0.000042
