data_functionalizedCrystal
_audit_creation_method	'MofGen! by Chris Wilmer'
_symmetry_space_group_name_H-M	'P1'
_symmetry_Int_Tables_number	1
_symmetry_cell_setting	triclinic
loop_
_symmetry_equiv_pos_as_xyz
  x,y,z
_cell_length_a	10.540510
_cell_length_b	10.540539
_cell_length_c	9.616153
_cell_angle_alpha	90.000094
_cell_angle_beta	89.992871
_cell_angle_gamma	95.480599
loop_
_atom_site_label
_atom_site_type_symbol
_atom_site_fract_x
_atom_site_fract_y
_atom_site_fract_z
O1	O	1.685914	-0.178715	-0.115647
O2	O	1.316496	-0.195611	-0.115647
O3	O	1.509633	-0.002456	-0.115646
O4	O	1.492777	-0.371870	-0.115649
O5	O	1.509607	-0.002460	0.115646
O6	O	1.316470	-0.195615	0.115644
O7	O	1.685887	-0.178719	0.115644
Zn8	Zn	1.501174	-0.187168	0.152367
Zn9	Zn	1.501209	-0.187162	-0.152370
O10	O	1.492750	-0.371874	0.115642
C11	C	1.508356	0.044845	-0.000002
C12	C	1.504574	0.185793	-0.000010
C13	C	1.269179	-0.194354	-0.000002
C14	C	1.128229	-0.190587	-0.000002
C15	C	0.910774	-0.324771	-0.000535
C16	C	1.057370	-0.328789	-0.000005
C17	C	1.083454	-0.119843	0.132074
C18	C	0.936693	-0.116804	0.132176
C19	C	0.936918	-0.113921	-0.130845
C20	C	1.083259	-0.120476	-0.132583
C21	C	1.733204	-0.179976	-0.000004
C22	C	1.874154	-0.183743	-0.000013
C23	C	1.494028	-0.419175	-0.000004
C24	C	1.497810	-0.560123	-0.000006
N25	N	1.501160	-0.187171	0.360341
C26	C	1.359655	0.369204	-0.000529
C27	C	1.363489	0.222587	-0.000008
C28	C	1.572455	0.247456	0.132069
C29	C	1.567640	0.394000	0.132180
C30	C	1.570540	0.394523	-0.130841
C31	C	1.571840	0.247541	-0.132588
N32	N	1.501234	-0.187149	-0.360344
C33	C	1.397529	-0.290149	0.580710
C34	C	1.397757	-0.290535	0.419543
C35	C	1.633885	-0.217290	0.418790
C36	C	1.633320	-0.218019	0.580008
C37	C	1.473387	-0.053735	0.580254
C38	C	1.470341	-0.054600	0.419027
H39	H	1.086726	-0.384133	-0.094686
C40	C	1.667532	-0.347292	0.364238
H41	H	1.748022	-0.364665	0.400183
H42	H	1.604219	-0.412044	0.393326
H43	H	1.671130	-0.345361	0.265538
H44	H	0.894381	-0.157502	-0.230953
H45	H	0.868831	-0.378611	-0.095255
H46	H	1.676064	0.225112	0.136980
C47	C	1.421416	-0.423120	0.635359
H48	H	1.358347	-0.484785	0.599239
H49	H	1.503379	-0.443091	0.606503
H50	H	1.417245	-0.423523	0.734047
C51	C	1.708198	0.458343	-0.132056
H52	H	1.721336	0.512374	-0.053263
H53	H	1.766123	0.394664	-0.129160
H54	H	1.722046	0.507394	-0.214487
C55	C	1.149602	0.015800	-0.143420
H56	H	1.120670	0.055836	-0.224429
H57	H	1.129895	0.063227	-0.063575
H58	H	1.239200	0.012398	-0.148978
H59	H	1.525279	0.204849	0.230358
C60	C	1.121928	-0.190006	-0.264583
H61	H	1.165306	-0.261461	-0.239018
H62	H	1.047800	-0.218012	-0.316442
H63	H	1.176562	-0.133441	-0.319713
H64	H	1.085762	-0.384473	0.094830
C65	C	0.851996	-0.397101	0.126691
H66	H	0.874579	-0.482222	0.125572
H67	H	0.883283	-0.355943	0.209407
H68	H	0.761851	-0.397778	0.123567
H69	H	0.914764	-0.010159	-0.131737
C70	C	0.882341	-0.182131	0.265537
H71	H	0.949984	-0.210280	0.319138
H72	H	0.839307	-0.123262	0.318344
H73	H	0.824215	-0.253182	0.241397
H74	H	1.310075	0.179979	-0.094688
C75	C	1.264530	-0.266080	0.366154
H76	H	1.209778	-0.255825	0.442996
H77	H	1.270809	-0.190925	0.311080
H78	H	1.230794	-0.336429	0.311468
H79	H	1.517450	0.422192	0.230912
H80	H	1.415656	-0.389517	0.380962
C81	C	1.666205	-0.349511	0.630793
H82	H	1.679776	-0.401983	0.552895
H83	H	1.741356	-0.339489	0.685783
H84	H	1.597746	-0.388198	0.685011
H85	H	1.303934	0.397800	-0.095245
C86	C	1.263886	-0.266065	0.633153
H87	H	1.270133	-0.192985	0.691476
H88	H	1.210562	-0.252322	0.556045
H89	H	1.228522	-0.338032	0.684330
C90	C	1.740776	-0.120614	0.632688
H91	H	1.784589	-0.080782	0.555555
H92	H	1.705313	-0.057917	0.687594
H93	H	1.798737	-0.163065	0.687394
H94	H	0.913697	-0.013437	0.138177
C95	C	1.147476	0.017596	0.138728
H96	H	1.202218	0.033089	0.060833
H97	H	1.083928	0.075707	0.137501
H98	H	1.195807	0.028774	0.221952
C99	C	1.284656	0.409983	0.126712
H100	H	1.337175	0.469887	0.180156
H101	H	1.211247	0.447851	0.096346
H102	H	1.259300	0.337360	0.182152
C103	C	1.290803	0.166153	0.128105
H104	H	1.292887	0.076247	0.128853
H105	H	1.329832	0.201398	0.210266
H106	H	1.204827	0.185981	0.124219
H107	H	1.372701	-0.031770	0.380827
C108	C	1.565624	0.053919	0.364614
H109	H	1.625721	0.019643	0.305135
H110	H	1.521037	0.113249	0.314285
H111	H	1.608926	0.095801	0.440869
C112	C	1.508869	0.437131	-0.266079
H113	H	1.438178	0.482984	-0.244009
H114	H	1.569636	0.490368	-0.317652
H115	H	1.480710	0.364316	-0.319995
C116	C	1.575520	0.049834	0.631755
H117	H	1.634850	0.012023	0.689180
H118	H	1.618790	0.089525	0.554223
H119	H	1.535925	0.111834	0.683667
C120	C	1.710801	0.214847	-0.143365
H121	H	1.729701	0.162886	-0.066803
H122	H	1.721968	0.170262	-0.227663
H123	H	1.766472	0.291235	-0.142242
C124	C	1.345376	-0.015031	0.635225
H125	H	1.307713	-0.079884	0.694924
H126	H	1.359507	0.062644	0.685436
H127	H	1.289917	-0.004008	0.559219
H128	H	1.522171	0.206679	-0.230296
H129	H	1.669106	0.441979	0.138172
H130	H	1.712941	-0.144318	0.380439
H131	H	1.114297	-0.168976	0.230365
