data_functionalizedCrystal
_audit_creation_method	'MofGen! by Chris Wilmer'
_symmetry_space_group_name_H-M	'P1'
_symmetry_Int_Tables_number	1
_symmetry_cell_setting	triclinic
loop_
_symmetry_equiv_pos_as_xyz
  x,y,z
_cell_length_a	23.532355
_cell_length_b	23.532407
_cell_length_c	17.666332
_cell_angle_alpha	90.009886
_cell_angle_beta	90.003432
_cell_angle_gamma	82.838088
loop_
_atom_site_label
_atom_site_type_symbol
_atom_site_fract_x
_atom_site_fract_y
_atom_site_fract_z
O1	O	0.755283	0.068994	0.062853
O2	O	1.005283	0.318994	0.312853
O3	O	1.255283	0.568994	0.562853
O4	O	1.505283	0.818994	0.812853
O5	O	0.589415	0.079028	0.062878
O6	O	0.839415	0.329028	0.312878
O7	O	1.089415	0.579028	0.562878
O8	O	1.339415	0.829028	0.812878
O9	O	0.677351	-0.008922	0.062851
O10	O	0.927351	0.241078	0.312851
O11	O	1.177351	0.491078	0.562851
O12	O	1.427351	0.741078	0.812851
O13	O	0.667347	0.156944	0.062880
O14	O	0.917347	0.406944	0.312880
O15	O	1.167347	0.656944	0.562880
O16	O	1.417347	0.906944	0.812880
O17	O	0.677335	-0.008924	-0.063046
O18	O	0.927335	0.241076	0.186954
O19	O	1.177335	0.491076	0.436954
O20	O	1.427335	0.741076	0.686954
O21	O	0.589400	0.079026	-0.063019
O22	O	0.839400	0.329026	0.186981
O23	O	1.089400	0.579026	0.436981
O24	O	1.339400	0.829026	0.686981
O25	O	0.755267	0.068992	-0.063044
O26	O	1.005267	0.318992	0.186956
O27	O	1.255267	0.568992	0.436956
O28	O	1.505267	0.818992	0.686956
Cu29	Cu	0.672332	0.074008	-0.074527
Cu30	Cu	0.922332	0.324008	0.175473
Cu31	Cu	1.172332	0.574008	0.425473
Cu32	Cu	1.422332	0.824008	0.675473
Cu33	Cu	0.672350	0.074011	0.074361
Cu34	Cu	0.922350	0.324011	0.324361
Cu35	Cu	1.172350	0.574011	0.574361
Cu36	Cu	1.422350	0.824011	0.824361
O37	O	0.667332	0.156941	-0.063017
O38	O	0.917332	0.406941	0.186983
O39	O	1.167332	0.656941	0.436983
O40	O	1.417332	0.906941	0.686983
C41	C	0.568191	0.078776	-0.000067
C42	C	0.818191	0.328776	0.249933
C43	C	1.068191	0.578776	0.499933
C44	C	1.318191	0.828776	0.749933
C45	C	0.504972	0.078022	-0.000058
C46	C	0.754972	0.328022	0.249942
C47	C	1.004972	0.578022	0.499942
C48	C	1.254972	0.828022	0.749942
C49	C	0.677088	-0.030139	-0.000099
C50	C	0.927088	0.219861	0.249901
C51	C	1.177088	0.469861	0.499901
C52	C	1.427088	0.719861	0.749901
C53	C	0.676322	-0.093356	-0.000105
C54	C	0.926322	0.156644	0.249895
C55	C	1.176322	0.406644	0.499895
C56	C	1.426322	0.656644	0.749895
C57	C	0.112950	0.073283	-0.068717
C58	C	0.362950	0.323283	0.181283
C59	C	0.612950	0.573283	0.431283
C60	C	0.862950	0.823283	0.681283
C61	C	0.053550	0.072565	-0.068720
C62	C	0.303550	0.322565	0.181280
C63	C	0.553550	0.572565	0.431280
C64	C	0.803550	0.822565	0.681280
O65	O	0.022825	0.072174	-0.127083
O66	O	0.272825	0.322174	0.122917
O67	O	0.522825	0.572174	0.372917
O68	O	0.772825	0.822174	0.622917
N69	N	0.023850	0.072211	-0.000094
N70	N	0.273850	0.322211	0.249906
N71	N	0.523850	0.572211	0.499906
N72	N	0.773850	0.822211	0.749906
C73	C	0.053554	0.072568	0.068539
C74	C	0.303554	0.322568	0.318539
C75	C	0.553554	0.572568	0.568539
C76	C	0.803554	0.822568	0.818539
O77	O	0.022837	0.072200	0.126911
O78	O	0.272837	0.322200	0.376911
O79	O	0.522837	0.572200	0.626911
O80	O	0.772837	0.822200	0.876911
C81	C	0.112952	0.073281	0.068542
C82	C	0.362952	0.323281	0.318542
C83	C	0.612952	0.573281	0.568542
C84	C	0.862952	0.823281	0.818542
C85	C	0.142649	0.073641	-0.000089
C86	C	0.392649	0.323641	0.249911
C87	C	0.642649	0.573641	0.499911
C88	C	0.892649	0.823641	0.749911
C89	C	0.142646	0.073642	-0.137342
C90	C	0.392646	0.323642	0.112658
C91	C	0.642646	0.573642	0.362658
C92	C	0.892646	0.823642	0.612658
C93	C	0.202041	0.074361	-0.137339
C94	C	0.452041	0.324361	0.112661
C95	C	0.702041	0.574361	0.362661
C96	C	0.952041	0.824361	0.612661
C97	C	0.231740	0.074719	-0.068710
C98	C	0.481740	0.324719	0.181290
C99	C	0.731740	0.574719	0.431290
C100	C	0.981740	0.824719	0.681290
C101	C	0.202044	0.074360	-0.000085
C102	C	0.452044	0.324360	0.249915
C103	C	0.702044	0.574360	0.499915
C104	C	0.952044	0.824360	0.749915
C105	C	0.142655	0.073634	0.137174
C106	C	0.392655	0.323634	0.387174
C107	C	0.642655	0.573634	0.637174
C108	C	0.892655	0.823634	0.887174
C109	C	0.202058	0.074347	0.137171
C110	C	0.452058	0.324347	0.387171
C111	C	0.702058	0.574347	0.637171
C112	C	0.952058	0.824347	0.887171
C113	C	0.231754	0.074708	0.068540
C114	C	0.481754	0.324708	0.318540
C115	C	0.731754	0.574708	0.568540
C116	C	0.981754	0.824708	0.818540
C117	C	0.291138	0.075437	0.068546
C118	C	0.541138	0.325437	0.318546
C119	C	0.791138	0.575437	0.568546
C120	C	1.041138	0.825437	0.818546
N121	N	0.320838	0.075792	-0.000080
N122	N	0.570838	0.325792	0.249920
N123	N	0.820838	0.575792	0.499920
N124	N	1.070838	0.825792	0.749920
C125	C	0.291139	0.075433	-0.068708
C126	C	0.541139	0.325433	0.181292
C127	C	0.791139	0.575433	0.431292
C128	C	1.041139	0.825433	0.681292
C129	C	-0.071188	0.071069	0.068529
C130	C	0.178812	0.321069	0.318529
C131	C	0.428812	0.571069	0.568529
C132	C	0.678812	0.821069	0.818529
C133	C	-0.130586	0.070360	0.068528
C134	C	0.119414	0.320360	0.318528
C135	C	0.369414	0.570360	0.568528
C136	C	0.619414	0.820360	0.818528
C137	C	-0.130585	0.070356	-0.068732
C138	C	0.119415	0.320356	0.181268
C139	C	0.369415	0.570356	0.431268
C140	C	0.619415	0.820356	0.681268
C141	C	-0.071186	0.071069	-0.068730
C142	C	0.178814	0.321069	0.181270
C143	C	0.428814	0.571069	0.431270
C144	C	0.678814	0.821069	0.681270
C145	C	-0.041488	0.071423	-0.000097
C146	C	0.208512	0.321423	0.249903
C147	C	0.458512	0.571423	0.499903
C148	C	0.708512	0.821423	0.749903
C149	C	0.415873	0.076942	-0.068696
C150	C	0.665873	0.326942	0.181304
C151	C	0.915873	0.576942	0.431304
C152	C	1.165873	0.826942	0.681304
C153	C	0.475273	0.077663	-0.068686
C154	C	0.725273	0.327663	0.181314
C155	C	0.975273	0.577663	0.431314
C156	C	1.225273	0.827663	0.681314
C157	C	0.475267	0.077664	0.068573
C158	C	0.725267	0.327664	0.318573
C159	C	0.975267	0.577664	0.568573
C160	C	1.225267	0.827664	0.818573
C161	C	0.415872	0.076946	0.068564
C162	C	0.665872	0.326946	0.318564
C163	C	0.915872	0.576946	0.568564
C164	C	1.165872	0.826946	0.818564
C165	C	0.386177	0.076583	-0.000077
C166	C	0.636177	0.326583	0.249923
C167	C	0.886177	0.576583	0.499923
C168	C	1.136177	0.826583	0.749923
O169	O	0.321902	0.075827	0.126880
O170	O	0.571902	0.325827	0.376880
O171	O	0.821902	0.575827	0.626880
O172	O	1.071902	0.825827	0.876880
O173	O	0.321864	0.075793	-0.127070
O174	O	0.571864	0.325793	0.122930
O175	O	0.821864	0.575793	0.372930
O176	O	1.071864	0.825793	0.622930
C177	C	0.723557	-0.492468	-0.000071
C178	C	0.973557	-0.242468	0.249929
C179	C	1.223557	0.007532	0.499929
C180	C	1.473557	0.257532	0.749929
C181	C	0.722845	-0.551868	-0.000065
C182	C	0.972845	-0.301868	0.249935
C183	C	1.222845	-0.051868	0.499935
C184	C	1.472845	0.198132	0.749935
O185	O	0.766632	-0.588620	-0.000044
O186	O	1.016632	-0.338620	0.249956
O187	O	1.266632	-0.088620	0.499956
O188	O	1.516632	0.161380	0.749956
N189	N	0.670568	-0.574484	-0.000057
N190	N	0.920568	-0.324484	0.249943
N191	N	1.170568	-0.074484	0.499943
N192	N	1.420568	0.175516	0.749943
C193	C	0.618998	-0.537697	-0.000048
C194	C	0.868998	-0.287697	0.249952
C195	C	1.118998	-0.037697	0.499952
C196	C	1.368998	0.212303	0.749952
O197	O	0.574467	-0.562388	-0.000041
O198	O	0.824467	-0.312388	0.249959
O199	O	1.074467	-0.062388	0.499959
O200	O	1.324467	0.187612	0.749959
C201	C	0.619710	-0.478298	-0.000049
C202	C	0.869710	-0.228298	0.249951
C203	C	1.119710	0.021702	0.499951
C204	C	1.369710	0.271702	0.749951
C205	C	0.671991	-0.455685	-0.000064
C206	C	0.921991	-0.205685	0.249936
C207	C	1.171991	0.044315	0.499936
C208	C	1.421991	0.294315	0.749936
C209	C	0.775834	-0.469854	-0.000085
C210	C	1.025834	-0.219854	0.249915
C211	C	1.275834	0.030146	0.499915
C212	C	1.525834	0.280146	0.749915
C213	C	0.776545	-0.410458	-0.000092
C214	C	1.026545	-0.160458	0.249908
C215	C	1.276545	0.089542	0.499908
C216	C	1.526545	0.339542	0.749908
C217	C	0.724979	-0.373676	-0.000085
C218	C	0.974979	-0.123676	0.249915
C219	C	1.224979	0.126324	0.499915
C220	C	1.474979	0.376324	0.749915
C221	C	0.672703	-0.396289	-0.000071
C222	C	0.922703	-0.146289	0.249929
C223	C	1.172703	0.103711	0.499929
C224	C	1.422703	0.353711	0.749929
C225	C	0.568141	-0.441512	-0.000034
C226	C	0.818141	-0.191512	0.249966
C227	C	1.068141	0.058488	0.499966
C228	C	1.318141	0.308488	0.749966
C229	C	0.568858	-0.382110	-0.000034
C230	C	0.818858	-0.132110	0.249966
C231	C	1.068858	0.117890	0.499966
C232	C	1.318858	0.367890	0.749966
C233	C	0.621139	-0.359497	-0.000049
C234	C	0.871139	-0.109497	0.249951
C235	C	1.121139	0.140503	0.499951
C236	C	1.371139	0.390503	0.749951
C237	C	0.621848	-0.300110	-0.000071
C238	C	0.871848	-0.050110	0.249929
C239	C	1.121848	0.199890	0.499929
C240	C	1.371848	0.449890	0.749929
N241	N	0.674126	-0.277494	-0.000079
N242	N	0.924126	-0.027494	0.249921
N243	N	1.174126	0.222506	0.499921
N244	N	1.424126	0.472506	0.749921
C245	C	0.725691	-0.314277	-0.000086
C246	C	0.975691	-0.064277	0.249914
C247	C	1.225691	0.185723	0.499914
C248	C	1.475691	0.435723	0.749914
C249	C	0.617507	-0.662439	-0.000046
C250	C	0.867507	-0.412439	0.249954
C251	C	1.117507	-0.162439	0.499954
C252	C	1.367507	0.087561	0.749954
C253	C	0.616794	-0.721837	-0.000051
C254	C	0.866794	-0.471837	0.249949
C255	C	1.116794	-0.221837	0.499949
C256	C	1.366794	0.028163	0.749949
C257	C	0.720642	-0.736004	-0.000066
C258	C	0.970642	-0.486004	0.249934
C259	C	1.220642	-0.236004	0.499934
C260	C	1.470642	0.013996	0.749934
C261	C	0.721354	-0.676605	-0.000067
C262	C	0.971354	-0.426605	0.249933
C263	C	1.221354	-0.176605	0.499933
C264	C	1.471354	0.073395	0.749933
C265	C	0.669784	-0.639823	-0.000053
C266	C	0.919784	-0.389823	0.249947
C267	C	1.169784	-0.139823	0.499947
C268	C	1.419784	0.110177	0.749947
C269	C	0.727181	-0.189540	-0.000102
C270	C	0.977181	0.060460	0.249898
C271	C	1.227181	0.310460	0.499898
C272	C	1.477181	0.560460	0.749898
C273	C	0.727888	-0.130138	-0.000112
C274	C	0.977888	0.119862	0.249888
C275	C	1.227888	0.369862	0.499888
C276	C	1.477888	0.619862	0.749888
C277	C	0.624041	-0.115977	-0.000093
C278	C	0.874041	0.134023	0.249907
C279	C	1.124041	0.384023	0.499907
C280	C	1.374041	0.634023	0.749907
C281	C	0.623334	-0.175373	-0.000086
C282	C	0.873334	0.074627	0.249914
C283	C	1.123334	0.324627	0.499914
C284	C	1.373334	0.574627	0.749914
C285	C	0.674909	-0.212154	-0.000088
C286	C	0.924909	0.037846	0.249912
C287	C	1.174909	0.287846	0.499912
C288	C	1.424909	0.537846	0.749912
O289	O	0.578084	-0.263323	-0.000090
O290	O	0.828084	-0.013323	0.249910
O291	O	1.078084	0.236677	0.499910
O292	O	1.328084	0.486677	0.749910
O293	O	0.770216	-0.289577	-0.000083
O294	O	1.020216	-0.039577	0.249917
O295	O	1.270216	0.210423	0.499917
O296	O	1.520216	0.460423	0.749917
C297	C	0.776491	0.069244	-0.000097
C298	C	1.026491	0.319244	0.249903
C299	C	1.276491	0.569244	0.499903
C300	C	1.526491	0.819244	0.749903
C301	C	0.839710	0.069998	-0.000101
C302	C	1.089710	0.319998	0.249899
C303	C	1.339710	0.569998	0.499899
C304	C	1.589710	0.819998	0.749899
C305	C	0.667594	0.178158	-0.000065
C306	C	0.917594	0.428158	0.249935
C307	C	1.167594	0.678158	0.499935
C308	C	1.417594	0.928158	0.749935
C309	C	0.668360	0.241375	-0.000054
C310	C	0.918360	0.491375	0.249946
C311	C	1.168360	0.741375	0.499946
C312	C	1.418360	0.991375	0.749946
N313	N	0.672323	0.074006	-0.179246
N314	N	0.922323	0.324006	0.070754
N315	N	1.172323	0.574006	0.320754
N316	N	1.422323	0.824006	0.570754
C317	C	0.706664	0.108369	-0.218848
C318	C	0.956664	0.358369	0.031152
C319	C	1.206664	0.608369	0.281152
C320	C	1.456664	0.858369	0.531152
C321	C	0.706673	0.108367	-0.298096
C322	C	0.956673	0.358367	-0.048096
C323	C	1.206673	0.608367	0.201904
C324	C	1.456673	0.858367	0.451904
C325	C	0.672331	0.074009	-0.337738
C326	C	0.922331	0.324009	-0.087738
C327	C	1.172331	0.574009	0.162262
C328	C	1.422331	0.824009	0.412262
C329	C	0.637988	0.039639	-0.298126
C330	C	0.887988	0.289639	-0.048126
C331	C	1.137988	0.539639	0.201874
C332	C	1.387988	0.789639	0.451874
C333	C	0.637985	0.039638	-0.218880
C334	C	0.887985	0.289638	0.031120
C335	C	1.137985	0.539638	0.281120
C336	C	1.387985	0.789638	0.531120
N337	N	0.622455	0.072745	-0.462171
N338	N	0.872455	0.322745	-0.212171
N339	N	1.122455	0.572745	0.037829
N340	N	1.372455	0.822745	0.287829
N341	N	0.622460	0.072750	-0.537451
N342	N	0.872460	0.322750	-0.287451
N343	N	1.122460	0.572750	-0.037451
N344	N	1.372460	0.822750	0.212549
C345	C	0.672341	0.074011	-0.576502
C346	C	0.922341	0.324011	-0.326502
C347	C	1.172341	0.574011	-0.076502
C348	C	1.422341	0.824011	0.173498
N349	N	0.722217	0.075278	-0.537429
N350	N	0.972217	0.325278	-0.287429
N351	N	1.222217	0.575278	-0.037429
N352	N	1.472217	0.825278	0.212571
N353	N	0.722211	0.075277	-0.462141
N354	N	0.972211	0.325277	-0.212141
N355	N	1.222211	0.575277	0.037859
N356	N	1.472211	0.825277	0.287859
C357	C	0.672332	0.074007	-0.423667
C358	C	0.922332	0.324007	-0.173667
C359	C	1.172332	0.574007	0.076333
C360	C	1.422332	0.824007	0.326333
C361	C	0.706695	0.108374	-0.702034
C362	C	0.956695	0.358374	-0.452034
C363	C	1.206695	0.608374	-0.202034
C364	C	1.456695	0.858374	0.047966
C365	C	0.706705	0.108368	-0.781283
C366	C	0.956705	0.358368	-0.531283
C367	C	1.206705	0.608368	-0.281283
C368	C	1.456705	0.858368	-0.031283
C369	C	0.638015	0.039644	-0.781311
C370	C	0.888015	0.289644	-0.531311
C371	C	1.138015	0.539644	-0.281311
C372	C	1.388015	0.789644	-0.031311
C373	C	0.638010	0.039646	-0.702064
C374	C	0.888010	0.289646	-0.452064
C375	C	1.138010	0.539646	-0.202064
C376	C	1.388010	0.789646	0.047936
C377	C	0.672349	0.074014	-0.662430
C378	C	0.922349	0.324014	-0.412430
C379	C	1.172349	0.574014	-0.162430
C380	C	1.422349	0.824014	0.087570
N381	N	0.672363	0.074009	0.179080
N382	N	0.922363	0.324009	0.429080
N383	N	1.172363	0.574009	0.679080
N384	N	1.422363	0.824009	0.929080
H385	H	0.499449	0.077958	-0.124576
H386	H	0.749449	0.327958	0.125424
H387	H	0.999449	0.577958	0.375424
H388	H	1.249449	0.827958	0.625424
H389	H	-0.047012	0.071363	-0.124615
H390	H	0.202988	0.321363	0.125385
H391	H	0.452988	0.571363	0.375385
H392	H	0.702988	0.821363	0.625385
H393	H	-0.154777	0.070062	-0.124613
H394	H	0.095223	0.320062	0.125387
H395	H	0.345223	0.570062	0.375387
H396	H	0.595223	0.820062	0.625387
H397	H	0.391702	0.076652	-0.124590
H398	H	0.641702	0.326652	0.125410
H399	H	0.891702	0.576652	0.375410
H400	H	1.141702	0.826652	0.625410
H401	H	0.526863	-0.352164	-0.000022
H402	H	0.776863	-0.102164	0.249978
H403	H	1.026863	0.147836	0.499978
H404	H	1.276863	0.397836	0.749978
H405	H	0.580762	-0.193785	-0.000095
H406	H	0.830762	0.056215	0.249905
H407	H	1.080762	0.306215	0.499905
H408	H	1.330762	0.556215	0.749905
H409	H	0.391691	0.076662	0.124448
H410	H	0.641691	0.326662	0.374448
H411	H	0.891691	0.576662	0.624448
H412	H	1.141691	0.826662	0.874448
H413	H	0.610028	0.011664	-0.330408
H414	H	0.860028	0.261664	-0.080408
H415	H	1.110028	0.511664	0.169592
H416	H	1.360028	0.761664	0.419592
H417	H	0.817827	-0.499797	-0.000088
H418	H	1.067827	-0.249797	0.249912
H419	H	1.317827	0.000203	0.499912
H420	H	1.567827	0.250203	0.749912
H421	H	0.610044	0.011666	-0.669819
H422	H	0.860044	0.261666	-0.419819
H423	H	1.110044	0.511666	-0.169819
H424	H	1.360044	0.761666	0.080181
H425	H	0.610019	0.011654	-0.186636
H426	H	0.860019	0.261654	0.063364
H427	H	1.110019	0.511654	0.313364
H428	H	1.360019	0.761654	0.563364
H429	H	0.525569	-0.459912	-0.000017
H430	H	0.775569	-0.209912	0.249983
H431	H	1.025569	0.040088	0.499983
H432	H	1.275569	0.290088	0.749983
H433	H	0.582057	-0.086018	-0.000090
H434	H	0.832057	0.163982	0.249910
H435	H	1.082057	0.413982	0.499910
H436	H	1.332057	0.663982	0.749910
H437	H	0.734628	0.136352	-0.186583
H438	H	0.984628	0.386352	0.063417
H439	H	1.234628	0.636352	0.313417
H440	H	1.484628	0.886352	0.563417
H441	H	0.734656	0.136358	-0.669762
H442	H	0.984656	0.386358	-0.419762
H443	H	1.234656	0.636358	-0.169762
H444	H	1.484656	0.886358	0.080238
H445	H	0.734673	0.136349	-0.813526
H446	H	0.984673	0.386349	-0.563526
H447	H	1.234673	0.636349	-0.313526
H448	H	1.484673	0.886349	-0.063526
H449	H	0.610054	0.011668	-0.813587
H450	H	0.860054	0.261668	-0.563587
H451	H	1.110054	0.511668	-0.313587
H452	H	1.360054	0.761668	-0.063587
H453	H	-0.154761	0.070076	0.124414
H454	H	0.095239	0.320076	0.374414
H455	H	0.345239	0.570076	0.624414
H456	H	0.595239	0.820076	0.874414
H457	H	0.226215	0.074650	-0.193225
H458	H	0.476215	0.324650	0.056775
H459	H	0.726215	0.574650	0.306775
H460	H	0.976215	0.824650	0.556775
H461	H	-0.047012	0.071363	0.124422
H462	H	0.202988	0.321363	0.374422
H463	H	0.452988	0.571363	0.624422
H464	H	0.702988	0.821363	0.874422
H465	H	0.118472	0.073349	-0.193230
H466	H	0.368472	0.323349	0.056770
H467	H	0.618472	0.573349	0.306770
H468	H	0.868472	0.823349	0.556770
H469	H	0.762629	-0.765963	-0.000069
H470	H	1.012629	-0.515963	0.249931
H471	H	1.262629	-0.265963	0.499931
H472	H	1.512629	-0.015963	0.749931
H473	H	0.118487	0.073341	0.193061
H474	H	0.368487	0.323341	0.443061
H475	H	0.618487	0.573341	0.693061
H476	H	0.868487	0.823341	0.943061
H477	H	0.226235	0.074636	0.193061
H478	H	0.476235	0.324636	0.443061
H479	H	0.726235	0.574636	0.693061
H480	H	0.976235	0.824636	0.943061
H481	H	0.499459	0.077959	0.124448
H482	H	0.749459	0.327959	0.374448
H483	H	0.999459	0.577959	0.624448
H484	H	1.249459	0.827959	0.874448
H485	H	0.770463	-0.111731	-0.000126
H486	H	1.020463	0.138269	0.249874
H487	H	1.270463	0.388269	0.499874
H488	H	1.520463	0.638269	0.749874
H489	H	0.574222	-0.740243	-0.000052
H490	H	0.824222	-0.490243	0.249948
H491	H	1.074222	-0.240243	0.499948
H492	H	1.324222	0.009757	0.749948
H493	H	0.769178	-0.219481	-0.000100
H494	H	1.019178	0.030519	0.249900
H495	H	1.269178	0.280519	0.499900
H496	H	1.519178	0.530519	0.749900
H497	H	0.575510	-0.632494	-0.000042
H498	H	0.825510	-0.382494	0.249958
H499	H	1.075510	-0.132494	0.499958
H500	H	1.325510	0.117506	0.749958
H501	H	0.819117	-0.392053	-0.000101
H502	H	1.069117	-0.142053	0.249899
H503	H	1.319117	0.107947	0.499899
H504	H	1.569117	0.357947	0.749899
H505	H	0.763925	-0.658198	-0.000078
H506	H	1.013925	-0.408198	0.249922
H507	H	1.263925	-0.158198	0.499922
H508	H	1.513925	0.091802	0.749922
H509	H	0.734637	0.136351	-0.330347
H510	H	0.984637	0.386351	-0.080347
H511	H	1.234637	0.636351	0.169653
H512	H	1.484637	0.886351	0.419653
