data_functionalizedCrystal
_audit_creation_method	'MofGen! by Chris Wilmer'
_symmetry_space_group_name_H-M	'P1'
_symmetry_Int_Tables_number	1
_symmetry_cell_setting	triclinic
loop_
_symmetry_equiv_pos_as_xyz
  x,y,z
_cell_length_a	9.065218
_cell_length_b	14.853568
_cell_length_c	13.930277
_cell_angle_alpha	90.006322
_cell_angle_beta	89.990045
_cell_angle_gamma	95.674464
loop_
_atom_site_label
_atom_site_type_symbol
_atom_site_fract_x
_atom_site_fract_y
_atom_site_fract_z
O1	O	1.957752	-0.132186	0.079822
O2	O	1.528252	-0.143029	0.079823
O3	O	1.754474	-0.006462	0.079827
O4	O	1.731530	-0.268752	0.079818
O5	O	1.754515	-0.006471	-0.079835
O6	O	1.528293	-0.143038	-0.079839
O7	O	1.957792	-0.132195	-0.079840
Zn8	Zn	1.743049	-0.137617	-0.105189
Zn9	Zn	1.742996	-0.137606	0.105172
O10	O	1.731570	-0.268761	-0.079844
C11	C	1.473306	-0.141991	-0.000008
C12	C	1.309525	-0.138875	-0.000007
C13	C	1.753455	0.027130	-0.000000
C14	C	1.750339	0.127236	0.000009
C15	C	1.602786	0.540862	-0.000003
C16	C	1.871544	0.560154	-0.000003
C17	C	1.874473	0.466099	0.000002
C18	C	1.741558	0.409420	0.000002
C19	C	1.605712	0.446798	-0.000001
C20	C	2.010317	0.428714	-0.000005
C21	C	2.013252	0.334654	-0.000001
C22	C	1.880334	0.277974	0.000006
C23	C	1.744483	0.315356	0.000004
C24	C	1.611567	0.258678	0.000004
C25	C	1.475715	0.296059	0.000009
C26	C	1.472795	0.390118	0.000006
C27	C	1.883255	0.183915	0.000009
C28	C	1.614493	0.164613	0.000006
C29	C	2.012738	-0.133232	-0.000007
C30	C	2.176519	-0.136348	-0.000001
N31	N	1.743096	-0.137625	-0.248755
C32	C	1.732589	0.697647	-0.000011
C33	C	1.735702	0.597540	-0.000003
N34	N	1.742960	-0.137591	0.248738
C35	C	1.642718	-0.197968	0.701005
C36	C	1.843444	-0.077275	0.700979
C37	C	1.843421	-0.077268	0.600483
C38	C	1.743043	-0.137611	0.550244
C39	C	1.642688	-0.197961	0.600500
C40	C	1.943764	-0.016913	0.550219
C41	C	1.943743	-0.016903	0.449717
C42	C	1.843371	-0.077252	0.399476
C43	C	1.743013	-0.137605	0.449739
C44	C	1.642635	-0.197948	0.399500
C45	C	1.542284	-0.258306	0.449761
C46	C	1.542316	-0.258310	0.550259
C47	C	1.843338	-0.077248	0.298978
C48	C	1.642606	-0.197941	0.298995
H49	H	1.506255	0.118471	0.000011
H50	H	1.460612	-0.307451	0.591188
O51	O	2.029764	0.143596	0.000013
H52	H	2.093659	0.166271	-0.065061
O53	O	1.332354	0.234926	0.000001
H54	H	1.327241	0.191616	0.065076
O55	O	2.051950	0.048195	0.604425
H56	H	2.123622	0.009565	0.650202
O57	O	1.951670	-0.012187	0.755180
H58	H	2.066645	-0.024770	0.735878
H59	H	2.123871	0.304227	-0.000004
H60	H	2.118529	0.474868	-0.000014
O61	O	2.014894	0.621284	-0.000015
H62	H	2.079887	0.607867	0.065057
O63	O	1.434028	-0.323400	0.395576
H64	H	1.362372	-0.284749	0.349809
O65	O	1.534345	-0.263042	0.244822
H66	H	1.462678	-0.224400	0.199054
H67	H	1.362190	0.420562	0.000009
O68	O	1.534485	-0.263055	0.755222
H69	H	1.553192	-0.333534	0.735924
H70	H	2.025455	0.032243	0.408801
O71	O	1.951556	-0.012153	0.244766
H72	H	2.023181	-0.050803	0.198950
O73	O	1.456261	0.581170	-0.000009
H74	H	1.476547	0.656097	-0.000018
