data_functionalizedCrystal
_audit_creation_method	'MofGen! by Chris Wilmer'
_symmetry_space_group_name_H-M	'P1'
_symmetry_Int_Tables_number	1
_symmetry_cell_setting	triclinic
loop_
_symmetry_equiv_pos_as_xyz
  x,y,z
_cell_length_a	18.050589
_cell_length_b	18.050591
_cell_length_c	18.050582
_cell_angle_alpha	90.020922
_cell_angle_beta	90.018205
_cell_angle_gamma	90.024227
loop_
_atom_site_label
_atom_site_type_symbol
_atom_site_fract_x
_atom_site_fract_y
_atom_site_fract_z
Zn1	Zn	-0.295786	1.135293	0.420054
Zn2	Zn	0.037548	1.468626	0.753387
Zn3	Zn	0.370881	1.801959	1.086721
Zn4	Zn	-0.419969	1.135203	0.295873
Zn5	Zn	-0.086636	1.468537	0.629207
Zn6	Zn	0.246698	1.801870	0.962540
Zn7	Zn	-0.295789	1.011112	0.295865
Zn8	Zn	0.037545	1.344445	0.629198
Zn9	Zn	0.370878	1.677778	0.962532
Zn10	Zn	-0.419930	1.011060	0.420009
Zn11	Zn	-0.086596	1.344393	0.753342
Zn12	Zn	0.246737	1.677726	1.086676
O13	O	-0.357868	1.073167	0.357950
O14	O	-0.024535	1.406500	0.691284
O15	O	0.308798	1.739833	1.024617
O16	O	-0.312274	1.239205	0.403603
O17	O	0.021059	1.572539	0.736937
O18	O	0.354393	1.905872	1.070270
O19	O	-0.403514	1.118727	0.191948
O20	O	-0.070181	1.452060	0.525281
O21	O	0.263153	1.785393	0.858614
O22	O	-0.191864	1.027644	0.312354
O23	O	0.141470	1.360977	0.645688
O24	O	0.474803	1.694310	0.979021
O25	O	-0.403511	1.239140	0.312369
O26	O	-0.070178	1.572473	0.645702
O27	O	0.263156	1.905806	0.979035
O28	O	-0.191862	1.118879	0.403595
O29	O	0.141472	1.452212	0.736929
O30	O	0.474805	1.785545	1.070262
O31	O	-0.312279	1.027557	0.191942
O32	O	0.021054	1.360890	0.525275
O33	O	0.354387	1.694224	0.858608
O34	O	-0.312241	0.907180	0.312311
O35	O	0.021092	1.240514	0.645644
O36	O	0.354426	1.573847	0.978977
O37	O	-0.403444	1.027555	0.523940
O38	O	-0.070111	1.360888	0.857273
O39	O	0.263223	1.694222	1.190606
O40	O	-0.403447	0.907142	0.403519
O41	O	-0.070114	1.240475	0.736852
O42	O	0.263220	1.573809	1.070185
O43	O	-0.312236	1.118828	0.523973
O44	O	0.021097	1.452162	0.857306
O45	O	0.354431	1.785495	1.190639
O46	O	-0.523888	1.118676	0.312325
O47	O	-0.190555	1.452010	0.645658
O48	O	0.142778	1.785343	0.978992
O49	O	-0.523860	1.027468	0.403527
O50	O	-0.190526	1.360802	0.736860
O51	O	0.142807	1.694135	1.070193
C52	C	-0.357841	0.880215	0.357909
C53	C	-0.024507	1.213548	0.691243
C54	C	0.308826	1.546881	1.024576
C55	C	-0.357847	0.797669	0.357909
C56	C	-0.024513	1.131002	0.691243
C57	C	0.308820	1.464336	1.024576
C58	C	-0.550820	1.073077	0.357938
C59	C	-0.217487	1.406410	0.691271
C60	C	0.115846	1.739744	1.024605
C61	C	-0.633366	1.073107	0.357958
C62	C	-0.300033	1.406440	0.691291
C63	C	0.033300	1.739773	1.024624
C64	C	-0.308191	0.598217	0.308425
C65	C	0.025142	0.931551	0.641758
C66	C	0.358475	1.264884	0.975091
C67	C	-0.375927	0.548798	0.290154
C68	C	-0.042594	0.882131	0.623487
C69	C	0.290739	1.215464	0.956820
C70	C	-0.357869	0.646539	0.357943
C71	C	-0.024536	0.979872	0.691276
C72	C	0.308797	1.313205	1.024610
C73	C	-0.290157	0.548877	0.376212
C74	C	0.043176	0.882210	0.709545
C75	C	0.376510	1.215543	1.042879
C76	C	-0.357885	0.500553	0.357974
C77	C	-0.024552	0.833887	0.691307
C78	C	0.308782	1.167220	1.024641
C79	C	-0.425641	0.598206	0.339637
C80	C	-0.092307	0.931539	0.672970
C81	C	0.241026	1.264873	1.006303
C82	C	-0.339825	0.598289	0.425726
C83	C	-0.006491	0.931622	0.759060
C84	C	0.326842	1.264956	1.092393
C85	C	-0.407607	0.548892	0.407481
C86	C	-0.074274	0.882225	0.740814
C87	C	0.259059	1.215558	1.074148
C88	C	-0.357859	0.730637	0.357923
C89	C	-0.024526	1.063970	0.691256
C90	C	0.308808	1.397303	1.024590
C91	C	-0.357903	0.416457	0.357994
C92	C	-0.024569	0.749790	0.691327
C93	C	0.308764	1.083124	1.024660
C94	C	-0.832828	1.023557	0.407536
C95	C	-0.499495	1.356890	0.740869
C96	C	-0.166161	1.690223	1.074202
C97	C	-0.882261	1.005459	0.339767
C98	C	-0.548928	1.338792	0.673100
C99	C	-0.215594	1.672126	1.006433
C100	C	-0.784497	1.073180	0.357967
C101	C	-0.451163	1.406513	0.691301
C102	C	-0.117830	1.739846	1.024634
C103	C	-0.882146	1.091314	0.425744
C104	C	-0.548812	1.424647	0.759078
C105	C	-0.215479	1.757981	1.092411
C106	C	-0.930482	1.073249	0.357983
C107	C	-0.597148	1.406582	0.691316
C108	C	-0.263815	1.739915	1.024649
C109	C	-0.832842	1.055046	0.290162
C110	C	-0.499509	1.388380	0.623495
C111	C	-0.166175	1.721713	0.956829
C112	C	-0.832722	1.140933	0.376186
C113	C	-0.499389	1.474266	0.709519
C114	C	-0.166056	1.807600	1.042852
C115	C	-0.882133	1.122861	0.308370
C116	C	-0.548799	1.456194	0.641703
C117	C	-0.215466	1.789527	0.975036
C118	C	-0.700398	1.073138	0.357959
C119	C	-0.367065	1.406471	0.691293
C120	C	-0.033732	1.739805	1.024626
C121	C	-1.014578	1.073291	0.357983
C122	C	-0.681245	1.406624	0.691316
C123	C	-0.347911	1.739957	1.024649
C124	C	-0.164163	1.073277	0.357979
C125	C	0.169171	1.406610	0.691312
C126	C	0.502504	1.739944	1.024646
C127	C	-0.081617	1.073324	0.357991
C128	C	0.251716	1.406657	0.691325
C129	C	0.585050	1.739991	1.024658
C130	C	-0.357835	1.073196	0.551656
C131	C	-0.024502	1.406529	0.884989
C132	C	0.308831	1.739863	1.218323
C133	C	-0.357821	1.073208	0.634202
C134	C	-0.024488	1.406542	0.967535
C135	C	0.308845	1.739875	1.300868
C136	C	-0.357897	1.266872	0.357992
C137	C	-0.024563	1.600206	0.691325
C138	C	0.308770	1.933539	1.024659
C139	C	-0.357909	1.349418	0.358010
C140	C	-0.024575	1.682751	0.691343
C141	C	0.308758	2.016085	1.024676
C142	C	-0.357848	1.073181	0.164998
C143	C	-0.024514	1.406514	0.498332
C144	C	0.308819	1.739847	0.831665
C145	C	-0.357652	1.073312	0.082453
C146	C	-0.024319	1.406645	0.415786
C147	C	0.309014	1.739979	0.749120
C148	C	-0.407353	1.023612	0.833635
C149	C	-0.074019	1.356945	1.166968
C150	C	0.259314	1.690278	1.500301
C151	C	-0.425511	1.091367	0.883034
C152	C	-0.092177	1.424700	1.216368
C153	C	0.241156	1.758034	1.549701
C154	C	-0.357765	1.073245	0.785332
C155	C	-0.024431	1.406578	1.118666
C156	C	0.308902	1.739912	1.451999
C157	C	-0.339586	1.005527	0.883014
C158	C	-0.006253	1.338860	1.216348
C159	C	0.327081	1.672194	1.549681
C160	C	-0.357711	1.073274	0.931317
C161	C	-0.024378	1.406608	1.264651
C162	C	0.308955	1.739941	1.597984
C163	C	-0.375958	1.141036	0.833645
C164	C	-0.042625	1.474369	1.166978
C165	C	0.290708	1.807702	1.500312
C166	C	-0.290002	1.055150	0.833620
C167	C	0.043331	1.388483	1.166954
C168	C	0.376665	1.721816	1.500287
C169	C	-0.308134	1.122952	0.882998
C170	C	0.025199	1.456285	1.216331
C171	C	0.358532	1.789619	1.549665
C172	C	-0.357797	1.073227	0.701234
C173	C	-0.024464	1.406560	1.034567
C174	C	0.308869	1.739894	1.367901
C175	C	-0.357679	1.073300	1.015414
C176	C	-0.024345	1.406633	1.348747
C177	C	0.308988	1.739967	1.682081
H178	H	-0.266226	0.619875	0.266503
H179	H	0.067108	0.953209	0.599837
H180	H	0.400441	1.286542	0.933170
F181	F	-0.253293	1.177892	0.911153
F182	F	0.080040	1.511225	1.244486
F183	F	0.413373	1.844558	1.577820
F184	F	-0.396118	1.215926	0.805421
F185	F	-0.062784	1.549260	1.138755
F186	F	0.270549	1.882593	1.472088
F187	F	-0.215150	1.035097	0.805227
F188	F	0.118183	1.368430	1.138560
F189	F	0.451516	1.701763	1.471894
H190	H	-0.811275	1.039669	0.232834
H191	H	-0.477941	1.373003	0.566168
H192	H	-0.144608	1.706336	0.899501
H193	H	-0.903802	1.106625	0.483056
H194	H	-0.570469	1.439958	0.816390
H195	H	-0.237136	1.773291	1.149723
F196	F	-0.462234	0.968801	0.805303
F197	F	-0.128900	1.302135	1.138636
F198	F	0.204433	1.635468	1.471969
H199	H	-0.810948	1.198184	0.391613
H200	H	-0.477615	1.531518	0.724947
H201	H	-0.144282	1.864851	1.058280
H202	H	-0.482794	1.106690	0.904739
H203	H	-0.149460	1.440023	1.238073
H204	H	0.183873	1.773357	1.571406
F205	F	-0.500519	0.626408	0.319370
F206	F	-0.167186	0.959741	0.652703
F207	F	0.166148	1.293074	0.986037
F208	F	-0.395892	0.520383	0.215247
F209	F	-0.062559	0.853717	0.548580
F210	F	0.270774	1.187050	0.881913
F211	F	-0.462588	0.520759	0.462234
F212	F	-0.129255	0.854093	0.795567
F213	F	0.204078	1.187426	1.128901
H214	H	-0.324530	0.620045	0.483019
H215	H	0.008804	0.953378	0.816352
H216	H	0.342137	1.286711	1.149686
H217	H	-0.903645	1.164855	0.266409
H218	H	-0.570312	1.498188	0.599743
H219	H	-0.236979	1.831522	0.933076
F220	F	-0.215302	0.520549	0.396391
F221	F	0.118031	0.853882	0.729724
F222	F	0.451364	1.187215	1.063057
H223	H	-0.811178	0.981531	0.449395
H224	H	-0.477845	1.314864	0.782728
H225	H	-0.144512	1.648197	1.116062
F226	F	-0.910701	0.930607	0.319626
F227	F	-0.577367	1.263940	0.652960
F228	F	-0.244034	1.597273	0.986293
H229	H	-0.324232	0.948246	0.904701
H230	H	0.009101	1.281580	1.238034
H231	H	0.342434	1.614913	1.571368
