data_functionalizedCrystal
_audit_creation_method	'MofGen! by Chris Wilmer'
_symmetry_space_group_name_H-M	'P1'
_symmetry_Int_Tables_number	1
_symmetry_cell_setting	triclinic
loop_
_symmetry_equiv_pos_as_xyz
  x,y,z
_cell_length_a	15.021413
_cell_length_b	14.519709
_cell_length_c	14.519731
_cell_angle_alpha	96.315501
_cell_angle_beta	90.003039
_cell_angle_gamma	90.001715
loop_
_atom_site_label
_atom_site_type_symbol
_atom_site_fract_x
_atom_site_fract_y
_atom_site_fract_z
O1	O	-0.073918	-1.223882	0.120878
O2	O	-0.073946	-0.955406	0.135114
O3	O	-0.073923	-1.096752	-0.006241
O4	O	-0.073941	-1.082536	0.262233
O5	O	0.074141	-1.096729	-0.006221
O6	O	0.074119	-0.955384	0.135134
O7	O	0.074146	-1.223859	0.120898
Zn8	Zn	0.097641	-1.089618	0.128019
Zn9	Zn	-0.097440	-1.089648	0.127993
O10	O	0.074124	-1.082513	0.262253
C11	C	0.000083	-0.921035	0.134461
C12	C	0.000073	-0.818654	0.132473
N13	N	0.230778	-1.089604	0.128037
N14	N	-0.230578	-1.089668	0.127968
C15	C	0.470451	-1.024236	0.193369
C16	C	0.529793	-1.107600	0.211406
C17	C	0.412385	-1.089628	0.128014
C18	C	0.529785	-1.006287	0.109998
C19	C	0.587809	-1.089643	0.127994
C20	C	0.470420	-1.173034	0.146092
C21	C	0.470408	-1.071666	0.044648
C22	C	0.529723	-1.155090	0.062650
C23	C	0.311328	-1.089618	0.128028
C24	C	0.688865	-1.089663	0.127979
C25	C	0.000109	-1.096075	-0.040591
C26	C	0.000110	-1.094079	-0.142971
C27	C	0.000115	-1.258230	0.121551
C28	C	0.000120	-1.360612	0.123539
C29	C	0.000114	-0.443757	0.125153
C30	C	0.000102	-0.548065	0.127186
C31	C	0.000093	-0.631202	0.128813
C32	C	0.000082	-0.735517	0.130846
C33	C	0.000107	-1.092457	-0.226115
C34	C	0.000100	-1.090430	-0.330424
C35	C	0.000094	-1.088822	-0.413563
C36	C	0.000089	-1.086795	-0.517878
C37	C	0.000089	-1.083191	0.296603
C38	C	0.000083	-1.085187	0.398983
H39	H	0.444427	-0.968992	0.248682
Br40	Br	0.426894	-1.046280	-0.072808
H41	H	0.555864	-0.935800	0.094769
H42	H	0.555877	-1.122806	0.281897
H43	H	0.555584	-1.210457	0.007369
Br44	Br	0.427148	-1.290546	0.171611
