data_functionalizedCrystal
_audit_creation_method	'MofGen! by Chris Wilmer'
_symmetry_space_group_name_H-M	'P1'
_symmetry_Int_Tables_number	1
_symmetry_cell_setting	triclinic
loop_
_symmetry_equiv_pos_as_xyz
  x,y,z
_cell_length_a	15.995350
_cell_length_b	11.792241
_cell_length_c	14.472310
_cell_angle_alpha	90.001158
_cell_angle_beta	89.990621
_cell_angle_gamma	96.157105
loop_
_atom_site_label
_atom_site_type_symbol
_atom_site_fract_x
_atom_site_fract_y
_atom_site_fract_z
O1	O	1.111661	-0.146288	-0.076763
O2	O	0.867967	-0.164353	-0.076782
O3	O	0.995728	0.009899	-0.076766
O4	O	0.983900	-0.320540	-0.076779
O5	O	0.995695	0.009889	0.076916
O6	O	0.867934	-0.164363	0.076900
O7	O	1.111628	-0.146298	0.076919
Cu8	Cu	0.989778	-0.155332	0.090942
Cu9	Cu	0.989817	-0.155320	-0.090805
O10	O	0.983867	-0.320551	0.076903
C11	C	0.836753	-0.163612	0.000057
C12	C	0.743792	-0.161372	0.000049
N13	N	0.989757	-0.155339	0.218773
C14	C	0.994968	0.052179	0.000075
C15	C	0.992745	0.178174	0.000074
C16	C	0.406008	-0.153331	0.000069
C17	C	0.452879	-0.029232	0.000417
C18	C	0.549579	-0.031471	0.000064
C19	C	0.573587	-0.157320	0.000060
C20	C	0.532796	-0.218524	-0.087699
C21	C	0.436146	-0.215407	-0.087766
C22	C	0.435782	-0.217982	0.086999
C23	C	0.532727	-0.217953	0.088153
C24	C	0.668294	-0.159581	0.000052
C25	C	0.311300	-0.151074	0.000071
C26	C	1.142842	-0.147040	0.000078
C27	C	1.235803	-0.149279	0.000079
C28	C	0.984627	-0.362830	0.000060
C29	C	0.986850	-0.488825	0.000055
C30	C	0.988655	0.408852	0.000058
C31	C	0.990927	0.280486	0.000067
N32	N	0.989845	-0.155303	-0.218636
C33	C	0.989816	-0.155315	0.592864
C34	C	0.921222	-0.248241	0.553689
C35	C	0.921382	-0.248580	0.446601
C36	C	0.989786	-0.155327	0.407273
C37	C	1.077268	-0.181193	0.446116
C38	C	1.076883	-0.181853	0.553237
C39	C	0.971706	-0.036248	0.553397
C40	C	0.969706	-0.037042	0.446269
C41	C	0.989774	-0.155332	0.302385
C42	C	0.989833	-0.155313	0.697752
H43	H	0.577776	0.016639	0.062974
H44	H	1.093510	-0.267038	0.419276
H45	H	0.404312	-0.306518	-0.091752
H46	H	1.129549	-0.116839	0.579150
H47	H	0.856003	-0.233084	0.579473
H48	H	0.909270	-0.011376	0.580461
H49	H	0.856373	-0.233170	0.420341
Cl50	Cl	0.555277	-0.361261	-0.092766
H51	H	0.433074	0.020149	-0.062167
Cl52	Cl	0.557082	-0.359650	0.096331
H53	H	0.577231	0.016972	-0.062951
Cl54	Cl	1.041776	0.074728	0.404957
Cl55	Cl	0.387387	-0.359247	0.087912
Cl56	Cl	0.576323	-0.152881	-0.188534
Cl57	Cl	0.407585	-0.146482	-0.189044
H58	H	0.415048	-0.177416	0.153518
Cl59	Cl	0.938928	-0.383898	0.595210
Cl60	Cl	0.939290	-0.385011	0.407013
Cl61	Cl	1.101393	-0.315920	0.591798
H62	H	0.559826	-0.173274	0.153076
H63	H	0.434118	0.020370	0.063353
Cl64	Cl	1.157996	-0.079476	0.406787
Cl65	Cl	1.048925	0.070520	0.592509
Cl66	Cl	0.870346	-0.006730	0.407076
