data_functionalizedCrystal
_audit_creation_method	'MofGen! by Chris Wilmer'
_symmetry_space_group_name_H-M	'P1'
_symmetry_Int_Tables_number	1
_symmetry_cell_setting	triclinic
loop_
_symmetry_equiv_pos_as_xyz
  x,y,z
_cell_length_a	16.974959
_cell_length_b	10.654550
_cell_length_c	9.730223
_cell_angle_alpha	90.003749
_cell_angle_beta	93.649125
_cell_angle_gamma	96.056478
loop_
_atom_site_label
_atom_site_type_symbol
_atom_site_fract_x
_atom_site_fract_y
_atom_site_fract_z
O1	O	0.111049	-1.666119	-0.102068
O2	O	0.121630	-1.300477	-0.100871
O3	O	0.001295	-1.493478	-0.114240
O4	O	0.231384	-1.473118	-0.088699
O5	O	0.001298	-1.493476	0.114341
O6	O	0.121633	-1.300475	0.127709
O7	O	0.111052	-1.666117	0.126512
Zn8	Zn	0.116343	-1.483295	0.163403
Zn9	Zn	0.116339	-1.483298	-0.137762
O10	O	0.231387	-1.473116	0.139881
C11	C	0.120854	-1.253690	0.013336
C12	C	0.118530	-1.114283	0.013086
C13	C	-0.028165	-1.492698	-0.003223
C14	C	-0.115953	-1.490362	-0.012975
C15	C	0.111828	-1.712904	0.012302
C16	C	0.114152	-1.852311	0.012543
C17	C	-0.610109	-1.477326	-0.081398
C18	C	-0.527623	-1.479509	-0.072207
C19	C	-0.486394	-1.480589	0.056989
C20	C	-0.527656	-1.479499	0.177000
C21	C	-0.610142	-1.477325	0.167807
C22	C	-0.239701	-1.487098	0.097843
C23	C	-0.157209	-1.489268	0.107027
C24	C	-0.157181	-1.489280	-0.142181
C25	C	-0.239668	-1.487098	-0.151362
C26	C	-0.280924	-1.486015	-0.031351
N27	N	-0.402079	-1.482816	0.066387
N28	N	-0.365238	-1.483797	-0.040750
C29	C	0.260847	-1.473896	0.028861
C30	C	0.348634	-1.476232	0.038604
N31	N	0.116345	-1.483302	0.368939
C32	C	0.189381	-1.033703	0.020931
C33	C	0.187192	-0.902716	0.020664
C34	C	0.043295	-0.932901	0.004702
C35	C	0.045485	-1.063886	0.004979
C36	C	0.272459	-1.016274	0.030141
C37	C	0.270270	-0.885287	0.029874
N38	N	0.116330	-1.483301	-0.343299
C39	C	0.063079	-1.568785	0.434948
C40	C	0.063070	-1.568782	0.578830
C41	C	0.169599	-1.397810	0.590683
C42	C	0.169604	-1.397808	0.446803
C43	C	0.001578	-1.667498	0.428106
C44	C	0.001568	-1.667495	0.571988
H45	H	-0.494036	-1.480401	-0.169925
H46	H	-0.059195	-1.646994	0.382308
O47	O	-0.284132	-1.485860	-0.290707
H48	H	-0.241583	-1.486968	-0.372611
H49	H	0.295379	-0.839227	0.131345
H50	H	0.020835	-1.758384	0.385612
O51	O	-0.654651	-1.476149	0.297231
H52	H	-0.632269	-1.391007	0.359475
H53	H	0.298911	-1.051522	-0.065611
O54	O	0.227048	-1.305623	0.674680
H55	H	0.288778	-1.321526	0.653916
H56	H	-0.016176	-0.891852	-0.001920
H57	H	0.301572	-0.843072	-0.062319
H58	H	-0.273281	-1.486218	0.195565
H59	H	-0.494082	-1.480387	0.282194
O60	O	-0.030932	-1.150803	-0.003458
H61	H	-0.082089	-1.093750	-0.009151
O62	O	0.227050	-1.305604	0.375601
H63	H	0.264087	-1.246167	0.453920
O64	O	0.315429	-1.054495	0.161691
H65	H	0.334731	-0.969327	0.225877
O66	O	-0.112687	-1.490460	-0.271618
H67	H	-0.048404	-1.492162	-0.243528
H68	H	-0.055862	-1.637869	0.610231
O69	O	0.019523	-1.795042	0.625726
H70	H	-0.026463	-1.868781	0.582540
O71	O	-0.654575	-1.476140	-0.220745
H72	H	-0.612026	-1.477271	-0.302644
H73	H	-0.123640	-1.490110	0.212239
