data_functionalizedCrystal
_audit_creation_method	'MofGen! by Chris Wilmer'
_symmetry_space_group_name_H-M	'P1'
_symmetry_Int_Tables_number	1
_symmetry_cell_setting	triclinic
loop_
_symmetry_equiv_pos_as_xyz
  x,y,z
_cell_length_a	11.169416
_cell_length_b	16.120490
_cell_length_c	11.169409
_cell_angle_alpha	92.919204
_cell_angle_beta	90.031365
_cell_angle_gamma	87.102791
loop_
_atom_site_label
_atom_site_type_symbol
_atom_site_fract_x
_atom_site_fract_y
_atom_site_fract_z
Zn1	Zn	-0.570971	1.274677	0.771557
Zn2	Zn	-0.070971	1.774677	1.271557
Zn3	Zn	-0.771705	1.274600	0.570872
Zn4	Zn	-0.271705	1.774600	1.070872
Zn5	Zn	-0.560840	1.135248	0.560718
Zn6	Zn	-0.060840	1.635248	1.060718
Zn7	Zn	-0.761410	1.135254	0.761349
Zn8	Zn	-0.261410	1.635254	1.261349
O9	O	-0.666231	1.204945	0.666124
O10	O	-0.166231	1.704945	1.166124
O11	O	-0.606147	1.391334	0.753457
O12	O	-0.106147	1.891334	1.253457
O13	O	-0.743803	1.256080	0.401572
O14	O	-0.243803	1.756080	0.901572
O15	O	-0.394236	1.153773	0.588709
O16	O	0.105764	1.653773	1.088709
O17	O	-0.753626	1.391278	0.606014
O18	O	-0.253626	1.891278	1.106014
O19	O	-0.401679	1.256211	0.743611
O20	O	0.098321	1.756211	1.243611
O21	O	-0.588880	1.153699	0.394112
O22	O	-0.088880	1.653699	0.894112
O23	O	-0.578897	1.018581	0.578811
O24	O	-0.078897	1.518581	1.078811
O25	O	-0.736078	1.153783	0.930655
O26	O	-0.236078	1.653783	1.430655
O27	O	-0.726255	1.018585	0.726214
O28	O	-0.226255	1.518585	1.226214
O29	O	-0.596164	1.256216	0.938155
O30	O	-0.096164	1.756216	1.438155
O31	O	-0.938287	1.256086	0.596116
O32	O	-0.438287	1.756086	1.096116
O33	O	-0.930723	1.153709	0.736059
O34	O	-0.430723	1.653709	1.236059
C35	C	-0.650360	0.988333	0.650303
C36	C	-0.150360	1.488333	1.150303
C37	C	-0.643599	0.895665	0.643564
C38	C	-0.143599	1.395665	1.143564
C39	C	-0.701292	0.684735	0.701085
C40	C	-0.201292	1.184735	1.201085
C41	C	-0.631267	0.726005	0.631257
C42	C	-0.131267	1.226005	1.131257
C43	C	-0.638131	0.820413	0.638107
C44	C	-0.138131	1.320413	1.138107
C45	C	-0.694429	0.590320	0.694237
C46	C	-0.194429	1.090320	1.194237
C47	C	-0.978054	1.204912	0.666110
C48	C	-0.478054	1.704912	1.166110
C49	C	-1.111458	1.204975	0.666149
C50	C	-0.611458	1.704975	1.166149
C51	C	-0.353193	1.205000	0.666166
C52	C	0.146807	1.705000	1.166166
C53	C	-0.219795	1.205023	0.666184
C54	C	0.280205	1.705023	1.166184
C55	C	-0.666103	1.205009	0.979171
C56	C	-0.166103	1.705009	1.479171
C57	C	-0.666048	1.205036	1.112573
C58	C	-0.166048	1.705036	1.612573
C59	C	-0.682165	1.422403	0.682007
C60	C	-0.182165	1.922403	1.182007
C61	C	-0.688956	1.515071	0.688775
C62	C	-0.188956	2.015071	1.188775
C63	C	-0.666276	1.204929	0.354298
C64	C	-0.166276	1.704929	0.854298
C65	C	-0.666005	1.205063	0.220908
C66	C	-0.166005	1.705063	0.720908
H67	H	-0.566161	0.690435	0.566332
H68	H	-0.066161	1.190435	1.066332
F69	F	-0.786394	0.731225	0.785932
F70	F	-0.286394	1.231225	1.285932
