data_functionalizedCrystal
_audit_creation_method	'MofGen! by Chris Wilmer'
_symmetry_space_group_name_H-M	'P1'
_symmetry_Int_Tables_number	1
_symmetry_cell_setting	triclinic
loop_
_symmetry_equiv_pos_as_xyz
  x,y,z
_cell_length_a	12.759401
_cell_length_b	19.805405
_cell_length_c	12.759393
_cell_angle_alpha	89.963446
_cell_angle_beta	89.979062
_cell_angle_gamma	90.027935
loop_
_atom_site_label
_atom_site_type_symbol
_atom_site_fract_x
_atom_site_fract_y
_atom_site_fract_z
Zn1	Zn	1.606181	-0.269403	-0.593976
Zn2	Zn	2.106181	0.230597	-0.093976
Zn3	Zn	1.606036	-0.382606	-0.418277
Zn4	Zn	2.106036	0.117394	0.081723
Zn5	Zn	1.430480	-0.269439	-0.418311
Zn6	Zn	1.930480	0.230561	0.081689
Zn7	Zn	1.430436	-0.382558	-0.593915
Zn8	Zn	1.930436	0.117442	-0.093915
O9	O	1.518283	-0.326001	-0.506120
O10	O	2.018283	0.173999	-0.006120
O11	O	1.753183	-0.284424	-0.570681
O12	O	2.253183	0.215576	-0.070681
O13	O	1.582706	-0.367629	-0.271261
O14	O	2.082706	0.132371	0.228739
O15	O	1.453866	-0.174718	-0.441653
O16	O	1.953866	0.325282	0.058347
O17	O	1.753076	-0.367594	-0.441596
O18	O	2.253076	0.132406	0.058404
O19	O	1.582953	-0.174691	-0.570713
O20	O	2.082953	0.325309	-0.070713
O21	O	1.453725	-0.284486	-0.271285
O22	O	1.953725	0.215514	0.228715
O23	O	1.283453	-0.284440	-0.441594
O24	O	1.783453	0.215560	0.058406
O25	O	1.453791	-0.367513	-0.740944
O26	O	1.953791	0.132487	-0.240944
O27	O	1.283420	-0.367548	-0.570609
O28	O	1.783420	0.132452	-0.070609
O29	O	1.582910	-0.284378	-0.740989
O30	O	2.082910	0.215622	-0.240989
O31	O	1.582663	-0.477316	-0.441536
O32	O	2.082663	0.022684	0.058464
O33	O	1.453650	-0.477281	-0.570576
O34	O	1.953650	0.022719	-0.070576
C35	C	1.245316	-0.325993	-0.506099
C36	C	1.745316	0.174007	-0.006099
C37	C	1.128539	-0.326006	-0.506115
C38	C	1.628539	0.173994	-0.006115
C39	C	1.518165	-0.501858	-0.506069
C40	C	2.018165	-0.001858	-0.006069
C41	C	1.518210	-0.577089	-0.506082
C42	C	2.018210	-0.077089	-0.006082
C43	C	1.073688	-0.369346	-0.573187
C44	C	1.573688	0.130654	-0.073187
C45	C	0.963964	-0.369349	-0.573208
C46	C	1.463964	0.130651	-0.073208
C47	C	0.963952	-0.282669	-0.439075
C48	C	1.463952	0.217331	0.060925
C49	C	1.073674	-0.282663	-0.439060
C50	C	1.573674	0.217337	0.060940
C51	C	1.585453	-0.612429	-0.438962
C52	C	2.085453	-0.112429	0.061038
C53	C	1.585497	-0.683118	-0.438985
C54	C	2.085497	-0.183118	0.061015
C55	C	1.518294	-0.718465	-0.506124
C56	C	2.018294	-0.218465	-0.006124
C57	C	1.451048	-0.683120	-0.573252
C58	C	1.951048	-0.183120	-0.073252
C59	C	1.451010	-0.612433	-0.573234
C60	C	1.951010	-0.112433	-0.073234
C61	C	1.451203	-0.968194	-0.573330
C62	C	1.951203	-0.468194	-0.073330
C63	C	1.451245	-1.038886	-0.573342
C64	C	1.951245	-0.538886	-0.073342
C65	C	1.585691	-1.038878	-0.439081
C66	C	2.085691	-0.538878	0.060919
C67	C	1.585652	-0.968191	-0.439063
C68	C	2.085652	-0.468191	0.060937
C69	C	1.518411	-0.932852	-0.506194
C70	C	2.018411	-0.432852	-0.006194
C71	C	1.518365	-0.856204	-0.506170
C72	C	2.018365	-0.356204	-0.006170
C73	C	1.518334	-0.795112	-0.506144
C74	C	2.018334	-0.295112	-0.006144
C75	C	1.792316	-0.326010	-0.506141
C76	C	2.292316	0.173990	-0.006141
C77	C	1.909093	-0.326014	-0.506150
C78	C	2.409093	0.173986	-0.006150
C79	C	1.518362	-0.325936	-0.780153
C80	C	2.018362	0.174064	-0.280153
C81	C	1.518395	-0.325909	-0.896930
C82	C	2.018395	0.174091	-0.396930
C83	C	1.518430	-0.149459	-0.506194
C84	C	2.018430	0.350541	-0.006194
C85	C	1.518493	-0.074227	-0.506225
C86	C	2.018493	0.425773	-0.006225
C87	C	1.585633	-0.282614	-0.951817
C88	C	2.085633	0.217386	-0.451817
C89	C	1.585650	-0.282584	-1.061541
C90	C	2.085650	0.217416	-0.561541
C91	C	1.451190	-0.369151	-1.061481
C92	C	1.951190	0.130849	-0.561481
C93	C	1.451168	-0.369177	-0.951759
C94	C	1.951168	0.130823	-0.451759
C95	C	1.518265	-0.326017	-0.233152
C96	C	2.018265	0.173983	0.266848
C97	C	1.518435	-0.325854	-0.116376
C98	C	2.018435	0.174146	0.383624
H99	H	1.118356	-0.404637	-0.627790
H100	H	1.618356	0.095363	-0.127790
H101	H	1.640370	-0.247380	-0.907178
H102	H	2.140370	0.252620	-0.407178
H103	H	1.396334	-0.711906	-0.627923
H104	H	1.896334	-0.211906	-0.127923
C105	C	1.659381	-0.573554	-0.365099
C106	C	2.159381	-0.073554	0.134901
N107	N	1.715069	-0.544274	-0.309466
N108	N	2.215069	-0.044274	0.190534
C109	C	0.903632	-0.417033	-0.646984
C110	C	1.403632	0.082967	-0.146984
N111	N	0.858191	-0.452953	-0.702552
N112	N	1.358191	0.047047	-0.202552
H113	H	1.640400	-0.247328	-1.106225
H114	H	2.140400	0.252672	-0.606225
H115	H	1.396459	-0.404380	-1.106137
H116	H	1.896459	0.095620	-0.606137
C117	C	1.377290	-0.929330	-0.647231
C118	C	1.877290	-0.429330	-0.147231
N119	N	1.321634	-0.900056	-0.702916
N120	N	1.821634	-0.400056	-0.202916
H121	H	0.919267	-0.247382	-0.384480
H122	H	1.419267	0.252618	0.115520
C123	C	1.659463	-0.721988	-0.365140
C124	C	2.159463	-0.221988	0.134860
N125	N	1.715175	-0.751265	-0.309515
N126	N	2.215175	-0.251265	0.190485
C127	C	1.659572	-0.929313	-0.365195
C128	C	2.159572	-0.429313	0.134805
N129	N	1.715250	-0.900031	-0.309556
N130	N	2.215250	-0.400031	0.190444
C131	C	1.134014	-0.234983	-0.365271
C132	C	1.634014	0.265017	0.134729
N133	N	1.179462	-0.199071	-0.309697
N134	N	1.679462	0.300929	0.190303
C135	C	1.659663	-1.077757	-0.365239
C136	C	2.159663	-0.577757	0.134761
N137	N	1.715375	-1.107039	-0.309621
N138	N	2.215375	-0.607039	0.190379
C139	C	1.377317	-1.077766	-0.647209
C140	C	1.877317	-0.577766	-0.147209
N141	N	1.321638	-1.107051	-0.702844
N142	N	1.821638	-0.607051	-0.202844
H143	H	1.396256	-0.583660	-0.627892
H144	H	1.896256	-0.083660	-0.127892
H145	H	1.396408	-0.404432	-0.907069
H146	H	1.896408	0.095568	-0.407069
