data_functionalizedCrystal
_audit_creation_method	'MofGen! by Chris Wilmer'
_symmetry_space_group_name_H-M	'P1'
_symmetry_Int_Tables_number	1
_symmetry_cell_setting	triclinic
loop_
_symmetry_equiv_pos_as_xyz
  x,y,z
_cell_length_a	14.971486
_cell_length_b	9.065218
_cell_length_c	13.448316
_cell_angle_alpha	89.995277
_cell_angle_beta	89.998199
_cell_angle_gamma	84.315007
loop_
_atom_site_label
_atom_site_type_symbol
_atom_site_fract_x
_atom_site_fract_y
_atom_site_fract_z
O1	O	1.188380	0.192261	-0.082573
O2	O	0.928152	0.215285	-0.082600
O3	O	1.063645	-0.010978	-0.082584
O4	O	1.052887	0.418525	-0.082589
O5	O	1.063628	-0.010992	0.082800
O6	O	0.928134	0.215271	0.082784
O7	O	1.188363	0.192248	0.082811
Cu8	Cu	1.058247	0.203758	0.097898
Cu9	Cu	1.058268	0.203775	-0.097687
O10	O	1.052870	0.418511	0.082795
C11	C	0.894811	0.214248	0.000089
C12	C	0.795491	0.211163	0.000078
C13	C	1.062602	-0.065951	0.000106
C14	C	1.059511	-0.229731	0.000101
C15	C	0.739256	0.344086	0.000078
C16	C	0.645935	0.341178	0.000093
C17	C	0.608850	0.205345	0.000101
C18	C	0.665092	0.072412	0.000104
C19	C	0.758411	0.075321	0.000096
C20	C	0.470584	0.066357	0.000118
C21	C	0.377259	0.063446	0.000124
C22	C	0.358108	0.332214	0.000115
C23	C	0.451427	0.335123	0.000107
C24	C	0.507663	0.202189	0.000108
C25	C	1.221704	0.193284	0.000120
C26	C	1.321024	0.196370	0.000124
C27	C	1.053912	0.473483	0.000102
C28	C	1.057004	0.637264	0.000101
N29	N	1.058239	0.203746	0.235462
N30	N	1.058283	0.203775	-0.235252
C31	C	1.118255	0.103597	0.287510
C32	C	1.118260	0.103596	0.391613
C33	C	1.058254	0.203751	0.443667
C34	C	0.998232	0.303904	0.391612
C35	C	0.998223	0.303897	0.287511
C36	C	0.998257	0.303914	0.608592
C37	C	0.998267	0.303924	0.712701
C38	C	1.118294	0.103613	0.712694
C39	C	1.118285	0.103606	0.608593
C40	C	1.058264	0.203761	0.556546
H41	H	0.600152	0.449418	0.000092
H42	H	0.804197	-0.032919	0.000096
C43	C	0.336457	-0.085964	0.000150
C44	C	0.357181	-0.196408	0.086048
C45	C	0.316377	-0.345817	0.086079
C46	C	0.254849	-0.384783	0.000213
C47	C	0.234122	-0.274336	-0.085692
C48	C	0.274926	-0.124927	-0.085723
H49	H	0.402730	-0.167565	0.149617
H50	H	0.331720	-0.427576	0.149672
H51	H	0.224643	-0.495384	0.000236
H52	H	0.188573	-0.303179	-0.149261
H53	H	0.259583	-0.043168	-0.149315
H54	H	0.949369	0.385448	0.434001
C55	C	0.780045	0.493507	0.000069
C56	C	0.759318	0.603960	0.085950
C57	C	0.800105	0.753385	0.085944
C58	C	0.861619	0.792356	0.000058
C59	C	0.882350	0.681900	-0.085829
C60	C	0.841563	0.532476	-0.085824
H61	H	0.713779	0.575114	0.149534
H62	H	0.784758	0.835151	0.149524
H63	H	0.891812	0.902969	0.000054
H64	H	0.927889	0.710747	-0.149413
H65	H	0.856909	0.450709	-0.149404
H66	H	0.949378	0.385467	0.566219
H67	H	0.481618	0.445730	0.000091
C68	C	0.532447	-0.079870	0.000117
C69	C	0.527524	-0.191147	0.085996
C70	C	0.589388	-0.337367	0.085990
C71	C	0.656174	-0.372310	0.000105
C72	C	0.661099	-0.261030	-0.085780
C73	C	0.599236	-0.114810	-0.085773
H74	H	0.478083	-0.165282	0.149579
H75	H	0.585741	-0.419744	0.149568
H76	H	0.701969	-0.480551	0.000101
H77	H	0.710541	-0.286895	-0.149362
H78	H	0.602883	-0.032433	-0.149352
H79	H	0.312316	0.440454	0.000118
C80	C	1.184291	-0.006561	0.551328
C81	C	1.181439	-0.174570	0.565647
C82	C	1.247443	-0.284739	0.508381
C83	C	1.316300	-0.226900	0.436796
C84	C	1.319156	-0.058883	0.422474
C85	C	1.253151	0.051287	0.479740
H86	H	1.130464	-0.217393	0.618641
H87	H	1.245329	-0.409117	0.518983
H88	H	1.365161	-0.308454	0.394404
H89	H	1.370130	-0.016059	0.369480
H90	H	1.255266	0.175665	0.469138
H91	H	0.634890	-0.038186	0.000125
H92	H	1.167122	0.022046	0.245134
H93	H	1.167129	0.022047	0.433990
H94	H	1.167165	0.022064	0.755078
H95	H	0.949403	0.385479	0.755078
H96	H	0.949351	0.385446	0.245135
