data_functionalizedCrystal
_audit_creation_method	'MofGen! by Chris Wilmer'
_symmetry_space_group_name_H-M	'P1'
_symmetry_Int_Tables_number	1
_symmetry_cell_setting	triclinic
loop_
_symmetry_equiv_pos_as_xyz
  x,y,z
_cell_length_a	14.971491
_cell_length_b	17.019294
_cell_length_c	13.448316
_cell_angle_alpha	86.114424
_cell_angle_beta	89.991393
_cell_angle_gamma	83.504855
loop_
_atom_site_label
_atom_site_type_symbol
_atom_site_fract_x
_atom_site_fract_y
_atom_site_fract_z
O1	O	1.186689	0.102820	-0.091537
O2	O	0.926259	0.115127	-0.092583
O3	O	1.063739	-0.005853	-0.082223
O4	O	1.049209	0.223800	-0.101897
O5	O	1.063721	-0.005860	0.083161
O6	O	0.926242	0.115119	0.072801
O7	O	1.186672	0.102813	0.073847
Cu8	Cu	1.056455	0.108965	0.088425
Cu9	Cu	1.056476	0.108974	-0.107161
O10	O	1.049192	0.223792	0.063487
C11	C	0.892927	0.114572	-0.009843
C12	C	0.793634	0.112920	-0.009699
C13	C	0.365956	0.105798	-0.099262
C14	C	0.459252	0.107348	-0.099391
C15	C	0.505887	0.108123	-0.009303
C16	C	0.459221	0.107342	0.080920
C17	C	0.365927	0.105787	0.081048
C18	C	0.653675	0.110585	0.080646
C19	C	0.746975	0.112141	0.080518
C20	C	0.747000	0.112145	-0.099794
C21	C	0.653706	0.110591	-0.099665
C22	C	0.607047	0.109810	-0.009442
C23	C	1.063179	-0.035246	0.002985
C24	C	1.061526	-0.122818	0.010481
C25	C	1.060761	-0.163951	-0.076148
C26	C	1.059202	-0.246234	-0.069102
C27	C	1.058414	-0.287383	0.024574
C28	C	1.059177	-0.246244	0.111209
C29	C	1.060729	-0.163962	0.104162
C30	C	1.053720	-0.535821	0.050363
C31	C	1.052170	-0.618109	0.057404
C32	C	1.052193	-0.618094	-0.122909
C33	C	1.053751	-0.535811	-0.129948
C34	C	1.054509	-0.494678	-0.043313
C35	C	1.056823	-0.371490	0.031779
C36	C	1.056093	-0.410572	-0.050518
C37	C	1.220004	0.103368	-0.008895
C38	C	1.319296	0.105019	-0.009046
C39	C	1.049752	0.253186	-0.021723
C40	C	1.051405	0.340758	-0.029225
N41	N	1.056447	0.108959	0.225990
N42	N	1.056490	0.108975	-0.244725
C43	C	1.117342	0.055411	0.282616
C44	C	1.117348	0.055410	0.386719
C45	C	1.056462	0.108962	0.434194
C46	C	0.995561	0.162512	0.377561
C47	C	0.995552	0.162508	0.273460
C48	C	0.995586	0.162517	0.594541
C49	C	0.995596	0.162522	0.698649
C50	C	1.117382	0.055419	0.707800
C51	C	1.117373	0.055416	0.603699
C52	C	1.056472	0.108967	0.547073
H53	H	1.061407	-0.130454	-0.152429
H54	H	0.327937	0.105160	0.154511
N55	N	1.183059	-0.002326	0.447779
H56	H	1.172861	-0.058337	0.434473
H57	H	1.246479	0.006954	0.428801
H58	H	1.166954	0.011814	0.565045
N59	N	0.603410	0.109752	-0.196832
H60	H	0.572018	0.060244	-0.196602
H61	H	0.557434	0.158002	-0.204929
H62	H	0.945982	0.206112	0.416221
H63	H	1.058582	-0.279721	-0.139644
H64	H	1.054355	-0.502343	0.120908
N65	N	0.797318	0.112991	-0.197109
H66	H	0.863496	0.114090	-0.183524
H67	H	0.788329	0.063859	-0.232273
H68	H	0.615686	0.109959	0.154114
H69	H	1.058530	-0.279753	0.187483
N70	N	0.797277	0.112975	0.177681
H71	H	0.753565	0.112238	0.234857
H72	H	0.843301	0.064757	0.185731
H73	H	1.054394	-0.502313	-0.206229
H74	H	1.166926	0.011807	0.243969
N75	N	0.315658	0.104955	-0.196426
H76	H	0.269636	0.153171	-0.204586
H77	H	0.359435	0.105651	-0.253539
N78	N	1.051375	-0.662457	-0.216346
H79	H	1.050271	-0.720826	-0.197672
H80	H	0.996228	-0.641730	-0.257488
H81	H	1.166969	0.011816	0.753911
N82	N	0.509511	0.108180	0.178090
H83	H	0.555536	0.059965	0.186247
H84	H	0.540843	0.157721	0.177804
N85	N	1.051324	-0.662495	0.158444
H86	H	1.052038	-0.623952	0.212259
H87	H	0.995260	-0.690297	0.164747
N88	N	1.061550	-0.119592	0.197596
H89	H	1.060817	-0.158144	0.258010
H90	H	1.117615	-0.091792	0.199144
H91	H	1.056728	-0.377065	-0.126789
N92	N	1.055997	-0.415877	0.132813
H93	H	0.999937	-0.443682	0.139221
H94	H	1.110815	-0.456312	0.140209
H95	H	0.946015	0.206128	0.737297
N96	N	0.929898	0.220271	0.533462
H97	H	0.891330	0.254199	0.579332
H98	H	0.964089	0.255194	0.487262
N99	N	0.929868	0.220258	0.212380
H100	H	0.891298	0.254184	0.258250
H101	H	0.964054	0.255183	0.166177
H102	H	0.497239	0.107977	-0.172854
