data_functionalizedCrystal
_audit_creation_method	'MofGen! by Chris Wilmer'
_symmetry_space_group_name_H-M	'P1'
_symmetry_Int_Tables_number	1
_symmetry_cell_setting	triclinic
loop_
_symmetry_equiv_pos_as_xyz
  x,y,z
_cell_length_a	19.805407
_cell_length_b	21.295417
_cell_length_c	19.805399
_cell_angle_alpha	89.969157
_cell_angle_beta	89.980427
_cell_angle_gamma	90.030507
loop_
_atom_site_label
_atom_site_type_symbol
_atom_site_fract_x
_atom_site_fract_y
_atom_site_fract_z
Zn1	Zn	1.034716	-0.250624	-0.382704
Zn2	Zn	1.034623	-0.355893	-0.269510
Zn3	Zn	0.921531	-0.250641	-0.269529
Zn4	Zn	0.921486	-0.355859	-0.382656
O5	O	0.978089	-0.303254	-0.326100
O6	O	1.129421	-0.264595	-0.367701
O7	O	1.019601	-0.341952	-0.174796
O8	O	0.936603	-0.162549	-0.284570
O9	O	1.129352	-0.341935	-0.284537
O10	O	1.019760	-0.162537	-0.367719
O11	O	0.936513	-0.264624	-0.174810
O12	O	0.826809	-0.264592	-0.284523
O13	O	0.936527	-0.341878	-0.477379
O14	O	0.826776	-0.341895	-0.367638
O15	O	1.019717	-0.264562	-0.477415
O16	O	1.019558	-0.443977	-0.284491
O17	O	0.936437	-0.443953	-0.367619
C18	C	0.802233	-0.303242	-0.326078
C19	C	0.727001	-0.303252	-0.326085
C20	C	0.691658	-0.343564	-0.369292
C21	C	0.620969	-0.343566	-0.369302
C22	C	0.585626	-0.303257	-0.326100
C23	C	0.620974	-0.262940	-0.282890
C24	C	0.691661	-0.262936	-0.282885
C25	C	0.335901	-0.262954	-0.282913
C26	C	0.265209	-0.262962	-0.282920
C27	C	0.265209	-0.343583	-0.369330
C28	C	0.335896	-0.343579	-0.369324
C29	C	0.371238	-0.303261	-0.326117
C30	C	0.447887	-0.303259	-0.326109
C31	C	0.508979	-0.303261	-0.326105
C32	C	0.978001	-0.466806	-0.326062
C33	C	0.978024	-0.536774	-0.326069
C34	C	1.021344	-0.569632	-0.282828
C35	C	1.021376	-0.635375	-0.282844
C36	C	0.978076	-0.668256	-0.326092
C37	C	0.934753	-0.635390	-0.369341
C38	C	0.934728	-0.569649	-0.369330
N39	N	0.918865	-0.771522	-0.331245
N40	N	0.918892	-0.833974	-0.331252
C41	C	0.978152	-0.866331	-0.326131
N42	N	1.037386	-0.833878	-0.320989
N43	N	1.037358	-0.771421	-0.320979
C44	C	0.978099	-0.739542	-0.326110
C45	C	1.021509	-0.970475	-0.282905
C46	C	1.021542	-1.036219	-0.282925
C47	C	0.934914	-1.036233	-0.369419
C48	C	0.934887	-0.970490	-0.369402
C49	C	0.978184	-0.937615	-0.326142
C50	C	1.154632	-0.303267	-0.326122
C51	C	1.229864	-0.303272	-0.326132
C52	C	0.978127	-0.303214	-0.502643
C53	C	0.978143	-0.303198	-0.577875
C54	C	0.978197	-0.139064	-0.326152
C55	C	0.978243	-0.069096	-0.326175
C56	C	1.021461	-0.262937	-0.613238
C57	C	1.021468	-0.262919	-0.683927
C58	C	0.978160	-0.303165	-0.719250
C59	C	0.934838	-0.343427	-0.683882
C60	C	0.934828	-0.343442	-0.613195
C61	C	0.934876	-0.343368	-0.968955
C62	C	0.934891	-0.343352	-1.039647
C63	C	1.021516	-0.262846	-1.039687
C64	C	1.021506	-0.262860	-0.969000
C65	C	0.978182	-0.303120	-0.933638
C66	C	0.978174	-0.303138	-0.856989
C67	C	0.978171	-0.303150	-0.795897
C68	C	0.978090	-0.303248	-0.150244
C69	C	0.978205	-0.303088	-0.075012
H70	H	0.236434	-0.230134	-0.247740
H71	H	0.720429	-0.376391	-0.404470
H72	H	0.592192	-0.230118	-0.247718
C73	C	0.887215	-0.387653	-0.930066
N74	N	0.851314	-0.421009	-0.900772
H75	H	0.899451	-0.542895	-0.404542
C76	C	0.226326	-0.387930	-0.416864
N77	N	0.197041	-0.421332	-0.452665
C78	C	0.887192	-0.387692	-0.722740
N79	N	0.851304	-0.421033	-0.752008
H80	H	1.056743	-0.230136	-0.712717
H81	H	0.899547	-0.376219	-0.584402
H82	H	1.056791	-0.230062	-1.068488
C83	C	0.374768	-0.218606	-0.235380
N84	N	0.404045	-0.185202	-0.199575
C85	C	0.730539	-0.218591	-0.235352
N86	N	0.759820	-0.185188	-0.199549
C87	C	1.069104	-0.218662	-0.574389
N88	N	1.104987	-0.185311	-0.545129
H89	H	1.056767	-0.943707	-0.247681
H90	H	1.056601	-0.542868	-0.247605
H91	H	1.056654	-0.662134	-0.247632
H92	H	0.592196	-0.376393	-0.404485
C93	C	1.069199	-1.072363	-0.235353
N94	N	1.105094	-1.099587	-0.199520
C95	C	0.374770	-0.387923	-0.416848
N96	N	0.404049	-0.421322	-0.452647
C97	C	0.887121	-0.671561	-0.416913
N98	N	0.851243	-0.698805	-0.452745
H99	H	0.899661	-1.063004	-0.404636
C100	C	0.887245	-0.934344	-0.416985
N101	N	0.851366	-0.907119	-0.452834
C102	C	1.069146	-0.218584	-0.930148
N103	N	1.105026	-0.185232	-0.900886
H104	H	0.899621	-0.376126	-1.068406
