data_functionalizedCrystal
_audit_creation_method	'MofGen! by Chris Wilmer'
_symmetry_space_group_name_H-M	'P1'
_symmetry_Int_Tables_number	1
_symmetry_cell_setting	triclinic
loop_
_symmetry_equiv_pos_as_xyz
  x,y,z
_cell_length_a	19.077236
_cell_length_b	12.594516
_cell_length_c	19.076919
_cell_angle_alpha	92.275735
_cell_angle_beta	89.887323
_cell_angle_gamma	92.304758
loop_
_atom_site_label
_atom_site_type_symbol
_atom_site_fract_x
_atom_site_fract_y
_atom_site_fract_z
Zn1	Zn	1.058347	-0.386368	-0.440560
Zn2	Zn	1.063012	-0.556940	-0.323062
Zn3	Zn	0.945562	-0.385810	-0.318340
Zn4	Zn	0.940833	-0.571140	-0.435801
O5	O	1.001938	-0.475065	-0.379441
O6	O	1.157299	-0.403286	-0.428942
O7	O	1.051363	-0.528063	-0.224104
O8	O	0.960551	-0.236938	-0.334569
O9	O	1.160726	-0.528605	-0.342616
O10	O	1.043413	-0.237348	-0.424364
O11	O	0.965074	-0.402335	-0.220636
O12	O	0.846602	-0.416104	-0.329954
O13	O	0.952490	-0.552806	-0.534763
O14	O	0.843127	-0.552265	-0.416251
O15	O	1.038827	-0.417055	-0.538260
O16	O	1.046777	-0.707771	-0.338001
O17	O	0.957013	-0.718203	-0.420830
C18	C	0.819368	-0.485665	-0.372074
C19	C	0.741263	-0.490227	-0.368939
C20	C	0.702783	-0.427236	-0.412480
C21	C	0.629395	-0.431517	-0.409529
C22	C	0.594489	-0.498795	-0.363039
C23	C	0.632974	-0.561788	-0.319494
C24	C	0.706361	-0.557501	-0.322442
C25	C	0.375198	-0.518595	-0.349391
C26	C	0.301806	-0.522880	-0.346447
C27	C	0.298232	-0.392606	-0.436482
C28	C	0.371620	-0.388330	-0.439429
C29	C	0.410099	-0.451319	-0.395881
N30	N	0.519475	-0.503174	-0.360023
N31	N	0.485112	-0.446933	-0.398894
C32	C	1.001906	-0.751607	-0.379427
C33	C	1.001956	-0.869910	-0.379448
C34	C	1.050831	-0.933451	-0.334449
C35	C	1.065423	-1.007210	-0.399276
C36	C	0.987451	-1.006947	-0.314666
C37	C	1.016579	-0.942112	-0.444309
C38	C	0.938579	-0.941842	-0.359654
C39	C	0.953144	-1.015574	-0.424524
C40	C	1.185222	-0.464423	-0.386837
C41	C	1.263326	-0.459889	-0.389988
C42	C	0.994611	-0.486577	-0.562721
C43	C	0.991488	-0.491482	-0.640824
C44	C	1.001989	-0.197443	-0.379471
C45	C	1.002011	-0.079137	-0.379483
C46	C	1.034970	-0.423112	-0.679338
C47	C	1.032027	-0.427718	-0.752724
C48	C	0.985605	-0.500700	-0.787594
C49	C	0.942119	-0.569073	-0.749074
C50	C	0.945059	-0.564462	-0.675689
C51	C	0.971990	-0.522067	-1.006874
C52	C	0.969055	-0.526676	-1.080264
C53	C	1.058963	-0.385318	-1.083909
C54	C	1.061901	-0.380717	-1.010523
C55	C	1.018412	-0.449086	-0.972009
N56	N	0.982598	-0.505412	-0.862606
N57	N	1.021417	-0.444369	-0.896999
C58	C	1.009278	-0.463518	-0.196876
C59	C	1.012537	-0.458305	-0.118779
H60	H	0.406519	-0.569887	-0.313931
H61	H	0.909644	-0.620126	-0.644331
O62	O	0.903776	-1.058025	-0.469942
C63	C	0.837157	-1.023254	-0.449525
H64	H	0.843570	-0.945969	-0.416580
H65	H	0.809247	-1.086481	-0.417273
C66	C	0.785549	-1.099187	-0.555759
C67	C	0.793426	-1.004258	-0.515299
H68	H	0.758572	-1.087473	-0.596330
H69	H	0.830431	-1.122616	-0.569513
H70	H	0.762293	-1.151866	-0.528874
H71	H	0.816690	-0.951585	-0.542181
H72	H	0.748547	-0.980819	-0.501551
O73	O	0.874658	-0.907480	-0.339518
C74	C	0.859532	-0.940351	-0.271142
H75	H	0.910567	-0.955405	-0.242880
H76	H	0.825281	-1.016682	-0.274186
C77	C	0.757655	-0.834324	-0.265228
C78	C	0.820338	-0.852805	-0.230514
H79	H	0.733475	-0.780324	-0.240167
H80	H	0.767843	-0.812180	-0.311295
H81	H	0.729121	-0.897939	-0.267762
H82	H	0.848874	-0.789194	-0.227988
H83	H	0.810153	-0.874936	-0.184446
H84	H	1.099704	-0.321290	-0.982137
O85	O	1.074162	-0.361187	-0.790159
C86	C	1.032465	-0.297442	-0.831003
H87	H	0.978007	-0.292704	-0.806651
H88	H	1.027813	-0.333970	-0.886522
C89	C	1.133649	-0.190683	-0.863424
C90	C	1.066765	-0.184857	-0.833512
H91	H	1.154808	-0.121237	-0.864975
H92	H	1.161742	-0.233632	-0.835909
H93	H	1.129764	-0.221128	-0.909688
H94	H	1.070653	-0.154426	-0.787246
H95	H	1.038674	-0.141901	-0.861019
O96	O	0.591986	-0.370217	-0.451726
C97	C	0.551114	-0.301361	-0.410097
H98	H	0.575434	-0.289877	-0.355651
H99	H	0.495593	-0.337361	-0.405401
C100	C	0.518746	-0.207136	-0.511387
C101	C	0.548620	-0.193024	-0.444518
H102	H	0.517204	-0.140309	-0.532620
H103	H	0.546279	-0.253527	-0.539435
H104	H	0.472481	-0.237139	-0.507464
H105	H	0.594886	-0.163034	-0.448442
H106	H	0.521094	-0.146624	-0.416472
O107	O	0.598958	-0.627119	-0.274394
C108	C	0.525933	-0.617379	-0.281116
H109	H	0.513751	-0.586643	-0.334982
H110	H	0.506765	-0.559203	-0.238664
C111	C	0.503476	-0.764600	-0.206883
C112	C	0.488514	-0.726857	-0.273044
H113	H	0.480393	-0.832128	-0.201901
H114	H	0.552674	-0.771159	-0.202352
H115	H	0.487502	-0.716110	-0.171514
H116	H	0.504496	-0.775339	-0.308412
H117	H	0.439318	-0.720308	-0.277581
H118	H	0.266894	-0.341322	-0.471936
O119	O	1.079968	-0.352161	-0.645389
C120	C	1.041671	-0.283053	-0.601346
H121	H	0.988854	-0.322998	-0.588192
H122	H	1.032827	-0.206405	-0.629328
C123	C	1.148000	-0.208085	-0.549361
C124	C	1.083132	-0.257149	-0.533201
H125	H	1.173576	-0.192101	-0.507327
H126	H	1.173802	-0.254641	-0.579035
H127	H	1.140621	-0.144217	-0.572681
H128	H	1.090512	-0.321022	-0.509889
H129	H	1.057332	-0.210603	-0.503521
O130	O	0.972866	-1.040906	-0.249241
C131	C	1.024511	-0.998887	-0.201962
H132	H	1.050407	-0.924074	-0.223870
H133	H	1.065826	-1.060374	-0.194469
C134	C	0.958326	-1.062873	-0.103937
C135	C	0.990129	-0.970981	-0.130842
H136	H	0.937119	-1.045664	-0.060066
H137	H	0.923533	-1.091186	-0.135789
H138	H	0.992761	-1.114104	-0.097698
H139	H	0.955692	-0.919757	-0.137088
H140	H	1.024915	-0.942659	-0.098989
H141	H	1.094368	-0.329654	-1.115275
H142	H	0.936589	-0.577753	-0.975525
O143	O	0.736717	-0.362037	-0.457717
C144	C	0.777373	-0.423105	-0.504729
H145	H	0.755086	-0.508504	-0.508087
H146	H	0.833857	-0.422107	-0.485234
C147	C	0.802966	-0.270912	-0.573757
C148	C	0.775588	-0.375799	-0.577886
H149	H	0.801868	-0.241730	-0.618883
H150	H	0.775577	-0.229768	-0.542083
H151	H	0.850033	-0.270095	-0.557508
H152	H	0.728519	-0.376614	-0.594126
H153	H	0.802969	-0.416942	-0.609565
H154	H	0.931251	-0.586109	-1.108653
O155	O	0.897085	-0.639936	-0.783055
C156	C	0.903802	-0.629331	-0.856085
H157	H	0.957636	-0.591956	-0.868305
H158	H	0.861299	-0.576376	-0.875233
C159	C	0.829710	-0.785671	-0.878479
C160	C	0.895833	-0.739775	-0.893488
H161	H	0.824792	-0.853796	-0.901552
H162	H	0.825183	-0.792814	-0.829278
H163	H	0.794299	-0.741531	-0.894436
H164	H	0.931243	-0.783908	-0.877524
H165	H	0.900367	-0.732642	-0.942688
O166	O	1.129435	-1.041523	-0.419158
C167	C	1.180787	-0.999469	-0.371572
H168	H	1.154925	-0.978068	-0.319254
H169	H	1.207192	-0.925103	-0.393579
C170	C	1.267910	-1.109180	-0.424792
C171	C	1.236147	-1.082905	-0.360533
H172	H	1.302061	-1.160644	-0.417984
H173	H	1.233314	-1.137511	-0.456854
H174	H	1.289909	-1.047201	-0.443125
H175	H	1.214141	-1.144880	-0.342205
H176	H	1.270740	-1.054586	-0.328467
O177	O	0.405442	-0.323028	-0.484680
C178	C	0.384735	-0.351910	-0.553970
H179	H	0.331395	-0.396035	-0.553241
H180	H	0.425098	-0.405751	-0.579238
C181	C	0.445156	-0.196924	-0.597405
C182	C	0.379641	-0.251112	-0.596510
H183	H	0.442017	-0.134749	-0.623647
H184	H	0.459109	-0.177467	-0.550723
H185	H	0.478785	-0.241803	-0.618460
H186	H	0.346015	-0.206238	-0.575447
H187	H	0.365682	-0.270559	-0.643189
O188	O	0.743776	-0.618536	-0.280075
C189	C	0.788044	-0.552506	-0.236475
H190	H	0.766100	-0.469691	-0.231341
H191	H	0.842798	-0.547007	-0.260439
C192	C	0.819030	-0.701391	-0.169718
C193	C	0.792075	-0.599678	-0.163408
H194	H	0.821520	-0.730490	-0.124648
H195	H	0.789208	-0.745878	-0.199093
H196	H	0.864656	-0.696794	-0.189691
H197	H	0.746447	-0.604278	-0.143444
H198	H	0.821889	-0.555193	-0.134028
H199	H	0.273388	-0.577671	-0.308589
O200	O	1.100048	-0.890598	-0.289010
C201	C	1.067202	-0.827897	-0.236671
H202	H	1.009742	-0.855278	-0.232139
H203	H	1.070727	-0.740939	-0.251267
C204	C	1.174751	-0.806252	-0.171471
C205	C	1.104180	-0.839888	-0.165900
H206	H	1.197562	-0.813644	-0.127816
H207	H	1.196881	-0.848492	-0.206733
H208	H	1.177679	-0.733790	-0.183636
H209	H	1.101253	-0.912352	-0.153744
H210	H	1.082049	-0.797660	-0.130634
O211	O	1.031342	-0.907999	-0.509659
C212	C	1.031146	-0.796021	-0.508848
H213	H	1.041237	-0.762772	-0.453171
H214	H	0.977988	-0.770103	-0.527560
C215	C	1.076714	-0.794465	-0.626279
C216	C	1.089114	-0.753627	-0.557897
H217	H	1.112469	-0.768313	-0.656537
H218	H	1.076844	-0.869907	-0.626827
H219	H	1.032414	-0.772863	-0.641863
H220	H	1.133409	-0.775240	-0.542311
H221	H	1.088994	-0.678187	-0.557347
