data_functionalizedCrystal
_audit_creation_method	'MofGen! by Chris Wilmer'
_symmetry_space_group_name_H-M	'P1'
_symmetry_Int_Tables_number	1
_symmetry_cell_setting	triclinic
loop_
_symmetry_equiv_pos_as_xyz
  x,y,z
_cell_length_a	10.723023
_cell_length_b	13.330367
_cell_length_c	10.723023
_cell_angle_alpha	90.003603
_cell_angle_beta	84.467548
_cell_angle_gamma	90.007410
loop_
_atom_site_label
_atom_site_type_symbol
_atom_site_fract_x
_atom_site_fract_y
_atom_site_fract_z
O1	O	1.657194	0.083418	0.175022
O2	O	1.294042	0.083421	0.191776
O3	O	1.483995	0.083415	0.001823
O4	O	1.467241	0.083424	0.364975
O5	O	1.483967	-0.083432	0.001818
O6	O	1.294014	-0.083426	0.191772
O7	O	1.657166	-0.083429	0.175017
Cu8	Cu	1.475588	-0.098662	0.183394
Cu9	Cu	1.475620	0.098654	0.183399
O10	O	1.467213	-0.083423	0.364971
C11	C	1.247528	-0.000002	0.190555
C12	C	1.108974	-0.000002	0.186908
C13	C	0.903991	-0.086430	0.181510
C14	C	1.047195	-0.086433	0.185279
N15	N	1.475574	-0.237444	0.183390
C16	C	1.391505	-0.710064	0.267477
C17	C	1.559769	-0.710037	0.099312
C18	C	1.559755	-0.605018	0.099308
C19	C	1.475616	-0.552518	0.183391
C20	C	1.391491	-0.605036	0.267479
C21	C	1.643887	-0.552493	0.015231
C22	C	1.643877	-0.447468	0.015224
C23	C	1.559731	-0.394966	0.099303
C24	C	1.475602	-0.447490	0.183392
C25	C	1.391463	-0.394990	0.267476
C26	C	1.307326	-0.447512	0.351561
C27	C	1.307345	-0.552534	0.351557
C28	C	1.559713	-0.289944	0.099306
C29	C	1.391448	-0.289961	0.267477
C30	C	1.703680	-0.000003	0.176239
C31	C	1.842234	0.000002	0.179886
C32	C	1.482762	-0.000007	-0.044679
C33	C	1.479115	-0.000004	-0.183233
N34	N	1.475644	0.237436	0.183394
C35	C	1.477503	0.086429	-0.244997
C36	C	1.473734	0.086435	-0.388200
C37	C	1.468446	0.000001	0.411473
C38	C	1.472093	0.000005	0.550027
H39	H	0.895378	0.073998	0.181294
H40	H	1.628221	-0.247185	0.030851
H41	H	1.472354	0.160433	-0.441316
H42	H	1.473485	-0.073998	-0.396867
C43	C	1.037237	0.099974	0.185020
N44	N	0.983195	0.175276	0.183600
C45	C	1.118937	-0.186404	0.187186
N46	N	1.172976	-0.261706	0.188633
C47	C	0.832201	-0.186398	0.179619
N48	N	0.778130	-0.261698	0.178194
H49	H	1.322927	-0.247222	0.335944
H50	H	1.322999	-0.752830	0.335935
H51	H	1.238825	-0.404754	0.420027
C52	C	1.477205	-0.099971	-0.255016
N53	N	1.475768	-0.175270	-0.309081
H54	H	1.238845	-0.595304	0.420017
H55	H	1.628279	-0.752786	0.030860
C56	C	1.736434	-0.610249	-0.077254
N57	N	1.806140	-0.653756	-0.146921
H58	H	1.478909	0.160424	-0.191857
C59	C	1.736418	-0.389703	-0.077280
N60	N	1.806117	-0.346193	-0.146959
