data_functionalizedCrystal
_audit_creation_method	'MofGen! by Chris Wilmer'
_symmetry_space_group_name_H-M	'P1'
_symmetry_Int_Tables_number	1
_symmetry_cell_setting	triclinic
loop_
_symmetry_equiv_pos_as_xyz
  x,y,z
_cell_length_a	10.654541
_cell_length_b	11.026607
_cell_length_c	9.482900
_cell_angle_alpha	78.599815
_cell_angle_beta	80.619723
_cell_angle_gamma	83.465027
loop_
_atom_site_label
_atom_site_type_symbol
_atom_site_fract_x
_atom_site_fract_y
_atom_site_fract_z
O1	O	1.720215	-0.151883	-0.120882
O2	O	1.358268	-0.168155	-0.120887
O3	O	1.509243	0.016885	-0.120880
O4	O	1.569240	-0.336924	-0.120890
O5	O	1.478611	-0.020853	0.120911
O6	O	1.327636	-0.205893	0.120904
O7	O	1.689583	-0.189621	0.120909
Cu8	Cu	1.505813	-0.201203	0.142984
Cu9	Cu	1.542039	-0.156573	-0.142962
O10	O	1.538608	-0.374662	0.120902
C11	C	1.295895	-0.185830	0.000008
C12	C	1.155676	-0.182257	0.000006
C13	C	1.751956	-0.171946	0.000010
C14	C	1.892176	-0.175518	0.000003
C15	C	1.872118	0.045751	-0.000009
C16	C	1.927964	0.154704	-0.000022
C17	C	2.059713	0.151340	-0.000028
C18	C	2.135620	0.039011	-0.000015
C19	C	2.079774	-0.069941	-0.000002
C20	C	1.948021	-0.066564	-0.000001
C21	C	2.099830	-0.291209	0.000020
C22	C	1.968083	-0.287846	0.000015
C23	C	2.175737	-0.403538	0.000032
C24	C	2.119892	-0.512491	0.000036
C25	C	1.988135	-0.509122	0.000039
C26	C	1.912237	-0.396799	0.000029
C27	C	1.482859	0.043320	0.000014
C28	C	1.449865	0.178313	0.000008
C29	C	1.564992	-0.401097	0.000005
C30	C	1.597987	-0.536087	0.000001
N31	N	1.480342	-0.232593	0.344103
C32	C	1.540969	0.251353	0.000007
C33	C	1.506870	0.390874	0.000002
N34	N	1.567517	-0.125175	-0.344081
C35	C	1.534516	-0.165825	0.416305
C36	C	1.513335	-0.191951	0.583721
H37	H	1.764842	0.048504	-0.000020
F38	F	1.314920	0.231584	-0.000007
H39	H	1.629575	-0.048661	0.593797
F40	F	1.399216	-0.332584	0.425302
H41	H	2.105182	0.240058	-0.000035
H42	H	1.866144	0.246156	-0.000012
H43	H	2.242894	0.036279	-0.000002
F44	F	2.200681	-0.632027	0.000057
H45	H	1.644209	0.210591	0.000018
F46	F	1.432205	-0.291948	0.664914
F47	F	1.732943	0.410653	-0.000004
F48	F	1.615362	-0.065611	0.335106
F49	F	1.371919	0.444140	-0.000013
H50	H	2.283012	-0.406270	0.000037
H51	H	1.942673	-0.597847	0.000060
H52	H	1.804959	-0.394044	0.000025
