data_functionalizedCrystal
_audit_creation_method	'MofGen! by Chris Wilmer'
_symmetry_space_group_name_H-M	'P1'
_symmetry_Int_Tables_number	1
_symmetry_cell_setting	triclinic
loop_
_symmetry_equiv_pos_as_xyz
  x,y,z
_cell_length_a	19.188933
_cell_length_b	19.188924
_cell_length_c	9.565339
_cell_angle_alpha	89.998167
_cell_angle_beta	89.997878
_cell_angle_gamma	83.143767
loop_
_atom_site_label
_atom_site_type_symbol
_atom_site_fract_x
_atom_site_fract_y
_atom_site_fract_z
O1	O	0.926141	0.087169	-0.116220
O2	O	1.426141	0.587169	0.383780
O3	O	0.722830	0.098902	-0.116234
O4	O	1.222830	0.598902	0.383766
O5	O	0.830355	-0.008620	-0.116210
O6	O	1.330355	0.491380	0.383790
O7	O	0.818616	0.194692	-0.116244
O8	O	1.318616	0.694692	0.383756
O9	O	0.830347	-0.008613	0.116310
O10	O	1.330347	0.491387	0.616310
O11	O	0.722821	0.098909	0.116287
O12	O	1.222821	0.598909	0.616287
O13	O	0.926133	0.087176	0.116300
O14	O	1.426133	0.587176	0.616300
Zn15	Zn	0.824476	0.093044	0.153211
Zn16	Zn	1.324476	0.593044	0.653211
Zn17	Zn	0.824487	0.093035	-0.153144
Zn18	Zn	1.324487	0.593035	0.346856
O19	O	0.818608	0.194698	0.116277
O20	O	1.318608	0.694698	0.616277
C21	C	0.696815	0.098525	0.000025
C22	C	1.196815	0.598525	0.500025
C23	C	0.619310	0.097384	0.000020
C24	C	1.119310	0.597384	0.500020
C25	C	0.066060	0.089235	-0.126710
C26	C	0.566060	0.589235	0.373290
C27	C	0.138884	0.090303	-0.126716
C28	C	0.638884	0.590303	0.373284
C29	C	0.175296	0.090844	0.000030
C30	C	0.675296	0.590844	0.500030
C31	C	0.138881	0.090299	0.126792
C32	C	0.638881	0.590299	0.626792
C33	C	0.066059	0.089224	0.126794
C34	C	0.566059	0.589224	0.626794
N35	N	0.284312	0.132266	0.094367
N36	N	0.784312	0.632266	0.594367
N37	N	0.353489	0.133289	0.094356
N38	N	0.853489	0.633289	0.594356
C39	C	0.394705	0.094082	0.000032
C40	C	0.894705	0.594082	0.500032
N41	N	0.364128	0.053823	-0.094302
N42	N	0.864128	0.553823	0.405698
N43	N	0.294944	0.052803	-0.094296
N44	N	0.794944	0.552803	0.405704
C45	C	0.254260	0.092010	0.000042
C46	C	0.754260	0.592010	0.500042
C47	C	0.510077	0.095781	-0.126727
C48	C	1.010077	0.595781	0.373273
C49	C	0.582903	0.096844	-0.126727
C50	C	1.082903	0.596844	0.373273
C51	C	0.582897	0.096847	0.126784
C52	C	1.082897	0.596847	0.626784
C53	C	0.510074	0.095776	0.126780
C54	C	1.010074	0.595776	0.626780
C55	C	0.473667	0.095246	0.000021
C56	C	0.973667	0.595246	0.500021
C57	C	0.829972	-0.034628	0.000052
C58	C	1.329972	0.465372	0.500052
C59	C	0.828833	-0.112133	0.000055
C60	C	1.328833	0.387867	0.500055
C61	C	0.828306	-0.148535	-0.126692
C62	C	1.328306	0.351465	0.373308
C63	C	0.827226	-0.221358	-0.126703
C64	C	1.327226	0.278642	0.373297
C65	C	0.826687	-0.257777	0.000041
C66	C	1.326687	0.242223	0.500041
C67	C	0.827210	-0.221365	0.126805
C68	C	1.327210	0.278635	0.626805
C69	C	0.828283	-0.148543	0.126812
C70	C	1.328283	0.351457	0.626812
N71	N	0.864731	-0.377437	0.094376
N72	N	1.364731	0.122563	0.594376
N73	N	0.863714	-0.446616	0.094361
N74	N	1.363714	0.053384	0.594361
C75	C	0.823453	-0.477186	0.000027
C76	C	1.323453	0.022814	0.500027
N77	N	0.784257	-0.435967	-0.094311
N78	N	1.284257	0.064033	0.405689
N79	N	0.785278	-0.366782	-0.094300
N80	N	1.285278	0.133218	0.405700
C81	C	0.825523	-0.336741	0.000047
C82	C	1.325523	0.163259	0.500047
C83	C	0.821754	-0.592552	-0.126740
C84	C	1.321754	-0.092552	0.373260
C85	C	0.820670	-0.665375	-0.126745
C86	C	1.320670	-0.165375	0.373255
C87	C	0.820661	-0.665382	0.126766
C88	C	1.320661	-0.165382	0.626766
C89	C	0.821738	-0.592559	0.126767
C90	C	1.321738	-0.092559	0.626767
C91	C	0.822288	-0.556149	0.000011
C92	C	1.322288	-0.056149	0.500011
C93	C	0.952148	0.087553	0.000039
C94	C	1.452148	0.587553	0.500039
C95	C	1.029653	0.088694	0.000034
C96	C	1.529653	0.588694	0.500034
C97	C	0.818991	0.220706	0.000012
C98	C	1.318991	0.720706	0.500012
C99	C	0.820130	0.298211	-0.000001
C100	C	1.320130	0.798211	0.499999
N101	N	0.824473	0.093049	0.362290
N102	N	1.324473	0.593049	0.862290
N103	N	0.824495	0.093024	-0.362224
N104	N	1.324495	0.593024	0.137776
C105	C	0.774731	0.142758	0.453483
C106	C	1.274731	0.642758	0.953483
C107	C	0.837783	0.156114	0.546663
C108	C	1.337783	0.656114	1.046663
C109	C	0.761449	0.079699	0.546665
C110	C	1.261449	0.579699	1.046665
C111	C	0.887556	0.106436	0.453419
C112	C	1.387556	0.606436	0.953419
C113	C	0.811181	0.029994	0.453413
C114	C	1.311181	0.529994	0.953413
C115	C	0.874278	0.043322	0.546552
C116	C	1.374278	0.543322	1.046552
H117	H	0.480433	0.095347	-0.229942
H118	H	0.980433	0.595347	0.270058
H119	H	0.168533	0.090738	0.229989
H120	H	0.668533	0.590738	0.729989
H121	H	0.612545	0.097280	-0.229942
H122	H	1.112545	0.597280	0.270058
H123	H	0.826769	-0.251022	0.230000
H124	H	1.326769	0.248978	0.730000
H125	H	0.732704	0.184834	0.412618
H126	H	1.232704	0.684834	0.912618
O127	O	0.826587	-0.256754	-0.249782
O128	O	1.326587	0.243246	0.250218
C129	C	0.765519	-0.290798	-0.257334
C130	C	1.265519	0.209202	0.242666
H131	H	0.723585	-0.263185	-0.185424
H132	H	1.223585	0.236815	0.314576
H133	H	0.745219	-0.288922	-0.369440
H134	H	1.245219	0.211078	0.130560
H135	H	0.778372	-0.347814	-0.223247
H136	H	1.278372	0.152186	0.276753
H137	H	0.820217	-0.695033	0.229963
H138	H	1.320217	-0.195033	0.729963
H139	H	0.708142	0.068418	0.587628
H140	H	1.208142	0.568418	1.087628
H141	H	0.612544	0.097285	0.229983
H142	H	1.112544	0.597285	0.729983
H143	H	0.480430	0.095338	0.229990
H144	H	0.980430	0.595338	0.729990
H145	H	0.828752	-0.118894	-0.229907
H146	H	1.328752	0.381106	0.270093
H147	H	0.168532	0.090748	-0.229930
H148	H	0.668532	0.590748	0.270070
O149	O	0.828826	-0.113290	0.250065
O150	O	1.328826	0.386710	0.750065
C151	C	0.828096	-0.161043	0.361936
C152	C	1.328096	0.338957	0.861936
H153	H	0.849431	-0.215912	0.324780
H154	H	1.349431	0.284088	0.824780
H155	H	0.862290	-0.144542	0.450592
H156	H	1.362290	0.355458	0.950592
H157	H	0.771978	-0.161289	0.400897
H158	H	1.271978	0.338711	0.900897
H159	H	0.822198	-0.562904	-0.229953
H160	H	1.322198	-0.062904	0.270047
H161	H	0.820238	-0.695012	-0.229962
H162	H	1.320238	-0.195012	0.270038
O163	O	0.030793	0.088735	0.250044
O164	O	0.530793	0.588735	0.750044
C165	C	0.078546	0.089420	0.361918
C166	C	0.578546	0.589420	0.861918
H167	H	0.127499	0.112282	0.324760
H168	H	0.627499	0.612282	0.824760
H169	H	0.052966	0.123000	0.450565
H170	H	0.552966	0.623000	0.950565
H171	H	0.093785	0.033533	0.400895
H172	H	0.593785	0.533533	0.900895
O173	O	0.822291	-0.557307	0.250016
O174	O	1.322291	-0.057307	0.750016
C175	C	0.821568	-0.605062	0.361885
C176	C	1.321568	-0.105062	0.861885
H177	H	0.842900	-0.659930	0.324721
H178	H	1.342900	-0.159930	0.824721
H179	H	0.855768	-0.588563	0.450533
H180	H	1.355768	-0.088563	0.950533
H181	H	0.765452	-0.605308	0.400861
H182	H	1.265452	-0.105308	0.900861
H183	H	0.849041	0.209428	0.587622
H184	H	1.349041	0.709428	1.087622
H185	H	0.940875	0.117781	0.412632
H186	H	1.440875	0.617781	0.912632
O187	O	0.924614	-0.006770	0.594945
O188	O	1.424614	0.493230	1.094945
C189	C	0.990942	0.007549	0.547145
C190	C	1.490942	0.507549	1.047145
H191	H	0.988764	0.065746	0.521140
H192	H	1.488764	0.565746	1.021140
H193	H	1.031809	-0.006638	0.632171
H194	H	1.531809	0.493362	1.132171
H195	H	1.005886	-0.024880	0.449475
H196	H	1.505886	0.475120	0.949475
O197	O	0.797606	-0.033559	0.404563
O198	O	1.297606	0.466441	0.904563
C199	C	0.731071	-0.047424	0.452018
C200	C	1.231071	0.452576	0.952018
H201	H	0.697774	0.004151	0.478223
H202	H	1.197774	0.504151	0.978223
H203	H	0.704073	-0.075861	0.366707
H204	H	1.204073	0.424139	0.866707
H205	H	0.737564	-0.081773	0.549495
H206	H	1.237564	0.418227	1.049495
H207	H	0.036423	0.088801	-0.229928
H208	H	0.536423	0.588801	0.270072
