data_functionalizedCrystal
_audit_creation_method	'MofGen! by Chris Wilmer'
_symmetry_space_group_name_H-M	'P1'
_symmetry_Int_Tables_number	1
_symmetry_cell_setting	triclinic
loop_
_symmetry_equiv_pos_as_xyz
  x,y,z
_cell_length_a	10.723024
_cell_length_b	10.540539
_cell_length_c	9.198806
_cell_angle_alpha	89.998955
_cell_angle_beta	89.996352
_cell_angle_gamma	84.496680
loop_
_atom_site_label
_atom_site_type_symbol
_atom_site_fract_x
_atom_site_fract_y
_atom_site_fract_z
O1	O	1.657276	0.178046	-0.120876
O2	O	1.294132	0.195088	-0.120880
O3	O	1.483989	0.001856	-0.120876
O4	O	1.467419	0.371278	-0.120880
O5	O	1.483974	0.001856	0.120909
O6	O	1.294117	0.195088	0.120905
O7	O	1.657261	0.178045	0.120909
Cu8	Cu	1.475688	0.186567	0.142984
Cu9	Cu	1.475706	0.186567	-0.142955
O10	O	1.467404	0.371277	0.120905
C11	C	1.247624	0.193848	0.000012
C12	C	1.109068	0.190137	0.000010
C13	C	1.034139	0.298260	0.000008
C14	C	0.890934	0.294427	0.000006
C15	C	1.482739	-0.045446	0.000014
C16	C	1.479021	-0.186392	0.000006
C17	C	1.336563	-0.369746	-0.000538
C18	C	1.340332	-0.223130	0.000006
C19	C	1.545756	-0.248085	0.138078
C20	C	1.541023	-0.394627	0.138194
C21	C	1.543861	-0.395146	-0.136760
C22	C	1.545138	-0.248164	-0.138586
C23	C	1.703769	0.179286	0.000014
C24	C	1.842325	0.182997	0.000007
C25	C	1.468654	0.418580	0.000012
C26	C	1.472372	0.559526	0.000011
N27	N	1.475684	0.186565	0.344098
N28	N	1.475719	0.186558	-0.344069
C29	C	1.555399	0.105075	0.416297
C30	C	1.555419	0.105071	0.583709
H31	H	1.287821	-0.180499	-0.098969
C32	C	1.052520	0.061243	0.000011
C33	C	0.966766	0.027192	0.125562
C34	C	0.910222	-0.101706	0.125563
C35	C	0.939432	-0.196555	0.000012
C36	C	1.025191	-0.162507	-0.125549
C37	C	1.081735	-0.033608	-0.125550
H38	H	0.945138	0.097407	0.218511
H39	H	0.846737	-0.126911	0.218512
H40	H	0.897575	-0.291973	0.000012
H41	H	1.046819	-0.232721	-0.218498
H42	H	1.145220	-0.008404	-0.218499
H43	H	0.826548	0.386988	-0.000001
H44	H	1.076009	0.393665	0.000015
H45	H	1.407472	0.256334	0.593853
H46	H	0.906704	0.090430	-0.000001
H47	H	1.640766	-0.442646	0.144459
C48	C	1.262555	-0.408323	-0.134308
C49	C	1.324524	-0.504524	-0.244685
C50	C	1.250519	-0.543101	-0.378468
C51	C	1.114544	-0.485477	-0.401874
C52	C	1.052567	-0.389270	-0.291494
C53	C	1.126573	-0.350694	-0.157711
H54	H	1.425188	-0.547186	-0.227362
H55	H	1.296399	-0.614320	-0.460178
H56	H	1.059760	-0.514034	-0.500908
H57	H	0.951904	-0.346609	-0.308817
H58	H	1.080693	-0.279475	-0.076000
H59	H	1.281995	-0.399926	0.097920
C60	C	1.268893	-0.166672	0.133943
C61	C	1.208239	-0.255015	0.240746
C62	C	1.136801	-0.198558	0.374692
C63	C	1.126017	-0.053758	0.401837
C64	C	1.186673	0.034594	0.295032
C65	C	1.258111	-0.021863	0.161085
H66	H	1.216221	-0.362213	0.220654
H67	H	1.091899	-0.263963	0.453756
H68	H	1.073134	-0.011965	0.500992
H69	H	1.178691	0.141792	0.315123
H70	H	1.303013	0.043542	0.082021
H71	H	1.623629	0.035306	0.354172
H72	H	1.491690	-0.422801	0.241405
H73	H	1.647605	-0.225783	0.143213
H74	H	1.499386	-0.205461	0.240826
C75	C	1.483233	-0.437728	-0.278142
C76	C	1.560436	-0.525288	-0.385808
C77	C	1.499794	-0.567868	-0.527181
C78	C	1.361948	-0.522889	-0.560888
C79	C	1.284738	-0.435324	-0.453219
C80	C	1.345380	-0.392744	-0.311847
H81	H	1.662485	-0.558588	-0.360859
H82	H	1.556951	-0.632689	-0.606884
H83	H	1.317057	-0.554409	-0.665541
H84	H	1.182689	-0.402023	-0.478169
H85	H	1.288223	-0.327923	-0.232143
C86	C	1.647623	0.010814	0.667574
C87	C	1.647551	0.010984	0.834980
C88	C	1.739758	-0.083277	0.918848
C89	C	1.832037	-0.177707	0.835310
C90	C	1.832113	-0.177881	0.667896
C91	C	1.739906	-0.083621	0.584027
H92	H	1.579237	0.080891	0.896827
H93	H	1.739702	-0.083147	1.042780
H94	H	1.900295	-0.247485	0.897395
H95	H	1.900427	-0.247788	0.606048
H96	H	1.739962	-0.083750	0.460095
H97	H	1.496309	-0.207281	-0.240728
H98	H	1.407446	0.256325	0.406225
C99	C	1.679190	-0.459011	-0.138033
C100	C	1.790187	-0.376584	-0.133766
C101	C	1.925510	-0.440453	-0.135027
C102	C	1.949836	-0.586750	-0.140556
C103	C	1.838836	-0.669186	-0.144824
C104	C	1.703513	-0.605316	-0.143562
H105	H	1.772182	-0.268278	-0.129672
H106	H	2.007679	-0.379428	-0.131868
H107	H	2.050011	-0.634030	-0.141490
H108	H	1.856841	-0.777491	-0.148917
H109	H	1.621343	-0.666342	-0.146722
H110	H	1.646253	-0.223995	-0.146922
