data_functionalizedCrystal
_audit_creation_method	'MofGen! by Chris Wilmer'
_symmetry_space_group_name_H-M	'P1'
_symmetry_Int_Tables_number	1
_symmetry_cell_setting	triclinic
loop_
_symmetry_equiv_pos_as_xyz
  x,y,z
_cell_length_a	18.050591
_cell_length_b	21.295417
_cell_length_c	18.050582
_cell_angle_alpha	89.972538
_cell_angle_beta	89.978183
_cell_angle_gamma	90.026512
loop_
_atom_site_label
_atom_site_type_symbol
_atom_site_fract_x
_atom_site_fract_y
_atom_site_fract_z
Zn1	Zn	1.135287	-0.250712	-0.420010
Zn2	Zn	1.635287	0.249288	0.079990
Zn3	Zn	1.135191	-0.355974	-0.295811
Zn4	Zn	1.635191	0.144026	0.204189
Zn5	Zn	1.011105	-0.250716	-0.295821
Zn6	Zn	1.511105	0.249284	0.204179
Zn7	Zn	1.011050	-0.355940	-0.419946
Zn8	Zn	1.511050	0.144060	0.080054
O9	O	1.073158	-0.303335	-0.357897
O10	O	1.573158	0.196665	0.142103
O11	O	1.239199	-0.264688	-0.403557
O12	O	1.739199	0.235312	0.096443
O13	O	1.118713	-0.342028	-0.191887
O14	O	1.618713	0.157972	0.308113
O15	O	1.027641	-0.162626	-0.312326
O16	O	1.527641	0.337374	0.187674
O17	O	1.239128	-0.342024	-0.312308
O18	O	1.739128	0.157976	0.187692
O19	O	1.118877	-0.162623	-0.403567
O20	O	1.618877	0.337377	0.096433
O21	O	1.027548	-0.264695	-0.191895
O22	O	1.527548	0.235305	0.308105
O23	O	0.907173	-0.264661	-0.312264
O24	O	1.407173	0.235339	0.187736
O25	O	1.027547	-0.341965	-0.523879
O26	O	1.527547	0.158035	-0.023879
O27	O	0.907132	-0.341969	-0.403458
O28	O	1.407132	0.158031	0.096542
O29	O	1.118824	-0.264655	-0.523926
O30	O	1.618824	0.235345	-0.023926
O31	O	1.118660	-0.444059	-0.312247
O32	O	1.618660	0.055941	0.187753
O33	O	1.027454	-0.444034	-0.403449
O34	O	1.527454	0.055966	0.096551
C35	C	0.880206	-0.303312	-0.357856
C36	C	1.380206	0.196688	0.142144
C37	C	0.797660	-0.303317	-0.357856
C38	C	1.297660	0.196683	0.142144
C39	C	0.598210	-0.261228	-0.308379
C40	C	1.098210	0.238772	0.191621
C41	C	0.548787	-0.318643	-0.290098
C42	C	1.048787	0.181357	0.209902
C43	C	0.646530	-0.303336	-0.357889
C44	C	1.146530	0.196664	0.142111
C45	C	0.548871	-0.245941	-0.376169
C46	C	1.048871	0.254059	0.123831
C47	C	0.500545	-0.303350	-0.357920
C48	C	1.000545	0.196650	0.142080
C49	C	0.598194	-0.360781	-0.339573
C50	C	1.098194	0.139219	0.160427
C51	C	0.598282	-0.288040	-0.425676
C52	C	1.098282	0.211960	0.074324
C53	C	0.548882	-0.345495	-0.407420
C54	C	1.048882	0.154505	0.092580
C55	C	0.730628	-0.303328	-0.357870
C56	C	1.230628	0.196672	0.142130
C57	C	0.416448	-0.303365	-0.357940
C58	C	0.916448	0.196635	0.142060
C59	C	1.073061	-0.466887	-0.357856
C60	C	1.573061	0.033113	0.142144
C61	C	1.073087	-0.536855	-0.357863
C62	C	1.573087	-0.036855	0.142137
C63	C	1.120620	-0.569714	-0.310423
C64	C	1.620620	-0.069714	0.189577
C65	C	1.120655	-0.635457	-0.310440
C66	C	1.620655	-0.135457	0.189560
C67	C	1.073143	-0.668338	-0.357889
C68	C	1.573143	-0.168338	0.142111
C69	C	1.025607	-0.635471	-0.405338
C70	C	1.525607	-0.135471	0.094662
C71	C	1.025579	-0.569729	-0.405325
C72	C	1.525579	-0.069729	0.094675
N73	N	1.008176	-0.771600	-0.363536
N74	N	1.508176	-0.271600	0.136464
N75	N	1.008205	-0.834051	-0.363544
N76	N	1.508205	-0.334051	0.136456
C77	C	1.073227	-0.866412	-0.357931
C78	C	1.573227	-0.366412	0.142069
N79	N	1.138219	-0.833963	-0.352296
N80	N	1.638219	-0.333963	0.147704
N81	N	1.138190	-0.771505	-0.352284
N82	N	1.638190	-0.271505	0.147716
C83	C	1.073169	-0.739623	-0.357908
C84	C	1.573169	-0.239623	0.142092
C85	C	1.120802	-0.970557	-0.310507
C86	C	1.620802	-0.470557	0.189493
C87	C	1.120838	-1.036301	-0.310529
C88	C	1.620838	-0.536301	0.189471
C89	C	1.025783	-1.036313	-0.405423
C90	C	1.525783	-0.536313	0.094577
C91	C	1.025753	-0.970571	-0.405405
C92	C	1.525753	-0.470571	0.094595
C93	C	1.073262	-0.937697	-0.357943
C94	C	1.573262	-0.437697	0.142057
C95	C	1.266864	-0.303359	-0.357939
C96	C	1.766864	0.196641	0.142061
C97	C	1.349409	-0.303370	-0.357956
C98	C	1.849409	0.196630	0.142044
C99	C	1.073190	-0.303305	-0.551603
C100	C	1.573190	0.196695	-0.051603
C101	C	1.073204	-0.303293	-0.634148
C102	C	1.573204	0.196707	-0.134148
C103	C	1.073276	-0.139145	-0.357954
C104	C	1.573276	0.360855	0.142046
C105	C	1.073326	-0.069177	-0.357979
C106	C	1.573326	0.430823	0.142021
C107	C	1.023614	-0.345266	-0.882949
C108	C	1.523614	0.154734	-0.382949
C109	C	1.005476	-0.287849	-0.833564
C110	C	1.505476	0.212151	-0.333564
C111	C	1.073267	-0.303200	-0.931269
C112	C	1.573267	0.196800	-0.431269
C113	C	1.091338	-0.360660	-0.833572
C114	C	1.591338	0.139340	-0.333572
C115	C	1.073234	-0.303249	-0.785284
C116	C	1.573234	0.196751	-0.285284
C117	C	1.055094	-0.245752	-0.882971
C118	C	1.555094	0.254248	-0.382971
C119	C	1.140988	-0.318602	-0.882984
C120	C	1.640988	0.181398	-0.382984
C121	C	1.122876	-0.261146	-0.833621
C122	C	1.622876	0.238854	-0.333621
C123	C	1.073284	-0.303173	-1.015367
C124	C	1.573284	0.196827	-0.515367
C125	C	1.073217	-0.303269	-0.701187
C126	C	1.573217	0.196731	-0.201187
C127	C	1.073169	-0.303320	-0.164945
C128	C	1.573169	0.196680	0.335055
C129	C	1.073299	-0.303155	-0.082399
C130	C	1.573299	0.196845	0.417601
H131	H	0.619770	-0.409340	-0.324062
H132	H	1.119770	0.090660	0.175938
H133	H	0.527048	-0.331591	-0.232786
H134	H	1.027048	0.168409	0.267214
C135	C	0.670182	-0.167911	-0.288426
C136	C	1.170182	0.332089	0.211574
C137	C	0.627457	-0.213209	-0.251801
C138	C	1.127457	0.286791	0.248199
H139	H	0.688234	-0.138267	-0.253496
H140	H	1.188234	0.361733	0.246504
H141	H	0.710761	-0.187734	-0.312398
H142	H	1.210761	0.312266	0.187602
H143	H	0.640522	-0.147006	-0.324216
H144	H	1.140522	0.352994	0.175784
H145	H	0.657119	-0.234118	-0.216015
H146	H	1.157119	0.265882	0.283985
H147	H	0.586872	-0.193384	-0.227817
H148	H	1.086872	0.306616	0.272183
C149	C	0.931827	-1.029719	-0.499220
C150	C	1.431827	-0.529719	0.000780
C151	C	0.973558	-1.072448	-0.457584
C152	C	1.473558	-0.572448	0.042416
H153	H	0.899590	-1.052030	-0.531427
H154	H	1.399590	-0.552030	-0.031427
H155	H	0.903429	-1.004118	-0.466829
H156	H	1.403429	-0.504118	0.033171
H157	H	0.964162	-1.004036	-0.527653
H158	H	1.464162	-0.504036	-0.027653
H159	H	0.941222	-1.098127	-0.429147
H160	H	1.441222	-0.598127	0.070853
H161	H	1.001957	-1.098059	-0.489979
H162	H	1.501957	-0.598059	0.010021
C163	C	1.237128	-0.396384	-0.887429
C164	C	1.737128	0.103616	-0.387429
C165	C	1.218294	-0.336189	-0.912321
C166	C	1.718294	0.163811	-0.412321
H167	H	1.284852	-0.407247	-0.905546
H168	H	1.784852	0.092753	-0.405546
H169	H	1.237570	-0.396905	-0.834814
H170	H	1.737570	0.103095	-0.334814
H171	H	1.201738	-0.425826	-0.905057
H172	H	1.701738	0.074174	-0.405057
H173	H	1.253681	-0.306746	-0.894688
H174	H	1.753681	0.193254	-0.394688
H175	H	1.217858	-0.335663	-0.964946
H176	H	1.717858	0.164337	-0.464946
C177	C	0.670334	-0.320083	-0.530903
C178	C	1.170334	0.179917	-0.030903
C179	C	0.627664	-0.270540	-0.503019
C180	C	1.127664	0.229460	-0.003019
H181	H	0.688471	-0.309274	-0.578653
H182	H	1.188471	0.190726	-0.078653
H183	H	0.710855	-0.327788	-0.498603
H184	H	1.210855	0.172212	0.001397
H185	H	0.640610	-0.356786	-0.534374
H186	H	1.140610	0.143214	-0.034374
H187	H	0.657391	-0.233838	-0.499543
H188	H	1.157391	0.266162	0.000457
H189	H	0.587138	-0.262827	-0.535327
H190	H	1.087138	0.237173	-0.035327
C191	C	0.880263	-0.259984	-0.864040
C192	C	1.380263	0.240016	-0.364040
C193	C	0.928147	-0.270289	-0.804250
C194	C	1.428147	0.229711	-0.304250
H195	H	0.832522	-0.249152	-0.845942
H196	H	1.332522	0.250848	-0.345942
H197	H	0.898896	-0.226698	-0.893735
H198	H	1.398896	0.273302	-0.393735
H199	H	0.876888	-0.297117	-0.892985
H200	H	1.376888	0.202883	-0.392985
H201	H	0.931527	-0.233154	-0.775308
H202	H	1.431527	0.266846	-0.275308
H203	H	0.909509	-0.303578	-0.774542
H204	H	1.409509	0.196422	-0.274542
C205	C	1.214594	-0.628847	-0.216623
C206	C	1.714594	-0.128847	0.283377
C207	C	1.172902	-0.671585	-0.258285
C208	C	1.672902	-0.171585	0.241715
H209	H	1.246844	-0.651152	-0.184422
H210	H	1.746844	-0.151152	0.315578
H211	H	1.242976	-0.603172	-0.248999
H212	H	1.742976	-0.103172	0.251001
H213	H	1.182235	-0.603240	-0.188184
H214	H	1.682235	-0.103240	0.311816
H215	H	1.205261	-0.697190	-0.286728
H216	H	1.705261	-0.197190	0.213272
H217	H	1.144518	-0.697272	-0.225904
H218	H	1.644518	-0.197272	0.274096
C219	C	1.015335	-0.896596	-0.505276
C220	C	1.515335	-0.396596	-0.005276
C221	C	0.973496	-0.934450	-0.457548
C222	C	1.473496	-0.434450	0.042452
H223	H	0.983071	-0.874300	-0.537472
H224	H	1.483071	-0.374300	-0.037472
H225	H	1.043618	-0.867608	-0.477014
H226	H	1.543618	-0.367608	0.022986
H227	H	1.047682	-0.922210	-0.533719
H228	H	1.547682	-0.422210	-0.033719
H229	H	0.941152	-0.908834	-0.429101
H230	H	1.441152	-0.408834	0.070899
H231	H	0.945200	-0.963441	-0.485813
H232	H	1.445200	-0.463441	0.014187
C233	C	0.545674	-0.163973	-0.467498
C234	C	1.045674	0.336027	0.032502
C235	C	0.519618	-0.180412	-0.397030
C236	C	1.019618	0.319588	0.102970
H237	H	0.527611	-0.123520	-0.480373
H238	H	1.027611	0.376480	0.019627
H239	H	0.598289	-0.163401	-0.467188
H240	H	1.098289	0.336599	0.032812
H241	H	0.528782	-0.193847	-0.502726
H242	H	1.028782	0.306153	-0.002726
H243	H	0.536515	-0.150541	-0.361801
H244	H	1.036515	0.349459	0.138199
H245	H	0.466992	-0.180979	-0.397335
H246	H	0.966992	0.319021	0.102665
H247	H	1.039731	-0.197166	-0.904580
H248	H	1.539731	0.302834	-0.404580
C249	C	0.544850	-0.453668	-0.444657
C250	C	1.044850	0.046332	0.055343
C251	C	0.519816	-0.393626	-0.463959
C252	C	1.019816	0.106374	0.036041
H253	H	0.526900	-0.483382	-0.479557
H254	H	1.026900	0.016618	0.020443
H255	H	0.597466	-0.454160	-0.444667
H256	H	1.097466	0.045840	0.055333
H257	H	0.527149	-0.464184	-0.396659
H258	H	1.027149	0.035816	0.103341
H259	H	0.537522	-0.383107	-0.511954
H260	H	1.037522	0.116893	-0.011954
H261	H	0.467189	-0.393132	-0.463957
H262	H	0.967189	0.106868	0.036043
C263	C	0.967976	-0.393070	-0.989765
C264	C	1.467976	0.106930	-0.489765
C265	C	0.966910	-0.393199	-0.912200
C266	C	1.466910	0.106801	-0.412200
H267	H	0.932971	-0.422662	-1.007823
H268	H	1.432971	0.077338	-0.507823
H269	H	0.955598	-0.352376	-1.007397
H270	H	1.455598	0.147624	-0.507397
H271	H	1.016082	-0.404096	-1.006679
H272	H	1.516082	0.095904	-0.506679
H273	H	0.918805	-0.382168	-0.895286
H274	H	1.418805	0.117832	-0.395286
H275	H	0.979283	-0.433901	-0.894560
H276	H	1.479283	0.066099	-0.394560
C277	C	1.220490	-0.495719	-0.300191
C278	C	1.720490	0.004281	0.199809
C279	C	1.172845	-0.533576	-0.258261
C280	C	1.672845	-0.033576	0.241739
H281	H	1.252727	-0.473405	-0.267987
H282	H	1.752727	0.026595	0.232013
H283	H	1.248886	-0.521330	-0.332572
H284	H	1.748886	-0.021330	0.167428
H285	H	1.192166	-0.466742	-0.328440
H286	H	1.692166	0.033258	0.171560
H287	H	1.201169	-0.562556	-0.230015
H288	H	1.701169	-0.062556	0.269985
H289	H	1.144445	-0.507963	-0.225866
H290	H	1.644445	-0.007963	0.274134
C291	C	1.160422	-0.153022	-0.829631
C292	C	1.660422	0.346978	-0.329631
C293	C	1.179540	-0.213099	-0.804557
C294	C	1.679540	0.286901	-0.304557
H295	H	1.195400	-0.123360	-0.811682
H296	H	1.695400	0.376640	-0.311682
H297	H	1.160456	-0.152508	-0.882247
H298	H	1.660456	0.347492	-0.382247
H299	H	1.112448	-0.142452	-0.811956
H300	H	1.612448	0.357548	-0.311956
H301	H	1.227513	-0.223671	-0.822237
H302	H	1.727513	0.276329	-0.322237
H303	H	1.179515	-0.213615	-0.751929
H304	H	1.679515	0.286385	-0.251929
H305	H	0.986924	-0.662247	-0.443973
H306	H	1.486924	-0.162247	0.056027
H307	H	0.986871	-0.542975	-0.443958
H308	H	1.486871	-0.042975	0.056042
C309	C	1.157052	-0.950362	-0.184784
C310	C	1.657052	-0.450362	0.315216
C311	C	1.173026	-0.934415	-0.258343
C312	C	1.673026	-0.434415	0.241657
H313	H	1.189296	-0.928053	-0.152582
H314	H	1.689296	-0.428053	0.347418
H315	H	1.107162	-0.939629	-0.173867
H316	H	1.607162	-0.439629	0.326133
H317	H	1.163879	-0.994219	-0.178014
H318	H	1.663879	-0.494219	0.321986
H319	H	1.166194	-0.890559	-0.265115
H320	H	1.666194	-0.390559	0.234885
H321	H	1.222928	-0.945144	-0.269264
H322	H	1.722928	-0.445144	0.230736
C323	C	1.246637	-1.056391	-0.274510
C324	C	1.746637	-0.556391	0.225490
C325	C	1.173127	-1.072387	-0.258380
C326	C	1.673127	-0.572387	0.241620
H327	H	1.278927	-1.078657	-0.242312
H328	H	1.778927	-0.578657	0.257688
H329	H	1.257468	-1.067142	-0.324413
H330	H	1.757468	-0.567142	0.175587
H331	H	1.253371	-1.012525	-0.267731
H332	H	1.753371	-0.512525	0.232269
H333	H	1.166391	-1.116252	-0.265165
H334	H	1.666391	-0.616252	0.234835
H335	H	1.162292	-1.061640	-0.208465
H336	H	1.662292	-0.561640	0.291535
C337	C	1.059943	-0.470172	-0.829192
C338	C	1.559943	0.029828	-0.329192
C339	C	1.112001	-0.426230	-0.804285
C340	C	1.612001	0.073770	-0.304285
H341	H	1.072700	-0.510653	-0.811117
H342	H	1.572700	-0.010653	-0.311117
H343	H	1.012172	-0.458963	-0.811538
H344	H	1.512172	0.041037	-0.311538
H345	H	1.059664	-0.470708	-0.881814
H346	H	1.559664	0.029292	-0.381814
H347	H	1.112277	-0.425691	-0.751663
H348	H	1.612277	0.074309	-0.251663
H349	H	1.159785	-0.437443	-0.821936
H350	H	1.659785	0.062557	-0.321936
