data_functionalizedCrystal
_audit_creation_method	'MofGen! by Chris Wilmer'
_symmetry_space_group_name_H-M	'P1'
_symmetry_Int_Tables_number	1
_symmetry_cell_setting	triclinic
loop_
_symmetry_equiv_pos_as_xyz
  x,y,z
_cell_length_a	15.944493
_cell_length_b	19.188928
_cell_length_c	15.021413
_cell_angle_alpha	90.005125
_cell_angle_beta	89.993389
_cell_angle_gamma	96.690572
loop_
_atom_site_label
_atom_site_type_symbol
_atom_site_fract_x
_atom_site_fract_y
_atom_site_fract_z
O1	O	1.114222	-0.089848	-0.074035
O2	O	0.869624	-0.100992	-0.074041
O3	O	0.998982	0.006219	-0.074015
O4	O	0.984863	-0.197059	-0.074061
O5	O	0.998963	0.006207	0.074049
O6	O	0.869604	-0.101004	0.074023
O7	O	1.114202	-0.089859	0.074029
Zn8	Zn	0.991900	-0.095433	0.097534
Zn9	Zn	0.991926	-0.095418	-0.097547
O10	O	0.984843	-0.197070	0.074003
C11	C	0.838321	-0.100542	-0.000010
C12	C	0.745077	-0.099177	-0.000011
C13	C	0.509080	-0.162284	-0.000026
C14	C	0.458640	-0.128258	0.072989
C15	C	0.574366	-0.096647	-0.000009
C16	C	0.458664	-0.128231	-0.072990
C17	C	0.409465	-0.094207	-0.000010
C18	C	0.525153	-0.062639	0.073066
C19	C	0.525181	-0.062621	-0.072979
C20	C	0.474773	-0.028548	0.000054
C21	C	0.669360	-0.098054	-0.000007
C22	C	0.314473	-0.092795	-0.000006
C23	C	0.998515	0.032225	0.000021
C24	C	0.997144	0.109733	0.000032
C25	C	1.073047	0.154474	0.000040
C26	C	1.071759	0.227301	0.000030
C27	C	0.994563	0.255384	0.000029
C28	C	0.918649	0.210633	0.000015
C29	C	0.919940	0.137808	0.000017
N30	N	0.935549	0.363527	0.050422
N31	N	0.934329	0.432709	0.050422
C32	C	0.990669	0.474802	0.000022
N33	N	1.048289	0.445102	-0.050368
N34	N	1.049513	0.375914	-0.050364
C35	C	0.993154	0.334350	0.000026
C36	C	1.065180	0.598511	0.000017
C37	C	1.063889	0.671339	0.000001
C38	C	0.910777	0.654669	-0.000004
C39	C	0.912071	0.581843	0.000003
C40	C	0.989275	0.553768	0.000018
C41	C	1.145505	-0.090309	-0.000004
C42	C	1.238748	-0.091675	-0.000009
C43	C	0.985313	0.776924	-0.000022
C44	C	0.986692	0.699417	-0.000001
N45	N	0.991888	-0.095444	0.230672
N46	N	0.991944	-0.095402	-0.230684
C47	C	0.932565	-0.145405	0.529675
C48	C	0.915804	-0.082510	0.470330
C49	C	0.991925	-0.095415	0.587709
C50	C	1.008628	-0.158322	0.470312
C51	C	0.991905	-0.095432	0.412285
C52	C	0.975126	-0.032488	0.529670
C53	C	1.067983	-0.108341	0.529658
C54	C	1.051254	-0.045401	0.470340
C55	C	0.991935	-0.095406	0.688766
C56	C	0.991896	-0.095434	0.311230
H57	H	1.135913	0.131621	0.000050
N58	N	0.561645	-0.027901	-0.150421
N59	N	0.602252	-0.060555	-0.204353
H60	H	0.628005	-0.036046	-0.259059
H61	H	1.132292	-0.119293	0.555741
N62	N	1.026354	-0.225053	0.437606
N63	N	0.978322	-0.279203	0.456630
H64	H	0.990834	-0.326334	0.433533
N65	N	1.141417	0.717055	0.000003
N66	N	1.157790	0.759548	-0.062410
H67	H	1.212545	0.791838	-0.062409
H68	H	0.851476	-0.071582	0.444263
H69	H	0.524492	-0.218823	0.000030
H70	H	0.960915	0.020715	0.555634
N71	N	0.422205	-0.163042	0.150410
N72	N	0.429904	-0.226323	0.163405
H73	H	0.404175	-0.250894	0.218081
H74	H	0.459520	0.028034	0.000109
N75	N	0.561443	-0.027894	0.150578
N76	N	0.639389	-0.023374	0.163103
H77	H	0.665022	0.001163	0.217845
H78	H	1.128044	0.575651	0.000025
H79	H	0.847923	0.677533	-0.000009
N80	N	0.834544	0.536127	0.000015
N81	N	0.835707	0.471106	0.000020
H82	H	0.780950	0.438817	0.000027
N83	N	1.114223	0.007668	0.437839
N84	N	1.173096	-0.008879	0.390242
H85	H	1.217566	0.028601	0.367286
N86	N	0.422245	-0.163021	-0.150414
N87	N	0.429952	-0.226301	-0.163417
H88	H	0.404233	-0.250876	-0.218094
N89	N	1.149303	0.273004	0.000037
N90	N	1.218226	0.247928	0.000048
H91	H	1.272993	0.280203	0.000055
H92	H	0.855796	0.233503	0.000013
N93	N	0.842395	0.092112	0.000004
N94	N	0.773473	0.117190	-0.000006
H95	H	0.718705	0.084917	-0.000015
H96	H	0.882342	-0.187625	0.555728
