data_functionalizedCrystal
_audit_creation_method	'MofGen! by Chris Wilmer'
_symmetry_space_group_name_H-M	'P1'
_symmetry_Int_Tables_number	1
_symmetry_cell_setting	triclinic
loop_
_symmetry_equiv_pos_as_xyz
  x,y,z
_cell_length_a	23.532407
_cell_length_b	23.532407
_cell_length_c	18.366186
_cell_angle_alpha	89.989089
_cell_angle_beta	89.996288
_cell_angle_gamma	82.848678
loop_
_atom_site_label
_atom_site_type_symbol
_atom_site_fract_x
_atom_site_fract_y
_atom_site_fract_z
O1	O	0.755263	0.069136	-0.060466
O2	O	1.255263	0.569136	0.439534
O3	O	0.589400	0.079139	-0.060489
O4	O	1.089400	0.579139	0.439511
O5	O	0.677333	-0.008794	-0.060463
O6	O	1.177333	0.491206	0.439537
O7	O	0.667330	0.157069	-0.060491
O8	O	1.167330	0.657069	0.439509
O9	O	0.677318	-0.008799	0.060636
O10	O	1.177318	0.491201	0.560636
O11	O	0.589385	0.079135	0.060611
O12	O	1.089385	0.579135	0.560611
O13	O	0.755248	0.069131	0.060633
O14	O	1.255248	0.569131	0.560633
Zn15	Zn	0.672314	0.074132	0.079849
Zn16	Zn	1.172314	0.574132	0.579849
Zn17	Zn	0.672334	0.074138	-0.079704
Zn18	Zn	1.172334	0.574138	0.420296
O19	O	0.667315	0.157065	0.060608
O20	O	1.167315	0.657065	0.560608
C21	C	0.568176	0.078882	0.000058
C22	C	1.068176	0.578882	0.500058
C23	C	0.504959	0.078116	0.000051
C24	C	1.004959	0.578116	0.500051
C25	C	0.105856	0.125350	0.000076
C26	C	0.605856	0.625350	0.500076
C27	C	0.046456	0.124638	0.000080
C28	C	0.546456	0.624638	0.500080
O29	O	0.009711	0.168424	0.000099
O30	O	0.509711	0.668424	0.500099
N31	N	0.023830	0.072362	0.000088
N32	N	0.523830	0.572362	0.500088
C33	C	0.060607	0.020794	0.000098
C34	C	0.560607	0.520794	0.500098
O35	O	0.035908	-0.023737	0.000106
O36	O	0.535908	0.476263	0.500106
C37	C	0.120006	0.021506	0.000099
C38	C	0.620006	0.521506	0.500099
C39	C	0.142629	0.073785	0.000084
C40	C	0.642629	0.573785	0.500084
C41	C	0.128479	0.177625	0.000061
C42	C	0.628479	0.677625	0.500061
C43	C	0.187876	0.178336	0.000055
C44	C	0.687876	0.678336	0.500055
C45	C	0.224649	0.126772	0.000064
C46	C	0.724649	0.626772	0.500064
C47	C	0.202025	0.074496	0.000078
C48	C	0.702025	0.574496	0.500078
C49	C	0.156783	-0.030062	0.000114
C50	C	0.656783	0.469938	0.500114
C51	C	0.216185	-0.029345	0.000116
C52	C	0.716185	0.470655	0.500116
C53	C	0.238808	0.022934	0.000101
C54	C	0.738808	0.522934	0.500101
C55	C	0.298194	0.023643	0.000080
C56	C	0.798194	0.523643	0.500080
N57	N	0.320820	0.075920	0.000073
N58	N	0.820820	0.575920	0.500073
C59	C	0.284048	0.127484	0.000064
C60	C	0.784048	0.627484	0.500064
C61	C	-0.064135	0.019302	0.000098
C62	C	0.435865	0.519302	0.500098
C63	C	-0.123533	0.018589	0.000092
C64	C	0.376467	0.518589	0.500092
C65	C	-0.137680	0.122434	0.000076
C66	C	0.362320	0.622434	0.500076
C67	C	-0.078281	0.123146	0.000076
C68	C	0.421719	0.623146	0.500076
C69	C	-0.041509	0.071578	0.000090
C70	C	0.458491	0.571578	0.500090
C71	C	0.408784	0.128974	0.000051
C72	C	0.908784	0.628974	0.500051
C73	C	0.468186	0.129680	0.000042
C74	C	0.968186	0.629680	0.500042
C75	C	0.482329	0.025836	0.000063
C76	C	0.982329	0.525836	0.500063
C77	C	0.422932	0.025129	0.000068
C78	C	0.922932	0.525129	0.500068
C79	C	0.386160	0.076702	0.000065
C80	C	0.886160	0.576702	0.500065
O81	O	0.334974	-0.020119	0.000064
O82	O	0.834974	0.479881	0.500064
O83	O	0.308755	0.172007	0.000066
O84	O	0.808755	0.672007	0.500066
C85	C	0.677071	-0.030013	0.000088
C86	C	1.177071	0.469987	0.500088
C87	C	0.676305	-0.093230	0.000094
C88	C	1.176305	0.406770	0.500094
C89	C	0.723539	-0.492333	0.000060
C90	C	1.223539	0.007667	0.500060
C91	C	0.722827	-0.551733	0.000055
C92	C	1.222827	-0.051733	0.500055
O93	O	0.766613	-0.588478	0.000034
O94	O	1.266613	-0.088478	0.500034
N95	N	0.670551	-0.574359	0.000048
N96	N	1.170551	-0.074359	0.500048
C97	C	0.618983	-0.537582	0.000040
C98	C	1.118983	-0.037582	0.500040
O99	O	0.574452	-0.562281	0.000033
O100	O	1.074452	-0.062281	0.500033
C101	C	0.619695	-0.478182	0.000040
C102	C	1.119695	0.021818	0.500040
C103	C	0.671974	-0.455560	0.000054
C104	C	1.171974	0.044440	0.500054
C105	C	0.775814	-0.469710	0.000073
C106	C	1.275814	0.030290	0.500073
C107	C	0.776525	-0.410313	0.000080
C108	C	1.276525	0.089687	0.500080
C109	C	0.724961	-0.373540	0.000074
C110	C	1.224961	0.126460	0.500074
C111	C	0.672685	-0.396164	0.000061
C112	C	1.172685	0.103836	0.500061
C113	C	0.568127	-0.441406	0.000027
C114	C	1.068127	0.058594	0.500027
C115	C	0.568844	-0.382004	0.000026
C116	C	1.068844	0.117996	0.500026
C117	C	0.621123	-0.359381	0.000040
C118	C	1.121123	0.140619	0.500040
C119	C	0.621832	-0.299995	0.000062
C120	C	1.121832	0.200005	0.500062
N121	N	0.674109	-0.277368	0.000068
N122	N	1.174109	0.222632	0.500068
C123	C	0.725673	-0.314141	0.000075
C124	C	1.225673	0.185859	0.500075
C125	C	0.617491	-0.662324	0.000038
C126	C	1.117491	-0.162324	0.500038
C127	C	0.616778	-0.721722	0.000042
C128	C	1.116778	-0.221722	0.500042
C129	C	0.720623	-0.735869	0.000056
C130	C	1.220623	-0.235869	0.500056
C131	C	0.721335	-0.676470	0.000056
C132	C	1.221335	-0.176470	0.500056
C133	C	0.669767	-0.639698	0.000044
C134	C	1.169767	-0.139698	0.500044
C135	C	0.727163	-0.189405	0.000090
C136	C	1.227163	0.310595	0.500090
C137	C	0.727869	-0.130003	0.000100
C138	C	1.227869	0.369997	0.500100
C139	C	0.624025	-0.115860	0.000083
C140	C	1.124025	0.384140	0.500083
C141	C	0.623318	-0.175257	0.000076
C142	C	1.123318	0.324743	0.500076
C143	C	0.674891	-0.212029	0.000078
C144	C	1.174891	0.287971	0.500078
O145	O	0.578070	-0.263215	0.000080
O146	O	1.078070	0.236785	0.500080
O147	O	0.770196	-0.289433	0.000072
O148	O	1.270196	0.210567	0.500072
C149	C	0.776472	0.069388	0.000085
C150	C	1.276472	0.569388	0.500085
C151	C	0.839689	0.070154	0.000088
C152	C	1.339689	0.570154	0.500088
C153	C	0.667577	0.178283	0.000055
C154	C	1.167577	0.678283	0.500055
C155	C	0.668343	0.241500	0.000045
C156	C	1.168343	0.741500	0.500045
N157	N	0.672305	0.074128	0.188740
N158	N	1.172305	0.574128	0.688740
N159	N	0.672348	0.074138	-0.188596
N160	N	1.172348	0.574138	0.311404
C161	C	0.711255	0.035210	0.226852
C162	C	1.211255	0.535210	0.726852
C163	C	0.711258	0.035208	0.303080
C164	C	1.211258	0.535208	0.803080
C165	C	0.672318	0.074133	0.341193
C166	C	1.172318	0.574133	0.841193
C167	C	0.633361	0.113054	0.303072
C168	C	1.133361	0.613054	0.803072
C169	C	0.633355	0.113051	0.226846
C170	C	1.133355	0.613051	0.726846
C171	C	0.664563	0.126043	0.461944
C172	C	1.164563	0.626043	0.961944
C173	C	0.664573	0.126047	0.538169
C174	C	1.164573	0.626047	1.038169
C175	C	0.672334	0.074140	0.576301
C176	C	1.172334	0.574140	1.076301
C177	C	0.680097	0.022228	0.538198
C178	C	1.180097	0.522228	1.038198
C179	C	0.680090	0.022225	0.461972
C180	C	1.180090	0.522225	0.961972
C181	C	0.672320	0.074139	0.423848
C182	C	1.172320	0.574139	0.923848
C183	C	0.711289	0.035216	0.697067
C184	C	1.211289	0.535216	1.197067
C185	C	0.711289	0.035213	0.773296
C186	C	1.211289	0.535213	1.273296
C187	C	0.633395	0.113064	0.773287
C188	C	1.133395	0.613064	1.273287
C189	C	0.633392	0.113062	0.697060
C190	C	1.133392	0.613062	1.197060
C191	C	0.672343	0.074139	0.658954
C192	C	1.172343	0.574139	1.158954
H193	H	0.246123	-0.071339	0.000128
H194	H	0.746123	0.428661	0.500128
N195	N	0.514719	-0.464495	0.000011
N196	N	1.014719	0.035505	0.500011
N197	N	0.468688	-0.431645	-0.000003
N198	N	0.968688	0.068355	0.499997
H199	H	0.430965	-0.447949	-0.000016
H200	H	0.930965	0.052051	0.499984
N201	N	0.774732	-0.653354	0.000072
N202	N	1.274732	-0.153354	0.500072
N203	N	0.786709	-0.621794	0.051120
N204	N	1.286709	-0.121794	0.551120
H205	H	0.824422	-0.605470	0.051130
H206	H	1.324422	-0.105470	0.551130
H207	H	0.601637	0.144743	0.195815
H208	H	1.101637	0.644743	0.695815
H209	H	0.742976	0.003515	0.334116
H210	H	1.242976	0.503515	0.834116
H211	H	0.686409	-0.020043	0.430951
H212	H	1.186409	0.479957	0.930951
N213	N	0.781269	-0.106886	0.000120
N214	N	1.281269	0.393114	0.500120
N215	N	0.793246	-0.075330	0.051172
N216	N	1.293246	0.424670	0.551172
H217	H	0.830958	-0.059004	0.051186
H218	H	1.330958	0.440996	0.551186
H219	H	0.686416	-0.020040	0.569243
H220	H	1.186416	0.479960	1.069243
N221	N	0.090920	0.230300	0.000040
N222	N	0.590920	0.730300	0.500040
N223	N	0.056202	0.241495	-0.051011
N224	N	0.556202	0.741495	0.448989
H225	H	0.029678	0.278700	-0.051030
H226	H	0.529678	0.778700	0.448970
H227	H	0.206289	0.220908	0.000043
H228	H	0.706289	0.720908	0.500043
N229	N	0.751062	-0.004552	0.812240
N230	N	1.251062	0.495448	1.312240
N231	N	0.751051	-0.004556	0.880299
N232	N	1.251051	0.495444	1.380299
H233	H	0.779135	-0.032646	0.907805
H234	H	1.279135	0.467354	1.407805
H235	H	0.658233	0.168315	0.430904
H236	H	1.158233	0.668315	0.930904
H237	H	0.574207	-0.740136	0.000044
H238	H	1.074207	-0.240136	0.500044
H239	H	0.138375	-0.072634	0.000127
H240	H	0.638375	0.427366	0.500127
H241	H	0.582043	-0.085909	0.000080
H242	H	1.082043	0.414091	0.500080
H243	H	0.601686	0.144755	0.804319
H244	H	1.101686	0.644755	1.304319
H245	H	0.580748	-0.193677	0.000085
H246	H	1.080748	0.306323	0.500085
H247	H	-0.034198	-0.022693	0.000103
H248	H	0.465802	0.477307	0.500103
H249	H	-0.059867	0.165717	0.000068
H250	H	0.440133	0.665717	0.500068
N251	N	0.751091	-0.004504	0.187941
N252	N	1.251091	0.495496	0.687941
N253	N	0.785897	-0.039218	0.221984
N254	N	1.285897	0.460782	0.721984
H255	H	0.814051	-0.067249	0.194503
H256	H	1.314051	0.432751	0.694503
H257	H	0.512280	-0.016146	0.000067
H258	H	1.012280	0.483854	0.500067
N259	N	-0.146648	-0.034807	0.000094
N260	N	0.353352	0.465193	0.500094
N261	N	-0.178215	-0.046790	-0.050946
N262	N	0.321785	0.453210	0.449054
H263	H	-0.194540	-0.084503	-0.050941
H264	H	0.305460	0.415497	0.449059
H265	H	-0.167632	0.164421	0.000072
H266	H	0.332368	0.664421	0.500072
H267	H	0.404512	-0.017441	0.000069
H268	H	0.904512	0.482559	0.500069
H269	H	0.769159	-0.219337	0.000088
H270	H	1.269159	0.280663	0.500088
H271	H	0.819097	-0.391900	0.000089
H272	H	1.319097	0.108100	0.500089
H273	H	0.817806	-0.499645	0.000076
H274	H	1.317806	0.000355	0.500076
H275	H	0.743004	0.003521	0.666040
H276	H	1.243004	0.503521	1.166040
N277	N	0.593602	0.152820	0.658137
N278	N	1.093602	0.652820	1.158137
N279	N	0.558834	0.187571	0.692172
N280	N	1.058834	0.687571	1.192172
H281	H	0.530728	0.215651	0.664683
H282	H	1.030728	0.715651	1.164683
N283	N	0.593577	0.152807	0.342001
N284	N	1.093577	0.652807	0.842001
N285	N	0.558335	0.134914	0.384549
N286	N	1.058335	0.634914	0.884549
H287	H	0.530234	0.162988	0.412043
H288	H	1.030234	0.662988	0.912043
N289	N	0.773303	-0.773429	0.000063
N290	N	1.273303	-0.273429	0.500063
N291	N	0.808144	-0.771545	0.051113
N292	N	1.308144	-0.271545	0.551113
H293	H	0.845347	-0.798071	0.051119
H294	H	1.345347	-0.298071	0.551119
N295	N	0.564807	-0.624772	0.000028
N296	N	1.064807	-0.124772	0.500028
N297	N	0.518139	-0.644987	0.000021
N298	N	1.018139	-0.144987	0.500021
H299	H	0.480930	-0.618469	0.000012
H300	H	0.980930	-0.118469	0.500012
N301	N	0.516161	-0.344450	0.000005
N302	N	1.016161	0.155550	0.500005
N303	N	0.469491	-0.364662	-0.000011
N304	N	0.969491	0.135338	0.499989
H305	H	0.432284	-0.338142	-0.000027
H306	H	0.932284	0.161858	0.499973
H307	H	0.378851	0.170970	0.000051
H308	H	0.878851	0.670970	0.500051
H309	H	0.658256	0.168316	0.569186
H310	H	1.158256	0.668316	1.069186
H311	H	0.486602	0.172255	0.000030
H312	H	0.986602	0.672255	0.500030
