data_functionalizedCrystal
_audit_creation_method	'MofGen! by Chris Wilmer'
_symmetry_space_group_name_H-M	'P1'
_symmetry_Int_Tables_number	1
_symmetry_cell_setting	triclinic
loop_
_symmetry_equiv_pos_as_xyz
  x,y,z
_cell_length_a	6.817900
_cell_length_b	13.212940
_cell_length_c	16.255661
_cell_angle_alpha	89.451580
_cell_angle_beta	103.488922
_cell_angle_gamma	106.299459
loop_
_atom_site_label
_atom_site_type_symbol
_atom_site_fract_x
_atom_site_fract_y
_atom_site_fract_z
V1	V	-4.033876	-0.145261	-0.252756
O2	O	-4.013889	0.006113	-0.259316
O3	O	-3.992427	-0.287194	-0.240091
O4	O	-3.985346	-0.143407	-0.367981
O5	O	-4.021019	-0.138669	-0.130540
V6	V	-4.516620	-0.127110	-0.239467
O7	O	-4.296843	-0.185077	-0.281908
O8	O	-4.703850	-0.087294	-0.210315
O9	O	-4.334862	0.014823	-0.252132
O10	O	-4.654004	-0.278484	-0.232907
O11	O	-4.646874	-0.133702	-0.361682
O12	O	-4.341943	-0.128964	-0.124242
C13	C	-3.839124	-0.321782	-0.233282
C14	C	-3.886520	-0.437817	-0.223695
C15	C	-4.057501	-0.686168	-0.358381
C16	C	-4.102037	-0.795194	-0.349377
C17	C	-4.020114	-0.764894	-0.196683
C18	C	-3.975578	-0.655869	-0.205687
C19	C	-3.994278	-0.616511	-0.286539
C20	C	-3.949756	-0.507483	-0.295542
C21	C	-3.867820	-0.477186	-0.142849
C22	C	-3.912355	-0.586211	-0.133845
C23	C	-3.830090	-0.138367	-0.396417
C24	C	-3.871741	-0.137790	-0.490543
C25	C	-3.781958	-0.130904	-0.713888
C26	C	-3.942757	-0.219778	-0.776564
C27	C	-3.948072	-0.136710	-0.662874
C28	C	-3.861514	-0.046819	-0.767913
C29	C	-4.021789	-0.135661	-0.829338
C30	C	-4.108357	-0.225663	-0.724314
C31	C	-4.027048	-0.052625	-0.715654
C32	C	-4.187985	-0.141524	-0.778308
C33	C	-3.905601	-0.137315	-0.566978
C34	C	-4.064277	-0.135064	-0.925232
C35	C	-4.151508	0.049405	-0.258938
C36	C	-4.083349	0.165439	-0.268531
C37	C	-4.160541	-0.134008	-0.095801
C38	C	-4.098128	-0.134579	-0.001675
H39	H	-3.965006	-0.475441	-0.361376
C40	C	-4.078074	-0.642870	-0.447311
H41	H	-4.122101	-0.699972	-0.488810
H42	H	-4.179073	-0.604375	-0.456439
H43	H	-3.945714	-0.597562	-0.451554
H44	H	-4.360080	-0.146037	-0.806309
H45	H	-3.897131	-0.618272	-0.068017
C46	C	-3.895243	-0.315246	-0.812611
H47	H	-4.019616	-0.358361	-0.849593
H48	H	-3.789369	-0.291070	-0.843063
H49	H	-3.847454	-0.355215	-0.767406
C50	C	-4.171592	-0.871814	-0.428403
H51	H	-4.176362	-0.832755	-0.477842
H52	H	-4.074000	-0.911569	-0.425623
H53	H	-4.307359	-0.918381	-0.430508
H54	H	-4.062157	0.018048	-0.688953
H55	H	-4.212305	-0.301327	-0.705057
C56	C	-3.721083	0.055294	-0.794063
H57	H	-3.577270	0.058936	-0.771897
H58	H	-3.749662	0.055256	-0.854124
H59	H	-3.749653	0.114690	-0.772282
H60	H	-4.004886	-0.796960	-0.130857
H61	H	-3.816340	-0.420458	-0.084350
C62	C	-3.549654	-0.124996	-0.675854
H63	H	-3.519740	-0.184483	-0.696780
H64	H	-3.461630	-0.062091	-0.691462
H65	H	-3.524293	-0.124793	-0.615847
