data_functionalizedCrystal
_audit_creation_method	'MofGen! by Chris Wilmer'
_symmetry_space_group_name_H-M	'P1'
_symmetry_Int_Tables_number	1
_symmetry_cell_setting	triclinic
loop_
_symmetry_equiv_pos_as_xyz
  x,y,z
_cell_length_a	18.050589
_cell_length_b	13.897449
_cell_length_c	13.897441
_cell_angle_alpha	90.022859
_cell_angle_beta	89.972127
_cell_angle_gamma	89.971946
loop_
_atom_site_label
_atom_site_type_symbol
_atom_site_fract_x
_atom_site_fract_y
_atom_site_fract_z
Zn1	Zn	-0.295639	-1.474632	-0.545454
Zn2	Zn	-0.045639	-1.224632	-0.295454
Zn3	Zn	0.204361	-0.974632	-0.045454
Zn4	Zn	0.454361	-0.724632	0.204546
Zn5	Zn	-0.419843	-1.474496	-0.384163
Zn6	Zn	-0.169843	-1.224496	-0.134163
Zn7	Zn	0.080157	-0.974496	0.115837
Zn8	Zn	0.330157	-0.724496	0.365837
Zn9	Zn	-0.295671	-1.313321	-0.384166
Zn10	Zn	-0.045671	-1.063321	-0.134166
Zn11	Zn	0.204329	-0.813321	0.115834
Zn12	Zn	0.454329	-0.563321	0.365834
Zn13	Zn	-0.419791	-1.313273	-0.545410
Zn14	Zn	-0.169791	-1.063273	-0.295410
Zn15	Zn	0.080209	-0.813273	-0.045410
Zn16	Zn	0.330209	-0.563273	0.204590
O17	O	-0.357736	-1.393931	-0.464798
O18	O	-0.107736	-1.143931	-0.214798
O19	O	0.142264	-0.893931	0.035202
O20	O	0.392264	-0.643931	0.285202
O21	O	-0.312123	-1.609596	-0.524076
O22	O	-0.062123	-1.359596	-0.274076
O23	O	0.187877	-1.109596	-0.024076
O24	O	0.437877	-0.859596	0.225924
O25	O	-0.403407	-1.453079	-0.249182
O26	O	-0.153407	-1.203079	0.000818
O27	O	0.096593	-0.953079	0.250818
O28	O	0.346593	-0.703079	0.500818
O29	O	-0.191742	-1.334796	-0.405582
O30	O	0.058258	-1.084796	-0.155582
O31	O	0.308258	-0.834796	0.094418
O32	O	0.558258	-0.584796	0.344418
O33	O	-0.403376	-1.609496	-0.405576
O34	O	-0.153376	-1.359496	-0.155576
O35	O	0.096624	-1.109496	0.094424
O36	O	0.346624	-0.859496	0.344424
O37	O	-0.191719	-1.453311	-0.524079
O38	O	0.058281	-1.203311	-0.274079
O39	O	0.308281	-0.953311	-0.024079
O40	O	0.558281	-0.703311	0.225921
O41	O	-0.312178	-1.334665	-0.249184
O42	O	-0.062178	-1.084665	0.000816
O43	O	0.187822	-0.834665	0.250816
O44	O	0.437822	-0.584665	0.500816
O45	O	-0.312128	-1.178333	-0.405539
O46	O	-0.062128	-0.928333	-0.155539
O47	O	0.187872	-0.678333	0.094461
O48	O	0.437872	-0.428333	0.344461
O49	O	-0.403287	-1.334715	-0.680397
O50	O	-0.153287	-1.084715	-0.430397
O51	O	0.096713	-0.834715	-0.180397
O52	O	0.346713	-0.584715	0.069603
O53	O	-0.403318	-1.178298	-0.524003
O54	O	-0.153318	-0.928298	-0.274003
O55	O	0.096682	-0.678298	-0.024003
O56	O	0.346682	-0.428298	0.225997
O57	O	-0.312073	-1.453264	-0.680430
O58	O	-0.062073	-1.203264	-0.430430
O59	O	0.187927	-0.953264	-0.180430
O60	O	0.437927	-0.703264	0.069570
O61	O	-0.523761	-1.453033	-0.405533
O62	O	-0.273761	-1.203033	-0.155533
O63	O	-0.023761	-0.953033	0.094467
O64	O	0.226239	-0.703033	0.344467
O65	O	-0.523723	-1.334583	-0.524000
O66	O	-0.273723	-1.084583	-0.274000
O67	O	-0.023723	-0.834583	-0.024000
O68	O	0.226277	-0.584583	0.226000
C69	C	-0.357721	-1.143316	-0.464767
C70	C	-0.107721	-0.893316	-0.214767
C71	C	0.142279	-0.643316	0.035233
C72	C	0.392279	-0.393316	0.285233
C73	C	-0.357733	-1.036102	-0.464777
C74	C	-0.107733	-0.786102	-0.214777
C75	C	0.142267	-0.536102	0.035223
C76	C	0.392267	-0.286102	0.285223
C77	C	-0.550688	-1.393814	-0.464782
C78	C	-0.300688	-1.143814	-0.214782
C79	C	-0.050688	-0.893814	0.035218
C80	C	0.199312	-0.643814	0.285218
C81	C	-0.633234	-1.393853	-0.464808
C82	C	-0.383234	-1.143853	-0.214808
C83	C	-0.133234	-0.893853	0.035192
C84	C	0.116766	-0.643853	0.285192
C85	C	-0.357732	-0.839807	-0.464795
C86	C	-0.107732	-0.589807	-0.214795
C87	C	0.142268	-0.339807	0.035205
C88	C	0.392268	-0.089807	0.285205
C89	C	-0.357730	-0.949040	-0.464782
C90	C	-0.107730	-0.699040	-0.214782
C91	C	0.142270	-0.449040	0.035218
C92	C	0.392270	-0.199040	0.285218
C93	C	-0.832691	-1.329503	-0.529208
C94	C	-0.582691	-1.079503	-0.279208
C95	C	-0.332691	-0.829503	-0.029208
C96	C	-0.082691	-0.579503	0.220792
C97	C	-0.882136	-1.305986	-0.441188
C98	C	-0.632136	-1.055986	-0.191188
C99	C	-0.382136	-0.805986	0.058812
C100	C	-0.132136	-0.555986	0.308812
C101	C	-0.784365	-1.393947	-0.464820
C102	C	-0.534365	-1.143947	-0.214820
C103	C	-0.284365	-0.893947	0.035180
C104	C	-0.034365	-0.643947	0.285180
C105	C	-0.882001	-1.417512	-0.552850
C106	C	-0.632001	-1.167512	-0.302850
C107	C	-0.382001	-0.917512	-0.052850
C108	C	-0.132001	-0.667512	0.197150
C109	C	-0.930350	-1.394037	-0.464840
C110	C	-0.680350	-1.144037	-0.214840
C111	C	-0.430350	-0.894037	0.035160
C112	C	-0.180350	-0.644037	0.285160
C113	C	-0.832723	-1.370384	-0.376754
C114	C	-0.582723	-1.120384	-0.126754
C115	C	-0.332723	-0.870384	0.123246
C116	C	-0.082723	-0.620384	0.373246
C117	C	-0.832583	-1.481951	-0.488475
C118	C	-0.582583	-1.231951	-0.238475
C119	C	-0.332583	-0.981951	0.011525
C120	C	-0.082583	-0.731951	0.261525
C121	C	-0.882006	-1.458467	-0.400395
C122	C	-0.632006	-1.208467	-0.150395
C123	C	-0.382006	-0.958467	0.099605
C124	C	-0.132006	-0.708467	0.349605
C125	C	-0.700266	-1.393893	-0.464810
C126	C	-0.450266	-1.143893	-0.214810
C127	C	-0.200266	-0.893893	0.035190
C128	C	0.049734	-0.643893	0.285190
C129	C	-1.014446	-1.394092	-0.464841
C130	C	-0.764446	-1.144092	-0.214841
C131	C	-0.514446	-0.894092	0.035159
C132	C	-0.264446	-0.644092	0.285159
C133	C	-0.164031	-1.394074	-0.464836
C134	C	0.085969	-1.144074	-0.214836
C135	C	0.335969	-0.894074	0.035164
C136	C	0.585969	-0.644074	0.285164
C137	C	-0.081485	-1.394135	-0.464851
C138	C	0.168515	-1.144135	-0.214851
C139	C	0.418515	-0.894135	0.035149
C140	C	0.668515	-0.644135	0.285149
C141	C	-0.357671	-1.393999	-0.716392
C142	C	-0.107671	-1.143999	-0.466392
C143	C	0.142329	-0.893999	-0.216392
C144	C	0.392329	-0.643999	0.033608
C145	C	-0.357643	-1.394028	-0.823606
C146	C	-0.107643	-1.144028	-0.573606
C147	C	0.142357	-0.894028	-0.323606
C148	C	0.392357	-0.644028	-0.073606
C149	C	-0.357747	-0.645524	-0.464821
C150	C	-0.107747	-0.395524	-0.214821
C151	C	0.142253	-0.145524	0.035179
C152	C	0.392253	0.104476	0.285179
C153	C	-0.357739	-0.752738	-0.464807
C154	C	-0.107739	-0.502738	-0.214807
C155	C	0.142261	-0.252738	0.035193
C156	C	0.392261	-0.002738	0.285193
C157	C	-0.357592	-1.394055	-1.019901
C158	C	-0.107592	-1.144055	-0.769901
C159	C	0.142408	-0.894055	-0.519901
C160	C	0.392408	-0.644055	-0.269901
C161	C	-0.357622	-1.394037	-0.910668
C162	C	-0.107622	-1.144037	-0.660668
C163	C	0.142378	-0.894037	-0.410668
C164	C	0.392378	-0.644037	-0.160668
C165	C	-0.357748	-1.393918	-0.214184
C166	C	-0.107748	-1.143918	0.035816
C167	C	0.142252	-0.893918	0.285816
C168	C	0.392252	-0.643918	0.535816
C169	C	-0.357567	-1.394076	-0.106971
C170	C	-0.107567	-1.144076	0.143029
C171	C	0.142433	-0.894076	0.393029
C172	C	0.392433	-0.644076	0.643029
H173	H	-0.811037	-1.274924	-0.583581
H174	H	-0.561037	-1.024924	-0.333581
H175	H	-0.311037	-0.774924	-0.083581
H176	H	-0.061037	-0.524924	0.166419
O177	O	-0.910511	-1.530709	-0.328201
O178	O	-0.660511	-1.280709	-0.078201
O179	O	-0.410511	-1.030709	0.171799
O180	O	-0.160511	-0.780709	0.421799
H181	H	-0.944292	-1.585779	-0.365864
H182	H	-0.694292	-1.335779	-0.115864
H183	H	-0.444292	-1.085779	0.134136
H184	H	-0.194292	-0.835779	0.384136
O185	O	-0.910970	-1.207461	-0.414679
O186	O	-0.660970	-0.957461	-0.164679
O187	O	-0.410970	-0.707461	0.085321
O188	O	-0.160970	-0.457461	0.335321
H189	H	-0.891224	-1.154055	-0.468218
H190	H	-0.641224	-0.904055	-0.218218
H191	H	-0.391224	-0.654055	0.031782
H192	H	-0.141224	-0.404055	0.281782
O193	O	-0.804179	-1.343909	-0.278124
O194	O	-0.554179	-1.093909	-0.028124
O195	O	-0.304179	-0.843909	0.221876
O196	O	-0.054179	-0.593909	0.471876
H197	H	-0.742691	-1.344041	-0.278900
H198	H	-0.492691	-1.094041	-0.028900
H199	H	-0.242691	-0.844041	0.221100
H200	H	0.007309	-0.594041	0.471100
O201	O	-0.803892	-1.580564	-0.514895
O202	O	-0.553892	-1.330564	-0.264895
O203	O	-0.303892	-1.080564	-0.014895
O204	O	-0.053892	-0.830564	0.235105
H205	H	-0.823653	-1.599968	-0.587986
H206	H	-0.573653	-1.349968	-0.337986
H207	H	-0.323653	-1.099968	-0.087986
H208	H	-0.073653	-0.849968	0.162014
O209	O	-0.910672	-1.443874	-0.651449
O210	O	-0.660672	-1.193874	-0.401449
O211	O	-0.410672	-0.943874	-0.151449
O212	O	-0.160672	-0.693874	0.098551
H213	H	-0.890920	-1.390226	-0.704741
H214	H	-0.640920	-1.140226	-0.454741
H215	H	-0.390920	-0.890226	-0.204741
H216	H	-0.140920	-0.640226	0.045259
