data_functionalizedCrystal
_audit_creation_method	'MofGen! by Chris Wilmer'
_symmetry_space_group_name_H-M	'P1'
_symmetry_Int_Tables_number	1
_symmetry_cell_setting	triclinic
loop_
_symmetry_equiv_pos_as_xyz
  x,y,z
_cell_length_a	15.944545
_cell_length_b	15.944551
_cell_length_c	9.016244
_cell_angle_alpha	89.996810
_cell_angle_beta	89.995445
_cell_angle_gamma	83.497455
loop_
_atom_site_label
_atom_site_type_symbol
_atom_site_fract_x
_atom_site_fract_y
_atom_site_fract_z
O1	O	1.114531	0.108303	-0.123247
O2	O	0.869981	0.121665	-0.123272
O3	O	0.998934	-0.007291	-0.123246
O4	O	0.985578	0.237259	-0.123274
O5	O	0.998915	-0.007288	0.123435
O6	O	0.869962	0.121668	0.123409
O7	O	1.114512	0.108306	0.123433
Cu8	Cu	0.992236	0.114988	0.145945
Cu9	Cu	0.992258	0.114984	-0.145784
O10	O	0.985559	0.237262	0.123407
C11	C	0.838677	0.121113	0.000065
C12	C	0.745431	0.119453	0.000057
C13	C	0.474798	0.034559	0.000082
C14	C	0.525371	0.075489	0.121707
C15	C	0.409787	0.113532	0.000083
C16	C	0.525370	0.075508	-0.121500
C17	C	0.574701	0.116437	0.000067
C18	C	0.459131	0.154441	0.121808
C19	C	0.459127	0.154448	-0.121509
C20	C	0.509667	0.195436	0.000146
C21	C	0.314785	0.111856	0.000093
C22	C	0.669700	0.118119	0.000068
C23	C	0.998370	-0.038583	0.000095
C24	C	0.996708	-0.131829	0.000096
C25	C	0.912803	-0.346684	0.000067
C26	C	0.951757	-0.407701	0.121699
C27	C	0.993701	-0.302555	0.000084
C28	C	0.951794	-0.407687	-0.121509
C29	C	0.990790	-0.467468	0.000066
C30	C	1.032676	-0.362343	0.121817
C31	C	1.032703	-0.362323	-0.121500
C32	C	1.071715	-0.423322	0.000162
C33	C	0.995375	-0.207553	0.000095
C34	C	0.989122	-0.562469	0.000065
C35	C	1.145816	0.108859	0.000093
C36	C	1.239062	0.110519	0.000092
C37	C	0.986123	0.268555	0.000063
C38	C	0.987785	0.361801	0.000053
N39	N	0.992226	0.114990	0.351131
N40	N	0.992274	0.114975	-0.350970
C41	C	0.923037	0.183745	0.586150
C42	C	0.923186	0.183999	0.414259
C43	C	1.079873	0.134136	0.413476
C44	C	1.079494	0.134622	0.585420
C45	C	0.974643	0.026856	0.585683
C46	C	0.972623	0.027447	0.413728
H47	H	0.430189	0.187770	-0.224345
H48	H	0.459145	-0.033453	0.000208
N49	N	0.836463	0.168890	0.640975
H50	H	0.799017	0.159549	0.553560
H51	H	0.841357	0.117450	0.707130
H52	H	0.554294	0.042138	0.224540
N53	N	0.420970	0.198590	0.258161
H54	H	0.357803	0.197179	0.257349
H55	H	0.445739	0.168974	0.349841
N56	N	1.077993	-0.335647	-0.257704
H57	H	1.128828	-0.307431	-0.226715
H58	H	1.096906	-0.386951	-0.320031
H59	H	1.132620	0.085382	0.372582
H60	H	0.934141	0.248769	0.629337
N61	N	1.100055	0.219749	0.638542
H62	H	1.152989	0.212256	0.700913
H63	H	1.109239	0.256566	0.550190
N64	N	0.906418	-0.434335	0.257892
H65	H	0.906111	-0.497643	0.257374
H66	H	0.936391	-0.416977	0.349685
N67	N	1.077956	-0.335874	0.258177
H68	H	1.078774	-0.272629	0.257365
H69	H	1.047598	-0.352817	0.349852
H70	H	0.525159	0.263501	0.000210
H71	H	0.554295	0.042141	-0.224319
N72	N	1.160735	-0.467252	0.000246
H73	H	1.191166	-0.450778	0.092157
H74	H	1.159063	-0.530381	-0.000682
H75	H	0.912124	0.008445	0.629126
N76	N	0.836886	0.168895	0.358432
H77	H	0.793474	0.215066	0.395950
H78	H	0.836889	0.169015	0.246417
N79	N	0.906468	-0.434305	-0.257710
H80	H	0.846452	-0.406138	-0.257601
H81	H	0.936487	-0.416994	-0.349500
N82	N	0.823860	-0.302561	0.000199
H83	H	0.793404	-0.318937	0.092160
H84	H	0.825676	-0.239453	-0.000798
N85	N	0.937869	0.270679	0.359729
H86	H	0.944298	0.308864	0.447389
H87	H	0.990887	0.266376	0.297589
H88	H	1.132624	0.086509	0.627013
H89	H	1.095774	0.197670	0.370392
H90	H	0.908149	0.012916	0.372982
N91	N	1.035079	-0.043520	0.356842
H92	H	1.077156	-0.019822	0.289387
H93	H	1.065759	-0.073255	0.443356
N94	N	1.041519	-0.040937	0.639537
H95	H	1.083042	-0.014745	0.704649
H96	H	1.014026	-0.084310	0.698332
