data_functionalizedCrystal
_audit_creation_method	'MofGen! by Chris Wilmer'
_symmetry_space_group_name_H-M	'P1'
_symmetry_Int_Tables_number	1
_symmetry_cell_setting	triclinic
loop_
_symmetry_equiv_pos_as_xyz
  x,y,z
_cell_length_a	13.032831
_cell_length_b	15.297327
_cell_length_c	13.033429
_cell_angle_alpha	91.279548
_cell_angle_beta	89.091437
_cell_angle_gamma	93.742008
loop_
_atom_site_label
_atom_site_type_symbol
_atom_site_fract_x
_atom_site_fract_y
_atom_site_fract_z
Zn1	Zn	1.405146	-0.419820	-0.853129
Zn2	Zn	1.905146	0.080180	-0.353129
Zn3	Zn	1.390163	-0.584810	-0.709533
Zn4	Zn	1.890163	-0.084810	-0.209533
Zn5	Zn	1.253960	-0.424431	-0.660152
Zn6	Zn	1.753960	0.075569	-0.160152
Zn7	Zn	1.204488	-0.548574	-0.853431
Zn8	Zn	1.704488	-0.048574	-0.353431
O9	O	1.313439	-0.494409	-0.769061
O10	O	1.813439	0.005591	-0.269061
O11	O	1.544136	-0.454942	-0.854620
O12	O	2.044136	0.045058	-0.354620
O13	O	1.386530	-0.580630	-0.561999
O14	O	1.886530	-0.080630	-0.061999
O15	O	1.300990	-0.302816	-0.664959
O16	O	1.800990	0.197184	-0.164959
O17	O	1.533128	-0.576159	-0.749121
O18	O	2.033128	-0.076159	-0.249121
O19	O	1.412066	-0.299429	-0.806738
O20	O	1.912066	0.200571	-0.306738
O21	O	1.286462	-0.462800	-0.525719
O22	O	1.786462	0.037200	-0.025719
O23	O	1.106420	-0.427664	-0.665251
O24	O	1.606420	0.072336	-0.165251
O25	O	1.216671	-0.514400	-0.994374
O26	O	1.716671	-0.014400	-0.494374
O27	O	1.070073	-0.518871	-0.807252
O28	O	1.570073	-0.018871	-0.307252
O29	O	1.364094	-0.419805	-0.994152
O30	O	1.864094	0.080195	-0.494152
O31	O	1.338558	-0.701006	-0.749413
O32	O	1.838558	-0.201006	-0.249413
O33	O	1.202143	-0.674384	-0.855134
O34	O	1.702143	-0.174384	-0.355134
C35	C	1.051692	-0.469836	-0.730927
C36	C	1.551692	0.030164	-0.230927
C37	C	0.939709	-0.459342	-0.714640
C38	C	1.439709	0.040658	-0.214640
C39	C	0.871817	-0.499886	-0.777561
C40	C	1.371817	0.000114	-0.277561
C41	C	0.756076	-0.489041	-0.760730
C42	C	1.256076	0.010959	-0.260730
C43	C	1.263381	-0.719070	-0.807691
C44	C	1.763381	-0.219070	-0.307691
C45	C	1.242055	-0.815185	-0.824264
C46	C	1.742055	-0.315185	-0.324264
C47	C	1.466242	-1.141437	-0.651014
C48	C	1.966242	-0.641437	-0.151014
C49	C	1.486279	-1.051132	-0.635438
C50	C	1.986279	-0.551132	-0.135438
C51	C	1.425225	-0.992141	-0.682643
C52	C	1.925225	-0.492141	-0.182643
C53	C	1.344130	-1.023463	-0.745427
C54	C	1.844130	-0.523463	-0.245427
C55	C	1.324086	-1.113777	-0.760999
C56	C	1.824086	-0.613777	-0.260999
C57	C	1.283069	-0.964481	-0.792628
C58	C	1.783069	-0.464481	-0.292628
C59	C	1.201974	-0.995804	-0.855412
C60	C	1.701974	-0.495804	-0.355412
C61	C	1.181934	-1.086109	-0.870982
C62	C	1.681934	-0.586109	-0.370982
C63	C	1.242988	-1.145100	-0.823776
C64	C	1.742988	-0.645100	-0.323776
C65	C	1.303113	-0.874168	-0.777056
C66	C	1.803113	-0.374168	-0.277056
C67	C	1.160957	-0.846508	-0.887041
C68	C	1.660957	-0.346508	-0.387041
C69	C	1.140920	-0.936813	-0.902618
C70	C	1.640920	-0.436813	-0.402618
C71	C	1.576208	-0.519078	-0.807345
C72	C	2.076208	-0.019078	-0.307345
C73	C	1.688185	-0.529591	-0.823659
C74	C	2.188185	-0.029591	-0.323659
C75	C	1.286536	-0.462546	-1.031840
C76	C	1.786536	0.037454	-0.531840
C77	C	1.275071	-0.448969	-1.143821
C78	C	1.775071	0.051031	-0.643821
C79	C	1.363718	-0.268870	-0.730306
C80	C	1.863718	0.231130	-0.230306
C81	C	1.385144	-0.172759	-0.713791
C82	C	1.885144	0.327241	-0.213791
C83	C	1.307625	-0.487195	-1.327434
C84	C	1.807625	0.012805	-0.827434
C85	C	1.319476	-0.501224	-1.211695
C86	C	1.819476	-0.001224	-0.711695
C87	C	1.340310	-0.526090	-0.507302
C88	C	1.840310	-0.026090	-0.007302
C89	C	1.352025	-0.539443	-0.395308
C90	C	1.852025	-0.039443	0.104692
H91	H	0.728519	-0.446293	-0.694399
H92	H	1.228519	0.053707	-0.194399
H93	H	1.115890	-1.111608	-0.922091
H94	H	1.615890	-0.611608	-0.422091
N95	N	1.053455	-0.970600	-0.970331
N96	N	1.553455	-0.470600	-0.470331
H97	H	1.050026	-1.036760	-0.973029
H98	H	1.550026	-0.536760	-0.473029
H99	H	0.986617	-0.950032	-0.941402
H100	H	1.486617	-0.450032	-0.441402
N101	N	1.221378	-1.242504	-0.840571
N102	N	1.721378	-0.742504	-0.340571
H103	H	1.149345	-1.260085	-0.815692
H104	H	1.649345	-0.760085	-0.315692
H105	H	1.228001	-1.257503	-0.916142
H106	H	1.728001	-0.757503	-0.416142
N107	N	1.095094	-0.782894	-0.937955
N108	N	1.595094	-0.282894	-0.437955
H109	H	1.120098	-0.720931	-0.918566
H110	H	1.620098	-0.220931	-0.418566
H111	H	1.099850	-0.791383	-1.014913
H112	H	1.599850	-0.291383	-0.514913
N113	N	1.381462	-0.574234	-1.175186
N114	N	1.881462	-0.074234	-0.675186
H115	H	1.381110	-0.573925	-1.097681
H116	H	1.881110	-0.073925	-0.597681
H117	H	1.350175	-0.632310	-1.201884
H118	H	1.850175	-0.132310	-0.701884
H119	H	1.398814	-0.594557	-1.367732
H120	H	1.898814	-0.094557	-0.867732
N121	N	0.724672	-0.586205	-0.911535
N122	N	1.224672	-0.086205	-0.411535
H123	H	0.802181	-0.585927	-0.911107
H124	H	1.302181	-0.085927	-0.411107
H125	H	0.694195	-0.648150	-0.903706
H126	H	1.194195	-0.148150	-0.403706
H127	H	1.228288	-0.393843	-1.171390
H128	H	1.728288	0.106157	-0.671390
H129	H	1.369141	-0.848674	-0.725937
H130	H	1.869141	-0.348674	-0.225937
N131	N	0.903210	-0.402730	-0.626772
N132	N	1.403210	0.097270	-0.126772
H133	H	0.925866	-0.426498	-0.559693
H134	H	1.425866	0.073502	-0.059693
H135	H	0.933626	-0.340771	-0.634641
H136	H	1.433626	0.159229	-0.134641
N137	N	1.446831	-0.894741	-0.665845
N138	N	1.946831	-0.394741	-0.165845
H139	H	1.507468	-0.883849	-0.618910
H140	H	2.007468	-0.383849	-0.118910
H141	H	1.463008	-0.866365	-0.733946
H142	H	1.963008	-0.366365	-0.233946
N143	N	1.573747	-1.017349	-0.567738
N144	N	2.073747	-0.517349	-0.067738
H145	H	1.609389	-1.068420	-0.540203
H146	H	2.109389	-0.568420	-0.040203
H147	H	1.624454	-0.979230	-0.609115
H148	H	2.124454	-0.479230	-0.109115
N149	N	1.532070	-1.205059	-0.600085
N150	N	2.032070	-0.705059	-0.100085
H151	H	1.507060	-1.267021	-0.619472
H152	H	2.007060	-0.767021	-0.119472
H153	H	1.605918	-1.194071	-0.623561
H154	H	2.105918	-0.694071	-0.123561
N155	N	1.245632	-0.414198	-1.363954
N156	N	1.745632	0.085802	-0.863954
H157	H	1.291053	-0.372712	-1.406716
H158	H	1.791053	0.127288	-0.906716
H159	H	1.186688	-0.439793	-1.406810
H160	H	1.686688	0.060207	-0.906810
N161	N	0.908312	-0.556504	-0.865425
N162	N	1.408312	-0.056504	-0.365425
H163	H	0.985820	-0.556228	-0.864993
H164	H	1.485820	-0.056228	-0.364993
H165	H	0.877832	-0.618448	-0.857587
H166	H	1.377832	-0.118448	-0.357587
