data_functionalizedCrystal
_audit_creation_method	'MofGen! by Chris Wilmer'
_symmetry_space_group_name_H-M	'P1'
_symmetry_Int_Tables_number	1
_symmetry_cell_setting	triclinic
loop_
_symmetry_equiv_pos_as_xyz
  x,y,z
_cell_length_a	21.395362
_cell_length_b	16.120444
_cell_length_c	21.395355
_cell_angle_alpha	92.881464
_cell_angle_beta	89.956060
_cell_angle_gamma	92.943436
loop_
_atom_site_label
_atom_site_type_symbol
_atom_site_fract_x
_atom_site_fract_y
_atom_site_fract_z
Zn1	Zn	0.945240	-0.331660	-0.367218
Zn2	Zn	0.939838	-0.471059	-0.267751
Zn3	Zn	0.840453	-0.331699	-0.262421
Zn4	Zn	0.835119	-0.471077	-0.372456
O5	O	0.890163	-0.401374	-0.317462
O6	O	1.032202	-0.350128	-0.354062
O7	O	0.926626	-0.452582	-0.179366
O8	O	0.858846	-0.215025	-0.271900
O9	O	1.028234	-0.452544	-0.280984
O10	O	0.935833	-0.214996	-0.348895
O11	O	0.853609	-0.350194	-0.175451
O12	O	0.752067	-0.350211	-0.276979
O13	O	0.849755	-0.452574	-0.459439
O14	O	0.748148	-0.452611	-0.357821
O15	O	0.930660	-0.350145	-0.455591
O16	O	0.921454	-0.587731	-0.286062
O17	O	0.844518	-0.587743	-0.362989
C18	C	0.727373	-0.401418	-0.317391
C19	C	0.657731	-0.401457	-0.317376
C20	C	0.622991	-0.454847	-0.359413
C21	C	0.557556	-0.454827	-0.359440
C22	C	0.526864	-0.401425	-0.317419
C23	C	0.561612	-0.348024	-0.275379
C24	C	0.627045	-0.348040	-0.275357
C25	C	0.423394	-0.394708	-0.260758
C26	C	0.357962	-0.394698	-0.260779
C27	C	0.325045	-0.401370	-0.317486
C28	C	0.357568	-0.408070	-0.374175
C29	C	0.423002	-0.408086	-0.374153
C30	C	0.455912	-0.401401	-0.317438
C31	C	0.219353	-0.454741	-0.359556
C32	C	0.153918	-0.454715	-0.359584
C33	C	0.157975	-0.347917	-0.275518
C34	C	0.223409	-0.347939	-0.275495
C35	C	0.254094	-0.401355	-0.317514
C36	C	0.881838	-0.617988	-0.325686
C37	C	0.878334	-0.710657	-0.329225
C38	C	0.908494	-0.921578	-0.299236
C39	C	0.871948	-0.880318	-0.335694
C40	C	0.875502	-0.785910	-0.332094
C41	C	0.904940	-1.015995	-0.302835
C42	C	1.053588	-0.401330	-0.317533
C43	C	1.123230	-0.401312	-0.317564
C44	C	0.890215	-0.401357	-0.480884
C45	C	0.890238	-0.401350	-0.550525
C46	C	0.898537	-0.183914	-0.309219
C47	C	0.902106	-0.091245	-0.305706
C48	C	0.932363	-0.348013	-0.581236
C49	C	0.932364	-0.347977	-0.646670
C50	C	0.890245	-0.401293	-0.681392
C51	C	0.848111	-0.454633	-0.650673
C52	C	0.848108	-0.454662	-0.585240
C53	C	0.882412	-0.476364	-0.787915
C54	C	0.882420	-0.476337	-0.853347
C55	C	0.890252	-0.401205	-0.883209
C56	C	0.898089	-0.326097	-0.847631
C57	C	0.898086	-0.326126	-0.782198
C58	C	0.890244	-0.401268	-0.752343
C59	C	0.932381	-0.347825	-0.984870
C60	C	0.932377	-0.347787	-1.050306
C61	C	0.848127	-0.454451	-1.054308
C62	C	0.848128	-0.454481	-0.988874
C63	C	0.890258	-0.401169	-0.954159
C64	C	0.890149	-0.401330	-0.154672
C65	C	0.890257	-0.401103	-0.085023
H66	H	0.132986	-0.304432	-0.241306
H67	H	0.450190	-0.389271	-0.214577
O68	O	0.802683	-0.512138	-0.688122
H69	H	0.754059	-0.497848	-0.674987
O70	O	0.873961	-0.557403	-0.755706
H71	H	0.828187	-0.588514	-0.769422
O72	O	0.826961	-0.927443	-0.380614
H73	H	0.838294	-0.910749	-0.429181
O74	O	0.953481	-0.874461	-0.254317
H75	H	0.949246	-0.806630	-0.258507
H76	H	0.529265	-0.498303	-0.393674
O77	O	0.260885	-0.290375	-0.230139
H78	H	0.228551	-0.253246	-0.200916
O79	O	0.906537	-0.245124	-0.743824
H80	H	0.868272	-0.204194	-0.754788
H81	H	0.536618	-0.304542	-0.241166
O82	O	0.977799	-0.290512	-0.543791
H83	H	1.007090	-0.253413	-0.576144
H84	H	0.966667	-0.304539	-0.671679
H85	H	0.904468	-0.264917	-0.871943
H86	H	0.813801	-0.498094	-0.560236
H87	H	0.647970	-0.498342	-0.393629
O88	O	0.977811	-0.290318	-0.947420
H89	H	1.007097	-0.253212	-0.979770
O90	O	0.977815	-0.290259	-1.083434
H91	H	1.007113	-0.253201	-1.048299
O92	O	0.873966	-0.557346	-0.891711
H93	H	0.915615	-0.565845	-0.921872
H94	H	0.331486	-0.389248	-0.214620
H95	H	0.244339	-0.498232	-0.393774
H96	H	0.655331	-0.304561	-0.241125
O97	O	0.802696	-0.512006	-0.955737
H98	H	0.772259	-0.474694	-0.924487
H99	H	0.449479	-0.413539	-0.420311
O100	O	0.802696	-0.511959	-1.091747
H101	H	0.809776	-0.502982	-1.142407
H102	H	0.125633	-0.498190	-0.393820
H103	H	0.330769	-0.413502	-0.420352
