data_functionalizedCrystal
_audit_creation_method	'MofGen! by Chris Wilmer'
_symmetry_space_group_name_H-M	'P1'
_symmetry_Int_Tables_number	1
_symmetry_cell_setting	triclinic
loop_
_symmetry_equiv_pos_as_xyz
  x,y,z
_cell_length_a	15.298709
_cell_length_b	16.120444
_cell_length_c	15.296720
_cell_angle_alpha	78.012939
_cell_angle_beta	72.673665
_cell_angle_gamma	102.068437
loop_
_atom_site_label
_atom_site_type_symbol
_atom_site_fract_x
_atom_site_fract_y
_atom_site_fract_z
Zn1	Zn	1.319513	-0.167162	0.291264
Zn2	Zn	1.338849	-0.279822	0.143250
Zn3	Zn	1.190925	-0.167218	0.162648
Zn4	Zn	1.152536	-0.339392	0.329506
O5	O	1.250456	-0.238399	0.231667
O6	O	1.453865	-0.157152	0.247507
O7	O	1.343384	-0.239978	0.014048
O8	O	1.215957	-0.048006	0.171823
O9	O	1.468071	-0.239924	0.138762
O10	O	1.310430	-0.047965	0.266317
O11	O	1.234706	-0.157249	0.028299
O12	O	1.054046	-0.215011	0.208904
O13	O	1.150527	-0.341452	0.456208
O14	O	1.025841	-0.341507	0.331494
O15	O	1.273205	-0.214915	0.428112
O16	O	1.306159	-0.406929	0.175843
O17	O	1.169276	-0.450695	0.312685
C18	C	1.005772	-0.284730	0.276455
C19	C	0.901090	-0.304576	0.295639
C20	C	0.837266	-0.379823	0.368386
C21	C	0.738911	-0.398466	0.386419
C22	C	0.704371	-0.341868	0.331702
C23	C	0.768196	-0.266623	0.258949
C24	C	0.866560	-0.247974	0.240919
C25	C	0.733665	-0.210019	0.204235
C26	C	0.797490	-0.134774	0.131482
C27	C	0.895845	-0.116129	0.113455
C28	C	0.930385	-0.172727	0.168172
C29	C	0.635301	-0.228668	0.222265
C30	C	0.664595	-0.096819	0.094798
C31	C	0.762950	-0.078176	0.076765
C32	C	1.235672	-0.459719	0.246324
C33	C	1.229428	-0.554390	0.252611
C34	C	1.283041	-0.748208	0.199217
C35	C	1.218043	-0.727707	0.264095
C36	C	1.224379	-0.631264	0.257703
C37	C	1.276706	-0.844659	0.205607
C38	C	1.496094	-0.191887	0.186705
C39	C	1.600771	-0.172066	0.167545
C40	C	1.205427	-0.284822	0.477284
C41	C	1.186239	-0.304605	0.581951
C42	C	1.265319	-0.016213	0.216968
C43	C	1.271653	0.078469	0.210704
C44	C	1.295367	-0.192084	-0.013008
C45	C	1.314754	-0.172026	-0.117724
C46	C	1.387644	-0.096851	0.818477
C47	C	1.405678	-0.078264	0.720136
C48	C	1.350820	-0.134847	0.685585
C49	C	1.277924	-0.210021	0.749385
C50	C	1.259893	-0.228614	0.847735
C51	C	1.223069	-0.266610	0.714842
C52	C	1.150173	-0.341784	0.778642
C53	C	1.132145	-0.360373	0.876982
C54	C	1.187003	-0.303789	0.911533
C55	C	1.241100	-0.248018	0.616492
C56	C	1.113349	-0.379781	0.645750
C57	C	1.095315	-0.398368	0.744091
H58	H	0.583343	-0.289933	0.281502
H59	H	1.465032	-0.017059	0.668197
C60	C	1.370653	-0.114393	0.577407
N61	N	1.385591	-0.098980	0.495923
C62	C	1.051961	-0.443069	0.947159
N63	N	0.991565	-0.505356	1.000015
C64	C	0.833169	0.004600	-0.003252
N65	N	0.886058	0.066948	-0.063518
C66	C	1.136431	-0.801845	0.345611
N67	N	1.074961	-0.857689	0.407004
H68	H	1.035962	-0.459575	0.796050
H69	H	1.343442	-0.693333	0.138877
H70	H	1.300452	-0.186810	0.564556
H71	H	0.624284	-0.357052	0.346389
H72	H	0.686951	-0.459731	0.445654
H73	H	1.432307	-0.050792	0.846619
C74	C	1.167181	-0.324241	1.019712
N75	N	1.152259	-0.339646	1.101193
C76	C	1.038588	-0.152263	0.148285
N77	N	1.120090	-0.136867	0.133290
H78	H	1.068680	-0.425857	0.617619
H79	H	0.865398	-0.425893	0.412933
H80	H	0.947809	-0.054855	0.054219
C81	C	0.626606	-0.034558	0.034603
N82	N	0.597986	0.012333	-0.010730
