data_functionalizedCrystal
_audit_creation_method	'MofGen! by Chris Wilmer'
_symmetry_space_group_name_H-M	'P1'
_symmetry_Int_Tables_number	1
_symmetry_cell_setting	triclinic
loop_
_symmetry_equiv_pos_as_xyz
  x,y,z
_cell_length_a	11.792254
_cell_length_b	15.944551
_cell_length_c	10.868271
_cell_angle_alpha	89.993912
_cell_angle_beta	89.995741
_cell_angle_gamma	83.848668
loop_
_atom_site_label
_atom_site_type_symbol
_atom_site_fract_x
_atom_site_fract_y
_atom_site_fract_z
O1	O	1.505951	0.115179	-0.102324
O2	O	2.005951	0.615179	0.397676
O3	O	1.175514	0.127033	-0.102327
O4	O	1.675514	0.627033	0.397673
O5	O	1.349756	-0.001128	-0.102314
O6	O	1.849756	0.498872	0.397686
O7	O	1.331709	0.243340	-0.102337
O8	O	1.831709	0.743340	0.397663
O9	O	1.349742	-0.001133	0.102330
O10	O	1.849742	0.498867	0.602330
O11	O	1.175500	0.127028	0.102318
O12	O	1.675500	0.627028	0.602318
O13	O	1.505937	0.115174	0.102321
O14	O	2.005937	0.615174	0.602321
Zn15	Zn	1.340716	0.121100	0.134811
Zn16	Zn	1.840716	0.621100	0.634811
Zn17	Zn	1.340735	0.121107	-0.134817
Zn18	Zn	1.840735	0.621107	0.365183
O19	O	1.331695	0.243335	0.102308
O20	O	1.831695	0.743335	0.602308
C21	C	1.133222	0.126284	-0.000005
C22	C	1.633222	0.626284	0.499995
C23	C	1.007228	0.124049	-0.000006
C24	C	1.507228	0.624049	0.499994
C25	C	1.349000	-0.032428	0.000008
C26	C	1.849000	0.467572	0.500008
C27	C	1.346753	-0.125684	0.000009
C28	C	1.846753	0.374316	0.500009
C29	C	0.904906	0.122233	-0.000011
C30	C	1.404906	0.622233	0.499989
C31	C	0.776538	0.119962	-0.000011
C32	C	1.276538	0.619962	0.499989
C33	C	1.233381	-0.341056	-0.000009
C34	C	1.733381	0.158944	0.499991
C35	C	1.286021	-0.401837	0.100894
C36	C	1.786021	0.098163	0.600894
C37	C	1.342690	-0.296428	-0.000001
C38	C	1.842690	0.203572	0.499999
C39	C	1.286060	-0.401815	-0.100870
C40	C	1.786060	0.098185	0.399130
C41	C	1.338757	-0.461359	-0.000015
C42	C	1.838757	0.038641	0.499985
C43	C	1.395359	-0.355981	0.100985
C44	C	1.895359	0.144019	0.600985
C45	C	1.395384	-0.355953	-0.100869
C46	C	1.895384	0.144047	0.399131
C47	C	1.448102	-0.416715	0.000058
C48	C	1.948102	0.083285	0.500058
C49	C	1.344953	-0.201416	0.000009
C50	C	1.844953	0.298584	0.500009
C51	C	1.336503	-0.556370	-0.000016
C52	C	1.836503	-0.056370	0.499984
C53	C	1.548228	0.115923	-0.000004
C54	C	2.048228	0.615923	0.499996
C55	C	1.674223	0.118158	-0.000011
C56	C	2.174223	0.618158	0.499989
C57	C	1.332451	0.274634	-0.000017
C58	C	1.832451	0.774634	0.499983
C59	C	1.334697	0.367891	-0.000026
C60	C	1.834697	0.867891	0.499974
N61	N	1.340711	0.121095	0.318825
N62	N	1.840711	0.621095	0.818825
N63	N	1.340748	0.121105	-0.318831
N64	N	1.840748	0.621105	0.181169
C65	C	1.340729	0.121105	0.569831
C66	C	1.840729	0.621105	1.069831
C67	C	1.340715	0.121102	0.430153
C68	C	1.840715	0.621102	0.930153
H69	H	1.142650	-0.308161	0.000091
H70	H	1.642650	0.191839	0.500091
Cl71	Cl	1.466713	-0.324541	-0.232580
Cl72	Cl	1.966713	0.175459	0.267420
Cl73	Cl	1.214635	-0.433211	0.232598
Cl74	Cl	1.714635	0.066789	0.732598
Cl75	Cl	1.214660	-0.433155	-0.232565
Cl76	Cl	1.714660	0.066845	0.267435
Cl77	Cl	1.466674	-0.324802	0.232834
Cl78	Cl	1.966674	0.175198	0.732834
H79	H	1.538913	-0.449461	0.000116
H80	H	2.038913	0.050539	0.500116
