data_functionalizedCrystal
_audit_creation_method	'MofGen! by Chris Wilmer'
_symmetry_space_group_name_H-M	'P1'
_symmetry_Int_Tables_number	1
_symmetry_cell_setting	triclinic
loop_
_symmetry_equiv_pos_as_xyz
  x,y,z
_cell_length_a	13.897448
_cell_length_b	19.805407
_cell_length_c	19.805399
_cell_angle_alpha	89.978936
_cell_angle_beta	90.025019
_cell_angle_gamma	89.983323
loop_
_atom_site_label
_atom_site_type_symbol
_atom_site_fract_x
_atom_site_fract_y
_atom_site_fract_z
Zn1	Zn	-0.384063	-1.034777	0.382759
Zn2	Zn	0.115937	-0.534777	0.882759
Zn3	Zn	-0.545369	-1.034709	0.269575
Zn4	Zn	-0.045369	-0.534709	0.769575
Zn5	Zn	-0.384087	-0.921591	0.269580
Zn6	Zn	0.115913	-0.421591	0.769580
Zn7	Zn	-0.545315	-0.921572	0.382719
Zn8	Zn	-0.045315	-0.421572	0.882719
O9	O	-0.464709	-0.978162	0.326158
O10	O	0.035291	-0.478162	0.826158
O11	O	-0.405474	-1.129484	0.367759
O12	O	0.094526	-0.629484	0.867759
O13	O	-0.524007	-1.019683	0.174859
O14	O	-0.024007	-0.519683	0.674859
O15	O	-0.249102	-0.936642	0.284612
O16	O	0.250898	-0.436642	0.784612
O17	O	-0.523984	-1.129434	0.284604
O18	O	-0.023984	-0.629434	0.784604
O19	O	-0.249085	-1.019799	0.367764
O20	O	0.250915	-0.519799	0.867764
O21	O	-0.405514	-0.936576	0.174863
O22	O	0.094486	-0.436576	0.674863
O23	O	-0.405462	-0.826872	0.284574
O24	O	0.094538	-0.326872	0.784574
O25	O	-0.523892	-0.936609	0.477441
O26	O	-0.023892	-0.436609	0.977441
O27	O	-0.523915	-0.826858	0.367697
O28	O	-0.023915	-0.326858	0.867697
O29	O	-0.405421	-1.019780	0.477470
O30	O	0.094579	-0.519780	0.977470
O31	O	-0.680344	-1.019664	0.284566
O32	O	-0.180344	-0.519664	0.784566
O33	O	-0.680304	-0.936543	0.367692
O34	O	-0.180304	-0.436543	0.867692
C35	C	-0.715323	-0.978113	0.326139
C36	C	-0.215323	-0.478113	0.826139
C37	C	-0.822537	-0.978154	0.326153
C38	C	-0.322537	-0.478154	0.826153
C39	C	-0.464686	-0.802306	0.326132
C40	C	0.035314	-0.302306	0.826132
C41	C	-0.464699	-0.727074	0.326137
C42	C	0.035301	-0.227074	0.826137
C43	C	-0.464648	-0.978200	0.502701
C44	C	0.035352	-0.478200	1.002701
C45	C	-0.464622	-0.978216	0.577933
C46	C	0.035378	-0.478216	1.077933
C47	C	-1.018832	-0.978225	0.326196
C48	C	-0.518832	-0.478225	0.826196
C49	C	-0.909600	-0.978183	0.326174
C50	C	-0.409600	-0.478183	0.826174
C51	C	-0.213116	-0.978230	0.326193
C52	C	0.286884	-0.478230	0.826193
C53	C	-0.105902	-0.978259	0.326208
C54	C	0.394098	-0.478259	0.826208
C55	C	-0.526470	-0.691740	0.369348
C56	C	-0.026470	-0.191740	0.869348
C57	C	-0.526470	-0.621052	0.369355
C58	C	-0.026470	-0.121052	0.869355
C59	C	-0.464703	-0.585699	0.326148
C60	C	0.035297	-0.085699	0.826148
C61	C	-0.402926	-0.621037	0.282935
C62	C	0.097074	-0.121037	0.782935
C63	C	-0.402922	-0.691725	0.282931
C64	C	0.097078	-0.191725	0.782931
C65	C	-0.402940	-0.335964	0.282950
C66	C	0.097060	0.164036	0.782950
C67	C	-0.402951	-0.265272	0.282956
C68	C	0.097049	0.234728	0.782956
C69	C	-0.526488	-0.265292	0.369374
C70	C	-0.026488	0.234708	0.869374
C71	C	-0.526484	-0.335979	0.369370
C72	C	-0.026484	0.164021	0.869370
C73	C	-0.464703	-0.371311	0.326160
C74	C	0.035297	0.128689	0.826160
C75	C	-0.464703	-0.447960	0.326153
C76	C	0.035297	0.052040	0.826153
C77	C	-0.464708	-0.509051	0.326151
C78	C	0.035292	-0.009051	0.826151
C79	C	-0.464726	-0.154705	0.326179
C80	C	0.035274	0.345295	0.826179
C81	C	-0.464717	-0.229937	0.326171
C82	C	0.035283	0.270063	0.826171
C83	C	-0.464700	-0.978163	0.150302
C84	C	0.035300	-0.478163	0.650302
C85	C	-0.464454	-0.978278	0.075071
C86	C	0.035546	-0.478278	0.575071
C87	C	-0.402931	-1.021524	0.613294
C88	C	0.097069	-0.521524	1.113294
C89	C	-0.402903	-1.021531	0.683982
C90	C	0.097097	-0.521531	1.183982
C91	C	-0.464572	-0.978233	0.719309
C92	C	0.035428	-0.478233	1.219309
C93	C	-0.526265	-0.934920	0.683944
C94	C	-0.026265	-0.434920	1.183944
C95	C	-0.526288	-0.934910	0.613256
C96	C	-0.026288	-0.434910	1.113256
C97	C	-0.526175	-0.934958	0.969017
C98	C	-0.026175	-0.434958	1.469017
C99	C	-0.526150	-0.934973	1.039709
C100	C	-0.026150	-0.434973	1.539709
C101	C	-0.402791	-1.021579	1.039743
C102	C	0.097209	-0.521579	1.539743
C103	C	-0.402813	-1.021570	0.969055
C104	C	0.097187	-0.521570	1.469055
C105	C	-0.464503	-0.978255	0.933696
C106	C	0.035497	-0.478255	1.433696
C107	C	-0.464531	-0.978247	0.857048
C108	C	0.035469	-0.478247	1.357048
C109	C	-0.464549	-0.978244	0.795956
C110	C	0.035451	-0.478244	1.295956
H111	H	-0.576771	-0.720520	0.404530
H112	H	-0.076771	-0.220520	0.904530
Br113	Br	-0.319066	-1.080365	1.087734
Br114	Br	0.180934	-0.580365	1.587734
H115	H	-0.576789	-0.236515	0.404560
H116	H	-0.076789	0.263485	0.904560
H117	H	-0.352647	-0.236489	0.247771
H118	H	0.147353	0.263511	0.747771
H119	H	-0.352630	-0.592247	0.247758
H120	H	0.147370	-0.092247	0.747758
H121	H	-0.576421	-0.899699	0.940236
H122	H	-0.076421	-0.399699	1.440236
H123	H	-0.576370	-0.899712	1.068470
H124	H	-0.076370	-0.399712	1.568470
H125	H	-0.576513	-0.899638	0.584467
H126	H	-0.076513	-0.399638	1.084467
Br127	Br	-0.319241	-1.080295	0.565357
Br128	Br	0.180759	-0.580295	1.065357
H129	H	-0.352641	-0.364723	0.247761
H130	H	0.147359	0.135277	0.747761
Br131	Br	-0.610303	-0.573101	0.428003
Br132	Br	-0.110303	-0.073101	0.928003
H133	H	-0.352671	-1.056799	0.712769
H134	H	0.147329	-0.556799	1.212769
Br135	Br	-0.319081	-0.739679	0.224289
Br136	Br	0.180919	-0.239679	0.724289
Br137	Br	-0.610319	-0.383955	0.428007
Br138	Br	-0.110319	0.116045	0.928007
Br139	Br	-0.319123	-1.080337	0.921115
Br140	Br	0.180877	-0.580337	1.421115
H141	H	-0.576473	-0.899664	0.712712
H142	H	-0.076473	-0.399664	1.212712
