data_functionalizedCrystal
_audit_creation_method	'MofGen! by Chris Wilmer'
_symmetry_space_group_name_H-M	'P1'
_symmetry_Int_Tables_number	1
_symmetry_cell_setting	triclinic
loop_
_symmetry_equiv_pos_as_xyz
  x,y,z
_cell_length_a	10.654543
_cell_length_b	10.268362
_cell_length_c	10.654550
_cell_angle_alpha	90.005126
_cell_angle_beta	95.516448
_cell_angle_gamma	90.000087
loop_
_atom_site_label
_atom_site_type_symbol
_atom_site_fract_x
_atom_site_fract_y
_atom_site_fract_z
O1	O	-1.667846	0.108160	0.176360
O2	O	-1.302367	0.108193	0.193175
O3	O	-1.493509	0.108168	0.002028
O4	O	-1.476703	0.108185	0.367507
O5	O	-1.493493	-0.108433	0.002020
O6	O	-1.302350	-0.108408	0.193167
O7	O	-1.667829	-0.108441	0.176352
Cu8	Cu	-1.485088	-0.128202	0.184758
Cu9	Cu	-1.485108	0.127954	0.184768
O10	O	-1.476687	-0.108415	0.367499
C11	C	-1.255560	-0.000103	0.191938
C12	C	-1.116116	-0.000090	0.188249
C13	C	-1.036631	-0.000087	0.300793
C14	C	-0.905609	-0.000106	0.297319
C15	C	-0.933573	-0.000128	0.068749
C16	C	-1.064591	-0.000118	0.072224
N17	N	-1.485083	-0.308367	0.184751
C18	C	-1.485102	-0.574038	0.184765
C19	C	-1.485087	-0.426200	0.184761
C20	C	-0.714635	-0.000135	0.177595
C21	C	-0.854077	-0.000120	0.181301
C22	C	-1.492267	-0.000132	-0.044774
C23	C	-1.488575	-0.000130	-0.184217
N24	N	-1.485123	0.308120	0.184765
C25	C	-1.601117	-0.000139	-0.263706
C26	C	-1.597641	-0.000123	-0.394726
C27	C	-1.369070	-0.000093	-0.366758
C28	C	-1.372548	-0.000100	-0.235740
C29	C	-1.477929	-0.000113	0.414300
C30	C	-1.481621	-0.000107	0.553744
H31	H	-1.078578	-0.000075	0.395268
O32	O	-1.256338	0.000157	-0.416752
C33	C	-1.059898	0.112358	-0.432867
C34	C	-1.187537	0.112256	-0.376192
H35	H	-1.004225	0.202966	-0.400075
H36	H	-1.076670	0.112442	-0.540169
H37	H	-1.004267	0.021676	-0.400242
H38	H	-1.243234	0.202922	-0.408720
H39	H	-1.170676	0.112104	-0.268897
H40	H	-0.840896	-0.000106	0.388964
H41	H	-1.280897	-0.000088	-0.171016
O42	O	-0.883664	0.000034	-0.044028
C43	C	-0.867406	0.112281	-0.240409
C44	C	-0.924031	0.112237	-0.112744
H45	H	-0.900000	0.203001	-0.295992
H46	H	-0.900099	0.021694	-0.296175
H47	H	-0.760113	0.112216	-0.223529
H48	H	-1.031328	0.112347	-0.129509
H49	H	-0.891240	0.202816	-0.057020
O50	O	-1.707049	0.000037	-0.471811
C51	C	-1.901325	0.112264	-0.535830
C52	C	-1.777476	0.112227	-0.448440
H53	H	-1.958288	0.202974	-0.516984
H54	H	-1.958440	0.021667	-0.516963
H55	H	-1.878887	0.112216	-0.638314
H56	H	-1.799800	0.112321	-0.345925
H57	H	-1.720397	0.202816	-0.467415
H58	H	-1.129313	-0.000124	-0.019428
H59	H	-1.695593	-0.000161	-0.221761
