data_functionalizedCrystal
_audit_creation_method	'MofGen! by Chris Wilmer'
_symmetry_space_group_name_H-M	'P1'
_symmetry_Int_Tables_number	1
_symmetry_cell_setting	triclinic
loop_
_symmetry_equiv_pos_as_xyz
  x,y,z
_cell_length_a	14.044220
_cell_length_b	10.654558
_cell_length_c	9.730223
_cell_angle_alpha	90.000400
_cell_angle_beta	89.997406
_cell_angle_gamma	88.838597
loop_
_atom_site_label
_atom_site_type_symbol
_atom_site_fract_x
_atom_site_fract_y
_atom_site_fract_z
O1	O	0.133265	1.681220	-0.114275
O2	O	0.145951	1.317017	-0.114282
O3	O	0.001587	1.493652	-0.114265
O4	O	0.277629	1.504585	-0.114292
O5	O	0.001591	1.493650	0.114315
O6	O	0.145954	1.317015	0.114298
O7	O	0.133269	1.681218	0.114305
Zn8	Zn	0.139612	1.499116	0.150593
Zn9	Zn	0.139607	1.499119	-0.150571
O10	O	0.277632	1.504583	0.114288
C11	C	0.145019	1.270125	0.000007
C12	C	0.142228	1.130402	0.000005
C13	C	0.138302	0.933470	-0.124594
C14	C	0.140916	1.064755	-0.124596
C15	C	0.140915	1.064756	0.124615
C16	C	0.138294	0.933474	0.124615
C17	C	0.137000	0.867829	-0.249203
C18	C	0.138311	0.933466	-0.373813
C19	C	0.140925	1.064751	-0.373815
C20	C	0.142229	1.130400	-0.249206
C21	C	-0.033757	1.488865	0.000025
C22	C	-0.139077	1.474590	0.000027
C23	C	-0.331910	1.448491	0.000006
C24	C	-0.388876	1.549739	0.000004
C25	C	-0.496175	1.535217	-0.000007
C26	C	-0.224601	1.463011	0.000018
C27	C	0.312977	1.509370	-0.000006
C28	C	0.418297	1.523646	-0.000016
C29	C	0.134200	1.728110	0.000013
C30	C	0.136992	1.867834	0.000006
N31	N	0.139615	1.499124	0.356130
N32	N	0.139597	1.499120	-0.356107
C33	C	0.075713	1.577362	0.428063
C34	C	0.075701	1.577357	0.571946
C35	C	0.203503	1.420874	0.571949
C36	C	0.203509	1.420873	0.428069
C37	C	0.011819	1.655613	0.356124
C38	C	-0.052088	1.733858	0.428058
C39	C	-0.052099	1.733854	0.571941
C40	C	0.011796	1.655604	0.643890
H41	H	0.137243	0.880006	-0.475265
H42	H	0.011825	1.655626	0.238967
H43	H	0.134874	0.760930	-0.249216
Cl44	Cl	-0.339760	1.700407	0.000022
H45	H	0.255524	1.357167	0.630540
Cl46	Cl	-0.132417	1.832212	0.337612
Cl47	Cl	-0.381027	1.297832	-0.000003
Cl48	Cl	-0.132444	1.832206	0.662370
Cl49	Cl	0.145501	1.295447	-0.249213
Cl50	Cl	0.142561	1.147288	0.281254
Cl51	Cl	0.283843	1.322509	0.337636
H52	H	0.141984	1.118189	-0.475279
H53	H	0.137245	0.880031	0.226075
H54	H	0.011775	1.655598	0.761049
