data_functionalizedCrystal
_audit_creation_method	'MofGen! by Chris Wilmer'
_symmetry_space_group_name_H-M	'P1'
_symmetry_Int_Tables_number	1
_symmetry_cell_setting	triclinic
loop_
_symmetry_equiv_pos_as_xyz
  x,y,z
_cell_length_a	27.732048
_cell_length_b	17.699083
_cell_length_c	16.776229
_cell_angle_alpha	90.007545
_cell_angle_beta	89.998347
_cell_angle_gamma	97.037165
loop_
_atom_site_label
_atom_site_type_symbol
_atom_site_fract_x
_atom_site_fract_y
_atom_site_fract_z
O1	O	0.641253	-0.090059	-0.066187
O2	O	0.500508	-0.103753	-0.066212
O3	O	0.574857	0.013318	-0.066192
O4	O	0.566904	-0.207130	-0.066207
O5	O	0.574847	0.013325	0.066385
O6	O	0.500499	-0.103746	0.066365
O7	O	0.641243	-0.090052	0.066389
Zn8	Zn	0.570869	-0.096898	0.087426
Zn9	Zn	0.570882	-0.096907	-0.087249
O10	O	0.566894	-0.207123	0.066369
C11	C	0.482496	-0.103462	0.000074
C12	C	0.428838	-0.102596	0.000065
C13	C	0.574567	0.041516	0.000097
C14	C	0.573712	0.125527	0.000097
C15	C	0.567184	-0.235321	0.000079
C16	C	0.568039	-0.319332	0.000074
C17	C	0.090252	-0.166329	0.000095
C18	C	-0.111419	-0.163117	0.000102
O19	O	-0.142466	-0.221396	0.000132
N20	N	-0.130793	-0.093699	0.000105
C21	C	-0.099745	-0.025079	0.000112
O22	O	-0.120851	0.034039	0.000124
C23	C	0.101925	-0.028291	0.000111
C24	C	0.121296	-0.097714	0.000099
C25	C	0.109623	-0.235746	0.000084
C26	C	0.160037	-0.236548	0.000078
C27	C	0.191081	-0.167933	0.000082
C28	C	0.171710	-0.098516	0.000093
C29	C	0.132972	0.040329	0.000123
C30	C	0.183392	0.039519	0.000125
C31	C	0.202763	-0.029903	0.000113
C32	C	0.253169	-0.030703	0.000091
N33	N	0.272543	-0.100121	0.000088
C34	C	0.241499	-0.168736	0.000083
C35	C	-0.205625	-0.023397	0.000112
C36	C	-0.256042	-0.022594	0.000111
C37	C	-0.267713	-0.160633	0.000102
C38	C	-0.217295	-0.161435	0.000097
C39	C	-0.186252	-0.092815	0.000108
C40	C	0.347374	-0.170415	0.000070
C41	C	0.397794	-0.171211	0.000060
C42	C	0.409460	-0.033173	0.000073
C43	C	0.359045	-0.032376	0.000078
C44	C	0.328002	-0.101004	0.000079
O45	O	0.284244	0.027545	0.000070
O46	O	0.262614	-0.227845	0.000090
C47	C	0.039837	-0.165526	0.000101
C48	C	0.020466	-0.096109	0.000111
C49	C	0.051510	-0.027494	0.000116
C50	C	-0.029951	-0.095306	0.000110
C51	C	-0.060995	-0.163921	0.000106
C52	C	-0.041622	-0.233339	0.000103
C53	C	0.008793	-0.234141	0.000096
C54	C	0.032137	0.041924	0.000119
C55	C	-0.018279	0.042720	0.000125
C56	C	-0.049323	-0.025895	0.000120
C57	C	0.659256	-0.090343	0.000102
C58	C	0.712914	-0.091209	0.000106
N59	N	0.570864	-0.096891	0.206638
C60	C	0.617353	0.174532	0.000105
C61	C	0.616547	0.253469	0.000098
C62	C	0.572099	0.283398	0.000088
C63	C	0.528455	0.234386	0.000077
C64	C	0.529262	0.155451	0.000079
C65	C	0.525201	0.552720	0.000070
C66	C	0.524398	0.631661	0.000071
C67	C	0.612486	0.650738	0.000090
C68	C	0.613293	0.571803	0.000091
C69	C	0.569649	0.522798	0.000076
C70	C	0.570524	0.437207	0.000082
C71	C	0.571224	0.368987	0.000088
N72	N	0.570891	-0.096908	-0.206460
C73	C	0.603795	-0.045073	0.248364
C74	C	0.603798	-0.045072	0.331816
C75	C	0.570871	-0.096894	0.373541
C76	C	0.537936	-0.148714	0.331809
C77	C	0.537932	-0.148711	0.248358
C78	C	0.537954	-0.148729	0.668356
C79	C	0.537962	-0.148730	0.751813
C80	C	0.603820	-0.045091	0.751814
C81	C	0.603816	-0.045087	0.668363
C82	C	0.570879	-0.096905	0.626639
C83	C	0.570876	-0.096904	0.536150
C84	C	0.570876	-0.096899	0.464027
H85	H	0.413562	-0.227746	0.000050
Br86	Br	0.465970	0.486223	0.000044
Br87	Br	0.648506	0.025240	0.611739
Br88	Br	0.671719	0.717249	0.000110
H89	H	0.511124	-0.190906	0.365786
Br90	Br	0.648520	0.025236	0.808443
H91	H	-0.034045	0.099257	0.000128
Br92	Br	0.225520	0.132652	0.000144
Br93	Br	0.648488	0.025255	0.191746
H94	H	0.492265	0.258760	0.000064
Br95	Br	0.677678	0.133923	0.000131
Br96	Br	0.305253	-0.263553	0.000072
Br97	Br	0.332755	0.061840	0.000097
H98	H	0.488201	0.656025	0.000064
Br99	Br	0.035073	-0.328363	0.000079
Br100	Br	-0.191012	-0.255654	0.000082
H101	H	0.630613	-0.002878	0.365789
Br102	Br	0.451601	0.059943	0.000081
Br103	Br	0.493273	-0.219065	0.808439
H104	H	0.511136	-0.190922	0.634391
Br105	Br	-0.163501	0.069739	0.000127
Br106	Br	0.106697	0.134551	0.000121
Br107	Br	0.675777	0.319974	0.000110
H108	H	-0.066907	-0.289208	0.000096
H109	H	0.493725	0.115551	0.000071
Br110	Br	0.673617	0.531189	0.000104
H111	H	0.511115	-0.190905	0.214386
H112	H	0.175804	-0.293079	0.000068
H113	H	-0.292998	-0.216502	0.000098
H114	H	0.084351	-0.291623	0.000083
Br115	Br	-0.282324	0.071626	0.000102
H116	H	0.057408	0.097800	0.000125
