data_functionalizedCrystal
_audit_creation_method	'MofGen! by Chris Wilmer'
_symmetry_space_group_name_H-M	'P1'
_symmetry_Int_Tables_number	1
_symmetry_cell_setting	triclinic
loop_
_symmetry_equiv_pos_as_xyz
  x,y,z
_cell_length_a	12.645330
_cell_length_b	13.033304
_cell_length_c	13.033109
_cell_angle_alpha	105.201444
_cell_angle_beta	97.156412
_cell_angle_gamma	82.813425
loop_
_atom_site_label
_atom_site_type_symbol
_atom_site_fract_x
_atom_site_fract_y
_atom_site_fract_z
Zn1	Zn	-0.307207	-1.700292	-0.807243
Zn2	Zn	-0.464534	-1.677623	-0.629622
Zn3	Zn	-0.307221	-1.500095	-0.607040
Zn4	Zn	-0.504374	-1.522622	-0.784594
O5	O	-0.395834	-1.600158	-0.707125
O6	O	-0.311397	-1.845936	-0.802611
O7	O	-0.426999	-1.635159	-0.477985
O8	O	-0.158868	-1.526712	-0.633625
O9	O	-0.426985	-1.829281	-0.672114
O10	O	-0.158857	-1.673795	-0.780713
O11	O	-0.311422	-1.504730	-0.461394
O12	O	-0.350053	-1.354432	-0.611663
O13	O	-0.494887	-1.565105	-0.936240
O14	O	-0.494901	-1.370982	-0.742111
O15	O	-0.350028	-1.695638	-0.952880
O16	O	-0.618171	-1.657002	-0.650152
O17	O	-0.647441	-1.543123	-0.764009
C18	C	-0.426803	-1.324163	-0.671979
C19	C	-0.440079	-1.206095	-0.656969
C20	C	-0.388919	-1.161710	-0.714944
C21	C	-0.402640	-1.039680	-0.699432
C22	C	-0.671271	-1.600078	-0.707100
C23	C	-0.789097	-1.600146	-0.707137
C24	C	-0.975109	-1.528876	-0.779061
C25	C	-0.852567	-1.528424	-0.778743
C26	C	-0.824506	-1.555626	-0.591342
C27	C	-0.947216	-1.555191	-0.591778
C28	C	-0.946779	-1.716321	-0.750165
C29	C	-0.824524	-1.715943	-0.752525
C30	C	-0.119321	-1.600269	-0.707176
C31	C	-0.001488	-1.600317	-0.707198
C32	C	-0.426900	-1.635413	-0.984179
C33	C	-0.440138	-1.650436	-1.102243
C34	C	-0.364739	-0.877229	-0.742401
C35	C	-0.351473	-0.995298	-0.757415
C36	C	-0.388855	-1.592601	-1.146670
C37	C	-0.402536	-1.608127	-1.268695
C38	C	-0.364806	-1.565101	-0.431156
C39	C	-0.351246	-1.550284	-0.313119
H40	H	-0.297505	-1.047635	-0.818533
C41	C	-0.475541	-0.968984	-0.616856
C42	C	-0.428654	-0.882080	-0.523909
C43	C	-0.501553	-0.811384	-0.441335
C44	C	-0.621340	-0.827590	-0.451709
C45	C	-0.668233	-0.914497	-0.544660
C46	C	-0.595334	-0.985194	-0.627233
H47	H	-0.339975	-0.870080	-0.516227
H48	H	-0.466838	-0.747049	-0.372527
H49	H	-0.675304	-0.775256	-0.390583
H50	H	-0.756912	-0.926498	-0.552342
H51	H	-0.630049	-1.049529	-0.696042
C52	C	-0.316019	-1.232404	-0.797515
C53	C	-0.196233	-1.216190	-0.787137
C54	C	-0.123329	-1.286880	-0.869710
C55	C	-0.170210	-1.373783	-0.962661
C56	C	-0.290002	-1.390001	-0.973043
C57	C	-0.362906	-1.319312	-0.890470
H58	H	-0.161524	-1.151856	-0.718325
H59	H	-0.034651	-1.274874	-0.862024
H60	H	-0.116242	-1.426112	-1.023786
H61	H	-0.324711	-1.454336	-1.041854
H62	H	-0.451584	-1.331318	-0.898156
H63	H	-0.494174	-1.711445	-1.154545
H64	H	-0.800241	-1.471204	-0.556273
C65	C	-0.512977	-1.135396	-0.574398
C66	C	-0.632763	-1.151602	-0.584771
C67	C	-0.705662	-1.080905	-0.502197
C68	C	-0.658775	-0.994002	-0.409250
C69	C	-0.538982	-0.977792	-0.398873
C70	C	-0.466083	-1.048488	-0.481447
H71	H	-0.667478	-1.215937	-0.653579
H72	H	-0.794341	-1.092906	-0.509880
H73	H	-0.712739	-0.941668	-0.348124
H74	H	-0.504268	-0.913457	-0.330065
H75	H	-0.377404	-1.036488	-0.473764
C76	C	-0.994757	-1.440062	-0.544857
C77	C	-0.957474	-1.380752	-0.429930
C78	C	-1.005009	-1.265620	-0.383012
C79	C	-1.089825	-1.209797	-0.451020
C80	C	-1.127112	-1.269106	-0.565954
C81	C	-1.079578	-1.384239	-0.612872
H82	H	-0.894684	-1.422076	-0.379580
H83	H	-0.977406	-1.221715	-0.297930
H84	H	-1.125013	-1.124569	-0.416288
H85	H	-1.189902	-1.227783	-0.616304
H86	H	-1.107180	-1.428143	-0.697954
C87	C	-0.996434	-1.767434	-0.863318
C88	C	-0.925835	-1.803053	-0.956920
C89	C	-0.975493	-1.854151	-1.070076
C90	C	-1.095750	-1.869631	-1.089629
C91	C	-1.166356	-1.834012	-0.996024
C92	C	-1.116698	-1.782914	-0.882869
H93	H	-0.836807	-1.791594	-0.942448
H94	H	-0.923225	-1.880519	-1.139368
H95	H	-1.132509	-1.907457	-1.173393
H96	H	-1.255383	-1.845471	-1.010496
H97	H	-1.168966	-1.756546	-0.813576
C98	C	-1.024643	-1.568524	-0.894794
C99	C	-0.952104	-1.604844	-0.986809
C100	C	-1.001645	-1.644491	-1.102547
C101	C	-1.123724	-1.647820	-1.126270
C102	C	-1.196270	-1.611500	-1.034253
C103	C	-1.146730	-1.571852	-0.918515
H104	H	-0.861728	-1.602381	-0.969250
H105	H	-0.947941	-1.671378	-1.170665
H106	H	-1.160397	-1.677170	-1.211947
H107	H	-1.286647	-1.613963	-1.051812
H108	H	-1.200434	-1.544965	-0.850397
C109	C	-0.967583	-1.788467	-0.679701
C110	C	-1.027296	-1.888555	-0.729131
C111	C	-1.048109	-1.960689	-0.658662
C112	C	-1.009208	-1.932734	-0.538762
C113	C	-0.949492	-1.832641	-0.489325
C114	C	-0.928679	-1.760507	-0.559795
H115	H	-1.056096	-1.909253	-0.817894
H116	H	-1.092315	-2.034784	-0.695259
H117	H	-1.024615	-1.986132	-0.486597
H118	H	-0.920692	-1.811943	-0.400563
H119	H	-0.884472	-1.686412	-0.523197
C120	C	-0.821584	-1.568257	-0.894142
C121	C	-0.742332	-1.668520	-0.925111
C122	C	-0.711370	-1.708342	-1.040521
C123	C	-0.759660	-1.647901	-1.124960
C124	C	-0.838916	-1.547632	-1.093993
C125	C	-0.869879	-1.507810	-0.978583
H126	H	-0.706581	-1.713267	-0.862602
H127	H	-0.652699	-1.782568	-1.063445
H128	H	-0.736740	-1.677380	-1.210393
H129	H	-0.874668	-1.502885	-1.156502
H130	H	-0.928550	-1.433584	-0.955660
H131	H	-0.334826	-1.531587	-1.094367
C132	C	-0.278239	-1.467856	-1.242480
C133	C	-0.181348	-1.504281	-1.172072
C134	C	-0.108341	-1.421856	-1.101436
C135	C	-0.132226	-1.303007	-1.101207
C136	C	-0.229121	-1.266576	-1.171617
C137	C	-0.302128	-1.349001	-1.242254
H138	H	-0.163663	-1.592266	-1.172240
H139	H	-0.036613	-1.448825	-1.049313
H140	H	-0.078182	-1.241991	-1.048917
H141	H	-0.246806	-1.178591	-1.171450
H142	H	-0.373857	-1.322032	-1.294377
H143	H	-0.963337	-1.604197	-0.535641
C144	C	-0.822816	-1.412633	-0.738757
C145	C	-0.847121	-1.346466	-0.626240
C146	C	-0.817372	-1.230669	-0.586250
C147	C	-0.763319	-1.181038	-0.658776
C148	C	-0.739010	-1.247204	-0.771300
C149	C	-0.768759	-1.363002	-0.811291
H150	H	-0.887138	-1.383206	-0.572546
H151	H	-0.835367	-1.181688	-0.502952
H152	H	-0.741297	-1.095317	-0.629173
H153	H	-0.698994	-1.210465	-0.824995
H154	H	-0.750764	-1.411983	-0.894589
H155	H	-0.781779	-1.605382	-0.535709
H156	H	-1.013197	-1.443714	-0.749776
H157	H	-0.456575	-1.669140	-1.320994
H158	H	-0.802072	-1.749258	-0.837815
H159	H	-0.780413	-1.773112	-0.705132
