data_functionalizedCrystal
_audit_creation_method	'MofGen! by Chris Wilmer'
_symmetry_space_group_name_H-M	'P1'
_symmetry_Int_Tables_number	1
_symmetry_cell_setting	triclinic
loop_
_symmetry_equiv_pos_as_xyz
  x,y,z
_cell_length_a	6.817900
_cell_length_b	17.982959
_cell_length_c	23.830865
_cell_angle_alpha	98.418773
_cell_angle_beta	88.706969
_cell_angle_gamma	77.548143
loop_
_atom_site_label
_atom_site_type_symbol
_atom_site_fract_x
_atom_site_fract_y
_atom_site_fract_z
V1	V	-3.888189	0.105619	0.175262
O2	O	-3.883772	-0.004863	0.171684
O3	O	-3.835430	0.209221	0.174295
O4	O	-3.781735	0.104087	0.251593
O5	O	-3.937838	0.100998	0.093851
V6	V	-4.379904	0.092393	0.165496
O7	O	-4.131477	0.134631	0.196683
O8	O	-4.586813	0.063381	0.144074
O9	O	-4.209457	-0.011209	0.166463
O10	O	-4.501718	0.202875	0.169074
O11	O	-4.447652	0.097014	0.246907
O12	O	-4.263151	0.093925	0.089164
C13	C	-3.681248	0.234474	0.171590
C14	C	-3.719011	0.319170	0.171308
C15	C	-3.612755	0.100365	0.270191
C16	C	-3.606973	0.099798	0.332594
C17	C	-4.026981	-0.036458	0.169166
C18	C	-3.968454	-0.121153	0.169451
C19	C	-4.095460	0.097648	0.070564
C20	C	-4.080203	0.098225	0.006987
V21	V	-3.795765	0.103484	-0.087942
O22	O	-3.728014	0.098862	-0.169353
O23	O	-3.912522	0.101954	-0.011611
O24	O	-3.966206	0.207087	-0.088910
O25	O	-3.673959	-0.006998	-0.091519
V26	V	-3.287464	0.090254	-0.097707
O27	O	-3.588854	0.132495	-0.066520
O28	O	-3.044175	0.061239	-0.119128
O29	O	-3.393914	0.091786	-0.174039
O30	O	-3.237818	0.094875	-0.016296
O31	O	-3.291873	0.200735	-0.094129
O32	O	-3.340231	-0.013347	-0.096740
C33	C	-4.148681	0.232338	-0.091614
C34	C	-4.207203	0.317033	-0.091899
C35	C	-3.916533	0.362844	0.173985
C36	C	-3.952004	0.442426	0.173724
C37	C	-3.789950	0.478331	0.170782
C38	C	-3.592411	0.434651	0.168107
C39	C	-3.556944	0.355072	0.168372
C40	C	-3.735445	0.755585	0.167038
C41	C	-3.770929	0.835170	0.166771
C42	C	-4.130505	0.842939	0.172389
C43	C	-4.095037	0.763360	0.172654
C44	C	-3.897503	0.719688	0.169982
C45	C	-3.859044	0.633397	0.170267
C46	C	-3.828406	0.564620	0.170493
C47	C	-3.562894	0.095510	-0.192637
C48	C	-3.568673	0.096076	-0.255040
C49	C	-3.783998	0.103341	0.364780
C50	C	-3.778553	0.102808	0.423414
C51	C	-3.596082	0.098737	0.449862
C52	C	-3.419042	0.095192	0.417672
C53	C	-3.424487	0.095719	0.359039
C54	C	-3.397078	0.093063	0.654135
C55	C	-3.391648	0.092538	0.712774
C56	C	-3.751144	0.100152	0.718511
C57	C	-3.756589	0.100680	0.659877
C58	C	-3.579548	0.097130	0.627692
C59	C	-3.585454	0.097706	0.564114
C60	C	-3.590176	0.098166	0.513440
C61	C	-3.494412	-0.038598	-0.094035
C62	C	-3.456648	-0.123294	-0.093751
C63	C	-4.059747	0.360692	-0.089225
C64	C	-4.114704	0.440272	-0.089501
C65	C	-4.317120	0.476191	-0.092447
C66	C	-4.464586	0.432526	-0.095122
C67	C	-4.409626	0.352947	-0.094850
C68	C	-3.618712	-0.159191	-0.090813
C69	C	-3.583257	-0.238772	-0.090555
C70	C	-3.385736	-0.282456	-0.093230
C71	C	-3.223661	-0.246554	-0.096170
C72	C	-3.259118	-0.166974	-0.096432
H73	H	-4.048501	0.333615	0.176375
H74	H	-4.112842	0.477982	0.175904
N75	N	-3.596127	0.873895	0.163600
H76	H	-3.603219	0.914184	0.198339
H77	H	-3.602551	0.899248	0.128364
N78	N	-4.376403	0.562024	-0.092733
H79	H	-4.444717	0.572233	-0.128878
H80	H	-4.252186	0.584176	-0.090568
H81	H	-4.529716	0.317406	-0.097025
H82	H	-4.227002	0.734130	0.175047
H83	H	-3.243049	0.089221	0.734306
H84	H	-3.252932	0.090200	0.627940
H85	H	-3.994606	0.475814	-0.087317
N86	N	-4.343565	0.890048	0.175283
H87	H	-4.440838	0.855225	0.177185
H88	H	-4.365741	0.915798	0.140319
H89	H	-3.932589	0.106661	0.343251
N90	N	-3.522403	0.708489	0.164161
H91	H	-3.425132	0.743312	0.162256
H92	H	-3.499457	0.667856	0.129173
H93	H	-3.460467	0.463892	0.165715
H94	H	-3.396103	0.319513	0.166195
N95	N	-3.233552	0.091902	0.324324
H96	H	-3.264686	0.092851	0.283166
H97	H	-3.133300	0.042690	0.327765
N98	N	-3.969480	0.106616	0.458127
H99	H	-4.085899	0.109275	0.432475
H100	H	-3.995877	0.154014	0.488141
N101	N	-3.953387	0.105063	0.631348
H102	H	-3.984477	0.152905	0.612703
H103	H	-4.064583	0.107192	0.660663
N104	N	-3.942102	0.103978	0.753224
H105	H	-3.910975	0.103023	0.794382
H106	H	-4.000743	0.058278	0.738671
H107	H	-3.894920	0.331458	-0.086824
N108	N	-4.683032	0.471347	-0.097948
H109	H	-4.695496	0.528409	-0.097595
H110	H	-4.762491	0.463046	-0.064018
N111	N	-3.222223	0.090799	0.446192
H112	H	-3.191138	0.042957	0.464837
H113	H	-3.232890	0.137901	0.475918
N114	N	-3.831761	-0.112085	-0.087926
H115	H	-3.929027	-0.146911	-0.086028
H116	H	-3.853925	-0.086337	-0.122891
N117	N	-3.758077	-0.277483	-0.087375
H118	H	-3.888576	-0.237728	-0.085711
H119	H	-3.751556	-0.302890	-0.052164
H120	H	-3.356893	-0.347254	-0.093017
N121	N	-3.010625	-0.293670	-0.099050
H122	H	-2.987512	-0.334305	-0.134040
H123	H	-2.988452	-0.319365	-0.064061
H124	H	-3.127137	-0.137753	-0.098821
