data_functionalizedCrystal
_audit_creation_method	'MofGen! by Chris Wilmer'
_symmetry_space_group_name_H-M	'P1'
_symmetry_Int_Tables_number	1
_symmetry_cell_setting	triclinic
loop_
_symmetry_equiv_pos_as_xyz
  x,y,z
_cell_length_a	10.723024
_cell_length_b	19.288865
_cell_length_c	9.798715
_cell_angle_alpha	89.991393
_cell_angle_beta	90.003154
_cell_angle_gamma	96.197942
loop_
_atom_site_label
_atom_site_type_symbol
_atom_site_fract_x
_atom_site_fract_y
_atom_site_fract_z
O1	O	1.655141	-0.097416	0.113500
O2	O	1.291793	-0.106740	0.113506
O3	O	1.483966	-0.001016	0.113476
O4	O	1.462968	-0.203140	0.113530
O5	O	1.483953	-0.001015	-0.113507
O6	O	1.291780	-0.106739	-0.113476
O7	O	1.655128	-0.097415	-0.113482
Zn8	Zn	1.473452	-0.102077	-0.149518
Zn9	Zn	1.473469	-0.102078	0.149541
O10	O	1.462955	-0.203139	-0.113452
C11	C	1.245301	-0.106061	0.000015
C12	C	1.106789	-0.104031	0.000017
C13	C	1.483284	0.024865	-0.000019
C14	C	1.481256	0.101982	-0.000031
N15	N	1.473449	-0.102076	-0.353617
C16	C	1.030564	-0.163189	0.000033
C17	C	0.887405	-0.161092	0.000035
C18	C	1.701620	-0.098094	0.000011
C19	C	1.840131	-0.100124	0.000019
C20	C	1.463637	-0.229020	0.000046
C21	C	1.465665	-0.306137	0.000067
C22	C	1.594014	0.145945	-0.000040
C23	C	1.592109	0.218404	-0.000018
C24	C	1.477438	0.246898	-0.000016
C25	C	1.364665	0.202925	0.000001
C26	C	1.366574	0.130468	-0.000007
C27	C	1.387289	0.355772	-0.079521
C28	C	1.385385	0.428229	-0.079521
C29	C	1.471547	0.470382	0.000015
C30	C	1.559633	0.440070	0.079534
C31	C	1.561542	0.367612	0.079526
C32	C	1.475356	0.325465	-0.000006
C33	C	1.582247	0.592914	0.000032
C34	C	1.580336	0.665374	0.000062
C35	C	1.352890	0.649894	0.000067
C36	C	1.354803	0.577435	0.000051
C37	C	1.469485	0.548949	0.000027
C38	C	1.554337	-0.057589	-0.578562
C39	C	1.554320	-0.057590	-0.421399
N40	N	1.473482	-0.102074	0.353641
H41	H	1.071290	-0.215388	0.000040
F42	F	1.382957	-0.151856	-0.429811
H43	H	1.623577	-0.019505	-0.636867
H44	H	1.623538	-0.019502	-0.363096
F45	F	1.295580	0.310916	-0.164183
H46	H	1.629793	0.474390	0.144301
F47	F	1.382989	-0.151860	-0.570153
H48	H	0.821909	-0.211735	0.000055
F49	F	0.925728	-0.033924	0.000010
F50	F	1.700356	0.712163	0.000061
F51	F	1.053565	-0.035800	-0.000011
F52	F	1.230848	0.680214	0.000077
F53	F	1.716069	0.115633	-0.000036
H54	H	1.675628	0.569720	0.000018
F55	F	1.246555	0.083677	0.000003
F56	F	1.712126	0.265201	-0.000026
H57	H	1.633262	0.342936	0.144276
H58	H	1.262983	0.541639	0.000050
H59	H	1.313655	0.452902	-0.144263
H60	H	1.271299	0.226130	0.000006
