data_functionalizedCrystal
_audit_creation_method	'MofGen! by Chris Wilmer'
_symmetry_space_group_name_H-M	'P1'
_symmetry_Int_Tables_number	1
_symmetry_cell_setting	triclinic
loop_
_symmetry_equiv_pos_as_xyz
  x,y,z
_cell_length_a	12.594516
_cell_length_b	16.120530
_cell_length_c	16.120256
_cell_angle_alpha	89.871735
_cell_angle_beta	92.879514
_cell_angle_gamma	92.888148
loop_
_atom_site_label
_atom_site_type_symbol
_atom_site_fract_x
_atom_site_fract_y
_atom_site_fract_z
Zn1	Zn	-0.539270	-1.247493	-0.534605
Zn2	Zn	-0.708708	-1.254460	-0.395559
Zn3	Zn	-0.521278	-1.115482	-0.388521
Zn4	Zn	-0.707733	-1.108417	-0.527528
O5	O	-0.619247	-1.181463	-0.461553
O6	O	-0.569684	-1.364784	-0.522067
O7	O	-0.676723	-1.241897	-0.278259
O8	O	-0.374723	-1.133034	-0.407916
O9	O	-0.694169	-1.369903	-0.419910
O10	O	-0.387941	-1.230022	-0.515243
O11	O	-0.539019	-1.139790	-0.273088
O12	O	-0.538074	-0.998177	-0.401054
O13	O	-0.692507	-1.120993	-0.644834
O14	O	-0.675061	-0.992987	-0.503182
O15	O	-0.568738	-1.223172	-0.650033
O16	O	-0.857520	-1.235047	-0.413048
O17	O	-0.856804	-1.127749	-0.510006
C18	C	-0.604510	-0.965409	-0.450587
C19	C	-0.598232	-0.872980	-0.445915
C20	C	-0.895784	-1.181409	-0.461542
C21	C	-1.014094	-1.181460	-0.461569
C22	C	-0.632521	-1.170517	-0.678449
C23	C	-0.638178	-1.165852	-0.770877
C24	C	-1.082994	-1.123098	-0.514265
C25	C	-1.147804	-1.106685	-0.437361
C26	C	-1.160089	-1.197948	-0.538490
C27	C	-1.077341	-1.165010	-0.384623
C28	C	-1.089625	-1.256305	-0.485805
C29	C	-1.154402	-1.239924	-0.408850
C30	C	-0.341633	-1.181539	-0.461584
C31	C	-0.223331	-1.181571	-0.461596
C32	C	-0.634042	-1.398360	-0.472563
C33	C	-0.640347	-1.490789	-0.477255
C34	C	-0.586747	-0.703749	-0.437393
C35	C	-0.651829	-0.660014	-0.485774
C36	C	-0.645439	-0.565848	-0.481033
C37	C	-0.593136	-0.797923	-0.442134
C38	C	-0.589721	-1.205786	-0.983858
C39	C	-0.648459	-1.157308	-0.940098
C40	C	-0.642737	-1.162064	-0.845935
C41	C	-0.595442	-1.201032	-1.078030
C42	C	-0.605951	-1.192414	-0.245503
C43	C	-0.600006	-1.197240	-0.153084
H44	H	-1.051642	-1.073662	-0.558756
H45	H	-0.535142	-1.250858	-0.950605
C46	C	-1.182613	-1.021243	-0.409678
N47	N	-1.208829	-0.956886	-0.388832
H48	H	-1.041317	-1.151036	-0.319561
C49	C	-0.504999	-0.658794	-0.376624
N50	N	-0.443430	-0.624924	-0.330851
C51	C	-0.733595	-0.704970	-0.546538
N52	N	-0.795183	-0.738835	-0.592299
C53	C	-0.722213	-1.096422	-0.985023
N54	N	-0.777767	-1.050568	-1.018864
H55	H	-1.185548	-1.289330	-0.364244
H56	H	-1.196235	-1.211848	-0.603531
C57	C	-1.054767	-1.341715	-0.513526
N58	N	-1.028503	-1.406042	-0.534416
