data_functionalizedCrystal
_audit_creation_method	'MofGen! by Chris Wilmer'
_symmetry_space_group_name_H-M	'P1'
_symmetry_Int_Tables_number	1
_symmetry_cell_setting	triclinic
loop_
_symmetry_equiv_pos_as_xyz
  x,y,z
_cell_length_a	12.811457
_cell_length_b	10.654549
_cell_length_c	11.295498
_cell_angle_alpha	94.136486
_cell_angle_beta	91.288831
_cell_angle_gamma	84.264152
loop_
_atom_site_label
_atom_site_type_symbol
_atom_site_fract_x
_atom_site_fract_y
_atom_site_fract_z
O1	O	1.390274	0.173489	0.051117
O2	O	1.087145	0.189101	0.018380
O3	O	1.245676	-0.001416	0.035506
O4	O	1.231743	0.364006	0.033991
O5	O	1.231750	0.015293	0.232052
O6	O	1.073219	0.205811	0.214926
O7	O	1.376348	0.190199	0.247664
Cu8	Cu	1.223512	0.199530	0.249241
Cu9	Cu	1.239981	0.179770	0.016802
O10	O	1.217817	0.380716	0.230538
C11	C	1.041367	0.196069	0.112461
C12	C	0.925712	0.191922	0.099970
C13	C	0.693201	0.202323	0.290798
C14	C	0.584533	0.198426	0.279068
C15	C	0.599706	0.180222	0.064781
C16	C	0.708374	0.184119	0.076511
C17	C	0.755118	0.195171	0.189523
C18	C	0.863787	0.199077	0.201252
C19	C	0.878959	0.180864	-0.013033
C20	C	0.770291	0.176967	-0.024764
C21	C	1.237689	-0.039863	0.133667
C22	C	1.234625	-0.179319	0.133332
C23	C	1.418440	-0.468579	0.153190
C24	C	1.514666	-0.416662	0.163585
C25	C	1.517548	-0.285633	0.163894
C26	C	1.424194	-0.206515	0.153812
C27	C	1.327968	-0.258432	0.143417
C28	C	1.325096	-0.389466	0.143105
C29	C	1.138399	-0.231235	0.122937
C30	C	1.135514	-0.362265	0.122619
C31	C	1.045045	-0.152117	0.112854
C32	C	0.948817	-0.204034	0.102451
C33	C	0.945938	-0.335072	0.102140
C34	C	1.039288	-0.414181	0.112224
C35	C	1.422125	0.183231	0.153580
C36	C	1.537781	0.187377	0.166063
C37	C	1.225804	0.419163	0.132374
C38	C	1.228868	0.558618	0.132701
N39	N	1.211936	0.213428	0.412727
C40	C	1.334877	0.065765	0.675298
C41	C	1.326137	0.076277	0.799017
C42	C	1.185710	0.244957	0.783887
C43	C	1.194450	0.234445	0.660168
C44	C	1.269038	0.144848	0.605878
C45	C	1.277782	0.134343	0.482156
C46	C	1.137351	0.303016	0.467028
C47	C	1.128611	0.313527	0.590748
N48	N	1.251556	0.165871	0.853316
H49	H	0.732217	0.167963	-0.116775
Cl50	Cl	0.922549	0.212975	0.343322
Cl51	Cl	1.035676	-0.578905	0.111848
H52	H	0.731259	0.211339	0.382816
H53	H	1.426549	-0.099825	0.154079
Cl54	Cl	1.428652	-0.046856	0.607047
H55	H	0.534123	0.204256	0.361536
Cl56	Cl	1.408908	-0.023148	0.886285
Cl57	Cl	0.540936	0.166208	-0.077278
H58	H	1.124976	0.317897	0.828106
Cl59	Cl	1.048668	0.012607	0.113247
H60	H	0.929383	0.175049	-0.095499
Cl61	Cl	1.034846	0.426156	0.659006
Cl62	Cl	1.054585	0.402445	0.379746
Cl63	Cl	1.414820	-0.633300	0.152837
Cl64	Cl	1.371550	0.021710	0.413908
Cl65	Cl	0.824960	-0.400325	0.089082
H66	H	0.872816	-0.139606	0.094250
H67	H	1.590672	-0.481094	0.171797
H68	H	1.595903	-0.243364	0.172365
