data_functionalizedCrystal
_audit_creation_method	'MofGen! by Chris Wilmer'
_symmetry_space_group_name_H-M	'P1'
_symmetry_Int_Tables_number	1
_symmetry_cell_setting	triclinic
loop_
_symmetry_equiv_pos_as_xyz
  x,y,z
_cell_length_a	9.065218
_cell_length_b	14.519709
_cell_length_c	8.140239
_cell_angle_alpha	90.004467
_cell_angle_beta	90.002802
_cell_angle_gamma	84.348015
loop_
_atom_site_label
_atom_site_type_symbol
_atom_site_fract_x
_atom_site_fract_y
_atom_site_fract_z
O1	O	1.957864	0.135225	0.136622
O2	O	2.291197	0.468559	0.469955
O3	O	2.624530	0.801892	0.803289
O4	O	1.528371	0.146317	0.136625
O5	O	1.861704	0.479650	0.469958
O6	O	2.195038	0.812984	0.803291
O7	O	1.754505	0.006616	0.136608
O8	O	2.087838	0.339949	0.469942
O9	O	2.421171	0.673283	0.803275
O10	O	1.731730	0.274926	0.136638
O11	O	2.065063	0.608260	0.469971
O12	O	2.398397	0.941593	0.803305
O13	O	1.754492	0.006614	-0.136619
O14	O	2.087826	0.339948	0.196715
O15	O	2.421159	0.673281	0.530048
O16	O	1.528359	0.146315	-0.136603
O17	O	1.861692	0.479649	0.196731
O18	O	2.195025	0.812982	0.530064
O19	O	1.957851	0.135224	-0.136605
O20	O	2.291185	0.468557	0.196728
O21	O	2.624518	0.801890	0.530061
Zn22	Zn	1.743103	0.140769	-0.179985
Zn23	Zn	2.076436	0.474102	0.153349
Zn24	Zn	2.409770	0.807436	0.486682
Zn25	Zn	1.743119	0.140771	0.180004
Zn26	Zn	2.076453	0.474105	0.513337
Zn27	Zn	2.409786	0.807438	0.846671
O28	O	1.731718	0.274924	-0.136589
O29	O	2.065051	0.608258	0.196744
O30	O	2.398384	0.941591	0.530078
C31	C	1.473398	0.145250	0.000011
C32	C	1.806732	0.478584	0.333345
C33	C	2.140065	0.811917	0.666678
C34	C	1.309615	0.142063	0.000012
C35	C	1.642948	0.475396	0.333345
C36	C	1.976282	0.808729	0.666678
C37	C	1.753437	-0.027752	-0.000005
C38	C	2.086770	0.305581	0.333328
C39	C	2.420104	0.638914	0.666661
C40	C	1.750257	-0.130157	-0.000006
C41	C	2.083590	0.203176	0.333327
C42	C	2.416923	0.536510	0.666660
C43	C	1.738547	-0.505138	0.000036
C44	C	2.071881	-0.171805	0.333370
C45	C	2.405214	0.161528	0.666703
C46	C	1.741799	-0.400807	0.000024
C47	C	2.075132	-0.067473	0.333357
C48	C	2.408466	0.265860	0.666691
C49	C	1.744402	-0.317651	0.000014
C50	C	2.077735	0.015682	0.333347
C51	C	2.411068	0.349016	0.666680
C52	C	1.747654	-0.213313	0.000004
C53	C	2.080987	0.120021	0.333338
C54	C	2.414321	0.453354	0.666671
C55	C	2.012824	0.136290	0.000012
C56	C	2.346157	0.469624	0.333345
C57	C	2.679491	0.802957	0.666678
C58	C	2.176607	0.139478	0.000022
C59	C	2.509941	0.472811	0.333355
C60	C	2.843274	0.806144	0.666689
C61	C	1.732785	0.309293	0.000028
C62	C	2.066119	0.642626	0.333362
C63	C	2.399452	0.975960	0.666695
C64	C	1.735966	0.411697	0.000040
C65	C	2.069299	0.745031	0.333373
C66	C	2.402632	1.078364	0.666707
N67	N	1.743103	0.140767	-0.425667
N68	N	2.076436	0.474100	-0.092334
N69	N	2.409769	0.807434	0.241000
N70	N	1.743132	0.140766	0.425687
N71	N	2.076465	0.474100	0.759020
N72	N	2.409798	0.807433	1.092353
