data_functionalizedCrystal
_audit_creation_method	'MofGen! by Chris Wilmer'
_symmetry_space_group_name_H-M	'P1'
_symmetry_Int_Tables_number	1
_symmetry_cell_setting	triclinic
loop_
_symmetry_equiv_pos_as_xyz
  x,y,z
_cell_length_a	8.597340
_cell_length_b	8.559649
_cell_length_c	16.176319
_cell_angle_alpha	89.994559
_cell_angle_beta	97.694727
_cell_angle_gamma	77.625043
loop_
_atom_site_label
_atom_site_type_symbol
_atom_site_fract_x
_atom_site_fract_y
_atom_site_fract_z
O1	O	2.053704	0.238032	0.077542
O2	O	1.594580	0.256296	0.044838
O3	O	1.864591	0.015193	0.064072
O4	O	1.783692	0.479134	0.058308
O5	O	1.864559	0.015177	0.201563
O6	O	1.594548	0.256280	0.182329
O7	O	2.053672	0.238015	0.215033
Cu8	Cu	1.824107	0.247146	0.211235
Cu9	Cu	1.824144	0.247165	0.048636
O10	O	1.783661	0.479118	0.195799
C11	C	1.536330	0.254327	0.109435
C12	C	1.362814	0.248465	0.097075
C13	C	1.870706	-0.044249	0.133253
C14	C	1.888955	-0.221344	0.134548
C15	C	2.111922	0.239984	0.150434
C16	C	2.285438	0.245846	0.162789
C17	C	1.777546	0.538560	0.126616
C18	C	1.759297	0.715655	0.125316
N19	N	1.824093	0.247132	0.325599
N20	N	1.824173	0.247167	-0.065727
C21	C	1.943681	0.140417	0.377382
C22	C	1.943689	0.140415	0.463930
C23	C	1.824115	0.247138	0.498693
C24	C	1.704515	0.353858	0.446903
C25	C	1.704502	0.353851	0.360357
C26	C	1.704565	0.353889	0.795935
C27	C	1.704590	0.353891	0.882489
C28	C	1.943752	0.140453	0.899508
C29	C	1.943739	0.140446	0.812962
C30	C	1.824135	0.247160	0.761179
C31	C	1.824126	0.247158	0.667334
C32	C	1.824129	0.247148	0.592537
H33	H	1.351940	0.248077	0.228508
H34	H	1.634331	-0.202799	0.116417
C35	C	1.273982	0.245810	0.009450
C36	C	1.146253	0.379520	-0.003976
C37	C	1.064399	0.377140	-0.084687
H38	H	1.233366	0.151010	0.003401
H39	H	1.345720	0.248325	-0.030146
H40	H	1.074527	0.376991	0.035609
H41	H	1.186825	0.474341	0.002056
H42	H	1.136137	0.379655	-0.124284
H43	H	1.023793	0.282334	-0.090730
H44	H	0.977735	0.467867	-0.093811
H45	H	2.013929	-0.302898	0.143457
H46	H	2.041057	0.053517	0.349085
C47	C	2.073731	0.024504	0.520017
C48	C	2.178483	-0.068916	0.471051
C49	C	2.298319	-0.175694	0.522690
H50	H	2.025626	-0.042961	0.550369
H51	H	2.132095	0.082918	0.557903
H52	H	2.120127	-0.127326	0.433180
H53	H	2.226628	-0.001494	0.440700
H54	H	2.356683	-0.117280	0.560576
H55	H	2.250199	-0.243148	0.553040
H56	H	2.369415	-0.239082	0.489476
C57	C	1.574630	0.469933	0.739865
C58	C	1.469949	0.563427	0.788839
C59	C	1.350242	0.670364	0.737213
H60	H	1.516166	0.411689	0.701949
H61	H	1.622908	0.537324	0.709548
H62	H	1.421675	0.496044	0.819142
H63	H	1.528366	0.621705	0.826753
H64	H	1.398520	0.737755	0.706896
H65	H	1.291790	0.612107	0.699300
H66	H	1.279211	0.733822	0.770435
C67	C	2.073231	0.024467	0.775047
C68	C	2.047536	0.047201	0.688163
C69	C	2.166693	-0.059729	0.653202
H70	H	2.068867	-0.082204	0.788911
H71	H	2.175862	0.043205	0.796396
H72	H	1.944932	0.028451	0.666822
H73	H	2.051915	0.153851	0.674276
H74	H	2.269324	-0.040990	0.674552
H75	H	2.162320	-0.166393	0.667072
H76	H	2.149285	-0.044308	0.594250
C77	C	2.073549	0.024314	0.955624
C78	C	2.067069	-0.132819	0.934102
C79	C	2.186621	-0.239842	0.985768
H80	H	2.056569	0.039372	1.012168
H81	H	2.176035	0.043232	0.948712
H82	H	1.964607	-0.151730	0.941021
H83	H	2.084067	-0.147927	0.877566
H84	H	2.289107	-0.220924	0.978856
H85	H	2.169631	-0.224770	1.042309
H86	H	2.182250	-0.346468	0.971167
H87	H	1.607212	0.440801	0.910790
C88	C	1.574872	0.469664	0.484806
C89	C	1.600504	0.446865	0.571685
C90	C	1.481123	0.553537	0.606628
H91	H	1.472343	0.450752	0.463435
H92	H	1.579056	0.576413	0.470957
H93	H	1.596305	0.340140	0.585528
H94	H	1.703010	0.465789	0.593080
H95	H	1.485306	0.660286	0.592779
H96	H	1.378602	0.534616	0.585251
H97	H	1.498506	0.538092	0.665579
H98	H	1.607119	0.440747	0.318195
