data_functionalizedCrystal
_audit_creation_method	'MofGen! by Chris Wilmer'
_symmetry_space_group_name_H-M	'P1'
_symmetry_Int_Tables_number	1
_symmetry_cell_setting	triclinic
loop_
_symmetry_equiv_pos_as_xyz
  x,y,z
_cell_length_a	14.853567
_cell_length_b	17.038272
_cell_length_c	13.930277
_cell_angle_alpha	89.995405
_cell_angle_beta	89.995755
_cell_angle_gamma	87.373243
loop_
_atom_site_label
_atom_site_type_symbol
_atom_site_fract_x
_atom_site_fract_y
_atom_site_fract_z
O1	O	1.204051	0.102086	-0.079765
O2	O	0.942506	0.114247	-0.079782
O3	O	1.071724	-0.005651	-0.079766
O4	O	1.074833	0.221984	-0.079781
O5	O	1.071705	-0.005654	0.079896
O6	O	0.942487	0.114244	0.079880
O7	O	1.204031	0.102083	0.079897
Zn8	Zn	1.073256	0.108163	0.105238
Zn9	Zn	1.073282	0.108167	-0.105123
O10	O	1.074814	0.221981	0.079881
C11	C	0.908866	0.113695	0.000047
C12	C	0.808658	0.112043	0.000041
C13	C	0.390240	0.033841	0.000067
C14	C	0.379678	0.176283	0.000057
C15	C	0.473828	0.177835	0.000054
C16	C	0.526189	0.107390	0.000056
C17	C	0.484399	0.035392	0.000061
C18	C	0.515626	0.249832	0.000039
C19	C	0.609782	0.251388	0.000035
C20	C	0.662144	0.180941	0.000044
C21	C	0.620349	0.108940	0.000050
C22	C	0.672709	0.038495	0.000052
C23	C	0.630915	-0.033507	0.000065
C24	C	0.536762	-0.035055	0.000070
C25	C	0.756298	0.182489	0.000039
C26	C	0.766869	0.040045	0.000046
C27	C	1.068887	-0.034784	0.000065
C28	C	1.060451	-0.121588	0.000064
C29	C	1.137904	-0.171601	0.000070
C30	C	1.129972	-0.253162	0.000060
C31	C	1.044586	-0.284709	0.000051
C32	C	0.967127	-0.234690	0.000043
C33	C	0.975060	-0.153130	0.000045
C34	C	1.016561	-0.530503	0.000036
C35	C	1.008634	-0.612069	0.000037
C36	C	1.171480	-0.630535	0.000052
C37	C	1.179405	-0.548974	0.000061
C38	C	1.101946	-0.498962	0.000047
C39	C	1.036476	-0.368077	0.000045
C40	C	1.110056	-0.415595	0.000047
C41	C	1.237671	0.102636	0.000066
C42	C	1.337879	0.104287	0.000065
C43	C	1.077651	0.251114	0.000048
C44	C	1.086087	0.337918	0.000042
N45	N	1.073245	0.108161	0.248804
N46	N	1.073299	0.108163	-0.248689
C47	C	1.016060	0.161237	0.701066
C48	C	1.130528	0.055091	0.701050
C49	C	1.130517	0.055088	0.600554
C50	C	1.073278	0.108162	0.550310
C51	C	1.016049	0.161237	0.600561
C52	C	1.187750	0.002019	0.550295
C53	C	1.187742	0.002015	0.449793
C54	C	1.130498	0.055085	0.399547
C55	C	1.073267	0.108162	0.449805
C56	C	1.016028	0.161236	0.399561
C57	C	0.958791	0.214310	0.449817
C58	C	0.958805	0.214308	0.550315
C59	C	1.130484	0.055087	0.299048
C60	C	1.016017	0.161236	0.299056
H61	H	0.790322	0.241112	0.000030
H62	H	0.472987	0.307185	0.000027
H63	H	0.969402	0.204453	0.258153
H64	H	0.673560	-0.090863	0.000061
H65	H	0.337041	0.233636	0.000047
C66	C	0.932357	-0.476342	0.000085
C67	C	0.855885	-0.521430	0.000110
C68	C	0.778297	-0.471560	0.000172
H69	H	0.931938	-0.444119	-0.055575
H70	H	0.932011	-0.444159	0.055787
H71	H	0.856231	-0.553600	-0.055586
H72	H	0.856274	-0.553652	0.055766
H73	H	0.777951	-0.439377	0.055874
H74	H	0.777888	-0.439339	-0.055490
H75	H	0.726402	-0.502144	0.000197
H76	H	1.193043	-0.293879	0.000067
C77	C	1.230691	-0.137505	0.000027
C78	C	1.296822	-0.198765	0.000001
C79	C	1.382310	-0.167389	-0.000056
H80	H	1.237296	-0.106088	0.055689
H81	H	1.237222	-0.106092	-0.055673
H82	H	1.290295	-0.230165	0.055696
H83	H	1.290247	-0.230187	-0.055657
H84	H	1.388841	-0.135976	-0.055756
H85	H	1.388906	-0.135973	0.055607
H86	H	1.427190	-0.208949	-0.000083
C87	C	0.874478	-0.269047	-0.000117
C88	C	0.865187	-0.315343	-0.082246
C89	C	0.779854	-0.347012	-0.082416
H90	H	0.829400	-0.227660	-0.000171
H91	H	0.867980	-0.300526	0.055533
H92	H	0.871675	-0.283865	-0.137881
H93	H	0.910244	-0.356742	-0.082210
H94	H	0.773357	-0.378491	-0.026767
H95	H	0.734783	-0.305620	-0.082467
H96	H	0.773542	-0.378433	-0.138135
C97	C	0.896773	0.271898	0.605053
C98	C	0.909057	0.260553	0.703819
C99	C	0.851941	0.313599	0.754276
H100	H	0.835909	0.263365	0.588718
H101	H	0.910573	0.324115	0.588628
H102	H	0.895250	0.208348	0.720237
H103	H	0.969908	0.269092	0.720182
H104	H	0.865742	0.365817	0.737851
H105	H	0.791081	0.305062	0.737934
H106	H	0.860274	0.305914	0.821293
H107	H	1.248935	-0.523295	0.000068
H108	H	1.234346	-0.041201	0.408881
C109	C	1.202839	-0.381499	0.000006
C110	C	1.268981	-0.442751	-0.000011
C111	C	1.354462	-0.411364	-0.000059
H112	H	1.209433	-0.350079	0.055668
H113	H	1.209371	-0.350086	-0.055695
H114	H	1.262452	-0.474151	0.055684
H115	H	1.262416	-0.474175	-0.055669
H116	H	1.360993	-0.379950	-0.055759
H117	H	1.361047	-0.379944	0.055604
H118	H	1.399349	-0.452918	-0.000079
C119	C	0.654985	0.329637	0.000079
C120	C	0.588976	0.390996	0.000101
C121	C	0.630585	0.463090	0.000159
H122	H	0.691495	0.333318	-0.055583
H123	H	0.691467	0.333242	0.055780
H124	H	0.552509	0.387392	-0.055594
H125	H	0.552462	0.387341	0.055759
H126	H	0.667067	0.466695	0.055860
H127	H	0.667094	0.466762	-0.055503
H128	H	0.585805	0.504730	0.000183
H129	H	1.234542	-0.671263	0.000062
H130	H	0.939099	-0.637751	0.000045
H131	H	0.969456	0.204447	0.741987
H132	H	0.966954	-0.393771	0.000040
C133	C	0.491502	-0.113277	-0.000077
C134	C	0.517613	-0.155872	-0.082207
C135	C	0.475944	-0.227937	-0.082374
H136	H	0.427924	-0.104219	-0.000129
H137	H	0.509118	-0.142334	0.055572
H138	H	0.499992	-0.126822	-0.137842
H139	H	0.581185	-0.164951	-0.082172
H140	H	0.493559	-0.256994	-0.026725
H141	H	0.412367	-0.218871	-0.082423
H142	H	0.493661	-0.256849	-0.138093
H143	H	0.912191	0.257526	0.408896
H144	H	1.177135	0.011884	0.741962
H145	H	1.177090	0.011879	0.258134
H146	H	0.911989	-0.112410	0.000040
C147	C	1.249796	-0.055564	0.605018
C148	C	1.237533	-0.044220	0.703787
C149	C	1.294667	-0.097260	0.754232
H150	H	1.310655	-0.047026	0.588656
H151	H	1.235998	-0.107783	0.588610
H152	H	1.251337	0.007987	0.720188
H153	H	1.176686	-0.052764	0.720177
H154	H	1.280869	-0.149479	0.737824
H155	H	1.355522	-0.088717	0.737862
H156	H	1.286348	-0.089575	0.821251
H157	H	0.356207	-0.024781	0.000082
H158	H	0.809495	-0.017321	0.000052
