data_functionalizedCrystal
_audit_creation_method	'MofGen! by Chris Wilmer'
_symmetry_space_group_name_H-M	'P1'
_symmetry_Int_Tables_number	1
_symmetry_cell_setting	triclinic
loop_
_symmetry_equiv_pos_as_xyz
  x,y,z
_cell_length_a	7.681481
_cell_length_b	16.109301
_cell_length_c	16.109301
_cell_angle_alpha	83.461481
_cell_angle_beta	84.258119
_cell_angle_gamma	95.724535
loop_
_atom_site_label
_atom_site_type_symbol
_atom_site_fract_x
_atom_site_fract_y
_atom_site_fract_z
O1	O	0.146325	-1.095274	-0.114735
O2	O	0.146354	-0.853211	-0.128036
O3	O	0.146321	-0.980893	-0.000353
O4	O	0.146358	-0.967592	-0.242417
O5	O	-0.146541	-0.996609	0.015398
O6	O	-0.146508	-0.868926	-0.112285
O7	O	-0.146537	-1.110990	-0.098984
Zn8	Zn	-0.193021	-0.992453	-0.103133
Zn9	Zn	0.192838	-0.971747	-0.123886
O10	O	-0.146504	-0.983307	-0.226666
C11	C	-0.000074	-0.830093	-0.119622
C12	C	-0.000063	-0.737798	-0.118007
N13	N	-0.456358	-1.006591	-0.088970
C14	C	-0.000111	-0.988212	0.038497
C15	C	-0.000113	-0.986597	0.130792
N16	N	0.456175	-0.957617	-0.138043
C17	C	-0.000105	-1.134107	-0.107398
C18	C	-0.000104	-1.226402	-0.109013
C19	C	-0.000073	-0.515526	-0.190014
C20	C	-0.000084	-0.428806	-0.188490
C21	C	-0.000100	-0.448681	-0.037000
C22	C	-0.000101	-0.535400	-0.038525
C23	C	-0.000079	-0.568819	-0.115035
C24	C	-0.000089	-0.395381	-0.111986
C25	C	-0.000101	-0.301355	-0.110332
C26	C	-0.000069	-0.662851	-0.116689
C27	C	-0.000068	-0.975988	-0.265517
C28	C	-0.000054	-0.977602	-0.357813
C29	C	-0.000094	-1.058604	0.353064
C30	C	-0.000079	-1.057079	0.439783
C31	C	-0.000068	-0.905590	0.419908
C32	C	-0.000070	-0.907115	0.333190
C33	C	-0.000092	-0.983625	0.299771
C34	C	-0.000075	-0.980575	0.473209
C35	C	-0.000060	-0.978921	0.567234
C36	C	-0.000105	-0.985279	0.205739
H37	H	-0.468615	-0.907624	-0.188133
H38	H	-0.000111	-0.578794	0.022536
H39	H	-0.000108	-1.120903	0.325857
C40	C	-0.000097	-1.139563	0.498404
N41	N	-0.000114	-1.201694	0.542557
H42	H	-0.000064	-0.846054	0.289796
C43	C	-0.557971	-1.074137	-0.021300
N44	N	-0.634507	-1.125011	0.029670
C45	C	-0.000070	-0.552285	-0.274176
N46	N	-0.000077	-0.579969	-0.337569
H47	H	-0.000129	-0.421461	0.025292
C48	C	-0.000086	-0.370187	-0.270973
N49	N	-0.000092	-0.326035	-0.333103
H50	H	-0.000054	-0.843298	0.447130
