data_functionalizedCrystal
_audit_creation_method	'MofGen! by Chris Wilmer'
_symmetry_space_group_name_H-M	'P1'
_symmetry_Int_Tables_number	1
_symmetry_cell_setting	triclinic
loop_
_symmetry_equiv_pos_as_xyz
  x,y,z
_cell_length_a	14.044191
_cell_length_b	14.044220
_cell_length_c	13.596369
_cell_angle_alpha	89.993157
_cell_angle_beta	89.997249
_cell_angle_gamma	93.190327
loop_
_atom_site_label
_atom_site_type_symbol
_atom_site_fract_x
_atom_site_fract_y
_atom_site_fract_z
O1	O	1.277174	0.230202	-0.081748
O2	O	1.000501	0.221889	-0.081761
O3	O	1.134685	0.087709	-0.081745
O4	O	1.142990	0.364381	-0.081764
O5	O	1.134669	0.087700	0.081838
O6	O	1.000486	0.221880	0.081822
O7	O	1.277158	0.230193	0.081835
Zn8	Zn	1.138820	0.226035	0.107801
Zn9	Zn	1.138840	0.226047	-0.107727
O10	O	1.142975	0.364372	0.081819
C11	C	0.964872	0.218248	0.000029
C12	C	0.858728	0.207401	0.000025
C13	C	0.613270	0.264501	0.000031
C14	C	0.664395	0.187585	0.000035
C15	C	0.772532	0.198613	0.000029
C16	C	0.505123	0.253474	0.000036
C17	C	1.131041	0.052083	0.000047
C18	C	1.120197	-0.054060	0.000048
C19	C	1.100370	-0.248398	0.000033
C20	C	1.177285	-0.299526	0.000033
C21	C	1.166253	-0.407663	0.000025
C22	C	1.111400	-0.140252	0.000041
C23	C	1.312788	0.233834	0.000043
C24	C	1.418931	0.244681	0.000040
C25	C	1.146618	0.399998	0.000025
C26	C	1.157463	0.506142	0.000018
N27	N	1.138813	0.226027	0.254893
N28	N	1.138853	0.226048	-0.254819
C29	C	1.138839	0.226048	0.656184
C30	C	1.138829	0.226045	0.544532
C31	C	1.138826	0.226038	0.455542
C32	C	1.138816	0.226034	0.343883
H33	H	0.626952	0.113452	-0.000030
C34	C	0.663845	0.364645	0.000004
C35	C	0.773554	0.375674	-0.000015
C36	C	0.824143	0.475817	-0.000050
C37	C	0.765023	0.564931	-0.000068
C38	C	0.655309	0.553905	-0.000049
C39	C	0.604720	0.453762	-0.000014
H40	H	0.817323	0.309703	-0.000002
H41	H	0.905361	0.483978	-0.000064
H42	H	0.802472	0.639062	-0.000094
H43	H	0.611539	0.619875	-0.000062
H44	H	0.523501	0.445601	0.000000
C45	C	1.277438	-0.248954	0.000053
C46	C	1.288480	-0.139246	0.000071
C47	C	1.388628	-0.088669	0.000097
C48	C	1.477735	-0.147800	0.000106
C49	C	1.466696	-0.257514	0.000089
C50	C	1.366547	-0.308091	0.000063
H51	H	1.222515	-0.095469	0.000064
H52	H	1.396800	-0.007452	0.000109
H53	H	1.551871	-0.110360	0.000125
H54	H	1.532660	-0.301292	0.000095
H55	H	1.358376	-0.389309	0.000050
H56	H	1.026242	-0.285837	0.000027
