data_functionalizedCrystal
_audit_creation_method	'MofGen! by Chris Wilmer'
_symmetry_space_group_name_H-M	'P1'
_symmetry_Int_Tables_number	1
_symmetry_cell_setting	triclinic
loop_
_symmetry_equiv_pos_as_xyz
  x,y,z
_cell_length_a	14.044191
_cell_length_b	13.101039
_cell_length_c	10.654541
_cell_angle_alpha	93.395008
_cell_angle_beta	91.162147
_cell_angle_gamma	93.662449
loop_
_atom_site_label
_atom_site_type_symbol
_atom_site_fract_x
_atom_site_fract_y
_atom_site_fract_z
O1	O	1.264868	0.085164	-0.296681
O2	O	0.988828	0.085177	-0.285737
O3	O	1.133195	0.085164	-0.109108
O4	O	1.120500	0.085177	-0.473310
O5	O	1.122837	-0.085265	-0.121804
O6	O	0.978469	-0.085252	-0.298433
O7	O	1.254510	-0.085265	-0.309377
Zn8	Zn	1.114845	-0.112318	-0.305921
Zn9	Zn	1.128492	0.112230	-0.289193
O10	O	1.110142	-0.085252	-0.486006
C11	C	0.948303	-0.000036	-0.287298
C12	C	0.842983	-0.000031	-0.273019
N13	N	1.105538	-0.265566	-0.317337
C14	C	0.593190	-0.000039	-0.348185
C15	C	0.650154	-0.000041	-0.246934
C16	C	0.757454	-0.000035	-0.261451
C17	C	0.485880	-0.000044	-0.333670
C18	C	1.092876	-0.474607	-0.332880
C19	C	1.150466	-0.525488	-0.262229
C20	C	1.143421	-0.641806	-0.270877
C21	C	1.099920	-0.358279	-0.324233
C22	C	1.295035	-0.000050	-0.307816
C23	C	1.400355	-0.000048	-0.322095
C24	C	1.127085	-0.000050	-0.068564
C25	C	1.124297	-0.000048	0.071160
N26	N	1.137807	0.265477	-0.277768
C27	C	1.116253	-0.000036	-0.526549
C28	C	1.119041	-0.000031	-0.666273
C29	C	1.296928	-0.000069	0.081775
C30	C	1.381929	-0.000082	0.152724
C31	C	1.379305	-0.000079	0.284006
C32	C	1.291669	-0.000060	0.344342
C33	C	1.206667	-0.000047	0.273394
C34	C	1.209301	-0.000053	0.142109
C35	C	1.034039	-0.000019	0.262779
C36	C	1.036662	-0.000029	0.131496
C37	C	0.946404	0.000000	0.323115
C38	C	0.861399	0.000006	0.252165
C39	C	0.864028	0.000001	0.120876
C40	C	0.951660	-0.000017	0.060547
H41	H	0.618342	0.000028	-0.149343
O42	O	0.631196	0.000157	-0.464557
C43	C	0.693200	0.088416	-0.472365
H44	H	0.673021	0.150099	-0.399525
H45	H	0.686918	0.118057	-0.570459
H46	H	0.769799	0.068463	-0.453427
H47	H	1.205063	-0.481691	-0.195248
H48	H	1.038284	-0.518399	-0.399858
H49	H	0.953808	-0.000027	-0.046350
H50	H	1.299073	-0.000086	-0.025122
O51	O	1.467106	-0.000235	0.094248
C52	C	1.513593	-0.088520	0.122965
H53	H	1.485347	-0.117943	0.214584
H54	H	1.593674	-0.068678	0.133795
H55	H	1.499349	-0.150327	0.043741
O56	O	1.461944	0.000047	0.352808
C57	C	1.520461	0.088319	0.330557
H58	H	1.499624	0.117748	0.235915
H59	H	1.598306	0.068456	0.329453
H60	H	1.510772	0.150129	0.408306
H61	H	1.289540	-0.000044	0.451240
O62	O	0.943683	0.000053	0.450634
C63	C	0.848110	0.000047	0.488668
H64	H	0.802713	0.032319	0.412407
H65	H	0.844119	0.049532	0.579856
H66	H	0.820214	-0.081711	0.504500
H67	H	0.790054	0.000028	0.301303
H68	H	0.794809	0.000016	0.063117
