data_functionalizedCrystal
_audit_creation_method	'MofGen! by Chris Wilmer'
_symmetry_space_group_name_H-M	'P1'
_symmetry_Int_Tables_number	1
_symmetry_cell_setting	triclinic
loop_
_symmetry_equiv_pos_as_xyz
  x,y,z
_cell_length_a	8.634740
_cell_length_b	10.723024
_cell_length_c	7.681481
_cell_angle_alpha	84.204337
_cell_angle_beta	96.618670
_cell_angle_gamma	92.519088
loop_
_atom_site_label
_atom_site_type_symbol
_atom_site_fract_x
_atom_site_fract_y
_atom_site_fract_z
O1	O	2.035897	0.417428	-0.146428
O2	O	1.586583	0.383270	-0.146430
O3	O	1.821605	0.219947	-0.146422
O4	O	1.800875	0.580751	-0.146435
O5	O	1.850531	0.199791	0.146436
O6	O	1.615510	0.363114	0.146429
O7	O	2.064823	0.397273	0.146431
Zn8	Zn	1.844759	0.376993	0.192927
Zn9	Zn	1.806647	0.403549	-0.192927
O10	O	1.829802	0.560596	0.146423
C11	C	1.543514	0.365454	-0.000001
C12	C	1.372087	0.342382	-0.000002
C13	C	1.834559	0.163199	0.000005
C14	C	1.830046	0.024133	-0.000001
C15	C	1.961551	-0.035948	-0.000003
C16	C	1.956888	-0.179679	-0.000009
C17	C	2.107892	0.415089	-0.000002
C18	C	2.279318	0.438162	-0.000013
C19	C	1.816847	0.617344	-0.000008
C20	C	1.821359	0.756410	-0.000013
N21	N	1.870781	0.358870	0.456263
N22	N	1.780637	0.421664	-0.456262
H23	H	1.331044	0.537812	-0.000000
H24	H	1.962817	0.294783	0.531471
H25	H	1.320351	0.242727	-0.000049
H26	H	1.708776	-0.191923	0.000000
C27	C	2.118314	0.038299	0.000004
H28	H	2.100883	0.125162	0.000020
H29	H	2.165302	0.024808	-0.102119
H30	H	2.185466	0.010742	0.102147
H31	H	2.069468	-0.231356	-0.000003
H32	H	1.714007	-0.030836	-0.000013
C33	C	1.656324	0.508247	0.442158
H34	H	1.659144	0.506262	0.319198
H35	H	1.677069	0.591586	0.472281
H36	H	1.556052	0.480291	0.472302
