data_functionalizedCrystal
_audit_creation_method	'MofGen! by Chris Wilmer'
_symmetry_space_group_name_H-M	'P1'
_symmetry_Int_Tables_number	1
_symmetry_cell_setting	triclinic
loop_
_symmetry_equiv_pos_as_xyz
  x,y,z
_cell_length_a	13.635800
_cell_length_b	10.943632
_cell_length_c	17.982968
_cell_angle_alpha	85.835063
_cell_angle_beta	77.548040
_cell_angle_gamma	108.838880
loop_
_atom_site_label
_atom_site_type_symbol
_atom_site_fract_x
_atom_site_fract_y
_atom_site_fract_z
V1	V	-2.021300	-0.179839	0.237530
O2	O	-2.000845	0.007398	0.233027
O3	O	-2.010527	-0.355394	0.235887
O4	O	-1.994383	-0.177619	0.341133
O5	O	-2.017100	-0.171608	0.127053
V6	V	-2.261726	-0.157379	0.224318
O7	O	-2.154858	-0.229107	0.266511
O8	O	-2.353266	-0.108111	0.195337
O9	O	-2.160895	0.018176	0.225961
O10	O	-2.340879	-0.344616	0.228821
O11	O	-2.324624	-0.165610	0.334796
O12	O	-2.177039	-0.159599	0.120715
V13	V	-1.521300	-0.179839	0.237530
O14	O	-1.500845	0.007398	0.233027
O15	O	-1.510527	-0.355394	0.235887
O16	O	-1.494383	-0.177619	0.341133
O17	O	-1.517100	-0.171608	0.127053
V18	V	-1.761726	-0.157379	0.224318
O19	O	-1.654858	-0.229107	0.266511
O20	O	-1.853266	-0.108111	0.195337
O21	O	-1.660895	0.018176	0.225961
O22	O	-1.840879	-0.344616	0.228821
O23	O	-1.824624	-0.165610	0.334796
O24	O	-1.677039	-0.159599	0.120715
C25	C	-1.936382	-0.398173	0.232136
C26	C	-1.968199	-0.541695	0.231483
C27	C	-1.915788	-0.171402	0.366386
C28	C	-1.934512	-0.170748	0.451082
C29	C	-1.891288	-0.618826	0.227144
C30	C	-1.940143	-0.691159	0.165640
C31	C	-1.976048	-0.725094	0.291833
C32	C	-2.016620	-0.612124	0.169935
C33	C	-2.052527	-0.646066	0.296184
C34	C	-2.101439	-0.718362	0.234668
C35	C	-2.066712	0.060948	0.229711
C36	C	-2.024514	0.204469	0.230368
C37	C	-2.087305	-0.165820	0.095458
C38	C	-2.058200	-0.166467	0.010761
C39	C	-1.436382	-0.398173	0.232136
C40	C	-1.468199	-0.541695	0.231483
C41	C	-1.415788	-0.171402	0.366386
C42	C	-1.434512	-0.170748	0.451082
C43	C	-2.034763	-0.176911	0.494754
C44	C	-2.052350	-0.176296	0.574334
C45	C	-1.969687	-0.169527	0.610243
C46	C	-1.869426	-0.163361	0.566566
C47	C	-1.851838	-0.163966	0.486986
C48	C	-1.940353	-0.160916	0.887503
C49	C	-1.957950	-0.160314	0.967089
C50	C	-2.140865	-0.173245	0.974852
C51	C	-2.123277	-0.173851	0.895271
C52	C	-2.023017	-0.167677	0.851601
C53	C	-2.003948	-0.168342	0.765310
C54	C	-1.988757	-0.168872	0.696533
C55	C	-1.566712	0.060948	0.229711
C56	C	-1.524514	0.204469	0.230368
C57	C	-1.587305	-0.165820	0.095458
C58	C	-1.558200	-0.166467	0.010761
C59	C	-1.534767	-0.176898	0.494739
C60	C	-1.552370	-0.176267	0.574319
C61	C	-1.469719	-0.169495	0.610242
C62	C	-1.369454	-0.163341	0.566579
C63	C	-1.351850	-0.163963	0.486999
C64	C	-1.458620	-0.173225	-0.025142
C65	C	-1.431254	-0.173817	-0.104724
C66	C	-1.503473	-0.167662	-0.148402
C67	C	-1.603060	-0.160901	-0.112494
C68	C	-1.630422	-0.160299	-0.032914
C69	C	-1.391288	-0.618826	0.227144
C70	C	-1.440143	-0.691159	0.165640
C71	C	-1.476048	-0.725094	0.291833
C72	C	-1.516620	-0.612124	0.169935
C73	C	-1.552527	-0.646066	0.296184
C74	C	-1.601439	-0.718362	0.234668
H75	H	-1.802130	-0.575325	0.223891
O76	O	-2.238253	-0.179400	1.017374
C77	C	-2.391742	-0.298691	1.122028
C78	C	-2.281458	-0.291857	1.073945
H79	H	-2.426716	-0.389619	1.167767
H80	H	-2.382423	-0.207977	1.151195
H81	H	-2.447771	-0.303575	1.082675
H82	H	-2.225371	-0.287014	1.113245
H83	H	-2.290861	-0.382569	1.044770
O84	O	-1.254445	-0.157830	0.444532
C85	C	-1.100986	-0.038799	0.339799
C86	C	-1.211262	-0.045534	0.387844
H87	H	-1.066049	0.051970	0.293945
H88	H	-1.044860	-0.033794	0.379090
H89	H	-1.110446	-0.129657	0.310760
H90	H	-1.201904	0.045302	0.416889
H91	H	-1.267347	-0.050604	0.348516
O92	O	-1.615084	-0.183699	0.459839
C93	C	-1.728800	-0.304261	0.384789
C94	C	-1.637847	-0.296746	0.424288
H95	H	-1.747217	-0.395637	0.356022
H96	H	-1.803524	-0.308628	0.429646
H97	H	-1.702938	-0.214014	0.339409
H98	H	-1.663607	-0.386970	0.469664
H99	H	-1.563145	-0.292315	0.379386
H100	H	-1.533450	-0.563094	0.118368
O101	O	-1.649698	-0.182027	0.616736
C102	C	-1.748306	-0.076468	0.700770
C103	C	-1.638022	-0.069761	0.652754
H104	H	-1.738901	0.014274	0.729916
H105	H	-1.804378	-0.081351	0.661449
H106	H	-1.783279	-0.167357	0.746538
H107	H	-1.602954	0.021119	0.606982
H108	H	-1.582024	-0.064949	0.692123
H109	H	-1.302165	-0.157828	0.595839
O110	O	-1.486720	-0.168665	0.687523
C111	C	-1.434331	-0.051862	0.789281
C112	C	-1.414974	-0.052615	0.701742
H113	H	-1.376322	0.041942	0.800805
H114	H	-1.520159	-0.057340	0.814343
H115	H	-1.420798	-0.139694	0.817505
H116	H	-1.428449	0.035204	0.673453
H117	H	-1.329151	-0.047203	0.676737
H118	H	-1.802119	-0.157842	0.595809
O119	O	-2.108935	-0.621754	0.362020
C120	C	-2.283156	-0.646950	0.441143
C121	C	-2.219414	-0.674593	0.366558
H122	H	-2.372489	-0.689632	0.444828
H123	H	-2.265498	-0.693749	0.493078
H124	H	-2.258655	-0.536907	0.440712
H125	H	-2.243878	-0.784612	0.366914
H126	H	-2.237077	-0.627705	0.314655
H127	H	-1.399802	-0.178236	0.010411
O128	O	-1.334620	-0.180631	-0.139640
C129	C	-1.240788	-0.301434	-0.214531
C130	C	-1.350283	-0.293818	-0.175059
H131	H	-1.253414	-0.392953	-0.243164
H132	H	-1.193958	-0.211320	-0.259990
H133	H	-1.193923	-0.305707	-0.169607
H134	H	-1.397236	-0.289587	-0.219926
H135	H	-1.397032	-0.383931	-0.129585
O136	O	-1.284969	-0.566894	0.223404
C137	C	-1.150523	-0.450019	0.285271
C138	C	-1.270959	-0.508804	0.289618
H139	H	-1.139157	-0.403014	0.338790
H140	H	-1.114334	-0.530558	0.282075
H141	H	-1.108913	-0.372882	0.231693
H142	H	-1.312660	-0.585926	0.343191
H143	H	-1.307068	-0.428191	0.292771
H144	H	-2.102082	-0.182431	0.465523
O145	O	-1.955765	-0.783582	0.353253
C146	C	-1.822454	-0.799061	0.418625
C147	C	-1.845290	-0.732708	0.349045
H148	H	-1.733134	-0.757975	0.415237
H149	H	-1.869437	-0.779550	0.474252
H150	H	-1.847887	-0.908863	0.417869
H151	H	-1.819853	-0.622892	0.349726
H152	H	-1.798322	-0.752326	0.293449
O153	O	-1.842985	-0.154840	0.845010
C154	C	-1.689576	-0.035958	0.740207
C155	C	-1.799789	-0.042569	0.788302
H156	H	-1.654629	0.054791	0.694337
H157	H	-1.633406	-0.030994	0.779459
H158	H	-1.699138	-0.126844	0.711185
H159	H	-1.790329	0.048294	0.817330
H160	H	-1.855918	-0.047598	0.749013
H161	H	-1.481185	-0.168169	-0.213199
H162	H	-1.459186	-0.774277	0.343331
O163	O	-1.883702	-0.715547	0.099839
C164	C	-1.709535	-0.692269	0.021422
C165	C	-1.773331	-0.664597	0.095973
H166	H	-1.620287	-0.651065	0.018263
H167	H	-1.735019	-0.802237	0.021300
H168	H	-1.726076	-0.643909	-0.030522
H169	H	-1.756822	-0.712875	0.147957
H170	H	-1.747837	-0.554612	0.096027
H171	H	-1.661853	-0.155885	-0.148069
O172	O	-1.877683	-0.153557	1.002042
C173	C	-1.763907	-0.032895	1.077025
C174	C	-1.854824	-0.040401	1.037490
H175	H	-1.745382	0.058599	1.105680
H176	H	-1.789717	-0.123041	1.122473
H177	H	-1.689254	-0.028646	1.032135
H178	H	-1.929510	-0.044608	1.082323
H179	H	-1.828925	0.049743	0.992026
H180	H	-1.770197	-0.158916	0.451427
O181	O	-2.036780	-0.553516	0.108497
C182	C	-2.132475	-0.423672	0.065098
C183	C	-2.109728	-0.489959	0.134744
H184	H	-2.191473	-0.372293	0.086294
H185	H	-2.054563	-0.349038	0.027706
H186	H	-2.168286	-0.500702	0.029727
H187	H	-2.073948	-0.413024	0.170173
H188	H	-2.187669	-0.564619	0.172079
O189	O	-1.727189	-0.153930	0.002062
C190	C	-1.894517	-0.258244	0.097677
C191	C	-1.784950	-0.265606	0.058150
H192	H	-1.941257	-0.348535	0.143022
H193	H	-1.882054	-0.166888	0.126460
H194	H	-1.941384	-0.253892	0.052765
H195	H	-1.738025	-0.270009	0.103015
H196	H	-1.797489	-0.356948	0.029352
O197	O	-2.149735	-0.182453	0.616848
C198	C	-2.303243	-0.301732	0.721491
C199	C	-2.192953	-0.294906	0.673422
H200	H	-2.338227	-0.392657	0.767232
H201	H	-2.293926	-0.211015	0.750655
H202	H	-2.359260	-0.306615	0.682129
H203	H	-2.136878	-0.290065	0.712731
H204	H	-2.202353	-0.385622	0.644250
H205	H	-1.392960	-0.711636	0.110440
O206	O	-1.707746	-0.770086	0.238335
C207	C	-1.842220	-0.888337	0.176897
C208	C	-1.721801	-0.829847	0.172662
H209	H	-1.853621	-0.936644	0.123799
H210	H	-1.884346	-0.964304	0.230961
H211	H	-1.877842	-0.807272	0.179045
H212	H	-1.686084	-0.910821	0.170484
H213	H	-1.679751	-0.753849	0.118605
O214	O	-1.608654	-0.621655	0.362108
C215	C	-1.650349	-0.651894	0.500873
C216	C	-1.586715	-0.679611	0.426267
H217	H	-1.632652	-0.698761	0.552765
H218	H	-1.625887	-0.541864	0.500498
H219	H	-1.739688	-0.694615	0.504584
H220	H	-1.497362	-0.636971	0.422508
H221	H	-1.611267	-0.789653	0.426673
H222	H	-2.190582	-0.761602	0.237827
H223	H	-2.190594	-0.179369	0.866039
