data_functionalizedCrystal
_audit_creation_method	'MofGen! by Chris Wilmer'
_symmetry_space_group_name_H-M	'P1'
_symmetry_Int_Tables_number	1
_symmetry_cell_setting	triclinic
loop_
_symmetry_equiv_pos_as_xyz
  x,y,z
_cell_length_a	18.050589
_cell_length_b	12.827893
_cell_length_c	12.827885
_cell_angle_alpha	89.980728
_cell_angle_beta	90.029551
_cell_angle_gamma	89.971809
loop_
_atom_site_label
_atom_site_type_symbol
_atom_site_fract_x
_atom_site_fract_y
_atom_site_fract_z
Zn1	Zn	-0.295624	-1.597576	0.590850
Zn2	Zn	-0.419832	-1.597431	0.416111
Zn3	Zn	-0.295660	-1.422818	0.416124
Zn4	Zn	-0.419777	-1.422764	0.590811
O5	O	-0.357723	-1.510147	0.503474
O6	O	-0.312109	-1.743793	0.567682
O7	O	-0.403399	-1.574230	0.269877
O8	O	-0.191731	-1.446083	0.439323
O9	O	-0.403364	-1.743687	0.439302
O10	O	-0.191704	-1.574478	0.567694
O11	O	-0.312170	-1.445943	0.269886
O12	O	-0.312117	-1.276575	0.439286
O13	O	-0.403269	-1.445991	0.737053
O14	O	-0.403304	-1.276535	0.567628
O15	O	-0.312055	-1.574425	0.737081
O16	O	-0.523749	-1.574178	0.439264
O17	O	-0.523709	-1.445851	0.567615
C18	C	-0.357709	-1.238638	0.503454
C19	C	-0.357721	-1.122484	0.503471
C20	C	-0.550675	-1.510021	0.503457
C21	C	-0.633221	-1.510063	0.503484
C22	C	-0.357652	-1.510219	0.776045
C23	C	-0.357622	-1.510249	0.892198
C24	C	-0.832677	-1.440347	0.573257
C25	C	-0.882124	-1.414870	0.477900
C26	C	-0.784351	-1.510166	0.503498
C27	C	-0.881986	-1.535694	0.598866
C28	C	-0.930337	-1.510263	0.503520
C29	C	-0.832712	-1.484639	0.408091
C30	C	-0.832569	-1.605506	0.529120
C31	C	-0.881994	-1.580066	0.433698
C32	C	-0.700253	-1.510107	0.503487
C33	C	-1.014433	-1.510322	0.503520
C34	C	-0.164018	-1.510303	0.503515
C35	C	-0.081472	-1.510369	0.503532
C36	C	-0.357738	-1.782718	0.503495
C37	C	-0.357745	-1.898871	0.503504
C38	C	-0.402914	-1.070708	0.566880
C39	C	-0.402927	-0.950657	0.566899
C40	C	-0.357741	-1.510137	0.231964
C41	C	-0.357562	-1.510309	0.115812
C42	C	-0.312477	-1.573809	0.943997
C43	C	-0.312444	-1.573842	1.064047
H44	H	-0.811021	-1.381217	0.632167
F45	F	-0.804097	-1.710808	0.557480
F46	F	-0.261928	-1.644976	1.122268
H47	H	-0.319036	-1.077936	0.449201
H48	H	-0.396217	-1.455894	1.071273
H49	H	-0.319054	-0.943391	0.449210
H50	H	-0.441621	-0.906131	0.621183
H51	H	-0.273848	-1.628197	0.899467
H52	H	-0.396243	-1.455850	0.936728
H53	H	-0.811157	-1.462993	0.327426
F54	F	-0.910120	-1.657297	0.356516
F55	F	-0.910573	-1.309540	0.449575
H56	H	-0.903630	-1.557247	0.679509
F57	F	-0.453478	-1.128931	0.637820
