data_functionalizedCrystal
_audit_creation_method	'MofGen! by Chris Wilmer'
_symmetry_space_group_name_H-M	'P1'
_symmetry_Int_Tables_number	1
_symmetry_cell_setting	triclinic
loop_
_symmetry_equiv_pos_as_xyz
  x,y,z
_cell_length_a	18.050590
_cell_length_b	18.050590
_cell_length_c	12.759393
_cell_angle_alpha	89.964247
_cell_angle_beta	89.993989
_cell_angle_gamma	90.007719
loop_
_atom_site_label
_atom_site_type_symbol
_atom_site_fract_x
_atom_site_fract_y
_atom_site_fract_z
Zn1	Zn	1.135392	-0.295830	-0.593601
Zn2	Zn	1.635392	0.204170	-0.093601
Zn3	Zn	1.135309	-0.420041	-0.417908
Zn4	Zn	1.635309	0.079959	0.082092
Zn5	Zn	1.011197	-0.295846	-0.417978
Zn6	Zn	1.511197	0.204154	0.082022
Zn7	Zn	1.011180	-0.419960	-0.593588
Zn8	Zn	1.511180	0.080040	-0.093588
O9	O	1.073269	-0.357919	-0.505769
O10	O	1.573269	0.142081	-0.005769
O11	O	1.239306	-0.312335	-0.570270
O12	O	1.739306	0.187665	-0.070270
O13	O	1.118817	-0.403606	-0.270896
O14	O	1.618817	0.096394	0.229104
O15	O	1.027713	-0.191919	-0.441310
O16	O	1.527713	0.308081	0.058690
O17	O	1.239245	-0.403592	-0.441190
O18	O	1.739245	0.096408	0.058810
O19	O	1.118959	-0.191908	-0.570339
O20	O	1.618959	0.308092	-0.070339
O21	O	1.027632	-0.312360	-0.270948
O22	O	1.527632	0.187640	0.229052
O23	O	0.907270	-0.312282	-0.441297
O24	O	1.407270	0.187718	0.058703
O25	O	1.027685	-0.403453	-0.740610
O26	O	1.527685	0.096547	-0.240610
O27	O	0.907258	-0.403468	-0.570317
O28	O	1.407258	0.096532	-0.070317
O29	O	1.118943	-0.312256	-0.740620
O30	O	1.618943	0.187744	-0.240620
O31	O	1.118801	-0.523955	-0.441177
O32	O	1.618801	-0.023955	0.058823
O33	O	1.027605	-0.523895	-0.570248
O34	O	1.527605	-0.023895	-0.070248
C35	C	0.880317	-0.357868	-0.505814
C36	C	1.380317	0.142132	-0.005814
C37	C	0.797772	-0.357865	-0.505858
C38	C	1.297772	0.142135	-0.005858
C39	C	1.073212	-0.550871	-0.505727
C40	C	1.573212	-0.050871	-0.005727
C41	C	1.073256	-0.633417	-0.505744
C42	C	1.573256	-0.133417	-0.005744
C43	C	0.598336	-0.407594	-0.575852
C44	C	1.098336	0.092406	-0.075852
C45	C	0.548933	-0.339875	-0.601707
C46	C	1.048933	0.160125	-0.101707
C47	C	0.646641	-0.357906	-0.505807
C48	C	1.146641	0.142094	-0.005807
C49	C	0.548962	-0.425664	-0.479951
C50	C	1.048962	0.074336	0.020049
C51	C	0.500656	-0.357952	-0.505759
C52	C	1.000656	0.142048	-0.005759
C53	C	0.598326	-0.290151	-0.531712
C54	C	1.098326	0.209849	-0.031712
C55	C	0.598359	-0.375986	-0.409911
C56	C	1.098359	0.124014	0.090089
C57	C	0.548979	-0.308220	-0.435729
C58	C	1.048979	0.191780	0.064271
C59	C	0.730739	-0.357880	-0.505837
C60	C	1.230739	0.142120	-0.005837
C61	C	0.416560	-0.357970	-0.505729
C62	C	0.916560	0.142030	-0.005729
C63	C	1.122952	-0.832873	-0.435653
C64	C	1.622952	-0.332873	0.064347
C65	C	1.141095	-0.882200	-0.531534
C66	C	1.641095	-0.382200	-0.031534
C67	C	1.073298	-0.784547	-0.505786
C68	C	1.573298	-0.284547	-0.005786
C69	C	1.055230	-0.882302	-0.409948
C70	C	1.555230	-0.382302	0.090052
C71	C	1.073340	-0.930532	-0.505818
C72	C	1.573340	-0.430532	-0.005818
C73	C	1.091476	-0.832787	-0.601717
C74	C	1.591476	-0.332787	-0.101717
C75	C	1.005579	-0.832884	-0.480067
C76	C	1.505579	-0.332884	0.019933
C77	C	1.023697	-0.882189	-0.576014
C78	C	1.523697	-0.382189	-0.076014
C79	C	1.073276	-0.700449	-0.505766
C80	C	1.573276	-0.200449	-0.005766
C81	C	1.073362	-1.014629	-0.505848
C82	C	1.573362	-0.514629	-0.005848
C83	C	1.266975	-0.357971	-0.505724
C84	C	1.766975	0.142029	-0.005724
C85	C	1.349521	-0.357992	-0.505705
C86	C	1.849521	0.142008	-0.005705
C87	C	1.073321	-0.357844	-0.779802
C88	C	1.573321	0.142156	-0.279802
C89	C	1.073344	-0.357812	-0.896579
C90	C	1.573344	0.142188	-0.396579
C91	C	1.073347	-0.164213	-0.505834
C92	C	1.573347	0.335787	-0.005834
C93	C	1.073380	-0.081668	-0.505861
C94	C	1.573380	0.418332	-0.005861
C95	C	1.120868	-0.310321	-0.951447
C96	C	1.620868	0.189679	-0.451447
C97	C	1.120886	-0.310295	-1.061172
C98	C	1.620886	0.189705	-0.561172
C99	C	1.025852	-0.405256	-1.061149
C100	C	1.525852	0.094744	-0.561149
C101	C	1.025831	-0.405278	-0.951427
C102	C	1.525831	0.094722	-0.451427
C103	C	1.168380	-0.262855	-0.896600
C104	C	1.668380	0.237145	-0.396600
C105	C	1.215909	-0.215361	-0.951468
C106	C	1.715909	0.284639	-0.451468
C107	C	1.215927	-0.215334	-1.061193
C108	C	1.715927	0.284666	-0.561193
C109	C	1.168416	-0.262802	-1.116048
C110	C	1.668416	0.237198	-0.616048
C111	C	1.073260	-0.357940	-0.232801
C112	C	1.573260	0.142060	0.267199
C113	C	1.073382	-0.357763	-0.116025
C114	C	1.573382	0.142237	0.383975
H115	H	0.620010	-0.449539	-0.635154
H116	H	1.120010	0.050461	-0.135154
F117	F	0.930721	-0.804550	-0.451573
F118	F	1.430721	-0.304550	0.048427
H119	H	0.619919	-0.232852	-0.553652
H120	H	1.119919	0.267148	-0.053652
F121	F	0.626737	-0.395970	-0.303951
F122	F	1.126737	0.104030	0.196049
F123	F	1.177853	-0.804567	-0.358210
F124	F	1.677853	-0.304567	0.141790
H125	H	1.106719	-0.811131	-0.682849
H126	H	1.606719	-0.311131	-0.182849
F127	F	1.035232	-0.910730	-0.303996
F128	F	1.535232	-0.410730	0.196004
H129	H	0.527223	-0.324597	-0.682784
H130	H	1.027223	0.175403	-0.182784
H131	H	1.168425	-0.262767	-1.205393
H132	H	1.668425	0.237233	-0.705393
H133	H	1.168373	-0.262873	-0.807257
H134	H	1.668373	0.237127	-0.307257
H135	H	1.198382	-0.903864	-0.553308
H136	H	1.698382	-0.403864	-0.053308
H137	H	0.987171	-0.443901	-1.105821
H138	H	1.487171	0.056099	-0.605821
H139	H	0.527444	-0.266172	-0.376474
H140	H	1.027444	0.233828	0.123526
H141	H	1.254587	-0.176710	-0.906798
H142	H	1.754587	0.323290	-0.406798
H143	H	0.527274	-0.482946	-0.458104
H144	H	1.027274	0.017054	0.041896
F145	F	1.266511	-0.164788	-1.119585
F146	F	1.766511	0.335212	-0.619585
H147	H	0.981725	-0.903707	-0.635405
H148	H	1.481725	-0.403707	-0.135405
H149	H	0.987121	-0.443938	-0.906751
H150	H	1.487121	0.056062	-0.406751
