data_functionalizedCrystal
_audit_creation_method	'MofGen! by Chris Wilmer'
_symmetry_space_group_name_H-M	'P1'
_symmetry_Int_Tables_number	1
_symmetry_cell_setting	triclinic
loop_
_symmetry_equiv_pos_as_xyz
  x,y,z
_cell_length_a	19.376995
_cell_length_b	14.628931
_cell_length_c	14.628931
_cell_angle_alpha	59.999807
_cell_angle_beta	75.504716
_cell_angle_gamma	52.466829
loop_
_atom_site_label
_atom_site_type_symbol
_atom_site_fract_x
_atom_site_fract_y
_atom_site_fract_z
Zr1	Zr	0.686685	1.000602	-0.347637
O2	O	0.572868	1.191305	-0.455862
O3	O	0.721576	0.809898	-0.314460
O4	O	0.721576	1.000604	-0.505167
O5	O	0.572869	1.000598	-0.114724
O6	O	0.838879	1.000608	-0.544059
O7	O	0.572868	1.000598	-0.265156
O8	O	0.838879	0.659470	-0.202921
O9	O	0.572869	1.341736	-0.455862
O10	O	0.823998	0.888341	-0.329336
O11	O	0.736457	0.888338	-0.188045
O12	O	0.736457	1.112870	-0.412577
O13	O	0.648915	1.112867	-0.271286
Zr14	Zr	0.873770	1.000608	-0.169745
Zr15	Zr	0.873770	1.000609	-0.409667
Zr16	Zr	0.686685	1.000602	-0.107716
Zr17	Zr	0.686685	1.240524	-0.347638
Zr18	Zr	0.873770	0.760687	-0.169744
O19	O	0.838879	1.191313	-0.202922
O20	O	0.838879	1.191314	-0.544060
O21	O	0.572869	1.191304	-0.114724
O22	O	0.987587	0.809906	-0.061520
O23	O	0.987586	0.809907	-0.402658
O24	O	0.721576	0.809897	0.026677
O25	O	0.987587	1.000613	-0.402658
O26	O	0.838879	1.000607	-0.012216
O27	O	0.721576	1.000602	0.026677
O28	O	0.987587	1.000612	-0.252226
O29	O	0.721576	1.341742	-0.505167
O30	O	0.838879	0.659469	-0.012215
O31	O	0.987587	0.659474	-0.061520
O32	O	0.987586	0.659475	-0.252226
O33	O	0.572869	1.341736	-0.265156
O34	O	0.721576	1.341741	-0.314461
O35	O	0.823999	0.888341	-0.104805
O36	O	0.911540	0.888344	-0.246096
O37	O	0.823999	1.112873	-0.329337
O38	O	0.736457	1.112869	-0.188046
C39	C	0.780227	0.700500	-0.258691
C40	C	0.780227	0.598647	-0.258690
C41	C	0.546213	1.000597	-0.181102
C42	C	0.466790	1.000595	-0.154769
C43	C	0.823654	0.553239	-0.328780
C44	C	0.823655	0.447969	-0.328782
C45	C	0.354847	1.000592	-0.034785
C46	C	0.429476	1.000594	-0.059538
C47	C	0.429481	1.000600	-0.225287
C48	C	0.354847	1.000604	-0.200550
C49	C	0.317537	1.000599	-0.105297
C50	C	0.317537	1.000611	-0.271062
C51	C	0.242913	1.000609	-0.246324
C52	C	0.205598	1.000599	-0.151074
C53	C	0.242912	1.000596	-0.080559
C54	C	0.354853	1.000607	-0.366311
C55	C	0.317543	1.000614	-0.436823
C56	C	0.242914	1.000621	-0.412089
C57	C	0.205599	1.000612	-0.316839
C58	C	0.205600	1.000624	-0.482604
C59	C	0.130975	1.000621	-0.457866
C60	C	0.130975	1.000609	-0.292101
C61	C	1.014242	1.000613	-0.336280
C62	C	1.093665	1.000616	-0.362613
C63	C	0.780227	1.000606	-0.558797
C64	C	0.780227	1.000606	-0.660650
C65	C	0.780228	1.300711	-0.258692
C66	C	0.780228	1.402563	-0.258692
C67	C	0.736801	1.111985	-0.852616
C68	C	0.736801	1.111988	-0.747347
C69	C	0.780228	1.000604	0.041414
C70	C	0.780228	1.000604	0.143268
C71	C	1.014242	0.700508	-0.336280
C72	C	1.093664	0.598658	-0.362613
C73	C	0.780228	0.700499	0.041415
C74	C	0.780228	0.598646	0.143268
C75	C	1.014242	0.700507	-0.036174
C76	C	1.093665	0.598657	0.039346
C77	C	0.546213	1.300703	-0.481208
C78	C	0.466790	1.402554	-0.556728
C79	C	0.546213	1.300702	-0.181103
C80	C	0.466791	1.402553	-0.154770
C81	C	0.780228	1.300711	-0.558797
C82	C	0.780228	1.402565	-0.660650
C83	C	1.085266	0.550826	-0.418439
C84	C	1.159884	0.455141	-0.443202
C85	C	1.242901	0.407281	-0.412130
C86	C	1.251297	0.455122	-0.356301
C87	C	1.176680	0.550813	-0.331546
C88	C	1.176666	0.550828	0.001056
C89	C	1.251299	0.455142	0.072004
C90	C	1.242929	0.407280	0.181241
C91	C	1.159919	0.455118	0.219532
C92	C	1.085287	0.550808	0.148584
C93	C	0.383789	1.450394	-0.518438
C94	C	0.309156	1.546110	-0.589386
C95	C	0.317526	1.593977	-0.698623
C96	C	0.400537	1.546133	-0.736914
C97	C	0.475168	1.450426	-0.665967
C98	C	0.475189	1.450394	-0.098953
C99	C	0.400571	1.546106	-0.074217
C100	C	0.317555	1.593969	-0.105292
C101	C	0.309158	1.546124	-0.161117
C102	C	0.383776	1.450420	-0.185858
C103	C	0.823654	0.553238	0.229971
C104	C	0.823655	0.447967	0.335242
H105	H	0.860837	0.592292	-0.388783
Br106	Br	0.674818	1.270928	-0.976628
H107	H	0.743051	0.559585	-0.198683
Br108	Br	0.885636	0.382877	0.459247
H109	H	0.743052	0.441600	0.264953
Br110	Br	1.344224	0.277412	0.277514
H111	H	0.743043	0.441612	-0.198686
Br112	Br	0.480125	1.000599	-0.354552
H113	H	0.542779	1.411432	-0.073636
H114	H	0.144837	1.000591	-0.130932
H115	H	1.318899	0.416141	-0.331008
Br116	Br	0.885618	0.382902	-0.428811
Br117	Br	0.674837	1.270934	-0.741196
H118	H	0.817411	0.905244	-0.664341
Br119	Br	0.842190	0.841661	-0.732714
Br120	Br	0.972610	0.615761	-0.460625
Br121	Br	0.480110	1.000575	0.036175
H122	H	1.303652	0.329363	-0.432293
H123	H	1.153030	0.416200	-0.488659
H124	H	0.415620	1.000603	-0.386446
Br125	Br	0.411987	1.611016	0.001548
Br126	Br	0.368187	1.000613	-0.566088
H127	H	0.235993	1.000616	-0.560155
H128	H	0.241573	1.585048	-0.558189
H129	H	0.407342	1.585119	-0.825863
Br130	Br	1.188094	0.615709	-0.255771
Br131	Br	0.718248	0.533565	0.149435
H132	H	0.100589	1.000618	-0.214541
H133	H	1.183498	0.589784	-0.087887
H134	H	0.324461	1.000601	0.042775
Br135	Br	0.192262	1.000615	0.048706
H136	H	0.542749	1.411475	-0.697156
H137	H	0.256803	1.671897	-0.085139
Br138	Br	0.080343	1.000620	-0.553560
H139	H	1.318883	0.416202	0.040809
H140	H	0.376957	1.411425	-0.429495
Br141	Br	0.885616	0.618342	0.223810
Br142	Br	1.148574	0.390148	0.367786
Br143	Br	0.972645	0.615701	0.200569
Br144	Br	0.372362	1.385498	-0.261607
H145	H	0.256750	1.671908	-0.756382
H146	H	0.241556	1.585108	-0.186413
