data_functionalizedCrystal
_audit_creation_method	'MofGen! by Chris Wilmer'
_symmetry_space_group_name_H-M	'P1'
_symmetry_Int_Tables_number	1
_symmetry_cell_setting	triclinic
loop_
_symmetry_equiv_pos_as_xyz
  x,y,z
_cell_length_a	10.489741
_cell_length_b	11.804365
_cell_length_c	13.262508
_cell_angle_alpha	117.325227
_cell_angle_beta	84.484564
_cell_angle_gamma	78.031880
loop_
_atom_site_label
_atom_site_type_symbol
_atom_site_fract_x
_atom_site_fract_y
_atom_site_fract_z
O1	O	1.707368	-0.054747	0.136476
O2	O	1.334843	-0.049933	0.151397
O3	O	1.544208	-0.105444	-0.020041
O4	O	1.498003	0.000765	0.307914
O5	O	1.489094	0.107211	0.025046
O6	O	1.279729	0.162723	0.196484
O7	O	1.652254	0.157908	0.181563
Cu8	Cu	1.460959	0.179732	0.193140
Cu9	Cu	1.526138	-0.071757	0.139820
O10	O	1.442889	0.213420	0.353001
C11	C	1.259856	0.056027	0.172813
C12	C	1.118530	0.054928	0.169439
C13	C	1.519130	-0.012720	-0.039493
C14	C	1.526499	-0.053253	-0.164626
N15	N	1.415125	0.356616	0.230643
C16	C	1.060137	0.019613	0.060359
C17	C	0.990577	-0.068546	0.089658
C18	C	0.936271	0.141123	0.134137
C19	C	1.050855	-0.033304	0.198765
C20	C	0.996535	0.176455	0.243248
C21	C	0.927003	0.088296	0.272621
C22	C	1.727242	0.051945	0.160147
C23	C	1.868570	0.053037	0.163519
N24	N	1.571983	-0.248644	0.102308
C25	C	1.682049	0.659843	0.012230
C26	C	1.716721	0.525993	-0.016146
C27	C	1.641325	0.483642	0.045549
C28	C	1.531251	0.575154	0.135624
C29	C	1.496581	0.709019	0.164008
C30	C	1.455857	0.532818	0.197327
C31	C	1.345783	0.624331	0.287402
C32	C	1.311119	0.758181	0.315781
C33	C	1.386515	0.800533	0.254087
C34	C	1.490527	0.398954	0.168943
C35	C	1.305059	0.448130	0.320721
C36	C	1.270387	0.581980	0.349097
C37	C	1.427091	0.296180	-0.419057
C38	C	1.420156	0.334265	-0.301487
C39	C	1.446742	0.237389	-0.267266
C40	C	1.480262	0.102422	-0.350627
C41	C	1.487187	0.064334	-0.468207
C42	C	1.506838	0.005542	-0.316416
C43	C	1.540358	-0.129424	-0.399777
C44	C	1.547283	-0.167505	-0.517345
C45	C	1.520697	-0.070629	-0.551566
C46	C	1.499913	0.043630	-0.198835
C47	C	1.560009	-0.188216	-0.247985
C48	C	1.566944	-0.226300	-0.365555
C49	C	1.467968	0.120693	0.372452
C50	C	1.460601	0.161217	0.497584
H51	H	0.986662	-0.172136	0.024709
N52	N	1.151669	0.680693	0.446245
H53	H	1.182046	0.752521	0.508340
H54	H	1.109206	0.633461	0.480934
N55	N	1.384018	0.479822	-0.211580
H56	H	1.292402	0.526621	-0.212808
H57	H	1.451859	0.521011	-0.229846
N58	N	1.463772	0.189188	-0.108929
H59	H	1.372155	0.235984	-0.110156
H60	H	1.531611	0.230379	-0.127195
H61	H	0.886447	0.214810	0.106755
H62	H	1.669560	0.374655	0.022441
H63	H	1.806343	0.451489	-0.089483
N64	N	1.609230	0.300246	0.071794
H65	H	1.692636	0.327980	0.090489
H66	H	1.594719	0.297638	-0.003341
N67	N	1.763371	0.705523	-0.054295
H68	H	1.724707	0.804208	-0.022641
H69	H	1.761034	0.656205	-0.139336
H70	H	0.869570	0.117310	0.362377
H71	H	1.000484	0.280037	0.308160
H72	H	1.358283	0.909522	0.277186
H73	H	1.441092	0.268405	-0.171533
H74	H	1.221500	0.832695	0.389134
N75	N	1.116679	-0.131071	0.234931
H76	H	1.212389	-0.129770	0.236951
H77	H	1.114664	-0.223357	0.177244
H78	H	1.243667	0.413651	0.370961
H79	H	1.581648	-0.267101	-0.220123
H80	H	1.405439	0.375042	-0.446932
H81	H	1.526348	-0.101631	-0.647300
H82	H	1.574565	-0.277403	-0.585215
H83	H	1.594235	-0.336192	-0.433444
N84	N	1.136544	-0.018979	-0.058468
H85	H	1.135458	-0.111549	-0.116332
H86	H	1.231901	-0.017085	-0.055088
