data_functionalizedCrystal
_audit_creation_method	'MofGen! by Chris Wilmer'
_symmetry_space_group_name_H-M	'P1'
_symmetry_Int_Tables_number	1
_symmetry_cell_setting	triclinic
loop_
_symmetry_equiv_pos_as_xyz
  x,y,z
_cell_length_a	16.625548
_cell_length_b	16.625546
_cell_length_c	17.639306
_cell_angle_alpha	101.183476
_cell_angle_beta	78.775108
_cell_angle_gamma	90.023536
loop_
_atom_site_label
_atom_site_type_symbol
_atom_site_fract_x
_atom_site_fract_y
_atom_site_fract_z
Zn1	Zn	1.324776	-0.413142	-0.446893
Zn2	Zn	1.824776	0.086858	0.053107
Zn3	Zn	1.297441	-0.520726	-0.314718
Zn4	Zn	1.797441	-0.020726	0.185282
Zn5	Zn	1.162703	-0.385917	-0.314736
Zn6	Zn	1.662703	0.114083	0.185264
Zn7	Zn	1.189898	-0.547929	-0.446846
Zn8	Zn	1.689898	-0.047929	0.053154
O9	O	1.243704	-0.466929	-0.380798
O10	O	1.743704	0.033071	0.119202
O11	O	1.433985	-0.427422	-0.429371
O12	O	1.933985	0.072578	0.070629
O13	O	1.256746	-0.480065	-0.204117
O14	O	1.756746	0.019935	0.295883
O15	O	1.184261	-0.276702	-0.332294
O16	O	1.684261	0.223298	0.167706
O17	O	1.413901	-0.506464	-0.332264
O18	O	1.913901	-0.006464	0.167736
O19	O	1.303335	-0.296704	-0.429389
O20	O	1.803335	0.203296	0.070611
O21	O	1.157755	-0.381022	-0.204130
O22	O	1.657755	0.118978	0.295870
O23	O	1.053475	-0.407399	-0.332249
O24	O	1.553475	0.092601	0.167751
O25	O	1.230611	-0.552827	-0.557456
O26	O	1.730611	-0.052827	-0.057456
O27	O	1.073456	-0.526429	-0.429309
O28	O	1.573456	-0.026429	0.070691
O29	O	1.329705	-0.453800	-0.557490
O30	O	1.829705	0.046200	-0.057490
O31	O	1.283116	-0.637161	-0.332218
O32	O	1.783116	-0.137161	0.167782
O33	O	1.204106	-0.657147	-0.429292
O34	O	1.704106	-0.157147	0.070708
C35	C	1.034209	-0.466912	-0.380776
C36	C	1.534209	0.033088	0.119224
C37	C	0.944590	-0.466929	-0.380785
C38	C	1.444590	0.033071	0.119215
C39	C	1.243621	-0.676413	-0.380765
C40	C	1.743621	-0.176413	0.119235
C41	C	1.243665	-0.766036	-0.380777
C42	C	1.743665	-0.266036	0.119223
C43	C	0.616421	-0.466941	-0.380819
C44	C	1.116421	0.033059	0.119181
C45	C	0.707727	-0.466935	-0.380807
C46	C	1.207727	0.033065	0.119193
C47	C	0.780502	-0.466935	-0.380802
C48	C	1.280502	0.033065	0.119198
C49	C	0.871814	-0.466929	-0.380791
C50	C	1.371814	0.033071	0.119209
C51	C	1.243822	-1.094229	-0.380860
C52	C	1.743822	-0.594229	0.119140
C53	C	1.243776	-1.002916	-0.380839
C54	C	1.743776	-0.502916	0.119161
C55	C	1.243743	-0.930135	-0.380818
C56	C	1.743743	-0.430135	0.119182
C57	C	1.243698	-0.838817	-0.380798
C58	C	1.743698	-0.338817	0.119202
C59	C	1.454018	-0.466945	-0.380821
C60	C	1.954018	0.033055	0.119179
C61	C	1.543641	-0.466953	-0.380830
C62	C	2.043641	0.033047	0.119170
C63	C	1.286241	-0.509385	-0.586953
C64	C	1.786241	-0.009385	-0.086953
C65	C	1.304368	-0.527477	-0.674804
C66	C	1.804368	-0.027477	-0.174804
C67	C	1.243813	-0.256630	-0.380849
C68	C	1.743813	0.243370	0.119151
C69	C	1.243860	-0.167013	-0.380870
C70	C	1.743860	0.332987	0.119130
C71	C	1.106312	-0.329183	-0.963792
C72	C	1.606312	0.170817	-0.463792
C73	C	1.123363	-0.346200	-1.046342
C74	C	1.623363	0.153800	-0.546342
C75	C	1.226432	-0.449323	-1.046308
C76	C	1.726432	0.050677	-0.546308
C77	C	1.209392	-0.432312	-0.963757
C78	C	1.709392	0.067688	-0.463757
C79	C	1.149331	-0.372241	-0.922506
C80	C	1.649331	0.127759	-0.422506
C81	C	1.252411	-0.475370	-0.922470
C82	C	1.752411	0.024630	-0.422470
C83	C	1.235370	-0.458363	-0.839927
C84	C	1.735370	0.041637	-0.339927
C85	C	1.175310	-0.398297	-0.798670
C86	C	1.675310	0.101703	-0.298670
C87	C	1.132290	-0.355234	-0.839962
C88	C	1.632290	0.144766	-0.339962
C89	C	1.312468	-0.535445	-0.963723
C90	C	1.812468	-0.035445	-0.463723
C91	C	1.355487	-0.578503	-0.922437
C92	C	1.855487	-0.078503	-0.422437
C93	C	1.338450	-0.561492	-0.839891
C94	C	1.838450	-0.061492	-0.339891
C95	C	1.278390	-0.501426	-0.798634
C96	C	1.778390	-0.001426	-0.298634
C97	C	1.381470	-0.604555	-0.798599
C98	C	1.881470	-0.104555	-0.298599
C99	C	1.364429	-0.587547	-0.716055
C100	C	1.864429	-0.087547	-0.216055
C101	C	1.261349	-0.484418	-0.716091
C102	C	1.761349	0.015582	-0.216091
C103	C	1.201380	-0.424579	-0.175445
C104	C	1.701380	0.075421	0.324555
C105	C	1.183409	-0.406260	-0.087595
C106	C	1.683409	0.093740	0.412405
H107	H	1.161430	-0.384456	-0.731457
H108	H	1.661430	0.115544	-0.231457
C109	C	1.331058	-0.553762	-1.053344
C110	C	1.831058	-0.053762	-0.553344
C111	C	1.357334	-0.482639	-1.080682
C112	C	1.857334	0.017361	-0.580682
C113	C	1.374476	-0.499485	-1.163235
C114	C	1.874476	0.000515	-0.663235
H115	H	1.282920	-0.571516	-1.072114
H116	H	1.782920	-0.071516	-0.572114
H117	H	1.373015	-0.595676	-1.072028
H118	H	1.873015	-0.095676	-0.572028
H119	H	1.315380	-0.440739	-1.062006
H120	H	1.815380	0.059261	-0.562006
H121	H	1.405476	-0.464875	-1.061934
H122	H	1.905476	0.035125	-0.561934
H123	H	1.416433	-0.541399	-1.181920
H124	H	1.916433	-0.041399	-0.681920
H125	H	1.326336	-0.517240	-1.181997
H126	H	1.826336	-0.017240	-0.681997
H127	H	1.392314	-0.451234	-1.181795
H128	H	1.892314	0.048766	-0.681795
C129	C	1.420693	-0.643662	-0.967370
C130	C	1.920693	-0.143662	-0.467370
C131	C	1.426424	-0.649329	-1.048496
C132	C	1.926424	-0.149329	-0.548496
C133	C	1.486492	-0.709336	-1.089911
C134	C	1.986492	-0.209336	-0.589911
H135	H	1.406146	-0.695098	-0.953918
H136	H	1.906146	-0.195098	-0.453918
H137	H	1.472109	-0.629075	-0.953893
H138	H	1.972109	-0.129075	-0.453893
H139	H	1.375020	-0.663920	-1.061967
H140	H	1.875020	-0.163920	-0.561967
H141	H	1.440982	-0.597909	-1.061971
H142	H	1.940982	-0.097909	-0.561971
H143	H	1.537908	-0.694750	-1.076434
H144	H	2.037908	-0.194750	-0.576434
H145	H	1.471939	-0.760768	-1.076452
H146	H	1.971939	-0.260768	-0.576452
H147	H	1.490394	-0.713184	-1.144958
H148	H	1.990394	-0.213184	-0.644958
C149	C	1.446783	-0.669708	-0.843291
C150	C	1.946783	-0.169708	-0.343291
C151	C	1.522424	-0.648032	-0.823211
C152	C	2.022424	-0.148032	-0.323211
C153	C	1.582607	-0.708037	-0.864357
C154	C	2.082607	-0.208037	-0.364357
H155	H	1.450880	-0.673726	-0.898377
H156	H	1.950880	-0.173726	-0.398377
H157	H	1.432206	-0.721100	-0.829725
H158	H	1.932206	-0.221100	-0.329725
H159	H	1.536999	-0.596654	-0.836783
H160	H	2.036999	-0.096654	-0.336783
H161	H	1.518355	-0.644020	-0.768133
H162	H	2.018355	-0.144020	-0.268133
H163	H	1.568029	-0.759430	-0.850791
H164	H	2.068029	-0.259430	-0.350791
H165	H	1.586696	-0.712051	-0.919440
H166	H	2.086696	-0.212051	-0.419440
H167	H	1.633934	-0.693342	-0.850733
H168	H	2.133934	-0.193342	-0.350733
C169	C	1.411103	-0.634447	-0.671321
C170	C	1.911103	-0.134447	-0.171321
C171	C	1.397664	-0.718356	-0.691387
C172	C	1.897664	-0.218356	-0.191387
C173	C	1.440651	-0.761591	-0.650200
C174	C	1.940651	-0.261591	-0.150200
H175	H	1.392395	-0.615821	-0.616242
H176	H	1.892395	-0.115821	-0.116242
H177	H	1.468096	-0.625491	-0.684863
H178	H	1.968096	-0.125491	-0.184863
H179	H	1.340684	-0.727307	-0.677840
H180	H	1.840684	-0.227307	-0.177840
H181	H	1.416376	-0.737006	-0.746459
H182	H	1.916376	-0.237006	-0.246459
H183	H	1.497644	-0.752635	-0.663742
H184	H	1.997644	-0.252635	-0.163742
H185	H	1.421939	-0.742958	-0.595123
H186	H	1.921939	-0.242958	-0.095123
H187	H	1.431545	-0.818528	-0.663815
H188	H	1.931545	-0.318528	-0.163815
H189	H	1.083390	-0.306310	-0.806373
H190	H	1.583390	0.193690	-0.306373
C191	C	1.196013	-0.419307	-0.671334
C192	C	1.696013	0.080693	-0.171334
C193	C	1.120366	-0.441003	-0.691388
C194	C	1.620366	0.058997	-0.191388
C195	C	1.060161	-0.381053	-0.650165
C196	C	1.560161	0.118947	-0.150165
H197	H	1.210519	-0.367884	-0.684839
H198	H	1.710519	0.132116	-0.184839
H199	H	1.191973	-0.415357	-0.616254
H200	H	1.691973	0.084643	-0.116254
H201	H	1.124408	-0.444943	-0.746456
H202	H	1.624408	0.055057	-0.246456
H203	H	1.105835	-0.492416	-0.677881
H204	H	1.605835	0.007584	-0.177881
H205	H	1.056120	-0.377103	-0.595085
H206	H	1.556120	0.122897	-0.095085
H207	H	1.074674	-0.329634	-0.663673
H208	H	1.574674	0.170366	-0.163673
H209	H	1.008826	-0.395769	-0.663761
H210	H	1.508826	0.104231	-0.163761
H211	H	1.057412	-0.280259	-0.930203
H212	H	1.557412	0.219741	-0.430203
H213	H	1.088330	-0.311129	-1.079954
H214	H	1.588330	0.188871	-0.579954
H215	H	1.275331	-0.498235	-1.079906
H216	H	1.775331	0.001765	-0.579906
