data_functionalizedCrystal
_audit_creation_method	'MofGen! by Chris Wilmer'
_symmetry_space_group_name_H-M	'P1'
_symmetry_Int_Tables_number	1
_symmetry_cell_setting	triclinic
loop_
_symmetry_equiv_pos_as_xyz
  x,y,z
_cell_length_a	17.699083
_cell_length_b	9.565339
_cell_length_c	17.699083
_cell_angle_alpha	89.992190
_cell_angle_beta	96.716984
_cell_angle_gamma	89.991220
loop_
_atom_site_label
_atom_site_type_symbol
_atom_site_fract_x
_atom_site_fract_y
_atom_site_fract_z
O1	O	1.004068	0.116086	-0.095708
O2	O	1.504068	0.616086	0.404292
O3	O	0.783690	0.116134	-0.108160
O4	O	1.283690	0.616134	0.391840
O5	O	0.900105	0.116075	0.008255
O6	O	1.400105	0.616075	0.508255
O7	O	0.887653	0.116145	-0.212123
O8	O	1.387653	0.616145	0.287877
O9	O	0.900110	-0.116446	0.008252
O10	O	1.400110	0.383554	0.508252
O11	O	0.783695	-0.116386	-0.108164
O12	O	1.283695	0.383614	0.391836
O13	O	1.004073	-0.116434	-0.095711
O14	O	1.504073	0.383566	0.404289
Zn15	Zn	0.893885	-0.153328	-0.101938
Zn16	Zn	1.393885	0.346672	0.398062
Zn17	Zn	0.893878	0.153028	-0.101933
Zn18	Zn	1.393878	0.653028	0.398067
O19	O	0.887658	-0.116375	-0.212127
O20	O	1.387658	0.383625	0.287873
C21	C	0.755495	-0.000120	-0.107716
C22	C	1.255495	0.499880	0.392284
C23	C	0.671477	-0.000103	-0.106377
C24	C	1.171477	0.499897	0.393623
C25	C	0.622856	-0.000081	-0.174711
C26	C	1.122856	0.499919	0.325289
C27	C	0.543913	-0.000100	-0.173448
C28	C	1.043913	0.499900	0.326552
C29	C	0.513592	-0.000130	-0.103852
C30	C	1.013592	0.499870	0.396148
C31	C	0.562219	-0.000156	-0.035513
C32	C	1.062219	0.499844	0.464487
C33	C	0.641161	-0.000147	-0.036776
C34	C	1.141161	0.499853	0.463224
C35	C	0.243856	-0.000192	-0.030418
C36	C	0.743856	0.499808	0.469582
C37	C	0.164908	-0.000196	-0.029160
C38	C	0.664908	0.499804	0.470840
C39	C	0.146608	-0.000145	-0.167090
C40	C	0.646608	0.499855	0.332910
C41	C	0.225550	-0.000136	-0.168353
C42	C	0.725550	0.499864	0.331647
C43	C	0.274170	-0.000169	-0.100015
C44	C	0.774170	0.499831	0.399985
C45	C	0.359769	-0.000152	-0.101384
C46	C	0.859769	0.499848	0.398616
C47	C	0.427995	-0.000137	-0.102481
C48	C	0.927995	0.499863	0.397519
N49	N	0.893895	-0.362407	-0.101940
N50	N	1.393895	0.137593	0.398060
C51	C	0.947750	-0.453600	-0.048106
C52	C	1.447750	0.046400	0.451894
C53	C	0.879384	-0.546761	-0.033531
C54	C	1.379384	-0.046761	0.466469
C55	C	0.962234	-0.546802	-0.116466
C56	C	1.462234	-0.046802	0.383534
C57	C	0.825494	-0.453516	-0.087332
C58	C	1.325494	0.046484	0.412668
C59	C	0.908390	-0.453548	-0.170297
C60	C	1.408390	0.046452	0.329703
C61	C	0.839974	-0.546667	-0.155751
C62	C	1.339974	-0.046667	0.344249
C63	C	1.032268	-0.000177	-0.096156
C64	C	1.532268	0.499823	0.403844
C65	C	1.116286	-0.000185	-0.097494
C66	C	1.616286	0.499815	0.402506
C67	C	0.899662	-0.000191	0.036451
C68	C	1.399662	0.499809	0.536451
C69	C	0.898323	-0.000208	0.120469
C70	C	1.398323	0.499792	0.620469
N71	N	0.893874	0.362107	-0.101925
N72	N	1.393874	0.862107	0.398075
C73	C	0.966656	-0.000234	0.169090
C74	C	1.466656	0.499766	0.669090
C75	C	0.965394	-0.000237	0.248033
C76	C	1.465394	0.499763	0.748033
C77	C	0.895798	-0.000224	0.278354
C78	C	1.395798	0.499776	0.778354
C79	C	0.827459	-0.000194	0.229727
C80	C	1.327459	0.499806	0.729727
C81	C	0.828722	-0.000181	0.150785
C82	C	1.328722	0.499819	0.650785
C83	C	0.822364	-0.000245	0.548090
C84	C	1.322364	0.499755	1.048090
C85	C	0.821106	-0.000262	0.627038
C86	C	1.321106	0.499738	1.127038
C87	C	0.959036	-0.000301	0.645338
C88	C	1.459036	0.499699	1.145338
C89	C	0.960299	-0.000288	0.566396
C90	C	1.460299	0.499712	1.066396
C91	C	0.891961	-0.000250	0.517776
C92	C	1.391961	0.499750	1.017776
C93	C	0.893330	-0.000244	0.432177
C94	C	1.393330	0.499756	0.932177
C95	C	0.894427	-0.000240	0.363951
C96	C	1.394427	0.499760	0.863951
C97	C	0.888102	-0.000156	0.759678
C98	C	1.388102	0.499844	1.259678
C99	C	0.889440	-0.000278	0.675660
C100	C	1.389440	0.499722	1.175660
H101	H	0.250232	-0.000105	-0.225025
H102	H	0.750232	0.499895	0.274975
H103	H	0.537526	-0.000200	0.021154
H104	H	1.037526	0.499800	0.521154
H105	H	0.140225	-0.000223	0.027517
H106	H	0.640225	0.499777	0.527517
H107	H	1.016971	-0.000305	0.541714
H108	H	1.516971	0.499695	1.041714
N109	N	0.293503	-0.000220	0.039392
N110	N	0.793503	0.499780	0.539392
N111	N	0.266418	-0.000239	0.101525
N112	N	0.766418	0.499761	0.601525
H113	H	0.301483	-0.000255	0.150832
H114	H	0.801483	0.499745	0.650832
N115	N	1.034739	-0.598203	-0.131910
N116	N	1.534739	-0.098203	0.368090
N117	N	1.039647	-0.672935	-0.189061
N118	N	1.539647	-0.172935	0.310939
H119	H	1.090854	-0.709234	-0.199965
H120	H	1.590854	-0.209234	0.300035
H121	H	1.021038	-0.000261	0.287618
H122	H	1.521038	0.499739	0.787618
H123	H	0.107012	-0.000125	-0.222734
H124	H	0.607012	0.499875	0.277266
N125	N	0.752958	-0.402364	-0.071831
N126	N	1.252958	0.097636	0.428169
N127	N	0.694417	-0.433127	-0.115155
N128	N	1.194417	0.066873	0.384845
H129	H	0.643189	-0.396999	-0.104208
H130	H	1.143189	0.103001	0.395792
N131	N	1.028851	-0.000339	0.694993
N132	N	1.528851	0.499661	1.194993
N133	N	1.075168	-0.098368	0.692303
N134	N	1.575168	0.401632	1.192303
H135	H	1.124475	-0.098401	0.727369
H136	H	1.624475	0.401599	1.227369
N137	N	0.923796	-0.402131	-0.242804
N138	N	1.423796	0.097869	0.257196
N139	N	0.880751	-0.433622	-0.301412
N140	N	1.380751	0.066378	0.198588
H141	H	0.891637	-0.397306	-0.352622
H142	H	1.391637	0.102694	0.147378
H143	H	0.764429	-0.000254	0.651721
H144	H	1.264429	0.499746	1.151721
H145	H	0.773078	-0.000160	0.111198
H146	H	1.273078	0.499840	0.611198
N147	N	1.004841	-0.402320	0.009019
N148	N	1.504841	0.097680	0.509019
N149	N	1.073075	-0.433907	0.006780
N150	N	1.573075	0.066093	0.506780
H151	H	1.113394	-0.397688	0.047125
H152	H	1.613394	0.102312	0.547125
N153	N	0.756369	-0.000217	0.260699
N154	N	1.256369	0.499783	0.760699
N155	N	0.710339	-0.098227	0.245756
N156	N	1.210339	0.401773	0.745756
H157	H	0.660130	-0.098253	0.267629
H158	H	1.160130	0.401747	0.767629
N159	N	0.690818	-0.000185	0.033032
N160	N	1.190818	0.499815	0.533032
N161	N	0.663739	-0.000218	0.095167
N162	N	1.163739	0.499782	0.595167
H163	H	0.698808	-0.000253	0.144472
H164	H	1.198808	0.499747	0.644472
H165	H	1.023330	-0.000253	0.144409
H166	H	1.523330	0.499747	0.644409
N167	N	0.752554	-0.000216	0.498443
N168	N	1.252554	0.499784	0.998443
N169	N	0.690421	-0.000216	0.525528
N170	N	1.190421	0.499784	1.025528
H171	H	0.641114	-0.000201	0.490463
H172	H	1.141114	0.499799	0.990463
N173	N	0.494238	-0.000093	-0.243242
N174	N	0.994238	0.499907	0.256758
N175	N	0.423755	-0.000126	-0.242108
N176	N	0.923755	0.499874	0.257892
H177	H	0.388670	-0.000135	-0.291403
H178	H	0.888670	0.499865	0.208597
N179	N	0.653824	-0.000082	-0.245803
N180	N	1.153824	0.499918	0.254197
N181	N	0.695840	-0.098091	-0.261896
N182	N	1.195840	0.401909	0.238104
H183	H	0.717710	-0.098099	-0.312107
H184	H	1.217710	0.401901	0.187893
H185	H	0.867110	-0.587706	0.024283
H186	H	1.367110	-0.087706	0.524283
N187	N	0.782762	-0.597606	-0.212854
N188	N	1.282762	-0.097606	0.287146
N189	N	0.714457	-0.567408	-0.209894
N190	N	1.214457	-0.067408	0.290106
H191	H	0.674049	-0.603387	-0.250220
H192	H	1.174049	-0.103387	0.249780
