data_functionalizedCrystal
_audit_creation_method	'MofGen! by Chris Wilmer'
_symmetry_space_group_name_H-M	'P1'
_symmetry_Int_Tables_number	1
_symmetry_cell_setting	triclinic
loop_
_symmetry_equiv_pos_as_xyz
  x,y,z
_cell_length_a	12.827892
_cell_length_b	19.077267
_cell_length_c	12.827885
_cell_angle_alpha	87.724392
_cell_angle_beta	89.970024
_cell_angle_gamma	92.283755
loop_
_atom_site_label
_atom_site_type_symbol
_atom_site_fract_x
_atom_site_fract_y
_atom_site_fract_z
Zn1	Zn	-0.480209	-1.076006	-0.526739
Zn2	Zn	-0.654983	-1.075935	-0.352004
Zn3	Zn	-0.473235	-0.958309	-0.359025
Zn4	Zn	-0.647883	-0.958299	-0.533713
O5	O	-0.564077	-1.017137	-0.442870
O6	O	-0.509283	-1.174484	-0.497703
O7	O	-0.630926	-1.060306	-0.206701
O8	O	-0.327926	-0.973956	-0.381293
O9	O	-0.637689	-1.174432	-0.369326
O10	O	-0.333050	-1.060427	-0.504512
O11	O	-0.497397	-0.973886	-0.211859
O12	O	-0.490512	-0.859820	-0.388055
O13	O	-0.625587	-0.973939	-0.679022
O14	O	-0.618825	-0.859812	-0.516397
O15	O	-0.502398	-1.060418	-0.673899
O16	O	-0.800275	-1.060296	-0.376088
O17	O	-0.795058	-0.973870	-0.509588
C18	C	-0.553142	-0.834279	-0.453745
C19	C	-0.548489	-0.756052	-0.458422
C20	C	-0.613049	-0.719270	-0.393681
C21	C	-0.608677	-0.645767	-0.398089
C22	C	-0.539740	-0.609048	-0.467235
C23	C	-0.475178	-0.645834	-0.531983
C24	C	-0.479556	-0.719336	-0.527579
C25	C	-0.519495	-0.389225	-0.487589
C26	C	-0.515120	-0.315718	-0.491986
C27	C	-0.648621	-0.315656	-0.358093
C28	C	-0.652988	-0.389159	-0.353691
C29	C	-0.588430	-0.425939	-0.418443
N30	N	-0.535268	-0.533916	-0.471740
N31	N	-0.592908	-0.501070	-0.413942
C32	C	-0.835585	-1.017093	-0.442854
C33	C	-0.951740	-1.017139	-0.442879
C34	C	-1.006075	-1.059956	-0.376886
C35	C	-1.126128	-1.060004	-0.376910
C36	C	-0.291511	-1.017200	-0.442908
C37	C	-0.175359	-1.017227	-0.442924
C38	C	-0.563979	-1.017185	-0.715438
C39	C	-0.563937	-1.017205	-0.831590
C40	C	-0.575042	-0.200709	-0.431939
C41	C	-0.579679	-0.278936	-0.427244
C42	C	-0.629986	-1.059973	-0.880821
C43	C	-0.629944	-1.059995	-1.000871
C44	C	-0.564102	-1.017130	-0.171361
C45	C	-0.563858	-1.017246	-0.055201
H46	H	-0.426984	-0.749282	-0.580298
H47	H	-0.686560	-1.096574	-0.834095
O48	O	-0.697304	-1.103659	-1.051545
C49	C	-0.758748	-1.143446	-1.217405
C50	C	-0.682391	-1.093969	-1.160147
H51	H	-0.746732	-1.135618	-1.305220
H52	H	-0.743811	-1.200224	-1.192709
H53	H	-0.842290	-1.131088	-1.196667
H54	H	-0.598820	-1.106263	-1.180857
H55	H	-0.697419	-1.037206	-1.184848
H56	H	-1.128650	-0.980565	-0.499422
H57	H	-0.419053	-0.615931	-0.588287
H58	H	-0.963716	-1.096581	-0.320372
H59	H	-0.507355	-0.980610	-0.878316
O60	O	-0.496535	-0.973525	-1.004583
C61	C	-0.476957	-0.878530	-0.886929
C62	C	-0.553314	-0.928010	-0.944181
H63	H	-0.522833	-0.841708	-0.838097
H64	H	-0.424330	-0.910837	-0.833842
H65	H	-0.427172	-0.846379	-0.946531
H66	H	-0.603168	-0.960171	-0.884654
H67	H	-0.605870	-0.895662	-0.997286
H68	H	-0.669181	-0.749163	-0.337371
O69	O	-0.456669	-0.424838	-0.550515
C70	C	-0.323819	-0.417136	-0.683808
C71	C	-0.394902	-0.376713	-0.612587
H72	H	-0.273878	-0.378244	-0.734027
H73	H	-0.271100	-0.451515	-0.633909
H74	H	-0.373920	-0.451583	-0.736267
H75	H	-0.344883	-0.342228	-0.560116
H76	H	-0.447627	-0.342378	-0.662548
O77	O	-0.671424	-0.610147	-0.335089
C78	C	-0.804333	-0.617842	-0.201854
C79	C	-0.733310	-0.658269	-0.273129
H80	H	-0.854401	-0.656732	-0.151757
H81	H	-0.754287	-0.583435	-0.149290
H82	H	-0.856943	-0.583424	-0.251812
H83	H	-0.680687	-0.692726	-0.223254
H84	H	-0.783418	-0.692633	-0.325699
O85	O	-0.720104	-0.424792	-0.286635
C86	C	-0.899132	-0.447205	-0.234207
C87	C	-0.823245	-0.406822	-0.310237
H88	H	-0.982535	-0.432680	-0.253249
H89	H	-0.891264	-0.506066	-0.242177
H90	H	-0.879760	-0.432728	-0.150851
H91	H	-0.842568	-0.421240	-0.393625
H92	H	-0.831126	-0.347971	-0.302177
O93	O	-0.448296	-0.279967	-0.559215
C94	C	-0.429485	-0.197054	-0.705320
C95	C	-0.505273	-0.237487	-0.629245
H96	H	-0.475522	-0.162711	-0.761973
H97	H	-0.372749	-0.162587	-0.659553
H98	H	-0.384070	-0.235978	-0.750799
H99	H	-0.550758	-0.198615	-0.583747
H100	H	-0.561939	-0.271966	-0.675071
H101	H	-0.701182	-0.285702	-0.305377
O102	O	-1.182013	-1.103737	-0.309633
C103	C	-1.352624	-1.143639	-0.248284
C104	C	-1.289461	-1.094072	-0.324529
H105	H	-1.439507	-1.135831	-0.260286
H106	H	-1.334583	-1.200392	-0.263351
H107	H	-1.330531	-1.131353	-0.164708
H108	H	-1.311518	-1.106294	-0.408134
H109	H	-1.307508	-1.037333	-0.309372
H110	H	-0.994102	-0.980520	-0.499399
