data_functionalizedCrystal
_audit_creation_method	'MofGen! by Chris Wilmer'
_symmetry_space_group_name_H-M	'P1'
_symmetry_Int_Tables_number	1
_symmetry_cell_setting	triclinic
loop_
_symmetry_equiv_pos_as_xyz
  x,y,z
_cell_length_a	21.395362
_cell_length_b	21.295417
_cell_length_c	21.395356
_cell_angle_alpha	89.969378
_cell_angle_beta	89.957023
_cell_angle_gamma	90.046383
loop_
_atom_site_label
_atom_site_type_symbol
_atom_site_fract_x
_atom_site_fract_y
_atom_site_fract_z
Zn1	Zn	0.957854	-0.250358	-0.354573
Zn2	Zn	1.291188	0.082975	-0.021240
Zn3	Zn	1.624521	0.416308	0.312094
Zn4	Zn	0.957759	-0.355627	-0.249790
Zn5	Zn	1.291092	-0.022293	0.083543
Zn6	Zn	1.624426	0.311040	0.416877
Zn7	Zn	0.853071	-0.250404	-0.249774
Zn8	Zn	1.186404	0.082929	0.083559
Zn9	Zn	1.519738	0.416262	0.416893
Zn10	Zn	0.853039	-0.355623	-0.354495
Zn11	Zn	1.186372	-0.022289	-0.021161
Zn12	Zn	1.519706	0.311044	0.312172
O13	O	0.905431	-0.303003	-0.302158
O14	O	1.238764	0.030330	0.031175
O15	O	1.572098	0.363664	0.364509
O16	O	1.045520	-0.264305	-0.340713
O17	O	1.378853	0.069029	-0.007379
O18	O	1.712186	0.402362	0.325954
O19	O	0.943846	-0.341690	-0.162110
O20	O	1.277179	-0.008356	0.171223
O21	O	1.610512	0.324977	0.504557
O22	O	0.867024	-0.162309	-0.263702
O23	O	1.200358	0.171024	0.069631
O24	O	1.533691	0.504358	0.402965
O25	O	1.045450	-0.341645	-0.263729
O26	O	1.378783	-0.008312	0.069604
O27	O	1.712116	0.325022	0.402938
O28	O	0.944008	-0.162275	-0.340697
O29	O	1.277341	0.171058	-0.007364
O30	O	1.610675	0.504392	0.325970
O31	O	0.866932	-0.264383	-0.162098
O32	O	1.200265	0.068950	0.171235
O33	O	1.533598	0.402283	0.504568
O34	O	0.765389	-0.264380	-0.263626
O35	O	1.098722	0.068954	0.069707
O36	O	1.432056	0.402287	0.403041
O37	O	0.866969	-0.341638	-0.442183
O38	O	1.200303	-0.008305	-0.108850
O39	O	1.533636	0.325028	0.224484
O40	O	0.765365	-0.341683	-0.340564
O41	O	1.098699	-0.008350	-0.007231
O42	O	1.432032	0.324984	0.326103
O43	O	0.943977	-0.264301	-0.442240
O44	O	1.277310	0.069032	-0.108907
O45	O	1.610644	0.402366	0.224426
O46	O	0.943814	-0.443716	-0.263653
O47	O	1.277148	-0.110382	0.069680
O48	O	1.610481	0.222951	0.403013
O49	O	0.866877	-0.443713	-0.340579
O50	O	1.200210	-0.110379	-0.007246
O51	O	1.533544	0.222954	0.326087
C52	C	0.742643	-0.303036	-0.302085
C53	C	1.075977	0.030297	0.031248
C54	C	1.409310	0.363630	0.364581
C55	C	0.673002	-0.303066	-0.302069
C56	C	1.006335	0.030268	0.031264
C57	C	1.339669	0.363601	0.364598
C58	C	0.640293	-0.343371	-0.342070
C59	C	0.973626	-0.010038	-0.008737
C60	C	1.306960	0.323296	0.324596
C61	C	0.574858	-0.343356	-0.342098
C62	C	0.908191	-0.010022	-0.008765
C63	C	1.241524	0.323311	0.324568
C64	C	0.542134	-0.303042	-0.302114
C65	C	0.875467	0.030292	0.031220
C66	C	1.208800	0.363625	0.364553
C67	C	0.574851	-0.262728	-0.262109
C68	C	0.908184	0.070605	0.071224
C69	C	1.241517	0.403938	0.404557
C70	C	0.640285	-0.262741	-0.262087
C71	C	0.973618	0.070593	0.071246
C72	C	1.306951	0.403926	0.404580
C73	C	0.438410	-0.297979	-0.245709
C74	C	0.771743	0.035354	0.087625
C75	C	1.105077	0.368687	0.420958
C76	C	0.372977	-0.297972	-0.245730
C77	C	0.706310	0.035362	0.087603
C78	C	1.039644	0.368695	0.420937
C79	C	0.340313	-0.303000	-0.302183
C80	C	0.673646	0.030333	0.031151
C81	C	1.006980	0.363666	0.364484
C82	C	0.373090	-0.308050	-0.358616
C83	C	0.706423	0.025283	-0.025283
C84	C	1.039757	0.358617	0.308051
C85	C	0.438524	-0.308062	-0.358594
C86	C	0.771858	0.025271	-0.025261
C87	C	1.105191	0.358604	0.308073
C88	C	0.471181	-0.303024	-0.302134
C89	C	0.804515	0.030310	0.031200
C90	C	1.137848	0.363643	0.364533
C91	C	0.236651	-0.343291	-0.342218
C92	C	0.569985	-0.009958	-0.008885
C93	C	0.903318	0.323376	0.324449
C94	C	0.171215	-0.343271	-0.342247
C95	C	0.504548	-0.009938	-0.008914
C96	C	0.837882	0.323395	0.324420
C97	C	0.171209	-0.262647	-0.262252
C98	C	0.504543	0.070686	0.071081
C99	C	0.837876	0.404019	0.404414
C100	C	0.236645	-0.262664	-0.262229
C101	C	0.569978	0.070669	0.071104
C102	C	0.903311	0.404003	0.404438
C103	C	0.269362	-0.302989	-0.302211
C104	C	0.602695	0.030344	0.031122
C105	C	0.936028	0.363678	0.364456
C106	C	0.905349	-0.466555	-0.302123
C107	C	1.238682	-0.133221	0.031210
C108	C	1.572015	0.200112	0.364543
C109	C	0.905371	-0.536523	-0.302129
C110	C	1.238704	-0.203189	0.031204
C111	C	1.572038	0.130144	0.364537
C112	C	0.945468	-0.569370	-0.262115
C113	C	1.278801	-0.236037	0.071218
C114	C	1.612135	0.097297	0.404552
C115	C	0.945497	-0.635113	-0.262129
C116	C	1.278831	-0.301779	0.071204
C117	C	1.612164	0.031554	0.404538
C118	C	0.905418	-0.668005	-0.302151
C119	C	1.238752	-0.334672	0.031182
C120	C	1.572085	-0.001339	0.364516
C121	C	0.865319	-0.635150	-0.342173
C122	C	1.198652	-0.301817	-0.008840
C123	C	1.531985	0.031517	0.324494
C124	C	0.865295	-0.569409	-0.342162
C125	C	1.198628	-0.236076	-0.008829
C126	C	1.531962	0.097258	0.324504
N127	N	0.850609	-0.771286	-0.306903
N128	N	1.183942	-0.437953	0.026430
N129	N	1.517275	-0.104620	0.359764
N130	N	0.850633	-0.833738	-0.306910
N131	N	1.183966	-0.500405	0.026424
N132	N	1.517300	-0.167071	0.359757
C133	C	0.905489	-0.866080	-0.302187
C134	C	1.238822	-0.532747	0.031146
C135	C	1.572155	-0.199413	0.364480
N136	N	0.960320	-0.833611	-0.297445
N137	N	1.293654	-0.500278	0.035888
N138	N	1.626987	-0.166945	0.369222
N139	N	0.960295	-0.771154	-0.297435
N140	N	1.293629	-0.437821	0.035898
N141	N	1.626962	-0.104488	0.369231
C142	C	0.905440	-0.739291	-0.302167
C143	C	1.238773	-0.405957	0.031166
C144	C	1.572107	-0.072624	0.364499
C145	C	0.945621	-0.970213	-0.262186
C146	C	1.278954	-0.636879	0.071148
C147	C	1.612287	-0.303546	0.404481
C148	C	0.945651	-1.035956	-0.262204
C149	C	1.278985	-0.702623	0.071129
C150	C	1.612318	-0.369290	0.404463
C151	C	0.865467	-1.035993	-0.342245
C152	C	1.198801	-0.702659	-0.008912
C153	C	1.532134	-0.369326	0.324422
C154	C	0.865442	-0.970250	-0.342230
C155	C	1.198776	-0.636917	-0.008896
C156	C	1.532109	-0.303584	0.324437
C157	C	0.905518	-0.937364	-0.302197
C158	C	1.238852	-0.604031	0.031137
C159	C	1.572185	-0.270698	0.364470
C160	C	1.068854	-0.302970	-0.302231
C161	C	1.402188	0.030363	0.031102
C162	C	1.735521	0.363697	0.364435
C163	C	1.138496	-0.302956	-0.302262
C164	C	1.471829	0.030377	0.031071
C165	C	1.805162	0.363711	0.364404
C166	C	0.905480	-0.302964	-0.465581
C167	C	1.238814	0.030369	-0.132248
C168	C	1.572147	0.363703	0.201085
C169	C	0.905501	-0.302947	-0.535223
C170	C	1.238835	0.030386	-0.201889
C171	C	1.572168	0.363719	0.131444
C172	C	0.905530	-0.138813	-0.302206
C173	C	1.238864	0.194521	0.031127
C174	C	1.572197	0.527854	0.364460
C175	C	0.905573	-0.068845	-0.302227
C176	C	1.238906	0.264489	0.031106
C177	C	1.572240	0.597822	0.364439
C178	C	0.865463	-0.262689	-0.567920
C179	C	1.198796	0.070644	-0.234586
C180	C	1.532130	0.403977	0.098747
C181	C	0.865461	-0.262678	-0.633355
C182	C	1.198794	0.070656	-0.300022
C183	C	1.532127	0.403989	0.033311
C184	C	0.905508	-0.302917	-0.666091
C185	C	1.238841	0.030416	-0.332758
C186	C	1.572175	0.363749	0.000576
C187	C	0.945549	-0.343183	-0.633386
C188	C	1.278883	-0.009850	-0.300053
C189	C	1.612216	0.323483	0.033281
C190	C	0.945546	-0.343198	-0.567952
C191	C	1.278879	-0.009865	-0.234618
C192	C	1.612212	0.323468	0.098715
C193	C	0.961960	-0.307851	-0.769796
C194	C	1.295293	0.025483	-0.436463
C195	C	1.628627	0.358816	-0.103129
C196	C	0.961965	-0.307831	-0.835229
C197	C	1.295298	0.025502	-0.501896
C198	C	1.628631	0.358835	-0.168562
C199	C	0.905518	-0.302875	-0.867912
C200	C	1.238852	0.030458	-0.534578
C201	C	1.572185	0.363792	-0.201245
C202	C	0.849066	-0.297925	-0.835153
C203	C	1.182399	0.035409	-0.501820
C204	C	1.515733	0.368742	-0.168487
C205	C	0.849063	-0.297940	-0.769719
C206	C	1.182396	0.035394	-0.436386
C207	C	1.515729	0.368727	-0.103053
C208	C	0.905516	-0.302906	-0.737043
C209	C	1.238849	0.030427	-0.403710
C210	C	1.572183	0.363761	-0.070377
C211	C	0.865474	-0.262602	-0.971562
C212	C	1.198808	0.070731	-0.638228
C213	C	1.532141	0.404064	-0.304895
C214	C	0.865471	-0.262595	-1.036998
C215	C	1.198805	0.070738	-0.703665
C216	C	1.532138	0.404072	-0.370332
C217	C	0.945565	-0.343097	-1.037028
C218	C	1.278899	-0.009764	-0.703694
C219	C	1.612232	0.323570	-0.370361
C220	C	0.945563	-0.343108	-0.971592
C221	C	1.278896	-0.009774	-0.638259
C222	C	1.612230	0.323559	-0.304926
C223	C	0.905518	-0.302857	-0.938863
C224	C	1.238852	0.030476	-0.605530
C225	C	1.572185	0.363810	-0.272196
C226	C	0.905418	-0.302997	-0.139370
C227	C	1.238751	0.030337	0.193963
C228	C	1.572085	0.363670	0.527296
C229	C	0.905518	-0.302836	-0.069729
C230	C	1.238852	0.030498	0.263604
C231	C	1.572185	0.363831	0.596937
H232	H	0.144584	-0.376091	-0.374825
H233	H	0.477918	-0.042758	-0.041491
H234	H	0.811251	0.290575	0.291842
Br235	Br	0.810931	-0.679788	-0.396494
Br236	Br	1.144264	-0.346455	-0.063161
Br237	Br	1.477597	-0.013122	0.270173
H238	H	0.832643	-0.542664	-0.374747
H239	H	1.165976	-0.209331	-0.041414
H240	H	1.499309	0.124003	0.291919
Br241	Br	0.328500	-0.291120	-0.169143
Br242	Br	0.661834	0.042213	0.164190
Br243	Br	0.995167	0.375547	0.497523
H244	H	0.144566	-0.229820	-0.229699
H245	H	0.477899	0.103513	0.103635
H246	H	0.811233	0.436847	0.436968
Br247	Br	0.281039	-0.207961	-0.207938
Br248	Br	0.614372	0.125372	0.125396
Br249	Br	0.947705	0.458706	0.458729
H250	H	0.464999	-0.293882	-0.199735
H251	H	0.798333	0.039452	0.133599
H252	H	1.131666	0.372785	0.466932
Br253	Br	0.684679	-0.208035	-0.207796
Br254	Br	1.018012	0.125298	0.125537
Br255	Br	1.351346	0.458632	0.458870
Br256	Br	0.999865	-0.524742	-0.207794
Br257	Br	1.333198	-0.191408	0.125540
Br258	Br	1.666532	0.141925	0.458873
Br259	Br	0.328769	-0.314873	-0.435237
Br260	Br	0.662103	0.018460	-0.101904
Br261	Br	0.995436	0.351793	0.231430
Br262	Br	0.999907	-0.397743	-0.927214
Br263	Br	1.333240	-0.064410	-0.593881
Br264	Br	1.666573	0.268923	-0.260547
H265	H	0.978174	-0.375860	-1.063680
H266	H	1.311507	-0.042526	-0.730347
H267	H	1.644841	0.290807	-0.397014
H268	H	0.832853	-0.229916	-0.541276
H269	H	1.166186	0.103417	-0.207942
H270	H	1.499520	0.436750	0.125391
Br271	Br	0.530442	-0.208011	-0.207849
Br272	Br	0.863775	0.125323	0.125484
Br273	Br	1.197108	0.458656	0.458818
H274	H	0.832867	-0.229828	-0.944912
H275	H	1.166201	0.103505	-0.611579
H276	H	1.499534	0.436839	-0.278245
H277	H	0.978255	-0.943436	-0.229590
H278	H	1.311589	-0.610102	0.103743
H279	H	1.644922	-0.276769	0.437076
Br280	Br	0.530457	-0.398058	-0.396391
Br281	Br	0.863790	-0.064725	-0.063058
Br282	Br	1.197123	0.268608	0.270275
Br283	Br	1.000080	-1.080536	-0.207900
Br284	Br	1.333413	-0.747203	0.125433
Br285	Br	1.666747	-0.413870	0.458766
Br286	Br	0.811080	-1.080626	-0.396568
Br287	Br	1.144413	-0.747292	-0.063235
Br288	Br	1.477747	-0.413959	0.270099
H289	H	0.832858	-0.229892	-0.659982
H290	H	1.166191	0.103441	-0.326649
H291	H	1.499525	0.436775	0.006684
Br292	Br	0.281057	-0.398014	-0.396480
Br293	Br	0.614391	-0.064681	-0.063147
Br294	Br	0.947724	0.268653	0.270186
Br295	Br	0.999919	-0.679701	-0.207820
Br296	Br	1.333252	-0.346368	0.125513
Br297	Br	1.666585	-0.013034	0.458846
Br298	Br	0.811020	-0.925669	-0.396537
Br299	Br	1.144354	-0.592335	-0.063203
Br300	Br	1.477687	-0.259002	0.270130
H301	H	0.803097	-0.293910	-0.743050
H302	H	1.136430	0.039423	-0.409717
H303	H	1.469764	0.372756	-0.076383
H304	H	0.465209	-0.312172	-0.404544
H305	H	0.798542	0.021161	-0.071210
H306	H	1.131875	0.354495	0.262123
Br307	Br	0.772455	-0.291191	-0.879500
Br308	Br	1.105788	0.042142	-0.546166
Br309	Br	1.439122	0.375475	-0.212833
H310	H	0.832863	-0.229814	-1.063619
H311	H	1.166196	0.103519	-0.730286
H312	H	1.499529	0.436853	-0.396953
H313	H	1.007932	-0.311859	-0.861896
H314	H	1.341265	0.021474	-0.528563
H315	H	1.674598	0.354807	-0.195229
Br316	Br	1.038572	-0.314585	-0.725448
Br317	Br	1.371905	0.018748	-0.392114
Br318	Br	1.705239	0.352081	-0.058781
H319	H	0.978156	-0.375947	-0.660043
H320	H	1.311489	-0.042613	-0.326710
H321	H	1.644823	0.290720	0.006623
Br322	Br	0.999887	-0.397839	-0.523574
Br323	Br	1.333221	-0.064505	-0.190240
Br324	Br	1.666554	0.268828	0.143093
H325	H	0.666927	-0.376206	-0.374628
H326	H	1.000261	-0.042873	-0.041295
H327	H	1.333594	0.290461	0.292039
