data_functionalizedCrystal
_audit_creation_method	'MofGen! by Chris Wilmer'
_symmetry_space_group_name_H-M	'P1'
_symmetry_Int_Tables_number	1
_symmetry_cell_setting	triclinic
loop_
_symmetry_equiv_pos_as_xyz
  x,y,z
_cell_length_a	17.077404
_cell_length_b	18.215405
_cell_length_c	18.215399
_cell_angle_alpha	90.030551
_cell_angle_beta	90.019592
_cell_angle_gamma	90.025110
loop_
_atom_site_label
_atom_site_type_symbol
_atom_site_fract_x
_atom_site_fract_y
_atom_site_fract_z
Zn1	Zn	1.200044	-0.292987	0.416098
Zn2	Zn	1.199947	-0.416059	0.293026
Zn3	Zn	1.068776	-0.293011	0.293046
Zn4	Zn	1.068740	-0.416017	0.416051
O5	O	1.134377	-0.354519	0.354555
O6	O	1.309878	-0.309321	0.399783
O7	O	1.182521	-0.399763	0.190044
O8	O	1.086245	-0.190024	0.309397
O9	O	1.309807	-0.399740	0.309363
O10	O	1.182688	-0.190006	0.399802
O11	O	1.086150	-0.309361	0.190059
O12	O	0.958924	-0.309321	0.309352
O13	O	1.086183	-0.399670	0.519042
O14	O	0.958898	-0.399693	0.399723
O15	O	1.182652	-0.309280	0.519076
O16	O	1.182486	-0.519037	0.309318
O17	O	1.086088	-0.519007	0.399704
C18	C	0.930429	-0.354505	0.354535
C19	C	0.843179	-0.354517	0.354544
C20	C	0.802196	-0.401645	0.401525
C21	C	0.720215	-0.401647	0.401537
C22	C	0.679220	-0.354524	0.354563
C23	C	0.720209	-0.307391	0.307580
C24	C	0.802188	-0.307386	0.307572
C25	C	0.549339	-0.307405	0.307598
C26	C	0.467354	-0.307411	0.307604
C27	C	0.467366	-0.401666	0.401562
C28	C	0.549345	-0.401661	0.401554
C29	C	0.590329	-0.354529	0.354570
C30	C	1.134294	-0.545725	0.354520
C31	C	1.134330	-0.627524	0.354529
C32	C	1.184642	-0.815709	0.307552
C33	C	1.184677	-0.892568	0.307570
C34	C	1.084212	-0.892576	0.401612
C35	C	1.084181	-0.815719	0.401597
C36	C	1.134395	-0.777287	0.354563
C37	C	1.134461	-0.931003	0.354595
C38	C	1.134499	-1.014337	0.354615
C39	C	1.134359	-0.693948	0.354544
C40	C	1.339121	-0.354533	0.354576
C41	C	1.426371	-0.354538	0.354585
C42	C	1.134425	-0.354468	0.546508
C43	C	1.134445	-0.354446	0.628307
C44	C	1.134481	-0.162566	0.354607
C45	C	1.134526	-0.080767	0.354629
C46	C	1.134374	-0.354516	0.163349
C47	C	1.134506	-0.354330	0.081551
C48	C	1.184694	-0.307336	0.816520
C49	C	1.184704	-0.307315	0.893379
C50	C	1.084251	-0.401442	0.893332
C51	C	1.084238	-0.401459	0.816475
C52	C	1.134464	-0.354408	0.778071
C53	C	1.134486	-0.354369	0.931787
C54	C	1.134496	-0.354346	1.015121
C55	C	1.134454	-0.354429	0.694732
H56	H	0.582721	-0.440037	0.439800
C57	C	1.239248	-0.256167	0.774956
C58	C	1.283223	-0.214925	0.825083
C59	C	1.333477	-0.167771	0.786824
H60	H	1.273502	-0.284242	0.744969
H61	H	1.209247	-0.224068	0.744995
H62	H	1.313221	-0.247020	0.855032
H63	H	1.248989	-0.186835	0.855073
H64	H	1.303476	-0.135672	0.756863
H65	H	1.367726	-0.195852	0.756838
H66	H	1.363315	-0.139778	0.820829
H67	H	0.433993	-0.440040	0.439820
C68	C	1.239253	-0.934415	0.256656
C69	C	1.228576	-1.009950	0.266771
C70	C	1.278872	-1.048522	0.219911
H71	H	1.227892	-0.921981	0.207150
H72	H	1.291981	-0.921785	0.267526
H73	H	1.175860	-1.022576	0.255896
H74	H	1.239943	-1.022406	0.316268
H75	H	1.331600	-1.035891	0.230781
H76	H	1.267507	-1.036082	0.170407
H77	H	1.271640	-1.099776	0.226772
C78	C	1.239109	-0.256115	0.935160
C79	C	1.194692	-0.208917	0.979271
C80	C	1.244782	-0.161731	1.017761
H81	H	1.273318	-0.284171	0.965203
H82	H	1.269002	-0.228054	0.901300
H83	H	1.164813	-0.236975	1.013128
H84	H	1.160484	-0.180845	0.949246
H85	H	1.274675	-0.133670	0.983900
H86	H	1.278989	-0.189793	1.047800
H87	H	1.214652	-0.129698	1.047689
H88	H	1.043328	-0.923876	0.439904
H89	H	1.043329	-0.439790	0.785168
C90	C	1.029597	-0.452440	0.934990
C91	C	0.951934	-0.436406	0.916302
C92	C	0.901565	-0.483366	0.954667
H93	H	1.040955	-0.501916	0.922410
H94	H	1.036745	-0.445685	0.986278
H95	H	0.944789	-0.443166	0.865025
H96	H	0.940551	-0.386938	0.928883
H97	H	0.908714	-0.476611	1.005955
H98	H	0.912930	-0.532839	0.942084
H99	H	0.848866	-0.472489	0.941998
C100	C	1.029538	-0.774130	0.452669
C101	C	0.985550	-0.824235	0.493844
C102	C	0.935203	-0.785951	0.540892
H103	H	1.059448	-0.744100	0.484819
H104	H	0.995301	-0.744209	0.424496
H105	H	1.019782	-0.854144	0.522015
H106	H	0.955624	-0.854267	0.461714
H107	H	0.900966	-0.756030	0.512720
H108	H	0.965119	-0.755922	0.573037
H109	H	0.905346	-0.819941	0.568830
H110	H	0.835568	-0.440021	0.439774
H111	H	0.433978	-0.269030	0.269363
C112	C	0.675860	-0.452905	0.452563
C113	C	0.729308	-0.494193	0.493677
C114	C	0.688478	-0.541432	0.540682
H115	H	0.643901	-0.424889	0.484754
H116	H	0.643874	-0.484971	0.424363
H117	H	0.761281	-0.462132	0.521875
H118	H	0.761270	-0.522225	0.461506
H119	H	0.656492	-0.573498	0.512482
H120	H	0.656520	-0.513410	0.572868
H121	H	0.724736	-0.569456	0.568579
H122	H	0.686824	-0.269019	0.269336
C123	C	0.593696	-0.256212	0.256499
C124	C	0.540249	-0.214962	0.215344
C125	C	0.581082	-0.167809	0.168255
H126	H	0.625709	-0.224113	0.284617
H127	H	0.625628	-0.284312	0.224343
H128	H	0.508330	-0.186864	0.247497
H129	H	0.508235	-0.247041	0.187211
H130	H	0.613015	-0.195909	0.136098
H131	H	0.613094	-0.135715	0.196379
H132	H	0.544825	-0.139820	0.140321
C133	C	0.846648	-0.256314	0.256437
C134	C	0.826683	-0.272260	0.183595
C135	C	0.867632	-0.225232	0.136469
H136	H	0.833273	-0.206854	0.267199
H137	H	0.901350	-0.263067	0.263112
H138	H	0.771994	-0.265501	0.176923
H139	H	0.840060	-0.321711	0.172810
H140	H	0.922334	-0.231985	0.143144
H141	H	0.854254	-0.175775	0.147238
H142	H	0.854097	-0.236049	0.087040
C143	C	1.239248	-0.774115	0.256464
C144	C	1.283274	-0.824218	0.215312
C145	C	1.333595	-0.785931	0.168249
H146	H	1.209318	-0.744177	0.224299
H147	H	1.273462	-0.744102	0.284624
H148	H	1.249064	-0.854219	0.187154
H149	H	1.313220	-0.854158	0.247457
H150	H	1.367809	-0.755918	0.196409
H151	H	1.303658	-0.755995	0.136089
H152	H	1.363477	-0.819920	0.140326
