data_functionalizedCrystal
_audit_creation_method	'MofGen! by Chris Wilmer'
_symmetry_space_group_name_H-M	'P1'
_symmetry_Int_Tables_number	1
_symmetry_cell_setting	triclinic
loop_
_symmetry_equiv_pos_as_xyz
  x,y,z
_cell_length_a	6.817900
_cell_length_b	16.418049
_cell_length_c	12.200875
_cell_angle_alpha	94.314492
_cell_angle_beta	107.143593
_cell_angle_gamma	103.389670
loop_
_atom_site_label
_atom_site_type_symbol
_atom_site_fract_x
_atom_site_fract_y
_atom_site_fract_z
V1	V	-4.067906	-0.116076	-0.358066
V2	V	-3.567906	0.383924	0.141934
O3	O	-4.055058	0.005382	-0.350834
O4	O	-3.555058	0.505382	0.149166
O5	O	-4.018735	-0.229972	-0.356016
O6	O	-3.518735	0.270028	0.143984
O7	O	-4.037635	-0.114377	-0.514048
O8	O	-3.537635	0.385623	-0.014048
O9	O	-4.036027	-0.111013	-0.191708
O10	O	-3.536027	0.388987	0.308292
V11	V	-4.549284	-0.101538	-0.338119
V12	V	-4.049284	0.398462	0.161881
O13	O	-4.333868	-0.147967	-0.401819
O14	O	-3.833868	0.352033	0.098181
O15	O	-4.733520	-0.069648	-0.294366
O16	O	-4.233520	0.430352	0.205634
O17	O	-4.375249	0.012357	-0.340168
O18	O	-3.875249	0.512357	0.159832
O19	O	-4.679528	-0.222997	-0.345351
O20	O	-4.179528	0.277003	0.154649
O21	O	-4.698559	-0.106602	-0.504477
O22	O	-4.198559	0.393398	-0.004477
O23	O	-4.356349	-0.103238	-0.182137
O24	O	-3.856349	0.396762	0.317863
C25	C	-3.862961	-0.257734	-0.350471
C26	C	-3.362961	0.242266	0.149529
C27	C	-3.904166	-0.350846	-0.349835
C28	C	-3.404166	0.149154	0.150165
C29	C	-3.887069	-0.110280	-0.552054
C30	C	-3.387069	0.389720	-0.052054
C31	C	-3.943598	-0.109644	-0.679573
C32	C	-3.443598	0.390356	-0.179573
C33	C	-4.181698	-0.569338	-0.354132
C34	C	-3.681698	-0.069338	0.145868
C35	C	-4.220403	-0.656827	-0.353545
C36	C	-3.720403	-0.156827	0.146455
C37	C	-3.854851	-0.648276	-0.342060
C38	C	-3.354851	-0.148276	0.157940
C39	C	-3.816152	-0.560790	-0.342655
C40	C	-3.316152	-0.060790	0.157345
C41	C	-3.979580	-0.521322	-0.348686
C42	C	-3.479580	-0.021322	0.151314
C43	C	-4.056984	-0.696298	-0.347503
C44	C	-3.556984	-0.196298	0.152497
C45	C	-4.098949	-0.791157	-0.346866
C46	C	-3.598949	-0.291157	0.153134
C47	C	-3.937614	-0.426457	-0.349325
C48	C	-3.437614	0.073543	0.150675
C49	C	-4.047053	-0.108481	-0.913044
C50	C	-3.547053	0.391519	-0.413044
C51	C	-3.989475	-0.109128	-0.783124
C52	C	-3.489475	0.390872	-0.283124
C53	C	-4.194364	0.040115	-0.345711
C54	C	-3.694364	0.540115	0.154289
C55	C	-4.132398	0.133226	-0.346354
C56	C	-3.632398	0.633226	0.153646
C57	C	-4.170256	-0.107337	-0.144124
C58	C	-3.670256	0.392663	0.355876
C59	C	-4.092965	-0.107969	-0.016604
C60	C	-3.592965	0.392031	0.483396
H61	H	-4.314773	-0.537206	-0.359041
H62	H	-3.814773	-0.037206	0.140959
F63	F	-3.601023	-0.509686	-0.336865
F64	F	-3.101023	-0.009686	0.163135
H65	H	-4.384986	-0.695918	-0.357982
H66	H	-3.884986	-0.195918	0.142018
F67	F	-3.680932	-0.690288	-0.335637
F68	F	-3.180932	-0.190288	0.164363
