data_functionalizedCrystal
_audit_creation_method	'MofGen! by Chris Wilmer'
_symmetry_space_group_name_H-M	'P1'
_symmetry_Int_Tables_number	1
_symmetry_cell_setting	triclinic
loop_
_symmetry_equiv_pos_as_xyz
  x,y,z
_cell_length_a	18.101398
_cell_length_b	18.101395
_cell_length_c	16.120256
_cell_angle_alpha	92.871553
_cell_angle_beta	92.873216
_cell_angle_gamma	90.027218
loop_
_atom_site_label
_atom_site_type_symbol
_atom_site_fract_x
_atom_site_fract_y
_atom_site_fract_z
Zn1	Zn	1.110881	-0.316190	-0.471491
Zn2	Zn	1.117054	-0.433750	-0.332076
Zn3	Zn	0.993319	-0.309917	-0.332082
Zn4	Zn	0.986992	-0.439981	-0.471429
O5	O	1.052062	-0.374960	-0.401770
O6	O	1.215332	-0.331802	-0.453021
O7	O	1.105872	-0.412091	-0.215415
O8	O	1.008978	-0.207118	-0.350604
O9	O	1.219867	-0.418173	-0.350594
O10	O	1.095351	-0.211726	-0.453027
O11	O	1.014964	-0.321111	-0.215419
O12	O	0.888848	-0.327153	-0.350543
O13	O	0.998195	-0.428793	-0.588100
O14	O	0.884200	-0.422710	-0.452920
O15	O	1.089216	-0.337844	-0.588146
O16	O	1.099737	-0.538208	-0.350533
O17	O	1.004181	-0.542786	-0.452915
C18	C	0.859653	-0.374928	-0.401726
C19	C	0.777339	-0.374933	-0.401727
C20	C	0.478245	-0.374982	-0.401797
C21	C	0.512456	-0.314588	-0.337699
C22	C	0.598086	-0.314730	-0.337425
C23	C	0.626629	-0.374957	-0.401763
C24	C	0.596591	-0.451886	-0.377755
C25	C	0.510966	-0.451546	-0.377309
C26	C	0.505885	-0.359132	-0.490054
C27	C	0.591557	-0.357373	-0.489573
C28	C	0.710489	-0.374947	-0.401744
C29	C	0.394385	-0.374996	-0.401814
C30	C	1.051961	-0.567369	-0.401734
C31	C	1.051985	-0.649683	-0.401747
C32	C	1.052069	-0.800393	-0.401780
C33	C	0.991920	-0.834656	-0.466147
C34	C	0.992124	-0.920286	-0.466418
C35	C	1.052149	-0.948777	-0.401813
C36	C	1.129160	-0.918667	-0.425457
C37	C	1.128760	-0.833042	-0.425905
C38	C	1.035914	-0.828053	-0.313616
C39	C	1.034218	-0.913727	-0.314105
C40	C	1.052200	-1.032637	-0.401830
C41	C	1.052023	-0.716533	-0.401765
C42	C	1.245222	-0.374992	-0.401814
C43	C	1.327535	-0.375006	-0.401833
C44	C	1.042311	-0.384713	-0.619218
C45	C	1.038156	-0.388870	-0.711881
C46	C	1.052182	-0.181800	-0.401823
C47	C	1.052233	-0.099487	-0.401846
C48	C	1.073729	-0.353266	-0.922848
C49	C	1.030545	-0.396427	-0.881533
C50	C	1.034781	-0.392221	-0.787130
C51	C	1.069494	-0.357471	-1.017259
C52	C	1.061817	-0.365191	-0.185168
C53	C	1.066116	-0.360826	-0.092505
H54	H	0.614918	-0.497918	-0.422980
H55	H	0.980900	-0.805544	-0.292046
C56	C	1.127975	-0.299089	-0.874859
H57	H	1.123745	-0.303343	-0.816786
H58	H	1.116553	-0.249947	-0.889070
H59	H	1.177101	-0.310569	-0.889098
C60	C	1.095152	-0.797725	-0.248831
H61	H	1.129565	-0.768347	-0.275337
H62	H	1.120295	-0.837777	-0.224130
H63	H	1.072137	-0.768323	-0.207066
H64	H	1.143642	-0.942938	-0.489200
C65	C	0.487306	-0.328134	-0.249865
H66	H	0.456049	-0.370436	-0.252087
H67	H	0.460977	-0.286200	-0.229477
H68	H	0.529384	-0.336139	-0.213845
C69	C	0.629702	-0.328447	-0.249079
H70	H	0.590200	-0.333964	-0.213219
H71	H	0.659738	-0.287646	-0.229184
H72	H	0.658663	-0.372207	-0.250328
H73	H	0.990388	-0.436534	-0.917061
H74	H	0.491216	-0.257234	-0.352582
C75	C	0.625601	-0.237495	-0.357735
H76	H	0.584425	-0.205749	-0.366225
H77	H	0.652675	-0.241308	-0.406740
H78	H	0.656667	-0.217771	-0.312753
H79	H	0.493860	-0.465454	-0.312789
C80	C	0.480247	-0.514046	-0.437700
H81	H	0.520106	-0.539541	-0.462383
H82	H	0.449239	-0.493542	-0.479880
H83	H	0.452455	-0.547606	-0.408105
C84	C	0.475421	-0.284953	-0.519547
H85	H	0.492757	-0.276447	-0.572914
H86	H	0.491813	-0.246063	-0.481264
H87	H	0.422894	-0.286590	-0.522666
C88	C	0.629392	-0.471110	-0.291532
H89	H	0.661389	-0.432359	-0.270049
H90	H	0.656517	-0.515897	-0.296412
H91	H	0.590501	-0.476916	-0.254934
H92	H	0.611087	-0.300781	-0.507675
C93	C	0.617396	-0.412902	-0.557548
H94	H	0.650053	-0.447695	-0.533156
H95	H	0.642358	-0.387175	-0.597836
H96	H	0.575708	-0.438113	-0.583578
C97	C	0.475612	-0.418616	-0.554576
H98	H	0.446268	-0.452948	-0.527903
H99	H	0.515688	-0.443813	-0.579160
H100	H	0.446186	-0.395783	-0.596459
H101	H	0.934902	-0.940703	-0.451639
C102	C	0.914329	-0.806032	-0.446418
H103	H	0.917918	-0.772925	-0.398753
H104	H	0.883413	-0.846571	-0.435847
H105	H	0.893790	-0.780923	-0.492482
C106	C	1.005764	-0.809481	-0.553897
H107	H	1.048043	-0.778183	-0.551478
H108	H	0.963875	-0.783189	-0.574469
H109	H	1.013932	-0.851545	-0.589878
H110	H	1.002566	-0.943671	-0.531747
H111	H	1.142893	-0.815919	-0.490347
H112	H	1.174903	-0.810269	-0.381052
C113	C	1.191156	-0.943369	-0.364089
H114	H	1.170575	-0.972338	-0.323409
H115	H	1.214847	-0.901041	-0.337558
H116	H	1.226287	-0.971982	-0.393444
C117	C	0.957745	-0.940290	-0.289937
H118	H	0.936821	-0.972597	-0.333119
H119	H	0.926244	-0.898870	-0.281836
H120	H	0.963012	-0.965840	-0.239931
H121	H	1.075151	-0.932837	-0.263604
