data_functionalizedCrystal
_audit_creation_method	'MofGen! by Chris Wilmer'
_symmetry_space_group_name_H-M	'P1'
_symmetry_Int_Tables_number	1
_symmetry_cell_setting	triclinic
loop_
_symmetry_equiv_pos_as_xyz
  x,y,z
_cell_length_a	21.295417
_cell_length_b	12.759401
_cell_length_c	12.759393
_cell_angle_alpha	89.980163
_cell_angle_beta	89.960780
_cell_angle_gamma	90.032032
loop_
_atom_site_label
_atom_site_type_symbol
_atom_site_fract_x
_atom_site_fract_y
_atom_site_fract_z
Zn1	Zn	-0.250546	1.606140	-0.593965
Zn2	Zn	-0.355830	1.605986	-0.418261
Zn3	Zn	-0.250582	1.430442	-0.418300
Zn4	Zn	-0.355784	1.430382	-0.593899
O5	O	-0.303186	1.518237	-0.506106
O6	O	-0.264517	1.753140	-0.570669
O7	O	-0.341903	1.582660	-0.271245
O8	O	-0.162488	1.453838	-0.441646
O9	O	-0.341869	1.753027	-0.441580
O10	O	-0.162461	1.582922	-0.570706
O11	O	-0.264577	1.453689	-0.271274
O12	O	-0.264533	1.283413	-0.441582
O13	O	-0.341790	1.453736	-0.740929
O14	O	-0.341825	1.283369	-0.570594
O15	O	-0.264472	1.582864	-0.740977
O16	O	-0.443914	1.582602	-0.441516
O17	O	-0.443880	1.453586	-0.570556
C18	C	-0.303178	1.245270	-0.506085
C19	C	-0.303190	1.128493	-0.506101
C20	C	-0.343497	1.073636	-0.573172
C21	C	-0.343499	0.963912	-0.573193
C22	C	-0.262886	0.963912	-0.439063
C23	C	-0.262881	1.073634	-0.439048
C24	C	-0.466737	1.518099	-0.506048
C25	C	-0.536705	1.518137	-0.506058
C26	C	-0.569569	1.585375	-0.438936
C27	C	-0.635311	1.585424	-0.438960
C28	C	-0.668188	1.518216	-0.506094
C29	C	-0.635317	1.450974	-0.573230
C30	C	-0.569575	1.450934	-0.573212
N31	N	-0.771454	1.426309	-0.514097
N32	N	-0.833906	1.426350	-0.514108
C33	C	-0.866262	1.518334	-0.506155
N34	N	-0.833808	1.610278	-0.498169
N35	N	-0.771351	1.610236	-0.498153
C36	C	-0.739473	1.518253	-0.506122
C37	C	-0.970411	1.585631	-0.439054
C38	C	-1.036155	1.585682	-0.439085
C39	C	-1.036159	1.451222	-0.573350
C40	C	-0.970417	1.451181	-0.573325
C41	C	-0.937547	1.518384	-0.506171
C42	C	-0.138995	1.518404	-0.506188
C43	C	-0.069027	1.518475	-0.506222
C44	C	-0.303122	1.518311	-0.780140
C45	C	-0.303095	1.518342	-0.896916
C46	C	-0.303194	1.792270	-0.506128
C47	C	-0.303197	1.909047	-0.506137
C48	C	-0.262824	1.451211	-0.951793
C49	C	-0.262805	1.451235	-1.061517
C50	C	-0.343329	1.585531	-1.061479
C51	C	-0.343351	1.585500	-0.951757
C52	C	-0.303204	1.518225	-0.233139
C53	C	-0.303053	1.518397	-0.116363
H54	H	-0.662074	1.640181	-0.384301
N55	N	-0.534127	1.378395	-0.645599
H56	H	-0.487493	1.388564	-0.635395
H57	H	-0.545567	1.394711	-0.720653
H58	H	-0.376103	1.640210	-1.106143
N59	N	-0.934953	1.658111	-0.366632
H60	H	-0.965750	1.700721	-0.324118
H61	H	-0.907624	1.706689	-0.409431
H62	H	-0.376147	1.640169	-0.907075
H63	H	-0.662089	1.396255	-0.627893
N64	N	-0.219368	1.378834	-1.120707
H65	H	-0.244939	1.330128	-1.166207
H66	H	-0.193880	1.336357	-1.069248
N67	N	-0.219402	1.132797	-0.366698
H68	H	-0.244945	1.178280	-0.317924
H69	H	-0.190265	1.178301	-0.409555
H70	H	-0.542808	1.640098	-0.384258
H71	H	-1.062927	1.396505	-0.628017
N72	N	-0.386970	1.132808	-0.645490
H73	H	-0.412504	1.081402	-0.687983
H74	H	-0.361380	1.178378	-0.694184
H75	H	-1.062911	1.640442	-0.384429
H76	H	-0.376320	0.919252	-0.627810
N77	N	-0.934966	1.378652	-0.645714
H78	H	-0.965767	1.336080	-0.688247
H79	H	-0.907740	1.330040	-0.602892
H80	H	-0.230068	0.919233	-0.384470
N81	N	-0.219406	1.378781	-0.892641
H82	H	-0.193892	1.336258	-0.944059
H83	H	-0.245034	1.330120	-0.847095
