data_functionalizedCrystal
_audit_creation_method	'MofGen! by Chris Wilmer'
_symmetry_space_group_name_H-M	'P1'
_symmetry_Int_Tables_number	1
_symmetry_cell_setting	triclinic
loop_
_symmetry_equiv_pos_as_xyz
  x,y,z
_cell_length_a	6.817900
_cell_length_b	12.840933
_cell_length_c	15.301126
_cell_angle_alpha	81.451757
_cell_angle_beta	104.177575
_cell_angle_gamma	88.345099
loop_
_atom_site_label
_atom_site_type_symbol
_atom_site_fract_x
_atom_site_fract_y
_atom_site_fract_z
V1	V	-3.901751	0.325536	-0.126885
O2	O	-3.888198	0.319013	0.003912
O3	O	-3.857437	0.323624	-0.249489
O4	O	-3.797316	0.467371	-0.125892
O5	O	-3.948734	0.174271	-0.120541
V6	V	-4.392110	0.307406	-0.111127
O7	O	-4.148013	0.365307	-0.161452
O8	O	-4.596045	0.267634	-0.076560
O9	O	-4.213217	0.309318	0.011477
O10	O	-4.523059	0.313929	-0.241923
O11	O	-4.462523	0.458671	-0.117471
O12	O	-4.273338	0.165571	-0.112120
C13	C	-3.705244	0.318569	-0.279348
C14	C	-3.749926	0.317951	-0.379585
C15	C	-3.951095	0.322874	-0.431303
C16	C	-3.993066	0.322300	-0.525487
C17	C	-3.833865	0.316793	-0.567949
C18	C	-3.632680	0.311872	-0.516225
C19	C	-3.590712	0.312455	-0.422044
C20	C	-3.720168	0.310656	-0.712528
C21	C	-3.762138	0.310071	-0.806715
C22	C	-4.122522	0.320501	-0.815971
C23	C	-4.080554	0.321083	-0.721790
C24	C	-3.879370	0.316160	-0.670071
C25	C	-3.628567	0.501931	-0.121683
C26	C	-3.624414	0.620063	-0.121681
C27	C	-4.105429	0.131005	-0.116327
C28	C	-4.088432	0.012873	-0.116326
V29	V	-3.884699	0.811700	-0.126891
O30	O	-3.921064	0.962890	-0.120546
O31	O	-3.790412	0.664514	-0.125899
O32	O	-3.838846	0.853416	-0.249494
O33	O	-3.872295	0.772681	0.003905
V34	V	-4.373112	0.849106	-0.111138
O35	O	-4.132900	0.796262	-0.161461
O36	O	-4.574315	0.887230	-0.076574
O37	O	-4.244587	0.985044	-0.112128
O38	O	-4.453937	0.703832	-0.117485
O39	O	-4.502707	0.894041	-0.241935
O40	O	-4.196152	0.796142	0.011467
C41	C	-4.028753	0.314370	0.041331
C42	C	-3.963307	0.314995	0.141567
C43	C	-3.686205	0.861026	-0.279346
C44	C	-3.729551	0.898273	-0.379581
C45	C	-4.012728	0.771564	0.041327
C46	C	-3.948657	0.733281	0.141564
C47	C	-3.930097	0.921230	-0.431285
C48	C	-3.970852	0.956242	-0.525465
C49	C	-3.811059	0.968290	-0.567941
C50	C	-3.610495	0.945333	-0.516230
C51	C	-3.569742	0.910328	-0.422050
C52	C	-3.744636	0.702891	0.184021
C53	C	-3.684403	0.666932	0.278206
C54	C	-3.828197	0.661356	0.329931
C55	C	-4.032235	0.691753	0.287468
C56	C	-4.092463	0.727718	0.193286
H57	H	-4.210191	0.325561	-0.687218
F58	F	-4.207174	0.327539	-0.580525
F59	F	-3.376602	0.307219	-0.367002
F60	F	-3.506046	0.305422	-0.657488
F61	F	-4.120546	0.328731	-0.386119
F62	F	-3.764068	0.623075	0.430169
H63	H	-4.149297	0.687208	0.329597
F64	F	-4.309616	0.760051	0.148109
F65	F	-3.592699	0.304230	-0.851908
H66	H	-4.060235	0.911421	-0.396715
F67	F	-4.184319	0.980664	-0.580484
F68	F	-3.854463	1.005544	-0.668177
F69	F	-3.440450	0.958156	-0.561449
F70	F	-4.336638	0.325747	-0.871015
H71	H	-3.503060	0.307395	-0.550806
F72	F	-3.591564	0.708818	0.128988
F73	F	-3.356288	0.885891	-0.367033
F74	F	-3.467245	0.634583	0.323380
