data_functionalizedCrystal
_audit_creation_method	'MofGen! by Chris Wilmer'
_symmetry_space_group_name_H-M	'P1'
_symmetry_Int_Tables_number	1
_symmetry_cell_setting	triclinic
loop_
_symmetry_equiv_pos_as_xyz
  x,y,z
_cell_length_a	13.032721
_cell_length_b	19.805407
_cell_length_c	19.805399
_cell_angle_alpha	90.016510
_cell_angle_beta	97.154168
_cell_angle_gamma	82.799202
loop_
_atom_site_label
_atom_site_type_symbol
_atom_site_fract_x
_atom_site_fract_y
_atom_site_fract_z
Zn1	Zn	-0.416156	-1.000508	-0.416944
Zn2	Zn	0.083844	-0.500508	0.083056
Zn3	Zn	-0.590918	-0.986062	-0.318131
Zn4	Zn	-0.090918	-0.486062	0.181869
Zn5	Zn	-0.416177	-0.887326	-0.303771
Zn6	Zn	0.083823	-0.387326	0.196229
Zn7	Zn	-0.590846	-0.872926	-0.431273
Zn8	Zn	-0.090846	-0.372926	0.068727
O9	O	-0.503524	-0.936705	-0.367530
O10	O	-0.003524	-0.436705	0.132470
O11	O	-0.439359	-1.093306	-0.403849
O12	O	0.060641	-0.593306	0.096151
O13	O	-0.567777	-0.972945	-0.221513
O14	O	-0.067777	-0.472945	0.278487
O15	O	-0.269936	-0.914412	-0.306778
O16	O	0.230064	-0.414412	0.193222
O17	O	-0.567756	-1.082693	-0.331252
O18	O	-0.067756	-0.582693	0.168748
O19	O	-0.269921	-0.997566	-0.389925
O20	O	0.230079	-0.497566	0.110075
O21	O	-0.439396	-0.900404	-0.210963
O22	O	0.060604	-0.400404	0.289037
O23	O	-0.439326	-0.790701	-0.320671
O24	O	0.060674	-0.290701	0.179329
O25	O	-0.567634	-0.889869	-0.524085
O26	O	-0.067634	-0.389869	-0.024085
O27	O	-0.567655	-0.780121	-0.414346
O28	O	-0.067655	-0.280121	0.085654
O29	O	-0.439290	-0.983603	-0.513558
O30	O	0.060710	-0.483603	-0.013558
O31	O	-0.737146	-0.958982	-0.345146
O32	O	-0.237146	-0.458982	0.154854
O33	O	-0.737094	-0.875861	-0.428270
O34	O	-0.237094	-0.375861	0.071730
C35	C	-0.503486	-0.760852	-0.367506
C36	C	-0.003486	-0.260852	0.132494
C37	C	-0.503495	-0.685620	-0.367514
C38	C	-0.003495	-0.185620	0.132486
C39	C	-0.436756	-0.655793	-0.405390
C40	C	0.063244	-0.155793	0.094610
C41	C	-0.436759	-0.585104	-0.405391
C42	C	0.063241	-0.085104	0.094609
C43	C	-0.503507	-0.544243	-0.367520
C44	C	-0.003507	-0.044243	0.132480
C45	C	-0.570249	-0.574075	-0.329639
C46	C	-0.070249	-0.074075	0.170361
C47	C	-0.570240	-0.644762	-0.329634
C48	C	-0.070240	-0.144762	0.170366
C49	C	-0.570287	-0.288998	-0.329656
C50	C	-0.070287	0.211002	0.170344
C51	C	-0.570294	-0.218306	-0.329665
C52	C	-0.070294	0.281694	0.170335
C53	C	-0.436806	-0.229340	-0.405413
C54	C	0.063194	0.270660	0.094587
C55	C	-0.436797	-0.300028	-0.405408
C56	C	0.063203	0.199972	0.094592
C57	C	-0.503535	-0.329854	-0.367525
C58	C	-0.003535	0.170146	0.132475
C59	C	-0.503529	-0.406502	-0.367523
C60	C	-0.003529	0.093498	0.132477
C61	C	-0.503519	-0.467595	-0.367525
C62	C	-0.003519	0.032405	0.132475
C63	C	-0.775038	-0.914310	-0.389836
C64	C	-0.275038	-0.414310	0.110164
C65	C	-0.891193	-0.904790	-0.399401
C66	C	-0.391193	-0.404790	0.100599
C67	C	-0.942969	-0.941709	-0.362568
C68	C	-0.442969	-0.441709	0.137432
C69	C	-1.063021	-0.931872	-0.372453
C70	C	-0.563021	-0.431872	0.127547
C71	C	-0.230950	-0.959207	-0.345151
C72	C	0.269050	-0.459207	0.154849
C73	C	-0.114796	-0.968796	-0.335615
C74	C	0.385204	-0.468796	0.164385
C75	C	-0.503452	-0.936741	-0.544067
C76	C	-0.003452	-0.436741	-0.044067
C77	C	-0.503421	-0.936756	-0.619296
C78	C	-0.003421	-0.436756	-0.119296
C79	C	-0.503556	-0.113245	-0.367547
C80	C	-0.003556	0.386755	0.132453
C81	C	-0.503549	-0.188478	-0.367538
C82	C	-0.003549	0.311522	0.132462
C83	C	-0.436566	-0.898997	-0.649146
C84	C	0.063434	-0.398997	-0.149146
C85	C	-0.436546	-0.899008	-0.719833
C86	C	0.063454	-0.399008	-0.219833
C87	C	-0.503376	-0.936782	-0.760668
C88	C	-0.003376	-0.436782	-0.260668
C89	C	-0.570237	-0.974543	-0.730814
C90	C	-0.070237	-0.474543	-0.230814
C91	C	-0.570262	-0.974528	-0.660129
C92	C	-0.070262	-0.474528	-0.160129
C93	C	-0.570140	-0.974605	-1.015879
C94	C	-0.070140	-0.474605	-0.515879
C95	C	-0.570107	-0.974619	-1.086569
C96	C	-0.070107	-0.474619	-0.586569
C97	C	-0.436424	-0.899085	-1.075583
C98	C	0.063576	-0.399085	-0.575583
C99	C	-0.436448	-0.899070	-1.004898
C100	C	0.063552	-0.399070	-0.504898
C101	C	-0.503314	-0.936827	-0.975050
C102	C	-0.003314	-0.436827	-0.475050
C103	C	-0.503336	-0.936814	-0.898404
C104	C	-0.003336	-0.436814	-0.398404
C105	C	-0.503349	-0.936800	-0.837313
C106	C	-0.003349	-0.436800	-0.337313
C107	C	-0.503521	-0.936715	-0.191673
C108	C	-0.003521	-0.436715	0.308327
C109	C	-0.503258	-0.936855	-0.116420
C110	C	-0.003258	-0.436855	0.383580
H111	H	-0.624592	-0.540800	-0.298799
H112	H	-0.124592	-0.040800	0.201201
F113	F	-1.121242	-0.881038	-0.423244
F114	F	-0.621242	-0.381038	0.076756
H115	H	-0.382415	-0.560823	-0.436235
H116	H	0.117585	-0.060823	0.063765
F117	F	-0.949417	-0.853960	-0.450189
F118	F	-0.449417	-0.353960	0.049811
H119	H	-0.898422	-0.980603	-0.323718
H120	H	-0.398422	-0.480603	0.176282
F121	F	-0.641298	-1.014794	-0.984122
F122	F	-0.141298	-0.514794	-0.484122
H123	H	-0.382025	-0.868313	-0.971652
H124	H	0.117975	-0.368313	-0.471652
F125	F	-1.056577	-1.019636	-0.284830
F126	F	-0.556577	-0.519636	0.215170
F127	F	-0.641274	-0.676506	-0.289322
F128	F	-0.141274	-0.176506	0.210678
H129	H	-0.382140	-0.868241	-0.615901
H130	H	0.117860	-0.368241	-0.115901
F131	F	-0.365429	-0.858791	-0.751600
F132	F	0.134571	-0.358791	-0.251600
H133	H	-0.381982	-0.868339	-1.099893
H134	H	0.118018	-0.368339	-0.599893
H135	H	-0.624657	-1.005296	-0.764068
H136	H	-0.124657	-0.505296	-0.264068
F137	F	-0.641242	-1.014824	-1.130028
F138	F	-0.141242	-0.514824	-0.630028
H139	H	-0.624694	-1.005281	-0.635826
H140	H	-0.124694	-0.505281	-0.135826
H141	H	-0.382447	-0.333294	-0.436250
H142	H	0.117553	0.166706	0.063750
F143	F	-0.365775	-0.197592	-0.445730
F144	F	0.134225	0.302408	0.054270
F145	F	-0.365716	-0.699274	-0.445702
F146	F	0.134284	-0.199274	0.054298
F147	F	-0.641298	-0.320733	-0.289324
F148	F	-0.141298	0.179267	0.210676
F149	F	-0.641338	-0.174819	-0.289353
F150	F	-0.141338	0.325181	0.210647
