data_functionalizedCrystal
_audit_creation_method	'MofGen! by Chris Wilmer'
_symmetry_space_group_name_H-M	'P1'
_symmetry_Int_Tables_number	1
_symmetry_cell_setting	triclinic
loop_
_symmetry_equiv_pos_as_xyz
  x,y,z
_cell_length_a	14.908783
_cell_length_b	15.299816
_cell_length_c	15.298431
_cell_angle_alpha	91.589788
_cell_angle_beta	96.945832
_cell_angle_gamma	84.168431
loop_
_atom_site_label
_atom_site_type_symbol
_atom_site_fract_x
_atom_site_fract_y
_atom_site_fract_z
Zn1	Zn	1.303345	-0.177329	-0.616140
Zn2	Zn	1.352951	-0.345863	-0.497347
Zn3	Zn	1.184505	-0.210509	-0.464177
Zn4	Zn	1.175865	-0.332091	-0.635539
O5	O	1.254167	-0.266448	-0.553301
O6	O	1.433771	-0.191562	-0.606145
O7	O	1.354983	-0.347557	-0.371517
O8	O	1.183125	-0.084693	-0.462334
O9	O	1.470217	-0.315384	-0.518869
O10	O	1.270436	-0.060316	-0.573981
O11	O	1.231226	-0.248114	-0.347146
O12	O	1.059513	-0.234760	-0.481145
O13	O	1.168399	-0.291912	-0.754396
O14	O	1.053165	-0.324086	-0.607044
O15	O	1.262058	-0.178209	-0.740144
O16	O	1.346605	-0.465450	-0.537680
O17	O	1.216501	-0.455333	-0.639209
C18	C	1.024227	-0.281529	-0.542601
C19	C	0.925857	-0.287999	-0.538048
C20	C	0.703043	-0.171345	-0.620570
C21	C	0.610614	-0.177420	-0.616295
C22	C	0.648569	-0.306220	-0.525217
C23	C	0.740998	-0.300145	-0.529492
C24	C	0.768230	-0.232706	-0.577172
C25	C	0.860661	-0.226635	-0.581452
C26	C	0.898614	-0.355431	-0.490369
C27	C	0.806185	-0.361506	-0.486094
C28	C	1.286019	-0.491868	-0.594169
C29	C	1.299720	-0.588294	-0.611685
C30	C	1.156760	-0.911175	-0.428431
C31	C	1.143882	-0.820578	-0.411976
C32	C	1.182841	-0.762503	-0.461901
C33	C	1.234679	-0.795033	-0.528286
C34	C	1.247553	-0.885638	-0.544748
C35	C	1.273633	-0.736966	-0.578218
C36	C	1.325472	-0.769496	-0.644602
C37	C	1.338344	-0.860093	-0.661061
C38	C	1.299385	-0.918168	-0.611135
C39	C	1.260760	-0.646361	-0.561756
C40	C	1.351552	-0.620824	-0.678072
C41	C	1.364431	-0.711421	-0.694528
C42	C	1.485004	-0.251308	-0.564043
C43	C	1.583373	-0.244856	-0.568620
C44	C	1.208731	-0.229823	-0.779636
C45	C	1.189369	-0.214216	-0.876087
C46	C	1.222210	-0.040143	-0.512293
C47	C	1.208593	0.056295	-0.494818
C48	C	1.115837	-0.155105	-0.908704
C49	C	1.097634	-0.140443	-0.999323
C50	C	1.152966	-0.184885	-1.057334
C51	C	1.226503	-0.243992	-1.024717
C52	C	1.244703	-0.258660	-0.934089
C53	C	1.281832	-0.288440	-1.082720
C54	C	1.355370	-0.347547	-1.050103
C55	C	1.373567	-0.362212	-0.959483
C56	C	1.318235	-0.317771	-0.901472
C57	C	1.263632	-0.273771	-1.173348
C58	C	1.392498	-0.377327	-1.198734
C59	C	1.410701	-0.391989	-1.108114
C60	C	1.299467	-0.302865	-0.327837
C61	C	1.318966	-0.318216	-0.231351
H62	H	0.725215	-0.116437	-0.659397
H63	H	1.433436	-0.410353	-0.932931
C64	C	0.969343	-0.422188	-0.443376
C65	C	0.955247	-0.506496	-0.476682
C66	C	1.020390	-0.568014	-0.433427
H67	H	0.964135	-0.419950	-0.382065
H68	H	1.028308	-0.408973	-0.452769
H69	H	0.896297	-0.519707	-0.467282
H70	H	0.960463	-0.508763	-0.537989
H71	H	1.079355	-0.554800	-0.442819
H72	H	1.015177	-0.565768	-0.372117
H73	H	1.010840	-0.625223	-0.456024
C74	C	1.394459	-0.895447	-0.733248
C75	C	1.340537	-0.941759	-0.795963
C76	C	1.392196	-0.974326	-0.862479
H77	H	1.444730	-0.933657	-0.708411
H78	H	1.415796	-0.847904	-0.760676
H79	H	1.319214	-0.989295	-0.768537
H80	H	1.290267	-0.903567	-0.820822
H81	H	1.413533	-0.926783	-0.889908
H82	H	1.442466	-1.012533	-0.837634
H83	H	1.355616	-1.005745	-0.905043
H84	H	1.333055	-0.329702	-0.827681
C85	C	1.420539	-0.746788	-0.766715
C86	C	1.366606	-0.793103	-0.829418
C87	C	1.418255	-0.825688	-0.895935
H88	H	1.470807	-0.785001	-0.741876
H89	H	1.441879	-0.699254	-0.794155
H90	H	1.345279	-0.840631	-0.801982
H91	H	1.316338	-0.754909	-0.854280
H92	H	1.439596	-0.778155	-0.923374
H93	H	1.468522	-0.863898	-0.871088
H94	H	1.381667	-0.857110	-0.938491
H95	H	0.882831	-0.171724	-0.620276
H96	H	1.070790	-0.118933	-0.861465
H97	H	1.203758	-0.225645	-1.199896
C98	C	1.114579	-0.974371	-0.374298
C99	C	1.136967	-1.060676	-0.402912
C100	C	1.098132	-1.118918	-0.353054
H101	H	1.050453	-0.961542	-0.381456
H102	H	1.137193	-0.968172	-0.313904
H103	H	1.114349	-1.066872	-0.463292
H104	H	1.201087	-1.073532	-0.395752
H105	H	1.120746	-1.112719	-0.292660
H106	H	1.034007	-1.106081	-0.360216
H107	H	1.113324	-1.177483	-0.372456
C108	C	1.393819	-0.557641	-0.732158
C109	C	1.371472	-0.471337	-0.703517
C110	C	1.410395	-0.413106	-0.753310
H111	H	1.371259	-0.563781	-0.792561
H112	H	1.457949	-0.570537	-0.724945
H113	H	1.307354	-0.458446	-0.710737
H114	H	1.394032	-0.465170	-0.643121
H115	H	1.474526	-0.426002	-0.746097
H116	H	1.387832	-0.419253	-0.813710
H117	H	1.395245	-0.354543	-0.733879
H118	H	1.101675	-0.794095	-0.357927
H119	H	1.309872	-0.991941	-0.624527
C120	C	1.452659	-0.425699	-1.261570
C121	C	1.520935	-0.480624	-1.213613
C122	C	1.576357	-0.525205	-1.271474
H123	H	1.479526	-0.384350	-1.292728
H124	H	1.417070	-0.460047	-1.302187
H125	H	1.556519	-0.446278	-1.173012
H126	H	1.494094	-0.521989	-1.182458
H127	H	1.540768	-0.559553	-1.312091
H128	H	1.603218	-0.483849	-1.302629
H129	H	1.622684	-0.562482	-1.238945
H130	H	0.557540	-0.127452	-0.651632
H131	H	1.218552	-0.619883	-0.507705
C132	C	0.776551	-0.434810	-0.434494
C133	C	0.721544	-0.486052	-0.491188
C134	C	0.694240	-0.553598	-0.443691
H135	H	0.743311	-0.410156	-0.389037
H136	H	0.828591	-0.470537	-0.409284
H137	H	0.669513	-0.450331	-0.516384
H138	H	0.754765	-0.510727	-0.536645
H139	H	0.746279	-0.589324	-0.418481
H140	H	0.661003	-0.528936	-0.398235
H141	H	0.656921	-0.588378	-0.482152
C142	C	0.618926	-0.379515	-0.473610
C143	C	0.563912	-0.430757	-0.530297
C144	C	0.536596	-0.498289	-0.482790
H145	H	0.585687	-0.354848	-0.428158
H146	H	0.670960	-0.415245	-0.448394
H147	H	0.511886	-0.395032	-0.555500
H148	H	0.597132	-0.455444	-0.575750
H149	H	0.588630	-0.534019	-0.457574
H150	H	0.503361	-0.473614	-0.437339
H151	H	0.499273	-0.533069	-0.521247
H152	H	1.172353	-0.688736	-0.448498
H153	H	1.138141	-0.172942	-1.131120
H154	H	1.037757	-0.092321	-1.025874
H155	H	1.470576	-0.440114	-1.081544
