data_functionalizedCrystal
_audit_creation_method	'MofGen! by Chris Wilmer'
_symmetry_space_group_name_H-M	'P1'
_symmetry_Int_Tables_number	1
_symmetry_cell_setting	triclinic
loop_
_symmetry_equiv_pos_as_xyz
  x,y,z
_cell_length_a	19.805407
_cell_length_b	19.077068
_cell_length_c	19.076929
_cell_angle_alpha	85.532199
_cell_angle_beta	87.717783
_cell_angle_gamma	92.327086
loop_
_atom_site_label
_atom_site_type_symbol
_atom_site_fract_x
_atom_site_fract_y
_atom_site_fract_z
Zn1	Zn	1.007405	-0.296663	0.409867
Zn2	Zn	1.507405	0.203337	0.909867
Zn3	Zn	1.007325	-0.409822	0.296712
Zn4	Zn	1.507325	0.090178	0.796712
Zn5	Zn	0.898964	-0.291953	0.291995
Zn6	Zn	1.398964	0.208047	0.791995
Zn7	Zn	0.889447	-0.414513	0.414553
Zn8	Zn	1.389447	0.085487	0.914553
O9	O	0.950785	-0.353238	0.353281
O10	O	1.450785	0.146762	0.853281
O11	O	1.102110	-0.311682	0.394869
O12	O	1.602110	0.188318	0.894869
O13	O	0.996901	-0.390252	0.197439
O14	O	1.496901	0.109748	0.697439
O15	O	0.917365	-0.193929	0.303696
O16	O	1.417365	0.306071	0.803696
O17	O	1.102052	-0.394819	0.311735
O18	O	1.602052	0.105181	0.811735
O19	O	0.997037	-0.197389	0.390296
O20	O	1.497037	0.302611	0.890296
O21	O	0.917288	-0.303654	0.193974
O22	O	1.417288	0.196346	0.693974
O23	O	0.802986	-0.308203	0.308240
O24	O	1.302986	0.191797	0.808240
O25	O	0.901144	-0.402814	0.512578
O26	O	1.401144	0.097186	1.012578
O27	O	0.795993	-0.398247	0.398282
O28	O	1.295993	0.101753	0.898282
O29	O	0.987808	-0.316230	0.509135
O30	O	1.487808	0.183770	1.009135
O31	O	0.987672	-0.509093	0.316278
O32	O	1.487672	-0.009093	0.816278
O33	O	0.901067	-0.512540	0.402856
O34	O	1.401067	-0.012540	0.902856
C35	C	0.774931	-0.353223	0.353258
C36	C	1.274931	0.146777	0.853258
C37	C	0.699698	-0.353235	0.353266
C38	C	1.199698	0.146765	0.853266
C39	C	0.943346	-0.536396	0.360603
C40	C	1.443346	-0.036396	0.860603
C41	C	0.940224	-0.614752	0.363759
C42	C	1.440224	-0.114752	0.863759
C43	C	0.660731	-0.400186	0.400080
C44	C	1.160731	0.099814	0.900080
C45	C	0.590042	-0.400187	0.400090
C46	C	1.090042	0.099813	0.900090
C47	C	0.558321	-0.353241	0.353282
C48	C	1.058321	0.146759	0.853282
C49	C	0.597294	-0.306285	0.306464
C50	C	1.097294	0.193715	0.806464
C51	C	0.667981	-0.306281	0.306458
C52	C	1.167981	0.193719	0.806458
C53	C	0.312219	-0.306302	0.306488
C54	C	0.812219	0.193698	0.806488
C55	C	0.241526	-0.306311	0.306497
C56	C	0.741526	0.193689	0.806497
C57	C	0.234279	-0.400208	0.400120
C58	C	0.734279	0.099792	0.900120
C59	C	0.304967	-0.400204	0.400114
C60	C	0.804967	0.099796	0.900114
C61	C	0.343933	-0.353246	0.353300
C62	C	0.843933	0.146754	0.853300
C63	C	0.420582	-0.353244	0.353291
C64	C	0.920582	0.146756	0.853291
C65	C	0.481674	-0.353246	0.353287
C66	C	0.981674	0.146754	0.853287
C67	C	0.983880	-0.649748	0.320202
C68	C	1.483880	-0.149748	0.820202
C69	C	0.980948	-0.723373	0.323175
C70	C	1.480948	-0.223373	0.823175
C71	C	0.934356	-0.762000	0.369700
C72	C	1.434356	-0.262000	0.869700
C73	C	0.890698	-0.726999	0.413261
C74	C	1.390698	-0.226999	0.913261
C75	C	0.893634	-0.653376	0.410292
C76	C	1.393634	-0.153376	0.910292
C77	C	0.920740	-0.982385	0.383413
C78	C	1.420740	-0.482385	0.883413
C79	C	0.917806	-1.056014	0.386378
C80	C	1.417806	-0.556014	0.886378
C81	C	1.008057	-1.052382	0.296292
C82	C	1.508057	-0.552382	0.796292
C83	C	1.010986	-0.978758	0.293324
C84	C	1.510986	-0.478758	0.793324
C85	C	0.967330	-0.943763	0.336887
C86	C	1.467330	-0.443763	0.836887
N87	N	0.931356	-0.837257	0.372738
N88	N	1.431356	-0.337257	0.872738
N89	N	0.970334	-0.868508	0.333853
N90	N	1.470334	-0.368508	0.833853
C91	C	1.127326	-0.353253	0.353305
C92	C	1.627326	0.146747	0.853305
C93	C	1.202558	-0.353259	0.353315
C94	C	1.702558	0.146741	0.853315
C95	C	0.943423	-0.360571	0.537149
C96	C	1.443423	0.139429	1.037149
C97	C	0.940286	-0.363696	0.615503
C98	C	1.440286	0.136304	1.115503
C99	C	0.958271	-0.169365	0.345947
C100	C	1.458271	0.330635	0.845947
C101	C	0.961462	-0.091010	0.342821
C102	C	1.461462	0.408990	0.842821
C103	C	0.958159	-0.345882	0.170127
C104	C	1.458159	0.154118	0.670127
C105	C	0.961436	-0.342559	0.091766
C106	C	1.461436	0.157441	0.591766
C107	C	0.917788	-0.386164	1.056745
C108	C	1.417788	0.113836	1.556745
C109	C	0.920733	-0.383218	0.983123
C110	C	1.420733	0.116782	1.483123
C111	C	0.967330	-0.336669	0.944523
C112	C	1.467330	0.163331	1.444523
C113	C	1.010980	-0.293059	0.979549
C114	C	1.510980	0.206941	1.479549
C115	C	1.008031	-0.296002	1.053169
C116	C	1.508031	0.203998	1.553169
C117	C	0.980987	-0.323029	0.724149
C118	C	1.480987	0.176971	1.224149
C119	C	0.983934	-0.320090	0.650524
C120	C	1.483934	0.179910	1.150524
C121	C	0.893686	-0.410249	0.654103
C122	C	1.393686	0.089751	1.154103
C123	C	0.890744	-0.413191	0.727725
C124	C	1.390744	0.086809	1.227725
C125	C	0.934391	-0.369578	0.762744
C126	C	1.434391	0.130422	1.262744
N127	N	0.970344	-0.333658	0.869270
N128	N	1.470344	0.166342	1.369270
N129	N	0.931374	-0.372587	0.837996
N130	N	1.431374	0.127413	1.337996
H131	H	0.686552	-0.438417	0.438196
H132	H	1.186552	0.061583	0.938196
H133	H	1.043571	-0.260492	1.081682
H134	H	1.543571	0.239508	1.581682
C135	C	0.840234	-0.463723	0.769758
C136	C	1.340234	0.036277	1.269758
C137	C	0.847014	-0.456988	0.841728
C138	C	1.347014	0.043012	1.341728
C139	C	0.800511	-0.503544	0.880471
C140	C	1.300511	-0.003544	1.380471
H141	H	0.795622	-0.452983	0.757373
H142	H	1.295622	0.047017	1.257373
H143	H	0.848714	-0.510618	0.759611
H144	H	1.348714	-0.010618	1.259611
H145	H	0.838530	-0.410104	0.851870
H146	H	1.338530	0.089896	1.351870
H147	H	0.891616	-0.467735	0.854134
H148	H	1.391616	0.032265	1.354134
H149	H	0.808990	-0.550439	0.870324
H150	H	1.308990	-0.050439	1.370324
H151	H	0.755901	-0.492799	0.868080
H152	H	1.255901	0.007201	1.368080
H153	H	0.805108	-0.498985	0.929307
H154	H	1.305108	0.001015	1.429307
C155	C	0.710324	-0.255224	0.255741
C156	C	1.210324	0.244776	0.755741
C157	C	0.751131	-0.211681	0.293922
C158	C	1.251131	0.288319	0.793922
C159	C	0.790137	-0.164629	0.247226
C160	C	1.290137	0.335371	0.747226
H161	H	0.738092	-0.280830	0.226038
H162	H	1.238092	0.219170	0.726038
H163	H	0.681331	-0.227225	0.227874
H164	H	1.181331	0.272775	0.727874
H165	H	0.780121	-0.239675	0.321777
H166	H	1.280121	0.260325	0.821777
H167	H	0.723380	-0.186058	0.323623
H168	H	1.223380	0.313942	0.823623
H169	H	0.761144	-0.136631	0.219359
H170	H	1.261144	0.363369	0.719359
H171	H	0.817901	-0.190241	0.217525
H172	H	1.317901	0.309759	0.717525
H173	H	0.817824	-0.135075	0.273125
H174	H	1.317824	0.364925	0.773125
H175	H	0.343937	-0.268071	0.268364
H176	H	0.843937	0.231929	0.768364
H177	H	1.016531	-0.287520	0.752653
H178	H	1.516531	0.212480	1.252653
C179	C	1.061611	-0.936732	0.242923
C180	C	1.561611	-0.436732	0.742923
C181	C	1.105036	-0.895989	0.281173
C182	C	1.605036	-0.395989	0.781173
C183	C	1.151672	-0.857257	0.234765
C184	C	1.651672	-0.357257	0.734765
H185	H	1.087263	-0.968035	0.217386
H186	H	1.587263	-0.468035	0.717386
H187	H	1.038134	-0.906782	0.211038
H188	H	1.538134	-0.406782	0.711038
H189	H	1.128512	-0.925937	0.313046
H190	H	1.628512	-0.425937	0.813046
H191	H	1.079404	-0.864673	0.306708
H192	H	1.579404	-0.364673	0.806708
H193	H	1.128195	-0.827307	0.202880
H194	H	1.628195	-0.327307	0.702880
H195	H	1.177319	-0.888565	0.209231
H196	H	1.677319	-0.388565	0.709231
H197	H	1.181138	-0.829604	0.260711
H198	H	1.681138	-0.329604	0.760711
C199	C	0.547852	-0.451251	0.450939
C200	C	1.047852	0.048749	0.950939
C201	C	0.590761	-0.492382	0.491911
C202	C	1.090761	0.007618	0.991911
C203	C	0.551921	-0.539441	0.538754
C204	C	1.051921	-0.039441	1.038754
H205	H	0.520133	-0.425651	0.480696
H206	H	1.020133	0.074349	0.980696
H207	H	0.520124	-0.480883	0.425160
H208	H	1.020124	0.019117	0.925160
H209	H	0.618478	-0.462755	0.517689
H210	H	1.118478	0.037245	1.017689
H211	H	0.618481	-0.517997	0.462174
H212	H	1.118481	-0.017997	0.962174
H213	H	0.524193	-0.569072	0.512974
H214	H	1.024193	-0.069072	1.012974
H215	H	0.524203	-0.513835	0.568506
H216	H	1.024203	-0.013835	1.068506
H217	H	0.581029	-0.567358	0.566554
H218	H	1.081029	-0.067358	1.066554
C219	C	1.055571	-1.090286	0.249039
C220	C	1.555571	-0.590286	0.749039
C221	C	1.122625	-1.072909	0.263722
C222	C	1.622625	-0.572909	0.763722
C223	C	1.166418	-1.107803	0.220201
C224	C	1.666418	-0.607803	0.720201
H225	H	1.047248	-1.139675	0.257423
H226	H	1.547248	-0.639675	0.757423
H227	H	1.048123	-1.076343	0.201167
H228	H	1.548123	-0.576343	0.701167
H229	H	1.130070	-1.086856	0.311583
H230	H	1.630070	-0.586856	0.811583
H231	H	1.130969	-1.023526	0.255335
H232	H	1.630969	-0.523526	0.755335
H233	H	1.158970	-1.093860	0.172329
H234	H	1.658970	-0.593860	0.672329
H235	H	1.158089	-1.157190	0.228588
H236	H	1.658089	-0.657190	0.728588
H237	H	1.211919	-1.096012	0.230153
H238	H	1.711919	-0.596012	0.730153
C239	C	0.840193	-0.768904	0.463892
C240	C	1.340193	-0.268904	0.963892
C241	C	0.852812	-0.753750	0.532932
C242	C	1.352812	-0.253750	1.032932
C243	C	0.806305	-0.792345	0.579592
C244	C	1.306305	-0.292345	1.079592
H245	H	0.795589	-0.756502	0.453143
H246	H	1.295589	-0.256502	0.953143
H247	H	0.844699	-0.817772	0.459469
H248	H	1.344699	-0.317772	0.959469
H249	H	0.848300	-0.704893	0.537352
H250	H	1.348300	-0.204893	1.037352
H251	H	0.897408	-0.766155	0.543703
H252	H	1.397408	-0.266155	1.043703
H253	H	0.810811	-0.841213	0.575169
H254	H	1.310811	-0.341213	1.075169
H255	H	0.761703	-0.779940	0.568836
H256	H	1.261703	-0.279940	1.068836
H257	H	0.814864	-0.782074	0.626441
H258	H	1.314864	-0.282074	1.126441
C259	C	0.339279	-0.451204	0.451015
C260	C	0.839279	0.048796	0.951015
C261	C	0.290023	-0.492310	0.492031
C262	C	0.790023	0.007690	0.992031
C263	C	0.321605	-0.539291	0.538937
C264	C	0.821605	-0.039291	1.038937
H265	H	0.366684	-0.480864	0.425305
H266	H	0.866684	0.019136	0.925305
H267	H	0.366704	-0.425524	0.480733
H268	H	0.866704	0.074476	0.980733
H269	H	0.262609	-0.517988	0.462317
H270	H	0.762609	-0.017988	0.962317
H271	H	0.262616	-0.462669	0.517756
H272	H	0.762616	0.037331	1.017756
H273	H	0.349030	-0.513611	0.568655
H274	H	0.849030	-0.013611	1.068655
H275	H	0.349008	-0.568946	0.513221
H276	H	0.849008	-0.068946	1.013221
H277	H	0.288189	-0.567182	0.566776
H278	H	0.788189	-0.067182	1.066776
H279	H	0.858085	-0.624883	0.445761
H280	H	1.358085	-0.124883	0.945761
C281	C	1.034550	-0.269474	0.608737
C282	C	1.534550	0.230526	1.108737
C283	C	1.072131	-0.231895	0.655161
C284	C	1.572131	0.268105	1.155161
C285	C	1.118755	-0.185259	0.616693
C286	C	1.618755	0.314741	1.116693
H287	H	1.064156	-0.295218	0.581091
H288	H	1.564156	0.204782	1.081091
H289	H	1.011073	-0.237574	0.578803
H290	H	1.511073	0.262426	1.078803
H291	H	1.095606	-0.263791	0.685083
H292	H	1.595606	0.236209	1.185083
H293	H	1.042542	-0.206137	0.682808
H294	H	1.542542	0.293863	1.182808
H295	H	1.095279	-0.153358	0.586759
H296	H	1.595279	0.346642	1.086759
H297	H	1.148357	-0.211008	0.589049
H298	H	1.648357	0.288992	1.089049
H299	H	1.144255	-0.159751	0.648185
H300	H	1.644255	0.340249	1.148185
C301	C	1.034536	-0.607940	0.269664
C302	C	1.534536	-0.107940	0.769664
C303	C	1.072152	-0.654350	0.232169
C304	C	1.572152	-0.154350	0.732169
C305	C	1.118830	-0.615864	0.185614
C306	C	1.618830	-0.115864	0.685614
H307	H	1.011121	-0.578024	0.237704
H308	H	1.511121	-0.078024	0.737704
H309	H	1.064109	-0.580273	0.295483
H310	H	1.564109	-0.080273	0.795483
H311	H	1.042583	-0.682005	0.206352
H312	H	1.542583	-0.182005	0.706352
H313	H	1.095582	-0.684266	0.264111
H314	H	1.595582	-0.184266	0.764111
H315	H	1.148403	-0.588197	0.211433
H316	H	1.648403	-0.088197	0.711433
H317	H	1.095409	-0.585950	0.153659
H318	H	1.595409	-0.085950	0.653659
H319	H	1.144362	-0.647348	0.160173
H320	H	1.644362	-0.147348	0.660173
H321	H	1.048918	-0.255155	0.948115
H322	H	1.548918	0.244845	1.448115
C323	C	0.846411	-0.457629	0.615988
C324	C	1.346411	0.042371	1.115988
C325	C	0.884589	-0.501114	0.575512
C326	C	1.384589	-0.001114	1.075512
C327	C	0.841061	-0.544763	0.540382
C328	C	1.341061	-0.044763	1.040382
H329	H	0.818220	-0.485839	0.649438
H330	H	1.318220	0.014161	1.149438
H331	H	0.819183	-0.429526	0.586150
H332	H	1.319183	0.070474	1.086150
H333	H	0.911805	-0.529214	0.605348
H334	H	1.411805	-0.029214	1.105348
H335	H	0.912778	-0.472923	0.542050
H336	H	1.412778	0.027077	1.042050
H337	H	0.813833	-0.516660	0.510544
H338	H	1.313833	-0.016660	1.010544
H339	H	0.812872	-0.572968	0.573838
H340	H	1.312872	-0.072968	1.073838
H341	H	0.866958	-0.574268	0.512911
H342	H	1.366958	-0.074268	1.012911
H343	H	0.571462	-0.268058	0.268355
H344	H	1.071462	0.231942	0.768355
C345	C	0.867241	-1.098078	0.436823
C346	C	1.367241	-0.598078	0.936823
C347	C	0.874001	-1.170043	0.430080
C348	C	1.374001	-0.670043	0.930080
C349	C	0.827427	-1.208813	0.476526
C350	C	1.327427	-0.708813	0.976526
H351	H	0.875648	-1.087964	0.483743
H352	H	1.375648	-0.587964	0.983743
H353	H	0.822650	-1.085681	0.425974
H354	H	1.322650	-0.585681	0.925974
H355	H	0.918582	-1.182435	0.440934
H356	H	1.418582	-0.682435	0.940934
H357	H	0.865588	-1.180178	0.383170
H358	H	1.365588	-0.680178	0.883170
H359	H	0.782836	-1.196417	0.465677
H360	H	1.282836	-0.696417	0.965677
H361	H	0.835839	-1.198694	0.523443
H362	H	1.335839	-0.698694	1.023443
H363	H	0.832003	-1.257645	0.471953
H364	H	1.332003	-0.757645	0.971953
H365	H	0.885192	-0.953899	0.418883
H366	H	1.385192	-0.453899	0.918883
H367	H	0.202545	-0.438441	0.438241
H368	H	0.702545	0.061559	0.938241
H369	H	0.215702	-0.268077	0.268379
H370	H	0.715702	0.231923	0.768379
H371	H	0.879846	-0.424072	1.088168
H372	H	1.379846	0.075928	1.588168
H373	H	1.016497	-0.751863	0.287706
H374	H	1.516497	-0.251863	0.787706
H375	H	0.885198	-0.418733	0.954613
H376	H	1.385198	0.081267	1.454613
