data_functionalizedCrystal
_audit_creation_method	'MofGen! by Chris Wilmer'
_symmetry_space_group_name_H-M	'P1'
_symmetry_Int_Tables_number	1
_symmetry_cell_setting	triclinic
loop_
_symmetry_equiv_pos_as_xyz
  x,y,z
_cell_length_a	6.817900
_cell_length_b	9.582860
_cell_length_c	16.015572
_cell_angle_alpha	76.189886
_cell_angle_beta	104.485554
_cell_angle_gamma	111.206767
loop_
_atom_site_label
_atom_site_type_symbol
_atom_site_fract_x
_atom_site_fract_y
_atom_site_fract_z
V1	V	-4.003263	-0.060387	-0.269347
O2	O	-3.950086	0.153916	-0.264383
O3	O	-3.994506	-0.264976	-0.267348
O4	O	-3.926564	0.006805	-0.386890
O5	O	-4.018499	-0.119746	-0.144013
V6	V	-4.485422	-0.042583	-0.254375
O7	O	-4.267516	-0.099440	-0.302189
O8	O	-4.671367	-0.003529	-0.221533
O9	O	-4.270973	0.162006	-0.256374
O10	O	-4.655995	-0.256885	-0.259339
O11	O	-4.587583	0.016777	-0.379709
O12	O	-4.338915	-0.109774	-0.136832
C13	C	-3.850066	-0.316921	-0.263058
C14	C	-3.924004	-0.483749	-0.262208
C15	C	-3.763398	0.029764	-0.415545
C16	C	-3.782234	0.083346	-0.511636
C17	C	-4.163022	-0.392251	-0.888905
C18	C	-4.180716	-0.341854	-0.979193
C19	C	-4.053206	-0.081114	-0.954685
C20	C	-4.035491	-0.131490	-0.864393
C21	C	-4.090405	-0.287060	-0.831511
C22	C	-3.962873	-0.026298	-0.806999
C23	C	-3.945171	-0.076671	-0.716715
C24	C	-4.000085	-0.232235	-0.683826
C25	C	-4.072703	-0.337432	-0.741227
C26	C	-3.907974	0.129271	-0.839884
C27	C	-3.835357	0.234463	-0.782489
C28	C	-3.817639	0.184091	-0.692203
C29	C	-3.872554	0.028527	-0.659314
C30	C	-3.745022	0.289289	-0.634802
C31	C	-3.727319	0.238917	-0.544518
C32	C	-3.854851	-0.021845	-0.569030
C33	C	-4.078756	0.213942	-0.260661
C34	C	-3.984056	0.380772	-0.261517
C35	C	-4.165424	-0.132741	-0.108172
C36	C	-4.125826	-0.186316	-0.012081
H37	H	-3.985674	-0.273246	-0.610310
H38	H	-4.117392	-0.464112	-0.714452
O39	O	-3.782357	0.385582	-0.814405
C40	C	-3.912611	0.447774	-0.789037
H41	H	-4.066252	0.354269	-0.774297
H42	H	-3.953549	0.538416	-0.844253
H43	H	-3.823362	0.500927	-0.728050
H44	H	-4.207712	-0.518931	-0.862130
O45	O	-3.925480	0.178276	-0.927586
C46	C	-4.069797	0.261824	-0.955195
H47	H	-4.181938	0.227113	-0.906301
H48	H	-4.167307	0.237736	-1.022279
H49	H	-3.976850	0.388180	-0.959331
O50	O	-3.692038	0.440407	-0.666720
C51	C	-3.822303	0.502586	-0.641349
H52	H	-3.975932	0.409071	-0.626604
H53	H	-3.863263	0.593221	-0.696565
H54	H	-3.733054	0.555746	-0.580364
H55	H	-3.668188	0.324574	-0.497786
H56	H	-3.899541	-0.148525	-0.542255
H57	H	-4.239844	-0.427525	-1.025922
H58	H	-4.008507	0.045552	-0.981471
