data_functionalizedCrystal
_audit_creation_method	'MofGen! by Chris Wilmer'
_symmetry_space_group_name_H-M	'P1'
_symmetry_Int_Tables_number	1
_symmetry_cell_setting	triclinic
loop_
_symmetry_equiv_pos_as_xyz
  x,y,z
_cell_length_a	29.839131
_cell_length_b	15.298001
_cell_length_c	15.297908
_cell_angle_alpha	110.814472
_cell_angle_beta	99.652446
_cell_angle_gamma	80.300766
loop_
_atom_site_label
_atom_site_type_symbol
_atom_site_fract_x
_atom_site_fract_y
_atom_site_fract_z
Zn1	Zn	-0.115212	-1.512928	-0.772433
Zn2	Zn	-0.179266	-1.485867	-0.616877
Zn3	Zn	-0.115204	-1.330475	-0.589953
Zn4	Zn	-0.201381	-1.357273	-0.745381
O5	O	-0.152766	-1.421636	-0.681161
O6	O	-0.114457	-1.639512	-0.774388
O7	O	-0.161510	-1.442714	-0.483158
O8	O	-0.052333	-1.354788	-0.614213
O9	O	-0.161518	-1.619631	-0.660101
O10	O	-0.052339	-1.488835	-0.748281
O11	O	-0.114444	-1.328548	-0.463377
O12	O	-0.135888	-1.203856	-0.587982
O13	O	-0.199208	-1.400461	-0.879117
O14	O	-0.199201	-1.223544	-0.702174
O15	O	-0.135901	-1.514820	-0.898993
O16	O	-0.245072	-1.468698	-0.633870
O17	O	-0.261319	-1.374221	-0.728281
C18	C	-0.169943	-1.179947	-0.639221
C19	C	-0.177304	-1.076555	-0.621301
C20	C	-0.205212	-1.017613	-0.553285
C21	C	-0.212130	-0.920472	-0.536452
C22	C	-0.191137	-0.882264	-0.587630
C23	C	-0.163226	-0.941205	-0.655644
C24	C	-0.156311	-1.038357	-0.672483
C25	C	-0.142236	-0.903007	-0.706829
C26	C	-0.114325	-0.961949	-0.774842
C27	C	-0.107410	-1.059090	-0.791677
C28	C	-0.128403	-1.097299	-0.740500
C29	C	-0.149151	-0.805856	-0.689990
C30	C	-0.100249	-0.826599	-0.809188
C31	C	-0.093332	-0.923740	-0.826020
C32	C	-0.269497	-1.421460	-0.681086
C33	C	-0.319431	-1.421475	-0.681100
C34	C	-0.620592	-1.470953	-0.632107
C35	C	-0.808260	-1.471074	-0.632163
O36	O	-0.825319	-1.513003	-0.590449
N37	N	-0.840199	-1.421841	-0.681265
C38	C	-0.825220	-1.372578	-0.730361
O39	O	-0.856692	-1.330713	-0.772134
C40	C	-0.637553	-1.372463	-0.730310
C41	C	-0.605615	-1.421692	-0.681197
C42	C	-0.588655	-1.520179	-0.582999
C43	C	-0.541741	-1.520144	-0.582981
C44	C	-0.526764	-1.470883	-0.632071
C45	C	-0.558701	-1.421657	-0.681179
C46	C	-0.622574	-1.323207	-0.779411
C47	C	-0.575654	-1.323185	-0.779396
C48	C	-0.543716	-1.372414	-0.730283
C49	C	-0.496810	-1.372362	-0.730252
N50	N	-0.464871	-1.421595	-0.681150
C51	C	-0.479848	-1.470856	-0.632060
C52	C	-0.923747	-1.372641	-0.730383
C53	C	-0.970663	-1.372668	-0.730394
C54	C	-0.953700	-1.471165	-0.632197
C55	C	-0.906783	-1.471132	-0.632181
C56	C	-0.891807	-1.421874	-0.681281
C57	C	-0.381326	-1.470778	-0.632026
C58	C	-0.334408	-1.470736	-0.632009
C59	C	-0.351376	-1.372242	-0.730210
C60	C	-0.398289	-1.372281	-0.730223
C61	C	-0.413262	-1.421555	-0.681129
O62	O	-0.479718	-1.330463	-0.771953
O63	O	-0.448368	-1.512732	-0.590310
C64	C	-0.667506	-1.470988	-0.632125
C65	C	-0.699443	-1.421762	-0.681233
C66	C	-0.684466	-1.372501	-0.730323
C67	C	-0.746360	-1.421789	-0.681244
C68	C	-0.761337	-1.471050	-0.632154
C69	C	-0.729397	-1.520284	-0.583052
C70	C	-0.682483	-1.520249	-0.583034
C71	C	-0.716406	-1.323268	-0.779425
C72	C	-0.763319	-1.323306	-0.779438
C73	C	-0.778296	-1.372567	-0.730347
C74	C	-0.035578	-1.421841	-0.681261
C75	C	0.014360	-1.421929	-0.681304
C76	C	-0.170022	-1.463648	-0.923744
C77	C	-0.177376	-1.481551	-1.027119
C78	C	-0.135518	-0.664266	-0.723256
C79	C	-0.128157	-0.767657	-0.741171
C80	C	-0.100086	-1.294267	-1.277329
C81	C	-0.093172	-1.277447	-1.180203
C82	C	-0.114223	-1.328471	-1.141927
C83	C	-0.142188	-1.396319	-1.200786
C84	C	-0.149099	-1.413145	-1.297922
C85	C	-0.163236	-1.447350	-1.162521
C86	C	-0.191201	-1.515197	-1.221380
C87	C	-0.198111	-1.532020	-1.318505
C88	C	-0.177061	-1.480996	-1.356782
C89	C	-0.156324	-1.430524	-1.065385
C90	C	-0.205337	-1.549402	-1.085978
C91	C	-0.212251	-1.566221	-1.183104
C92	C	-0.135541	-1.379840	-0.439531
C93	C	-0.128048	-1.362117	-0.336188
H94	H	-0.308405	-1.510823	-0.592012
H95	H	-0.911558	-1.332527	-0.770367
H96	H	-0.133554	-1.375283	-1.017471
H97	H	-0.171877	-0.757875	-0.634613
H98	H	-0.222304	-1.048733	-0.511627
H99	H	-0.083156	-0.795491	-0.850862
H100	H	-0.220878	-1.587273	-1.366428
H101	H	-0.234855	-0.872489	-0.481076
H102	H	-0.196771	-0.803167	-0.573921
H103	H	-0.339174	-1.332131	-0.770176
H104	H	-0.122771	-1.176398	-0.754198
H105	H	-0.648571	-1.283114	-0.819399
H106	H	-0.182691	-1.494681	-1.435867
H107	H	-0.880781	-1.511219	-0.592190
H108	H	-0.082947	-1.252735	-1.308504
H109	H	-0.108592	-1.314773	-1.062843
H110	H	-0.393510	-1.510905	-0.592051
H111	H	-0.222477	-1.590952	-1.054815
H112	H	-0.084688	-1.107080	-0.847067
H113	H	-0.070607	-0.971744	-0.881397
H114	H	-0.070404	-1.222205	-1.132287
H115	H	-0.515739	-1.560234	-0.542993
H116	H	-0.600843	-1.560298	-0.543024
H117	H	-0.656482	-1.560336	-0.543042
H118	H	-0.965902	-1.511276	-0.592226
H119	H	-0.235019	-1.621464	-1.231040
H120	H	-0.704216	-1.283155	-0.819401
H121	H	-0.996664	-1.332570	-0.770377
H122	H	-0.563464	-1.283074	-0.819383
H123	H	-0.424294	-1.332198	-0.770218
H124	H	-0.741599	-1.560391	-0.543078
H125	H	-0.789320	-1.283209	-0.819429
