data_functionalizedCrystal
_audit_creation_method	'MofGen! by Chris Wilmer'
_symmetry_space_group_name_H-M	'P1'
_symmetry_Int_Tables_number	1
_symmetry_cell_setting	triclinic
loop_
_symmetry_equiv_pos_as_xyz
  x,y,z
_cell_length_a	13.032831
_cell_length_b	14.908178
_cell_length_c	13.033109
_cell_angle_alpha	94.281195
_cell_angle_beta	76.665514
_cell_angle_gamma	85.691885
loop_
_atom_site_label
_atom_site_type_symbol
_atom_site_fract_x
_atom_site_fract_y
_atom_site_fract_z
Zn1	Zn	1.652345	-0.623780	-0.758611
Zn2	Zn	1.619967	-0.750575	-0.571278
Zn3	Zn	1.455474	-0.580623	-0.561811
Zn4	Zn	1.464988	-0.750497	-0.726328
O5	O	1.548193	-0.676369	-0.654507
O6	O	1.795300	-0.658694	-0.751233
O7	O	1.580615	-0.710002	-0.422772
O8	O	1.491158	-0.462190	-0.597465
O9	O	1.771512	-0.751850	-0.613601
O10	O	1.635798	-0.493898	-0.742053
O11	O	1.459762	-0.585138	-0.415817
O12	O	1.309485	-0.585062	-0.566162
O13	O	1.507373	-0.751717	-0.877861
O14	O	1.316475	-0.709869	-0.687032
O15	O	1.645023	-0.658619	-0.901579
O16	O	1.589840	-0.874722	-0.582297
O17	O	1.475977	-0.874665	-0.696212
C18	C	1.274800	-0.642774	-0.622067
C19	C	1.157842	-0.628427	-0.608213
C20	C	1.109167	-0.683857	-0.661738
C21	C	0.988285	-0.669030	-0.647420
C22	C	1.530459	-0.906892	-0.636805
C23	C	1.522972	-1.005528	-0.629279
C24	C	1.659433	-1.223746	-0.765828
C25	C	1.652403	-1.316423	-0.758760
C26	C	1.501878	-1.283562	-0.608081
C27	C	1.508908	-1.190884	-0.615149
C28	C	1.587689	-1.160980	-0.694024
C29	C	1.594723	-1.068301	-0.701086
C30	C	1.444194	-1.035441	-0.550413
C31	C	1.437164	-1.128118	-0.543345
C32	C	1.822654	-0.710095	-0.687074
C33	C	1.939613	-0.724467	-0.700952
C34	C	1.580871	-0.709973	-0.928968
C35	C	1.594796	-0.724293	-1.045926
C36	C	1.566029	-0.444951	-0.672304
C37	C	1.573629	-0.346335	-0.679889
C38	C	1.541209	-0.668898	-1.094629
C39	C	1.555600	-0.683697	-1.215512
C40	C	1.515708	-0.642839	-0.381126
C41	C	1.502006	-0.628294	-0.264211
H42	H	0.987428	-0.782900	-0.757388
F43	F	1.095345	-0.552046	-0.534465
H44	H	0.940470	-0.610590	-0.590996
H45	H	1.651327	-0.782677	-1.093723
F46	F	1.678571	-1.036476	-0.785028
H47	H	1.156987	-0.742287	-0.718166
F48	F	1.367840	-0.968634	-0.473983
H49	H	1.612135	-0.742084	-1.263305
F50	F	1.743286	-1.191918	-0.849761
F51	F	1.728761	-1.383221	-0.835186
F52	F	1.418022	-1.315404	-0.524163
F53	F	1.353318	-1.159955	-0.459412
F54	F	1.467327	-0.592578	-1.032162
F55	F	1.428085	-0.551992	-1.201744
