data_functionalizedCrystal
_audit_creation_method	'MofGen! by Chris Wilmer'
_symmetry_space_group_name_H-M	'P1'
_symmetry_Int_Tables_number	1
_symmetry_cell_setting	triclinic
loop_
_symmetry_equiv_pos_as_xyz
  x,y,z
_cell_length_a	12.645331
_cell_length_b	12.645330
_cell_length_c	17.639306
_cell_angle_alpha	101.188554
_cell_angle_beta	78.774927
_cell_angle_gamma	90.017906
loop_
_atom_site_label
_atom_site_type_symbol
_atom_site_fract_x
_atom_site_fract_y
_atom_site_fract_z
Zn1	Zn	1.741818	-0.543221	-0.446944
Zn2	Zn	2.241818	-0.043221	0.053056
Zn3	Zn	1.705894	-0.684671	-0.314781
Zn4	Zn	2.205894	-0.184671	0.185219
Zn5	Zn	1.528728	-0.507423	-0.314784
Zn6	Zn	2.028728	-0.007423	0.185216
Zn7	Zn	1.564506	-0.720435	-0.446911
Zn8	Zn	2.064506	-0.220435	0.053089
O9	O	1.635237	-0.613938	-0.380855
O10	O	2.135237	-0.113938	0.119145
O11	O	1.885404	-0.561999	-0.429425
O12	O	2.385404	-0.061999	0.070575
O13	O	1.652385	-0.631210	-0.204175
O14	O	2.152385	-0.131210	0.295825
O15	O	1.557056	-0.363829	-0.332330
O16	O	2.057056	0.136171	0.167670
O17	O	1.859010	-0.665922	-0.332325
O18	O	2.359010	-0.165922	0.167675
O19	O	1.713613	-0.390129	-0.429428
O20	O	2.213613	0.109871	0.070572
O21	O	1.522222	-0.500987	-0.204177
O22	O	2.022222	-0.000987	0.295823
O23	O	1.385123	-0.535666	-0.332298
O24	O	1.885123	-0.035666	0.167702
O25	O	1.618034	-0.726876	-0.557521
O26	O	2.118034	-0.226876	-0.057521
O27	O	1.411409	-0.692164	-0.429371
O28	O	1.911409	-0.192164	0.070629
O29	O	1.748305	-0.596678	-0.557546
O30	O	2.248305	-0.096678	-0.057546
O31	O	1.687077	-0.837758	-0.332293
O32	O	2.187077	-0.337758	0.167707
O33	O	1.583200	-0.864034	-0.429368
O34	O	2.083200	-0.364034	0.070632
C35	C	1.359800	-0.613912	-0.380831
C36	C	1.859800	-0.113912	0.119169
C37	C	1.241973	-0.613932	-0.380840
C38	C	1.741973	-0.113932	0.119160
C39	C	1.180546	-0.515378	-0.319871
C40	C	1.680546	-0.015378	0.180129
C41	C	1.058043	-0.515132	-0.320080
C42	C	1.558043	-0.015132	0.179920
C43	C	1.096748	-0.606765	-0.464277
C44	C	1.596748	-0.106765	0.035723
C45	C	1.219243	-0.606049	-0.463896
C46	C	1.719243	-0.106049	0.036104
C47	C	1.190884	-0.720110	-0.359159
C48	C	1.690884	-0.220110	0.140841
C49	C	1.067786	-0.719035	-0.357351
C50	C	1.567786	-0.219035	0.142649
C51	C	1.635156	-0.889364	-0.380844
C52	C	2.135156	-0.389364	0.119156
C53	C	1.635226	-1.007200	-0.380865
C54	C	2.135226	-0.507200	0.119135
C55	C	1.570265	-1.191389	-0.442124
C56	C	2.070265	-0.691389	0.057876
C57	C	1.569795	-1.068777	-0.441927
C58	C	2.069795	-0.568777	0.058073
C59	C	1.582413	-1.029207	-0.297567
C60	C	2.082413	-0.529207	0.202433
C61	C	1.582016	-1.151906	-0.297938
C62	C	2.082016	-0.651906	0.202062
C63	C	1.753315	-1.180083	-0.402230
C64	C	2.253315	-0.680083	0.097770
C65	C	1.753121	-1.057970	-0.404052
C66	C	2.253121	-0.557970	0.095948
C67	C	1.911748	-0.613964	-0.380879
C68	C	2.411748	-0.113964	0.119121
C69	C	2.029581	-0.613976	-0.380889
C70	C	2.529581	-0.113976	0.119111
C71	C	1.691168	-0.669759	-0.587014
C72	C	2.191168	-0.169759	-0.087014
C73	C	1.715002	-0.693547	-0.674867
C74	C	2.215002	-0.193547	-0.174867
C75	C	1.635351	-0.337440	-0.380883
C76	C	2.135351	0.162560	0.119117
C77	C	1.635399	-0.219613	-0.380895
C78	C	2.135399	0.280387	0.119105
C79	C	1.454580	-0.432829	-0.963834
C80	C	1.954580	0.067171	-0.463834
C81	C	1.477000	-0.455203	-1.046385
C82	C	1.977000	0.044797	-0.546385
C83	C	1.612525	-0.590790	-1.046363
C84	C	2.112525	-0.090790	-0.546363
C85	C	1.590120	-0.568423	-0.963810
C86	C	2.090120	-0.068423	-0.463810
C87	C	1.511145	-0.489442	-0.922552
C88	C	2.011145	0.010558	-0.422552
C89	C	1.646685	-0.625037	-0.922528
C90	C	2.146685	-0.125037	-0.422528
C91	C	1.624278	-0.602675	-0.839982
C92	C	2.124278	-0.102675	-0.339982
C93	C	1.545305	-0.523700	-0.798719
C94	C	2.045305	-0.023700	-0.298719
C95	C	1.488738	-0.467081	-0.840006
C96	C	1.988738	0.032919	-0.340006
C97	C	1.725654	-0.704023	-0.963788
C98	C	2.225654	-0.204023	-0.463788
C99	C	1.782219	-0.760637	-0.922506
C100	C	2.282219	-0.260637	-0.422506
C101	C	1.759818	-0.738270	-0.839959
C102	C	2.259818	-0.238270	-0.339959
C103	C	1.680845	-0.659295	-0.798695
C104	C	2.180845	-0.159295	-0.298695
C105	C	1.816385	-0.794890	-0.798671
C106	C	2.316385	-0.294890	-0.298671
C107	C	1.793977	-0.772528	-0.716125
C108	C	2.293977	-0.272528	-0.216125
C109	C	1.658437	-0.636933	-0.716149
C110	C	2.158437	-0.136933	-0.216149
C111	C	1.579584	-0.558257	-0.175497
C112	C	2.079584	-0.058257	0.324503
C113	C	1.555955	-0.534170	-0.087645
C114	C	2.055955	-0.034170	0.412355
H115	H	1.205549	-0.731127	-0.299364
H116	H	1.705549	-0.231127	0.200636
Cl117	Cl	1.820888	-1.252698	-0.494418
Cl118	Cl	2.320888	-0.752698	0.005582
H119	H	1.496310	-0.993606	-0.279166
H120	H	1.996310	-0.493606	0.220834
Cl121	Cl	1.071355	-0.715738	-0.536365
Cl122	Cl	1.571355	-0.215738	-0.036365
Cl123	Cl	1.624842	-1.048075	-0.537289
Cl124	Cl	2.124842	-0.548075	-0.037289
H125	H	1.032634	-0.436011	-0.334478
H126	H	1.532634	0.063989	0.165522
H127	H	1.390282	-0.368503	-0.930239
H128	H	1.890282	0.131497	-0.430239
H129	H	1.626175	-1.168770	-0.250763
H130	H	2.126175	-0.668770	0.249237
Cl131	Cl	1.435532	-1.017716	-0.420107
Cl132	Cl	1.935532	-0.517716	0.079893
Cl133	Cl	1.234077	-0.393852	-0.341807
Cl134	Cl	1.734077	0.106148	0.158193
H135	H	1.483872	-1.218506	-0.428169
H136	H	1.983872	-0.718506	0.071831
Cl137	Cl	0.997125	-0.728081	-0.262601
Cl138	Cl	1.497125	-0.228081	0.237399
Cl139	Cl	1.559164	-0.537630	-0.664276
Cl140	Cl	2.059164	-0.037630	-0.164276
H141	H	1.527054	-0.505502	-0.731505
H142	H	2.027054	-0.005502	-0.231505
Cl143	Cl	1.651790	-0.964569	-0.225204
Cl144	Cl	2.151790	-0.464569	0.274796
Cl145	Cl	1.447898	-1.188642	-0.270035
Cl146	Cl	1.947898	-0.688642	0.229965
Cl147	Cl	1.037824	-0.835620	-0.420906
Cl148	Cl	1.537824	-0.335620	0.079094
Cl149	Cl	1.828673	-1.206192	-0.333393
Cl150	Cl	2.328673	-0.706192	0.166607
H151	H	1.231954	-0.793256	-0.403567
H152	H	1.731954	-0.293256	0.096433
Cl153	Cl	1.813983	-1.038630	-0.498700
Cl154	Cl	2.313983	-0.538630	0.001300
Cl155	Cl	1.389465	-0.367777	-0.788133
Cl156	Cl	1.889465	0.132223	-0.288133
H157	H	1.806012	-1.016107	-0.362704
H158	H	2.306012	-0.516107	0.137296
H159	H	1.605804	-1.237605	-0.504092
H160	H	2.105804	-0.737605	-0.004092
H161	H	1.261691	-0.675961	-0.510896
H162	H	1.761691	-0.175961	-0.010896
Cl163	Cl	1.405912	-0.383989	-1.098280
Cl164	Cl	1.905912	0.116011	-0.598280
H165	H	1.840053	-0.818615	-0.682513
H166	H	2.340053	-0.318615	-0.182513
Cl167	Cl	1.711799	-0.690081	-1.098238
Cl168	Cl	2.211799	-0.190081	-0.598238
Cl169	Cl	1.753827	-0.732131	-1.067561
Cl170	Cl	2.253827	-0.232131	-0.567561
Cl171	Cl	1.881494	-0.859927	-0.974380
Cl172	Cl	2.381494	-0.359927	-0.474380
H173	H	1.011150	-0.516974	-0.258259
H174	H	1.511150	-0.016974	0.241741
Cl175	Cl	1.915650	-0.894189	-0.850548
Cl176	Cl	2.415650	-0.394189	-0.350548
Cl177	Cl	1.200036	-0.517769	-0.224102
Cl178	Cl	1.700036	-0.017769	0.275898
Cl179	Cl	1.057188	-0.489536	-0.493082
Cl180	Cl	1.557188	0.010464	0.006918
Cl181	Cl	1.271098	-0.487279	-0.492191
Cl182	Cl	1.771098	0.012721	0.007809
