data_functionalizedCrystal
_audit_creation_method	'MofGen! by Chris Wilmer'
_symmetry_space_group_name_H-M	'P1'
_symmetry_Int_Tables_number	1
_symmetry_cell_setting	triclinic
loop_
_symmetry_equiv_pos_as_xyz
  x,y,z
_cell_length_a	6.817900
_cell_length_b	11.102289
_cell_length_c	17.110486
_cell_angle_alpha	95.184084
_cell_angle_beta	99.060439
_cell_angle_gamma	108.605707
loop_
_atom_site_label
_atom_site_type_symbol
_atom_site_fract_x
_atom_site_fract_y
_atom_site_fract_z
V1	V	-4.002964	-0.175461	-0.246720
O2	O	-3.964063	0.008821	-0.242024
O3	O	-3.980483	-0.348283	-0.245032
O4	O	-3.932395	-0.172591	-0.354323
O5	O	-4.012484	-0.168088	-0.131976
V6	V	-4.486106	-0.153439	-0.232996
O7	O	-4.265058	-0.223768	-0.276825
O8	O	-4.674209	-0.105131	-0.202890
O9	O	-4.285380	0.019384	-0.234683
O10	O	-4.642403	-0.337720	-0.237692
O11	O	-4.593982	-0.160811	-0.347739
O12	O	-4.333468	-0.156308	-0.125393
C13	C	-3.832507	-0.390419	-0.241140
C14	C	-3.895266	-0.531703	-0.240478
C15	C	-4.107020	-0.604546	-0.244114
C16	C	-4.165979	-0.737298	-0.243498
C17	C	-3.801407	-0.724352	-0.235607
C18	C	-3.742453	-0.591604	-0.236228
C19	C	-4.317502	-0.612020	-0.248667
C20	C	-4.376461	-0.744773	-0.248051
C21	C	-3.771165	-0.166304	-0.380550
C22	C	-3.794922	-0.165101	-0.468517
C23	C	-3.988322	-0.170879	-0.513874
C24	C	-4.010632	-0.169748	-0.596528
C25	C	-3.839545	-0.162848	-0.633822
C26	C	-3.646128	-0.157066	-0.588458
C27	C	-3.623816	-0.158188	-0.505806
C28	C	-3.897793	-0.159135	-0.883177
C29	C	-3.920123	-0.158018	-0.965836
C30	C	-4.284625	-0.170697	-0.973900
C31	C	-4.262299	-0.171826	-0.891246
C32	C	-4.068882	-0.166037	-0.845889
C33	C	-3.862348	-0.161696	-0.718308
C34	C	-4.046078	-0.167181	-0.761404
C35	C	-4.096699	0.061513	-0.238573
C36	C	-4.013178	0.202796	-0.239241
C37	C	-4.158042	-0.162599	-0.099161
C38	C	-4.113522	-0.163796	-0.011194
H39	H	-4.404045	-0.592711	-0.306215
H40	H	-3.506824	-0.151441	-0.618829
O41	O	-4.346658	-0.548406	-0.182144
C42	C	-4.284394	-0.415749	-0.186729
H43	H	-4.167865	-0.391516	-0.228768
H44	H	-4.205945	-0.358838	-0.124589
H45	H	-4.429018	-0.389621	-0.210535
O46	O	-4.472674	-0.176388	-1.017848
C47	C	-4.618878	-0.182690	-0.967204
H48	H	-4.568696	-0.222036	-0.911024
H49	H	-4.782180	-0.248790	-0.999919
H50	H	-4.623984	-0.082344	-0.949716
H51	H	-3.677001	-0.773140	-0.232148
H52	H	-4.451554	-0.769825	-0.193998
H53	H	-3.723054	-0.156083	-0.748683
O54	O	-4.154753	-0.177758	-0.477756
C55	C	-4.323501	-0.291917	-0.511129
H56	H	-4.305362	-0.326161	-0.573571
H57	H	-4.479193	-0.272808	-0.515235
H58	H	-4.322406	-0.369092	-0.471568
H59	H	-3.780790	-0.152395	-0.996198
O60	O	-4.503187	-0.813844	-0.317907
C61	C	-4.698215	-0.890381	-0.302584
H62	H	-4.677206	-0.906816	-0.237435
H63	H	-4.756636	-0.986863	-0.343447
H64	H	-4.818507	-0.839356	-0.314479
O65	O	-4.198485	-0.175528	-0.640683
C66	C	-4.274779	-0.285835	-0.699459
H67	H	-4.137377	-0.317022	-0.711928
H68	H	-4.355828	-0.262857	-0.756868
H69	H	-4.392824	-0.366820	-0.677109
O70	O	-4.428257	-0.178357	-0.854910
C71	C	-4.373837	-0.068812	-0.796618
H72	H	-4.194777	-0.026607	-0.777160
H73	H	-4.447056	-0.097159	-0.742616
H74	H	-4.435672	0.005911	-0.822940
O75	O	-3.710123	-0.153831	-0.839110
C76	C	-3.738915	-0.264754	-0.801875
H77	H	-3.911266	-0.307159	-0.796518
H78	H	-3.634166	-0.238130	-0.739661
H79	H	-3.694593	-0.338664	-0.839337
H80	H	-3.466317	-0.153452	-0.468873
H81	H	-3.570031	-0.532302	-0.233277
H82	H	-4.185372	-0.172794	-0.731035
