data_functionalizedCrystal
_audit_creation_method	'MofGen! by Chris Wilmer'
_symmetry_space_group_name_H-M	'P1'
_symmetry_Int_Tables_number	1
_symmetry_cell_setting	triclinic
loop_
_symmetry_equiv_pos_as_xyz
  x,y,z
_cell_length_a	10.685727
_cell_length_b	10.686285
_cell_length_c	10.686551
_cell_angle_alpha	99.084519
_cell_angle_beta	99.074299
_cell_angle_gamma	80.939845
loop_
_atom_site_label
_atom_site_type_symbol
_atom_site_fract_x
_atom_site_fract_y
_atom_site_fract_z
Zn1	Zn	-2.038245	0.595594	-0.823884
Zn2	Zn	-2.038142	0.824167	-0.595374
Zn3	Zn	-1.809683	0.595640	-0.595400
Zn4	Zn	-1.840094	0.793653	-0.793501
O5	O	-1.931541	0.702263	-0.702040
O6	O	-2.216770	0.638666	-0.806276
O7	O	-1.995066	0.806641	-0.416839
O8	O	-1.827318	0.417106	-0.638435
O9	O	-2.216694	0.806597	-0.638391
O10	O	-1.995242	0.417072	-0.806301
O11	O	-1.827218	0.638743	-0.416858
O12	O	-1.635179	0.609156	-0.608973
O13	O	-1.879149	0.754591	-0.976069
O14	O	-1.657522	0.754635	-0.754517
O15	O	-2.024730	0.609078	-0.998391
O16	O	-2.024554	0.998646	-0.608930
O17	O	-1.879049	0.976228	-0.754492
C18	C	-1.600057	0.678590	-0.678452
C19	C	-1.458252	0.668491	-0.668389
C20	C	-1.955127	1.033728	-0.678442
C21	C	-1.965337	1.175535	-0.668397
C22	C	-1.955343	0.678425	-1.034818
C23	C	-1.965486	0.668267	-1.176628
C24	C	-1.264318	0.726016	-0.725715
C25	C	-1.406123	0.736103	-0.735789
C26	C	-1.907900	0.369505	-0.725760
C27	C	-1.897825	0.227703	-0.735868
C28	C	-1.907898	0.725922	-0.370568
C29	C	-1.897977	0.735738	-0.228802
H30	H	-1.394388	0.602871	-0.602985
H31	H	-1.832422	0.801278	-1.164981
H32	H	-1.832215	1.163880	-0.801319
H33	H	-2.030942	1.239366	-0.602934
H34	H	-2.031055	0.602732	-1.240455
H35	H	-1.469980	0.801707	-0.801200
