data_functionalizedCrystal
_audit_creation_method	'MofGen! by Chris Wilmer'
_symmetry_space_group_name_H-M	'P1'
_symmetry_Int_Tables_number	1
_symmetry_cell_setting	triclinic
loop_
_symmetry_equiv_pos_as_xyz
  x,y,z
_cell_length_a	13.339070
_cell_length_b	13.596369
_cell_length_c	13.339070
_cell_angle_alpha	89.997041
_cell_angle_beta	64.370706
_cell_angle_gamma	90.005180
loop_
_atom_site_label
_atom_site_type_symbol
_atom_site_fract_x
_atom_site_fract_y
_atom_site_fract_z
O1	O	1.496809	0.081817	-0.550529
O2	O	1.181999	0.081813	-0.478269
O3	O	1.303274	0.081811	-0.356994
O4	O	1.375534	0.081818	-0.671803
O5	O	1.303255	-0.081771	-0.356980
O6	O	1.181980	-0.081770	-0.478255
O7	O	1.496789	-0.081766	-0.550515
Zn8	Zn	1.339382	-0.107740	-0.514383
Zn9	Zn	1.339407	0.107787	-0.514401
O10	O	1.375515	-0.081765	-0.671790
C11	C	1.140874	0.000021	-0.466056
C12	C	1.018360	0.000019	-0.429672
N13	N	1.339372	-0.254832	-0.514372
C14	C	0.732973	0.000041	-0.712571
C15	C	0.848081	0.000045	-0.746759
C16	C	0.890657	0.000038	-0.667490
C17	C	0.818112	0.000027	-0.554028
C18	C	0.702992	0.000030	-0.519837
C19	C	0.860676	0.000028	-0.474756
C20	C	0.788132	0.000017	-0.361294
C21	C	0.673023	0.000019	-0.327109
C22	C	0.630448	0.000026	-0.406377
C23	C	0.975796	0.000025	-0.508947
C24	C	0.945816	0.000015	-0.316213
C25	C	0.830707	0.000010	-0.282025
C26	C	1.339406	-0.656123	-0.514402
C27	C	1.339394	-0.544472	-0.514396
C28	C	1.339390	-0.455481	-0.514388
C29	C	1.339377	-0.343823	-0.514381
C30	C	1.537914	0.000028	-0.562728
C31	C	1.660428	0.000037	-0.599111
C32	C	1.291058	0.000021	-0.315872
C33	C	1.254675	0.000025	-0.193358
N34	N	1.339423	0.254879	-0.514405
C35	C	1.387730	0.000028	-0.712912
C36	C	1.424114	0.000031	-0.835426
C37	C	1.537574	0.000028	0.092030
C38	C	1.571761	0.000019	-0.023079
C39	C	1.492492	0.000021	-0.065654
C40	C	1.379030	0.000031	0.006890
C41	C	1.344839	0.000032	0.122010
C42	C	1.299758	0.000025	-0.035674
C43	C	1.186296	0.000034	0.036871
C44	C	1.152111	0.000036	0.151979
C45	C	1.231380	0.000035	0.194555
C46	C	1.333949	0.000024	-0.150794
C47	C	1.141215	0.000027	-0.120813
C48	C	1.107028	0.000036	-0.005705
H49	H	1.034852	0.000030	-0.601328
H50	H	0.771625	0.000009	-0.189642
H51	H	0.984385	0.000045	-0.695333
H52	H	1.602102	0.000019	0.126707
H53	H	1.426331	0.000015	-0.209849
H54	H	1.520335	0.000014	-0.159382
H55	H	0.907140	0.000062	-0.839139
H56	H	0.980479	0.000013	-0.251665
H57	H	0.698296	0.000055	-0.777099
H58	H	0.536718	0.000022	-0.378547
H59	H	0.613959	0.000021	-0.234721
H60	H	1.664142	0.000010	-0.082137
H61	H	1.203550	0.000045	0.288284
H62	H	1.076667	0.000024	-0.155477
H63	H	1.059723	0.000037	0.211043
H64	H	1.014645	0.000043	0.053377
