data_functionalizedCrystal
_audit_creation_method	'MofGen! by Chris Wilmer'
_symmetry_space_group_name_H-M	'P1'
_symmetry_Int_Tables_number	1
_symmetry_cell_setting	triclinic
loop_
_symmetry_equiv_pos_as_xyz
  x,y,z
_cell_length_a	12.837943
_cell_length_b	15.944493
_cell_length_c	11.892095
_cell_angle_alpha	93.894412
_cell_angle_beta	85.689438
_cell_angle_gamma	89.151992
loop_
_atom_site_label
_atom_site_type_symbol
_atom_site_fract_x
_atom_site_fract_y
_atom_site_fract_z
O1	O	1.382038	0.213527	-0.093954
O2	O	1.080235	0.202740	-0.093962
O3	O	1.239410	0.086517	-0.093967
O4	O	1.222863	0.329750	-0.093949
O5	O	1.226139	0.096191	0.094041
O6	O	1.066964	0.212414	0.094046
O7	O	1.368767	0.223201	0.094054
Zn8	Zn	1.215758	0.219343	0.123900
Zn9	Zn	1.233244	0.206597	-0.123808
O10	O	1.209592	0.339424	0.094059
C11	C	1.034980	0.203933	0.000041
C12	C	0.919905	0.193065	0.000037
C13	C	1.232099	0.060004	0.000032
C14	C	1.230072	-0.033407	0.000017
C15	C	0.678920	0.323719	0.000063
C16	C	0.570796	0.313512	0.000060
C17	C	0.595531	0.162443	0.000037
C18	C	0.703655	0.172650	0.000039
C19	C	0.745345	0.253291	0.000051
C20	C	0.853472	0.263498	0.000045
C21	C	0.878203	0.112430	0.000030
C22	C	0.770080	0.102222	0.000027
C23	C	1.323764	-0.261671	0.000041
C24	C	1.279782	-0.321050	-0.092657
C25	C	1.226314	-0.204428	0.000031
C26	C	1.266675	-0.311490	0.092704
C27	C	1.222692	-0.369626	0.000049
C28	C	1.182364	-0.262581	-0.092744
C29	C	1.169265	-0.253013	0.092701
C30	C	1.125213	-0.312366	-0.000021
C31	C	1.228404	-0.109262	0.000020
C32	C	1.220595	-0.464791	0.000053
C33	C	1.414022	0.222008	0.000049
C34	C	1.529098	0.232876	0.000045
C35	C	1.216904	0.365936	0.000057
C36	C	1.218931	0.459347	0.000064
N37	N	1.203832	0.228042	0.292955
N38	N	1.245178	0.197893	-0.292863
C39	C	1.328166	0.137315	0.529599
C40	C	1.319838	0.143402	0.647941
C41	C	1.178841	0.246298	0.647983
C42	C	1.187170	0.240211	0.529641
C43	C	1.261836	0.185719	0.470453
C44	C	1.270169	0.179636	0.352109
C45	C	1.129168	0.282528	0.352153
C46	C	1.120840	0.288615	0.470495
H47	H	0.887414	0.329159	0.000057
C48	C	0.497732	0.390989	0.000074
N49	N	0.442699	0.449348	0.000086
C50	C	1.038704	0.348548	0.535616
N51	N	0.976837	0.393690	0.584664
C52	C	1.056200	0.335776	0.287084
N53	N	1.001243	0.375882	0.238072
C54	C	0.951281	0.034954	0.000014
N55	N	1.006324	-0.023400	-0.000002
H56	H	1.388969	0.092951	0.481407
C57	C	0.549651	0.073745	0.000036
N58	N	0.515092	0.006937	0.000037
H59	H	0.712865	0.389380	0.000070
H60	H	1.326469	-0.350736	-0.171026
H61	H	0.736119	0.036567	0.000031
H62	H	1.330968	0.135268	0.303919
C63	C	1.011731	-0.342347	-0.000091
N64	N	0.926257	-0.364930	-0.000149
C65	C	1.134293	-0.233550	-0.198740
N66	N	1.098091	-0.211681	-0.278577
C67	C	1.392803	0.090150	0.712997
N68	N	1.447762	0.050037	0.761997
C69	C	1.096690	0.306214	0.713111
N70	N	1.034807	0.351337	0.762166
H71	H	1.407712	-0.239332	-0.000050
H72	H	1.302318	-0.333095	0.171068
C73	C	1.106236	-0.212889	0.198580
N74	N	1.058767	-0.182669	0.278337
