data_functionalizedCrystal
_audit_creation_method	'MofGen! by Chris Wilmer'
_symmetry_space_group_name_H-M	'P1'
_symmetry_Int_Tables_number	1
_symmetry_cell_setting	triclinic
loop_
_symmetry_equiv_pos_as_xyz
  x,y,z
_cell_length_a	12.645330
_cell_length_b	18.215407
_cell_length_c	12.645318
_cell_angle_alpha	90.040845
_cell_angle_beta	89.942319
_cell_angle_gamma	89.986688
loop_
_atom_site_label
_atom_site_type_symbol
_atom_site_fract_x
_atom_site_fract_y
_atom_site_fract_z
Zn1	Zn	-0.421812	-1.125276	-0.599387
Zn2	Zn	-0.599201	-1.125151	-0.422127
Zn3	Zn	-0.421939	-1.002159	-0.422138
Zn4	Zn	-0.599020	-1.002190	-0.599349
O5	O	-0.510493	-1.063694	-0.510750
O6	O	-0.445365	-1.228244	-0.575885
O7	O	-0.575816	-1.108770	-0.273781
O8	O	-0.273574	-1.018531	-0.445671
O9	O	-0.575693	-1.228152	-0.445653
O10	O	-0.273481	-1.108984	-0.575895
O11	O	-0.445582	-1.018409	-0.273789
O12	O	-0.445406	-0.899179	-0.445634
O13	O	-0.575384	-1.018583	-0.747702
O14	O	-0.575507	-0.899202	-0.575830
O15	O	-0.445190	-1.109014	-0.747730
O16	O	-0.747524	-1.108800	-0.445616
O17	O	-0.747391	-1.018461	-0.575820
C18	C	-0.510451	-0.872488	-0.510730
C19	C	-0.510459	-0.790689	-0.510746
C20	C	-0.785923	-1.063640	-0.510736
C21	C	-0.903753	-1.063685	-0.510765
C22	C	-0.442729	-0.602542	-0.578663
C23	C	-0.442734	-0.525683	-0.578666
C24	C	-0.578241	-0.525598	-0.442846
C25	C	-0.578229	-0.602455	-0.442839
C26	C	-0.510475	-0.640925	-0.510753
C27	C	-0.510492	-0.487209	-0.510763
C28	C	-0.510498	-0.403876	-0.510766
C29	C	-0.510466	-0.724264	-0.510750
C30	C	-1.071277	-1.007087	-0.592929
C31	C	-0.948717	-1.006798	-0.592665
C32	C	-0.948408	-1.042661	-0.399044
C33	C	-1.071006	-1.042315	-0.399542
C34	C	-1.070834	-1.141652	-0.539416
C35	C	-0.948226	-1.141175	-0.541859
C36	C	-0.233987	-1.063768	-0.510789
C37	C	-0.116157	-1.063800	-0.510805
C38	C	-0.510252	-1.063816	-0.787256
C39	C	-0.510150	-1.063868	-0.905086
C40	C	-0.510524	-0.255647	-0.510769
C41	C	-0.510507	-0.337446	-0.510771
C42	C	-0.510656	-1.063615	-0.235320
C43	C	-0.510459	-1.063705	-0.117491
C44	C	-0.429053	-1.006477	-0.072676
C45	C	-0.429119	-1.006349	0.049884
C46	C	-0.622230	-1.043572	0.050751
C47	C	-0.621939	-1.043063	-0.071847
C48	C	-0.480694	-1.141413	-0.072592
C49	C	-0.478056	-1.141079	0.050009
H50	H	-0.387555	-0.633862	-0.633961
H51	H	-1.102182	-0.949732	-0.574216
H52	H	-0.387567	-0.494435	-0.633964
H53	H	-0.345813	-1.018891	-0.102398
Br54	Br	-0.670190	-0.473384	-0.350682
Br55	Br	-1.120512	-1.108163	-0.294074
Br56	Br	-0.670162	-0.654552	-0.350653
H57	H	-0.918517	-1.019955	-0.675505
Br58	Br	-1.120223	-1.028810	-0.731461
H59	H	-0.400402	-1.159981	-0.103761
Br60	Br	-1.118846	-0.947460	-0.359144
H61	H	-0.919487	-0.949082	-0.573710
H62	H	-0.919290	-1.082656	-0.336183
Br63	Br	-0.899569	-1.167604	-0.678901
Br64	Br	-0.461963	-0.910442	0.099124
H65	H	-0.917805	-0.986342	-0.374368
H66	H	-1.101634	-1.160825	-0.619498
Br67	Br	-0.897192	-1.215319	-0.449433
H68	H	-1.099861	-1.183905	-0.479601
H69	H	-0.346051	-1.018964	0.079729
Br70	Br	-0.461644	-0.911036	-0.123679
Br71	Br	-0.663739	-0.948435	-0.119150
Br72	Br	-0.726554	-1.109596	-0.121239
Br73	Br	-0.725996	-1.111030	0.099381
Br74	Br	-0.664579	-0.950062	0.102285
Br75	Br	-0.340573	-1.166605	0.098056
H76	H	-0.532841	-1.185988	0.080645
Br77	Br	-0.579485	-1.212470	-0.120893
