data_functionalizedCrystal
_audit_creation_method	'MofGen! by Chris Wilmer'
_symmetry_space_group_name_H-M	'P1'
_symmetry_Int_Tables_number	1
_symmetry_cell_setting	triclinic
loop_
_symmetry_equiv_pos_as_xyz
  x,y,z
_cell_length_a	17.038272
_cell_length_b	10.654550
_cell_length_c	15.500215
_cell_angle_alpha	86.843021
_cell_angle_beta	92.981713
_cell_angle_gamma	92.201770
loop_
_atom_site_label
_atom_site_type_symbol
_atom_site_fract_x
_atom_site_fract_y
_atom_site_fract_z
O1	O	1.042158	-0.278413	0.071832
O2	O	0.814504	-0.274082	0.071858
O3	O	0.933565	-0.093994	0.071841
O4	O	0.923097	-0.458501	0.071849
O5	O	0.927010	-0.082874	-0.072047
O6	O	0.807949	-0.262962	-0.072031
O7	O	1.035603	-0.267293	-0.072056
Cu8	Cu	0.921178	-0.264112	-0.085182
Cu9	Cu	0.928930	-0.277263	0.084983
O10	O	0.916542	-0.447381	-0.072040
C11	C	0.782077	-0.264581	-0.000083
C12	C	0.695219	-0.252825	-0.000073
C13	C	0.929519	-0.041564	-0.000102
C14	C	0.927220	0.098092	-0.000099
N15	N	0.915731	-0.254862	-0.204867
C16	C	0.645707	-0.360769	-0.000072
C17	C	0.564095	-0.349714	-0.000084
C18	C	0.531995	-0.230713	-0.000092
C19	C	0.581512	-0.122761	-0.000096
C20	C	0.663123	-0.133817	-0.000090
C21	C	0.286018	-0.191654	-0.000115
C22	C	0.204400	-0.180606	-0.000119
C23	C	0.186988	-0.407560	-0.000109
C24	C	0.268602	-0.418606	-0.000098
C25	C	0.318112	-0.310653	-0.000106
C26	C	0.448574	-0.219410	-0.000101
C27	C	0.401531	-0.321957	-0.000103
C28	C	1.068031	-0.276793	-0.000113
C29	C	1.154889	-0.288550	-0.000117
C30	C	0.920588	-0.499810	-0.000095
C31	C	0.922888	-0.639467	-0.000092
C32	C	0.997321	0.171069	-0.000109
C33	C	0.995156	0.302291	-0.000103
C34	C	0.852782	0.287546	-0.000079
C35	C	0.854948	0.156326	-0.000079
C36	C	1.069592	0.112835	-0.000128
C37	C	1.139699	0.185813	-0.000140
C38	C	1.137534	0.317035	-0.000133
C39	C	1.065262	0.375278	-0.000116
C40	C	0.961528	-0.332691	-0.250143
C41	C	0.957419	-0.325688	-0.340716
C42	C	0.907508	-0.240863	-0.386011
C43	C	0.861709	-0.163026	-0.340727
C44	C	0.865823	-0.170023	-0.250156
C45	C	0.892697	-0.215663	-0.659477
C46	C	0.888585	-0.208675	-0.750055
C47	C	0.984297	-0.371336	-0.750037
C48	C	0.988403	-0.378331	-0.659465
C49	C	0.942607	-0.300489	-0.614189
C50	C	0.903305	-0.233706	-0.478591
C51	C	0.946815	-0.307640	-0.521611
N52	N	0.934383	-0.286503	0.204668
H53	H	0.671836	-0.457672	-0.000065
Br54	Br	0.730318	0.012685	-0.000099
Br55	Br	1.232677	0.416073	-0.000136
Br56	Br	0.405003	-0.057913	-0.000110
H57	H	0.523785	-0.437614	-0.000082
Br58	Br	1.014554	-0.422749	-0.460139
H59	H	0.862667	-0.164642	-0.515479
H60	H	0.294731	-0.515509	-0.000081
H61	H	0.855407	-0.152278	-0.622625
Br62	Br	1.062323	0.553369	-0.000148
H63	H	0.146669	-0.495448	-0.000103
Br64	Br	1.046445	-0.476972	-0.811487
Br65	Br	0.160836	-0.019093	-0.000148
Br66	Br	0.793975	-0.047900	-0.402197
Br67	Br	0.537949	0.038743	-0.000115
Br68	Br	0.803678	-0.064377	-0.188708
Br69	Br	0.445096	-0.483452	-0.000098
Br70	Br	0.754705	0.366590	-0.000055
H71	H	0.847938	-0.139599	-0.786931
Br72	Br	1.072535	-0.065250	-0.000143
H73	H	1.198542	0.138381	-0.000133
Br74	Br	1.056103	-0.493514	-0.598000
H75	H	0.326319	-0.103750	-0.000123
Br76	Br	1.029265	-0.447821	-0.188681
H77	H	0.797865	0.096906	-0.000072
H78	H	0.994714	-0.389063	-0.377577
