data_functionalizedCrystal
_audit_creation_method	'MofGen! by Chris Wilmer'
_symmetry_space_group_name_H-M	'P1'
_symmetry_Int_Tables_number	1
_symmetry_cell_setting	triclinic
loop_
_symmetry_equiv_pos_as_xyz
  x,y,z
_cell_length_a	12.759401
_cell_length_b	11.169416
_cell_length_c	12.759393
_cell_angle_alpha	89.972430
_cell_angle_beta	89.979062
_cell_angle_gamma	90.011865
loop_
_atom_site_label
_atom_site_type_symbol
_atom_site_fract_x
_atom_site_fract_y
_atom_site_fract_z
Zn1	Zn	1.606298	-0.477700	-0.594041
Zn2	Zn	1.606203	-0.678429	-0.418371
Zn3	Zn	1.430597	-0.477764	-0.418377
Zn4	Zn	1.430602	-0.678345	-0.594008
O5	O	1.518425	-0.578060	-0.506199
O6	O	1.753307	-0.504336	-0.570750
O7	O	1.582866	-0.651872	-0.271350
O8	O	1.453942	-0.309806	-0.441696
O9	O	1.753236	-0.651810	-0.441685
O10	O	1.583029	-0.309759	-0.570756
O11	O	1.453849	-0.504445	-0.271355
O12	O	1.283577	-0.504363	-0.441663
O13	O	1.453951	-0.651667	-0.741033
O14	O	1.283580	-0.651729	-0.570698
O15	O	1.583034	-0.504254	-0.741058
O16	O	1.582871	-0.846368	-0.441653
O17	O	1.453858	-0.846306	-0.570692
C18	C	1.245458	-0.578045	-0.506178
C19	C	1.128681	-0.578068	-0.506194
C20	C	1.073849	-0.654918	-0.573277
C21	C	0.964125	-0.654923	-0.573298
C22	C	0.964075	-0.501223	-0.439144
C23	C	1.073797	-0.501213	-0.439129
C24	C	1.518383	-0.889884	-0.506191
C25	C	1.518462	-1.023284	-0.506223
C26	C	1.792458	-0.578075	-0.506221
C27	C	1.909235	-0.578082	-0.506230
C28	C	1.518504	-0.577944	-0.780233
C29	C	1.518537	-0.577895	-0.897009
C30	C	1.518495	-0.265017	-0.506230
C31	C	1.518525	-0.131617	-0.506243
C32	C	1.585756	-0.501125	-0.951886
C33	C	1.585773	-0.501073	-1.061610
C34	C	1.451351	-0.654573	-1.061571
C35	C	1.451329	-0.654617	-0.951849
C36	C	1.518407	-0.578088	-0.233232
C37	C	1.518577	-0.577799	-0.116456
H38	H	0.919375	-0.438653	-0.384540
H39	H	1.396635	-0.717039	-1.106235
H40	H	1.118532	-0.717495	-0.627889
Cl41	Cl	0.895197	-0.751537	-0.657637
Cl42	Cl	1.142735	-0.404586	-0.354796
Cl43	Cl	1.366812	-0.751130	-0.882856
H44	H	1.640478	-0.438650	-0.907238
Cl45	Cl	1.670290	-0.404568	-1.130593
