data_functionalizedCrystal
_audit_creation_method	'MofGen! by Chris Wilmer'
_symmetry_space_group_name_H-M	'P1'
_symmetry_Int_Tables_number	1
_symmetry_cell_setting	triclinic
loop_
_symmetry_equiv_pos_as_xyz
  x,y,z
_cell_length_a	14.519731
_cell_length_b	13.596369
_cell_length_c	11.792241
_cell_angle_alpha	90.006129
_cell_angle_beta	83.941134
_cell_angle_gamma	90.005416
loop_
_atom_site_label
_atom_site_type_symbol
_atom_site_fract_x
_atom_site_fract_y
_atom_site_fract_z
O1	O	1.224401	0.081794	0.148897
O2	O	1.724401	0.581794	0.648897
O3	O	0.955991	0.081795	0.166393
O4	O	1.455991	0.581795	0.666393
O5	O	1.096710	0.081788	-0.007561
O6	O	1.596710	0.581788	0.492439
O7	O	1.083683	0.081802	0.322851
O8	O	1.583683	0.581802	0.822851
O9	O	1.096696	-0.081795	-0.007570
O10	O	1.596696	0.418205	0.492430
O11	O	0.955977	-0.081787	0.166384
O12	O	1.455977	0.418213	0.666384
O13	O	1.224387	-0.081789	0.148888
O14	O	1.724387	0.418211	0.648888
Zn15	Zn	1.090180	-0.107761	0.157634
Zn16	Zn	1.590180	0.392239	0.657634
Zn17	Zn	1.090198	0.107767	0.157647
Zn18	Zn	1.590198	0.607767	0.657647
O19	O	1.083668	-0.081781	0.322842
O20	O	1.583668	0.418219	0.822842
C21	C	0.921622	0.000004	0.165569
C22	C	1.421622	0.500004	0.665569
C23	C	0.819232	0.000005	0.163112
C24	C	1.319232	0.500005	0.663112
C25	C	0.736081	0.000008	0.161116
C26	C	1.236081	0.500008	0.661116
C27	C	0.631763	0.000009	0.158622
C28	C	1.131763	0.500009	0.658622
C29	C	0.548617	0.000009	0.156642
C30	C	1.048617	0.500009	0.656642
C31	C	0.444292	0.000011	0.154149
C32	C	0.944292	0.500011	0.654149
N33	N	1.090174	-0.254852	0.157625
N34	N	1.590174	0.245148	0.657625
C35	C	1.090197	-0.656143	0.157648
C36	C	1.590197	-0.156143	0.657648
C37	C	1.090188	-0.544492	0.157645
C38	C	1.590188	-0.044492	0.657645
C39	C	1.090186	-0.455501	0.157638
C40	C	1.590186	0.044499	0.657638
C41	C	1.090176	-0.343843	0.157633
C42	C	1.590176	0.156157	0.657633
C43	C	1.258757	0.000004	0.149713
C44	C	1.758757	0.500004	0.649713
C45	C	1.361146	0.000010	0.152169
C46	C	1.861146	0.500010	0.652169
C47	C	1.095884	-0.000003	-0.049852
C48	C	1.595884	0.499997	0.450148
C49	C	1.093435	-0.000002	-0.175852
C50	C	1.593435	0.499998	0.324148
N51	N	1.090212	0.254859	0.157647
N52	N	1.590212	0.754859	0.657647
C53	C	1.088931	0.000014	-0.406540
C54	C	1.588931	0.500014	0.093460
C55	C	1.091434	0.000005	-0.278168
C56	C	1.591434	0.500005	0.221832
C57	C	1.084494	0.000012	0.365133
C58	C	1.584494	0.500012	0.865133
C59	C	1.086943	0.000017	0.491133
C60	C	1.586943	0.500017	0.991133
