data_functionalizedCrystal
_audit_creation_method	'MofGen! by Chris Wilmer'
_symmetry_space_group_name_H-M	'P1'
_symmetry_Int_Tables_number	1
_symmetry_cell_setting	triclinic
loop_
_symmetry_equiv_pos_as_xyz
  x,y,z
_cell_length_a	19.121112
_cell_length_b	19.121111
_cell_length_c	17.077396
_cell_angle_alpha	92.410841
_cell_angle_beta	92.457677
_cell_angle_gamma	89.871706
loop_
_atom_site_label
_atom_site_type_symbol
_atom_site_fract_x
_atom_site_fract_y
_atom_site_fract_z
Zn1	Zn	1.059843	0.324899	0.509778
Zn2	Zn	1.559843	0.824899	1.009778
Zn3	Zn	1.054746	0.442138	0.383855
Zn4	Zn	1.554746	0.942138	0.883855
Zn5	Zn	0.942605	0.319914	0.372707
Zn6	Zn	1.442605	0.819914	0.872707
Zn7	Zn	0.937565	0.437089	0.509259
Zn8	Zn	1.437565	0.937089	1.009259
O9	O	0.998689	0.381010	0.443900
O10	O	1.498689	0.881010	0.943900
O11	O	1.157271	0.344651	0.497957
O12	O	1.657271	0.844651	0.997957
O13	O	1.039846	0.425952	0.272529
O14	O	1.539846	0.925952	0.772529
O15	O	0.962399	0.222472	0.386442
O16	O	1.462399	0.722472	0.886442
O17	O	1.153527	0.430786	0.405441
O18	O	1.653527	0.930786	0.905441
O19	O	1.048533	0.226135	0.487148
O20	O	1.548533	0.726135	0.987148
O21	O	0.957457	0.336154	0.264339
O22	O	1.457457	0.836154	0.764339
O23	O	0.843831	0.331258	0.385938
O24	O	1.343831	0.831258	0.885938
O25	O	0.953809	0.422180	0.619175
O26	O	1.453809	0.922180	1.119175
O27	O	0.840129	0.417346	0.486262
O28	O	1.340129	0.917346	0.986262
O29	O	1.043646	0.339755	0.619556
O30	O	1.543646	0.839755	1.119556
O31	O	1.034959	0.539572	0.404938
O32	O	1.534959	1.039572	0.904938
O33	O	0.948867	0.535862	0.497072
O34	O	1.448867	1.035862	0.997072
C35	C	0.816543	0.373214	0.434835
C36	C	1.316543	0.873214	0.934835
C37	C	0.738619	0.369896	0.430976
C38	C	1.238619	0.869896	0.930976
C39	C	0.297993	0.348843	0.406535
C40	C	0.797993	0.848843	0.906535
C41	C	0.371211	0.351965	0.410165
C42	C	0.871211	0.851965	0.910165
C43	C	0.405905	0.398421	0.464135
C44	C	0.905905	0.898421	0.964135
C45	C	0.367377	0.441753	0.514484
C46	C	0.867377	0.941753	1.014484
C47	C	0.294161	0.438627	0.510858
C48	C	0.794161	0.938627	1.010858
C49	C	0.626875	0.410102	0.477698
C50	C	1.126875	0.910102	0.977698
C51	C	0.700096	0.413226	0.481320
C52	C	1.200096	0.913226	0.981320
C53	C	0.703925	0.323436	0.377001
C54	C	1.203925	0.823436	0.877001
C55	C	0.630707	0.320317	0.373376
C56	C	1.130707	0.820317	0.873376
C57	C	0.592186	0.363647	0.423728
C58	C	1.092186	0.863647	0.923728
C59	C	0.480745	0.401615	0.467845
C60	C	0.980745	0.901615	0.967845
C61	C	0.517347	0.360449	0.420021
C62	C	1.017347	0.860449	0.920021
C63	C	0.990832	0.563155	0.452176
C64	C	1.490832	1.063155	0.952176
C65	C	0.987535	0.641080	0.455746
C66	C	1.487535	1.141080	0.955746
C67	C	1.030844	0.679599	0.409497
C68	C	1.530844	1.179599	0.909497
C69	C	1.027747	0.752818	0.412860
C70	C	1.527747	1.252818	0.912860
C71	C	0.981337	0.787517	0.462467
C72	C	1.481337	1.287517	0.962467
C73	C	0.938026	0.748992	0.508721
C74	C	1.438026	1.248992	1.008721
C75	C	0.941127	0.675775	0.505362
C76	C	1.441127	1.175775	1.005362
C77	C	0.969733	1.008490	0.475010
C78	C	1.469733	1.508490	0.975010
C79	C	0.966634	1.081713	0.478364
C80	C	1.466634	1.581713	0.978364
C81	C	1.056356	1.085534	0.382503
C82	C	1.556356	1.585534	0.882503
C83	C	1.059450	1.012314	0.379145
C84	C	1.559450	1.512314	0.879145
C85	C	1.016142	0.973797	0.425402
C86	C	1.516142	1.473797	0.925402
C87	C	0.978169	0.862358	0.465904
C88	C	1.478169	1.362358	0.965904
C89	C	1.019314	0.898957	0.421970
C90	C	1.519314	1.398957	0.921970
C91	C	1.181548	0.388837	0.453001
C92	C	1.681548	0.888837	0.953001
C93	C	1.259471	0.392173	0.456879
C94	C	1.759471	0.892173	0.956879
C95	C	0.998734	0.380960	0.648644
C96	C	1.498734	0.880960	1.148644
C97	C	0.998753	0.380939	0.735894
C98	C	1.498753	0.880939	1.235894
C99	C	1.006591	1.198155	0.435619
C100	C	1.506591	1.698155	0.935619
C101	C	1.009943	1.120232	0.432115
C102	C	1.509943	1.620232	0.932115
C103	C	0.998688	0.381011	0.239952
C104	C	1.498688	0.881011	0.739952
C105	C	0.998813	0.380841	0.152700
C106	C	1.498813	0.880841	0.652700
C107	C	1.045533	0.338016	0.777084
C108	C	1.545533	0.838016	1.277084
C109	C	1.045542	0.337994	0.859064
C110	C	1.545542	0.837994	1.359064
C111	C	0.998775	0.380897	0.899852
C112	C	1.498775	0.880897	1.399852
C113	C	0.951990	0.423822	0.858656
C114	C	1.451990	0.923822	1.358656
C115	C	0.951978	0.423841	0.776678
C116	C	1.451978	0.923841	1.276678
C117	C	0.952020	0.423781	1.029526
C118	C	1.452020	0.923781	1.529526
C119	C	0.952033	0.423763	1.111510
C120	C	1.452033	0.923763	1.611510
C121	C	1.045585	0.337934	1.111912
C122	C	1.545585	0.837934	1.611912
C123	C	1.045572	0.337953	1.029933
C124	C	1.545572	0.837953	1.529933
C125	C	0.998788	0.380878	0.988743
C126	C	1.498788	0.880878	1.488743
H127	H	0.395631	0.479576	0.558431
H128	H	0.895631	0.979576	1.058431
H129	H	0.900240	0.777250	0.549116
H130	H	1.400240	1.277250	1.049116
Cl131	Cl	0.886681	0.627351	0.563509
Cl132	Cl	1.386681	1.127351	1.063509
H133	H	0.595520	0.445386	0.518696
H134	H	1.095520	0.945386	1.018696
H135	H	1.057104	0.870703	0.381582
H136	H	1.557104	1.370703	0.881582
Cl137	Cl	0.893164	0.477801	0.724895
Cl138	Cl	1.393164	0.977801	1.224895
H139	H	0.940380	0.890618	0.506293
H140	H	1.440380	1.390618	1.006293
H141	H	1.083619	0.303081	0.743880
H142	H	1.583619	0.803081	1.243880
H143	H	0.928849	1.109963	0.518774
H144	H	1.428849	1.609963	1.018774
Cl145	Cl	1.104384	0.284063	0.910845
Cl146	Cl	1.604384	0.784063	1.410845
H147	H	0.402573	0.316684	0.369167
H148	H	0.902573	0.816684	0.869167
Cl149	Cl	1.104371	0.284020	0.978657
Cl150	Cl	1.604371	0.784020	1.478657
Cl151	Cl	1.104400	0.283971	1.163693
Cl152	Cl	1.604400	0.783971	1.663693
H153	H	0.913913	0.458724	0.995990
H154	H	1.413913	0.958724	1.495990
H155	H	0.602464	0.282493	0.329423
H156	H	1.102464	0.782493	0.829423
H157	H	0.913949	0.458698	1.144718
H158	H	1.413949	0.958698	1.644718
H159	H	0.913909	0.458752	0.891873
H160	H	1.413909	0.958752	1.391873
H161	H	0.269751	0.311014	0.362586
H162	H	0.769751	0.811014	0.862586
H163	H	0.728342	0.451056	0.525273
H164	H	1.228342	0.951056	1.025273
Cl165	Cl	0.752355	0.268965	0.313710
Cl166	Cl	1.252355	0.768965	0.813710
H167	H	0.262797	0.473909	0.551855
H168	H	0.762797	0.973909	1.051855
H169	H	0.489096	0.322622	0.376082
H170	H	0.989096	0.822622	0.876082
H171	H	0.509001	0.439441	0.511786
H172	H	1.009001	0.939441	1.011786
H173	H	1.068633	0.651352	0.369098
H174	H	1.568633	1.151352	0.869098
H175	H	1.063014	0.784177	0.375199
H176	H	1.563014	1.284177	0.875199
H177	H	1.091616	1.116902	0.344845
H178	H	1.591616	1.616902	0.844845
Cl179	Cl	1.117807	0.968699	0.316791
Cl180	Cl	1.617807	1.468699	0.816791
H181	H	0.934468	0.977135	0.512673
H182	H	1.434468	1.477135	1.012673
