data_functionalizedCrystal
_audit_creation_method	'MofGen! by Chris Wilmer'
_symmetry_space_group_name_H-M	'P1'
_symmetry_Int_Tables_number	1
_symmetry_cell_setting	triclinic
loop_
_symmetry_equiv_pos_as_xyz
  x,y,z
_cell_length_a	14.908520
_cell_length_b	18.215407
_cell_length_c	18.215399
_cell_angle_alpha	90.017777
_cell_angle_beta	93.269364
_cell_angle_gamma	86.683764
loop_
_atom_site_label
_atom_site_type_symbol
_atom_site_fract_x
_atom_site_fract_y
_atom_site_fract_z
Zn1	Zn	-0.359273	-1.108172	-0.432983
Zn2	Zn	0.140727	-0.608172	0.067017
Zn3	Zn	-0.510141	-1.100984	-0.317016
Zn4	Zn	-0.010141	-0.600984	0.182984
Zn5	Zn	-0.359290	-0.985104	-0.309935
Zn6	Zn	0.140710	-0.485104	0.190065
Zn7	Zn	-0.510078	-0.977977	-0.440043
Zn8	Zn	-0.010078	-0.477977	0.059957
O9	O	-0.434695	-1.043059	-0.374994
O10	O	0.065305	-0.543059	0.125006
O11	O	-0.379305	-1.210202	-0.417608
O12	O	0.120695	-0.710202	0.082392
O13	O	-0.490164	-1.085587	-0.213094
O14	O	0.009836	-0.585587	0.286906
O15	O	-0.233043	-1.007420	-0.320340
O16	O	0.266957	-0.507420	0.179660
O17	O	-0.490147	-1.204921	-0.332408
O18	O	0.009853	-0.704921	0.167592
O19	O	-0.233031	-1.097838	-0.410742
O20	O	0.266969	-0.597838	0.089258
O21	O	-0.379334	-1.000450	-0.207892
O22	O	0.120666	-0.500450	0.292108
O23	O	-0.379273	-0.881175	-0.327186
O24	O	0.120727	-0.381175	0.172814
O25	O	-0.490040	-0.995273	-0.542089
O26	O	0.009960	-0.495273	-0.042089
O27	O	-0.490057	-0.875939	-0.422775
O28	O	0.009943	-0.375939	0.077225
O29	O	-0.379244	-1.090927	-0.536902
O30	O	0.120756	-0.590927	-0.036902
O31	O	-0.636377	-1.078676	-0.339254
O32	O	-0.136377	-0.578676	0.160746
O33	O	-0.636331	-0.988303	-0.429641
O34	O	-0.136331	-0.488303	0.070359
C35	C	-0.434660	-0.851855	-0.374979
C36	C	0.065340	-0.351855	0.125021
C37	C	-0.434667	-0.770055	-0.374990
C38	C	0.065333	-0.270055	0.125010
C39	C	-0.377063	-0.584605	-0.419432
C40	C	0.122937	-0.084605	0.080568
C41	C	-0.377068	-0.507746	-0.419434
C42	C	0.122932	-0.007746	0.080566
C43	C	-0.492314	-0.502266	-0.330562
C44	C	0.007686	-0.002266	0.169438
C45	C	-0.492304	-0.579124	-0.330556
C46	C	0.007696	-0.079124	0.169444
C47	C	-0.434680	-0.620291	-0.374996
C48	C	0.065320	-0.120291	0.125004
C49	C	-0.434695	-0.466575	-0.375003
C50	C	0.065305	0.033425	0.124997
C51	C	-0.434700	-0.383241	-0.375005
C52	C	0.065300	0.116759	0.124995
C53	C	-0.434673	-0.703631	-0.374993
C54	C	0.065327	-0.203631	0.125007
C55	C	-0.669088	-1.031956	-0.385998
C56	C	-0.169088	-0.531956	0.114002
C57	C	-0.769362	-1.027273	-0.390730
C58	C	-0.269362	-0.527273	0.109270
C59	C	-0.957775	-1.112676	-0.305578
C60	C	-0.457775	-0.612676	0.194422
C61	C	-1.051991	-1.108279	-0.310022
C62	C	-0.551991	-0.608279	0.189978
C63	C	-1.052013	-1.014086	-0.404065
C64	C	-0.552013	-0.514086	0.095935
C65	C	-0.957797	-1.018483	-0.399621
C66	C	-0.457797	-0.518483	0.100379
C67	C	-0.910681	-1.067779	-0.350375
C68	C	-0.410681	-0.567779	0.149625
C69	C	-0.816463	-1.072172	-0.345928
C70	C	-0.316463	-0.572172	0.154072
C71	C	-0.816486	-0.977983	-0.439974
C72	C	-0.316486	-0.477983	0.060026
C73	C	-0.910703	-0.973586	-0.444418
C74	C	-0.410703	-0.473586	0.055582
C75	C	-0.199388	-1.054226	-0.363964
C76	C	0.300612	-0.554226	0.136036
C77	C	-0.099114	-1.058984	-0.359263
C78	C	0.400886	-0.558984	0.140737
C79	C	-0.434633	-1.043107	-0.566944
C80	C	0.065367	-0.543107	-0.066944
C81	C	-0.434607	-1.043127	-0.648742
C82	C	0.065393	-0.543127	-0.148742
C83	C	-0.434722	-0.235011	-0.375009
C84	C	0.065278	0.264989	0.124991
C85	C	-0.434708	-0.316810	-0.375009
C86	C	0.065292	0.183190	0.124991
C87	C	-0.376861	-1.092954	-0.834234
C88	C	0.123139	-0.592954	-0.334234
C89	C	-0.376835	-1.092964	-0.911092
C90	C	0.123165	-0.592964	-0.411092
C91	C	-0.492213	-0.993360	-0.916482
C92	C	0.007787	-0.493360	-0.416482
C93	C	-0.492234	-0.993347	-0.839625
C94	C	0.007766	-0.493347	-0.339625
C95	C	-0.434559	-1.043148	-0.798504
C96	C	0.065441	-0.543148	-0.298504
C97	C	-0.434512	-1.043171	-0.952217
C98	C	0.065488	-0.543171	-0.452217
C99	C	-0.434484	-1.043181	-1.035550
C100	C	0.065516	-0.543181	-0.535550
C101	C	-0.434586	-1.043137	-0.715166
C102	C	0.065414	-0.543137	-0.215166
C103	C	-0.434692	-1.043057	-0.183788
C104	C	0.065308	-0.543057	0.316212
C105	C	-0.434465	-1.043191	-0.101979
C106	C	0.065535	-0.543191	0.398021
H107	H	-0.539224	-0.608180	-0.294367
H108	H	-0.039224	-0.108180	0.205633
N109	N	-0.314658	-1.146668	-0.789884
N110	N	0.185342	-0.646668	-0.289884
H111	H	-0.351340	-1.179029	-0.759726
H112	H	0.148660	-0.679029	-0.259726
H113	H	-0.278120	-1.178169	-0.824235
H114	H	0.221880	-0.678169	-0.324235
H115	H	-0.539218	-0.952783	-0.810533
H116	H	-0.039218	-0.452783	-0.310533
H117	H	-0.330138	-0.618122	-0.455615
H118	H	0.169862	-0.118122	0.044385
N119	N	-0.765641	-1.125337	-0.292816
N120	N	-0.265641	-0.625337	0.207184
H121	H	-0.809775	-1.153114	-0.265114
H122	H	-0.309775	-0.653114	0.234886
H123	H	-0.726494	-1.161201	-0.320961
H124	H	-0.226494	-0.661201	0.179039
H125	H	-0.919412	-1.152810	-0.265475
H126	H	-0.419412	-0.652810	0.234525
H127	H	-0.330148	-0.478694	-0.455618
H128	H	0.169852	0.021306	0.044382
N129	N	-1.102788	-1.156705	-0.261708
N130	N	-0.602788	-0.656705	0.238292
H131	H	-1.058640	-1.188599	-0.229839
H132	H	-0.558640	-0.688599	0.270161
H133	H	-1.141934	-1.124943	-0.229468
H134	H	-0.641934	-0.624943	0.270532
H135	H	-0.329850	-1.133520	-0.940180
H136	H	0.170150	-0.633520	-0.440180
H137	H	-1.090391	-0.973956	-0.444163
H138	H	-0.590391	-0.473956	0.055837
N139	N	-0.554462	-0.457864	-0.282631
N140	N	-0.054462	0.042136	0.217369
H141	H	-0.545727	-0.403759	-0.289377
H142	H	-0.045727	0.096241	0.210623
H143	H	-0.618909	-0.468257	-0.297023
H144	H	-0.118909	0.031743	0.202977
H145	H	-0.949077	-0.933453	-0.484515
H146	H	-0.449077	-0.433453	0.015485
N147	N	-0.554402	-0.939647	-0.960846
N148	N	-0.054402	-0.439647	-0.460846
H149	H	-0.596205	-0.967572	-0.994701
H150	H	-0.096205	-0.467572	-0.494701
H151	H	-0.590897	-0.908096	-0.926505
H152	H	-0.090897	-0.408096	-0.426505
N153	N	-0.765693	-0.929550	-0.488291
N154	N	-0.265693	-0.429550	0.011709
H155	H	-0.698857	-0.939812	-0.478003
H156	H	-0.198857	-0.439812	0.021997
H157	H	-0.782107	-0.940202	-0.541637
H158	H	-0.282107	-0.440202	-0.041637
