data_functionalizedCrystal
_audit_creation_method	'MofGen! by Chris Wilmer'
_symmetry_space_group_name_H-M	'P1'
_symmetry_Int_Tables_number	1
_symmetry_cell_setting	triclinic
loop_
_symmetry_equiv_pos_as_xyz
  x,y,z
_cell_length_a	12.827892
_cell_length_b	19.077105
_cell_length_c	19.076919
_cell_angle_alpha	90.076224
_cell_angle_beta	87.724465
_cell_angle_gamma	92.288097
loop_
_atom_site_label
_atom_site_type_symbol
_atom_site_fract_x
_atom_site_fract_y
_atom_site_fract_z
Zn1	Zn	-0.505562	-1.058323	0.440440
Zn2	Zn	-0.673587	-1.062981	0.322941
Zn3	Zn	-0.491563	-0.945540	0.318233
Zn4	Zn	-0.672957	-0.940802	0.435693
O5	O	-0.585917	-1.001912	0.379327
O6	O	-0.533973	-1.157274	0.428810
O7	O	-0.643846	-1.051334	0.223985
O8	O	-0.347187	-0.960534	0.334460
O9	O	-0.657421	-1.160695	0.342484
O10	O	-0.357472	-1.043396	0.424245
O11	O	-0.510114	-0.965050	0.220526
O12	O	-0.509503	-0.846579	0.329857
O13	O	-0.656347	-0.952460	0.534655
O14	O	-0.642772	-0.843098	0.416155
O15	O	-0.533362	-1.038802	0.538142
O16	O	-0.819737	-1.046740	0.337881
O17	O	-0.819274	-0.956976	0.420720
C18	C	-0.574551	-0.819342	0.371981
C19	C	-0.569714	-0.741237	0.368855
C20	C	-0.857424	-1.001868	0.379313
C21	C	-0.973581	-1.001913	0.379333
C22	C	-0.596346	-0.994583	0.562607
C23	C	-0.600790	-0.991460	0.640711
C24	C	-1.025566	-1.046380	0.338391
C25	C	-1.145620	-1.046427	0.338411
C26	C	-0.313353	-1.001974	0.379357
C27	C	-0.197202	-1.002000	0.379370
C28	C	-0.597329	-1.185194	0.386702
C29	C	-0.602192	-1.263298	0.389845
C30	C	-0.636925	-0.702753	0.412246
C31	C	-0.632367	-0.629365	0.409312
C32	C	-0.560602	-0.594463	0.362983
C33	C	-0.493385	-0.632953	0.319590
C34	C	-0.497938	-0.706339	0.322528
C35	C	-0.539528	-0.375174	0.349389
C36	C	-0.534981	-0.301782	0.346453
C37	C	-0.673963	-0.298199	0.436177
C38	C	-0.678514	-0.371587	0.439108
C39	C	-0.611293	-0.410071	0.395717
N40	N	-0.555944	-0.519449	0.359982
N41	N	-0.615947	-0.485083	0.398723
C42	C	-0.575456	-1.009252	0.196761
C43	C	-0.570727	-1.012511	0.118663
C44	C	-0.538849	-1.034945	0.679221
C45	C	-0.543020	-1.032002	0.752607
C46	C	-0.609138	-0.985578	0.787481
C47	C	-0.671081	-0.942089	0.748966
C48	C	-0.666904	-0.945028	0.675581
C49	C	-0.628492	-0.971962	1.006763
C50	C	-0.632667	-0.969027	1.080153
C51	C	-0.504604	-1.058939	1.083789
C52	C	-0.500438	-1.061878	1.010402
C53	C	-0.562376	-1.018386	0.971894
N54	N	-0.613406	-0.982570	0.862494
N55	N	-0.558103	-1.021391	0.896882
H56	H	-0.981195	-1.084418	0.303327
O57	O	-0.476214	-1.078905	0.794141
H58	H	-0.527117	-1.113299	0.829016
O59	O	-0.467543	-1.085022	0.641608
H60	H	-0.410520	-1.054927	0.606907
H61	H	-0.484799	-0.406498	0.314053
O62	O	-1.204832	-1.096855	0.291976
H63	H	-1.148778	-1.129387	0.261966
H64	H	-0.724912	-0.904287	0.777367
O65	O	-0.416004	-0.595315	0.269601
H66	H	-0.424144	-0.537820	0.274835
H67	H	-0.695367	-0.731165	0.449970
H68	H	-1.152504	-0.963926	0.414421
O69	O	-1.032350	-0.951523	0.425778
H70	H	-1.086017	-0.981562	0.462795
H71	H	-0.446600	-1.099683	0.982013
O72	O	-0.705049	-0.587859	0.455977
H73	H	-0.755795	-0.624460	0.488631
H74	H	-0.736955	-0.399999	0.476832
H75	H	-0.454176	-1.094347	1.115150
O76	O	-0.425460	-0.747854	0.275720
H77	H	-0.374801	-0.711257	0.243003
H78	H	-0.476530	-0.273368	0.308731
O79	O	-0.733695	-0.898119	0.634040
H80	H	-0.780375	-0.865344	0.670618
O81	O	-0.703975	-0.918948	1.117773
H82	H	-0.746336	-0.889194	1.078667
H83	H	-0.678943	-0.936558	0.975419
H84	H	-0.728689	-0.266859	0.471504
