data_functionalizedCrystal
_audit_creation_method	'MofGen! by Chris Wilmer'
_symmetry_space_group_name_H-M	'P1'
_symmetry_Int_Tables_number	1
_symmetry_cell_setting	triclinic
loop_
_symmetry_equiv_pos_as_xyz
  x,y,z
_cell_length_a	17.699097
_cell_length_b	17.000371
_cell_length_c	16.176319
_cell_angle_alpha	89.992539
_cell_angle_beta	89.988988
_cell_angle_gamma	79.443839
loop_
_atom_site_label
_atom_site_type_symbol
_atom_site_fract_x
_atom_site_fract_y
_atom_site_fract_z
O1	O	0.997546	0.100717	-0.068815
O2	O	0.776321	0.113803	-0.068802
O3	O	0.900670	-0.008632	-0.068803
O4	O	0.873197	0.223153	-0.068813
O5	O	0.900654	-0.008640	0.068690
O6	O	0.776305	0.113796	0.068691
O7	O	0.997530	0.100710	0.068678
Cu8	Cu	0.886916	0.107252	0.081239
Cu9	Cu	0.886935	0.107261	-0.081363
O10	O	0.873181	0.223145	0.068680
C11	C	0.748147	0.113329	-0.000053
C12	C	0.664221	0.111917	-0.000048
C13	C	0.149072	0.103266	-0.075029
C14	C	0.227930	0.104587	-0.075025
C15	C	0.267345	0.105245	-0.000074
C16	C	0.227898	0.104573	0.074878
C17	C	0.149042	0.103246	0.074873
C18	C	0.545916	0.109924	0.074900
C19	C	0.624777	0.111253	0.074899
C20	C	0.624803	0.111265	-0.074998
C21	C	0.545947	0.109938	-0.075003
C22	C	0.506509	0.109262	-0.000052
C23	C	0.421002	0.107828	-0.000057
C24	C	0.352849	0.106685	-0.000068
C25	C	0.902137	-0.038292	-0.000057
C26	C	0.906525	-0.126659	-0.000058
C27	C	0.839002	-0.158557	-0.000058
C28	C	0.843129	-0.241588	-0.000056
C29	C	0.914781	-0.292719	-0.000060
C30	C	0.982309	-0.260816	-0.000058
C31	C	0.978181	-0.177786	-0.000054
C32	C	0.930726	-0.543895	-0.000067
C33	C	0.934849	-0.626929	-0.000073
C34	C	0.795668	-0.607696	-0.000069
C35	C	0.791547	-0.524666	-0.000070
C36	C	0.859075	-0.492770	-0.000064
C37	C	0.919001	-0.377590	-0.000061
C38	C	0.854854	-0.407900	-0.000057
C39	C	1.025704	0.101184	-0.000072
C40	C	1.109630	0.102596	-0.000083
C41	C	0.871714	0.252805	-0.000068
C42	C	0.867326	0.341172	-0.000073
N43	N	0.886909	0.107245	0.195604
N44	N	0.886948	0.107262	-0.195728
C45	C	0.941985	0.053053	0.238868
C46	C	0.941989	0.053052	0.325415
C47	C	0.886920	0.107248	0.368697
C48	C	0.831838	0.161443	0.325427
C49	C	0.831832	0.161439	0.238882
C50	C	0.831863	0.161457	0.674456
C51	C	0.831875	0.161458	0.761007
C52	C	0.942020	0.053070	0.760988
C53	C	0.942014	0.053067	0.674443
C54	C	0.886930	0.107258	0.631181
C55	C	0.886926	0.107258	0.537337
C56	C	0.886927	0.107253	0.462539
H57	H	0.780655	-0.116931	-0.000058
O58	O	0.778265	0.214116	0.367341
C59	C	0.669035	0.321652	0.358218
C60	C	0.729653	0.262029	0.310651
H61	H	0.629726	0.360417	0.312405
H62	H	0.633464	0.287370	0.398731
H63	H	0.699081	0.361347	0.398742
H64	H	0.699670	0.222319	0.270082
H65	H	0.765220	0.296361	0.270190
O66	O	0.507785	0.109265	-0.147884
C67	C	0.516128	0.109457	-0.296567
C68	C	0.559442	0.110206	-0.214088
H69	H	0.557871	0.110235	-0.350114
H70	H	0.489867	0.053135	-0.300368
H71	H	0.468559	0.164509	-0.300274
H72	H	0.607045	0.055193	-0.210325
H73	H	0.585649	0.166564	-0.210321
O74	O	0.778301	0.213996	0.632397
C75	C	0.673832	0.231088	0.534670
C76	C	0.734440	0.171495	0.582272
H77	H	0.638364	0.196750	0.494120
H78	H	0.634422	0.269820	0.580431
H79	H	0.703881	0.270822	0.494174
H80	H	0.704455	0.131710	0.622769
H81	H	0.773844	0.132819	0.536466
H82	H	0.786982	0.205567	0.203657
H83	H	0.977340	-0.419230	-0.000066
O84	O	0.995395	0.000333	0.367473
C85	C	1.018774	-0.108379	0.465226
C86	C	0.958207	-0.048728	0.417635
H87	H	0.988730	-0.148048	0.505806
H88	H	1.058126	-0.147164	0.419457
H89	H	1.054309	-0.074038	0.505690
H90	H	0.922618	-0.083003	0.377170
H91	H	0.918908	-0.009943	0.463449
O92	O	0.777462	-0.272441	-0.000092
C93	C	0.638978	-0.244602	-0.000038
C94	C	0.713289	-0.209556	-0.000020
H95	H	0.587075	-0.193777	0.000038
H96	H	0.637384	-0.282960	-0.057591
H97	H	0.637466	-0.283026	0.057490
H98	H	0.714850	-0.171097	-0.057509
H99	H	0.714853	-0.171244	0.057571
H100	H	0.116985	0.102736	-0.136063
H101	H	1.033166	-0.151817	-0.000053
O102	O	0.266120	0.105269	-0.147901
C103	C	0.257835	0.105088	-0.296584
C104	C	0.214488	0.104338	-0.214108
H105	H	0.216112	0.104318	-0.350134
H106	H	0.284104	0.161405	-0.300391
H107	H	0.305400	0.050032	-0.300282
H108	H	0.166888	0.159355	-0.210355
H109	H	0.188273	0.047984	-0.210336
O110	O	0.995498	0.000310	0.802925
C111	C	1.049036	-0.138166	0.829448
C112	C	0.988451	-0.078507	0.781891
H113	H	1.043350	-0.201902	0.812473
H114	H	1.108988	-0.127937	0.812399
H115	H	1.039588	-0.128818	0.898735
H116	H	0.997828	-0.087818	0.712594
H117	H	0.928521	-0.088750	0.799009
H118	H	0.259997	0.105103	0.135904
H119	H	0.985713	-0.517936	-0.000064
O120	O	0.778275	0.214024	0.803016
C121	C	0.643561	0.260850	0.829505
C122	C	0.704178	0.201268	0.781893
H123	H	0.583639	0.250569	0.812432
H124	H	0.652966	0.251544	0.898802
H125	H	0.649206	0.324593	0.812486
H126	H	0.698569	0.137502	0.798843
H127	H	0.694755	0.210645	0.712608
O128	O	0.662957	0.111848	0.147784
C129	C	0.654607	0.111730	0.296467
C130	C	0.611278	0.111035	0.213991
H131	H	0.612841	0.111089	0.350017
H132	H	0.702140	0.056651	0.300266
H133	H	0.680914	0.168026	0.300173
H134	H	0.584923	0.054776	0.210230
H135	H	0.563786	0.166151	0.210228
O136	O	0.995514	0.000329	0.196955
C137	C	1.104792	-0.107151	0.206081
C138	C	1.044204	-0.047494	0.253646
H139	H	1.144184	-0.145821	0.251896
H140	H	1.074804	-0.146935	0.165603
H141	H	1.140277	-0.072818	0.165523
H142	H	1.008701	-0.081763	0.294250
H143	H	1.074240	-0.007711	0.294073
H144	H	0.656925	0.111812	-0.136027
O145	O	0.507611	0.109123	0.147686
C146	C	0.431713	0.038685	0.234669
C147	C	0.475079	0.039487	0.152211
H148	H	0.405386	-0.017602	0.238348
H149	H	0.473414	0.039331	0.288263
H150	H	0.384186	0.093771	0.238417
H151	H	0.522606	-0.015590	0.148383
H152	H	0.433330	0.038882	0.098657
H153	H	0.986858	0.008938	0.639205
O154	O	0.110836	0.102634	0.147750
C155	C	0.119137	0.102711	0.296433
C156	C	0.162493	0.103429	0.213958
H157	H	0.160885	0.103336	0.349984
H158	H	0.071602	0.157788	0.300236
H159	H	0.092829	0.046413	0.300132
H160	H	0.188849	0.159690	0.210204
H161	H	0.209987	0.048314	0.210190
O162	O	0.721881	-0.475113	-0.000021
C163	C	0.584268	-0.464802	-0.000055
C164	C	0.663114	-0.521011	-0.000090
H165	H	0.536734	-0.501887	-0.000129
H166	H	0.578802	-0.425474	0.057502
H167	H	0.578901	-0.425422	-0.057579
H168	H	0.668534	-0.560440	0.057395
H169	H	0.668545	-0.560284	-0.057686
H170	H	0.740690	-0.633675	-0.000073
H171	H	0.993200	-0.668560	-0.000082
O172	O	1.051850	-0.310595	-0.000098
C173	C	1.119894	-0.447028	-0.000059
C174	C	1.041088	-0.390746	-0.000031
H175	H	1.111220	-0.511841	0.000012
H176	H	1.153420	-0.435495	-0.057613
H177	H	1.153389	-0.435405	0.057468
H178	H	1.007530	-0.402336	-0.057519
H179	H	1.007621	-0.402291	0.057561
H180	H	0.796515	-0.366266	-0.000049
