data_functionalizedCrystal
_audit_creation_method	'MofGen! by Chris Wilmer'
_symmetry_space_group_name_H-M	'P1'
_symmetry_Int_Tables_number	1
_symmetry_cell_setting	triclinic
loop_
_symmetry_equiv_pos_as_xyz
  x,y,z
_cell_length_a	19.188930
_cell_length_b	19.288864
_cell_length_c	18.366186
_cell_angle_alpha	90.022894
_cell_angle_beta	89.988632
_cell_angle_gamma	96.859488
loop_
_atom_site_label
_atom_site_type_symbol
_atom_site_fract_x
_atom_site_fract_y
_atom_site_fract_z
O1	O	0.087099	-0.921359	-0.060791
O2	O	0.420432	-0.588026	0.272542
O3	O	0.753766	-0.254693	0.605875
O4	O	0.098849	-0.719099	-0.060743
O5	O	0.432182	-0.385766	0.272591
O6	O	0.765515	-0.052433	0.605924
O7	O	-0.008682	-0.826066	-0.060754
O8	O	0.324651	-0.492733	0.272579
O9	O	0.657984	-0.159400	0.605913
O10	O	0.194630	-0.814393	-0.060780
O11	O	0.527963	-0.481059	0.272554
O12	O	0.861297	-0.147726	0.605887
O13	O	-0.008687	-0.826048	0.060345
O14	O	0.324646	-0.492715	0.393679
O15	O	0.657979	-0.159381	0.727012
O16	O	0.098843	-0.719081	0.060357
O17	O	0.432177	-0.385748	0.393690
O18	O	0.765510	-0.052415	0.727023
O19	O	0.087094	-0.921341	0.060308
O20	O	0.420427	-0.588008	0.393641
O21	O	0.753761	-0.254674	0.726975
Zn22	Zn	0.092968	-0.820208	0.079560
Zn23	Zn	0.426301	-0.486875	0.412893
Zn24	Zn	0.759634	-0.153542	0.746226
Zn25	Zn	0.092975	-0.820232	-0.079994
Zn26	Zn	0.426308	-0.486899	0.253339
Zn27	Zn	0.759641	-0.153566	0.586673
O28	O	0.194625	-0.814374	0.060320
O29	O	0.527958	-0.481041	0.393653
O30	O	0.861291	-0.147708	0.726986
C31	C	0.098468	-0.693214	-0.000186
C32	C	0.431801	-0.359881	0.333147
C33	C	0.765135	-0.026547	0.666480
C34	C	0.097333	-0.616110	-0.000167
C35	C	0.430666	-0.282777	0.333166
C36	C	0.764000	0.050556	0.666499
C37	C	-0.034696	-0.825679	-0.000202
C38	C	0.298638	-0.492346	0.333131
C39	C	0.631971	-0.159012	0.666464
C40	C	-0.112200	-0.824544	-0.000196
C41	C	0.221133	-0.491211	0.333138
C42	C	0.554466	-0.157878	0.666471
C43	C	0.087475	-0.947227	-0.000250
C44	C	0.420808	-0.613893	0.333084
C45	C	0.754141	-0.280560	0.666417
C46	C	0.088609	-1.024330	-0.000274
C47	C	0.421943	-0.690997	0.333060
C48	C	0.755276	-0.357664	0.666393
C49	C	-0.157129	-0.887309	-0.000207
C50	C	0.176204	-0.553975	0.333126
C51	C	0.509538	-0.220642	0.666459
C52	C	-0.229953	-0.886243	-0.000219
C53	C	0.103381	-0.552909	0.333115
C54	C	0.436714	-0.219576	0.666448
C55	C	-0.257844	-0.822408	-0.000204
C56	C	0.075489	-0.489075	0.333129
C57	C	0.408822	-0.155742	0.666463
C58	C	-0.212906	-0.759636	-0.000196
C59	C	0.120427	-0.426302	0.333137
C60	C	0.453761	-0.092969	0.666470
C61	C	-0.140084	-0.760704	-0.000192
C62	C	0.193250	-0.427370	0.333141
C63	C	0.526583	-0.094037	0.666474
N64	N	-0.365847	-0.773609	0.041020
N65	N	-0.032514	-0.440275	0.374354
N66	N	0.300819	-0.106942	0.707687
N67	N	-0.435026	-0.772598	0.041018
N68	N	-0.101693	-0.439265	0.374351
N69	N	0.231641	-0.105932	0.707685
C70	C	-0.477253	-0.819187	-0.000218
C71	C	-0.143919	-0.485854	0.333116
C72	C	0.189414	-0.152520	0.666449
N73	N	-0.447689	-0.866835	-0.041442
N74	N	-0.114356	-0.533501	0.291891
N75	N	0.218978	-0.200168	0.625225
N76	N	-0.378504	-0.867847	-0.041436
N77	N	-0.045171	-0.534514	0.291897
N78	N	0.288162	-0.201180	0.625230
C79	C	-0.336807	-0.821243	-0.000209
C80	C	-0.003473	-0.487910	0.333125
C81	C	0.329860	-0.154577	0.666458
C82	C	-0.601146	-0.880800	-0.000243
C83	C	-0.267813	-0.547467	0.333090
C84	C	0.065521	-0.214133	0.666424
C85	C	-0.673971	-0.879731	-0.000259
C86	C	-0.340637	-0.546398	0.333075
C87	C	-0.007304	-0.213065	0.666408
C88	C	-0.656922	-0.753122	-0.000229
C89	C	-0.323589	-0.419789	0.333104
C90	C	0.009745	-0.086456	0.666438
C91	C	-0.584099	-0.754193	-0.000220
C92	C	-0.250766	-0.420860	0.333113
C93	C	0.082568	-0.087526	0.666446
C94	C	-0.556216	-0.818034	-0.000224
C95	C	-0.222882	-0.484700	0.333109
C96	C	0.110451	-0.151367	0.666443
C97	C	0.220638	-0.814762	-0.000234
C98	C	0.553972	-0.481428	0.333100
C99	C	0.887305	-0.148095	0.666433
C100	C	0.298143	-0.815896	-0.000245
C101	C	0.631476	-0.482563	0.333088
C102	C	0.964809	-0.149230	0.666422
N103	N	0.092963	-0.820197	0.188451
N104	N	0.426296	-0.486864	0.521784
N105	N	0.759629	-0.153530	0.855117
C106	C	0.160427	-0.571419	-0.000187
C107	C	0.493761	-0.238085	0.333147
C108	C	0.827094	0.095248	0.666480
C109	C	0.159361	-0.498972	-0.000195
C110	C	0.492694	-0.165638	0.333139
C111	C	0.826028	0.167695	0.666472
C112	C	0.095197	-0.471219	-0.000198
C113	C	0.428530	-0.137886	0.333136
C114	C	0.761864	0.195447	0.666469
C115	C	0.032095	-0.515921	-0.000174
C116	C	0.365428	-0.182587	0.333159
C117	C	0.698761	0.150746	0.666493
C118	C	0.033163	-0.588366	-0.000159
C119	C	0.366496	-0.255033	0.333174
C120	C	0.699829	0.078300	0.666508
C121	C	0.044759	-0.362960	-0.042642
C122	C	0.378092	-0.029626	0.290691
C123	C	0.711426	0.303707	0.624024
C124	C	0.043694	-0.290515	-0.042662
C125	C	0.377027	0.042818	0.290671
C126	C	0.710360	0.376151	0.624005
C127	C	0.091900	-0.247773	-0.000241
C128	C	0.425234	0.085560	0.333092
C129	C	0.758567	0.418893	0.666425
C130	C	0.141184	-0.277483	0.042190
C131	C	0.474518	0.055850	0.375523
C132	C	0.807851	0.389183	0.708856
C133	C	0.142253	-0.349929	0.042205
C134	C	0.475586	-0.016596	0.375538
C135	C	0.808919	0.316738	0.708872
C136	C	0.094032	-0.392665	-0.000214
C137	C	0.427365	-0.059332	0.333120
C138	C	0.760699	0.274002	0.666453
C139	C	0.153843	-0.124526	-0.000268
C140	C	0.487176	0.208808	0.333065
C141	C	0.820510	0.542141	0.666398
C142	C	0.152774	-0.052078	-0.000272
C143	C	0.486107	0.281256	0.333062
C144	C	0.819441	0.614589	0.666395
C145	C	0.025506	-0.069028	-0.000259
C146	C	0.358839	0.264305	0.333075
C147	C	0.692172	0.597638	0.666408
C148	C	0.026576	-0.141475	-0.000248
C149	C	0.359910	0.191858	0.333085
C150	C	0.693243	0.525192	0.666419
C151	C	0.090747	-0.169219	-0.000256
C152	C	0.424080	0.164114	0.333077
C153	C	0.757414	0.497448	0.666410
N154	N	0.092974	-0.820249	-0.188885
N155	N	0.426308	-0.486916	0.144448
N156	N	0.759641	-0.153582	0.477781
C157	C	0.045371	-0.867577	0.226546
C158	C	0.378705	-0.534244	0.559879
C159	C	0.712038	-0.200911	0.893213
C160	C	0.045368	-0.867582	0.302774
C161	C	0.378701	-0.534249	0.636107
C162	C	0.712035	-0.200915	0.969441
C163	C	0.092968	-0.820213	0.340903
C164	C	0.426302	-0.486879	0.674237
C165	C	0.759635	-0.153546	1.007570
C166	C	0.140563	-0.772823	0.302799
C167	C	0.473897	-0.439490	0.636132
C168	C	0.807230	-0.106157	0.969466
C169	C	0.140560	-0.772816	0.226573
C170	C	0.473894	-0.439482	0.559906
C171	C	0.807227	-0.106149	0.893239
C172	C	0.156585	-0.810919	0.461657
C173	C	0.489919	-0.477586	0.794990
C174	C	0.823252	-0.144252	1.128324
C175	C	0.156589	-0.810932	0.537882
C176	C	0.489922	-0.477598	0.871215
C177	C	0.823256	-0.144265	1.204549
C178	C	0.092977	-0.820232	0.576011
C179	C	0.426310	-0.486899	0.909344
C180	C	0.759644	-0.153566	1.242678
C181	C	0.029359	-0.829535	0.537906
C182	C	0.362692	-0.496202	0.871239
C183	C	0.696025	-0.162868	1.204572
C184	C	0.029356	-0.829527	0.461679
C185	C	0.362689	-0.496194	0.795013
C186	C	0.696022	-0.162861	1.128346
C187	C	0.092977	-0.820215	0.423558
C188	C	0.426310	-0.486882	0.756892
C189	C	0.759643	-0.153549	1.090225
C190	C	0.045378	-0.867620	0.696761
C191	C	0.378712	-0.534287	1.030095
C192	C	0.712045	-0.200953	1.363428
C193	C	0.045374	-0.867620	0.772990
C194	C	0.378708	-0.534286	1.106324
C195	C	0.712041	-0.200953	1.439657
C196	C	0.140576	-0.772864	0.773014
C197	C	0.473909	-0.439531	1.106347
C198	C	0.807242	-0.106198	1.439681
C199	C	0.140574	-0.772862	0.696786
C200	C	0.473907	-0.439528	1.030120
C201	C	0.807240	-0.106195	1.363453
C202	C	0.092976	-0.820243	0.658664
C203	C	0.426309	-0.486910	0.991998
C204	C	0.759642	-0.153576	1.325331
H205	H	-0.134431	-0.939293	-0.000213
H206	H	0.198902	-0.605960	0.333121
H207	H	0.532235	-0.272626	0.666454
Cl208	Cl	-0.083599	-0.681793	-0.000177
Cl209	Cl	0.249735	-0.348459	0.333156
Cl210	Cl	0.583068	-0.015126	0.666489
Cl211	Cl	-0.048569	-0.481033	-0.000174
Cl212	Cl	0.284764	-0.147700	0.333159
Cl213	Cl	0.618098	0.185634	0.666493
Cl214	Cl	0.201792	-0.223759	0.095522
Cl215	Cl	0.535126	0.109575	0.428855
Cl216	Cl	0.868459	0.442908	0.762189
H217	H	-0.026738	-0.046433	-0.000306
H218	H	0.306595	0.286900	0.333027
H219	H	0.639929	0.620233	0.666360
H220	H	0.006616	-0.906200	0.804008
H221	H	0.339949	-0.572867	1.137342
H222	H	0.673283	-0.239534	1.470675
H223	H	-0.578442	-0.932783	-0.000249
H224	H	-0.245109	-0.599450	0.333084
H225	H	0.088225	-0.266116	0.666418
Cl226	Cl	0.200395	-0.713248	0.178678
Cl227	Cl	0.533729	-0.379915	0.512012
Cl228	Cl	0.867062	-0.046581	0.845345
Cl229	Cl	-0.286445	-0.965153	-0.000234
Cl230	Cl	0.046888	-0.631819	0.333099
Cl231	Cl	0.380222	-0.298486	0.666433
H232	H	-0.235620	-0.707661	-0.000186
H233	H	0.097713	-0.374328	0.333147
H234	H	0.431047	-0.040995	0.666481
H235	H	-0.710552	-0.930844	-0.000272
H236	H	-0.377218	-0.597510	0.333061
H237	H	-0.043885	-0.264177	0.666394
H238	H	0.006612	-0.906166	0.333797
H239	H	0.339945	-0.572832	0.667130
H240	H	0.673279	-0.239499	1.000463
Cl241	Cl	0.232100	0.004108	-0.000292
Cl242	Cl	0.565434	0.337441	0.333041
Cl243	Cl	0.898767	0.670775	0.666374
Cl244	Cl	-0.691979	-0.672873	-0.000215
Cl245	Cl	-0.358646	-0.339539	0.333119
Cl246	Cl	-0.025312	-0.006206	0.666452
H247	H	-0.547517	-0.703083	-0.000207
H248	H	-0.214184	-0.369750	0.333126
H249	H	0.119150	-0.036416	0.666460
Cl250	Cl	-0.014468	-0.927138	0.178622
Cl251	Cl	0.318865	-0.593804	0.511955
Cl252	Cl	0.652199	-0.260471	0.845289
H253	H	0.006619	-0.906199	0.665721
H254	H	0.339953	-0.572866	0.999054
H255	H	0.673286	-0.239532	1.332388
Cl256	Cl	0.241099	-0.606293	-0.000194
Cl257	Cl	0.574432	-0.272960	0.333140
Cl258	Cl	0.907765	0.060373	0.666473
Cl259	Cl	-0.050618	-0.841214	0.413778
Cl260	Cl	0.282716	-0.507880	0.747111
Cl261	Cl	0.616049	-0.174547	1.080444
H262	H	-0.022440	-0.837108	0.568948
H263	H	0.310893	-0.503775	0.902282
H264	H	0.644226	-0.170442	1.235615
Cl265	Cl	0.204203	-0.387277	0.095547
Cl266	Cl	0.537537	-0.053944	0.428881
Cl267	Cl	0.870870	0.279389	0.762214
H268	H	-0.018218	-0.624755	-0.000144
H269	H	0.315115	-0.291422	0.333190
H270	H	0.648449	0.041912	0.666523
H271	H	0.210742	-0.462577	-0.000208
H272	H	0.544075	-0.129243	0.333125
H273	H	0.877408	0.204090	0.666458
Cl274	Cl	0.234513	-0.159408	-0.000271
Cl275	Cl	0.567846	0.173926	0.333062
Cl276	Cl	0.901179	0.507259	0.666395
H277	H	0.179330	-0.734293	0.804059
H278	H	0.512663	-0.400959	1.137392
H279	H	0.845997	-0.067626	1.470725
H280	H	-0.024802	-0.177864	-0.000236
H281	H	0.308531	0.155469	0.333097
H282	H	0.641865	0.488803	0.666431
Cl283	Cl	-0.018256	-0.253172	-0.096011
Cl284	Cl	0.315077	0.080161	0.237323
Cl285	Cl	0.648410	0.413495	0.570656
Cl286	Cl	-0.015850	-0.416686	-0.095976
Cl287	Cl	0.317483	-0.083352	0.237357
Cl288	Cl	0.650816	0.249981	0.570690
H289	H	0.179330	-0.734283	0.665767
H290	H	0.512663	-0.400949	0.999100
H291	H	0.845996	-0.067616	1.332434
Cl292	Cl	0.236565	-0.799242	0.585778
Cl293	Cl	0.569899	-0.465909	0.919112
Cl294	Cl	0.903232	-0.132575	1.252445
Cl295	Cl	0.236564	-0.799291	0.413732
Cl296	Cl	0.569898	-0.465958	0.747065
Cl297	Cl	0.903231	-0.132624	1.080398
H298	H	0.179319	-0.734253	0.333848
H299	H	0.512652	-0.400920	0.667181
H300	H	0.845986	-0.067587	1.000515
