data_functionalizedCrystal
_audit_creation_method	'MofGen! by Chris Wilmer'
_symmetry_space_group_name_H-M	'P1'
_symmetry_Int_Tables_number	1
_symmetry_cell_setting	triclinic
loop_
_symmetry_equiv_pos_as_xyz
  x,y,z
_cell_length_a	18.215407
_cell_length_b	19.121611
_cell_length_c	19.120904
_cell_angle_alpha	94.953252
_cell_angle_beta	87.574329
_cell_angle_gamma	92.404447
loop_
_atom_site_label
_atom_site_type_symbol
_atom_site_fract_x
_atom_site_fract_y
_atom_site_fract_z
Zn1	Zn	1.119946	0.297135	0.409745
Zn2	Zn	1.129903	0.409774	0.297105
Zn3	Zn	1.001921	0.292131	0.292103
Zn4	Zn	1.001850	0.414749	0.414732
O5	O	1.063405	0.353447	0.353421
O6	O	1.224251	0.312089	0.394810
O7	O	1.117123	0.389993	0.197981
O8	O	1.013439	0.194339	0.303528
O9	O	1.231567	0.394844	0.312054
O10	O	1.100151	0.198015	0.389960
O11	O	1.023095	0.303561	0.194306
O12	O	0.898927	0.308384	0.308364
O13	O	1.013319	0.403323	0.512531
O14	O	0.898875	0.398471	0.398458
O15	O	1.100083	0.316912	0.508868
O16	O	1.117055	0.508890	0.316889
O17	O	1.022975	0.512545	0.403309
C18	C	0.872198	0.353425	0.353410
C19	C	0.790399	0.353433	0.353422
C20	C	0.525340	0.400426	0.400275
C21	C	0.602199	0.400420	0.400272
C22	C	0.602211	0.306484	0.306581
C23	C	0.525354	0.306494	0.306582
C24	C	0.486920	0.353465	0.353433
C25	C	0.640636	0.353448	0.353428
C26	C	0.723970	0.353441	0.353424
C27	C	0.403582	0.353473	0.353436
C28	C	1.071107	0.536246	0.361198
C29	C	1.074468	0.614450	0.364549
C30	C	1.030945	0.649337	0.321093
C31	C	1.034110	0.722818	0.324244
C32	C	1.080796	0.761409	0.370855
C33	C	1.124324	0.726517	0.414312
C34	C	1.121162	0.653038	0.411157
C35	C	1.092603	0.983362	0.382631
C36	C	1.095761	1.056846	0.385784
C37	C	1.005548	1.053142	0.295715
C38	C	1.002386	0.979661	0.292567
C39	C	1.045917	0.944775	0.336022
C40	C	1.084031	0.836518	0.374078
C41	C	1.042686	0.869667	0.332794
C42	C	1.255358	0.353470	0.353434
C43	C	1.337157	0.353479	0.353439
C44	C	1.055583	0.361231	0.536943
C45	C	1.052249	0.364548	0.615149
C46	C	1.055650	1.169935	0.345635
C47	C	1.052237	1.091734	0.342329
C48	C	1.071237	0.345643	0.170612
C49	C	1.074705	0.342128	0.092398
C50	C	1.095854	0.321119	0.649984
C51	C	1.092713	0.324233	0.723467
C52	C	1.045970	0.370779	0.762114
C53	C	1.002360	0.414210	0.727273
C54	C	1.005498	0.411092	0.653792
C55	C	1.034232	0.382441	0.984076
C56	C	1.031100	0.385557	1.057562
C57	C	1.121452	0.295578	1.053751
C58	C	1.124589	0.292467	0.980268
C59	C	1.080976	0.335895	0.945434
C60	C	1.042760	0.373965	0.837225
C61	C	1.084183	0.332706	0.870324
H62	H	0.998670	0.751220	0.288857
H63	H	0.964371	0.948241	0.254614
O64	O	0.992334	0.828050	0.282519
H65	H	0.952084	0.795927	0.312546
O66	O	1.139747	0.277392	0.761038
H67	H	1.177076	0.310309	0.795863
H68	H	0.964298	0.452107	0.758745
O69	O	1.139571	0.945737	0.429480
H70	H	1.172566	0.984919	0.462417
O71	O	0.958457	0.457923	0.616213
H72	H	0.925427	0.490815	0.655430
O73	O	0.643664	0.255825	0.256050
H74	H	0.626055	0.201141	0.265849
H75	H	1.133920	0.283217	0.618524
O76	O	0.643640	0.451064	0.450802
H77	H	0.631737	0.505754	0.441008
O78	O	0.483906	0.255838	0.256059
H79	H	0.523541	0.223167	0.223488
O80	O	0.483888	0.451137	0.450752
H81	H	0.523521	0.483813	0.483302
O82	O	0.980669	0.435755	1.099244
H83	H	0.985820	0.430629	1.156192
O84	O	0.980596	0.607714	0.270816
H85	H	0.950871	0.644321	0.241122
H86	H	0.970108	1.081554	0.260337
H87	H	1.133767	1.088266	0.423753
O88	O	1.175007	0.242266	0.938585
H89	H	1.204800	0.212588	0.975154
O90	O	1.174673	0.768136	0.464593
H91	H	1.169553	0.825093	0.459495
O92	O	1.168108	0.615403	0.458022
H93	H	1.201101	0.654581	0.490966
H94	H	1.122041	0.867948	0.412030
H95	H	0.998731	0.417814	0.955723
H96	H	1.156958	0.260221	1.082121
O97	O	1.134604	0.282509	0.828644
H98	H	1.101594	0.245292	0.793636
O99	O	0.992343	0.424166	0.878910
H100	H	1.025356	0.461386	0.913912
