data_functionalizedCrystal
_audit_creation_method	'MofGen! by Chris Wilmer'
_symmetry_space_group_name_H-M	'P1'
_symmetry_Int_Tables_number	1
_symmetry_cell_setting	triclinic
loop_
_symmetry_equiv_pos_as_xyz
  x,y,z
_cell_length_a	18.050590
_cell_length_b	18.050589
_cell_length_c	16.120256
_cell_angle_alpha	92.877403
_cell_angle_beta	92.894501
_cell_angle_gamma	90.017386
loop_
_atom_site_label
_atom_site_type_symbol
_atom_site_fract_x
_atom_site_fract_y
_atom_site_fract_z
Zn1	Zn	1.114048	-0.317180	-0.471068
Zn2	Zn	1.120246	-0.435072	-0.331664
Zn3	Zn	0.996152	-0.310879	-0.331707
Zn4	Zn	0.989815	-0.441309	-0.471070
O5	O	1.055065	-0.376110	-0.401377
O6	O	1.218795	-0.332845	-0.452557
O7	O	1.109030	-0.413350	-0.215004
O8	O	1.011850	-0.207791	-0.350211
O9	O	1.223349	-0.419460	-0.350137
O10	O	1.098467	-0.212420	-0.452599
O11	O	1.017859	-0.322106	-0.215036
O12	O	0.891386	-0.328154	-0.350213
O13	O	1.001049	-0.430090	-0.587735
O14	O	0.886730	-0.423980	-0.452603
O15	O	1.092322	-0.338893	-0.587734
O16	O	1.102885	-0.539823	-0.350139
O17	O	1.007059	-0.544405	-0.452561
C18	C	0.862111	-0.376061	-0.401413
C19	C	0.779564	-0.376058	-0.401448
C20	C	0.577609	-0.428305	-0.456996
C21	C	0.527291	-0.361515	-0.477505
C22	C	0.628435	-0.376098	-0.401408
C23	C	0.531672	-0.442926	-0.380897
C24	C	0.482452	-0.376142	-0.401370
C25	C	0.579203	-0.309274	-0.421957
C26	C	0.583590	-0.390729	-0.325313
C27	C	0.533295	-0.323892	-0.345794
C28	C	0.712533	-0.376074	-0.401432
C29	C	0.398357	-0.376159	-0.401346
C30	C	1.054976	-0.569061	-0.401364
C31	C	1.055005	-0.651608	-0.401385
C32	C	1.002944	-0.853577	-0.457063
C33	C	0.988276	-0.899574	-0.380993
C34	C	1.055077	-0.802739	-0.401396
C35	C	1.069780	-0.903823	-0.477475
C36	C	1.055145	-0.948725	-0.401413
C37	C	1.040376	-0.847648	-0.325286
C38	C	1.121909	-0.851894	-0.421819
C39	C	1.107270	-0.897867	-0.345697
C40	C	1.055036	-0.718640	-0.401388
C41	C	1.055187	-1.032821	-0.401414
C42	C	1.248772	-0.376160	-0.401342
C43	C	1.331319	-0.376181	-0.401327
C44	C	1.045287	-0.385890	-0.618830
C45	C	1.041121	-0.390058	-0.711496
C46	C	1.055174	-0.182406	-0.401409
C47	C	1.055220	-0.099860	-0.401423
C48	C	1.076793	-0.354356	-0.922444
C49	C	1.033488	-0.397636	-0.881152
C50	C	1.037736	-0.393418	-0.786746
C51	C	1.072546	-0.358573	-1.016858
C52	C	1.064848	-0.366314	-0.184770
C53	C	1.069158	-0.361937	-0.092105
H54	H	0.513893	-0.279713	-0.298770
H55	H	1.027901	-0.823174	-0.260937
H56	H	0.993220	-0.437852	-0.916701
C57	C	1.130600	-0.300782	-0.875158
C58	C	1.203135	-0.317892	-0.896282
C59	C	1.252722	-0.268552	-0.852737
H60	H	1.126456	-0.304994	-0.817074
H61	H	1.119182	-0.251488	-0.889388
H62	H	1.214549	-0.367173	-0.882046
H63	H	1.207302	-0.313675	-0.954358
H64	H	1.241305	-0.219259	-0.866967
H65	H	1.248572	-0.272769	-0.794655
H66	H	1.301942	-0.280150	-0.867069
H67	H	1.151389	-0.917259	-0.298575
C68	C	0.616397	-0.407388	-0.239582
C69	C	0.591288	-0.476840	-0.217794
C70	C	0.621505	-0.492223	-0.138830
H71	H	0.601340	-0.370350	-0.200024
H72	H	0.668989	-0.407763	-0.240361
H73	H	0.538707	-0.476459	-0.217009
H74	H	0.606344	-0.513893	-0.257330
H75	H	0.674097	-0.492598	-0.139608
H76	H	0.606446	-0.455181	-0.099279
H77	H	0.604478	-0.539350	-0.124039
C78	C	1.197173	-0.823951	-0.445047
C79	C	1.212242	-0.852472	-0.524788
C80	C	1.281563	-0.826737	-0.546228
H81	H	1.234402	-0.839797	-0.406143
H82	H	1.196740	-0.771295	-0.444418
H83	H	1.212681	-0.905117	-0.525411
H84	H	1.175031	-0.836628	-0.563710
H85	H	1.281130	-0.774081	-0.545599
H86	H	1.318786	-0.842586	-0.507319
H87	H	1.291793	-0.846080	-0.600337
C88	C	0.944199	-0.827488	-0.519855
C89	C	0.978145	-0.787509	-0.579823
C90	C	0.924053	-0.763473	-0.637682
H91	H	0.909687	-0.796548	-0.492179
H92	H	0.918998	-0.869248	-0.546112
H93	H	1.003333	-0.745755	-0.553568
H94	H	1.012652	-0.818434	-0.607520
H95	H	0.898853	-0.805233	-0.663939
H96	H	0.889544	-0.732536	-0.609998
H97	H	0.947078	-0.736350	-0.678381
H98	H	0.502675	-0.349154	-0.541841
C99	C	0.603623	-0.486987	-0.519874
C100	C	0.575001	-0.471334	-0.599414
C101	C	0.598960	-0.525365	-0.657361
H102	H	0.586635	-0.534383	-0.505961
H103	H	0.656285	-0.486851	-0.519150
H104	H	0.522351	-0.471478	-0.600136
H105	H	0.591986	-0.423949	-0.613353
H106	H	0.651622	-0.525230	-0.656636
H107	H	0.581970	-0.572757	-0.643440
H108	H	0.579549	-0.514749	-0.711336
H109	H	0.510758	-0.499423	-0.363567
H110	H	0.931791	-0.920565	-0.363735
H111	H	1.082190	-0.928385	-0.541807
H112	H	0.600019	-0.252764	-0.439362
