data_functionalizedCrystal
_audit_creation_method	'MofGen! by Chris Wilmer'
_symmetry_space_group_name_H-M	'P1'
_symmetry_Int_Tables_number	1
_symmetry_cell_setting	triclinic
loop_
_symmetry_equiv_pos_as_xyz
  x,y,z
_cell_length_a	19.077269
_cell_length_b	19.121063
_cell_length_c	19.077271
_cell_angle_alpha	85.379098
_cell_angle_beta	85.319775
_cell_angle_gamma	90.074438
loop_
_atom_site_label
_atom_site_type_symbol
_atom_site_fract_x
_atom_site_fract_y
_atom_site_fract_z
Zn1	Zn	1.046580	-0.336514	0.370238
Zn2	Zn	1.546580	0.163486	0.870238
Zn3	Zn	1.046222	-0.449397	0.257376
Zn4	Zn	1.546222	0.050603	0.757376
Zn5	Zn	0.933863	-0.327434	0.256701
Zn6	Zn	1.433863	0.172566	0.756701
Zn7	Zn	0.923631	-0.449394	0.379960
Zn8	Zn	1.423631	0.050606	0.879960
O9	O	0.987574	-0.390685	0.316068
O10	O	1.487574	0.109315	0.816068
O11	O	1.145010	-0.355289	0.351480
O12	O	1.645010	0.144711	0.851480
O13	O	1.035450	-0.429421	0.158469
O14	O	1.535450	0.070579	0.658469
O15	O	0.953248	-0.230356	0.267410
O16	O	1.453248	0.269644	0.767410
O17	O	1.144747	-0.438225	0.268561
O18	O	1.644747	0.061775	0.768561
O19	O	1.036060	-0.237026	0.350825
O20	O	1.536060	0.262974	0.850825
O21	O	0.952901	-0.339815	0.157973
O22	O	1.452901	0.160185	0.657973
O23	O	0.834029	-0.339811	0.276837
O24	O	1.334029	0.160189	0.776837
O25	O	0.935808	-0.438218	0.477487
O26	O	1.435808	0.061782	0.977487
O27	O	0.826511	-0.429414	0.367395
O28	O	1.326511	0.070586	0.867395
O29	O	1.026138	-0.355285	0.470344
O30	O	1.526138	0.144715	0.970344
O31	O	1.025528	-0.547680	0.277988
O32	O	1.525528	-0.047680	0.777988
O33	O	0.935461	-0.547677	0.368050
O34	O	1.435461	-0.047677	0.868050
C35	C	0.804735	-0.383627	0.323098
C36	C	1.304735	0.116373	0.823098
C37	C	0.726515	-0.380626	0.326123
C38	C	1.226515	0.119374	0.826123
C39	C	0.689633	-0.422320	0.284302
C40	C	1.189633	0.077680	0.784302
C41	C	0.616136	-0.419500	0.287154
C42	C	1.116136	0.080500	0.787154
C43	C	0.579522	-0.374982	0.331823
C44	C	1.079522	0.125018	0.831823
C45	C	0.616409	-0.333286	0.373648
C46	C	1.116409	0.166714	0.873648
C47	C	0.689905	-0.336110	0.370800
C48	C	1.189905	0.163890	0.870800
C49	C	0.359729	-0.361918	0.344982
C50	C	0.859729	0.138082	0.844982
C51	C	0.286228	-0.359095	0.347825
C52	C	0.786228	0.140905	0.847825
C53	C	0.285960	-0.445311	0.261331
C54	C	0.785960	0.054689	0.761331
C55	C	0.359457	-0.448127	0.258484
C56	C	0.859457	0.051873	0.758484
C57	C	0.396337	-0.406434	0.300312
C58	C	0.896337	0.093566	0.800312
N59	N	0.504397	-0.372097	0.334737
N60	N	1.004397	0.127903	0.834737
N61	N	0.471461	-0.409323	0.297401
N62	N	0.971461	0.090677	0.797401
C63	C	0.979364	-0.573163	0.324162
C64	C	1.479364	-0.073163	0.824162
C65	C	0.975914	-0.651232	0.327646
C66	C	1.475914	-0.151232	0.827646
C67	C	1.021221	-0.687889	0.282428
C68	C	1.521221	-0.187889	0.782428
C69	C	1.017981	-0.761243	0.285709
C70	C	1.517981	-0.261243	0.785709
C71	C	0.969431	-0.797938	0.334204
C72	C	1.469431	-0.297938	0.834204
C73	C	0.924122	-0.761275	0.379426
C74	C	1.424122	-0.261275	0.879426
C75	C	0.927366	-0.687923	0.376149
C76	C	1.427366	-0.187923	0.876149
C77	C	0.957292	-1.019416	0.346447
C78	C	1.457292	-0.519416	0.846447
C79	C	0.954050	-1.092773	0.349719
C80	C	1.454050	-0.592773	0.849719
C81	C	1.047910	-1.092736	0.256002
C82	C	1.547910	-0.592736	0.756002
C83	C	1.051146	-1.019382	0.252726
C84	C	1.551146	-0.519382	0.752726
C85	C	1.005840	-0.982726	0.297951
C86	C	1.505840	-0.482726	0.797951
C87	C	0.966116	-0.872917	0.337556
C88	C	1.466116	-0.372917	0.837556
C89	C	1.009159	-0.907748	0.294601
C90	C	1.509159	-0.407748	0.794601
C91	C	1.171127	-0.397770	0.309012
C92	C	1.671127	0.102230	0.809012
C93	C	1.249346	-0.400790	0.306005
C94	C	1.749346	0.099210	0.806005
C95	C	0.979871	-0.397764	0.500254
C96	C	1.479871	0.102236	1.000254
C97	C	0.976589	-0.400781	0.578743
C98	C	1.476589	0.099219	1.078743
C99	C	0.995836	-0.207495	0.307958
C100	C	1.495836	0.292505	0.807958
C101	C	0.999356	-0.129431	0.304502
C102	C	1.499356	0.370569	0.804502
C103	C	1.022075	-0.359022	0.611900
C104	C	1.522075	0.140978	1.111900
C105	C	1.018982	-0.361853	0.685649
C106	C	1.518982	0.138147	1.185649
C107	C	0.970406	-0.406448	0.726240
C108	C	1.470406	0.093552	1.226240
C109	C	0.924916	-0.448209	0.693079
C110	C	1.424916	0.051791	1.193079
C111	C	0.928006	-0.445373	0.619331
C112	C	1.428006	0.054627	1.119331
C113	C	0.956119	-0.419555	0.947201
C114	C	1.456119	0.080445	1.447201
C115	C	0.953034	-0.422390	1.020954
C116	C	1.453034	0.077610	1.520954
C117	C	1.047100	-0.336032	1.013520
C118	C	1.547100	0.163968	1.513520
C119	C	1.050188	-0.333204	0.939771
C120	C	1.550188	0.166796	1.439771
C121	C	1.004695	-0.374962	0.906616
C122	C	1.504695	0.125038	1.406616
N123	N	0.967245	-0.409345	0.801624
N124	N	1.467245	0.090655	1.301624
N125	N	1.007853	-0.372061	0.831233
N126	N	1.507853	0.127939	1.331233
C127	C	0.995240	-0.383648	1.132600
C128	C	1.495240	0.116352	1.632600
C129	C	0.998520	-0.380630	1.054111
C130	C	1.498520	0.119370	1.554111
H131	H	0.256420	-0.322837	0.384198
H132	H	0.756420	0.177163	0.884198
O133	O	1.091257	-0.295364	1.045647
O134	O	1.591257	0.204636	1.545647
C135	C	1.079774	-0.224079	1.025130
C136	C	1.579774	0.275921	1.525130
H137	H	1.055030	-0.219523	0.972558
H138	H	1.555030	0.280477	1.472558
H139	H	1.132087	-0.194448	1.019262
H140	H	1.632087	0.305552	1.519262
H141	H	1.042921	-0.200623	1.066977
H142	H	1.542921	0.299377	1.566977
O143	O	0.395442	-0.321341	0.385628
O144	O	0.895442	0.178659	0.885628
C145	C	0.347363	-0.281453	0.425670
C146	C	0.847363	0.218547	0.925670
H147	H	0.296285	-0.275859	0.398670
H148	H	0.796285	0.224141	0.898670
H149	H	0.370763	-0.227234	0.430012
H150	H	0.870763	0.272766	0.930012
H151	H	0.336162	-0.309010	0.480708
H152	H	0.836162	0.190990	0.980708
H153	H	0.890959	-0.479371	0.592336
H154	H	1.390959	0.020629	1.092336
O155	O	0.911865	-0.460012	0.914960
O156	O	1.411865	0.039988	1.414960
C157	C	0.870019	-0.416626	0.872265
C158	C	1.370019	0.083374	1.372265
H159	H	0.867236	-0.361999	0.892214
H160	H	1.367236	0.138001	1.392214
H161	H	0.814751	-0.439902	0.874625
H162	H	1.314751	0.060098	1.374625
H163	H	0.894230	-0.412892	0.815431
H164	H	1.394230	0.087108	1.315431
H165	H	0.586110	-0.453452	0.253099
H166	H	1.086110	0.046548	0.753099
H167	H	0.586593	-0.297042	0.410022
H168	H	1.086593	0.202958	0.910022
O169	O	0.906907	-1.128526	0.396768
O170	O	1.406907	-0.628526	0.896768
C171	C	0.913770	-1.201129	0.389969
C172	C	1.413770	-0.701129	0.889969
H173	H	0.938696	-1.209942	0.335050
H174	H	1.438696	-0.709942	0.835050
H175	H	0.859621	-1.227200	0.397989
H176	H	1.359621	-0.727200	0.897989
H177	H	0.948542	-1.224955	0.431370
H178	H	1.448542	-0.724955	0.931370
H179	H	1.084796	-1.122589	0.219184
H180	H	1.584796	-0.622589	0.719184
H181	H	0.913476	-0.458706	1.054002
H182	H	1.413476	0.041294	1.554002
H183	H	1.089746	-0.296892	0.906726
H184	H	1.589746	0.203108	1.406726
H185	H	0.885362	-0.484516	0.726134
H186	H	1.385362	0.015484	1.226134
H187	H	1.061632	-0.322710	0.578856
H188	H	1.561632	0.177290	1.078856
O189	O	0.876868	-0.796835	0.426502
O190	O	1.376868	-0.296835	0.926502
C191	C	0.808179	-0.775688	0.412901
C192	C	1.308179	-0.275688	0.912901
H193	H	0.810233	-0.721344	0.383430
H194	H	1.310233	-0.221344	0.883430
H195	H	0.774565	-0.773921	0.464943
H196	H	1.274565	-0.273921	0.964943
H197	H	0.784195	-0.814698	0.379334
H198	H	1.284195	-0.314698	0.879334
H199	H	1.060752	-0.658017	0.242936
H200	H	1.560752	-0.158017	0.742936
O201	O	0.725157	-0.465669	0.240992
O202	O	1.225157	0.034331	0.740992
C203	C	0.703402	-0.535588	0.260103
C204	C	1.203402	-0.035588	0.760103
H205	H	0.680693	-0.540611	0.317454
H206	H	1.180693	-0.040611	0.817454
H207	H	0.750431	-0.571900	0.253630
H208	H	1.250431	-0.071900	0.753630
H209	H	0.661491	-0.550794	0.224680
H210	H	1.161491	-0.050794	0.724680
O211	O	0.394910	-0.491433	0.215076
O212	O	0.894910	0.008567	0.715076
C213	C	0.346597	-0.527615	0.178759
C214	C	0.846597	-0.027615	0.678759
H215	H	0.292895	-0.529197	0.209819
H216	H	0.792895	-0.029197	0.709819
H217	H	0.365667	-0.583461	0.172760
H218	H	0.865667	-0.083461	0.672760
H219	H	0.342162	-0.499447	0.124332
H220	H	0.842162	0.000553	0.624332
O221	O	1.063242	-0.321267	0.717745
O222	O	1.563242	0.178733	1.217745
C223	C	1.106770	-0.281290	0.666104
C224	C	1.606770	0.218710	1.166104
H225	H	1.110109	-0.308132	0.614715
H226	H	1.610109	0.191868	1.114715
H227	H	1.161661	-0.276762	0.684953
H228	H	1.661661	0.223238	1.184953
H229	H	1.083739	-0.226651	0.656887
H230	H	1.583739	0.273349	1.156887
O231	O	0.725627	-0.295540	0.411449
O232	O	1.225627	0.204460	0.911449
C233	C	0.677553	-0.255654	0.451500
C234	C	1.177553	0.244346	0.951500
H235	H	0.626476	-0.250048	0.424499
H236	H	1.126476	0.249952	0.924499
H237	H	0.700959	-0.201440	0.455853
H238	H	1.200959	0.298560	0.955853
H239	H	0.666348	-0.283221	0.506533
H240	H	1.166348	0.216779	1.006533
O241	O	0.883384	-0.652392	0.420173
O242	O	1.383384	-0.152392	0.920173
C243	C	0.894989	-0.673558	0.490774
C244	C	1.394989	-0.173558	0.990774
H245	H	0.919620	-0.727895	0.493595
H246	H	1.419620	-0.227895	0.993595
H247	H	0.842743	-0.675349	0.524468
H248	H	1.342743	-0.175349	1.024468
H249	H	0.931987	-0.634546	0.511348
H250	H	1.431987	-0.134546	1.011348
O251	O	0.913201	-0.983920	0.390396
O252	O	1.413201	-0.483920	0.890396
C253	C	0.869663	-1.032040	0.433906
C254	C	1.369663	-0.532040	0.933906
H255	H	0.866157	-1.083139	0.407409
H256	H	1.366157	-0.583139	0.907409
H257	H	0.814829	-1.009045	0.442571
H258	H	1.314829	-0.509045	0.942571
H259	H	0.892794	-1.042848	0.486920
H260	H	1.392794	-0.542848	0.986920
H261	H	0.255923	-0.479256	0.227279
H262	H	0.755923	0.020744	0.727279
H263	H	1.048691	-0.877870	0.255119
H264	H	1.548691	-0.377870	0.755119
O265	O	1.062137	-0.796729	0.241809
O266	O	1.562137	-0.296729	0.741809
C267	C	1.132380	-0.781974	0.253862
C268	C	1.632380	-0.281974	0.753862
H269	H	1.134951	-0.729816	0.278614
H270	H	1.634951	-0.229816	0.778614
H271	H	1.166246	-0.778648	0.201613
H272	H	1.666246	-0.278648	0.701613
H273	H	1.152742	-0.825526	0.291104
H274	H	1.652742	-0.325526	0.791104
O275	O	1.098280	-0.983815	0.205528
O276	O	1.598280	-0.483815	0.705528
C277	C	1.085100	-0.998473	0.136526
C278	C	1.585100	-0.498473	0.636526
H279	H	1.055751	-1.050653	0.138460
H280	H	1.555751	-0.550653	0.638460
H281	H	1.137128	-1.001701	0.103064
H282	H	1.637128	-0.501701	0.603064
H283	H	1.051762	-0.954919	0.112256
H284	H	1.551762	-0.454919	0.612256
O285	O	0.919044	-0.908647	0.384693
O286	O	1.419044	-0.408647	0.884693
C287	C	0.955293	-0.954308	0.430699
C288	C	1.455293	-0.454308	0.930699
H289	H	1.009203	-0.966355	0.404278
H290	H	1.509203	-0.466355	0.904278
H291	H	0.923950	-1.005171	0.443539
H292	H	1.423950	-0.505171	0.943539
H293	H	0.962036	-0.928321	0.481480
H294	H	1.462036	-0.428321	0.981480
