data_functionalizedCrystal
_audit_creation_method	'MofGen! by Chris Wilmer'
_symmetry_space_group_name_H-M	'P1'
_symmetry_Int_Tables_number	1
_symmetry_cell_setting	triclinic
loop_
_symmetry_equiv_pos_as_xyz
  x,y,z
_cell_length_a	12.827893
_cell_length_b	18.050590
_cell_length_c	18.050582
_cell_angle_alpha	89.976663
_cell_angle_beta	89.987073
_cell_angle_gamma	90.018523
loop_
_atom_site_label
_atom_site_type_symbol
_atom_site_fract_x
_atom_site_fract_y
_atom_site_fract_z
Zn1	Zn	1.597581	-0.295707	-0.419869
Zn2	Zn	1.930915	0.037626	-0.086536
Zn3	Zn	2.264248	0.370959	0.246798
Zn4	Zn	1.597485	-0.419890	-0.295677
Zn5	Zn	1.930818	-0.086557	0.037656
Zn6	Zn	2.264152	0.246776	0.370989
Zn7	Zn	1.422842	-0.295719	-0.295698
Zn8	Zn	1.756175	0.037615	0.037636
Zn9	Zn	2.089509	0.370948	0.370969
Zn10	Zn	1.422798	-0.419860	-0.419830
Zn11	Zn	1.756132	-0.086526	-0.086497
Zn12	Zn	2.089465	0.246807	0.246836
O13	O	1.510177	-0.357794	-0.357769
O14	O	1.843510	-0.024461	-0.024435
O15	O	2.176843	0.308873	0.308898
O16	O	1.743804	-0.312188	-0.403403
O17	O	2.077138	0.021145	-0.070069
O18	O	2.410471	0.354478	0.263264
O19	O	1.574296	-0.403437	-0.191755
O20	O	1.907630	-0.070103	0.141578
O21	O	2.240963	0.263230	0.474911
O22	O	1.446080	-0.191793	-0.312194
O23	O	1.779413	0.141541	0.021140
O24	O	2.112747	0.474874	0.354473
O25	O	1.743734	-0.403425	-0.312160
O26	O	2.077067	-0.070092	0.021174
O27	O	2.410400	0.263241	0.354507
O28	O	1.574460	-0.191784	-0.403422
O29	O	1.907794	0.141549	-0.070089
O30	O	2.241127	0.474883	0.263245
O31	O	1.445987	-0.312208	-0.191770
O32	O	1.779320	0.021125	0.141563
O33	O	2.112653	0.354459	0.474896
O34	O	1.276600	-0.312178	-0.312156
O35	O	1.609933	0.021155	0.021177
O36	O	1.943267	0.354488	0.354511
O37	O	1.446006	-0.403373	-0.523760
O38	O	1.779339	-0.070040	-0.190427
O39	O	2.112672	0.263294	0.142907
O40	O	1.276568	-0.403384	-0.403356
O41	O	1.609901	-0.070051	-0.070023
O42	O	1.943235	0.263282	0.263311
O43	O	1.574418	-0.312159	-0.523789
O44	O	1.907751	0.021175	-0.190455
O45	O	2.241084	0.354508	0.142878
O46	O	1.574254	-0.523811	-0.312122
O47	O	1.907587	-0.190478	0.021211
O48	O	2.240921	0.142856	0.354545
O49	O	1.445912	-0.523788	-0.403336
O50	O	1.779246	-0.190455	-0.070003
O51	O	2.112579	0.142878	0.263330
C52	C	1.238667	-0.357780	-0.357754
C53	C	1.572000	-0.024446	-0.024421
C54	C	1.905333	0.308887	0.308912
C55	C	1.122514	-0.357792	-0.357766
C56	C	1.455847	-0.024458	-0.024433
C57	C	1.789180	0.308875	0.308901
C58	C	1.070741	-0.402994	-0.402825
C59	C	1.404074	-0.069660	-0.069492
C60	C	1.737407	0.263673	0.263842
C61	C	0.950690	-0.403007	-0.402838
C62	C	1.284024	-0.069673	-0.069505
C63	C	1.617357	0.263660	0.263829
C64	C	1.510096	-0.550746	-0.357739
C65	C	1.843430	-0.217413	-0.024406
C66	C	2.176763	0.115920	0.308928
C67	C	1.510157	-0.633292	-0.357751
C68	C	1.843491	-0.299959	-0.024418
C69	C	2.176824	0.033375	0.308916
C70	C	1.580095	-0.832728	-0.308218
C71	C	1.913428	-0.499395	0.025115
C72	C	2.246761	-0.166061	0.358449
C73	C	1.605614	-0.882067	-0.375997
C74	C	1.938947	-0.548733	-0.042664
C75	C	2.272281	-0.215400	0.290669
C76	C	1.510217	-0.784422	-0.357781
C77	C	1.843550	-0.451089	-0.024447
C78	C	2.176883	-0.117756	0.308886
C79	C	1.484804	-0.882165	-0.290032
C80	C	1.818137	-0.548832	0.043302
C81	C	2.151471	-0.215499	0.376635
C82	C	1.510276	-0.930407	-0.357803
C83	C	1.843609	-0.597074	-0.024470
C84	C	2.176943	-0.263741	0.308863
C85	C	1.535785	-0.832674	-0.425596
C86	C	1.869118	-0.499340	-0.092263
C87	C	2.202451	-0.166007	0.241071
C88	C	1.414931	-0.832768	-0.339584
C89	C	1.748264	-0.499435	-0.006251
C90	C	2.081597	-0.166102	0.327082
C91	C	1.440413	-0.882085	-0.407411
C92	C	1.773747	-0.548751	-0.074077
C93	C	2.107080	-0.215418	0.259256
C94	C	1.510185	-0.700324	-0.357767
C95	C	1.843519	-0.366991	-0.024433
C96	C	2.176852	-0.033657	0.308900
C97	C	1.510307	-1.014504	-0.357825
C98	C	1.843641	-0.681171	-0.024492
C99	C	2.176974	-0.347837	0.308842
C100	C	1.782747	-0.357809	-0.357783
C101	C	2.116080	-0.024476	-0.024450
C102	C	2.449413	0.308858	0.308883
C103	C	1.898900	-0.357815	-0.357789
C104	C	2.232233	-0.024482	-0.024456
C105	C	2.565566	0.308851	0.308877
C106	C	1.510218	-0.357761	-0.551474
C107	C	1.843551	-0.024428	-0.218141
C108	C	2.176884	0.308906	0.115192
C109	C	1.510235	-0.357747	-0.634020
C110	C	1.843568	-0.024414	-0.300687
C111	C	2.176902	0.308920	0.032647
C112	C	1.510286	-0.164088	-0.357815
C113	C	1.843619	0.169245	-0.024481
C114	C	2.176952	0.502578	0.308852
C115	C	1.510332	-0.081543	-0.357834
C116	C	1.843666	0.251791	-0.024501
C117	C	2.176999	0.585124	0.308833
C118	C	1.440458	-0.407282	-0.833455
C119	C	1.773791	-0.073948	-0.500122
C120	C	2.107124	0.259385	-0.166789
C121	C	1.535803	-0.425435	-0.882844
C122	C	1.869136	-0.092102	-0.549511
C123	C	2.202470	0.241231	-0.216177
C124	C	1.510286	-0.357690	-0.785151
C125	C	1.843620	-0.024357	-0.451817
C126	C	2.176953	0.308976	-0.118484
C127	C	1.414994	-0.339516	-0.882844
C128	C	1.748327	-0.006183	-0.549510
C129	C	2.081660	0.327150	-0.216177
C130	C	1.510328	-0.357637	-0.931136
C131	C	1.843661	-0.024304	-0.597802
C132	C	2.176995	0.309030	-0.264469
C133	C	1.605682	-0.375879	-0.833452
C134	C	1.939015	-0.042546	-0.500119
C135	C	2.272348	0.290787	-0.166785
C136	C	1.484808	-0.289929	-0.833447
C137	C	1.818141	0.043404	-0.500114
C138	C	2.151475	0.376738	-0.166781
C139	C	1.580219	-0.308057	-0.882814
C140	C	1.913552	0.025277	-0.549480
C141	C	2.246886	0.358610	-0.216147
C142	C	1.510261	-0.357723	-0.701052
C143	C	1.843595	-0.024390	-0.367719
C144	C	2.176928	0.308944	-0.034386
C145	C	1.510364	-0.357604	-1.015232
C146	C	1.843697	-0.024271	-0.681899
C147	C	2.177031	0.309062	-0.348566
C148	C	1.510196	-0.357773	-0.164816
C149	C	1.843529	-0.024440	0.168517
C150	C	2.176863	0.308893	0.501850
C151	C	1.510381	-0.357578	-0.082271
C152	C	1.843714	-0.024245	0.251062
C153	C	2.177048	0.309089	0.584396
H154	H	0.943417	-0.319117	-0.319208
H155	H	1.276750	0.014217	0.014125
H156	H	1.610083	0.347550	0.347458
F157	F	1.128968	-0.453567	-0.453235
F158	F	1.462301	-0.120234	-0.119901
F159	F	1.795634	0.213099	0.213432
H160	H	1.639357	-0.266096	-0.904349
H161	H	1.972690	0.067237	-0.571016
H162	H	2.306024	0.400570	-0.237682
H163	H	1.463205	-0.232664	-0.811733
H164	H	1.796539	0.100670	-0.478400
H165	H	2.129872	0.434003	-0.145066
F166	F	1.309638	-0.319452	-0.911202
F167	F	1.642972	0.013881	-0.577869
F168	F	1.976305	0.347214	-0.244536
F169	F	1.363345	-0.462167	-0.805126
F170	F	1.696678	-0.128833	-0.471793
F171	F	2.030012	0.204500	-0.138459
F172	F	1.564004	-0.500306	-0.911206
F173	F	1.897338	-0.166972	-0.577872
F174	F	2.230671	0.166361	-0.244539
F175	F	1.064286	-0.307216	-0.307358
F176	F	1.397620	0.026117	0.025975
F177	F	1.730953	0.359451	0.359309
F178	F	1.710976	-0.910360	-0.396144
F179	F	2.044309	-0.577026	-0.062811
F180	F	2.377642	-0.243693	0.270523
F181	F	1.657357	-0.804399	-0.253489
F182	F	1.990690	-0.471066	0.079844
F183	F	2.324023	-0.137733	0.413177
F184	F	0.892498	-0.453595	-0.453259
F185	F	1.225832	-0.120262	-0.119925
F186	F	1.559165	0.213072	0.213408
H187	H	1.686310	-0.391294	-0.811847
H188	H	2.019644	-0.057961	-0.478514
H189	H	2.352977	0.275373	-0.145181
F190	F	1.564045	-0.804382	-0.500516
F191	F	1.897379	-0.471049	-0.167183
F192	F	2.230712	-0.137716	0.166150
H193	H	1.381345	-0.903619	-0.449383
H194	H	1.714679	-0.570286	-0.116049
H195	H	2.048012	-0.236953	0.217284
H196	H	1.334347	-0.811096	-0.324159
H197	H	1.667680	-0.477762	0.009174
H198	H	2.001014	-0.144429	0.342507
F199	F	1.456677	-0.910581	-0.215132
F200	F	1.790010	-0.577248	0.118201
F201	F	2.123344	-0.243914	0.451534
