data_functionalizedCrystal
_audit_creation_method	'MofGen! by Chris Wilmer'
_symmetry_space_group_name_H-M	'P1'
_symmetry_Int_Tables_number	1
_symmetry_cell_setting	triclinic
loop_
_symmetry_equiv_pos_as_xyz
  x,y,z
_cell_length_a	6.817900
_cell_length_b	14.858565
_cell_length_c	14.858340
_cell_angle_alpha	94.732201
_cell_angle_beta	104.519754
_cell_angle_gamma	104.523916
loop_
_atom_site_label
_atom_site_type_symbol
_atom_site_fract_x
_atom_site_fract_y
_atom_site_fract_z
V1	V	-4.043518	-0.129264	-0.290221
V2	V	-3.543518	0.370736	0.209779
O3	O	-4.025342	0.005601	-0.284429
O4	O	-3.525342	0.505601	0.215571
O5	O	-4.000085	-0.255721	-0.288493
O6	O	-3.500085	0.244279	0.211507
O7	O	-4.000069	-0.127543	-0.416679
O8	O	-3.500069	0.372457	0.083321
O9	O	-4.025358	-0.123464	-0.155355
O10	O	-3.525358	0.376536	0.344645
V11	V	-4.525861	-0.113101	-0.274059
V12	V	-4.025861	0.386899	0.225941
O13	O	-4.307365	-0.164719	-0.325674
O14	O	-3.807365	0.335281	0.174326
O15	O	-4.712211	-0.077646	-0.238606
O16	O	-4.212211	0.422354	0.261394
O17	O	-4.346087	0.013357	-0.275787
O18	O	-3.846087	0.513357	0.224213
O19	O	-4.661433	-0.247965	-0.279850
O20	O	-4.161433	0.252035	0.220150
O21	O	-4.661417	-0.118900	-0.408924
O22	O	-4.161417	0.381100	0.091076
O23	O	-4.346103	-0.114821	-0.147600
O24	O	-3.846103	0.385179	0.352400
C25	C	-3.846134	-0.286540	-0.283980
C26	C	-3.346134	0.213460	0.216020
C27	C	-3.891942	-0.389923	-0.283410
C28	C	-3.391942	0.110077	0.216590
C29	C	-3.846113	-0.123035	-0.447494
C30	C	-3.346113	0.376965	0.052506
C31	C	-3.891905	-0.122465	-0.550876
C32	C	-3.391905	0.377535	-0.050876
C33	C	-3.929091	-0.122001	-0.634833
C34	C	-3.429091	0.377999	-0.134833
C35	C	-3.975757	-0.121415	-0.740161
C36	C	-3.475757	0.378585	-0.240161
C37	C	-4.012967	-0.120948	-0.824112
C38	C	-3.512967	0.379052	-0.324112
C39	C	-4.059638	-0.120364	-0.929447
C40	C	-3.559638	0.379636	-0.429447
C41	C	-4.059607	-0.768489	-0.281336
C42	C	-3.559607	-0.268489	0.218664
C43	C	-4.012949	-0.663160	-0.281912
C44	C	-3.512949	-0.163160	0.218088
C45	C	-3.975775	-0.579209	-0.282372
C46	C	-3.475775	-0.079209	0.217628
C47	C	-3.929116	-0.473874	-0.282951
C48	C	-3.429116	0.026126	0.217049
C49	C	-4.163380	0.044171	-0.280297
C50	C	-3.663380	0.544171	0.219703
C51	C	-4.096810	0.147553	-0.280873
C52	C	-3.596810	0.647553	0.219127
C53	C	-4.163402	-0.119332	-0.116781
C54	C	-3.663402	0.380668	0.383219
C55	C	-4.096848	-0.119897	-0.013398
C56	C	-3.596848	0.380103	0.486602
