data_functionalizedCrystal
_audit_creation_method	'MofGen! by Chris Wilmer'
_symmetry_space_group_name_H-M	'P1'
_symmetry_Int_Tables_number	1
_symmetry_cell_setting	triclinic
loop_
_symmetry_equiv_pos_as_xyz
  x,y,z
_cell_length_a	29.839131
_cell_length_b	14.908571
_cell_length_c	14.908308
_cell_angle_alpha	90.175053
_cell_angle_beta	86.738717
_cell_angle_gamma	93.262683
loop_
_atom_site_label
_atom_site_type_symbol
_atom_site_fract_x
_atom_site_fract_y
_atom_site_fract_z
Zn1	Zn	-0.234441	-1.345126	0.587534
Zn2	Zn	0.265559	-0.845126	1.087534
Zn3	Zn	-0.305498	-1.353655	0.437159
Zn4	Zn	0.194502	-0.853655	0.937159
Zn5	Zn	-0.225812	-1.203447	0.428533
Zn6	Zn	0.274188	-0.703447	0.928533
Zn7	Zn	-0.304964	-1.194683	0.578811
Zn8	Zn	0.195036	-0.694683	1.078811
O9	O	-0.267679	-1.274228	0.508009
O10	O	0.232321	-0.774228	1.008009
O11	O	-0.247701	-1.472080	0.574847
O12	O	0.252299	-0.972080	1.074847
O13	O	-0.291540	-1.340967	0.310191
O14	O	0.208460	-0.840967	0.810191
O15	O	-0.164094	-1.222340	0.449665
O16	O	0.335906	-0.722340	0.949665
O17	O	-0.299907	-1.478346	0.464367
O18	O	0.200093	-0.978346	0.964367
O19	O	-0.170433	-1.326430	0.566482
O20	O	0.329567	-0.826430	1.066482
O21	O	-0.232995	-1.230610	0.303854
O22	O	0.267005	-0.730610	0.803854
O23	O	-0.232477	-1.076461	0.441208
O24	O	0.267523	-0.576461	0.941208
O25	O	-0.298997	-1.207402	0.705792
O26	O	0.201003	-0.707402	1.205792
O27	O	-0.290630	-1.070022	0.551616
O28	O	0.209370	-0.570022	1.051616
O29	O	-0.247184	-1.317932	0.712201
O30	O	0.252816	-0.817932	1.212201
O31	O	-0.368290	-1.332468	0.455909
O32	O	0.131710	-0.832468	0.955909
O33	O	-0.367898	-1.215672	0.559980
O34	O	0.132102	-0.715672	1.059980
C35	C	-0.384395	-1.274068	0.507955
C36	C	0.115605	-0.774068	1.007955
C37	C	-0.434330	-1.274080	0.507967
C38	C	0.065670	-0.774080	1.007967
C39	C	-0.260560	-1.040617	0.494530
C40	C	0.239440	-0.540617	0.994530
C41	C	-0.257526	-0.940676	0.488784
C42	C	0.242474	-0.440676	0.988784
C43	C	-0.273993	-1.260738	0.742533
C44	C	0.226007	-0.760738	1.242533
C45	C	-0.276684	-1.254989	0.842474
C46	C	0.223316	-0.754989	1.342474
C47	C	-0.744176	-1.335143	0.453910
C48	C	-0.244176	-0.835143	0.953910
C49	C	-0.931853	-1.335252	0.453951
C50	C	-0.431853	-0.835252	0.953951
O51	O	-0.956286	-1.387043	0.407948
O52	O	-0.456286	-0.887043	0.907948
N53	N	-0.955128	-1.274410	0.508088
N54	N	-0.455128	-0.774410	1.008088
C55	C	-0.931481	-1.213541	0.562223
C56	C	-0.431481	-0.713541	1.062223
O57	O	-0.955585	-1.161800	0.608278
O58	O	-0.455585	-0.661800	1.108278
C59	C	-0.743805	-1.213437	0.562186
C60	C	-0.243805	-0.713437	1.062186
C61	C	-0.720532	-1.274276	0.508038
C62	C	-0.220532	-0.774276	1.008038
C63	C	-0.720903	-1.395978	0.399768
C64	C	-0.220903	-0.895978	0.899768
C65	C	-0.673987	-1.395947	0.399754
C66	C	-0.173987	-0.895947	0.899754
C67	C	-0.650343	-1.335081	0.453883
C68	C	-0.150343	-0.835081	0.953883
C69	C	-0.673615	-1.274245	0.508025
C70	C	-0.173615	-0.774245	1.008025
C71	C	-0.720159	-1.152572	0.616325
C72	C	-0.220159	-0.652572	1.116325
C73	C	-0.673237	-1.152553	0.616312
C74	C	-0.173237	-0.652553	1.116312
C75	C	-0.649964	-1.213393	0.562165
C76	C	-0.149964	-0.713393	1.062165
C77	C	-0.603055	-1.213348	0.562140
C78	C	-0.103055	-0.713348	1.062140
N79	N	-0.579780	-1.274189	0.508003
N80	N	-0.079780	-0.774189	1.008003
C81	C	-0.603424	-1.335056	0.453875
C82	C	-0.103424	-0.835056	0.953875
C83	C	-1.030014	-1.213598	0.562237
C84	C	-0.530014	-0.713598	1.062237
C85	C	-1.076933	-1.213623	0.562245
C86	C	-0.576933	-0.713623	1.062245
C87	C	-1.077302	-1.335336	0.453975
C88	C	-0.577302	-0.835336	0.953975
C89	C	-1.030382	-1.335306	0.453962
C90	C	-0.530382	-0.835306	0.953962
C91	C	-1.006739	-1.274440	0.508100
C92	C	-0.506739	-0.774440	1.008100
C93	C	-0.504895	-1.334986	0.453850
C94	C	-0.004895	-0.834986	0.953850
C95	C	-0.457974	-1.334947	0.453839
C96	C	0.042026	-0.834947	0.953839
C97	C	-0.457609	-1.213238	0.562112
C98	C	0.042391	-0.713238	1.062112
C99	C	-0.504526	-1.213273	0.562121
C100	C	-0.004526	-0.713273	1.062121
C101	C	-0.528168	-1.274154	0.507987
C102	C	-0.028168	-0.774154	1.007987
O103	O	-0.578594	-1.161590	0.608127
O104	O	-0.078594	-0.661590	1.108127
O105	O	-0.579313	-1.386803	0.407842
O106	O	-0.079313	-0.886803	0.907842
C107	C	-0.791093	-1.335174	0.453923
C108	C	-0.291093	-0.835174	0.953923
C109	C	-0.814366	-1.274339	0.508065
C110	C	-0.314366	-0.774339	1.008065
C111	C	-0.790722	-1.213472	0.562194
C112	C	-0.290722	-0.713472	1.062194
C113	C	-0.861284	-1.274363	0.508074
C114	C	-0.361284	-0.774363	1.008074
C115	C	-0.884928	-1.335230	0.453945
C116	C	-0.384928	-0.835230	0.953945
C117	C	-0.861654	-1.396072	0.399808
C118	C	-0.361654	-0.896072	0.899808
C119	C	-0.814737	-1.396041	0.399794
C120	C	-0.314737	-0.896041	0.899794
C121	C	-0.813996	-1.152630	0.616331
C122	C	-0.313996	-0.652630	1.116331
C123	C	-0.860913	-1.152666	0.616339
C124	C	-0.360913	-0.652666	1.116339
C125	C	-0.884557	-1.213532	0.562211
C126	C	-0.384557	-0.713532	1.062211
C127	C	-0.150508	-1.274411	0.508085
C128	C	0.349492	-0.774411	1.008085
C129	C	-0.100577	-1.274490	0.508117
C130	C	0.399423	-0.774490	1.008117
C131	C	-0.274826	-1.508750	0.521542
C132	C	0.225174	-1.008750	1.021542
C133	C	-0.277872	-1.608690	0.527309
C134	C	0.222128	-1.108690	1.027309
C135	C	-0.312463	-0.746229	0.592802
C136	C	0.187537	-0.246229	1.092802
C137	C	-0.309614	-0.652326	0.587407
C138	C	0.190386	-0.152326	1.087407
C139	C	-0.248976	-0.658964	0.472604
C140	C	0.251024	-0.158964	0.972604
C141	C	-0.251825	-0.752867	0.477999
C142	C	0.248175	-0.252867	0.977999
C143	C	-0.283570	-0.796497	0.538099
C144	C	0.216430	-0.296497	1.038099
C145	C	-0.286422	-0.890402	0.543489
C146	C	0.213578	-0.390402	1.043489
C147	C	-0.225781	-0.897038	0.428692
C148	C	0.274219	-0.397038	0.928692
C149	C	-0.222932	-0.803135	0.423297
C150	C	0.277068	-0.303135	0.923297
C151	C	-0.261358	-1.287717	0.274401
C152	C	0.238642	-0.787717	0.774401
C153	C	-0.258546	-1.293639	0.174471
C154	C	0.241454	-0.793639	0.674471
C155	C	-0.227777	-1.359279	1.036946
C156	C	0.272223	-0.859279	1.536946
C157	C	-0.230304	-1.353881	1.130849
C158	C	0.269696	-0.853881	1.630849
C159	C	-0.284262	-1.238790	1.124184
C160	C	0.215738	-0.738790	1.624184
C161	C	-0.281735	-1.244189	1.030281
C162	C	0.218265	-0.744189	1.530281
C163	C	-0.253492	-1.304436	0.986666
C164	C	0.246508	-0.804436	1.486666
C165	C	-0.250968	-1.309839	0.892761
C166	C	0.249032	-0.809839	1.392761
C167	C	-0.304924	-1.194744	0.886097
C168	C	0.195076	-0.694744	1.386097
C169	C	-0.307450	-1.189345	0.980000
C170	C	0.192550	-0.689345	1.480000
H171	H	-0.439027	-1.384490	0.409742
H172	H	0.060973	-0.884490	0.909742
H173	H	-0.333141	-0.611401	0.631953
H174	H	0.166859	-0.111401	1.131953
C175	C	-0.347385	-0.794223	0.658908
C176	C	0.152615	-0.294223	1.158908
N177	N	-0.373688	-0.830371	0.708702
N178	N	0.126312	-0.330371	1.208702
H179	H	-0.307256	-1.189739	1.159711
H180	H	0.192744	-0.689739	1.659711
C181	C	-0.193998	-0.952341	0.368512
C182	C	0.306002	-0.452341	0.868512
N183	N	-0.170061	-0.993996	0.323183
N184	N	0.329939	-0.493996	0.823183
H185	H	-0.223127	-0.623424	0.423680
H186	H	0.276873	-0.123424	0.923680
C187	C	-0.188014	-0.755132	0.357190
C188	C	0.311986	-0.255132	0.857190
N189	N	-0.161714	-0.718977	0.307395
N190	N	0.338286	-0.218977	0.807395
C191	C	-0.338513	-1.123070	1.027987
C192	C	0.161487	-0.623070	1.527987
N193	N	-0.361909	-1.073150	1.064130
N194	N	0.138091	-0.573150	1.564130
C195	C	-0.333213	-1.134413	0.830780
C196	C	0.166787	-0.634413	1.330780
N197	N	-0.354520	-1.088974	0.789115
N198	N	0.145480	-0.588974	1.289115
H199	H	-0.524139	-1.384563	0.409771
H200	H	-0.024139	-0.884563	0.909771
H201	H	-1.010767	-1.164032	0.606324
H202	H	-0.510767	-0.664032	1.106324
C203	C	-0.648392	-1.462870	0.340180
C204	C	-0.148392	-0.962870	0.840180
N205	N	-0.629117	-1.513277	0.295302
N206	N	-0.129117	-1.013277	0.795302
H207	H	-0.227972	-1.358896	0.857251
H208	H	0.272028	-0.858896	1.357251
C209	C	-1.103319	-1.402294	0.394438
C210	C	-0.603319	-0.902294	0.894438
N211	N	-1.122918	-1.452729	0.349603
N212	N	-0.622918	-0.952729	0.849603
C213	C	-1.102527	-1.146687	0.621802
C214	C	-0.602527	-0.646687	1.121802
N215	N	-1.121803	-1.096271	0.666667
N216	N	-0.621803	-0.596271	1.166667
H217	H	-0.740149	-1.445548	0.355689
H218	H	-0.240149	-0.945548	0.855689
C219	C	-0.196712	-1.425555	0.988968
C220	C	0.303288	-0.925555	1.488968
N221	N	-0.173313	-1.475475	0.952832
N222	N	0.326687	-0.975475	1.452832
C223	C	-1.004786	-1.402236	0.394400
C224	C	-0.504786	-0.902236	0.894400
N225	N	-0.985510	-1.452653	0.349536
N226	N	-0.485510	-0.952653	0.849536
C227	C	-0.202016	-1.414215	1.186155
C228	C	0.297984	-0.914215	1.686155
N229	N	-0.180709	-1.459662	1.227812
N230	N	0.319291	-0.959662	1.727812
C231	C	-0.745749	-1.085645	0.675895
C232	C	-0.245749	-0.585645	1.175895
N233	N	-0.765022	-1.035233	0.720769
N234	N	-0.265022	-0.535233	1.220769
H235	H	-0.653989	-1.102990	0.660401
H236	H	-0.153989	-0.602990	1.160401
H237	H	-0.438351	-1.163678	0.606181
H238	H	0.061649	-0.663678	1.106181
C239	C	-0.789143	-1.462967	0.340224
C240	C	-0.289143	-0.962967	0.840224
N241	N	-0.769868	-1.513378	0.295352
N242	N	-0.269868	-1.013378	0.795352
C243	C	-0.530127	-1.146344	0.621682
C244	C	-0.030127	-0.646344	1.121682
N245	N	-0.549406	-1.095938	0.666552
N246	N	-0.049406	-0.595938	1.166552
H247	H	-0.879858	-1.103115	0.660431
H248	H	-0.379858	-0.603115	1.160431
C249	C	-0.887671	-1.463024	0.340265
C250	C	-0.387671	-0.963024	0.840265
N251	N	-0.907270	-1.513453	0.295423
N252	N	-0.407270	-1.013453	0.795423
H253	H	-0.794749	-1.103066	0.660410
H254	H	-0.294749	-0.603066	1.160410
C255	C	-0.321341	-0.938393	0.609602
C256	C	0.178659	-0.438393	1.109602
N257	N	-0.347642	-0.974536	0.659402
N258	N	0.152358	-0.474536	1.159402
