data_functionalizedCrystal
_audit_creation_method	'MofGen! by Chris Wilmer'
_symmetry_space_group_name_H-M	'P1'
_symmetry_Int_Tables_number	1
_symmetry_cell_setting	triclinic
loop_
_symmetry_equiv_pos_as_xyz
  x,y,z
_cell_length_a	16.992694
_cell_length_b	12.503572
_cell_length_c	16.974755
_cell_angle_alpha	89.870570
_cell_angle_beta	92.979425
_cell_angle_gamma	93.753406
loop_
_atom_site_label
_atom_site_type_symbol
_atom_site_fract_x
_atom_site_fract_y
_atom_site_fract_z
O1	O	1.045435	0.103333	-0.162690
O2	O	0.817146	0.103205	-0.160857
O3	O	0.937159	0.093328	-0.047548
O4	O	0.925422	0.113210	-0.275999
O5	O	0.928133	-0.084569	-0.056085
O6	O	0.808120	-0.074692	-0.169393
O7	O	1.036410	-0.074565	-0.171226
Cu8	Cu	0.921441	-0.090872	-0.171089
Cu9	Cu	0.932115	0.119513	-0.160994
O10	O	0.916397	-0.064688	-0.284535
C11	C	0.783413	0.014056	-0.162769
C12	C	0.696346	0.013456	-0.155738
C13	C	0.646327	0.019359	-0.223571
C14	C	0.564518	0.018769	-0.216961
C15	C	0.532731	0.012283	-0.142517
C16	C	0.582756	0.006377	-0.074679
C17	C	0.664563	0.006960	-0.081290
C18	C	0.289042	0.009870	-0.115118
C19	C	0.207229	0.009291	-0.108512
C20	C	0.188996	0.021681	-0.250795
C21	C	0.270806	0.022269	-0.257399
C22	C	0.320824	0.016357	-0.189561
N23	N	0.449109	0.011684	-0.135759
N24	N	0.404444	0.016950	-0.196320
N25	N	0.913939	-0.238845	-0.178190
C26	C	0.902904	-0.457050	-0.188641
C27	C	0.950655	-0.514317	-0.143438
C28	C	0.944515	-0.635733	-0.149254
C29	C	0.909043	-0.335622	-0.182827
C30	C	1.070143	0.014587	-0.169315
C31	C	1.157210	0.015194	-0.176345
C32	C	0.932035	0.001826	-0.022450
C33	C	0.930203	-0.005781	0.065055
N34	N	0.939623	0.267486	-0.153888
C35	C	0.921521	0.026817	-0.309633
C36	C	0.923353	0.034431	-0.397137
C37	C	0.919297	-0.058971	0.557110
C38	C	0.921025	-0.051827	0.474891
C39	C	0.926815	0.048719	0.438426
C40	C	0.930869	0.142128	0.484185
C41	C	0.929135	0.134984	0.566402
C42	C	0.932523	0.080484	0.193031
C43	C	0.934259	0.087621	0.110807
C44	C	0.924413	-0.106335	0.101519
C45	C	0.922685	-0.113471	0.183738
C46	C	0.926735	-0.020062	0.229490
N47	N	0.928584	0.056022	0.354385
N48	N	0.924960	-0.027366	0.313529
H49	H	0.148263	0.026492	-0.306024
H50	H	0.996149	-0.472158	-0.100372
H51	H	0.857414	-0.499203	-0.231706
O52	O	0.917049	-0.211057	0.219283
C53	C	0.909863	-0.308016	0.341815
C54	C	0.916291	-0.197432	0.301666
H55	H	0.909231	-0.297038	0.408427
H56	H	0.962589	-0.354852	0.327201
H57	H	0.852947	-0.354032	0.319528
H58	H	0.973175	-0.151328	0.323931
H59	H	0.863524	-0.150678	0.316279
O60	O	0.913635	-0.156727	0.592399
C61	C	0.904094	-0.348350	0.574502
C62	C	0.910489	-0.237707	0.534438
H63	H	0.901565	-0.413851	0.527659
H64	H	0.848194	-0.356275	0.608973
H65	H	0.957852	-0.356829	0.616547
H66	H	0.856773	-0.229153	0.492355
H67	H	0.966421	-0.229831	0.500016
H68	H	0.917733	-0.127886	0.437643
O69	O	0.920332	-0.197032	0.057028
C70	C	0.848720	-0.301063	-0.045885
C71	C	0.853242	-0.198316	0.004462
H72	H	0.794491	-0.302124	-0.088408
H73	H	0.844229	-0.374195	-0.005745
H74	H	0.904135	-0.302898	-0.080812
H75	H	0.797843	-0.196376	0.039396
H76	H	0.857773	-0.125230	-0.035720
H77	H	0.935828	0.156544	0.230272
H78	H	0.938974	0.169501	0.081121
O79	O	0.176319	0.003175	-0.036203
C80	C	0.099156	0.087457	0.058233
C81	C	0.134134	0.094528	-0.023660
H82	H	0.065028	0.161294	0.068393
H83	H	0.148926	0.083394	0.105624
H84	H	0.057571	0.012395	0.061285
H85	H	0.175710	0.169584	-0.026790
H86	H	0.084323	0.098531	-0.071012
H87	H	0.935580	0.223995	0.454489
H88	H	0.329758	0.005055	-0.059879
O89	O	0.932963	0.225784	0.610765
C90	C	0.872913	0.389726	0.639246
C91	C	0.868508	0.286952	0.588937
H92	H	0.820799	0.439198	0.621628
H93	H	0.930468	0.438713	0.629137
H94	H	0.870706	0.367308	0.704266
H95	H	0.870682	0.309274	0.523900
H96	H	0.810957	0.237993	0.599112
O97	O	0.677069	0.025617	-0.295949
C98	C	0.650344	0.037902	-0.436372
C99	C	0.615426	0.030797	-0.354452
H100	H	0.600523	0.042114	-0.483692
H101	H	0.684390	-0.035978	-0.446651
H102	H	0.691981	0.112914	-0.439411
H103	H	0.573756	-0.044169	-0.351354
H104	H	0.581427	0.104729	-0.344207
H105	H	0.523795	0.023576	-0.272198
H106	H	0.296681	0.027562	-0.318018
H107	H	0.705289	0.002154	-0.026053
O108	O	0.551753	0.000128	-0.002422
C109	C	0.433806	-0.006319	0.070818
C110	C	0.468810	0.000783	-0.011062
H111	H	0.366741	-0.005815	0.063860
H112	H	0.458101	0.065206	0.108190
H113	H	0.450666	-0.083692	0.101022
H114	H	0.451964	0.078111	-0.041333
H115	H	0.444516	-0.070797	-0.048376
