data_functionalizedCrystal
_audit_creation_method	'MofGen! by Chris Wilmer'
_symmetry_space_group_name_H-M	'P1'
_symmetry_Int_Tables_number	1
_symmetry_cell_setting	triclinic
loop_
_symmetry_equiv_pos_as_xyz
  x,y,z
_cell_length_a	12.759400
_cell_length_b	12.594517
_cell_length_c	12.594505
_cell_angle_alpha	90.035300
_cell_angle_beta	89.942710
_cell_angle_gamma	89.984559
loop_
_atom_site_label
_atom_site_type_symbol
_atom_site_fract_x
_atom_site_fract_y
_atom_site_fract_z
Zn1	Zn	-0.417917	-1.627505	-0.601639
Zn2	Zn	-0.593714	-1.627332	-0.423659
Zn3	Zn	-0.418052	-1.449441	-0.423692
Zn4	Zn	-0.593556	-1.449495	-0.601613
O5	O	-0.505810	-1.538443	-0.512651
O6	O	-0.441246	-1.776428	-0.578027
O7	O	-0.570535	-1.603640	-0.274717
O8	O	-0.271013	-1.473111	-0.447321
O9	O	-0.570404	-1.776301	-0.447266
O10	O	-0.270913	-1.603934	-0.578058
O11	O	-0.441477	-1.472944	-0.274741
O12	O	-0.441324	-1.300503	-0.447296
O13	O	-0.570134	-1.473203	-0.750563
O14	O	-0.570266	-1.300542	-0.578014
O15	O	-0.441093	-1.603986	-0.750582
O16	O	-0.740714	-1.603692	-0.447241
O17	O	-0.740598	-1.473036	-0.577983
C18	C	-0.505793	-1.261902	-0.512657
C19	C	-0.505812	-1.143597	-0.512684
C20	C	-0.576072	-1.003632	-0.583652
C21	C	-0.601692	-1.074367	-0.486509
C22	C	-0.480238	-1.074434	-0.609816
C23	C	-0.531518	-1.003546	-0.415461
C24	C	-0.410020	-1.003607	-0.538833
C25	C	-0.435603	-1.074309	-0.441624
C26	C	-0.778777	-1.538380	-0.512629
C27	C	-0.895554	-1.538450	-0.512655
C28	C	-0.950441	-1.606559	-0.444652
C29	C	-1.060165	-1.606624	-0.444685
C30	C	-1.060105	-1.470464	-0.580725
C31	C	-0.950383	-1.470405	-0.580697
C32	C	-0.895613	-1.674605	-0.376610
C33	C	-0.950500	-1.742718	-0.308601
C34	C	-1.060224	-1.742783	-0.308634
C35	C	-1.115061	-1.674735	-0.376676
C36	C	-0.231777	-1.538536	-0.512696
C37	C	-0.115000	-1.538575	-0.512716
C38	C	-0.505581	-1.538620	-0.790272
C39	C	-0.505483	-1.538695	-0.908578
C40	C	-0.505831	-0.816064	-0.512648
C41	C	-0.505848	-0.934370	-0.512655
C42	C	-0.505962	-1.538329	-0.236109
C43	C	-0.505764	-1.538460	-0.117804
C44	C	-0.435893	-1.467021	0.022145
C45	C	-0.532023	-1.441578	-0.048365
C46	C	-0.409647	-1.563854	-0.048867
C47	C	-0.601662	-1.513203	0.022471
C48	C	-0.479221	-1.635524	0.021975
C49	C	-0.575417	-1.610118	-0.048502
H50	H	-0.682717	-1.105448	-0.464371
H51	H	-0.458593	-1.105571	-0.691972
H52	H	-0.806270	-1.674556	-0.376573
H53	H	-0.905693	-1.414946	-0.636072
H54	H	-0.376201	-1.105147	-0.381527
C55	C	-0.656374	-0.961698	-0.664638
H56	H	-0.724417	-0.985927	-0.645870
H57	H	-0.638862	-0.987011	-0.733472
H58	H	-0.655395	-0.886275	-0.664514
H59	H	-0.553262	-0.972539	-0.333283
C60	C	-0.300600	-0.961571	-0.568778
H61	H	-0.282520	-0.985799	-0.637860
H62	H	-0.250524	-0.986820	-0.519062
H63	H	-0.301262	-0.886148	-0.567912
H64	H	-0.554364	-1.359591	-0.079268
C65	C	-1.120417	-1.395612	-0.655560
H66	H	-1.072012	-1.355046	-0.696064
H67	H	-1.163308	-1.349267	-0.614821
H68	H	-1.163128	-1.436352	-0.701982
C69	C	-0.890185	-1.817560	-0.233759
H70	H	-0.816977	-1.807760	-0.243469
H71	H	-0.908084	-1.889085	-0.249388
H72	H	-0.908276	-1.801990	-0.162236
C73	C	-0.356331	-1.385222	0.064060
H74	H	-0.375265	-1.316374	0.039979
H75	H	-0.288330	-1.402504	0.038587
H76	H	-0.356334	-1.386310	0.139481
H77	H	-0.682851	-1.491731	0.053668
H78	H	-0.634455	-1.670630	-0.079327
C79	C	-1.235755	-1.674813	-0.376715
H80	H	-1.260593	-1.725120	-0.326469
H81	H	-1.260473	-1.693220	-0.445423
H82	H	-1.260657	-1.606141	-0.358255
H83	H	-1.104911	-1.798251	-0.253266
C84	C	-0.448998	-1.746239	0.063779
H85	H	-0.380746	-1.764094	0.039394
H86	H	-0.497830	-1.797251	0.038544
H87	H	-0.449745	-1.745664	0.139204
H88	H	-0.328481	-1.585235	-0.080190
