data_functionalizedCrystal
_audit_creation_method	'MofGen! by Chris Wilmer'
_symmetry_space_group_name_H-M	'P1'
_symmetry_Int_Tables_number	1
_symmetry_cell_setting	triclinic
loop_
_symmetry_equiv_pos_as_xyz
  x,y,z
_cell_length_a	13.635800
_cell_length_b	19.551595
_cell_length_c	17.110486
_cell_angle_alpha	79.566613
_cell_angle_beta	99.060439
_cell_angle_gamma	101.660503
loop_
_atom_site_label
_atom_site_type_symbol
_atom_site_fract_x
_atom_site_fract_y
_atom_site_fract_z
V1	V	1.928033	-0.096479	0.247180
O2	O	1.985724	0.004850	0.242000
O3	O	1.844449	-0.191507	0.245945
O4	O	1.893950	-0.094901	0.354775
O5	O	1.935880	-0.092425	0.132417
V6	V	2.178823	-0.084370	0.233398
O7	O	2.038859	-0.123041	0.277412
O8	O	2.293096	-0.057808	0.203166
O9	O	2.150804	0.010659	0.234632
O10	O	2.179831	-0.185699	0.238577
O11	O	2.229675	-0.088424	0.348161
O12	O	2.101302	-0.085948	0.125802
C13	C	1.752822	-0.214676	0.242163
C14	C	1.725060	-0.292363	0.241871
C15	C	1.815967	-0.091444	0.380986
C16	C	1.828349	-0.090783	0.468949
C17	C	2.074099	0.033824	0.238412
C18	C	2.091480	0.111510	0.238710
C19	C	1.800459	-0.332405	0.245704
C20	C	1.774388	-0.405402	0.245442
C21	C	1.672916	-0.438354	0.241340
C22	C	1.597512	-0.398307	0.237509
C23	C	1.623584	-0.325312	0.237777
V24	V	2.428033	-0.096479	0.247180
O25	O	2.485724	0.004850	0.242000
O26	O	2.344449	-0.191507	0.245945
O27	O	2.393950	-0.094901	0.354775
O28	O	2.435880	-0.092425	0.132417
V29	V	2.678823	-0.084370	0.233398
O30	O	2.538859	-0.123041	0.277412
O31	O	2.793096	-0.057808	0.203166
O32	O	2.650804	0.010659	0.234632
O33	O	2.679831	-0.185699	0.238577
O34	O	2.729675	-0.088424	0.348161
O35	O	2.601302	-0.085948	0.125802
C36	C	2.252822	-0.214676	0.242163
C37	C	2.225060	-0.292363	0.241871
C38	C	2.188579	0.151549	0.234944
C39	C	2.204934	0.224529	0.235325
C40	C	2.124187	0.257464	0.239488
C41	C	2.027073	0.217416	0.243250
C42	C	2.010720	0.144439	0.242860
C43	C	2.092443	0.363928	0.289747
C44	C	2.108801	0.436903	0.290141
C45	C	2.174621	0.482552	0.240686
C46	C	2.224100	0.455215	0.190846
C47	C	2.207747	0.382237	0.190457
C48	C	2.141909	0.336596	0.239911
C49	C	2.289459	0.601725	0.237333
C50	C	2.305809	0.674707	0.237709
C51	C	2.127947	0.667591	0.245642
C52	C	2.111598	0.594612	0.245257
C53	C	2.192359	0.561683	0.241106
C54	C	2.010956	-0.089407	0.099587
C55	C	1.988195	-0.090065	0.011623
C56	C	1.922630	-0.093960	0.514322
C57	C	1.934259	-0.093338	0.596972
C58	C	1.851604	-0.089544	0.634249
C59	C	1.757315	-0.086365	0.588870
C60	C	1.745690	-0.086981	0.506220
C61	C	1.882282	-0.087502	0.883594
C62	C	1.893914	-0.086888	0.966250
C63	C	2.070858	-0.093860	0.974347
C64	C	2.059222	-0.094481	0.891696
C65	C	1.964937	-0.091297	0.846324
C66	C	1.863487	-0.088910	0.718731
C67	C	1.953056	-0.091926	0.761842
C68	C	2.315967	-0.091444	0.380986
C69	C	2.328349	-0.090783	0.468949
C70	C	2.574099	0.033824	0.238412
C71	C	2.591480	0.111510	0.238710
C72	C	2.510956	-0.089407	0.099587
C73	C	2.488195	-0.090065	0.011623
C74	C	2.422640	-0.093953	0.514307
C75	C	2.434292	-0.093322	0.596957
C76	C	2.351649	-0.089527	0.634247
C77	C	2.257351	-0.086354	0.588883
C78	C	2.245702	-0.086980	0.506234
C79	C	2.688574	0.151551	0.234878
C80	C	2.704916	0.224548	0.235145
C81	C	2.624165	0.257500	0.239248
C82	C	2.527063	0.217453	0.243077
C83	C	2.510720	0.144459	0.242805
C84	C	2.388611	-0.093853	-0.025647
C85	C	2.367212	-0.094462	-0.108299
C86	C	2.445399	-0.091289	-0.153679
C87	C	2.544992	-0.087499	-0.116404
C88	C	2.566390	-0.086884	-0.033754
H89	H	1.883088	-0.305585	0.249039
H90	H	1.989938	-0.097054	0.483979
O91	O	2.304243	-0.097317	0.023275
H92	H	2.266006	-0.051270	0.000688
H93	H	2.427960	-0.091799	-0.220976
H94	H	1.562178	-0.292714	0.234651
H95	H	2.190067	-0.083264	0.619257
O96	O	1.488068	-0.433852	0.233087
H97	H	1.482618	-0.491335	0.233538
O98	O	2.673805	-0.082799	0.006440
H99	H	2.703796	-0.129096	-0.002693
H100	H	1.805502	-0.084935	0.846666
H101	H	1.835799	-0.437998	0.248559
O102	O	2.511791	-0.098035	0.474098
H103	H	2.540680	-0.147422	0.500585
H104	H	2.168918	-0.084399	0.469309
H105	H	2.011032	-0.095921	0.633911
O106	O	1.804791	-0.082780	1.006487
H107	H	1.821701	-0.034489	1.035278
H108	H	2.038834	0.326766	0.330016
H109	H	1.651700	-0.497792	0.241122
O110	O	2.275676	0.116033	0.230451
H111	H	2.345942	0.156142	0.227887
O112	O	2.309671	0.267727	0.231279
H113	H	2.363082	0.232567	0.228335
H114	H	2.068515	0.459155	0.330728
O115	O	2.261091	0.352752	0.136692
H116	H	2.343949	0.367127	0.152576
O117	O	2.295090	0.504438	0.137493
H118	H	2.298140	0.559777	0.146126
O119	O	2.042209	-0.096015	0.721644
H120	H	2.025354	-0.144309	0.692862
O121	O	2.006868	0.551423	0.249334
H122	H	1.982967	0.525488	0.195127
H123	H	2.286114	-0.097549	-0.138636
O124	O	2.629318	-0.084083	-0.165351
H125	H	2.597695	-0.085156	-0.229081
H126	H	2.783988	0.257144	0.232028
O127	O	2.641800	0.336228	0.239558
H128	H	2.722889	0.358528	0.236217
H129	H	2.361148	-0.089018	0.701546
O130	O	2.376552	0.566202	0.232841
H131	H	2.446819	0.606310	0.230271
H132	H	2.384879	0.707307	0.234639
H133	H	2.062201	0.694407	0.249029
O134	O	1.644008	-0.083540	0.457269
H135	H	1.618687	-0.131490	0.428079
H136	H	2.461320	0.244294	0.246417
O137	O	1.939979	0.252931	0.247750
H138	H	1.967665	0.310403	0.247399
O139	O	1.905990	0.101244	0.246934
H140	H	1.852586	0.136403	0.249898
H141	H	2.126531	-0.097569	0.861352
O142	O	2.536001	-0.096744	0.645878
H143	H	2.591500	-0.099500	0.606059
O144	O	2.775676	0.116022	0.230434
H145	H	2.784715	0.075522	0.284336
O146	O	2.405996	0.101272	0.246957
H147	H	2.354280	0.120999	0.194701
H148	H	1.690018	-0.083271	0.619226
O149	O	2.172552	-0.097280	1.023280
H150	H	2.166758	-0.096207	1.087013
H151	H	1.796190	-0.085824	0.749092
