data_functionalizedCrystal
_audit_creation_method	'MofGen! by Chris Wilmer'
_symmetry_space_group_name_H-M	'P1'
_symmetry_Int_Tables_number	1
_symmetry_cell_setting	triclinic
loop_
_symmetry_equiv_pos_as_xyz
  x,y,z
_cell_length_a	16.959453
_cell_length_b	16.959455
_cell_length_c	16.959447
_cell_angle_alpha	90.019044
_cell_angle_beta	89.968904
_cell_angle_gamma	89.976997
loop_
_atom_site_label
_atom_site_type_symbol
_atom_site_fract_x
_atom_site_fract_y
_atom_site_fract_z
Zn1	Zn	-0.314704	-1.208358	-0.447004
Zn2	Zn	-0.446897	-1.208269	-0.314824
Zn3	Zn	-0.314732	-1.076186	-0.314831
Zn4	Zn	-0.446841	-1.076140	-0.446951
O5	O	-0.380793	-1.142238	-0.380902
O6	O	-0.332252	-1.318957	-0.429489
O7	O	-0.429400	-1.190731	-0.204214
O8	O	-0.204117	-1.093775	-0.332389
O9	O	-0.429373	-1.318892	-0.332377
O10	O	-0.204097	-1.190881	-0.429496
O11	O	-0.332299	-1.093690	-0.204219
O12	O	-0.332244	-0.965569	-0.332338
O13	O	-0.429277	-1.093697	-0.557569
O14	O	-0.429304	-0.965535	-0.429406
O15	O	-0.332197	-1.190836	-0.557608
O16	O	-0.557500	-1.190686	-0.332326
O17	O	-0.557459	-1.093611	-0.429399
C18	C	-0.380772	-0.936872	-0.380867
C19	C	-0.380782	-0.849015	-0.380871
C20	C	-0.330174	-0.807736	-0.330411
C21	C	-0.431393	-0.807742	-0.431339
C22	C	-0.431401	-0.725196	-0.431348
C23	C	-0.380794	-0.683916	-0.380888
C24	C	-0.330179	-0.725182	-0.330420
C25	C	-0.482010	-0.683923	-0.481820
C26	C	-0.482019	-0.601372	-0.481831
C27	C	-0.431416	-0.560091	-0.431367
C28	C	-0.380799	-0.601362	-0.380896
C29	C	-0.330192	-0.560083	-0.330436
C30	C	-0.279579	-0.601352	-0.279961
C31	C	-0.279575	-0.683901	-0.279955
C32	C	-0.431419	-0.477543	-0.431373
C33	C	-0.330197	-0.477529	-0.330445
C34	C	-0.586160	-1.142155	-0.380873
C35	C	-0.674016	-1.142192	-0.380887
C36	C	-0.715298	-1.091624	-0.431393
C37	C	-0.715288	-1.192798	-0.330399
C38	C	-0.797834	-1.192838	-0.330413
C39	C	-0.839116	-1.142270	-0.380919
C40	C	-0.797851	-1.091664	-0.431411
C41	C	-0.839105	-1.243449	-0.279928
C42	C	-0.921656	-1.243491	-0.279941
C43	C	-0.962939	-1.192919	-0.330444
C44	C	-0.921669	-1.142310	-0.380937
C45	C	-0.962951	-1.091742	-0.431443
C46	C	-0.921683	-1.041129	-0.481933
C47	C	-0.839134	-1.041092	-0.481914
C48	C	-1.045487	-1.192955	-0.330463
C49	C	-1.045504	-1.091782	-0.431460
C50	C	-0.174625	-1.142343	-0.380949
C51	C	-0.086768	-1.142388	-0.380969
C52	C	-0.380728	-1.142271	-0.587071
C53	C	-0.380700	-1.142285	-0.674927
C54	C	-0.380812	-0.348406	-0.380928
C55	C	-0.380812	-0.436263	-0.380913
C56	C	-0.431162	-1.091803	-1.046386
C57	C	-0.330072	-1.192956	-1.046421
C58	C	-0.330088	-1.192935	-0.963875
C59	C	-0.380643	-1.142348	-0.922580
C60	C	-0.431182	-1.091782	-0.963832
C61	C	-0.279557	-1.243505	-0.922617
C62	C	-0.279572	-1.243487	-0.840066
C63	C	-0.330124	-1.192896	-0.798770
C64	C	-0.380663	-1.142327	-0.840027
C65	C	-0.431218	-1.091740	-0.798732
C66	C	-0.481755	-1.041167	-0.839987
C67	C	-0.481733	-1.041191	-0.922536
C68	C	-0.330145	-1.192872	-0.716222
C69	C	-0.431238	-1.091719	-0.716179
C70	C	-0.380801	-1.142251	-0.175536
C71	C	-0.380607	-1.142390	-0.087680
H72	H	-0.238371	-0.567732	-0.238880
H73	H	-0.955305	-0.999960	-0.523058
Br74	Br	-0.261473	-1.261614	-1.102463
Br75	Br	-0.261492	-0.863740	-0.261908
H76	H	-0.805529	-0.999885	-0.523021
H77	H	-0.681674	-1.233973	-0.289282
H78	H	-0.522920	-0.999983	-0.806355
Br79	Br	-0.210959	-1.312163	-0.978662
H80	H	-0.805491	-1.284623	-0.238811
Br81	Br	-1.101523	-1.023144	-0.500002
H82	H	-0.472592	-0.841357	-0.472425
Br83	Br	-0.210889	-0.739914	-0.211463
Br84	Br	-0.261574	-1.261508	-0.660236
H85	H	-0.681695	-1.050413	-0.472499
Br86	Br	-0.210988	-1.312118	-0.784084
Br87	Br	-0.550315	-0.972566	-0.978529
H88	H	-0.955249	-1.284703	-0.238828
H89	H	-1.079084	-1.234169	-0.289360
H90	H	-0.288987	-0.443925	-0.289352
Br91	Br	-0.550701	-0.739948	-0.550283
Br92	Br	-0.499739	-1.023167	-1.102370
H93	H	-0.523233	-0.567778	-0.522930
H94	H	-0.472400	-1.050518	-0.682563
H95	H	-0.472622	-0.443945	-0.472474
