data_functionalizedCrystal
_audit_creation_method	'MofGen! by Chris Wilmer'
_symmetry_space_group_name_H-M	'P1'
_symmetry_Int_Tables_number	1
_symmetry_cell_setting	triclinic
loop_
_symmetry_equiv_pos_as_xyz
  x,y,z
_cell_length_a	12.759401
_cell_length_b	12.645330
_cell_length_c	12.759393
_cell_angle_alpha	90.032183
_cell_angle_beta	90.019097
_cell_angle_gamma	90.012629
loop_
_atom_site_label
_atom_site_type_symbol
_atom_site_fract_x
_atom_site_fract_y
_atom_site_fract_z
Zn1	Zn	1.606270	-0.421977	0.593994
Zn2	Zn	1.606171	-0.599281	0.418312
Zn3	Zn	1.430572	-0.422032	0.418331
Zn4	Zn	1.430567	-0.599199	0.593952
O5	O	1.518395	-0.510622	0.506147
O6	O	1.753278	-0.445508	0.570699
O7	O	1.582838	-0.575826	0.271293
O8	O	1.453923	-0.273678	0.441659
O9	O	1.753205	-0.575773	0.441626
O10	O	1.583007	-0.273637	0.570717
O11	O	1.453826	-0.445602	0.271308
O12	O	1.283551	-0.445522	0.441618
O13	O	1.453914	-0.575633	0.740978
O14	O	1.283547	-0.575686	0.570646
O15	O	1.583002	-0.445429	0.741009
O16	O	1.582833	-0.747618	0.441585
O17	O	1.453818	-0.747557	0.570627
C18	C	1.245428	-0.510602	0.506130
C19	C	1.128651	-0.510619	0.506148
C20	C	0.964097	-0.442926	0.573468
C21	C	1.073822	-0.442912	0.573459
C22	C	1.073751	-0.578353	0.438849
C23	C	0.964029	-0.578372	0.438864
C24	C	0.909273	-0.375207	0.640777
C25	C	0.964166	-0.307474	0.708078
C26	C	1.073890	-0.307459	0.708068
C27	C	1.128722	-0.375178	0.640758
C28	C	1.518343	-0.786052	0.506122
C29	C	1.518416	-0.903882	0.506147
C30	C	1.599449	-1.071440	0.424802
C31	C	1.599713	-0.948880	0.425001
C32	C	1.548444	-0.948254	0.616891
C33	C	1.549087	-1.070852	0.616459
C34	C	1.407324	-1.071212	0.477839
C35	C	1.407856	-0.948608	0.475355
C36	C	1.792428	-0.510644	0.506165
C37	C	1.909205	-0.510653	0.506172
C38	C	1.518469	-0.510516	0.780181
C39	C	1.518500	-0.510470	0.896957
C40	C	1.518477	-0.234117	0.506195
C41	C	1.518511	-0.116287	0.506215
C42	C	1.518382	-0.510653	0.233180
C43	C	1.518555	-0.510399	0.116404
C44	C	1.585726	-0.442666	0.951837
C45	C	1.585751	-0.442628	1.061561
C46	C	1.451322	-0.578206	1.061516
C47	C	1.451292	-0.578238	0.951794
C48	C	1.652934	-0.374898	0.897001
C49	C	1.720166	-0.307089	0.951880
C50	C	1.720191	-0.307051	1.061605
C51	C	1.652984	-0.374821	1.116449
H52	H	0.919335	-0.633523	0.384068
H53	H	1.580926	-0.918884	0.342886
C54	C	1.285941	-0.402299	0.740646
C55	C	1.249333	-0.375166	0.640751
H56	H	1.360399	-0.402282	0.740639
H57	H	1.261124	-0.470727	0.758687
H58	H	1.261138	-0.352274	0.790358
H59	H	1.274129	-0.425195	0.591040
H60	H	1.274161	-0.306727	0.622698
C61	C	1.752952	-0.401810	1.273629
C62	C	1.653008	-0.374787	1.237060
H63	H	1.752966	-0.401799	1.348088
H64	H	1.802581	-0.351740	1.248832
H65	H	1.771082	-0.470229	1.248781
H66	H	1.634882	-0.306364	1.261903
H67	H	1.603364	-0.424859	1.261868
H68	H	1.396605	-0.633381	1.106179
H69	H	1.118404	-0.633486	0.384048
H70	H	0.919515	-0.252346	0.762885
H71	H	1.580897	-1.101000	0.342446
H72	H	1.347018	-1.100215	0.537135
H73	H	1.681361	-1.102169	0.443361
C74	C	1.777504	-0.995814	0.465430
C75	C	1.710881	-0.909167	0.450355
H76	H	1.846135	-0.971295	0.481093
H77	H	1.779266	-1.037410	0.403448
H78	H	1.752301	-1.037491	0.521985
H79	H	1.736080	-0.867494	0.393794
H80	H	1.709124	-0.867554	0.512344
C81	C	1.723339	-1.021977	0.668534
C82	C	1.658804	-1.109349	0.648895
H83	H	1.791076	-1.045742	0.688551
H84	H	1.694054	-0.980750	0.723446
H85	H	1.728666	-0.980194	0.606916
H86	H	1.653470	-1.151128	0.710516
H87	H	1.688096	-1.150594	0.593979
C88	C	1.318462	-0.712294	0.962762
C89	C	1.377426	-0.652798	0.891462
H90	H	1.272870	-0.758333	0.925512
H91	H	1.278278	-0.666100	1.005552
H92	H	1.364254	-0.752813	1.005564
H93	H	1.331634	-0.612273	0.848664
H94	H	1.417613	-0.698997	0.848653
H95	H	0.819931	-0.375207	0.640788
C96	C	1.062933	-0.173579	0.841119
C97	C	1.134229	-0.233012	0.782043
H98	H	1.100185	-0.127610	0.886782
H99	H	1.020155	-0.219818	0.881234
H100	H	1.020118	-0.132989	0.795403
H101	H	1.177040	-0.273608	0.827759
H102	H	1.177025	-0.186767	0.741926
C103	C	1.427004	-1.024457	0.752056
C104	C	1.472978	-1.110903	0.701151
H105	H	1.380030	-1.049182	0.804348
H106	H	1.389700	-0.982921	0.702522
H107	H	1.480106	-0.982651	0.783836
H108	H	1.419876	-1.152706	0.669364
H109	H	1.510282	-1.152457	0.750693
H110	H	1.491287	-0.919103	0.679176
C111	C	1.276827	-1.169416	0.383310
C112	C	1.370459	-1.113071	0.370718
H113	H	1.254082	-1.195263	0.317175
H114	H	1.224778	-1.124038	0.411757
H115	H	1.288127	-1.227173	0.429525
H116	H	1.359157	-1.055310	0.324508
H117	H	1.422520	-1.158452	0.342255
C118	C	1.278669	-0.949872	0.338488
C119	C	1.377326	-0.909562	0.365294
H120	H	1.259842	-0.925792	0.270525
H121	H	1.228181	-0.926213	0.387901
H122	H	1.281082	-1.024954	0.338841
H123	H	1.374911	-0.834480	0.364948
H124	H	1.427827	-0.933216	0.315867
H125	H	1.628799	-0.917464	0.641329
C126	C	1.273628	-0.992766	0.599699
C127	C	1.322049	-0.907281	0.549536
H128	H	1.220653	-0.967251	0.645498
H129	H	1.324326	-1.030971	0.638895
H130	H	1.243049	-1.038041	0.548722
H131	H	1.352635	-0.862009	0.600513
H132	H	1.271342	-0.869059	0.510339
H133	H	1.652923	-0.374924	0.807658
H134	H	1.774876	-0.251907	0.907219
C135	C	1.853069	-0.173048	1.050623
C136	C	1.794088	-0.232518	1.121930
H137	H	1.898698	-0.127041	1.087866
H138	H	1.807299	-0.132507	1.007836
H139	H	1.893225	-0.219269	1.007817
H140	H	1.753926	-0.186297	1.164731
H141	H	1.839864	-0.273063	1.164735
