data_functionalizedCrystal
_audit_creation_method	'MofGen! by Chris Wilmer'
_symmetry_space_group_name_H-M	'P1'
_symmetry_Int_Tables_number	1
_symmetry_cell_setting	triclinic
loop_
_symmetry_equiv_pos_as_xyz
  x,y,z
_cell_length_a	16.992695
_cell_length_b	14.971482
_cell_length_c	15.455341
_cell_angle_alpha	92.994002
_cell_angle_beta	92.817188
_cell_angle_gamma	87.140416
loop_
_atom_site_label
_atom_site_type_symbol
_atom_site_fract_x
_atom_site_fract_y
_atom_site_fract_z
O1	O	0.099108	1.190405	-0.072120
O2	O	0.111348	0.930865	-0.072124
O3	O	-0.008915	1.059595	-0.072115
O4	O	0.219371	1.061675	-0.072129
O5	O	-0.002786	1.067024	0.072146
O6	O	0.117478	0.938294	0.072137
O7	O	0.105237	1.197835	0.072141
Cu8	Cu	0.111917	1.068743	0.085311
Cu9	Cu	0.104668	1.059957	-0.085294
O10	O	0.225501	1.069104	0.072132
C11	C	0.113866	0.901216	0.000006
C12	C	0.112227	0.801804	0.000004
C13	C	0.114796	0.759154	0.078642
C14	C	0.113244	0.665747	0.078643
C15	C	0.109128	0.614990	0.000005
C16	C	0.106556	0.657645	-0.078639
C17	C	0.108103	0.751052	-0.078639
C18	C	0.103334	0.462957	-0.078633
C19	C	0.101789	0.369544	-0.078633
C20	C	0.108475	0.377653	0.078649
C21	C	0.110022	0.471059	0.078649
C22	C	0.107452	0.513708	0.000004
C23	C	-0.035066	1.060633	0.000015
C24	C	-0.122117	1.052646	0.000015
C25	C	-0.172286	1.129710	0.000017
C26	C	-0.254080	1.122200	0.000008
C27	C	-0.285703	1.037624	0.000004
C28	C	-0.235528	0.960554	-0.000001
C29	C	-0.153736	0.968065	0.000001
C30	C	-0.529330	1.006494	-0.000008
C31	C	-0.611129	0.998989	-0.000008
C32	C	-0.629675	1.160636	-0.000000
C33	C	-0.547881	1.168139	0.000007
C34	C	-0.497713	1.091069	-0.000002
N35	N	-0.369309	1.029945	-0.000002
N36	N	-0.414108	1.098748	-0.000003
C37	C	0.251651	1.068067	-0.000000
C38	C	0.338702	1.076053	-0.000006
C39	C	0.102719	1.227483	0.000009
C40	C	0.104358	1.326895	0.000005
N41	N	0.117015	1.074929	0.205305
N42	N	0.099564	1.053777	-0.205289
C43	C	0.145272	1.109088	0.749308
C44	C	0.141411	1.104414	0.658501
C45	C	0.091838	1.044434	0.613098
C46	C	0.046129	0.989117	0.658507
C47	C	0.049994	0.993787	0.749313
C48	C	0.075172	1.024282	0.341520
C49	C	0.071308	1.019618	0.250708
C50	C	0.166591	1.134914	0.250708
C51	C	0.170449	1.139583	0.341516
C52	C	0.124743	1.084263	0.386917
N53	N	0.087888	1.039657	0.520279
N54	N	0.128697	1.089036	0.479734
H55	H	0.101241	0.497679	-0.142673
H56	H	-0.522140	1.237009	0.000011
C57	C	0.182996	0.575562	0.169882
C58	C	0.114547	0.526855	0.165087
H59	H	0.185788	0.610004	0.223249
H60	H	0.181682	0.614324	0.123050
H61	H	0.227941	0.535387	0.166615
H62	H	0.069601	0.567030	0.168348
H63	H	0.115854	0.488090	0.211932
C64	C	0.173321	0.846157	-0.169881
C65	C	0.105282	0.797939	-0.165077
H66	H	0.171572	0.875107	-0.223244
H67	H	0.218540	0.806328	-0.166622
H68	H	0.175984	0.889747	-0.123041
H69	H	0.102621	0.754344	-0.211914
H70	H	0.060050	0.837772	-0.168345
C71	C	-0.359956	1.203722	-0.074158
C72	C	-0.309222	1.206915	0.000008
H73	H	-0.393993	1.256028	-0.074162
H74	H	-0.390496	1.152288	-0.074157
H75	H	-0.329783	1.200698	-0.124455
H76	H	-0.339395	1.209932	0.050305
H77	H	-0.278679	1.258363	0.000014
C78	C	-0.019409	0.909859	0.332399
C79	C	0.024926	0.963487	0.391423
H80	H	-0.050433	0.872331	0.363213
H81	H	0.015114	0.873957	0.296975
H82	H	-0.052985	0.946922	0.296988
H83	H	0.058507	0.926424	0.426830
H84	H	-0.009600	0.999392	0.426861
H85	H	0.012776	0.948745	0.786278
C86	C	-0.087928	1.235760	0.074183
C87	C	-0.137532	1.222680	0.000022
H88	H	-0.066479	1.293160	0.074185
H89	H	-0.046343	1.190947	0.074178
H90	H	-0.117324	1.232058	0.124483
H91	H	-0.108134	1.226376	-0.050278
H92	H	-0.179123	1.267506	0.000019
C93	C	-0.763292	1.220900	-0.000009
C94	C	-0.684822	1.245347	-0.000003
H95	H	-0.797336	1.273201	-0.000019
H96	H	-0.770750	1.189062	0.050295
H97	H	-0.775011	1.183867	-0.050319
H98	H	-0.673102	1.282374	0.050311
H99	H	-0.677361	1.277200	-0.050312
H100	H	0.005769	0.940276	0.621533
H101	H	-0.488493	0.943737	-0.000016
H102	H	-0.261282	0.891690	-0.000010
H103	H	0.203803	1.179951	0.213733
H104	H	0.118155	0.800474	0.142678
H105	H	0.115323	0.631028	0.142677
C106	C	0.264258	1.253066	0.332391
C107	C	0.224949	1.205507	0.391420
H108	H	0.297906	1.293761	0.363202
H109	H	0.226719	1.285327	0.296986
H110	H	0.294817	1.212360	0.296962
H111	H	0.194385	1.246212	0.426845
H112	H	0.262493	1.173244	0.426840
H113	H	0.110569	0.342924	0.142684
C114	C	0.095331	0.370907	-0.234100
C115	C	0.097266	0.313750	-0.165072
H116	H	0.092537	0.336460	-0.287463
H117	H	0.141759	0.403952	-0.230835
H118	H	0.050374	0.411064	-0.230823
H119	H	0.142226	0.273597	-0.168345
H120	H	0.050833	0.280689	-0.168338
C121	C	-0.584585	0.839953	-0.000042
C122	C	-0.645890	0.906016	-0.000027
H123	H	-0.606048	0.782559	-0.000060
H124	H	-0.550936	0.848821	0.050264
H125	H	-0.555203	0.843667	-0.050351
H126	H	-0.675270	0.902306	0.050286
H127	H	-0.679553	0.897144	-0.050337
H128	H	0.185636	1.157933	0.786269
H129	H	0.103199	0.616312	-0.142667
H130	H	-0.112888	0.905310	-0.000001
C131	C	0.271633	1.147486	0.630550
C132	C	0.191655	1.165219	0.608602
H133	H	0.302653	1.185032	0.599750
H134	H	0.285476	1.086567	0.615654
H135	H	0.281012	1.158850	0.691131
H136	H	0.182275	1.153849	0.548022
H137	H	0.177807	1.226153	0.623492
H138	H	0.030940	0.970770	0.213743
