data_functionalizedCrystal
_audit_creation_method	'MofGen! by Chris Wilmer'
_symmetry_space_group_name_H-M	'P1'
_symmetry_Int_Tables_number	1
_symmetry_cell_setting	triclinic
loop_
_symmetry_equiv_pos_as_xyz
  x,y,z
_cell_length_a	21.395362
_cell_length_b	18.050590
_cell_length_c	21.395355
_cell_angle_alpha	89.981964
_cell_angle_beta	89.956060
_cell_angle_gamma	90.034430
loop_
_atom_site_label
_atom_site_type_symbol
_atom_site_fract_x
_atom_site_fract_y
_atom_site_fract_z
Zn1	Zn	0.957912	-0.295431	-0.354588
Zn2	Zn	0.957837	-0.419603	-0.249811
Zn3	Zn	0.853127	-0.295465	-0.249789
Zn4	Zn	0.853119	-0.419618	-0.354516
O5	O	0.905499	-0.357529	-0.302176
O6	O	1.045580	-0.311881	-0.340728
O7	O	0.943919	-0.403143	-0.162130
O8	O	0.867062	-0.191536	-0.263712
O9	O	1.045525	-0.403110	-0.263749
O10	O	0.944048	-0.191511	-0.340707
O11	O	0.866989	-0.311940	-0.162114
O12	O	0.765448	-0.311955	-0.263642
O13	O	0.867048	-0.403136	-0.442203
O14	O	0.765442	-0.403170	-0.340584
O15	O	0.944039	-0.311896	-0.442256
O16	O	0.943911	-0.523529	-0.263680
O17	O	0.866975	-0.523540	-0.340606
C18	C	0.742711	-0.357568	-0.302103
C19	C	0.673070	-0.357603	-0.302087
C20	C	0.905451	-0.550481	-0.302151
C21	C	0.905487	-0.633027	-0.302161
C22	C	0.640370	-0.405161	-0.342091
C23	C	0.574935	-0.405143	-0.342119
C24	C	0.542202	-0.357574	-0.302132
C25	C	0.574910	-0.310007	-0.262125
C26	C	0.640344	-0.310021	-0.262103
C27	C	0.438476	-0.351592	-0.245726
C28	C	0.373043	-0.351583	-0.245748
C29	C	0.340381	-0.357526	-0.302201
C30	C	0.373160	-0.363494	-0.358634
C31	C	0.438594	-0.363508	-0.358612
C32	C	0.471249	-0.357553	-0.302152
C33	C	0.236728	-0.405067	-0.342238
C34	C	0.171292	-0.405044	-0.342267
C35	C	0.171268	-0.309911	-0.262268
C36	C	0.236703	-0.309931	-0.262245
C37	C	0.269430	-0.357513	-0.302229
C38	C	0.947412	-0.832444	-0.260387
C39	C	0.962722	-0.881784	-0.317576
C40	C	0.905523	-0.784157	-0.302186
C41	C	0.890277	-0.881899	-0.245023
C42	C	0.905559	-0.930142	-0.302205
C43	C	0.920862	-0.832410	-0.359405
C44	C	0.848390	-0.832520	-0.286813
C45	C	0.863678	-0.881838	-0.344042
C46	C	0.905504	-0.700059	-0.302174
C47	C	0.905577	-1.014239	-0.302224
C48	C	1.068922	-0.357490	-0.302249
C49	C	1.138563	-0.357474	-0.302281
C50	C	0.905551	-0.357514	-0.465599
C51	C	0.905573	-0.357508	-0.535241
C52	C	0.905564	-0.163823	-0.302215
C53	C	0.905592	-0.081278	-0.302231
C54	C	0.945661	-0.309997	-0.567982
C55	C	0.945660	-0.309965	-0.633418
C56	C	0.905578	-0.357457	-0.666109
C57	C	0.865482	-0.404971	-0.633359
C58	C	0.865480	-0.404996	-0.567925
C59	C	0.900614	-0.424328	-0.769773
C60	C	0.900621	-0.424304	-0.835206
C61	C	0.905582	-0.357379	-0.867930
C62	C	0.910549	-0.290475	-0.835212
C63	C	0.910547	-0.290501	-0.769778
C64	C	0.905576	-0.357434	-0.737061
C65	C	0.945671	-0.309829	-0.971624
C66	C	0.945665	-0.309796	-1.037061
C67	C	0.865491	-0.404808	-1.037001
C68	C	0.865493	-0.404835	-0.971566
C69	C	0.905586	-0.357346	-0.938881
C70	C	0.905483	-0.357490	-0.139388
C71	C	0.905582	-0.357288	-0.069747
H72	H	0.667012	-0.443905	-0.374650
N73	N	0.994349	-0.803703	-0.213618
H74	H	0.972154	-0.772947	-0.181023
H75	H	1.015929	-0.846851	-0.192732
N76	N	1.026740	-0.910458	-0.334813
H77	H	1.026173	-0.966407	-0.335091
H78	H	1.038561	-0.891630	-0.377681
N79	N	0.136019	-0.456344	-0.385414
H80	H	0.166683	-0.486490	-0.410736
H81	H	0.108820	-0.490654	-0.359860
N82	N	0.938036	-0.803746	-0.423472
H83	H	0.937934	-0.747795	-0.423065
H84	H	0.981054	-0.822155	-0.435148
N85	N	0.915906	-0.218285	-0.870496
H86	H	0.915152	-0.228418	-0.916913
H87	H	0.879686	-0.185094	-0.859029
N88	N	0.337695	-0.345148	-0.184882
H89	H	0.310575	-0.299382	-0.185806
H90	H	0.310548	-0.390409	-0.178978
N91	N	0.988901	-0.258770	-0.532739
H92	H	0.979186	-0.205708	-0.544124
H93	H	0.982803	-0.266051	-0.486327
N94	N	0.539661	-0.456449	-0.385265
H95	H	0.512463	-0.490809	-0.359753
H96	H	0.512599	-0.426267	-0.414350
H97	H	0.828269	-0.903388	-0.379439
H98	H	0.346568	-0.368332	-0.404604
N99	N	0.135973	-0.258598	-0.219142
H100	H	0.089558	-0.265803	-0.225227
H101	H	0.147352	-0.270080	-0.174373
N102	N	0.988920	-0.258616	-0.936373
H103	H	1.017946	-0.288813	-0.909258
H104	H	1.014270	-0.228529	-0.967094
H105	H	0.465064	-0.346749	-0.199752
H106	H	0.465280	-0.368366	-0.404562
H107	H	0.263328	-0.271207	-0.229666
H108	H	0.800073	-0.810862	-0.273781
H109	H	0.832849	-0.443470	-1.063618
N110	N	0.822240	-0.456183	-0.668615
H111	H	0.828323	-0.448957	-0.715036
H112	H	0.831964	-0.509228	-0.657188
H113	H	0.263376	-0.443807	-0.374799
H114	H	0.877367	-0.903637	-0.196673
N115	N	0.822265	-0.456082	-0.936238
H116	H	0.793243	-0.425912	-0.909068
H117	H	0.796910	-0.486159	-0.966906
H118	H	0.978303	-0.271272	-0.660081
N119	N	0.988894	-0.258537	-1.072378
H120	H	1.014288	-0.228457	-1.041741
H121	H	1.017879	-0.288742	-1.099556
N122	N	0.915906	-0.218349	-0.734489
H123	H	0.919051	-0.175945	-0.765143
H124	H	0.877732	-0.211472	-0.707311
H125	H	0.896580	-0.478780	-0.861840
H126	H	0.896406	-0.478812	-0.743135
N127	N	0.822232	-0.456231	-0.532606
H128	H	0.796834	-0.486309	-0.563243
H129	H	0.847716	-0.490609	-0.505473
H130	H	0.548254	-0.271275	-0.229568
H131	H	0.666968	-0.271291	-0.229527
