data_functionalizedCrystal
_audit_creation_method	'MofGen! by Chris Wilmer'
_symmetry_space_group_name_H-M	'P1'
_symmetry_Int_Tables_number	1
_symmetry_cell_setting	triclinic
loop_
_symmetry_equiv_pos_as_xyz
  x,y,z
_cell_length_a	15.995292
_cell_length_b	14.519709
_cell_length_c	12.996460
_cell_angle_alpha	89.987633
_cell_angle_beta	89.998337
_cell_angle_gamma	96.425620
loop_
_atom_site_label
_atom_site_type_symbol
_atom_site_fract_x
_atom_site_fract_y
_atom_site_fract_z
O1	O	0.109763	-1.223628	-0.085425
O2	O	0.443096	-0.890294	0.247908
O3	O	0.776430	-0.556961	0.581241
O4	O	0.122689	-0.955124	-0.085456
O5	O	0.456022	-0.621791	0.247877
O6	O	0.789356	-0.288458	0.581211
O7	O	-0.005654	-1.096744	-0.085441
O8	O	0.327679	-0.763410	0.247892
O9	O	0.661013	-0.430077	0.581225
O10	O	0.238106	-1.082008	-0.085440
O11	O	0.571439	-0.748675	0.247893
O12	O	0.904773	-0.415342	0.581227
O13	O	-0.005661	-1.096762	0.085692
O14	O	0.327672	-0.763429	0.419026
O15	O	0.661005	-0.430095	0.752359
O16	O	0.122682	-0.955143	0.085678
O17	O	0.456015	-0.621809	0.419011
O18	O	0.789348	-0.288476	0.752345
O19	O	0.109756	-1.223646	0.085708
O20	O	0.443089	-0.890313	0.419042
O21	O	0.776422	-0.556979	0.752375
Cu22	Cu	0.116218	-1.089396	0.101319
Cu23	Cu	0.449551	-0.756063	0.434652
Cu24	Cu	0.782885	-0.422729	0.767986
Cu25	Cu	0.116227	-1.089374	-0.101067
Cu26	Cu	0.449560	-0.756041	0.232267
Cu27	Cu	0.782893	-0.422708	0.565600
O28	O	0.238099	-1.082027	0.085694
O29	O	0.571432	-0.748693	0.419027
O30	O	0.904765	-0.415360	0.752361
C31	C	0.122083	-0.920775	0.000107
C32	C	0.455416	-0.587442	0.333440
C33	C	0.788750	-0.254108	0.666774
C34	C	0.120278	-0.818397	0.000095
C35	C	0.453611	-0.485064	0.333428
C36	C	0.786944	-0.151731	0.666762
N37	N	0.116227	-1.089360	-0.243414
N38	N	0.449560	-0.756026	0.089920
N39	N	0.782893	-0.422693	0.423253
C40	C	-0.036854	-1.096153	0.000123
C41	C	0.296479	-0.762820	0.333456
C42	C	0.629813	-0.429486	0.666790
C43	C	-0.129810	-1.094355	0.000115
C44	C	0.203524	-0.761022	0.333448
C45	C	0.536857	-0.427688	0.666782
C46	C	-0.467558	-1.087745	0.000124
C47	C	-0.134225	-0.754412	0.333457
C48	C	0.199109	-0.421079	0.666790
C49	C	-0.444093	-1.189962	0.000518
C50	C	-0.110759	-0.856629	0.333851
C51	C	0.222574	-0.523296	0.667184
C52	C	-0.347414	-1.191905	0.000128
C53	C	-0.014081	-0.858572	0.333462
C54	C	0.319253	-0.525238	0.666795
C55	C	-0.299997	-1.091025	0.000120
C56	C	0.033336	-0.757692	0.333453
C57	C	0.366670	-0.424358	0.666787
C58	C	-0.329170	-1.039911	-0.097609
C59	C	0.004163	-0.706578	0.235725
C60	C	0.337496	-0.373244	0.569058
C61	C	-0.425963	-1.038680	-0.097687
C62	C	-0.092630	-0.705347	0.235647
C63	C	0.240704	-0.372014	0.568980
C64	C	-0.425831	-1.036614	0.096924
C65	C	-0.092498	-0.703281	0.430258
C66	C	0.240835	-0.369947	0.763591
C67	C	-0.329333	-1.040402	0.098212
C68	C	0.004000	-0.707069	0.431546
C69	C	0.337333	-0.373735	0.764879
C70	C	-0.205298	-1.092873	0.000114
C71	C	0.128035	-0.759540	0.333448
C72	C	0.461368	-0.426207	0.666781
C73	C	-0.562257	-1.085894	0.000122
C74	C	-0.228923	-0.752561	0.333456
C75	C	0.104410	-0.419227	0.666789
C76	C	0.269299	-1.082617	0.000127
C77	C	0.602632	-0.749284	0.333461
C78	C	0.935966	-0.415951	0.666794
C79	C	0.362254	-1.084415	0.000129
C80	C	0.695588	-0.751082	0.333462
C81	C	1.028921	-0.417749	0.666795
C82	C	0.110362	-1.257995	0.000143
C83	C	0.443695	-0.924662	0.333477
C84	C	0.777029	-0.591329	0.666810
C85	C	0.112167	-1.360373	0.000149
C86	C	0.445500	-1.027040	0.333482
C87	C	0.778834	-0.693706	0.666815
C88	C	0.113632	-0.443515	0.000142
C89	C	0.446966	-0.110182	0.333475
C90	C	0.780299	0.223152	0.666808
C91	C	0.115478	-0.547819	0.000128
C92	C	0.448811	-0.214486	0.333462
C93	C	0.782144	0.118847	0.666795
C94	C	0.116955	-0.630953	0.000117
C95	C	0.450288	-0.297620	0.333451
C96	C	0.783621	0.035714	0.666784
C97	C	0.118801	-0.735264	0.000106
C98	C	0.452134	-0.401930	0.333439
C99	C	0.785467	-0.068597	0.666773
C100	C	0.116228	-1.089363	-0.336520
C101	C	0.449561	-0.756029	-0.003186
C102	C	0.782894	-0.422696	0.330147
C103	C	0.116226	-1.089375	-0.453325
C104	C	0.449559	-0.756042	-0.119991
C105	C	0.782893	-0.422709	0.213342
C106	C	0.116220	-1.089391	-0.546423
C107	C	0.449554	-0.756057	-0.213090
C108	C	0.782887	-0.422724	0.120244
C109	C	0.116217	-1.089402	-0.663236
C110	C	0.449551	-0.756069	-0.329902
C111	C	0.782884	-0.422736	0.003431
N112	N	0.116211	-1.089418	0.243666
N113	N	0.449545	-0.756085	0.576999
N114	N	0.782878	-0.422751	0.910333
H115	H	-0.328332	-1.231935	0.070183
H116	H	0.005001	-0.898602	0.403516
H117	H	0.338335	-0.565269	0.736849
H118	H	-0.453875	-1.068812	0.171001
H119	H	-0.120542	-0.735479	0.504335
H120	H	0.212792	-0.402145	0.837668
H121	H	-0.440625	-0.963734	-0.102121
H122	H	-0.107292	-0.630400	0.231213
H123	H	0.226042	-0.297067	0.564546
C124	C	-0.304152	-1.090661	0.195888
C125	C	0.029181	-0.757327	0.529221
C126	C	0.362514	-0.423994	0.862555
N127	N	-0.285172	-1.128511	0.269456
N128	N	0.048162	-0.795177	0.602789
N129	N	0.381495	-0.461844	0.936123
C130	C	-0.481845	-1.243205	0.095197
C131	C	-0.148512	-0.909871	0.428530
C132	C	0.184821	-0.576538	0.761864
N133	N	-0.510287	-1.283308	0.166512
N134	N	-0.176954	-0.949974	0.499845
N135	N	0.156380	-0.616641	0.833179
C136	C	-0.284946	-0.940925	0.106176
C137	C	0.048387	-0.607592	0.439510
C138	C	0.381720	-0.274258	0.772843
N139	N	-0.251515	-0.865995	0.112166
N140	N	0.081818	-0.532661	0.445499
N141	N	0.415152	-0.199328	0.778833
C142	C	-0.322461	-1.246279	-0.094671
C143	C	0.010873	-0.912946	0.238662
C144	C	0.344206	-0.579612	0.571996
N145	N	-0.303667	-1.287233	-0.166080
N146	N	0.029667	-0.953900	0.167253
N147	N	0.363000	-0.620567	0.500587
C148	C	-0.444897	-0.934974	0.097816
C149	C	-0.111564	-0.601641	0.431149
C150	C	0.221769	-0.268307	0.764483
N151	N	-0.459267	-0.858423	0.098483
N152	N	-0.125933	-0.525090	0.431816
N153	N	0.207400	-0.191756	0.765150
H154	H	-0.473049	-1.229135	-0.069166
H155	H	-0.139715	-0.895802	0.264167
H156	H	0.193618	-0.562469	0.597501
C157	C	-0.302003	-1.087848	-0.195856
C158	C	0.031330	-0.754514	0.137478
C159	C	0.364663	-0.421181	0.470811
N160	N	-0.281544	-1.123960	-0.269853
N161	N	0.051789	-0.790627	0.063480
N162	N	0.385122	-0.457293	0.396814
H163	H	-0.452723	-1.074065	-0.170734
H164	H	-0.119390	-0.740732	0.162599
H165	H	0.213944	-0.407398	0.495932
H166	H	-0.297414	-0.965676	-0.101248
H167	H	0.035920	-0.632343	0.232085
H168	H	0.369253	-0.299010	0.565419
