data_functionalizedCrystal
_audit_creation_method	'MofGen! by Chris Wilmer'
_symmetry_space_group_name_H-M	'P1'
_symmetry_Int_Tables_number	1
_symmetry_cell_setting	triclinic
loop_
_symmetry_equiv_pos_as_xyz
  x,y,z
_cell_length_a	17.019282
_cell_length_b	17.038272
_cell_length_c	14.048226
_cell_angle_alpha	89.993466
_cell_angle_beta	93.874761
_cell_angle_gamma	87.241387
loop_
_atom_site_label
_atom_site_type_symbol
_atom_site_fract_x
_atom_site_fract_y
_atom_site_fract_z
O1	O	1.053361	0.099546	0.007218
O2	O	0.824549	0.112259	-0.011547
O3	O	0.937595	-0.007912	-0.002269
O4	O	0.940315	0.219716	-0.002061
O5	O	0.937580	-0.007919	0.156051
O6	O	0.824534	0.112252	0.146773
O7	O	1.053346	0.099539	0.165538
Zn8	Zn	0.938938	0.105894	0.181292
Zn9	Zn	0.938958	0.105903	-0.027301
O10	O	0.940300	0.219709	0.156259
C11	C	0.795121	0.111775	0.065200
C12	C	0.707454	0.110336	0.058010
C13	C	0.666264	0.109654	0.140935
C14	C	0.583893	0.108288	0.134182
C15	C	0.542712	0.107611	0.044504
C16	C	0.583907	0.108291	-0.038427
C17	C	0.666278	0.109650	-0.031674
C18	C	0.294007	0.103501	0.019795
C19	C	0.211631	0.102144	0.013047
C20	C	0.211622	0.102140	0.185658
C21	C	0.293994	0.103504	0.192403
C22	C	0.335182	0.104180	0.109472
C23	C	0.458515	0.106218	0.037599
C24	C	0.419378	0.105567	0.116378
C25	C	0.935114	-0.037041	0.076688
C26	C	0.927734	-0.123828	0.076083
C27	C	0.995494	-0.174004	0.081641
C28	C	0.988554	-0.255548	0.081063
C29	C	0.913854	-0.286914	0.074933
C30	C	0.846090	-0.236732	0.069372
C31	C	0.853030	-0.155189	0.069943
C32	C	0.889337	-0.532650	0.072910
C33	C	0.882402	-0.614199	0.072341
C34	C	1.024867	-0.633009	0.084031
C35	C	1.031801	-0.551464	0.084607
C36	C	0.964036	-0.501289	0.079041
C37	C	0.906760	-0.370265	0.074345
C38	C	0.971131	-0.417939	0.079622
C39	C	1.082775	0.100022	0.088789
C40	C	1.170442	0.101462	0.095972
C41	C	0.942781	0.248839	0.077300
C42	C	0.950162	0.335625	0.077900
N43	N	0.938930	0.105887	0.323652
N44	N	0.938971	0.105904	-0.169661
C45	C	0.989005	0.052698	0.377580
C46	C	0.989010	0.052697	0.477238
C47	C	0.938944	0.105891	0.522967
C48	C	0.888863	0.159083	0.469031
C49	C	0.888855	0.159079	0.369375
C50	C	0.888887	0.159089	0.676747
C51	C	0.888896	0.159094	0.776411
C52	C	0.989042	0.052707	0.784611
C53	C	0.989033	0.052703	0.684955
C54	C	0.938954	0.105896	0.631026
H55	H	0.424976	0.105666	-0.035417
H56	H	0.821569	-0.639734	0.067365
H57	H	0.452911	0.106115	0.189394
O58	O	1.043034	-0.004670	0.635632
H59	H	1.007274	-0.042642	0.587310
H60	H	0.848103	0.202402	0.632841
H61	H	1.080037	-0.673870	0.088561
H62	H	1.029818	0.009395	0.828526
H63	H	0.848126	0.202409	0.813637
O64	O	0.539501	0.107557	-0.135158
H65	H	0.498519	0.160201	-0.142660
O66	O	0.167340	0.101506	0.275215
H67	H	0.179825	0.155067	0.317464
O68	O	0.834867	0.216465	0.518346
H69	H	0.794331	0.183585	0.560454
O70	O	0.710677	0.110387	0.237662
H71	H	0.744736	0.164271	0.244579
H72	H	0.178104	0.101594	-0.059983
O73	O	0.710710	0.110391	-0.121112
H74	H	0.668237	0.109700	-0.184607
H75	H	1.056322	-0.148472	0.086638
O76	O	1.061637	-0.309669	0.087073
H77	H	1.114746	-0.274159	0.091449
H78	H	1.029778	0.009384	0.340356
O79	O	1.112369	-0.517632	0.091195
H80	H	1.158323	-0.566223	0.094949
H81	H	0.834157	-0.491806	0.068377
H82	H	0.848077	0.202390	0.325467
H83	H	0.327533	0.104049	-0.047734
H84	H	0.785267	-0.262277	0.064375
O85	O	0.779947	-0.101065	0.063959
H86	H	0.726837	-0.136573	0.059612
H87	H	1.031952	-0.392397	0.084592
O88	O	0.826193	-0.404102	0.067755
H89	H	0.819631	-0.440803	0.002692
H90	H	0.550361	0.107720	0.201709
O91	O	1.043034	-0.004657	0.535409
H92	H	1.077859	-0.041635	0.486870
H93	H	0.327518	0.104052	0.265429
