data_functionalizedCrystal
_audit_creation_method	'MofGen! by Chris Wilmer'
_symmetry_space_group_name_H-M	'P1'
_symmetry_Int_Tables_number	1
_symmetry_cell_setting	triclinic
loop_
_symmetry_equiv_pos_as_xyz
  x,y,z
_cell_length_a	12.837942
_cell_length_b	17.699083
_cell_length_c	11.892283
_cell_angle_alpha	93.888411
_cell_angle_beta	94.307221
_cell_angle_gamma	90.944022
loop_
_atom_site_label
_atom_site_type_symbol
_atom_site_fract_x
_atom_site_fract_y
_atom_site_fract_z
O1	O	0.137686	-1.009351	0.093842
O2	O	0.637686	-0.509351	0.593842
O3	O	0.154741	-0.790224	0.093878
O4	O	0.654741	-0.290224	0.593878
O5	O	-0.004677	-0.894929	0.093854
O6	O	0.495323	-0.394929	0.593854
O7	O	0.297104	-0.904646	0.093866
O8	O	0.797104	-0.404646	0.593866
O9	O	-0.017948	-0.903640	-0.094150
O10	O	0.482052	-0.403640	0.405850
O11	O	0.141470	-0.798935	-0.094126
O12	O	0.641470	-0.298935	0.405874
O13	O	0.124416	-1.018062	-0.094163
O14	O	0.624416	-0.518062	0.405837
Zn15	Zn	0.130836	-0.909882	-0.123994
Zn16	Zn	0.630836	-0.409882	0.376006
Zn17	Zn	0.148320	-0.898404	0.123710
Zn18	Zn	0.648320	-0.398404	0.623710
O19	O	0.283834	-0.913357	-0.094138
O20	O	0.783834	-0.413357	0.405862
C21	C	0.147495	-0.766337	-0.000119
C22	C	0.647495	-0.266337	0.499881
C23	C	0.145663	-0.682184	-0.000105
C24	C	0.645663	-0.182184	0.499895
C25	C	-0.049925	-0.896002	-0.000147
C26	C	0.450075	-0.396002	0.499853
C27	C	-0.164977	-0.886211	-0.000144
C28	C	0.335023	-0.386211	0.499856
N29	N	0.118903	-0.917720	-0.293045
N30	N	0.618903	-0.417720	0.206955
C31	C	-0.406232	-1.003915	-0.000140
C32	C	0.093768	-0.503915	0.499860
C33	C	-0.514334	-0.994718	-0.000136
C34	C	-0.014334	-0.494718	0.499864
C35	C	-0.489286	-0.858623	-0.000125
C36	C	0.010714	-0.358623	0.499875
C37	C	-0.381183	-0.867819	-0.000129
C38	C	0.118817	-0.367819	0.499871
C39	C	-0.339661	-0.940467	-0.000138
C40	C	0.160339	-0.440467	0.499862
C41	C	-0.231557	-0.949663	-0.000149
C42	C	0.268443	-0.449663	0.499851
C43	C	-0.206510	-0.813567	-0.000130
C44	C	0.293490	-0.313567	0.499870
C45	C	-0.314613	-0.804371	-0.000127
C46	C	0.185387	-0.304371	0.499873
C47	C	0.329082	-0.912284	-0.000135
C48	C	0.829082	-0.412284	0.499865
C49	C	0.444134	-0.922075	-0.000131
C50	C	0.944134	-0.422075	0.499869
C51	C	0.131662	-1.041949	-0.000163
C52	C	0.631662	-0.541949	0.499837
C53	C	0.133494	-1.126102	-0.000169
C54	C	0.633494	-0.626102	0.499831
C55	C	0.239237	-0.640437	-0.000102
C56	C	0.739237	-0.140437	0.499898
C57	C	0.237508	-0.561367	-0.000116
C58	C	0.737508	-0.061367	0.499884
C59	C	0.142203	-0.524046	-0.000126
C60	C	0.642203	-0.024046	0.499874
C61	C	0.048621	-0.565798	-0.000133
C62	C	0.548621	-0.065798	0.499867
C63	C	0.050352	-0.644867	-0.000127
C64	C	0.550352	-0.144867	0.499873
C65	C	0.041642	-0.246924	-0.000161
C66	C	0.541642	0.253076	0.499839
C67	C	0.039919	-0.167850	-0.000165
C68	C	0.539919	0.332150	0.499835
C69	C	0.228798	-0.163425	-0.000151
C70	C	0.728798	0.336575	0.499849
C71	C	0.230528	-0.242493	-0.000145
C72	C	0.730528	0.257507	0.499855
C73	C	0.136947	-0.284239	-0.000157
C74	C	0.636947	0.215761	0.499843
C75	C	0.138823	-0.369975	-0.000144
C76	C	0.638823	0.130025	0.499856
C77	C	0.140326	-0.438310	-0.000132
C78	C	0.640326	0.061690	0.499868
C79	C	0.035814	-0.972340	-0.470562
C80	C	0.535814	-0.472340	0.029438
C81	C	0.044164	-0.966845	-0.352222
C82	C	0.544164	-0.466845	0.147778
C83	C	0.185299	-0.874089	-0.352217
C84	C	0.685299	-0.374089	0.147783
C85	C	0.176949	-0.879585	-0.470557
C86	C	0.676949	-0.379585	0.029443
C87	C	0.102203	-0.928711	-0.529725
C88	C	0.602203	-0.428711	-0.029725
C89	C	0.093849	-0.934202	-0.648067
C90	C	0.593849	-0.434202	-0.148067
C91	C	0.234989	-0.841451	-0.648060
C92	C	0.734989	-0.341451	-0.148060
C93	C	0.243339	-0.835956	-0.529720
C94	C	0.743339	-0.335956	-0.029720
N95	N	0.160245	-0.890571	0.292761
N96	N	0.660245	-0.390571	0.792761
H97	H	-0.197752	-1.008817	-0.000161
H98	H	0.302248	-0.508817	0.499839
F99	F	0.340676	-0.680150	-0.000083
F100	F	0.840676	-0.180150	0.499917
H101	H	0.304198	-0.795960	-0.481531
H102	H	0.804198	-0.295960	0.018469
H103	H	0.304997	-0.129426	-0.000147
H104	H	0.804997	0.370574	0.499853
F105	F	-0.585181	-1.062248	-0.000135
F106	F	-0.085181	-0.562248	0.499865
F107	F	-0.533494	-0.781310	-0.000088
F108	F	-0.033494	-0.281310	0.499912
F109	F	-0.026495	-1.013283	-0.289260
F110	F	0.473505	-0.513283	0.210740
H111	H	-0.028978	-0.535405	-0.000158
H112	H	0.471022	-0.035405	0.499842
F113	F	-0.049244	-0.689297	-0.000134
F114	F	0.450756	-0.189297	0.499866
H115	H	-0.034558	-0.280904	-0.000173
H116	H	0.465442	0.219096	0.499827
F117	F	0.014296	-0.986483	-0.711037
F118	F	0.514296	-0.486483	-0.211037
F119	F	-0.362039	-1.081232	-0.000173
F120	F	0.137961	-0.581232	0.499827
H121	H	0.289045	-0.805923	-0.696244
H122	H	0.789045	-0.305923	-0.196244
F123	F	-0.043745	-1.024616	-0.533534
F124	F	0.456255	-0.524616	-0.033534
F125	F	-0.061522	-0.128131	-0.000176
F126	F	0.438478	0.371869	0.499824
H127	H	-0.348435	-0.745223	-0.000115
H128	H	0.151565	-0.245223	0.499885
F129	F	0.337103	-0.516941	-0.000108
F130	F	0.837103	-0.016941	0.499892
F131	F	-0.135653	-0.746038	-0.000139
F132	F	0.364347	-0.246038	0.499861
F133	F	0.331965	-0.282209	-0.000127
F134	F	0.831965	0.217791	0.499873
H135	H	0.246162	-0.834098	-0.304027
H136	H	0.746162	-0.334098	0.195973
