data_functionalizedCrystal
_audit_creation_method	'MofGen! by Chris Wilmer'
_symmetry_space_group_name_H-M	'P1'
_symmetry_Int_Tables_number	1
_symmetry_cell_setting	triclinic
loop_
_symmetry_equiv_pos_as_xyz
  x,y,z
_cell_length_a	18.215407
_cell_length_b	21.295417
_cell_length_c	18.215399
_cell_angle_alpha	90.032152
_cell_angle_beta	90.019833
_cell_angle_gamma	90.030955
loop_
_atom_site_label
_atom_site_type_symbol
_atom_site_fract_x
_atom_site_fract_y
_atom_site_fract_z
Zn1	Zn	1.125043	-0.250608	0.416094
Zn2	Zn	1.124940	-0.355879	0.293019
Zn3	Zn	1.001976	-0.250629	0.293042
Zn4	Zn	1.001930	-0.355844	0.416044
O5	O	1.063472	-0.303240	0.354550
O6	O	1.228014	-0.264579	0.399780
O7	O	1.108604	-0.341941	0.190038
O8	O	1.018364	-0.162537	0.309396
O9	O	1.227938	-0.341921	0.309357
O10	O	1.108781	-0.162521	0.399802
O11	O	1.018263	-0.264614	0.190054
O12	O	0.898985	-0.264580	0.309347
O13	O	1.018285	-0.341861	0.519035
O14	O	0.898951	-0.341881	0.399716
O15	O	1.108736	-0.264545	0.519072
O16	O	1.108559	-0.443964	0.309308
O17	O	1.018184	-0.443938	0.399694
C18	C	0.872266	-0.303229	0.354529
C19	C	0.790467	-0.303240	0.354537
C20	C	0.602275	-0.343554	0.401533
C21	C	0.525416	-0.343556	0.401542
C22	C	0.525422	-0.262938	0.307582
C23	C	0.602279	-0.262933	0.307577
C24	C	0.640703	-0.303245	0.354552
C25	C	0.486987	-0.303251	0.354566
C26	C	0.403654	-0.303253	0.354575
C27	C	0.724042	-0.303242	0.354543
C28	C	1.063376	-0.466792	0.354509
C29	C	1.063402	-0.536760	0.354516
C30	C	1.110502	-0.569619	0.307500
C31	C	1.110536	-0.635361	0.307517
C32	C	1.063457	-0.668242	0.354542
C33	C	1.016354	-0.635375	0.401566
C34	C	1.016326	-0.569634	0.401554
N35	N	0.999079	-0.771508	0.360145
N36	N	0.999107	-0.833960	0.360153
C37	C	1.063540	-0.866317	0.354584
N38	N	1.127944	-0.833863	0.348993
N39	N	1.127915	-0.771406	0.348981
C40	C	1.063483	-0.739528	0.354561
C41	C	1.110681	-0.970462	0.307584
C42	C	1.110717	-1.036205	0.307605
C43	C	1.016528	-1.036218	0.401651
C44	C	1.016499	-0.970475	0.401633
C45	C	1.063575	-0.937601	0.354595
C46	C	1.255425	-0.303251	0.354571
C47	C	1.337224	-0.303256	0.354581
C48	C	1.063517	-0.303197	0.546503
C49	C	1.063536	-0.303178	0.628302
C50	C	1.063589	-0.139050	0.354607
C51	C	1.063639	-0.069082	0.354631
C52	C	1.063470	-0.303238	0.163344
C53	C	1.063593	-0.303079	0.081545
C54	C	1.110651	-0.262882	0.816516
C55	C	1.110660	-0.262863	0.893375
C56	C	1.016473	-0.343377	0.893325
C57	C	1.016461	-0.343392	0.816468
C58	C	1.063554	-0.303145	0.778065
C59	C	1.063575	-0.303112	0.931781
C60	C	1.063584	-0.303093	1.015115
C61	C	1.063544	-0.303164	0.694726
H62	H	0.494130	-0.376379	0.439801
H63	H	0.494127	-0.230118	0.269336
H64	H	1.148893	-0.662121	0.269231
C65	C	0.964569	-0.671538	0.453294
H66	H	0.936516	-0.642550	0.481299
H67	H	0.932529	-0.697227	0.425121
H68	H	0.992719	-0.697141	0.485392
C69	C	1.162441	-0.218605	0.774276
H70	H	1.190485	-0.194618	0.808186
H71	H	1.194488	-0.242686	0.744288
H72	H	1.134294	-0.191181	0.744302
C73	C	0.644557	-0.218591	0.255898
H74	H	0.695833	-0.224357	0.262630
H75	H	0.631940	-0.227747	0.206431
H76	H	0.631989	-0.176306	0.266766
C77	C	0.964682	-0.387650	0.935570
H78	H	0.971439	-0.381881	0.986851
H79	H	0.915239	-0.378441	0.922970
H80	H	0.975429	-0.429950	0.922958
C81	C	0.644539	-0.387889	0.453209
H82	H	0.610642	-0.411891	0.481196
H83	H	0.674496	-0.415286	0.425002
H84	H	0.674546	-0.363835	0.485326
C85	C	1.162291	-0.533461	0.255770
H86	H	1.190352	-0.562450	0.227776
H87	H	1.134151	-0.507854	0.223673
H88	H	1.194333	-0.507776	0.283953
C89	C	1.162473	-0.218582	0.935671
H90	H	1.155734	-0.224333	0.986945
H91	H	1.211909	-0.227804	0.923079
H92	H	1.151731	-0.176285	0.923091
H93	H	0.977971	-0.542879	0.439840
H94	H	0.978143	-0.943720	0.439914
C95	C	1.162469	-0.934297	0.255854
H96	H	1.190534	-0.963286	0.227862
H97	H	1.134327	-0.908694	0.223755
H98	H	1.194507	-0.908609	0.284036
C99	C	1.162529	-1.072351	0.255885
H100	H	1.190554	-1.043354	0.227866
H101	H	1.194593	-1.097953	0.284067
H102	H	1.134399	-1.098038	0.223799
H103	H	0.978104	-0.376179	0.785160
H104	H	0.978199	-1.062989	0.439942
