data_functionalizedCrystal
_audit_creation_method	'MofGen! by Chris Wilmer'
_symmetry_space_group_name_H-M	'P1'
_symmetry_Int_Tables_number	1
_symmetry_cell_setting	triclinic
loop_
_symmetry_equiv_pos_as_xyz
  x,y,z
_cell_length_a	16.992694
_cell_length_b	14.519709
_cell_length_c	15.455313
_cell_angle_alpha	92.669068
_cell_angle_beta	87.142206
_cell_angle_gamma	87.174184
loop_
_atom_site_label
_atom_site_type_symbol
_atom_site_fract_x
_atom_site_fract_y
_atom_site_fract_z
O1	O	1.044092	0.191795	-0.072025
O2	O	0.815805	0.189648	-0.072051
O3	O	0.936001	0.056918	-0.072029
O4	O	0.923896	0.324525	-0.072046
O5	O	0.929127	0.064474	0.072232
O6	O	0.808932	0.197205	0.072210
O7	O	1.037219	0.199352	0.072236
Cu8	Cu	0.922447	0.198968	0.085395
Cu9	Cu	0.930576	0.190031	-0.085210
O10	O	0.917023	0.332082	0.072215
C11	C	0.783152	0.190666	0.000077
C12	C	0.696097	0.182430	0.000067
C13	C	0.645968	0.261890	0.000063
C14	C	0.564170	0.254147	0.000075
C15	C	0.532502	0.166943	0.000086
C16	C	0.582638	0.087478	0.000093
C17	C	0.664434	0.095222	0.000087
C18	C	0.288859	0.134847	0.000111
C19	C	0.207056	0.127109	0.000115
C20	C	0.188594	0.293779	0.000099
C21	C	0.270393	0.301515	0.000087
C22	C	0.320520	0.222050	0.000099
N23	N	0.448892	0.159027	0.000096
N24	N	0.404129	0.229968	0.000095
C25	C	0.932000	0.026296	0.000101
C26	C	0.930309	-0.076207	0.000102
C27	C	0.924087	-0.451550	0.000078
C28	C	0.925815	-0.347118	0.000085
C29	C	0.927198	-0.263882	0.000091
C30	C	0.928926	-0.159443	0.000096
C31	C	1.069872	0.198333	0.000107
C32	C	1.156927	0.206569	0.000111
C33	C	0.921024	0.362704	0.000082
C34	C	0.922715	0.465206	0.000076
N35	N	0.916736	0.205254	0.205390
N36	N	0.936294	0.183739	-0.205204
C37	C	0.967817	0.148889	0.250793
C38	C	0.963505	0.153651	0.341600
C39	C	0.908115	0.214784	0.387002
C40	C	0.857028	0.271151	0.341593
C41	C	0.861337	0.266383	0.250787
C42	C	0.889516	0.235339	0.658581
C43	C	0.885212	0.240104	0.749392
C44	C	0.991689	0.122602	0.749393
C45	C	0.995996	0.117844	0.658586
C46	C	0.944907	0.174208	0.613185
N47	N	0.903708	0.219655	0.479822
N48	N	0.949311	0.169331	0.520367
H49	H	0.671744	0.332900	0.000054
O50	O	1.013155	0.099038	0.385804
C51	C	1.059112	0.154797	0.438300
H52	H	1.027327	0.225358	0.451891
H53	H	1.068434	0.120579	0.502162
H54	H	1.118735	0.163543	0.403299
O55	O	1.021647	0.089424	0.206827
C56	C	1.065820	0.040712	0.266378
H57	H	1.030596	0.040679	0.331112
H58	H	1.078927	-0.033434	0.240155
H59	H	1.123654	0.075500	0.276023
O60	O	1.041276	0.067712	0.793404
C61	C	1.029436	-0.025702	0.771246
H62	H	1.002342	-0.031292	0.705317
H63	H	1.088459	-0.066910	0.768141
H64	H	0.987934	-0.054440	0.822360
H65	H	0.181276	0.056094	0.000123
O66	O	0.803114	0.330431	0.385657
C67	C	0.726524	0.308508	0.363468
H68	H	0.727228	0.233325	0.338517
H69	H	0.684353	0.319321	0.423190
H70	H	0.706060	0.355150	0.310755
O71	O	1.049527	0.058039	0.614585
C72	C	1.009643	-0.004723	0.562370
H73	H	0.949144	0.027068	0.548582
H74	H	1.045363	-0.020812	0.498589
H75	H	1.002172	-0.071173	0.597715
H76	H	0.840105	0.289889	0.786355
O77	O	0.839858	0.290187	0.614620
C78	C	0.790037	0.345151	0.674168
H79	H	0.819121	0.351980	0.738890
H80	H	0.779418	0.416542	0.647923
H81	H	0.731287	0.311377	0.683844
O82	O	0.713108	0.018000	-0.000067
C83	C	0.702274	-0.038515	-0.074765
H84	H	0.676865	0.005378	-0.126988
H85	H	0.761447	-0.072535	-0.099844
H86	H	0.659751	-0.094087	-0.057866
H87	H	0.819740	0.312280	0.213821
H88	H	0.329663	0.070141	0.000121
H89	H	0.147771	0.358475	0.000091
O90	O	0.551750	0.002836	0.000066
C91	C	0.468804	0.013039	0.000090
H92	H	0.450994	0.082167	-0.027227
H93	H	0.445605	-0.045321	-0.041786
H94	H	0.442741	0.010518	0.069301
H95	H	0.296170	0.372525	0.000069
O96	O	0.515589	0.331426	0.000031
C97	C	0.561078	0.410055	0.000037
H98	H	0.623388	0.389710	-0.027280
H99	H	0.532975	0.463904	-0.041848
H100	H	0.563655	0.440130	0.069243
