data_functionalizedCrystal
_audit_creation_method	'MofGen! by Chris Wilmer'
_symmetry_space_group_name_H-M	'P1'
_symmetry_Int_Tables_number	1
_symmetry_cell_setting	triclinic
loop_
_symmetry_equiv_pos_as_xyz
  x,y,z
_cell_length_a	14.519709
_cell_length_b	8.559649
_cell_length_c	7.681481
_cell_angle_alpha	94.930900
_cell_angle_beta	84.260287
_cell_angle_gamma	76.729405
loop_
_atom_site_label
_atom_site_type_symbol
_atom_site_fract_x
_atom_site_fract_y
_atom_site_fract_z
O1	O	-1.199063	-0.224489	-0.146196
O2	O	-0.699063	0.275511	0.353804
O3	O	-0.928812	-0.249156	-0.146249
O4	O	-0.428812	0.250844	0.353751
O5	O	-1.087747	-0.004288	-0.146216
O6	O	-0.587747	0.495712	0.353784
O7	O	-1.040128	-0.469357	-0.146229
O8	O	-0.540128	0.030643	0.353771
O9	O	-1.107314	0.025920	0.146646
O10	O	-0.607314	0.525920	0.646646
O11	O	-0.948379	-0.218948	0.146613
O12	O	-0.448379	0.281052	0.646613
O13	O	-1.218630	-0.194281	0.146666
O14	O	-0.718630	0.305719	0.646666
Zn15	Zn	-1.086611	-0.201819	0.193138
Zn16	Zn	-0.586611	0.298181	0.693138
Zn17	Zn	-1.060831	-0.241618	-0.192720
Zn18	Zn	-0.560831	0.258382	0.307280
O19	O	-1.059695	-0.439149	0.146633
O20	O	-0.559695	0.060851	0.646633
C21	C	-0.904318	-0.232903	0.000175
C22	C	-0.404318	0.267097	0.500175
C23	C	-0.802183	-0.229461	0.000155
C24	C	-0.302183	0.270539	0.500155
C25	C	-1.101139	0.070335	0.000213
C26	C	-0.601139	0.570335	0.500213
C27	C	-1.111880	0.247684	0.000205
C28	C	-0.611880	0.747684	0.500205
C29	C	-1.243124	-0.210534	0.000238
C30	C	-0.743124	0.289466	0.500238
C31	C	-1.345258	-0.213977	0.000247
C32	C	-0.845258	0.286023	0.500247
C33	C	-0.428202	-0.216774	0.000235
C34	C	0.071798	0.283226	0.500235
C35	C	-0.532256	-0.220297	0.000212
C36	C	-0.032256	0.279703	0.500212
C37	C	-0.615189	-0.223117	0.000193
C38	C	-0.115189	0.276883	0.500193
C39	C	-0.719249	-0.226641	0.000174
C40	C	-0.219249	0.273359	0.500174
C41	C	-1.046303	-0.513773	0.000201
C42	C	-0.546303	-0.013773	0.500201
C43	C	-1.035561	-0.691123	0.000197
C44	C	-0.535561	-0.191123	0.500197
N45	N	-1.104212	-0.174655	0.456476
N46	N	-0.604212	0.325345	0.956476
N47	N	-1.043238	-0.268769	-0.456058
N48	N	-0.543238	0.231231	0.043942
H49	H	-1.185444	0.330983	0.000234
H50	H	-0.685444	0.830983	0.500234
H51	H	-0.980995	-0.364830	0.468732
H52	H	-0.480995	0.135170	0.968732
H53	H	-0.962003	0.225590	0.000188
H54	H	-0.462003	0.725590	0.500188
H55	H	-1.166465	-0.078599	0.531694
H56	H	-0.666465	0.421401	1.031694
