data_functionalizedCrystal
_audit_creation_method	'MofGen! by Chris Wilmer'
_symmetry_space_group_name_H-M	'P1'
_symmetry_Int_Tables_number	1
_symmetry_cell_setting	triclinic
loop_
_symmetry_equiv_pos_as_xyz
  x,y,z
_cell_length_a	14.519731
_cell_length_b	12.996460
_cell_length_c	17.699083
_cell_angle_alpha	90.007036
_cell_angle_beta	83.485934
_cell_angle_gamma	90.005673
loop_
_atom_site_label
_atom_site_type_symbol
_atom_site_fract_x
_atom_site_fract_y
_atom_site_fract_z
O1	O	1.223435	0.085571	0.099292
O2	O	1.556768	0.418904	0.432625
O3	O	1.890101	0.752238	0.765958
O4	O	0.954911	0.085573	0.110959
O5	O	1.288244	0.418906	0.444292
O6	O	1.621577	0.752240	0.777625
O7	O	1.096759	0.085563	-0.005042
O8	O	1.430093	0.418896	0.328292
O9	O	1.763426	0.752230	0.661625
O10	O	1.081586	0.085581	0.215292
O11	O	1.414920	0.418915	0.548626
O12	O	1.748253	0.752248	0.881959
O13	O	1.096744	-0.085571	-0.005048
O14	O	1.430078	0.247762	0.328285
O15	O	1.763411	0.581096	0.661618
O16	O	0.954896	-0.085561	0.110952
O17	O	1.288229	0.247772	0.444286
O18	O	1.621563	0.581106	0.777619
O19	O	1.223420	-0.085563	0.099285
O20	O	1.556753	0.247771	0.432619
O21	O	1.890087	0.581104	0.765952
Cu22	Cu	1.089157	-0.101188	0.105118
Cu23	Cu	1.422490	0.232146	0.438452
Cu24	Cu	1.755823	0.565479	0.771785
Cu25	Cu	1.089174	0.101198	0.105126
Cu26	Cu	1.422507	0.434531	0.438459
Cu27	Cu	1.755841	0.767865	0.771792
O28	O	1.081572	-0.085553	0.215286
O29	O	1.414905	0.247781	0.548619
O30	O	1.748238	0.581114	0.881952
C31	C	0.920546	0.000006	0.110409
C32	C	1.253880	0.333340	0.443742
C33	C	1.587213	0.666673	0.777075
C34	C	0.818173	0.000007	0.108771
C35	C	1.151506	0.333340	0.442104
C36	C	1.484840	0.666673	0.775437
C37	C	0.735035	0.000011	0.107440
C38	C	1.068368	0.333344	0.440773
C39	C	1.401701	0.666677	0.774106
C40	C	0.630733	0.000011	0.105776
C41	C	0.964066	0.333344	0.439110
C42	C	1.297400	0.666678	0.772443
C43	C	0.547599	0.000011	0.104456
C44	C	0.880933	0.333344	0.437790
C45	C	1.214266	0.666677	0.771123
C46	C	0.443291	0.000013	0.102793
C47	C	0.776624	0.333346	0.436127
C48	C	1.109958	0.666680	0.769460
N49	N	1.089151	-0.243535	0.105112
N50	N	1.422484	0.089799	0.438446
N51	N	1.755818	0.423132	0.771779
C52	C	1.089173	-0.663349	0.105127
C53	C	1.422506	-0.330016	0.438460
C54	C	1.755839	0.003318	0.771793
C55	C	1.089164	-0.546544	0.105125
C56	C	1.422497	-0.213211	0.438459
C57	C	1.755831	0.120123	0.771792
C58	C	1.089162	-0.453446	0.105120
C59	C	1.422496	-0.120112	0.438453
C60	C	1.755829	0.213221	0.771787
C61	C	1.089153	-0.336633	0.105117
C62	C	1.422486	-0.003300	0.438451
C63	C	1.755819	0.330034	0.771784
C64	C	1.257784	0.000006	0.099835
C65	C	1.591118	0.333340	0.433169
C66	C	1.924451	0.666673	0.766502
C67	C	1.360158	0.000013	0.101473
C68	C	1.693491	0.333346	0.434807
C69	C	2.026824	0.666679	0.768140
C70	C	1.096208	-0.000004	-0.033244
C71	C	1.429541	0.333329	0.300090
C72	C	1.762875	0.666663	0.633423
C73	C	1.094577	-0.000005	-0.117266
C74	C	1.427910	0.333329	0.216067
C75	C	1.761244	0.666662	0.549400
N76	N	1.089187	0.243545	0.105126
N77	N	1.422520	0.576878	0.438459
N78	N	1.755854	0.910212	0.771792
C79	C	1.177839	-0.000007	-0.165644
C80	C	1.511172	0.333327	0.167690
C81	C	1.844506	0.666660	0.501023
C82	C	1.176301	0.000003	-0.244592
C83	C	1.509634	0.333336	0.088742
C84	C	1.842968	0.666669	0.422075
C85	C	1.091500	0.000006	-0.275161
C86	C	1.424833	0.333340	0.058173
C87	C	1.758167	0.666673	0.391506
C88	C	1.008232	0.000011	-0.226777
C89	C	1.341565	0.333345	0.106556
C90	C	1.674898	0.666678	0.439890
C91	C	1.009771	0.000010	-0.147831
C92	C	1.343104	0.333343	0.185503
C93	C	1.676437	0.666676	0.518836
C94	C	1.002023	0.000020	-0.545158
C95	C	1.335357	0.333353	-0.211825
C96	C	1.668690	0.666687	0.121509
C97	C	1.000491	0.000019	-0.624111
C98	C	1.333824	0.333352	-0.290777
C99	C	1.667157	0.666685	0.042556
C100	C	1.168554	0.000013	-0.641919
C101	C	1.501887	0.333346	-0.308586
C102	C	1.835220	0.666679	0.024748
C103	C	1.170093	0.000011	-0.562973
C104	C	1.503426	0.333344	-0.229640
C105	C	1.836759	0.666678	0.103694
C106	C	1.086825	0.000022	-0.514596
C107	C	1.420158	0.333355	-0.181263
C108	C	1.753491	0.666688	0.152070
C109	C	1.088493	0.000014	-0.428992
C110	C	1.421827	0.333347	-0.095659
C111	C	1.755160	0.666680	0.237675
C112	C	1.089830	0.000007	-0.360763
C113	C	1.423164	0.333340	-0.027430
C114	C	1.756497	0.666674	0.305904
C115	C	1.082123	0.000017	0.243488
C116	C	1.415456	0.333350	0.576821
C117	C	1.748789	0.666683	0.910154
C118	C	1.083754	0.000024	0.327510
C119	C	1.417087	0.333357	0.660844
C120	C	1.750420	0.666691	0.994177
H121	H	1.246894	-0.000016	-0.140761
H122	H	1.580227	0.333317	0.192572
H123	H	1.913561	0.666651	0.525905
H124	H	0.939185	0.000021	-0.251672
H125	H	1.272518	0.333354	0.081661
H126	H	1.605852	0.666688	0.414994
O127	O	1.257267	-0.000052	-0.291477
O128	O	1.590600	0.333281	0.041856
O129	O	1.923934	0.666615	0.375190
C130	C	1.332444	-0.000039	-0.247567
C131	C	1.665777	0.333294	0.085766
C132	C	1.999110	0.666628	0.419099
H133	H	1.308897	-0.032438	-0.188684
H134	H	1.642231	0.300896	0.144650
H135	H	1.975564	0.634229	0.477983
H136	H	1.358461	0.082059	-0.241902
H137	H	1.691794	0.415392	0.091432
H138	H	2.025128	0.748725	0.424765
C139	C	1.440144	-0.027369	-0.359120
C140	C	1.773478	0.305965	-0.025787
C141	C	2.106811	0.639298	0.307546
C142	C	1.411226	-0.067169	-0.286800
C143	C	1.744560	0.266164	0.046533
C144	C	2.077893	0.599497	0.379866
H145	H	1.488744	-0.068773	-0.383322
H146	H	1.822077	0.264560	-0.049988
H147	H	2.155410	0.597893	0.283345
H148	H	1.389497	-0.027374	-0.388704
H149	H	1.722831	0.305960	-0.055371
H150	H	2.056164	0.639293	0.277963
H151	H	1.461819	0.041045	-0.354389
H152	H	1.795153	0.374379	-0.021055
H153	H	2.128486	0.707712	0.312278
H154	H	1.389542	-0.135577	-0.291533
H155	H	1.722875	0.197757	0.041800
H156	H	2.056208	0.531090	0.375133
H157	H	1.461872	-0.067177	-0.257218
H158	H	1.795205	0.266156	0.076115
H159	H	2.128539	0.599489	0.409448
H160	H	0.931431	0.000020	-0.648996
H161	H	1.264765	0.333353	-0.315663
H162	H	1.598098	0.666686	0.017671
H163	H	0.941970	0.000012	-0.108442
H164	H	1.275303	0.333345	0.224891
H165	H	1.608637	0.666678	0.558225
H166	H	1.239146	0.000003	-0.538088
H167	H	1.572480	0.333336	-0.204755
H168	H	1.905813	0.666670	0.128578
O169	O	1.249358	0.000060	-0.689022
O170	O	1.582691	0.333393	-0.355689
O171	O	1.916025	0.666727	-0.022355
C172	C	1.229823	0.000041	-0.765258
C173	C	1.563156	0.333375	-0.431925
C174	C	1.896490	0.666708	-0.098591
H175	H	1.157398	0.032446	-0.768385
H176	H	1.490731	0.365779	-0.435052
H177	H	1.824065	0.699112	-0.101718
H178	H	1.233361	-0.082059	-0.788093
H179	H	1.566694	0.251274	-0.454760
H180	H	1.900027	0.584608	-0.121427
C181	C	1.390493	0.027353	-0.809622
C182	C	1.723826	0.360687	-0.476289
C183	C	2.057160	0.694020	-0.142955
C184	C	1.301542	0.067161	-0.813464
C185	C	1.634875	0.400494	-0.480130
C186	C	1.968209	0.733827	-0.146797
H187	H	1.434734	0.068751	-0.839359
H188	H	1.768068	0.402085	-0.506026
H189	H	2.101401	0.735418	-0.172693
H190	H	1.403655	0.027362	-0.758261
H191	H	1.736989	0.360695	-0.424927
H192	H	2.070322	0.694029	-0.091594
H193	H	1.393428	-0.041063	-0.828650
H194	H	1.726761	0.292270	-0.495317
H195	H	2.060095	0.625604	-0.161984
H196	H	1.298605	0.135570	-0.794427
H197	H	1.631938	0.468904	-0.461094
H198	H	1.965272	0.802237	-0.127760
H199	H	1.288381	0.067165	-0.864823
H200	H	1.621714	0.400498	-0.531490
H201	H	1.955048	0.733832	-0.198157
H202	H	0.934221	0.000028	-0.505779
H203	H	1.267554	0.333361	-0.172446
H204	H	1.600888	0.666695	0.160888
