data_functionalizedCrystal
_audit_creation_method	'MofGen! by Chris Wilmer'
_symmetry_space_group_name_H-M	'P1'
_symmetry_Int_Tables_number	1
_symmetry_cell_setting	triclinic
loop_
_symmetry_equiv_pos_as_xyz
  x,y,z
_cell_length_a	27.732048
_cell_length_b	27.732048
_cell_length_c	13.448316
_cell_angle_alpha	89.988441
_cell_angle_beta	89.998727
_cell_angle_gamma	82.642655
loop_
_atom_site_label
_atom_site_type_symbol
_atom_site_fract_x
_atom_site_fract_y
_atom_site_fract_z
O1	O	0.640929	0.057518	-0.082574
O2	O	0.890929	0.307518	0.167426
O3	O	1.140929	0.557518	0.417426
O4	O	1.390929	0.807518	0.667426
O5	O	0.500135	0.066264	-0.082606
O6	O	0.750135	0.316264	0.167394
O7	O	1.000135	0.566264	0.417394
O8	O	1.250135	0.816264	0.667394
O9	O	0.574905	-0.008506	-0.082570
O10	O	0.824905	0.241494	0.167430
O11	O	1.074905	0.491494	0.417430
O12	O	1.324905	0.741494	0.667430
O13	O	0.566159	0.132288	-0.082610
O14	O	0.816159	0.382288	0.167390
O15	O	1.066159	0.632288	0.417390
O16	O	1.316159	0.882288	0.667390
O17	O	0.574895	-0.008510	0.082814
O18	O	0.824895	0.241490	0.332814
O19	O	1.074895	0.491490	0.582814
O20	O	1.324895	0.741490	0.832814
O21	O	0.500126	0.066259	0.082778
O22	O	0.750126	0.316259	0.332778
O23	O	1.000126	0.566259	0.582778
O24	O	1.250126	0.816259	0.832778
O25	O	0.640919	0.057514	0.082810
O26	O	0.890919	0.307514	0.332810
O27	O	1.140919	0.557514	0.582810
O28	O	1.390919	0.807514	0.832810
Cu29	Cu	0.570522	0.061886	0.097895
Cu30	Cu	0.820522	0.311886	0.347895
Cu31	Cu	1.070522	0.561886	0.597895
Cu32	Cu	1.320522	0.811886	0.847895
Cu33	Cu	0.570533	0.061891	-0.097691
Cu34	Cu	0.820533	0.311891	0.152309
Cu35	Cu	1.070533	0.561891	0.402309
Cu36	Cu	1.320533	0.811891	0.652309
O37	O	0.566150	0.132283	0.082774
O38	O	0.816150	0.382283	0.332774
O39	O	1.066150	0.632283	0.582774
O40	O	1.316150	0.882283	0.832774
C41	C	0.482124	0.066078	0.000082
C42	C	0.732124	0.316078	0.250082
C43	C	0.982124	0.566078	0.500082
C44	C	1.232124	0.816078	0.750082
C45	C	0.428469	0.065525	0.000071
C46	C	0.678469	0.315525	0.250071
C47	C	0.928469	0.565525	0.500071
C48	C	1.178469	0.815525	0.750071
C49	C	0.089654	0.106229	0.000103
C50	C	0.339654	0.356229	0.250103
C51	C	0.589654	0.606229	0.500103
C52	C	0.839654	0.856229	0.750103
C53	C	-0.112006	0.104178	0.000112
C54	C	0.137994	0.354178	0.250112
C55	C	0.387994	0.604178	0.500112
C56	C	0.637994	0.854178	0.750112
O57	O	-0.143262	0.141398	0.000145
O58	O	0.106738	0.391398	0.250145
O59	O	0.356738	0.641398	0.500145
O60	O	0.606738	0.891398	0.750145
N61	N	-0.131130	0.059843	0.000123
N62	N	0.118870	0.309843	0.250123
N63	N	0.368870	0.559843	0.500123
N64	N	0.618870	0.809843	0.750123
C65	C	-0.099835	0.016017	0.000138
C66	C	0.150165	0.266017	0.250138
C67	C	0.400165	0.516017	0.500138
C68	C	0.650165	0.766017	0.750138
O69	O	-0.120728	-0.021740	0.000157
O70	O	0.129272	0.228260	0.250157
O71	O	0.379272	0.478260	0.500157
O72	O	0.629272	0.728260	0.750157
C73	C	0.101824	0.018068	0.000135
C74	C	0.351824	0.268068	0.250135
C75	C	0.601824	0.518068	0.500135
C76	C	0.851824	0.768068	0.750135
C77	C	0.120944	0.062407	0.000115
C78	C	0.370944	0.312407	0.250115
C79	C	0.620944	0.562407	0.500115
C80	C	0.870944	0.812407	0.750115
C81	C	0.108775	0.150563	0.000083
C82	C	0.358775	0.400563	0.250083
C83	C	0.608775	0.650563	0.500083
C84	C	0.858775	0.900563	0.750083
C85	C	0.159187	0.151075	0.000075
C86	C	0.409187	0.401075	0.250075
C87	C	0.659187	0.651075	0.500075
C88	C	0.909187	0.901075	0.750075
C89	C	0.190477	0.107253	0.000087
C90	C	0.440477	0.357253	0.250087
C91	C	0.690477	0.607253	0.500087
C92	C	0.940477	0.857253	0.750087
C93	C	0.171356	0.062919	0.000107
C94	C	0.421356	0.312919	0.250107
C95	C	0.671356	0.562919	0.500107
C96	C	0.921356	0.812919	0.750107
C97	C	0.133117	-0.025757	0.000157
C98	C	0.383117	0.224243	0.250157
C99	C	0.633117	0.474243	0.500157
C100	C	0.883117	0.724243	0.750157
C101	C	0.183535	-0.025240	0.000159
C102	C	0.433535	0.224760	0.250159
C103	C	0.683535	0.474760	0.500159
C104	C	0.933535	0.724760	0.750159
C105	C	0.202655	0.019098	0.000139
C106	C	0.452655	0.269098	0.250139
C107	C	0.702655	0.519098	0.500139
C108	C	0.952655	0.769098	0.750139
C109	C	0.253059	0.019609	0.000111
C110	C	0.503059	0.269609	0.250111
C111	C	0.753059	0.519609	0.500111
C112	C	1.003059	0.769609	0.750111
N113	N	0.272183	0.063944	0.000100
N114	N	0.522183	0.313944	0.250100
N115	N	0.772183	0.563944	0.500100
N116	N	1.022183	0.813944	0.750100
C117	C	0.240892	0.107766	0.000088
C118	C	0.490892	0.357766	0.250088
C119	C	0.740892	0.607766	0.500088
C120	C	0.990892	0.857766	0.750088
C121	C	-0.205709	0.014943	0.000137
C122	C	0.044291	0.264943	0.250137
C123	C	0.294291	0.514943	0.500137
C124	C	0.544291	0.764943	0.750137
C125	C	-0.256124	0.014430	0.000136
C126	C	-0.006124	0.264430	0.250136
C127	C	0.243876	0.514430	0.500136
C128	C	0.493876	0.764430	0.750136
C129	C	-0.268291	0.102591	0.000112
C130	C	-0.018291	0.352591	0.250112
C131	C	0.231709	0.602591	0.500112
C132	C	0.481709	0.852591	0.750112
C133	C	-0.217876	0.103104	0.000106
C134	C	0.032124	0.353104	0.250106
C135	C	0.282124	0.603104	0.500106
C136	C	0.532124	0.853104	0.750106
C137	C	-0.186585	0.059278	0.000126
C138	C	0.063415	0.309278	0.250126
C139	C	0.313415	0.559278	0.500126
C140	C	0.563415	0.809278	0.750126
C141	C	0.346761	0.108839	0.000071
C142	C	0.596761	0.358839	0.250071
C143	C	0.846761	0.608839	0.500071
C144	C	1.096761	0.858839	0.750071
C145	C	0.397178	0.109347	0.000059
C146	C	0.647178	0.359347	0.250059
C147	C	0.897178	0.609347	0.500059
C148	C	1.147178	0.859347	0.750059
C149	C	0.409341	0.021186	0.000088
C150	C	0.659341	0.271186	0.250088
C151	C	0.909341	0.521186	0.500088
C152	C	1.159341	0.771186	0.750088
C153	C	0.358929	0.020678	0.000095
C154	C	0.608929	0.270678	0.250095
C155	C	0.858929	0.520678	0.500095
C156	C	1.108929	0.770678	0.750095
C157	C	0.327639	0.064508	0.000090
C158	C	0.577639	0.314508	0.250090
C159	C	0.827639	0.564508	0.500090
C160	C	1.077639	0.814508	0.750090
O161	O	0.284343	-0.017592	0.000090
O162	O	0.534343	0.232408	0.250090
O163	O	0.784343	0.482408	0.500090
O164	O	1.034343	0.732408	0.750090
O165	O	0.261794	0.145518	0.000091
O166	O	0.511794	0.395518	0.250091
O167	O	0.761794	0.645518	0.500091
O168	O	1.011794	0.895518	0.750091
C169	C	0.039242	0.105716	0.000110
C170	C	0.289242	0.355716	0.250110
C171	C	0.539242	0.605716	0.500110
C172	C	0.789242	0.855716	0.750110
C173	C	0.020120	0.061382	0.000130
C174	C	0.270120	0.311382	0.250130
C175	C	0.520120	0.561382	0.500130
C176	C	0.770120	0.811382	0.750130
C177	C	0.051411	0.017560	0.000142
C178	C	0.301411	0.267560	0.250142
C179	C	0.551411	0.517560	0.500142
C180	C	0.801411	0.767560	0.750142
C181	C	-0.030294	0.060869	0.000129
C182	C	0.219706	0.310869	0.250129
C183	C	0.469706	0.560869	0.500129
C184	C	0.719706	0.810869	0.750129
C185	C	-0.061585	0.104691	0.000117
C186	C	0.188415	0.354691	0.250117
C187	C	0.438415	0.604691	0.500117
C188	C	0.688415	0.854691	0.750117
C189	C	-0.042461	0.149026	0.000106
C190	C	0.207539	0.399026	0.250106
C191	C	0.457539	0.649026	0.500106
C192	C	0.707539	0.899026	0.750106
C193	C	0.007951	0.149539	0.000098
C194	C	0.257951	0.399539	0.250098
C195	C	0.507951	0.649539	0.500098
C196	C	0.757951	0.899539	0.750098
C197	C	0.032287	-0.026775	0.000153
C198	C	0.282287	0.223225	0.250153
C199	C	0.532287	0.473225	0.500153
C200	C	0.782287	0.723225	0.750153
C201	C	-0.018125	-0.027284	0.000159
C202	C	0.231875	0.222716	0.250159
C203	C	0.481875	0.472716	0.500159
C204	C	0.731875	0.722716	0.750159
C205	C	-0.049416	0.016538	0.000148
C206	C	0.200584	0.266538	0.250148
C207	C	0.450584	0.516538	0.500148
C208	C	0.700584	0.766538	0.750148
C209	C	0.574716	-0.026515	0.000124
C210	C	0.824716	0.223485	0.250124
C211	C	1.074716	0.473485	0.500124
C212	C	1.324716	0.723485	0.750124
C213	C	0.574164	-0.080170	0.000132
C214	C	0.824164	0.169830	0.250132
C215	C	1.074164	0.419830	0.500132
C216	C	1.324164	0.669830	0.750132
C217	C	0.614867	-0.418985	0.000091
C218	C	0.864867	-0.168985	0.250091
C219	C	1.114867	0.081015	0.500091
C220	C	1.364867	0.331015	0.750091
C221	C	0.612816	-0.620645	0.000076
C222	C	0.862816	-0.370645	0.250076
C223	C	1.112816	-0.120645	0.500076
C224	C	1.362816	0.129355	0.750076
O225	O	0.650037	-0.651900	0.000041
O226	O	0.900037	-0.401900	0.250041
O227	O	1.150037	-0.151900	0.500041
O228	O	1.400037	0.098100	0.750041
N229	N	0.568481	-0.639768	0.000067
N230	N	0.818481	-0.389768	0.250067
N231	N	1.068481	-0.139768	0.500067
N232	N	1.318481	0.110232	0.750067
C233	C	0.524656	-0.608474	0.000055
C234	C	0.774656	-0.358474	0.250055
C235	C	1.024656	-0.108474	0.500055
C236	C	1.274656	0.141526	0.750055
O237	O	0.486899	-0.629367	0.000037
O238	O	0.736899	-0.379367	0.250037
O239	O	0.986899	-0.129367	0.500037
O240	O	1.236899	0.120633	0.750037
C241	C	0.526707	-0.406815	0.000062
C242	C	0.776707	-0.156815	0.250062
C243	C	1.026707	0.093185	0.500062
C244	C	1.276707	0.343185	0.750062
C245	C	0.571045	-0.387694	0.000082
C246	C	0.821045	-0.137694	0.250082
C247	C	1.071045	0.112306	0.500082
C248	C	1.321045	0.362306	0.750082
C249	C	0.659202	-0.399864	0.000109
C250	C	0.909202	-0.149864	0.250109
C251	C	1.159202	0.100136	0.500109
C252	C	1.409202	0.350136	0.750109
C253	C	0.659714	-0.349452	0.000118
C254	C	0.909714	-0.099452	0.250118
C255	C	1.159714	0.150548	0.500118
C256	C	1.409714	0.400548	0.750118
C257	C	0.615892	-0.318161	0.000109
C258	C	0.865892	-0.068161	0.250109
C259	C	1.115892	0.181839	0.500109
C260	C	1.365892	0.431839	0.750109
C261	C	0.571557	-0.337282	0.000091
C262	C	0.821557	-0.087282	0.250091
C263	C	1.071557	0.162718	0.500091
C264	C	1.321557	0.412718	0.750091
C265	C	0.482882	-0.375521	0.000043
C266	C	0.732882	-0.125521	0.250043
C267	C	0.982882	0.124479	0.500043
C268	C	1.232882	0.374479	0.750043
C269	C	0.483399	-0.325104	0.000043
C270	C	0.733399	-0.075104	0.250043
C271	C	0.983399	0.174896	0.500043
C272	C	1.233399	0.424896	0.750043
C273	C	0.527737	-0.305983	0.000062
C274	C	0.777737	-0.055983	0.250062
C275	C	1.027737	0.194017	0.500062
C276	C	1.277737	0.444017	0.750062
C277	C	0.528247	-0.255580	0.000091
C278	C	0.778247	-0.005580	0.250091
C279	C	1.028247	0.244420	0.500091
C280	C	1.278247	0.494420	0.750091
N281	N	0.572583	-0.236456	0.000100
N282	N	0.822583	0.013544	0.250100
N283	N	1.072583	0.263544	0.500100
N284	N	1.322583	0.513544	0.750100
C285	C	0.616405	-0.267747	0.000109
C286	C	0.866405	-0.017747	0.250109
C287	C	1.116405	0.232253	0.500109
C288	C	1.366405	0.482253	0.750109
C289	C	0.523582	-0.714348	0.000053
C290	C	0.773582	-0.464348	0.250053
C291	C	1.023582	-0.214348	0.500053
C292	C	1.273582	0.035652	0.750053
C293	C	0.523069	-0.764762	0.000053
C294	C	0.773069	-0.514762	0.250053
C295	C	1.023069	-0.264762	0.500053
C296	C	1.273069	-0.014762	0.750053
C297	C	0.611230	-0.776930	0.000073
C298	C	0.861230	-0.526930	0.250073
C299	C	1.111230	-0.276930	0.500073
C300	C	1.361230	-0.026930	0.750073
C301	C	0.611742	-0.726514	0.000080
C302	C	0.861742	-0.476514	0.250080
C303	C	1.111742	-0.226514	0.500080
C304	C	1.361742	0.023486	0.750080
C305	C	0.567917	-0.695224	0.000062
C306	C	0.817917	-0.445224	0.250062
C307	C	1.067917	-0.195224	0.500062
C308	C	1.317917	0.054776	0.750062
C309	C	0.617477	-0.161878	0.000128
C310	C	0.867477	0.088122	0.250128
C311	C	1.117477	0.338122	0.500128
C312	C	1.367477	0.588122	0.750128
C313	C	0.617986	-0.111461	0.000141
C314	C	0.867986	0.138539	0.250141
C315	C	1.117986	0.388539	0.500141
C316	C	1.367986	0.638539	0.750141
C317	C	0.529825	-0.099298	0.000117
C318	C	0.779825	0.150702	0.250117
C319	C	1.029825	0.400702	0.500117
C320	C	1.279825	0.650702	0.750117
C321	C	0.529316	-0.149710	0.000109
C322	C	0.779316	0.100290	0.250109
C323	C	1.029316	0.350290	0.500109
C324	C	1.279316	0.600290	0.750109
C325	C	0.573147	-0.180999	0.000111
C326	C	0.823147	0.069001	0.250111
C327	C	1.073147	0.319001	0.500111
C328	C	1.323147	0.569001	0.750111
O329	O	0.491047	-0.224296	0.000115
O330	O	0.741047	0.025704	0.250115
O331	O	0.991047	0.275704	0.500115
O332	O	1.241047	0.525704	0.750115
O333	O	0.654156	-0.246844	0.000105
O334	O	0.904156	0.003156	0.250105
O335	O	1.154156	0.253156	0.500105
O336	O	1.404156	0.503156	0.750105
C337	C	0.614355	-0.469397	0.000082
C338	C	0.864355	-0.219397	0.250082
C339	C	1.114355	0.030603	0.500082
C340	C	1.364355	0.280603	0.750082
C341	C	0.570021	-0.488518	0.000064
C342	C	0.820021	-0.238518	0.250064
C343	C	1.070021	0.011482	0.500064
C344	C	1.320021	0.261482	0.750064
C345	C	0.526198	-0.457228	0.000055
C346	C	0.776198	-0.207228	0.250055
C347	C	1.026198	0.042772	0.500055
C348	C	1.276198	0.292772	0.750055
C349	C	0.569508	-0.538933	0.000064
C350	C	0.819508	-0.288933	0.250064
C351	C	1.069508	-0.038933	0.500064
C352	C	1.319508	0.211067	0.750064
C353	C	0.613330	-0.570223	0.000073
C354	C	0.863330	-0.320223	0.250073
C355	C	1.113330	-0.070223	0.500073
C356	C	1.363330	0.179777	0.750073
C357	C	0.657665	-0.551100	0.000082
C358	C	0.907665	-0.301100	0.250082
C359	C	1.157665	-0.051100	0.500082
C360	C	1.407665	0.198900	0.750082
C361	C	0.658177	-0.500688	0.000091
C362	C	0.908177	-0.250688	0.250091
C363	C	1.158177	-0.000688	0.500091
C364	C	1.408177	0.249312	0.750091
C365	C	0.481863	-0.476351	0.000046
C366	C	0.731863	-0.226351	0.250046
C367	C	0.981863	0.023649	0.500046
C368	C	1.231863	0.273649	0.750046
C369	C	0.481355	-0.526764	0.000038
C370	C	0.731355	-0.276764	0.250038
C371	C	0.981355	-0.026764	0.500038
C372	C	1.231355	0.223236	0.750038
C373	C	0.525177	-0.558054	0.000047
C374	C	0.775177	-0.308054	0.250047
C375	C	1.025177	-0.058054	0.500047
C376	C	1.275177	0.191946	0.750047
C377	C	0.658931	0.057699	0.000119
C378	C	0.908931	0.307699	0.250119
C379	C	1.158931	0.557699	0.500119
C380	C	1.408931	0.807699	0.750119
C381	C	0.712586	0.058252	0.000124
C382	C	0.962586	0.308252	0.250124
C383	C	1.212586	0.558252	0.500124
C384	C	1.462586	0.808252	0.750124
C385	C	0.566338	0.150292	0.000077
C386	C	0.816338	0.400292	0.250077
C387	C	1.066338	0.650292	0.500077
C388	C	1.316338	0.900292	0.750077
C389	C	0.566891	0.203947	0.000062
C390	C	0.816891	0.453947	0.250062
C391	C	1.066891	0.703947	0.500062
C392	C	1.316891	0.953947	0.750062
N393	N	0.570518	0.061882	0.235459
N394	N	0.820518	0.311882	0.485459
N395	N	1.070518	0.561882	0.735459
N396	N	1.320518	0.811882	0.985459
N397	N	0.570541	0.061891	-0.235255
N398	N	0.820541	0.311891	0.014745
N399	N	1.070541	0.561891	0.264745
N400	N	1.320541	0.811891	0.514745
C401	C	0.603636	0.028787	0.287515
C402	C	0.853636	0.278787	0.537515
C403	C	1.103636	0.528787	0.787515
C404	C	1.353636	0.778787	1.037515
C405	C	0.603639	0.028787	0.391618
C406	C	0.853639	0.278787	0.641618
C407	C	1.103639	0.528787	0.891618
C408	C	1.353639	0.778787	1.141618
C409	C	0.570525	0.061884	0.443663
C410	C	0.820525	0.311884	0.693663
C411	C	1.070525	0.561884	0.943663
C412	C	1.320525	0.811884	1.193663
C413	C	0.537404	0.094980	0.391600
C414	C	0.787404	0.344980	0.641600
C415	C	1.037404	0.594980	0.891600
C416	C	1.287404	0.844980	1.141600
C417	C	0.537399	0.094978	0.287499
C418	C	0.787399	0.344978	0.537499
C419	C	1.037399	0.594978	0.787499
C420	C	1.287399	0.844978	1.037499
C421	C	0.537417	0.094983	0.608580
C422	C	0.787417	0.344983	0.858580
C423	C	1.037417	0.594983	1.108580
C424	C	1.287417	0.844983	1.358580
C425	C	0.537423	0.094986	0.712689
C426	C	0.787423	0.344986	0.962689
C427	C	1.037423	0.594986	1.212689
C428	C	1.287423	0.844986	1.462689
C429	C	0.603657	0.028792	0.712700
C430	C	0.853657	0.278792	0.962700
C431	C	1.103657	0.528792	1.212700
C432	C	1.353657	0.778792	1.462700
C433	C	0.603652	0.028790	0.608598
C434	C	0.853652	0.278790	0.858598
C435	C	1.103652	0.528790	1.108598
C436	C	1.353652	0.778790	1.358598
C437	C	0.570531	0.061887	0.556542
C438	C	0.820531	0.311887	0.806542
C439	C	1.070531	0.561887	1.056542
C440	C	1.320531	0.811887	1.306542
H441	H	0.174750	0.187180	0.000058
H442	H	0.424750	0.437180	0.250058
H443	H	0.674750	0.687180	0.500058
H444	H	0.924750	0.937180	0.750058
F445	F	0.417524	0.156540	0.000034
F446	F	0.667524	0.406540	0.250034
F447	F	0.917524	0.656540	0.500034
F448	F	1.167524	0.906540	0.750034
H449	H	0.510458	0.121936	0.755059
H450	H	0.760458	0.371936	1.005059
H451	H	1.010458	0.621936	1.255059
H452	H	1.260458	0.871936	1.505059
F453	F	0.657869	-0.810240	0.000080
F454	F	0.907869	-0.560240	0.250080
F455	F	1.157869	-0.310240	0.500080
F456	F	1.407869	-0.060240	0.750080
F457	F	0.705848	-0.433159	0.000117
F458	F	0.955848	-0.183159	0.250117
F459	F	1.205848	0.066841	0.500117
F460	F	1.455848	0.316841	0.750117
H461	H	0.630602	0.001838	0.245147
H462	H	0.880602	0.251838	0.495147
H463	H	1.130602	0.501838	0.745147
H464	H	1.380602	0.751838	0.995147
F465	F	0.502164	0.130208	0.553182
F466	F	0.752164	0.380208	0.803182
F467	F	1.002164	0.630208	1.053182
F468	F	1.252164	0.880208	1.303182
H469	H	0.486964	-0.780325	0.000055
H470	H	0.736964	-0.530325	0.250055
H471	H	0.986964	-0.280325	0.500055
H472	H	1.236964	-0.030325	0.750055
F473	F	-0.172413	-0.031705	0.000158
F474	F	0.077587	0.218295	0.250158
F475	F	0.327587	0.468295	0.500158
F476	F	0.577587	0.718295	0.750158
F477	F	0.502149	0.130200	0.232098
F478	F	0.752149	0.380200	0.482098
F479	F	1.002149	0.630200	0.732098
F480	F	1.252149	0.880200	0.982098
H481	H	0.209009	-0.060929	0.000177
H482	H	0.459009	0.189071	0.250177
H483	H	0.709009	0.439071	0.500177
H484	H	0.959009	0.689071	0.750177
F485	F	0.313468	0.155488	0.000066
F486	F	0.563468	0.405488	0.250066
F487	F	0.813468	0.655488	0.500066
F488	F	1.063468	0.905488	0.750066
F489	F	0.706905	-0.329109	0.000116
F490	F	0.956905	-0.079109	0.250116
F491	F	1.206905	0.170891	0.500116
F492	F	1.456905	0.420891	0.750116
F493	F	0.704304	-0.584410	0.000096
F494	F	0.954304	-0.334410	0.250096
F495	F	1.204304	-0.084410	0.500096
F496	F	1.454304	0.165590	0.750096
H497	H	0.083302	0.186251	0.000077
H498	H	0.333302	0.436251	0.250077
H499	H	0.583302	0.686251	0.500077
H500	H	0.833302	0.936251	0.750077
F501	F	0.476933	-0.681052	0.000035
F502	F	0.726933	-0.431052	0.250035
F503	F	0.976933	-0.181052	0.500035
F504	F	1.226933	0.068948	0.750035
H505	H	-0.202311	0.139207	0.000095
H506	H	0.047689	0.389207	0.250095
H507	H	0.297689	0.639207	0.500095
H508	H	0.547689	0.889207	0.750095
F509	F	-0.301601	0.149230	0.000100
F510	F	-0.051601	0.399230	0.250100
F511	F	0.198399	0.649230	0.500100
F512	F	0.448399	0.899230	0.750100
H513	H	0.447710	-0.299629	0.000027
H514	H	0.697710	-0.049629	0.250027
H515	H	0.947710	0.200371	0.500027
H516	H	1.197710	0.450371	0.750027
F517	F	-0.276468	-0.032761	0.000136
F518	F	-0.026468	0.217239	0.250136
F519	F	0.223532	0.467239	0.500136
F520	F	0.473532	0.717239	0.750136
H521	H	0.446777	-0.391080	0.000022
H522	H	0.696777	-0.141080	0.250022
H523	H	0.946777	0.108920	0.500022
H524	H	1.196777	0.358920	0.750022
F525	F	0.658932	-0.706169	0.000100
F526	F	0.908932	-0.456169	0.250100
F527	F	1.158932	-0.206169	0.500100
F528	F	1.408932	0.043831	0.750100
F529	F	0.112779	-0.072948	0.000166
F530	F	0.362779	0.177052	0.250166
F531	F	0.612779	0.427052	0.500166
F532	F	0.862779	0.677052	0.750166
F533	F	0.482127	-0.170060	0.000107
F534	F	0.732127	0.079940	0.250107
F535	F	0.982127	0.329940	0.500107
F536	F	1.232127	0.579940	0.750107
H537	H	-0.067947	0.184708	0.000092
H538	H	0.182053	0.434708	0.250092
H539	H	0.432053	0.684708	0.500092
H540	H	0.682053	0.934708	0.750092
F541	F	0.338578	-0.026511	0.000118
F542	F	0.588578	0.223489	0.250118
F543	F	0.838578	0.473489	0.500118
F544	F	1.088578	0.723489	0.750118
H545	H	0.494146	-0.073812	0.000113
H546	H	0.744146	0.176188	0.250113
H547	H	0.994146	0.426188	0.500113
H548	H	1.244146	0.676188	0.750113
H549	H	0.630617	0.001843	0.566223
H550	H	0.880617	0.251843	0.816223
H551	H	1.130617	0.501843	1.066223
H552	H	1.380617	0.751843	1.316223
H553	H	0.445246	-0.542327	0.000031
H554	H	0.695246	-0.292327	0.250031
H555	H	0.945246	-0.042327	0.500031
H556	H	1.195246	0.207673	0.750031
H557	H	0.434827	-0.014492	0.000094
H558	H	0.684827	0.235508	0.250094
H559	H	0.934827	0.485508	0.500094
H560	H	1.184827	0.735508	0.750094
F561	F	0.705368	-0.480345	0.000105
F562	F	0.955368	-0.230345	0.250105
F563	F	1.205368	0.019655	0.500105
F564	F	1.455368	0.269655	0.750105
F565	F	0.028294	0.196730	0.000076
F566	F	0.278294	0.446730	0.250076
F567	F	0.528294	0.696730	0.500076
F568	F	0.778294	0.946730	0.750076
H569	H	0.630605	0.001839	0.434002
H570	H	0.880605	0.251839	0.684002
H571	H	1.130605	0.501839	0.934002
H572	H	1.380605	0.751839	1.184002
F573	F	0.665178	-0.091114	0.000161
F574	F	0.915178	0.158886	0.250161
F575	F	1.165178	0.408886	0.500161
F576	F	1.415178	0.658886	0.750161
F577	F	0.638907	-0.006431	0.768106
F578	F	0.888907	0.243569	1.018106
F579	F	1.138907	0.493569	1.268106
F580	F	1.388907	0.743569	1.518106
F581	F	0.435219	-0.443055	0.000033
F582	F	0.685219	-0.193055	0.250033
F583	F	0.935219	0.056945	0.500033
F584	F	1.185219	0.306945	0.750033
H585	H	0.510440	0.121926	0.433981
H586	H	0.760440	0.371926	0.683981
H587	H	1.010440	0.621926	0.933981
H588	H	1.260440	0.871926	1.183981
H589	H	-0.033688	-0.063392	0.000169
H590	H	0.216312	0.186608	0.250169
H591	H	0.466312	0.436608	0.500169
H592	H	0.716312	0.686608	0.750169
H593	H	0.057760	-0.062462	0.000165
H594	H	0.307760	0.187538	0.250165
H595	H	0.557760	0.437538	0.500165
H596	H	0.807760	0.687538	0.750165
H597	H	0.653168	-0.187348	0.000126
H598	H	0.903168	0.062652	0.250126
H599	H	1.153168	0.312652	0.500126
H600	H	1.403168	0.562652	0.750126
