data_functionalizedCrystal
_audit_creation_method	'MofGen! by Chris Wilmer'
_symmetry_space_group_name_H-M	'P1'
_symmetry_Int_Tables_number	1
_symmetry_cell_setting	triclinic
loop_
_symmetry_equiv_pos_as_xyz
  x,y,z
_cell_length_a	10.685980
_cell_length_b	12.759400
_cell_length_c	12.759393
_cell_angle_alpha	89.969553
_cell_angle_beta	85.604534
_cell_angle_gamma	94.380016
loop_
_atom_site_label
_atom_site_type_symbol
_atom_site_fract_x
_atom_site_fract_y
_atom_site_fract_z
Zn1	Zn	1.929265	-0.295110	-0.717368
Zn2	Zn	1.929144	-0.470837	-0.541684
Zn3	Zn	1.718236	-0.308629	-0.528212
Zn4	Zn	1.718228	-0.484213	-0.703837
O5	O	1.823718	-0.389697	-0.622775
O6	O	2.105834	-0.307165	-0.705364
O7	O	1.901119	-0.449380	-0.392873
O8	O	1.746284	-0.159812	-0.553329
O9	O	2.105745	-0.436271	-0.576290
O10	O	1.901326	-0.149879	-0.692301
O11	O	1.746166	-0.330206	-0.382975
O12	O	1.541650	-0.343176	-0.540208
O13	O	1.746270	-0.459068	-0.852656
O14	O	1.541645	-0.472177	-0.669239
O15	O	1.901318	-0.320135	-0.862597
O16	O	1.901111	-0.619636	-0.563169
O17	O	1.746153	-0.629463	-0.682303
C18	C	1.495861	-0.410596	-0.601794
C19	C	1.355602	-0.419561	-0.592843
C20	C	1.823652	-0.662669	-0.622755
C21	C	1.823739	-0.779440	-0.622788
C22	C	1.904429	-0.829053	-0.695203
C23	C	1.904488	-0.938773	-0.695233
C24	C	1.743163	-0.949258	-0.550422
C25	C	1.743099	-0.839540	-0.550399
C26	C	1.985069	-0.768953	-0.767593
C27	C	2.065767	-0.818566	-0.840013
C28	C	2.065825	-0.928286	-0.840043
C29	C	1.985187	-0.988394	-0.767652
C30	C	2.152856	-0.368718	-0.643839
C31	C	2.293115	-0.359778	-0.652815
C32	C	1.823807	-0.389586	-0.896815
C33	C	1.823844	-0.389538	-1.013594
C34	C	1.823819	-0.115658	-0.622822
C35	C	1.823862	0.001122	-0.622841
C36	C	1.904589	-0.317189	-1.073634
C37	C	1.904619	-0.317149	-1.183361
C38	C	1.743156	-0.461817	-1.172995
C39	C	1.743121	-0.461851	-1.063271
C40	C	1.985312	-0.244876	-1.023958
C41	C	2.066064	-0.172521	-1.083999
C42	C	2.066094	-0.172481	-1.193725
C43	C	1.985372	-0.244796	-1.243410
C44	C	1.823703	-0.389728	-0.349807
C45	C	1.823910	-0.389464	-0.233044
H46	H	1.301792	-0.477607	-0.534642
H47	H	1.346919	-0.301730	-0.711006
O48	O	1.664877	-0.532173	-1.004826
C49	C	1.647850	-0.675166	-0.879848
C50	C	1.736601	-0.595570	-0.945968
H51	H	1.705804	-0.726458	-0.832261
H52	H	1.581898	-0.631202	-0.824195
H53	H	1.590134	-0.726813	-0.934205
H54	H	1.794399	-0.543902	-0.891692
H55	H	1.802470	-0.639600	-1.001631
H56	H	1.985033	-0.679613	-0.767575
O57	O	1.664962	-1.007797	-0.480143
C58	C	1.593518	-1.181476	-0.416042
C59	C	1.682163	-1.115308	-0.495678
H60	H	1.607375	-1.268411	-0.428589
H61	H	1.615720	-1.158611	-0.332735
H62	H	1.491755	-1.166382	-0.427896
H63	H	1.783956	-1.130367	-0.483921
H64	H	1.659852	-1.138184	-0.578957
H65	H	2.131523	-0.968678	-0.899018
H66	H	2.131777	-0.113640	-1.043538
O67	O	1.664674	-0.791504	-0.479958
C68	C	1.504598	-0.813477	-0.336382
C69	C	1.593382	-0.868010	-0.416075
H70	H	1.446916	-0.875308	-0.284727
H71	H	1.562467	-0.758443	-0.285107
H72	H	1.438617	-0.766300	-0.380372
H73	H	1.659381	-0.915243	-0.372171
H74	H	1.535435	-0.922983	-0.467348
O75	O	2.144402	-0.102235	-1.252204
C76	C	2.216056	-0.038090	-1.425835
C77	C	2.127283	-0.117687	-1.359735
H78	H	2.202265	-0.050570	-1.512787
H79	H	2.193919	0.045230	-1.402935
H80	H	2.317781	-0.050051	-1.410709
H81	H	2.025528	-0.105822	-1.374826
H82	H	2.149529	-0.200978	-1.382647
O83	O	2.144050	-0.760024	-0.910231
C84	C	2.215403	-0.586354	-0.974411
C85	C	2.126704	-0.652521	-0.894813
H86	H	2.201390	-0.499427	-0.961988
H87	H	2.317205	-0.601311	-0.962547
H88	H	2.193214	-0.609355	-1.057686
H89	H	2.148778	-0.629560	-0.811506
H90	H	2.024928	-0.637558	-0.906769
O91	O	1.664877	-0.532025	-1.221427
C92	C	1.593335	-0.596052	-1.385869
C93	C	1.682067	-0.516496	-1.331159
H94	H	1.607183	-0.583510	-1.474595
H95	H	1.615461	-0.679386	-1.365768
H96	H	1.491595	-0.584108	-1.357731
H97	H	1.783836	-0.528343	-1.359267
H98	H	1.659832	-0.433190	-1.351258
H99	H	1.985226	-1.077736	-0.767693
H100	H	1.985299	-0.244902	-0.934614
H101	H	1.985388	-0.244746	-1.332756
