data_functionalizedCrystal
_audit_creation_method	'MofGen! by Chris Wilmer'
_symmetry_space_group_name_H-M	'P1'
_symmetry_Int_Tables_number	1
_symmetry_cell_setting	triclinic
loop_
_symmetry_equiv_pos_as_xyz
  x,y,z
_cell_length_a	25.993528
_cell_length_b	25.993440
_cell_length_c	25.993511
_cell_angle_alpha	90.001217
_cell_angle_beta	59.998587
_cell_angle_gamma	119.999970
loop_
_atom_site_label
_atom_site_type_symbol
_atom_site_fract_x
_atom_site_fract_y
_atom_site_fract_z
O1	O	-0.368217	0.438486	0.015294
O2	O	-0.262870	0.363674	-0.015240
O3	O	-0.368216	0.363671	0.090105
O4	O	-0.262872	0.438489	-0.090052
O5	O	-0.453780	0.278107	0.090103
O6	O	-0.348434	0.278110	-0.015242
O7	O	-0.453781	0.352921	0.015292
Zn8	Zn	-0.414692	0.301930	0.000025
Zn9	Zn	-0.301959	0.414665	0.000027
O10	O	-0.348435	0.352924	-0.090054
C11	C	-0.565868	0.621954	0.037073
C12	C	-0.628218	0.590709	0.037508
C13	C	-0.565865	0.528795	0.037068
C14	C	-0.628215	0.497691	0.037504
C15	C	-0.659027	0.528795	0.037071
C16	C	-0.535198	0.590709	0.037506
C17	C	-0.464940	0.722641	0.029515
C18	C	-0.430643	0.786263	0.024745
C19	C	-0.460084	0.818172	0.022354
C20	C	-0.422898	0.887156	0.017179
C21	C	-0.523826	0.786464	0.024737
C22	C	-0.558123	0.722844	0.029509
C23	C	-0.528677	0.690936	0.031895
C24	C	-0.752155	0.529036	0.029513
C25	C	-0.811007	0.499711	0.024742
C26	C	-0.840521	0.438363	0.022346
C27	C	-0.904329	0.406566	0.017169
C28	C	-0.811194	0.406329	0.024727
C29	C	-0.752348	0.435652	0.029501
C30	C	-0.722829	0.497005	0.031891
C31	C	-0.464934	0.529038	0.029506
C32	C	-0.430629	0.499716	0.024724
C33	C	-0.460067	0.438368	0.022328
C34	C	-0.422879	0.406571	0.017149
C35	C	-0.523805	0.406336	0.024708
C36	C	-0.558109	0.435655	0.029488
C37	C	-0.528671	0.497006	0.031886
O38	O	-0.925214	0.352919	0.015304
O39	O	-1.074842	0.278105	-0.015224
O40	O	-1.074844	0.278103	0.090119
O41	O	-0.925212	0.352921	-0.090039
O42	O	-1.074846	0.363667	0.090123
O43	O	-1.074845	0.363668	-0.015220
O44	O	-0.925217	0.438483	0.015308
Zn45	Zn	-1.000031	0.414661	0.000045
Zn46	Zn	-1.000027	0.301927	0.000039
O47	O	-0.925215	0.438484	-0.090035
C48	C	-0.150796	0.528800	-0.471167
C49	C	-0.088447	0.590714	-0.502271
C50	C	-0.150796	0.528800	-0.378007
C51	C	-0.088446	0.590715	-0.409253
C52	C	-0.057637	0.621961	-0.471167
C53	C	-0.181465	0.497696	-0.409252
C54	C	-0.251726	0.435429	-0.470924
C55	C	-0.286024	0.405902	-0.500249
C56	C	-0.256585	0.437735	-0.561597
C57	C	-0.293772	0.405725	-0.593394
C58	C	-0.192843	0.499095	-0.593632
C59	C	-0.158545	0.528619	-0.564310
C60	C	-0.187989	0.496786	-0.502956
C61	C	0.035490	0.722648	-0.564537
C62	C	0.094341	0.786271	-0.594063
C63	C	0.123856	0.818181	-0.562230
C64	C	0.187663	0.887166	-0.594240
C65	C	0.094532	0.786473	-0.500871
C66	C	0.035686	0.722853	-0.471347
C67	C	0.006165	0.690943	-0.503180
C68	C	-0.251724	0.435431	-0.277320
C69	C	-0.286027	0.405907	-0.213694
C70	C	-0.256588	0.437741	-0.181785
C71	C	-0.293774	0.405731	-0.112800
C72	C	-0.192851	0.499098	-0.213490
C73	C	-0.158548	0.528624	-0.277113
C74	C	-0.187987	0.496788	-0.309025
C75	C	-0.161982	0.277316	-0.022174
C76	C	-0.098493	0.309061	-0.017802
C77	C	-0.192794	0.215401	-0.022607
C78	C	-0.255137	0.277318	-0.022182
C79	C	-0.291249	0.309066	-0.017818
C80	C	-0.285807	0.215403	-0.022615
C81	C	-0.255141	0.184156	-0.022175
C82	C	-0.291258	0.116294	-0.017804
C83	C	-0.192790	0.308422	-0.022614
O84	O	-0.348441	1.090066	-0.015231
O85	O	-0.453792	0.909908	0.015311
O86	O	-0.348440	1.015243	-0.090038
O87	O	-0.453794	0.984731	0.090118
O88	O	-0.262882	1.015240	-0.090026
O89	O	-0.368235	0.909905	0.015322
O90	O	-0.262883	1.090063	-0.015219
Zn91	Zn	-0.301975	0.999983	0.000053
Zn92	Zn	-0.414701	0.999987	0.000038
O93	O	-0.368236	0.984728	0.090129
O94	O	0.358177	1.090073	-0.636296
O95	O	0.208551	0.909917	-0.561480
O96	O	0.208548	1.015257	-0.561477
O97	O	0.358181	0.984733	-0.636298
O98	O	0.208546	1.015255	-0.647041
O99	O	0.208549	0.909915	-0.647044
O100	O	0.358176	1.090071	-0.721860
Zn101	Zn	0.283362	0.999992	-0.698037
Zn102	Zn	0.283364	0.999995	-0.585303
O103	O	0.358179	0.984731	-0.721862
O104	O	-0.368216	0.363671	-0.721856
O105	O	-0.262875	0.438485	-0.647041
O106	O	-0.368219	0.438484	-0.647038
O107	O	-0.262872	0.363673	-0.721859
O108	O	-0.453784	0.352918	-0.561474
O109	O	-0.348440	0.352920	-0.561477
O110	O	-0.453781	0.278106	-0.636291
Zn111	Zn	-0.414696	0.301927	-0.585299
Zn112	Zn	-0.301960	0.414664	-0.698034
O113	O	-0.348437	0.278107	-0.636295
C114	C	-0.554676	0.184157	0.277354
C115	C	-0.618168	0.116295	0.309100
C116	C	-0.523866	0.215402	0.308459
C117	C	-0.461517	0.277317	0.184195
C118	C	-0.425402	0.309064	0.116333
C119	C	-0.430848	0.308421	0.215440
C120	C	-0.461517	0.277317	0.277355
C121	C	-0.425402	0.309063	0.309101
C122	C	-0.523866	0.215402	0.215440
C123	C	-1.255166	0.277302	0.277370
C124	C	-1.291284	0.309047	0.309117
C125	C	-1.285838	0.215386	0.308471
C126	C	-1.161997	0.277308	0.184210
C127	C	-1.098498	0.309058	0.116350
C128	C	-1.192810	0.215391	0.215452
C129	C	-1.255166	0.184142	0.277365
C130	C	-1.291283	0.116280	0.309107
C131	C	-1.192811	0.308410	0.215457
C132	C	-0.461547	0.977797	0.277377
C133	C	-0.425437	0.982167	0.309128
C134	C	-0.523895	0.977366	0.308475
C135	C	-0.461539	0.977790	0.184213
C136	C	-0.425420	0.982153	0.116353
C137	C	-0.523887	0.977359	0.215453
C138	C	-0.554700	0.977800	0.277366
C139	C	-0.618190	0.982173	0.309105
C140	C	-0.430875	0.977356	0.215464
C141	C	-0.565829	0.621979	-0.471142
C142	C	-0.535155	0.590737	-0.502247
C143	C	-0.658996	0.528815	-0.377986
C144	C	-0.628179	0.497714	-0.409232
C145	C	-0.565824	0.528822	-0.471145
C146	C	-0.628185	0.590730	-0.409229
C147	C	-0.558518	0.722664	-0.470895
C148	C	-0.524422	0.786287	-0.500217
C149	C	-0.460674	0.818200	-0.561564
C150	C	-0.423700	0.887185	-0.593358
C151	C	-0.431016	0.786495	-0.593600
C152	C	-0.465113	0.722875	-0.564280
C153	C	-0.528861	0.690962	-0.502928
C154	C	-0.464883	0.529071	-0.564513
C155	C	-0.430580	0.499749	-0.594040
C156	C	-0.460020	0.438399	-0.562209
C157	C	-0.422827	0.406605	-0.594220
C158	C	-0.523768	0.406361	-0.500852
C159	C	-0.558071	0.435680	-0.471327
C160	C	-0.528626	0.497035	-0.503158
C161	C	-0.752136	0.529049	-0.277299
C162	C	-0.810988	0.499723	-0.213674
C163	C	-0.840504	0.438374	-0.181767
C164	C	-0.904319	0.406572	-0.112784
C165	C	-0.811173	0.406345	-0.213474
C166	C	-0.752321	0.435669	-0.277095
C167	C	-0.722805	0.497021	-0.309005
O168	O	-1.368258	-0.090109	0.352942
O169	O	-1.262901	0.090052	0.278148
O170	O	-1.368235	-0.015275	0.278125
O171	O	-1.262925	0.015218	0.352964
O172	O	-1.453808	-0.015280	0.363691
O173	O	-1.348475	0.090047	0.363713
O174	O	-1.453831	-0.090114	0.438507
Zn175	Zn	-1.414740	-0.000034	0.414695
Zn176	Zn	-1.301993	-0.000028	0.301960
O177	O	-1.348498	0.015213	0.438529
C178	C	-0.057628	1.036971	-0.471137
C179	C	-0.088433	1.037405	-0.502245
C180	C	-0.150788	1.036981	-0.377983
C181	C	-0.181453	1.037415	-0.409233
C182	C	-0.150781	1.036974	-0.471147
C183	C	-0.088441	1.037412	-0.409223
C184	C	0.035493	1.029408	-0.470883
C185	C	0.094342	1.024633	-0.500202
C186	C	0.123860	1.022233	-0.561550
C187	C	0.187665	1.017052	-0.593341
C188	C	0.094539	1.024615	-0.593589
C189	C	0.035696	1.029393	-0.564273
C190	C	0.006172	1.031787	-0.502920
C191	C	-0.158092	1.029407	-0.564520
C192	C	-0.192184	1.024634	-0.594050
C193	C	-0.255925	1.022245	-0.562222
C194	C	-0.292895	1.017066	-0.594237
C195	C	-0.285579	1.024633	-0.500864
C196	C	-0.251486	1.029409	-0.471336
C197	C	-0.187746	1.031793	-0.503164
C198	C	-0.158114	1.029429	-0.277292
C199	C	-0.192219	1.024655	-0.213667
C200	C	-0.255959	1.022265	-0.181763
C201	C	-0.292937	1.017095	-0.112779
C202	C	-0.285606	1.024644	-0.213473
C203	C	-0.251507	1.029415	-0.277095
C204	C	-0.187761	1.031808	-0.309002
H205	H	-0.378735	0.525802	0.022788
H206	H	-0.610428	0.696682	-0.420940
H207	H	-1.167027	0.359282	0.190376
H208	H	-0.166998	0.359295	-0.023319
C209	C	-0.628221	0.400420	0.032107
C210	C	-0.698941	0.387788	0.089662
C211	C	-0.769052	0.352552	0.092279
C212	C	-0.768443	0.329947	0.037342
C213	C	-0.697720	0.342579	-0.020218
C214	C	-0.627609	0.377815	-0.022835
H215	H	-0.699394	0.404522	0.130334
H216	H	-0.821406	0.343201	0.134889
H217	H	-0.820343	0.303863	0.039279
H218	H	-0.697266	0.325845	-0.060890
H219	H	-0.575255	0.387166	-0.065445
C220	C	-0.628189	0.400443	-0.403838
C221	C	-0.630268	0.427703	-0.350772
C222	C	-0.700386	0.392465	-0.283281
C223	C	-0.768426	0.329966	-0.268856
C224	C	-0.766350	0.302702	-0.321923
C225	C	-0.696231	0.337940	-0.389414
H226	H	-0.579898	0.473972	-0.361449
H227	H	-0.701922	0.412648	-0.243998
H228	H	-0.820331	0.303880	-0.218895
H229	H	-0.816719	0.256433	-0.311246
H230	H	-0.694695	0.317757	-0.428698
C231	C	-0.088431	0.596110	-0.599540
C232	C	-0.086363	0.649169	-0.572271
C233	C	-0.016247	0.716660	-0.607501
C234	C	0.051800	0.731093	-0.670000
C235	C	0.049734	0.678032	-0.697273
C236	C	-0.020381	0.610541	-0.662043
H237	H	-0.136737	0.638487	-0.526003
H238	H	-0.014718	0.755939	-0.587311
H239	H	0.103703	0.781054	-0.696079
H240	H	0.100109	0.688715	-0.743541
H241	H	-0.021910	0.571262	-0.682232
C242	C	-0.558720	0.976414	0.181564
C243	C	-0.637731	0.921528	0.208745
C244	C	-0.672565	0.920584	0.174860
C245	C	-0.628389	0.974525	0.113794
C246	C	-0.549374	1.029415	0.086609
C247	C	-0.514540	1.030359	0.120494
H248	H	-0.670437	0.881594	0.253953
H249	H	-0.731058	0.879951	0.194985
H250	H	-0.654176	0.973827	0.088710
H251	H	-0.516668	1.069349	0.041402
H252	H	-0.456048	1.070992	0.100370
C253	C	-0.467423	0.624590	0.038456
C254	C	-0.470482	0.648713	0.093343
C255	C	-0.402712	0.682589	0.094296
C256	C	-0.331884	0.692341	0.040361
C257	C	-0.328822	0.668217	-0.014530
C258	C	-0.396592	0.634342	-0.015483
H259	H	-0.522915	0.641495	0.133272
H260	H	-0.404978	0.700447	0.134930
H261	H	-0.281716	0.717418	0.041066
H262	H	-0.276389	0.675436	-0.054459
H263	H	-0.394326	0.616483	-0.056117
C264	C	-0.157960	0.181511	-0.023552
C265	C	-0.130246	0.157393	-0.078442
C266	C	-0.095414	0.123505	-0.079388
C267	C	-0.088295	0.113736	-0.025443
C268	C	-0.116010	0.137854	0.029451
C269	C	-0.150842	0.171742	0.030397
H270	H	-0.135515	0.164625	-0.118378
H271	H	-0.074898	0.105651	-0.120024
H272	H	-0.062510	0.088650	-0.026143
H273	H	-0.110741	0.130623	0.069388
H274	H	-0.171358	0.189596	0.071033
C275	C	0.003444	1.032014	-0.599513
C276	C	0.002924	1.089574	-0.612153
C277	C	-0.029326	1.092196	-0.647394
C278	C	-0.061057	1.037258	-0.669994
C279	C	-0.060537	0.979693	-0.657355
C280	C	-0.028287	0.977072	-0.622114
H281	H	0.026414	1.130247	-0.595422
H282	H	-0.029710	1.134809	-0.656750
H283	H	-0.084930	1.039198	-0.696082
H284	H	-0.084027	0.939021	-0.674086
H285	H	-0.027903	0.934459	-0.612757
C286	C	-0.360461	0.534991	-0.661529
C287	C	-0.292418	0.597485	-0.675952
C288	C	-0.222299	0.632723	-0.743443
C289	C	-0.220223	0.605467	-0.796510
C290	C	-0.288269	0.542970	-0.782089
C291	C	-0.358388	0.507732	-0.714599
H292	H	-0.293952	0.617665	-0.636667
H293	H	-0.171927	0.678988	-0.754118
H294	H	-0.168317	0.631552	-0.846471
H295	H	-0.286735	0.522790	-0.821374
H296	H	-0.408760	0.461467	-0.703923
H297	H	-0.378745	0.812074	0.022804
H298	H	-0.549675	0.976679	0.359343
H299	H	-0.549642	0.190308	0.190350
H300	H	-0.380671	0.359290	0.190349
C301	C	-0.353601	0.181489	-0.023537
C302	C	-0.350569	0.157341	-0.078406
C303	C	-0.418369	0.123416	-0.079314
C304	C	-0.489201	0.113638	-0.025353
C305	C	-0.492236	0.137787	0.029520
C306	C	-0.424436	0.171712	0.030428
H307	H	-0.298132	0.164579	-0.118355
H308	H	-0.416122	0.105540	-0.119935
H309	H	-0.539391	0.088525	-0.026025
H310	H	-0.544673	0.130549	0.069469
H311	H	-0.426683	0.189588	0.071050
C312	C	-0.558701	0.181528	0.377187
C313	C	-0.637710	0.157411	0.429012
C314	C	-0.672542	0.123546	0.497739
C315	C	-0.628365	0.113797	0.514641
C316	C	-0.549351	0.137915	0.462814
C317	C	-0.514519	0.171780	0.394087
H318	H	-0.670417	0.164627	0.416501
H319	H	-0.731034	0.105693	0.536104
H320	H	-0.654150	0.088728	0.565517
H321	H	-0.516644	0.130699	0.475325
H322	H	-0.456027	0.189634	0.355722
H323	H	-1.167023	0.190308	0.190361
H324	H	-0.231622	1.038119	-0.384150
H325	H	-0.062663	0.615799	-0.384165
H326	H	-0.380704	0.976654	0.190385
H327	H	-1.336010	0.190302	0.359343
H328	H	0.011817	0.697036	-0.421391
H329	H	-0.547772	0.356381	0.022753
C330	C	0.126592	0.821145	-0.661554
C331	C	0.127128	0.879235	-0.674711
C332	C	0.159385	0.914116	-0.742203
C333	C	0.191106	0.890906	-0.796537
C334	C	0.190572	0.832813	-0.783381
C335	C	0.158315	0.797933	-0.715890
H336	H	0.103644	0.896419	-0.634488
H337	H	0.159780	0.957120	-0.751941
H338	H	0.214985	0.916726	-0.846498
H339	H	0.214056	0.815629	-0.823604
H340	H	0.157920	0.754928	-0.706151
C341	C	-0.467352	0.624622	-0.570959
C342	C	-0.396525	0.685672	-0.587819
C343	C	-0.328716	0.719553	-0.656524
C344	C	-0.331734	0.692383	-0.708370
C345	C	-0.402564	0.631330	-0.691512
C346	C	-0.470373	0.597449	-0.622807
H347	H	-0.394288	0.705788	-0.549438
H348	H	-0.276283	0.764749	-0.669003
H349	H	-0.281538	0.717464	-0.759230
H350	H	-0.404801	0.611214	-0.729893
H351	H	-0.522806	0.552253	-0.610328
C352	C	-0.556152	0.338872	-0.465835
C353	C	-0.579700	0.285927	-0.493272
C354	C	-0.612088	0.218439	-0.458253
C355	C	-0.620928	0.203895	-0.395797
C356	C	-0.597379	0.256841	-0.368357
C357	C	-0.564991	0.324330	-0.403376
H358	H	-0.573157	0.296692	-0.539508
H359	H	-0.629521	0.179245	-0.478566
H360	H	-0.644903	0.153936	-0.369874
H361	H	-0.603922	0.246076	-0.322121
H362	H	-0.547558	0.363524	-0.383063
C363	C	-0.663033	0.624608	-0.375332
C364	C	-0.690733	0.648737	-0.402513
C365	C	-0.725583	0.682611	-0.368614
C366	C	-0.732732	0.692355	-0.307534
C367	C	-0.705030	0.668225	-0.280350
C368	C	-0.670181	0.634351	-0.314249
H369	H	-0.685442	0.641525	-0.447730
H370	H	-0.746089	0.700474	-0.388737
H371	H	-0.758529	0.717430	-0.282440
H372	H	-0.710321	0.675437	-0.235133
H373	H	-0.649674	0.616489	-0.294126
C374	C	0.127010	1.021971	-0.661076
C375	C	0.079096	0.968347	-0.675612
C376	C	0.111563	0.965704	-0.743097
C377	C	0.191944	1.016686	-0.796047
C378	C	0.239862	1.070314	-0.781512
C379	C	0.207395	1.072957	-0.714027
H380	H	0.019589	0.930603	-0.636414
H381	H	0.076090	0.926004	-0.753856
H382	H	0.215978	1.014730	-0.846004
H383	H	0.299369	1.108058	-0.820710
H384	H	0.242868	1.112657	-0.703268
H385	H	-0.653966	0.446842	-0.384146
C386	C	-0.557041	0.821161	-0.464981
C387	C	-0.580775	0.850485	-0.492245
C388	C	-0.613395	0.885361	-0.457011
C389	C	-0.622280	0.890913	-0.394513
C390	C	-0.598545	0.861588	-0.367246
C391	C	-0.565925	0.826711	-0.402480
H392	H	-0.574199	0.846376	-0.538512
H393	H	-0.630965	0.907069	-0.477196
H394	H	-0.646427	0.916730	-0.368431
H395	H	-0.605122	0.865697	-0.320978
H396	H	-0.548355	0.805003	-0.382294
C397	C	-0.556210	0.821569	0.022102
C398	C	-0.579770	0.850959	0.073091
C399	C	-0.612157	0.886060	0.070457
C400	C	-0.620985	0.891770	0.016834
C401	C	-0.597425	0.862378	-0.034159
C402	C	-0.565037	0.827278	-0.031524
H403	H	-0.573235	0.846733	0.112789
H404	H	-0.629598	0.907817	0.108205
H405	H	-0.644960	0.917753	0.014884
H406	H	-0.603959	0.866604	-0.073857
H407	H	-0.547597	0.805521	-0.069273
H408	H	-0.834867	0.525806	-0.187865
C409	C	-0.360885	0.821605	-0.661085
C410	C	-0.290277	0.879743	-0.674128
C411	C	-0.220148	0.914848	-0.741613
C412	C	-0.220627	0.891815	-0.796055
C413	C	-0.291237	0.833673	-0.783014
C414	C	-0.361367	0.798568	-0.715529
H415	H	-0.289921	0.896797	-0.633825
H416	H	-0.167878	0.957889	-0.751266
H417	H	-0.168713	0.917801	-0.846011
H418	H	-0.291594	0.816619	-0.823317
H419	H	-0.413637	0.755527	-0.705876
C420	C	-0.159565	1.022006	-0.661540
C421	C	-0.135822	1.073000	-0.714609
C422	C	-0.103207	1.070372	-0.782100
C423	C	-0.094336	1.016750	-0.796521
C424	C	-0.118080	0.965752	-0.743451
C425	C	-0.150694	0.968380	-0.675960
H426	H	-0.142389	1.112698	-0.703935
H427	H	-0.085631	1.108124	-0.821386
H428	H	-0.070193	1.014805	-0.846482
H429	H	-0.111513	0.926054	-0.754125
H430	H	-0.168270	0.930628	-0.636674
H431	H	-0.728109	0.579004	-0.303278
C432	C	-0.843640	0.338855	-0.178377
C433	C	-0.924015	0.285908	-0.148998
C434	C	-0.956486	0.218418	-0.113901
C435	C	-0.908581	0.203875	-0.108181
C436	C	-0.828201	0.256824	-0.137560
C437	C	-0.795730	0.324314	-0.172658
H438	H	-0.959481	0.296671	-0.153232
H439	H	-1.015989	0.179221	-0.092152
H440	H	-0.932617	0.153915	-0.082200
H441	H	-0.792734	0.246060	-0.133327
H442	H	-0.736227	0.363510	-0.194406
H443	H	-0.440967	0.697061	-0.590367
C444	C	-0.053618	1.038364	-0.375321
C445	C	-0.046502	0.984423	-0.365531
C446	C	-0.011684	0.985377	-0.331626
C447	C	0.016018	1.040273	-0.307512
C448	C	0.008902	1.094219	-0.317301
C449	C	-0.025915	1.093264	-0.351206
H450	H	-0.067009	0.943782	-0.383382
H451	H	-0.006417	0.945443	-0.324379
H452	H	0.041792	1.040979	-0.282413
H453	H	0.029410	1.134860	-0.299450
H454	H	-0.031182	1.133199	-0.358453
C455	C	-0.355700	1.022003	-0.465851
C456	C	-0.426315	0.964442	-0.453377
C457	C	-0.496434	0.961813	-0.418361
C458	C	-0.495939	1.016745	-0.395820
C459	C	-0.425323	1.074309	-0.408294
C460	C	-0.355203	1.076938	-0.443309
H461	H	-0.426683	0.923775	-0.470063
H462	H	-0.548709	0.919200	-0.409128
H463	H	-0.547846	1.014799	-0.369900
H464	H	-0.424954	1.114977	-0.391607
H465	H	-0.302928	1.119552	-0.452543
C466	C	-0.159605	1.022036	-0.178791
C467	C	-0.204532	0.964474	-0.120710
C468	C	-0.171922	0.961848	-0.085830
C469	C	-0.094384	1.016784	-0.109032
C470	C	-0.049452	1.074350	-0.167116
C471	C	-0.082062	1.076976	-0.201996
H472	H	-0.261934	0.923804	-0.103532
H473	H	-0.205184	0.919234	-0.042832
H474	H	-0.070244	1.014840	-0.083212
H475	H	0.007950	1.115020	-0.184294
H476	H	-0.048800	1.119590	-0.244994
H477	H	-0.275698	0.409503	-0.303300
C478	C	0.126590	1.022010	-0.464962
C479	C	0.127125	0.964457	-0.452334
C480	C	0.159380	0.961837	-0.417096
C481	C	0.191099	1.016771	-0.394487
C482	C	0.190565	1.074329	-0.407114
C483	C	0.158311	1.076948	-0.442352
H484	H	0.103644	0.923787	-0.469071
H485	H	0.159775	0.919229	-0.407749
H486	H	0.214976	1.014832	-0.368401
H487	H	0.214047	1.114998	-0.390377
H488	H	0.157915	1.119556	-0.451700
H489	H	-0.231634	0.446823	-0.384170
H490	H	-0.440909	0.579026	-0.590439
H491	H	-0.728440	0.409587	-0.302910
C492	C	-0.284100	1.032030	-0.403844
C493	C	-0.361640	0.977093	-0.349511
C494	C	-0.394254	0.979711	-0.282017
C495	C	-0.349328	1.037266	-0.268855
C496	C	-0.271784	1.092207	-0.323189
C497	C	-0.239170	1.089589	-0.390683
H498	H	-0.394900	0.934484	-0.359253
H499	H	-0.451658	0.939040	-0.241796
H500	H	-0.373471	1.039204	-0.218892
H501	H	-0.238523	1.134816	-0.313447
H502	H	-0.181766	1.130261	-0.430905
C503	C	-0.160462	0.534122	-0.178391
C504	C	-0.205552	0.546591	-0.120246
C505	C	-0.173164	0.581612	-0.085146
C506	C	-0.095686	0.604164	-0.108190
C507	C	-0.050591	0.591695	-0.166338
C508	C	-0.082979	0.556675	-0.201438
H509	H	-0.262910	0.529896	-0.103184
H510	H	-0.206547	0.590841	-0.042101
H511	H	-0.071711	0.630088	-0.082207
H512	H	0.006767	0.608390	-0.183399
H513	H	-0.049596	0.547445	-0.244483
C514	C	-0.355727	1.022015	-0.178379
C515	C	-0.426344	0.964462	-0.120234
C516	C	-0.496462	0.961835	-0.085139
C517	C	-0.495962	1.016763	-0.108190
C518	C	-0.425343	1.074320	-0.166339
C519	C	-0.355225	1.076947	-0.201433
H520	H	-0.426716	0.923797	-0.103167
H521	H	-0.548739	0.919227	-0.042094
H522	H	-0.547868	1.014819	-0.082211
H523	H	-0.424971	1.114985	-0.183405
H524	H	-0.302948	1.119555	-0.244479
H525	H	-0.062642	1.038102	-0.553117
H526	H	-0.106189	1.031351	-0.590441
C527	C	-0.284109	0.400409	-0.403438
C528	C	-0.307679	0.427834	-0.350488
C529	C	-0.340067	0.392815	-0.282999
C530	C	-0.348884	0.330370	-0.268461
C531	C	-0.325313	0.302941	-0.321413
C532	C	-0.292925	0.337960	-0.388901
H533	H	-0.301153	0.474063	-0.361248
H534	H	-0.357516	0.413120	-0.243801
H535	H	-0.372859	0.304446	-0.218502
H536	H	-0.331840	0.256712	-0.310652
H537	H	-0.275477	0.317655	-0.428100
H538	H	-0.062656	0.615793	-0.553147
H539	H	-0.653995	0.446821	0.038199
H540	H	-0.106207	1.031380	-0.303269
H541	H	0.011462	1.031364	-0.420929
H542	H	-0.440963	0.578991	0.031463
C543	C	-0.663062	0.624588	0.038453
C544	C	-0.690772	0.648716	0.093335
C545	C	-0.725618	0.682589	0.094278
C546	C	-0.732754	0.692334	0.040340
C547	C	-0.705043	0.668206	-0.014546
C548	C	-0.670196	0.634333	-0.015489
H549	H	-0.685491	0.641502	0.133267
H550	H	-0.746132	0.700450	0.134909
H551	H	-0.758549	0.717410	0.041038
H552	H	-0.710324	0.675420	-0.054478
H553	H	-0.649683	0.616471	-0.056120
C554	C	-0.843260	0.534950	0.022122
C555	C	-0.874983	0.557560	0.077056
C556	C	-0.907242	0.592793	0.074436
C557	C	-0.907779	0.605417	0.016883
C558	C	-0.876055	0.582806	-0.038055
C559	C	-0.843796	0.547573	-0.035436
H560	H	-0.874587	0.548216	0.119664
H561	H	-0.930726	0.609531	0.115105
H562	H	-0.931659	0.631498	0.014943
H563	H	-0.876452	0.592150	-0.080663
H564	H	-0.820312	0.530835	-0.076105
H565	H	-0.440962	0.696662	0.031462
H566	H	-0.275650	1.031350	-0.302912
H567	H	-0.610023	0.697029	0.031450
H568	H	-0.728126	0.578992	0.031464
C569	C	-0.088436	0.596116	-0.311993
C570	C	-0.089042	0.650447	-0.288781
C571	C	-0.018931	0.717940	-0.323660
C572	C	0.051787	0.731103	-0.381751
C573	C	0.052395	0.676771	-0.404966
C574	C	-0.017716	0.609278	-0.370086
H575	H	-0.141394	0.640704	-0.245776
H576	H	-0.019382	0.758160	-0.306475
H577	H	0.103687	0.781066	-0.407570
H578	H	0.104747	0.686514	-0.447970
H579	H	-0.017266	0.569058	-0.387272
H580	H	-0.728469	0.409570	0.031435
C581	C	-0.843662	0.338842	0.022089
C582	C	-0.795749	0.324303	-0.031535
C583	C	-0.828214	0.256816	-0.034171
C584	C	-0.908592	0.203867	0.016816
C585	C	-0.956511	0.218404	0.070444
C586	C	-0.924046	0.285891	0.073080
H587	H	-0.736243	0.363500	-0.069283
H588	H	-0.792741	0.246055	-0.073870
H589	H	-0.932625	0.153909	0.014865
H590	H	-1.016016	0.179207	0.108192
H591	H	-0.959519	0.296652	0.112779
C592	C	-0.356141	0.338419	-0.178824
C593	C	-0.355545	0.284082	-0.202027
C594	C	-0.425668	0.216596	-0.167154
C595	C	-0.496387	0.203446	-0.109079
C596	C	-0.496986	0.257785	-0.085874
C597	C	-0.426863	0.325272	-0.120747
H598	H	-0.303192	0.293815	-0.245020
H599	H	-0.425224	0.176370	-0.184333
H600	H	-0.548296	0.153488	-0.083265
H601	H	-0.549339	0.248052	-0.042881
H602	H	-0.427306	0.365497	-0.103568
H603	H	-0.337920	0.355944	-0.474162
H604	H	0.011460	0.696668	-0.590463
C605	C	-0.160461	0.534115	-0.661119
C606	C	-0.205552	0.546587	-0.674167
C607	C	-0.173167	0.581609	-0.741654
C608	C	-0.095690	0.604159	-0.796093
C609	C	-0.050595	0.591687	-0.783047
C610	C	-0.082980	0.556665	-0.715560
H611	H	-0.262909	0.529893	-0.633867
H612	H	-0.206550	0.590841	-0.751311
H613	H	-0.071717	0.630085	-0.846050
H614	H	0.006762	0.608381	-0.823347
H615	H	-0.049597	0.547433	-0.705902
H616	H	0.118575	0.812463	-0.474955
