data_functionalizedCrystal
_audit_creation_method	'MofGen! by Chris Wilmer'
_symmetry_space_group_name_H-M	'P1'
_symmetry_Int_Tables_number	1
_symmetry_cell_setting	triclinic
loop_
_symmetry_equiv_pos_as_xyz
  x,y,z
_cell_length_a	16.109301
_cell_length_b	10.723024
_cell_length_c	15.186229
_cell_angle_alpha	89.997422
_cell_angle_beta	89.999362
_cell_angle_gamma	83.964675
loop_
_atom_site_label
_atom_site_type_symbol
_atom_site_fract_x
_atom_site_fract_y
_atom_site_fract_z
O1	O	1.104074	0.160391	-0.073171
O2	O	0.862130	0.180351	-0.073184
O3	O	0.988683	-0.011279	-0.073174
O4	O	0.977521	0.352021	-0.073181
O5	O	0.988674	-0.011282	0.073283
O6	O	0.862121	0.180348	0.073273
O7	O	1.104066	0.160388	0.073287
Zn8	Zn	0.983092	0.170368	0.096533
Zn9	Zn	0.983103	0.170371	-0.096431
O10	O	0.977513	0.352018	0.073276
C11	C	0.831146	0.179541	0.000043
C12	C	0.738836	0.177117	0.000037
C13	C	0.517200	0.285190	0.000045
C14	C	0.430466	0.282903	0.000051
C15	C	0.449003	0.055540	0.000052
C16	C	0.535735	0.057829	0.000052
C17	C	0.569831	0.172657	0.000045
C18	C	0.396365	0.168081	0.000050
C19	C	0.302324	0.165600	0.000056
C20	C	0.663877	0.175139	0.000040
C21	C	0.987866	-0.057770	0.000054
C22	C	0.985436	-0.196292	0.000050
C23	C	1.056249	-0.272213	0.000053
C24	C	1.053739	-0.415383	0.000050
C25	C	1.135050	0.161198	0.000058
C26	C	1.227359	0.163622	0.000057
C27	C	0.978329	0.398508	0.000047
C28	C	0.980760	0.537031	0.000044
N29	N	0.983091	0.170364	0.228226
N30	N	0.983112	0.170365	-0.228123
C31	C	1.039148	0.085539	0.453953
C32	C	1.039150	0.085536	0.546143
C33	C	0.927049	0.255194	0.546143
C34	C	0.927043	0.255190	0.453955
C35	C	0.983097	0.170364	0.407862
C36	C	0.983105	0.170365	0.592240
C37	C	0.983108	0.170362	0.692196
C38	C	0.983094	0.170365	0.307900
H39	H	0.421231	-0.037950	0.000063
C40	C	0.593636	-0.065966	0.000050
C41	C	0.556136	-0.192273	0.000046
C42	C	0.614037	-0.316061	0.000047
C43	C	0.709439	-0.313541	0.000051
C44	C	0.746944	-0.187229	0.000055
C45	C	0.689043	-0.063441	0.000054
H46	H	0.485509	-0.194143	0.000043
H47	H	0.586273	-0.409565	0.000044
H48	H	0.752301	-0.405176	0.000052
H49	H	0.817571	-0.185359	0.000058
H50	H	0.716808	0.030064	0.000056
C51	C	1.135640	-0.503502	0.000053
C52	C	1.154797	-0.597111	0.076103
C53	C	1.236701	-0.685234	0.076107
C54	C	1.299448	-0.679748	0.000059
C55	C	1.280292	-0.586135	-0.075997
C56	C	1.198388	-0.498013	-0.076000
H57	H	1.108346	-0.601175	0.132403
H58	H	1.250881	-0.754532	0.132409
H59	H	1.360078	-0.744981	0.000062
H60	H	1.326743	-0.582071	-0.132296
H61	H	1.184208	-0.428715	-0.132302
C62	C	1.100799	-0.007776	0.403251
C63	C	1.162450	-0.101087	0.453955
C64	C	1.224102	-0.194409	0.403257
C65	C	1.224102	-0.194420	0.301853
C66	C	1.162449	-0.101106	0.251143
C67	C	1.100798	-0.007784	0.301842
H68	H	1.162452	-0.101082	0.529025
H69	H	1.269741	-0.263486	0.440796
H70	H	1.269741	-0.263502	0.264323
H71	H	1.162448	-0.101111	0.176074
H72	H	1.055158	0.061293	0.264303
C73	C	0.865397	0.348509	0.596845
C74	C	0.865445	0.348593	0.698248
C75	C	0.803793	0.441915	0.748947
C76	C	0.742094	0.535153	0.698242
C77	C	0.742044	0.535073	0.596834
C78	C	0.803695	0.441751	0.546135
H79	H	0.911120	0.279569	0.735787
H80	H	0.803831	0.441973	0.824016
H81	H	0.696456	0.604235	0.735773
H82	H	0.696368	0.604096	0.559294
H83	H	0.803658	0.441692	0.471065
H84	H	0.544958	0.378691	0.000046
H85	H	0.387617	0.374539	0.000053
H86	H	1.118732	-0.231219	0.000062
H87	H	0.920135	-0.397741	0.000048
H88	H	0.922953	-0.237286	0.000041
H89	H	1.084791	0.016463	0.583668
H90	H	0.881395	0.324265	0.416425
