data_functionalizedCrystal
_audit_creation_method	'MofGen! by Chris Wilmer'
_symmetry_space_group_name_H-M	'P1'
_symmetry_Int_Tables_number	1
_symmetry_cell_setting	triclinic
loop_
_symmetry_equiv_pos_as_xyz
  x,y,z
_cell_length_a	10.654541
_cell_length_b	12.837942
_cell_length_c	11.295501
_cell_angle_alpha	85.830212
_cell_angle_beta	94.561729
_cell_angle_gamma	90.343566
loop_
_atom_site_label
_atom_site_type_symbol
_atom_site_fract_x
_atom_site_fract_y
_atom_site_fract_z
O1	O	1.692040	-0.151996	0.098988
O2	O	1.328077	-0.165883	0.098998
O3	O	1.501987	-0.007978	0.098986
O4	O	1.518129	-0.309901	0.099000
O5	O	1.485373	0.004602	-0.099065
O6	O	1.311463	-0.153303	-0.099053
O7	O	1.675426	-0.139416	-0.099063
Cu8	Cu	1.491927	-0.145210	-0.117141
Cu9	Cu	1.511575	-0.160088	0.117077
O10	O	1.501515	-0.297320	-0.099051
C11	C	1.272861	-0.158574	-0.000026
C12	C	1.133085	-0.155525	-0.000022
C13	C	1.488228	0.036971	-0.000039
C14	C	1.471965	0.152165	-0.000036
C15	C	1.515275	-0.342271	-0.000023
C16	C	1.531538	-0.457465	-0.000018
C17	C	1.125721	-0.344344	0.000002
C18	C	1.056373	-0.437316	0.000018
C19	C	0.925042	-0.434445	0.000019
C20	C	0.863055	-0.338591	0.000000
C21	C	0.932403	-0.245618	-0.000017
C22	C	1.063737	-0.248500	-0.000014
C23	C	0.939766	-0.056802	-0.000049
C24	C	1.071098	-0.059671	-0.000041
C25	C	0.877779	0.039053	-0.000068
C26	C	0.947127	0.132027	-0.000076
C27	C	1.078467	0.129152	-0.000076
C28	C	1.140445	0.033302	-0.000058
C29	C	1.730642	-0.146725	-0.000036
C30	C	1.870419	-0.149774	-0.000032
N31	N	1.478117	-0.134746	-0.281878
C32	C	1.667472	0.391718	-0.000017
C33	C	1.652198	0.499954	-0.000014
C34	C	1.426145	0.476873	-0.000020
C35	C	1.441419	0.368638	-0.000023
C36	C	1.562086	0.326065	-0.000023
C37	C	1.577358	0.217828	-0.000034
C38	C	1.351308	0.194748	-0.000031
C39	C	1.336034	0.302984	-0.000029
C40	C	1.624802	-0.245928	-0.531167
C41	C	1.614374	-0.238011	-0.655830
C42	C	1.446840	-0.110990	-0.655871
C43	C	1.457268	-0.118907	-0.531207
C44	C	1.546250	-0.186379	-0.468860
C45	C	1.556672	-0.194301	-0.344194
C46	C	1.389145	-0.067275	-0.344236
C47	C	1.378717	-0.059358	-0.468900
N48	N	1.525395	-0.170545	0.281813
H49	H	1.232659	-0.346692	0.000027
H50	H	1.106857	-0.515359	0.000031
Br51	Br	0.862997	0.262102	-0.000117
H52	H	1.738014	0.553406	-0.000006
H53	H	1.629121	-0.249244	-0.293432
H54	H	1.237790	0.337662	-0.000024
Br55	Br	1.282521	0.013536	-0.259671
Br56	Br	0.830921	-0.560621	0.000025
Br57	Br	1.741116	0.160051	-0.000046
Br58	Br	1.720990	-0.318825	-0.740388
Br59	Br	0.684816	-0.334695	-0.000025
Br60	Br	1.262400	0.534667	0.000023
Br61	Br	1.208274	0.105642	-0.000061
H62	H	1.134922	0.204863	-0.000094
Br63	Br	1.745557	-0.337495	-0.446546
Br64	Br	1.326093	-0.019423	-0.740506
H65	H	0.770842	0.041384	-0.000074
Br66	Br	1.318683	0.029392	-0.000046
H67	H	1.306273	-0.004421	-0.519681
H68	H	1.765722	0.357056	-0.000029
