data_functionalizedCrystal
_audit_creation_method	'MofGen! by Chris Wilmer'
_symmetry_space_group_name_H-M	'P1'
_symmetry_Int_Tables_number	1
_symmetry_cell_setting	triclinic
loop_
_symmetry_equiv_pos_as_xyz
  x,y,z
_cell_length_a	15.538191
_cell_length_b	15.711784
_cell_length_c	9.130313
_cell_angle_alpha	89.998183
_cell_angle_beta	90.000761
_cell_angle_gamma	96.569552
loop_
_atom_site_label
_atom_site_type_symbol
_atom_site_fract_x
_atom_site_fract_y
_atom_site_fract_z
O1	O	-0.466241	1.000647	-0.121852
O2	O	-0.401511	0.769292	-0.121842
O3	O	-0.312266	0.930005	-0.121842
O4	O	-0.555486	0.839935	-0.121853
O5	O	-0.312269	0.930002	0.121757
O6	O	-0.401514	0.769290	0.121757
O7	O	-0.466244	1.000644	0.121747
Cu8	Cu	-0.433879	0.884967	0.143994
Cu9	Cu	-0.433876	0.884970	-0.144090
O10	O	-0.555489	0.839932	0.121746
C11	C	-0.390938	0.740405	-0.000042
C12	C	-0.359420	0.654335	-0.000038
C13	C	-0.240766	0.566616	-0.000031
C14	C	-0.270391	0.647487	-0.000034
C15	C	-0.418861	0.580307	-0.000047
C16	C	-0.389249	0.499428	-0.000051
C17	C	-0.300200	0.492590	-0.000042
C18	C	-0.448683	0.425403	-0.000061
C19	C	-0.419073	0.344532	-0.000058
C20	C	-0.330028	0.337685	-0.000044
C21	C	-0.270590	0.411719	-0.000038
C22	C	-0.537731	0.432243	-0.000060
C23	C	-0.597165	0.358218	-0.000070
C24	C	-0.567555	0.277344	-0.000077
C25	C	-0.478511	0.270498	-0.000064
C26	C	-0.626993	0.203311	-0.000083
C27	C	-0.597383	0.122439	-0.000080
C28	C	-0.448901	0.189627	-0.000060
C29	C	-0.587336	0.830510	-0.000055
C30	C	-0.682237	0.802439	-0.000060
C31	C	-1.066126	1.081309	-0.000056
C32	C	-1.155296	1.054913	-0.000056
C33	C	-1.126576	0.906443	-0.000050
C34	C	-1.037401	0.932826	-0.000057
C35	C	-1.007184	1.020260	-0.000058
C36	C	-0.978460	0.871777	-0.000060
C37	C	-0.889294	0.898159	-0.000059
C38	C	-0.859069	0.985589	-0.000056
C39	C	-0.918018	1.046642	-0.000058
C40	C	-1.008679	0.784344	-0.000048
C41	C	-0.949737	0.723295	-0.000051
C42	C	-0.860569	0.749676	-0.000061
C43	C	-0.830345	0.837106	-0.000057
C44	C	-0.801620	0.688624	-0.000059
C45	C	-0.712454	0.715005	-0.000058
C46	C	-0.741178	0.863488	-0.000057
C47	C	-0.280419	0.939427	-0.000044
C48	C	-0.185518	0.967497	-0.000049
C49	C	-0.476817	1.029532	-0.000057
C50	C	-0.508335	1.115601	-0.000071
N51	N	-0.433883	0.884970	0.346617
N52	N	-0.433867	0.884974	-0.346712
C53	C	-0.394390	0.956141	0.423269
C54	C	-0.394379	0.956142	0.576606
C55	C	-0.473362	0.813797	0.576625
C56	C	-0.473367	0.813794	0.423291
C57	C	-0.348793	1.038325	0.423259
C58	C	-0.348782	1.038326	0.576596
H59	H	-0.491364	0.585887	-0.000049
O60	O	-0.888613	1.131566	-0.000325
C61	C	-0.804553	1.247504	-0.126486
C62	C	-0.837815	1.151325	-0.126385
H63	H	-0.763461	1.263506	-0.228379
H64	H	-0.861961	1.286657	-0.126587
H65	H	-0.763561	1.263541	-0.024492
H66	H	-0.878792	1.135208	-0.228361
H67	H	-0.780368	1.112225	-0.126208
O68	O	-0.511795	0.744601	0.349057
C69	C	-0.590074	0.603387	0.365263
C70	C	-0.546603	0.681703	0.449514
H71	H	-0.618212	0.552507	0.446446
H72	H	-0.644219	0.623659	0.293516
H73	H	-0.539910	0.575993	0.293438
H74	H	-0.596702	0.709134	0.521420
H75	H	-0.492442	0.661382	0.521169
H76	H	-0.376389	0.184060	-0.000068
O77	O	-0.978949	0.638331	0.000005
C78	C	-0.941046	0.493842	-0.000116
C79	C	-0.907850	0.590036	-0.000136
H80	H	-0.883580	0.454767	-0.000261
H81	H	-0.982037	0.477719	0.101851
H82	H	-0.982106	0.477826	-0.102040
H83	H	-0.866754	0.606120	0.101719
H84	H	-0.866905	0.606108	-0.102171
O85	O	-0.566457	0.510819	-0.000331
C86	C	-0.568181	0.645319	-0.126511
C87	C	-0.535605	0.556354	-0.126399
H88	H	-0.543235	0.682166	-0.228411
H89	H	-0.642034	0.637539	-0.126606
H90	H	-0.543340	0.682137	-0.024524
H91	H	-0.560383	0.519487	-0.228369
H92	H	-0.461753	0.564195	-0.126228
H93	H	-0.221985	0.707761	-0.000031
O94	O	-0.301302	0.259110	-0.000304
C95	C	-0.299575	0.124610	-0.126470
C96	C	-0.332151	0.213575	-0.126372
H97	H	-0.324518	0.087763	-0.228368
H98	H	-0.225722	0.132390	-0.126557
H99	H	-0.324418	0.087791	-0.024482
H100	H	-0.307370	0.250442	-0.228342
H101	H	-0.406003	0.205734	-0.126208
O102	O	-0.184096	0.405023	-0.000296
C103	C	-0.064510	0.352647	-0.126444
C104	C	-0.162465	0.360191	-0.126354
H105	H	-0.046993	0.316387	-0.228335
H106	H	-0.027063	0.419426	-0.126540
H107	H	-0.046964	0.316492	-0.024449
H108	H	-0.180090	0.396312	-0.228332
H109	H	-0.199857	0.293389	-0.126182
H110	H	-1.041522	1.152506	-0.000079
O111	O	-0.655311	0.655594	-0.000137
C112	C	-0.636222	0.505537	-0.000067
C113	C	-0.701032	0.572731	-0.000016
H114	H	-0.673162	0.438528	0.000062
H115	H	-0.593774	0.514121	-0.102038
H116	H	-0.593742	0.514225	0.101854
H117	H	-0.743568	0.564084	-0.101868
H118	H	-0.743420	0.564129	0.102022
O119	O	-0.683654	0.364911	-0.000339
C120	C	-0.803241	0.417279	-0.126509
C121	C	-0.705284	0.409746	-0.126400
H122	H	-0.820756	0.453543	-0.228403
H123	H	-0.840680	0.350498	-0.126613
H124	H	-0.820796	0.453427	-0.024516
H125	H	-0.687648	0.373633	-0.228376
H126	H	-0.667899	0.476551	-0.126220
H127	H	-0.699497	0.208892	-0.000077
H128	H	-1.151191	0.835254	-0.000044
O129	O	-0.265679	1.047432	0.373844
C130	C	-0.114236	1.064145	0.437862
C131	C	-0.208315	1.053817	0.494023
H132	H	-0.067831	1.069329	0.534997
H133	H	-0.102758	1.006152	0.368555
H134	H	-0.102472	1.124668	0.368437
H135	H	-0.220145	0.993327	0.563508
H136	H	-0.219747	1.111855	0.563250
H137	H	-0.505507	0.755847	0.639069
H138	H	-0.383397	1.093766	0.618209
H139	H	-0.168254	0.561049	-0.000039
O140	O	-0.396194	1.098101	0.366703
C141	C	-0.536374	1.149046	0.350234
C142	C	-0.482780	1.081311	0.414393
H143	H	-0.606393	1.135485	0.388740
H144	H	-0.508250	1.215461	0.388826
H145	H	-0.534161	1.146303	0.225535
H146	H	-0.484972	1.083975	0.539092
H147	H	-0.510921	1.014926	0.375686
H148	H	-0.645781	0.062164	-0.000082
H149	H	-1.203285	1.104633	-0.000052
O150	O	-0.711919	0.948446	-0.000264
C151	C	-0.709126	1.083412	-0.126533
C152	C	-0.742339	0.987222	-0.126463
H153	H	-0.733691	1.114787	-0.228569
H154	H	-0.733763	1.114895	-0.024664
H155	H	-0.635272	1.091752	-0.126461
H156	H	-0.816190	0.978805	-0.126587
H157	H	-0.717635	0.955786	-0.228324
O158	O	-1.095314	0.758815	0.000143
C159	C	-1.231149	0.761638	0.126375
C160	C	-1.133052	0.790627	0.126325
H161	H	-1.261686	0.787331	0.228397
H162	H	-1.261778	0.787400	0.024492
H163	H	-1.242596	0.688662	0.126313
H164	H	-1.121527	0.863597	0.126438
H165	H	-1.102472	0.764801	0.228199
H166	H	-0.786463	1.007067	-0.000061
H167	H	-0.826237	0.617435	-0.000044
H168	H	-0.280850	1.039184	0.624147
