data_functionalizedCrystal
_audit_creation_method	'MofGen! by Chris Wilmer'
_symmetry_space_group_name_H-M	'P1'
_symmetry_Int_Tables_number	1
_symmetry_cell_setting	triclinic
loop_
_symmetry_equiv_pos_as_xyz
  x,y,z
_cell_length_a	17.019282
_cell_length_b	8.559649
_cell_length_c	7.681481
_cell_angle_alpha	85.069100
_cell_angle_beta	99.572296
_cell_angle_gamma	76.599794
loop_
_atom_site_label
_atom_site_type_symbol
_atom_site_fract_x
_atom_site_fract_y
_atom_site_fract_z
O1	O	1.034958	0.202391	0.010571
O2	O	0.801694	0.232038	-0.024815
O3	O	0.938877	-0.015759	-0.004003
O4	O	0.897775	0.450188	-0.010242
O5	O	0.955766	-0.046327	0.291417
O6	O	0.818583	0.201470	0.270605
O7	O	1.051847	0.171823	0.305991
Zn8	Zn	0.937897	0.181793	0.335202
Zn9	Zn	0.915645	0.222068	-0.054027
O10	O	0.914664	0.419620	0.285178
C11	C	0.950436	-0.090629	0.144176
C12	C	0.959707	-0.268175	0.145573
C13	C	0.780552	0.216237	0.118406
C14	C	0.692395	0.214677	0.105033
C15	C	0.660190	0.197278	0.259788
C16	C	0.577361	0.195786	0.247227
C17	C	0.526736	0.211706	0.079910
C18	C	0.558947	0.229102	-0.074856
C19	C	0.641776	0.230582	-0.062294
C20	C	0.276185	0.208061	0.033923
C21	C	0.193350	0.206585	0.021372
C22	C	0.211770	0.173265	0.343457
C23	C	0.294599	0.174756	0.356005
C24	C	0.326804	0.192144	0.201239
C25	C	0.442070	0.210187	0.067067
C26	C	0.411470	0.193651	0.214084
C27	C	1.072989	0.187624	0.162765
C28	C	1.161145	0.189185	0.176127
C29	C	0.903105	0.494490	0.136995
C30	C	0.893833	0.672038	0.135587
N31	N	0.953089	0.154305	0.600841
N32	N	0.900459	0.249543	-0.319665
H33	H	0.830343	-0.243319	0.125961
H34	H	1.023203	-0.352830	0.155219
H35	H	1.006822	0.057102	0.684199
H36	H	0.551148	0.181591	0.373246
H37	H	0.701402	0.184327	0.396035
H38	H	0.152132	0.219554	-0.114884
H39	H	0.846736	0.346751	0.596988
H40	H	0.185540	0.159107	0.469459
H41	H	0.302396	0.222214	-0.092098
H42	H	0.335814	0.161785	0.492252
H43	H	0.517723	0.242053	-0.211089
H44	H	0.667995	0.244754	-0.188312
H45	H	0.452693	0.180682	0.350313
H46	H	0.400843	0.223148	-0.069163
