data_functionalizedCrystal
_audit_creation_method	'MofGen! by Chris Wilmer'
_symmetry_space_group_name_H-M	'P1'
_symmetry_Int_Tables_number	1
_symmetry_cell_setting	triclinic
loop_
_symmetry_equiv_pos_as_xyz
  x,y,z
_cell_length_a	16.959454
_cell_length_b	12.759395
_cell_length_c	12.759387
_cell_angle_alpha	89.977170
_cell_angle_beta	90.030080
_cell_angle_gamma	89.980571
loop_
_atom_site_label
_atom_site_type_symbol
_atom_site_fract_x
_atom_site_fract_y
_atom_site_fract_z
Zn1	Zn	-0.314653	-1.606229	0.594075
Zn2	Zn	-0.446854	-1.606104	0.418398
Zn3	Zn	-0.314692	-1.430528	0.418405
Zn4	Zn	-0.446792	-1.430504	0.594030
O5	O	-0.380748	-1.518341	0.506227
O6	O	-0.332200	-1.753234	0.570787
O7	O	-0.429364	-1.582771	0.271378
O8	O	-0.204076	-1.453898	0.441730
O9	O	-0.429327	-1.753141	0.441718
O10	O	-0.204048	-1.582985	0.570794
O11	O	-0.332265	-1.453776	0.271383
O12	O	-0.332205	-1.283503	0.441686
O13	O	-0.429222	-1.453857	0.741057
O14	O	-0.429259	-1.283486	0.570717
O15	O	-0.332140	-1.582962	0.741091
O16	O	-0.557456	-1.582747	0.441674
O17	O	-0.557411	-1.453734	0.570710
C18	C	-0.380730	-1.245374	0.506198
C19	C	-0.380742	-1.128597	0.506210
C20	C	-0.481982	-0.909193	0.640388
C21	C	-0.532588	-0.964075	0.707455
C22	C	-0.532581	-1.073797	0.707444
C23	C	-0.481963	-1.128639	0.640356
C24	C	-0.431356	-1.073757	0.573289
C25	C	-0.431368	-0.964033	0.573309
C26	C	-0.330135	-1.073715	0.439143
C27	C	-0.330138	-0.963993	0.439157
C28	C	-0.279517	-1.128557	0.372055
C29	C	-0.228906	-1.073675	0.304991
C30	C	-0.228915	-0.963947	0.305005
C31	C	-0.279532	-0.909111	0.372090
C32	C	-0.586114	-1.518253	0.506209
C33	C	-0.673971	-1.518312	0.506237
C34	C	-1.045453	-1.451262	0.573409
C35	C	-1.045440	-1.585713	0.439152
C36	C	-0.962894	-1.585676	0.439143
C37	C	-0.921624	-1.518430	0.506266
C38	C	-0.962899	-1.451221	0.573399
C39	C	-0.921612	-1.652877	0.372003
C40	C	-0.839061	-1.652842	0.371990
C41	C	-0.797789	-1.585601	0.439120
C42	C	-0.839070	-1.518389	0.506256
C43	C	-0.797800	-1.451143	0.573380
C44	C	-0.839079	-1.383936	0.640522
C45	C	-0.921627	-1.383979	0.640529
C46	C	-0.715241	-1.585558	0.439113
C47	C	-0.715246	-1.451102	0.573370
C48	C	-0.174580	-1.518458	0.506268
C49	C	-0.086723	-1.518508	0.506286
C50	C	-0.380670	-1.518420	0.780261
C51	C	-0.380637	-1.518454	0.897038
C52	C	-0.380761	-0.792374	0.506251
C53	C	-0.380756	-0.909151	0.506245
C54	C	-0.380768	-1.518322	0.233260
C55	C	-0.380578	-1.518492	0.116483
C56	C	-0.279553	-1.652900	0.897092
C57	C	-0.228998	-1.720138	0.951980
C58	C	-0.228970	-1.720164	1.061702
C59	C	-0.279499	-1.652942	1.116538
C60	C	-0.330053	-1.585704	1.061650
C61	C	-0.330078	-1.585688	0.951926
C62	C	-0.431132	-1.451254	1.061595
C63	C	-0.431166	-1.451233	0.951874
C64	C	-0.481662	-1.384033	1.116432
C65	C	-0.532221	-1.316799	1.061543
C66	C	-0.532248	-1.316777	0.951815
C67	C	-0.481721	-1.383995	0.896986
H68	H	-0.279518	-1.217898	0.372046
C69	C	-0.587790	-1.242855	1.121870
N70	N	-0.629646	-1.187158	1.167312
H71	H	-0.481741	-1.383988	0.807644
H72	H	-0.187700	-1.118336	0.250369
C73	C	-0.669856	-1.377137	0.647225
N74	N	-0.635668	-1.321429	0.702857
C75	C	-0.481990	-1.249336	0.640305
N76	N	-0.482019	-1.340246	0.640252
C77	C	-0.587862	-1.242807	0.891447
N78	N	-0.629752	-1.187091	0.845981
C79	C	-0.588265	-0.903741	0.781250
N80	N	-0.630200	-0.858300	0.836831
H81	H	-0.187857	-1.774867	0.907320
C82	C	-0.481991	-0.788497	0.640411
N83	N	-0.482000	-0.697586	0.640429
C84	C	-0.279546	-0.788415	0.372113
N85	N	-0.279561	-0.697504	0.372130
H86	H	-0.573791	-1.118482	0.762054
H87	H	-0.805467	-1.329179	0.695170
C88	C	-0.173242	-0.903585	0.231225
N89	N	-0.131307	-0.858125	0.175653
C90	C	-0.967041	-1.310046	0.714367
N91	N	-1.001249	-1.254355	0.769976
C92	C	-1.090840	-1.659669	0.365310
N93	N	-1.125038	-1.715375	0.309688
C94	C	-1.090860	-1.377333	0.647258
N95	N	-1.125062	-1.321647	0.702879
C96	C	-0.793661	-1.726764	0.298126
N97	N	-0.759466	-1.782442	0.242489
H98	H	-0.955220	-1.707618	0.317347
H99	H	-0.481631	-1.384054	1.205773
C100	C	-0.279585	-1.652886	0.776395
N101	N	-0.279607	-1.652876	0.685485
C102	C	-0.669838	-1.659482	0.365262
N103	N	-0.635641	-1.715169	0.309637
H104	H	-0.187799	-1.774908	1.106391
H105	H	-0.279464	-1.652960	1.205879
