data_functionalizedCrystal
_audit_creation_method	'MofGen! by Chris Wilmer'
_symmetry_space_group_name_H-M	'P1'
_symmetry_Int_Tables_number	1
_symmetry_cell_setting	triclinic
loop_
_symmetry_equiv_pos_as_xyz
  x,y,z
_cell_length_a	18.215407
_cell_length_b	21.295417
_cell_length_c	18.215399
_cell_angle_alpha	89.967650
_cell_angle_beta	90.017368
_cell_angle_gamma	89.966979
loop_
_atom_site_label
_atom_site_type_symbol
_atom_site_fract_x
_atom_site_fract_y
_atom_site_fract_z
Zn1	Zn	1.125017	0.250659	0.416045
Zn2	Zn	1.625017	0.750659	0.916045
Zn3	Zn	1.124903	0.355930	0.292969
Zn4	Zn	1.624903	0.855930	0.792969
Zn5	Zn	1.001950	0.250674	0.292998
Zn6	Zn	1.501950	0.750674	0.792998
Zn7	Zn	1.001893	0.355889	0.415999
Zn8	Zn	1.501893	0.855889	0.915999
O9	O	1.063441	0.303288	0.354503
O10	O	1.563441	0.803288	0.854503
O11	O	1.227986	0.264634	0.399726
O12	O	1.727986	0.764634	0.899726
O13	O	1.108569	0.341991	0.189989
O14	O	1.608569	0.841991	0.689989
O15	O	1.018347	0.162582	0.309351
O16	O	1.518347	0.662582	0.809351
O17	O	1.227902	0.341976	0.309303
O18	O	1.727902	0.841976	0.809303
O19	O	1.108764	0.162571	0.399753
O20	O	1.608764	0.662571	0.899753
O21	O	1.018236	0.264659	0.190010
O22	O	1.518236	0.764659	0.690010
O23	O	0.898958	0.264620	0.309307
O24	O	1.398958	0.764620	0.809307
O25	O	1.018249	0.341907	0.518990
O26	O	1.518249	0.841907	1.018990
O27	O	0.898916	0.341921	0.399676
O28	O	1.398916	0.841921	0.899676
O29	O	1.108709	0.264594	0.519023
O30	O	1.608709	0.764594	1.019023
O31	O	1.108513	0.444014	0.309258
O32	O	1.608513	0.944014	0.809258
O33	O	1.018138	0.443984	0.399648
O34	O	1.518138	0.943984	0.899648
C35	C	0.872234	0.303268	0.354490
C36	C	1.372234	0.803268	0.854490
C37	C	0.790435	0.303275	0.354502
C38	C	1.290435	0.803275	0.854502
C39	C	0.602284	0.263086	0.401660
C40	C	1.102284	0.763086	0.901660
C41	C	0.525426	0.263092	0.401662
C42	C	1.025426	0.763092	0.901662
C43	C	0.525349	0.343507	0.307359
C44	C	1.025349	0.843507	0.807359
C45	C	0.602206	0.343498	0.307353
C46	C	1.102206	0.843498	0.807353
C47	C	0.640672	0.303289	0.354508
C48	C	1.140672	0.803289	0.854508
C49	C	0.486956	0.303303	0.354516
C50	C	0.986956	0.803303	0.854516
C51	C	0.403622	0.303309	0.354518
C52	C	0.903622	0.803309	0.854518
C53	C	0.724011	0.303281	0.354505
C54	C	1.224011	0.803281	0.854505
C55	C	1.063327	0.466839	0.354461
C56	C	1.563327	0.966839	0.854461
C57	C	1.063346	0.536808	0.354468
C58	C	1.563346	1.036808	0.854468
C59	C	1.110395	0.569611	0.401574
C60	C	1.610395	1.069611	0.901574
C61	C	1.110413	0.635354	0.401590
C62	C	1.610413	1.135354	0.901590
C63	C	1.063390	0.668290	0.354488
C64	C	1.563390	1.168290	0.854488
C65	C	1.016331	0.635478	0.307379
C66	C	1.516331	1.135478	0.807379
C67	C	1.016309	0.569737	0.307370
C68	C	1.516309	1.069737	0.807370
N69	N	1.057819	0.771552	0.290079
N70	N	1.557819	1.271552	0.790079
N71	N	1.057844	0.834004	0.290091
N72	N	1.557844	1.334004	0.790091
C73	C	1.063452	0.866365	0.354516
C74	C	1.563452	1.366365	0.854516
N75	N	1.069049	0.833915	0.418931
N76	N	1.569049	1.333915	0.918931
N77	N	1.069027	0.771458	0.418919
N78	N	1.569027	1.271458	0.918919
C79	C	1.063408	0.739575	0.354494
C80	C	1.563408	1.239575	0.854494
C81	C	1.110524	0.970454	0.401643
C82	C	1.610524	1.470454	0.901643
C83	C	1.110536	1.036198	0.401661
C84	C	1.610536	1.536198	0.901661
C85	C	1.016458	1.036321	0.307444
C86	C	1.516458	1.536321	0.807444
C87	C	1.016442	0.970579	0.307433
C88	C	1.516442	1.470579	0.807433
C89	C	1.063478	0.937649	0.354532
C90	C	1.563478	1.437649	0.854532
C91	C	1.255393	0.303308	0.354516
C92	C	1.755393	0.803308	0.854516
C93	C	1.337192	0.303316	0.354522
C94	C	1.837192	0.803316	0.854522
C95	C	1.063485	0.303244	0.546456
C96	C	1.563485	0.803244	1.046456
C97	C	1.063505	0.303226	0.628255
C98	C	1.563505	0.803226	1.128255
C99	C	1.063544	1.139098	0.354554
C100	C	1.563544	1.639098	0.854554
C101	C	1.063512	1.069129	0.354560
C102	C	1.563512	1.569129	0.854560
C103	C	1.063438	0.303286	0.163297
C104	C	1.563438	0.803286	0.663297
C105	C	1.063562	0.303127	0.081498
C106	C	1.563562	0.803127	0.581498
C107	C	1.110624	0.262932	0.816467
C108	C	1.610624	0.762932	1.316467
C109	C	1.110632	0.262913	0.893326
C110	C	1.610632	0.762913	1.393326
C111	C	1.016438	0.343423	0.893280
C112	C	1.516438	0.843423	1.393280
C113	C	1.016426	0.343438	0.816423
C114	C	1.516426	0.843438	1.316423
C115	C	1.063523	0.303193	0.778018
C116	C	1.563523	0.803193	1.278018
C117	C	1.063544	0.303160	0.931734
C118	C	1.563544	0.803160	1.431734
C119	C	1.063553	0.303140	1.015068
C120	C	1.563553	0.803140	1.515068
C121	C	1.063513	0.303211	0.694679
C122	C	1.563513	0.803211	1.194679
H123	H	0.494174	0.230354	0.440057
H124	H	0.994174	0.730354	0.940057
O125	O	1.161161	0.670750	0.452395
O126	O	1.661161	1.170750	0.952395
H127	H	1.218923	0.658104	0.439813
H128	H	1.718923	1.158104	0.939813
H129	H	0.978094	0.376190	0.924558
H130	H	1.478094	0.876190	1.424558
H131	H	0.633462	0.376236	0.268953
H132	H	1.133462	0.876236	0.768953
H133	H	1.148971	0.230160	0.785201
H134	H	1.648971	0.730160	1.285201
H135	H	1.148985	0.230128	0.924628
H136	H	1.648985	0.730128	1.424628
O137	O	0.965601	0.386846	0.774944
O138	O	1.465601	0.886846	1.274944
H139	H	0.932853	0.414828	0.814559
H140	H	1.432853	0.914828	1.314559
O141	O	0.483856	0.386875	0.256505
O142	O	0.983856	0.886875	0.756505
H143	H	0.523464	0.414824	0.223711
H144	H	1.023464	0.914824	0.723711
O145	O	0.965613	0.671002	0.256578
O146	O	1.465613	1.171002	0.756578
H147	H	0.932887	0.637144	0.223823
H148	H	1.432887	1.137144	0.723823
O149	O	0.643776	0.219711	0.452506
O150	O	1.143776	0.719711	0.952506
H151	H	0.604167	0.191751	0.485287
H152	H	1.104167	0.691751	0.985287
H153	H	0.977995	0.543028	0.269010
H154	H	1.477995	1.043028	0.769010
O155	O	1.161138	0.534093	0.452357
O156	O	1.661138	1.034093	0.952357
H157	H	1.193860	0.567953	0.485113
H158	H	1.693860	1.067953	0.985113
H159	H	1.148821	0.943642	0.439996
H160	H	1.648821	1.443642	0.939996
H161	H	1.148850	1.062905	0.440023
H162	H	1.648850	1.562905	0.940023
O163	O	0.965741	1.071834	0.256635
O164	O	1.465741	1.571834	0.756635
H165	H	0.973664	1.123060	0.264551
H166	H	1.473664	1.623060	0.764551
H167	H	0.978133	0.943868	0.269072
H168	H	1.478133	1.443868	0.769072
