data_functionalizedCrystal
_audit_creation_method	'MofGen! by Chris Wilmer'
_symmetry_space_group_name_H-M	'P1'
_symmetry_Int_Tables_number	1
_symmetry_cell_setting	triclinic
loop_
_symmetry_equiv_pos_as_xyz
  x,y,z
_cell_length_a	9.065218
_cell_length_b	15.944564
_cell_length_c	7.540329
_cell_angle_alpha	90.006721
_cell_angle_beta	89.998391
_cell_angle_gamma	95.740090
loop_
_atom_site_label
_atom_site_type_symbol
_atom_site_fract_x
_atom_site_fract_y
_atom_site_fract_z
O1	O	1.957524	-0.123163	-0.147538
O2	O	1.528003	-0.133265	-0.147531
O3	O	1.754483	-0.006029	-0.147517
O4	O	1.731044	-0.250399	-0.147551
O5	O	1.754481	-0.006021	0.147448
O6	O	1.528002	-0.133258	0.147434
O7	O	1.957522	-0.123156	0.147427
Cu8	Cu	1.742762	-0.128206	0.174364
Cu9	Cu	1.742764	-0.128214	-0.174467
O10	O	1.731042	-0.250392	0.147414
C11	C	1.753506	0.025276	-0.000034
C12	C	1.750579	0.118544	-0.000032
C13	C	1.473039	-0.132290	-0.000047
C14	C	1.309263	-0.129387	-0.000044
C15	C	2.012487	-0.124130	-0.000060
C16	C	2.176262	-0.127033	-0.000075
C17	C	1.603194	0.334516	-0.000053
C18	C	1.671621	0.395018	0.145382
C19	C	1.745283	0.289309	-0.000045
C20	C	1.671656	0.394994	-0.145430
C21	C	1.740157	0.454259	-0.000064
C22	C	1.813749	0.348582	0.145511
C23	C	1.813764	0.348552	-0.145433
C24	C	1.882295	0.409036	0.000038
C25	C	1.748232	0.194285	-0.000032
C26	C	1.737220	0.549282	-0.000064
C27	C	1.731999	0.718302	-0.000071
C28	C	1.734867	0.625030	-0.000078
N29	N	1.742766	-0.128214	-0.419815
N30	N	1.742771	-0.128200	0.419712
H31	H	1.611522	0.415584	0.268338
N32	N	2.030355	0.449535	0.000114
N33	N	2.073960	0.497274	-0.124777
H34	H	2.178525	0.525879	-0.124718
N35	N	1.596272	0.420763	-0.299691
N36	N	1.662958	0.470047	-0.408600
H37	H	1.609712	0.488244	-0.517543
H38	H	1.873812	0.327964	-0.268394
N39	N	1.455243	0.293860	0.000135
N40	N	1.369250	0.306371	0.124822
H41	H	1.264761	0.277658	0.124963
N42	N	1.889081	0.322932	0.299913
N43	N	1.903435	0.246675	0.324870
H44	H	1.956633	0.228556	0.433917
