data_functionalizedCrystal
_audit_creation_method	'MofGen! by Chris Wilmer'
_symmetry_space_group_name_H-M	'P1'
_symmetry_Int_Tables_number	1
_symmetry_cell_setting	triclinic
loop_
_symmetry_equiv_pos_as_xyz
  x,y,z
_cell_length_a	6.817900
_cell_length_b	9.514072
_cell_length_c	19.453114
_cell_angle_alpha	92.251299
_cell_angle_beta	101.709288
_cell_angle_gamma	118.843421
loop_
_atom_site_label
_atom_site_type_symbol
_atom_site_fract_x
_atom_site_fract_y
_atom_site_fract_z
V1	V	-4.092146	-0.223881	-0.219553
O2	O	-3.991297	0.009038	-0.214808
O3	O	-4.127001	-0.442263	-0.218596
O4	O	-4.034036	-0.221192	-0.315060
O5	O	-4.084907	-0.213564	-0.117677
V6	V	-4.566244	-0.195932	-0.207302
O7	O	-4.374078	-0.285189	-0.246428
O8	O	-4.734508	-0.134623	-0.180427
O9	O	-4.308181	0.022450	-0.208259
O10	O	-4.784489	-0.428850	-0.212048
O11	O	-4.690880	-0.206249	-0.309179
O12	O	-4.401147	-0.198621	-0.111796
C13	C	-3.992570	-0.495476	-0.215273
C14	C	-4.102291	-0.674011	-0.215128
C15	C	-3.873981	-0.213476	-0.338321
C16	C	-3.908305	-0.212723	-0.416402
C17	C	-4.109285	-0.220430	-0.456678
C18	C	-4.141536	-0.219723	-0.530043
C19	C	-3.972815	-0.211340	-0.563131
C20	C	-3.771801	-0.203622	-0.522845
C21	C	-3.739545	-0.204314	-0.449480
N22	N	-3.945407	-0.296156	-0.682130
N23	N	-3.976063	-0.295503	-0.751824
C24	C	-4.069986	-0.209252	-0.784174
N25	N	-4.132138	-0.123701	-0.744199
N26	N	-4.101490	-0.124361	-0.674500
C27	C	-4.007770	-0.210588	-0.642682
C28	C	-4.305947	-0.216191	-0.904001
C29	C	-4.338184	-0.215472	-0.977367
C30	C	-3.968454	-0.199388	-0.970168
C31	C	-3.936212	-0.200090	-0.896803
C32	C	-4.104971	-0.208499	-0.863725
C33	C	-4.105958	0.075655	-0.211580
C34	C	-3.975476	0.254189	-0.211730
C35	C	-4.224546	-0.206341	-0.088531
C36	C	-4.169458	-0.207087	-0.010449
H37	H	-4.294833	-0.749142	-0.217949
N38	N	-4.554962	-0.223763	-1.020802
H39	H	-4.695011	-0.327477	-1.016677
H40	H	-4.549587	-0.221967	-1.072278
H41	H	-3.831069	-0.192548	-0.997107
H42	H	-3.772564	-0.193830	-0.864011
H43	H	-3.782941	-0.670685	-0.208899
N44	N	-4.291285	-0.229486	-0.420999
H45	H	-4.423500	-0.234256	-0.457651
H46	H	-4.221105	-0.130042	-0.383652
N47	N	-4.358326	-0.228038	-0.573492
H48	H	-4.498365	-0.331755	-0.569364
H49	H	-4.352939	-0.226257	-0.624967
N50	N	-3.589826	-0.194615	-0.558522
H51	H	-3.438541	-0.091150	-0.537118
H52	H	-3.640946	-0.195429	-0.611107
N53	N	-3.522764	-0.196013	-0.406041
H54	H	-3.565987	-0.296018	-0.382510
H55	H	-3.436391	-0.095809	-0.368412
N56	N	-4.487924	-0.225213	-0.868316
H57	H	-4.436999	-0.224487	-0.815728
H58	H	-4.639146	-0.328672	-0.889777
