data_functionalizedCrystal
_audit_creation_method	'MofGen! by Chris Wilmer'
_symmetry_space_group_name_H-M	'P1'
_symmetry_Int_Tables_number	1
_symmetry_cell_setting	triclinic
loop_
_symmetry_equiv_pos_as_xyz
  x,y,z
_cell_length_a	31.640172
_cell_length_b	14.395555
_cell_length_c	31.640172
_cell_angle_alpha	60.001541
_cell_angle_beta	90.004956
_cell_angle_gamma	59.990987
loop_
_atom_site_label
_atom_site_type_symbol
_atom_site_fract_x
_atom_site_fract_y
_atom_site_fract_z
Zr1	Zr	0.407138	1.016759	-0.055489
O2	O	0.339627	1.210599	-0.122978
O3	O	0.427837	0.822944	-0.034800
O4	O	0.427810	1.016775	-0.122980
O5	O	0.339671	1.016745	0.034760
O6	O	0.497366	1.016760	-0.122983
O7	O	0.339654	1.016767	-0.034797
O8	O	0.497414	0.670030	0.034756
O9	O	0.339623	1.363475	-0.122979
O10	O	0.488570	0.902642	-0.025979
O11	O	0.436673	0.902637	0.025933
O12	O	0.436642	1.130848	-0.077888
O13	O	0.384746	1.130844	-0.025976
Zr14	Zr	0.518100	1.016699	0.055443
Zr15	Zr	0.518072	1.016734	-0.055494
Zr16	Zr	0.407165	1.016724	0.055447
Zr17	Zr	0.407131	1.260578	-0.055491
Zr18	Zr	0.518106	0.772879	0.055444
O19	O	0.497400	1.210513	0.034753
O20	O	0.497361	1.210563	-0.122984
O21	O	0.339666	1.210549	0.034759
O22	O	0.585610	0.822858	0.122931
O23	O	0.585571	0.822908	-0.034806
O24	O	0.427876	0.822894	0.122937
O25	O	0.585566	1.016712	-0.034807
O26	O	0.497427	1.016682	0.122934
O27	O	0.427871	1.016698	0.122936
O28	O	0.585583	1.016690	0.034750
O29	O	0.427801	1.363455	-0.122982
O30	O	0.497436	0.670003	0.122935
O31	O	0.585614	0.669983	0.122932
O32	O	0.585592	0.670010	0.034752
O33	O	0.339645	1.363447	-0.034799
O34	O	0.427823	1.363427	-0.034802
O35	O	0.488595	0.902609	0.077841
O36	O	0.540492	0.902613	0.025929
O37	O	0.488564	1.130820	-0.025980
O38	O	0.436668	1.130816	0.025932
C39	C	0.462626	0.711748	-0.000022
C40	C	0.462629	0.608240	-0.000021
C41	C	0.490920	0.547665	-0.028331
C42	C	0.511444	0.409536	0.020477
C43	C	0.442108	0.561935	-0.048824
C44	C	0.483182	0.471412	0.048815
C45	C	0.413818	0.623885	-0.020521
C46	C	0.434330	0.485765	0.028316
C47	C	0.323857	1.016760	-0.000018
C48	C	0.276762	1.016771	-0.000016
C49	C	-0.015253	1.016717	-0.038342
C50	C	-0.192239	1.016701	-0.038346
O51	O	-0.215120	1.016653	-0.070923
N52	N	-0.214360	1.016691	-0.000027
C53	C	-0.192230	1.016677	0.038298
O54	O	-0.215103	1.016655	0.070894
C55	C	-0.015242	1.016684	0.038304
C56	C	0.006874	1.016707	-0.000021
C57	C	0.006864	1.016738	-0.076664
C58	C	0.051106	1.016750	-0.076664
C59	C	0.073232	1.016740	-0.038343
C60	C	0.051116	1.016718	-0.000021
C61	C	0.006889	1.016661	0.076631
C62	C	0.051140	1.016659	0.076629
C63	C	0.073256	1.016682	0.038304
C64	C	0.117484	1.016720	0.038299
N65	N	0.139606	1.016729	-0.000020
C66	C	0.117479	1.016739	-0.038341
C67	C	-0.285152	1.016676	0.038292
C68	C	-0.329399	1.016677	0.038290
C69	C	-0.329405	1.016698	-0.038354
C70	C	-0.285159	1.016706	-0.038354
C71	C	-0.263031	1.016685	-0.000027
C72	C	0.210391	1.016764	-0.038339
C73	C	0.254636	1.016781	-0.038337
C74	C	0.254639	1.016753	0.038308
C75	C	0.210397	1.016743	0.038305
C76	C	0.188275	1.016744	-0.000021
O77	O	0.140396	1.016753	0.070863
O78	O	0.140367	1.016732	-0.070925
C79	C	-0.059495	1.016706	-0.038342
C80	C	-0.081611	1.016684	-0.000021
C81	C	-0.059485	1.016674	0.038301
C82	C	-0.125858	1.016685	-0.000022
C83	C	-0.147985	1.016695	-0.038343
C84	C	-0.125864	1.016704	-0.076663
C85	C	-0.081621	1.016716	-0.076663
C86	C	-0.081606	1.016665	0.076620
C87	C	-0.125849	1.016655	0.076617
C88	C	-0.147975	1.016665	0.038296
C89	C	0.601380	1.016697	-0.000029
C90	C	0.648475	1.016687	-0.000031
C91	C	0.462584	1.016772	-0.138788
C92	C	0.462572	1.016787	-0.185883
C93	C	0.462611	1.321709	-0.000025
C94	C	0.462608	1.425217	-0.000025
C95	C	0.424302	1.016711	-0.522154
C96	C	0.424276	1.016751	-0.345173
O97	O	0.391696	1.016711	-0.322280
N98	N	0.462593	1.016748	-0.323040
C99	C	0.500921	1.016726	-0.345154
O100	O	0.533515	1.016710	-0.322265
C101	C	0.500949	1.016676	-0.522132
C102	C	0.462626	1.016693	-0.544265
C103	C	0.385983	1.016726	-0.544287
C104	C	0.385989	1.016723	-0.588531
C105	C	0.424313	1.016705	-0.610643
C106	C	0.462632	1.016690	-0.588510
C107	C	0.539278	1.016645	-0.544242
C108	C	0.539283	1.016629	-0.588489
C109	C	0.500960	1.016646	-0.610622
C110	C	0.500961	1.016669	-0.654865
N111	N	0.462644	1.016672	-0.676998
C112	C	0.424320	1.016690	-0.654886
C113	C	0.500904	1.016754	-0.252238
C114	C	0.500896	1.016769	-0.207995
C115	C	0.424252	1.016792	-0.208016
C116	C	0.424257	1.016787	-0.252263
C117	C	0.462587	1.016758	-0.274371
C118	C	0.424334	1.016685	-0.747803
C119	C	0.424341	1.016688	-0.792052
C120	C	0.500987	1.016658	-0.792025
C121	C	0.500978	1.016663	-0.747781
C122	C	0.462649	1.016672	-0.725670
O123	O	0.533527	1.016694	-0.677782
O124	O	0.391738	1.016677	-0.677777
C125	C	0.424297	1.016714	-0.477910
C126	C	0.462616	1.016699	-0.455777
C127	C	0.500940	1.016681	-0.477888
C128	C	0.462609	1.016713	-0.411533
C129	C	0.424285	1.016731	-0.389422
C130	C	0.385968	1.016735	-0.411554
C131	C	0.385973	1.016732	-0.455799
C132	C	0.539257	1.016677	-0.455755
C133	C	0.539248	1.016682	-0.411512
C134	C	0.500924	1.016700	-0.389400
C135	C	0.462653	1.016685	0.138741
C136	C	0.462665	1.016670	0.185837
C137	C	0.601388	0.711717	-0.000028
C138	C	0.648485	0.608199	-0.000029
C139	C	0.462661	0.711704	0.138743
C140	C	0.462675	0.608182	0.185838
C141	C	0.601423	0.711673	0.138737
C142	C	0.648532	0.608140	0.185831
C143	C	0.323814	1.321784	-0.138784
C144	C	0.276706	1.425317	-0.185878
C145	C	0.323849	1.321740	-0.000019
C146	C	0.276752	1.425259	-0.000018
C147	C	0.462576	1.321753	-0.138789
C148	C	0.462562	1.425275	-0.185885
C149	C	0.643500	0.559600	-0.027130
C150	C	0.687748	0.462347	-0.027141
C151	C	0.736981	0.413688	-0.000049
C152	C	0.741966	0.462296	0.027053
C153	C	0.697718	0.559554	0.027061
C154	C	0.489785	0.559552	0.235055
C155	C	0.489796	0.462295	0.279311
C156	C	0.462701	0.413663	0.274349
C157	C	0.435588	0.462303	0.225127
C158	C	0.435574	0.559565	0.180872
C159	C	0.697748	0.559522	0.180849
C160	C	0.742016	0.462255	0.225095
C161	C	0.737066	0.413601	0.274322
C162	C	0.687845	0.462229	0.279302
C163	C	0.643578	0.559500	0.235057
C164	C	0.227489	1.473947	-0.180896
C165	C	0.183221	1.571244	-0.225142
C166	C	0.188171	1.619903	-0.274369
C167	C	0.237393	1.571269	-0.279349
C168	C	0.281660	1.473981	-0.235104
C169	C	0.281738	1.473867	0.027078
C170	C	0.237489	1.571147	0.027078
C171	C	0.188256	1.619810	-0.000016
C172	C	0.183271	1.571197	-0.027116
C173	C	0.227519	1.473926	-0.027118
C174	C	0.489662	1.473876	-0.180907
C175	C	0.489659	1.571134	-0.225154
C176	C	0.462552	1.619795	-0.274380
C177	C	0.435450	1.571185	-0.279357
C178	C	0.435457	1.473922	-0.235110
H179	H	0.372556	0.715553	-0.037872
Cl180	Cl	0.523728	1.632231	-0.218884
Cl181	Cl	0.401529	0.401149	0.218898
Cl182	Cl	0.376080	1.016803	-0.280082
H183	H	0.701788	0.599122	0.140770
Cl184	Cl	0.401493	0.620680	0.119001
H185	H	0.773007	0.334493	-0.000060
H186	H	0.241417	1.610900	-0.319435
Cl187	Cl	0.792722	0.291313	0.329940
Cl188	Cl	0.462546	1.742074	-0.330000
Cl189	Cl	0.182591	1.016735	0.086482
H190	H	0.462717	0.334467	0.310388
H191	H	0.782091	0.422673	0.221030
Cl192	Cl	0.401379	1.412848	-0.241378
H193	H	0.223453	1.434351	-0.049181
H194	H	0.321733	1.434387	-0.239167
Cl195	Cl	0.401369	1.632386	-0.341245
Cl196	Cl	0.510039	0.413649	0.112564
Cl197	Cl	0.549092	1.016725	-0.280028
H198	H	0.683680	0.422782	-0.049211
H199	H	0.782058	0.422664	0.049110
Cl200	Cl	0.343626	1.412718	0.061141
Cl201	Cl	0.581611	0.620757	-0.061196
H202	H	0.683822	0.422600	0.319389
H203	H	0.511736	1.434271	-0.140829
H204	H	0.511849	0.599137	0.239106
H205	H	0.552715	0.317890	0.037817
Cl206	Cl	0.243767	1.632234	0.061151
H207	H	0.603505	0.599072	0.239121
H208	H	0.272660	1.016750	0.069508
H209	H	0.143147	1.610825	-0.221076
Cl210	Cl	0.527913	0.589487	-0.065230
Cl211	Cl	0.523886	0.401164	0.341184
Cl212	Cl	0.132634	1.742093	-0.000007
Cl213	Cl	0.221253	1.412795	-0.119016
Cl214	Cl	0.132515	1.742208	-0.329987
H215	H	-0.063618	1.016734	-0.107871
H216	H	0.143179	1.610833	-0.049175
H217	H	0.410402	0.458736	0.052288
H218	H	0.272641	1.016803	-0.069548
Cl219	Cl	0.415328	0.619381	-0.112540
H220	H	0.192385	1.016762	-0.069547
H221	H	-0.011147	1.016742	-0.107870
Cl222	Cl	0.078907	1.016765	-0.124843
H223	H	-0.267154	1.016724	-0.069561
Cl224	Cl	0.376147	1.016700	-0.720014
Cl225	Cl	-0.357203	1.016674	0.086466
Cl226	Cl	-0.357228	1.016707	-0.086528
H227	H	0.069155	1.016638	0.107841
H228	H	0.701784	0.599110	0.049133
Cl229	Cl	0.337788	1.016762	-0.383750
H230	H	0.393046	1.016810	-0.190007
Cl231	Cl	-0.257340	1.016656	0.086477
Cl232	Cl	-0.153689	1.016722	-0.124839
Cl233	Cl	-0.153648	1.016634	0.124800
Cl234	Cl	-0.053796	1.016655	0.124799
Cl235	Cl	0.376160	1.016712	-0.819875
Cl236	Cl	-0.020903	1.016627	0.124814
H237	H	0.354785	1.016731	-0.606549
H238	H	0.532097	1.016776	-0.189981
Cl239	Cl	0.337798	1.016749	-0.516498
H240	H	0.570497	1.016601	-0.606486
Cl241	Cl	0.587458	1.016619	-0.516426
Cl242	Cl	0.549152	1.016662	-0.719962
H243	H	0.354767	1.016745	-0.473816
Cl244	Cl	0.549163	1.016637	-0.819829
H245	H	0.570455	1.016679	-0.393496
H246	H	0.570466	1.016660	-0.473754
