data_functionalizedCrystal
_audit_creation_method	'MofGen! by Chris Wilmer'
_symmetry_space_group_name_H-M	'P1'
_symmetry_Int_Tables_number	1
_symmetry_cell_setting	triclinic
loop_
_symmetry_equiv_pos_as_xyz
  x,y,z
_cell_length_a	6.817900
_cell_length_b	12.200863
_cell_length_c	10.992410
_cell_angle_alpha	92.441369
_cell_angle_beta	108.764651
_cell_angle_gamma	107.143441
loop_
_atom_site_label
_atom_site_type_symbol
_atom_site_fract_x
_atom_site_fract_y
_atom_site_fract_z
V1	V	-4.105850	-0.158712	-0.400724
V2	V	-3.605850	0.341288	0.099276
O3	O	-4.072780	0.007627	-0.392961
O4	O	-3.572780	0.507627	0.107039
O5	O	-4.075174	-0.314700	-0.398112
O6	O	-3.575174	0.185300	0.101888
O7	O	-4.083571	-0.156271	-0.575434
O8	O	-3.583571	0.343729	-0.075434
O9	O	-4.064325	-0.151899	-0.214412
O10	O	-3.564325	0.348101	0.285588
V11	V	-4.583796	-0.138816	-0.378424
V12	V	-4.083796	0.361184	0.121576
O13	O	-4.379341	-0.202356	-0.449641
O14	O	-3.879341	0.297644	0.050359
O15	O	-4.760503	-0.095173	-0.329506
O16	O	-4.260503	0.404827	0.170494
O17	O	-4.391265	0.017171	-0.381035
O18	O	-3.891265	0.517171	0.118965
O19	O	-4.734263	-0.305156	-0.386186
O20	O	-4.234263	0.194844	0.113814
O21	O	-4.742718	-0.145630	-0.564736
O22	O	-4.242718	0.354370	-0.064736
O23	O	-4.382868	-0.141258	-0.203713
O24	O	-3.882868	0.358742	0.296287
C25	C	-3.923642	-0.352727	-0.391824
C26	C	-3.423642	0.147273	0.108176
C27	C	-3.980022	-0.480248	-0.390853
C28	C	-3.480022	0.019752	0.109147
C29	C	-4.083210	-0.713725	-0.389087
C30	C	-3.583210	-0.213725	0.110913
C31	C	-4.025781	-0.583802	-0.390070
C32	C	-3.525781	-0.083802	0.109930
C33	C	-3.934351	-0.150633	-0.618014
C34	C	-3.434351	0.349367	-0.118014
C35	C	-3.997537	-0.149669	-0.760842
C36	C	-3.497537	0.350331	-0.260842
C37	C	-3.865124	-0.140887	-0.955958
C38	C	-3.365124	0.359113	-0.455958
C39	C	-3.799496	-0.142364	-0.807476
C40	C	-3.299496	0.357636	-0.307476
C41	C	-4.189568	-0.262775	-0.838039
C42	C	-3.689568	0.237225	-0.338039
C43	C	-4.253934	-0.261775	-0.986604
C44	C	-3.753934	0.238225	-0.486604
C45	C	-4.143289	-0.042761	-0.948392
C46	C	-3.643289	0.457239	-0.448392
C47	C	-4.072609	-0.042225	-0.799379
C48	C	-3.572609	0.457775	-0.299379
C49	C	-4.206140	0.055192	-0.387320
C50	C	-3.706140	0.555192	0.112680
C51	C	-4.128999	0.182712	-0.388299
C52	C	-3.628999	0.682712	0.111701
C53	C	-4.195430	-0.146899	-0.161126
C54	C	-3.695430	0.353101	0.338874
C55	C	-4.111482	-0.147857	-0.018298
C56	C	-3.611482	0.352143	0.481702
H57	H	-3.655344	-0.061037	-0.754068
H58	H	-3.155344	0.438963	-0.254068
N59	N	-4.367541	-0.047912	-0.999659
N60	N	-3.867541	0.452088	-0.499659
N61	N	-4.454469	-0.044659	-1.117801
N62	N	-3.954469	0.455341	-0.617801
H63	H	-4.612848	-0.048304	-1.154018
H64	H	-4.112848	0.451696	-0.654018
H65	H	-4.044920	0.043129	-0.968680
H66	H	-3.544920	0.543129	-0.468680
N67	N	-3.898443	0.062733	-0.733604
N68	N	-3.398443	0.562733	-0.233604
N69	N	-3.719643	0.058511	-0.658604
N70	N	-3.219643	0.558511	-0.158604
H71	H	-3.596634	0.132636	-0.612137
H72	H	-3.096634	0.632636	-0.112137
N73	N	-4.481604	-0.274137	-1.040132
N74	N	-3.981604	0.225863	-0.540132
N75	N	-4.569667	-0.275617	-1.159303
N76	N	-4.069667	0.224383	-0.659303
H77	H	-4.730462	-0.284362	-1.197107
H78	H	-4.230462	0.215638	-0.697107
H79	H	-4.214792	-0.040897	-0.766866
H80	H	-3.714792	0.459103	-0.266866
H81	H	-4.234161	-0.341351	-1.032940
H82	H	-3.734161	0.158649	-0.532940
H83	H	-4.139585	-0.342547	-0.812499
H84	H	-3.639585	0.157453	-0.312499
N85	N	-3.723542	-0.038155	-0.979496
N86	N	-3.223542	0.461845	-0.479496
N87	N	-3.802544	0.031122	-1.042497
N88	N	-3.302544	0.531122	-0.542497
H89	H	-3.702554	0.103681	-1.059128
H90	H	-3.202554	0.603681	-0.559128
H91	H	-3.836191	-0.216399	-1.004012
H92	H	-3.336191	0.283601	-0.504012
H93	H	-3.738265	-0.218926	-0.782724
H94	H	-3.238265	0.281074	-0.282724
N95	N	-4.377581	-0.274594	-0.801913
N96	N	-3.877581	0.225406	-0.301913
N97	N	-4.372126	-0.199610	-0.718668
N98	N	-3.872126	0.300390	-0.218668
H99	H	-4.504909	-0.207954	-0.693151
H100	H	-4.004909	0.292046	-0.193151
