data_functionalizedCrystal
_audit_creation_method	'MofGen! by Chris Wilmer'
_symmetry_space_group_name_H-M	'P1'
_symmetry_Int_Tables_number	1
_symmetry_cell_setting	triclinic
loop_
_symmetry_equiv_pos_as_xyz
  x,y,z
_cell_length_a	6.817900
_cell_length_b	17.078472
_cell_length_c	23.125870
_cell_angle_alpha	81.338075
_cell_angle_beta	91.432141
_cell_angle_gamma	99.306020
loop_
_atom_site_label
_atom_site_type_symbol
_atom_site_fract_x
_atom_site_fract_y
_atom_site_fract_z
V1	V	-3.843288	-0.109289	0.180239
O2	O	-3.855676	0.005744	0.176868
O3	O	-3.775495	-0.217176	0.178949
O4	O	-3.724250	-0.107393	0.258874
O5	O	-3.907276	-0.104799	0.096390
V6	V	-4.338582	-0.095556	0.170217
O7	O	-4.078726	-0.139416	0.202223
O8	O	-4.553341	-0.065430	0.148233
O9	O	-4.183168	0.012330	0.171507
O10	O	-4.443590	-0.210589	0.173588
O11	O	-4.391990	-0.100046	0.254066
O12	O	-4.234413	-0.097453	0.091582
C13	C	-3.618064	-0.243483	0.176091
C14	C	-3.643451	-0.331680	0.175560
C15	C	-3.552695	-0.103442	0.278042
C16	C	-3.536524	-0.102605	0.342326
C17	C	-3.834118	-0.377148	0.178193
C18	C	-3.857960	-0.460019	0.177698
C19	C	-3.691133	-0.497419	0.174565
C20	C	-3.500451	-0.451945	0.171934
C21	C	-3.476611	-0.369077	0.172433
C22	C	-3.743266	-0.744828	0.172766
C23	C	-3.767122	-0.827702	0.172265
C24	C	-4.124630	-0.835770	0.178030
C25	C	-4.100773	-0.752899	0.178526
C26	C	-3.910094	-0.707433	0.175897
N27	N	-3.715500	-0.582126	0.174057
N28	N	-3.885729	-0.622729	0.176410
C29	C	-4.069297	-0.101404	0.072411
C30	C	-4.064624	-0.102256	0.006918
V31	V	-3.795344	-0.108108	-0.090885
O32	O	-3.741932	-0.103617	-0.174734
O33	O	-3.899517	-0.106213	-0.012250
O34	O	-3.950751	-0.215996	-0.092175
O35	O	-3.690342	0.006925	-0.094255
V36	V	-3.290622	-0.094369	-0.100905
O37	O	-3.580583	-0.138232	-0.068900
O38	O	-3.055184	-0.064241	-0.122889
O39	O	-3.409656	-0.096267	-0.179540
O40	O	-3.226637	-0.098859	-0.017056
O41	O	-3.278226	-0.209402	-0.097534
O42	O	-3.358422	0.013516	-0.099615
C43	C	-4.003942	0.038633	0.174364
C44	C	-3.957789	0.126830	0.174898
C45	C	-4.129977	-0.242300	-0.095032
C46	C	-4.176124	-0.330497	-0.095567
C47	C	-3.581210	-0.100219	-0.198709
C48	C	-3.597378	-0.101055	-0.262993
C49	C	-3.707629	-0.106168	0.375470
C50	C	-3.692423	-0.105381	0.435872
C51	C	-3.506111	-0.101037	0.463128
C52	C	-3.334992	-0.097472	0.429979
C53	C	-3.350199	-0.098253	0.369578
C54	C	-3.441467	-0.098271	0.643457
C55	C	-3.426273	-0.097492	0.703862
C56	C	-3.783705	-0.105400	0.709751
C57	C	-3.798896	-0.106186	0.649349
C58	C	-3.627777	-0.102616	0.616205
N59	N	-3.490564	-0.100235	0.524868
N60	N	-3.643324	-0.103413	0.554465
C61	C	-3.515853	0.039821	-0.096757
C62	C	-3.490464	0.128017	-0.096224
C63	C	-4.021815	-0.375949	-0.092937
C64	C	-4.065147	-0.458817	-0.093447
C65	C	-4.262789	-0.496233	-0.096584
C66	C	-4.417108	-0.450774	-0.099216
C67	C	-4.373775	-0.367906	-0.098709
C68	C	-3.657300	0.165409	-0.093095
C69	C	-3.633474	0.248280	-0.092603
C70	C	-3.442809	0.293758	-0.095235
C71	C	-3.275962	0.256361	-0.098365
C72	C	-3.299791	0.173492	-0.098862
H73	H	-3.969972	-0.346702	0.180738
O74	O	-3.813435	0.288602	-0.089207
H75	H	-3.950005	0.243048	-0.087444
H76	H	-3.274548	-0.093953	0.726052
O77	O	-3.999853	-0.110853	0.619956
H78	H	-4.096854	-0.166899	0.639108
H79	H	-3.163924	0.143054	-0.101405
O80	O	-4.063608	-0.509061	0.180529
H81	H	-4.175609	-0.469130	0.182781
O82	O	-4.330278	-0.884813	0.180867
H83	H	-4.442276	-0.844883	0.183125
H84	H	-3.120725	0.293401	-0.100509
H85	H	-3.860873	-0.345497	-0.090381
O86	O	-3.587183	-0.868050	0.168897
H87	H	-3.504097	-0.841844	0.128024
O88	O	-3.417143	0.383136	-0.094691
H89	H	-3.340950	0.415109	-0.135395
H90	H	-4.236625	-0.722455	0.181081
H91	H	-4.578030	-0.481251	-0.101768
O92	O	-3.537613	-0.695796	0.169925
H93	H	-3.510947	-0.666222	0.209610
H94	H	-3.302136	-0.095393	0.616481
H95	H	-3.812563	0.128391	-0.090951
O96	O	-3.320504	-0.492279	0.168561
H97	H	-3.369111	-0.557541	0.168652
H98	H	-3.321351	-0.332057	0.170292
H99	H	-3.183292	-0.093931	0.452175
O100	O	-3.898690	-0.507840	-0.090596
H101	H	-3.798643	-0.485484	-0.128699
O102	O	-3.908578	-0.110845	0.346072
H103	H	-4.024999	-0.113179	0.379268
H104	H	-3.831754	-0.108277	0.462855
H105	H	-4.499442	-0.330905	-0.100848
H106	H	-3.210862	-0.095333	0.342590
H107	H	-4.298046	-0.563709	-0.096999
H108	H	-3.923020	-0.108305	0.736743
