data_functionalizedCrystal
_audit_creation_method	'MofGen! by Chris Wilmer'
_symmetry_space_group_name_H-M	'P1'
_symmetry_Int_Tables_number	1
_symmetry_cell_setting	triclinic
loop_
_symmetry_equiv_pos_as_xyz
  x,y,z
_cell_length_a	12.759401
_cell_length_b	25.639240
_cell_length_c	12.759393
_cell_angle_alpha	90.044235
_cell_angle_beta	90.019613
_cell_angle_gamma	90.032989
loop_
_atom_site_label
_atom_site_type_symbol
_atom_site_fract_x
_atom_site_fract_y
_atom_site_fract_z
Zn1	Zn	1.606124	-0.208117	0.593920
Zn2	Zn	1.605963	-0.295563	0.418201
Zn3	Zn	1.430426	-0.208144	0.418256
Zn4	Zn	1.430359	-0.295523	0.593839
O5	O	1.518218	-0.251837	0.506054
O6	O	1.753123	-0.219722	0.570622
O7	O	1.582638	-0.283995	0.271188
O8	O	1.453828	-0.134975	0.441615
O9	O	1.753005	-0.283969	0.441522
O10	O	1.582912	-0.134955	0.570675
O11	O	1.453671	-0.219769	0.271228
O12	O	1.283396	-0.219730	0.441537
O13	O	1.453714	-0.283900	0.740871
O14	O	1.283347	-0.283927	0.570537
O15	O	1.582847	-0.219683	0.740931
O16	O	1.582573	-0.368723	0.441443
O17	O	1.453558	-0.368694	0.570484
C18	C	1.245250	-0.251827	0.506035
C19	C	1.128474	-0.251836	0.506051
C20	C	1.073554	-0.285236	0.438737
C21	C	0.963830	-0.285245	0.438755
C22	C	0.963955	-0.218450	0.573405
C23	C	1.073677	-0.218444	0.573391
C24	C	1.073480	-0.323798	0.360995
C25	C	0.963756	-0.323807	0.361014
C26	C	1.518069	-0.387680	0.505972
C27	C	1.518102	-0.445794	0.505972
C28	C	1.585465	-0.806108	0.573377
C29	C	1.585496	-0.860712	0.573398
O30	O	1.642595	-0.888907	0.630624
N31	N	1.518363	-0.888076	0.506156
C32	C	1.451188	-0.860833	0.438895
O33	O	1.394088	-0.889122	0.381703
C34	C	1.451152	-0.806230	0.438880
C35	C	1.518297	-0.778868	0.506119
C36	C	1.652604	-0.778746	0.640611
C37	C	1.652574	-0.724146	0.640588
C38	C	1.585406	-0.696907	0.573331
C39	C	1.518267	-0.724268	0.506096
C40	C	1.383972	-0.778988	0.371625
C41	C	1.383941	-0.724381	0.371617
C42	C	1.451086	-0.697019	0.438856
C43	C	1.451069	-0.642428	0.438816
N44	N	1.518202	-0.615064	0.506058
C45	C	1.585370	-0.642303	0.573316
C46	C	1.451266	-0.975504	0.438934
C47	C	1.451306	-1.030106	0.438943
C48	C	1.585614	-1.029981	0.573448
C49	C	1.585578	-0.975378	0.573432
C50	C	1.518399	-0.948139	0.506176
C51	C	1.585303	-0.527638	0.573262
C52	C	1.585270	-0.473033	0.573229
C53	C	1.450959	-0.473162	0.438729
C54	C	1.450995	-0.527763	0.438757
C55	C	1.518171	-0.555000	0.506032
O56	O	1.393997	-0.614198	0.381622
O57	O	1.642450	-0.614007	0.630508
C58	C	1.792251	-0.251847	0.506075
C59	C	1.909027	-0.251851	0.506083
C60	C	1.518291	-0.251784	0.780088
C61	C	1.518323	-0.251762	0.896865
C62	C	1.518395	-0.115464	0.506160
C63	C	1.518471	-0.057350	0.506205
C64	C	1.518205	-0.251852	0.233087
C65	C	1.518377	-0.251727	0.116311
C66	C	1.585572	-0.218321	0.951759
C67	C	1.585597	-0.218302	1.061483
C68	C	1.451120	-0.285170	1.061409
C69	C	1.451091	-0.285185	0.951686
C70	C	1.663214	-0.179717	0.951803
C71	C	1.663239	-0.179698	1.061527
H72	H	1.103228	-0.364303	0.382623
H73	H	1.396381	-0.312381	1.106058
H74	H	1.118389	-0.191252	0.628215
H75	H	1.634149	-0.141225	1.095592
H76	H	0.919327	-0.191263	0.628230
H77	H	1.641471	-0.139226	0.922065
H78	H	1.107490	-0.309245	0.283756
H79	H	0.929704	-0.362294	0.390008
H80	H	0.933949	-0.312914	0.279690
H81	H	1.740476	-0.194232	0.917762
H82	H	1.639951	-0.450757	0.627984
H83	H	1.639996	-0.549808	0.628050
H84	H	1.707246	-0.701871	0.695343
H85	H	1.707300	-0.800919	0.695387
H86	H	1.640253	-0.953103	0.628185
H87	H	1.396274	-0.450976	0.383966
H88	H	1.744603	-0.190543	1.091302
H89	H	1.396641	-1.052379	0.384179
H90	H	1.640304	-1.052169	0.628214
H91	H	1.396329	-0.550042	0.383997
H92	H	1.396327	-0.312415	0.906995
H93	H	1.396564	-0.953329	0.384157
H94	H	1.329295	-0.801256	0.316872
H95	H	1.329233	-0.702206	0.316850
