data_functionalizedCrystal
_audit_creation_method	'MofGen! by Chris Wilmer'
_symmetry_space_group_name_H-M	'P1'
_symmetry_Int_Tables_number	1
_symmetry_cell_setting	triclinic
loop_
_symmetry_equiv_pos_as_xyz
  x,y,z
_cell_length_a	14.853567
_cell_length_b	14.853567
_cell_length_c	7.681481
_cell_angle_alpha	84.253558
_cell_angle_beta	95.734544
_cell_angle_gamma	83.634930
loop_
_atom_site_label
_atom_site_type_symbol
_atom_site_fract_x
_atom_site_fract_y
_atom_site_fract_z
O1	O	1.187859	0.126221	-0.146293
O2	O	0.925398	0.140244	-0.146321
O3	O	1.063639	0.002003	-0.146311
O4	O	1.049618	0.264462	-0.146302
O5	O	1.080654	-0.015051	0.146547
O6	O	0.942413	0.123190	0.146538
O7	O	1.204874	0.109167	0.146566
Zn8	Zn	1.076345	0.113471	0.193050
Zn9	Zn	1.053927	0.135940	-0.192805
O10	O	1.066633	0.247408	0.146557
C11	C	0.900317	0.131082	0.000105
C12	C	0.800232	0.129179	0.000093
C13	C	0.387701	0.039011	0.000129
C14	C	0.366420	0.203244	0.000133
C15	C	0.460453	0.205034	0.000128
C16	C	0.518115	0.123812	0.000120
C17	C	0.481743	0.040799	0.000118
C18	C	0.496831	0.288046	0.000112
C19	C	0.590870	0.289840	0.000104
C20	C	0.648534	0.208616	0.000109
C21	C	0.612157	0.125600	0.000109
C22	C	0.669818	0.044378	0.000102
C23	C	0.633444	-0.038640	0.000115
C24	C	0.539407	-0.040425	0.000124
C25	C	0.742571	0.210401	0.000100
C26	C	0.763860	0.046166	0.000091
C27	C	1.071511	-0.040112	0.000113
C28	C	1.069606	-0.140195	0.000097
C29	C	0.979442	-0.552730	0.000121
C30	C	1.143676	-0.574012	0.000139
C31	C	1.145465	-0.479978	0.000129
C32	C	1.064242	-0.422315	0.000117
C33	C	0.981229	-0.458687	0.000116
C34	C	1.228478	-0.443600	0.000147
C35	C	1.230271	-0.349560	0.000139
C36	C	1.149046	-0.291895	0.000115
C37	C	1.066029	-0.328272	0.000112
C38	C	0.984806	-0.270610	0.000101
C39	C	0.901788	-0.306984	0.000086
C40	C	0.900004	-0.401022	0.000092
C41	C	1.150829	-0.197858	0.000109
C42	C	0.986594	-0.176567	0.000096
C43	C	1.229955	0.118329	0.000137
C44	C	1.330039	0.120233	0.000137
C45	C	1.058761	0.289524	0.000128
C46	C	1.060665	0.389607	0.000132
N47	N	1.091652	0.098136	0.456385
N48	N	1.038628	0.151268	-0.456140
H49	H	0.772183	0.277993	0.000093
Cl50	Cl	1.255188	-0.152135	0.000161
Cl51	Cl	0.955058	0.235000	0.427759
H52	H	1.145788	0.043907	0.531595
H53	H	0.920450	-0.129623	0.000079
Cl54	Cl	0.836343	-0.055949	0.000095
H55	H	0.680403	-0.104770	0.000097
Cl56	Cl	0.799684	-0.234485	0.000086
H57	H	0.509784	-0.108016	0.000176
Cl58	Cl	0.795649	-0.446756	0.000068
H59	H	1.294606	-0.490556	0.000173
H60	H	0.358080	-0.028580	0.000146
Cl61	Cl	0.293930	0.305347	0.000119
Cl62	Cl	0.636590	0.394202	0.000094
H63	H	0.911850	-0.582350	0.000101
Cl64	Cl	0.424339	0.390148	0.000092
H65	H	1.209805	-0.620967	0.000162
H66	H	1.297868	-0.319953	0.000150
