data_functionalizedCrystal
_audit_creation_method	'MofGen! by Chris Wilmer'
_symmetry_space_group_name_H-M	'P1'
_symmetry_Int_Tables_number	1
_symmetry_cell_setting	triclinic
loop_
_symmetry_equiv_pos_as_xyz
  x,y,z
_cell_length_a	12.594517
_cell_length_b	12.594516
_cell_length_c	12.759393
_cell_angle_alpha	90.029124
_cell_angle_beta	90.014978
_cell_angle_gamma	90.016010
loop_
_atom_site_label
_atom_site_type_symbol
_atom_site_fract_x
_atom_site_fract_y
_atom_site_fract_z
Zn1	Zn	1.627274	-0.423681	0.593901
Zn2	Zn	1.627163	-0.601700	0.418228
Zn3	Zn	1.449276	-0.423736	0.418251
Zn4	Zn	1.449260	-0.601617	0.593880
O5	O	1.538243	-0.512683	0.506065
O6	O	1.776205	-0.447307	0.570596
O7	O	1.603526	-0.578150	0.271210
O8	O	1.472941	-0.274783	0.441569
O9	O	1.776123	-0.578097	0.441530
O10	O	1.603715	-0.274742	0.570618
O11	O	1.472833	-0.447401	0.271227
O12	O	1.300328	-0.447321	0.441549
O13	O	1.472914	-0.577956	0.740904
O14	O	1.300316	-0.578009	0.570584
O15	O	1.603700	-0.447227	0.740919
O16	O	1.603510	-0.750635	0.441511
O17	O	1.472806	-0.750574	0.570562
C18	C	1.261702	-0.512663	0.506067
C19	C	1.143397	-0.512680	0.506093
C20	C	1.003405	-0.583890	0.576145
C21	C	1.074174	-0.609803	0.480260
C22	C	1.074199	-0.486814	0.601968
C23	C	1.003381	-0.538677	0.410126
C24	C	1.003399	-0.415644	0.531899
C25	C	1.074137	-0.441519	0.435948
C26	C	1.538173	-0.789224	0.506055
C27	C	1.538241	-0.907530	0.506085
C28	C	1.467144	-0.976789	0.576227
C29	C	1.441209	-1.047659	0.480362
C30	C	1.564272	-1.047458	0.601967
C31	C	1.512255	-0.976842	0.410170
C32	C	1.635363	-0.976635	0.531839
C33	C	1.609466	-1.047474	0.435908
C34	C	1.815864	-0.512705	0.506063
C35	C	1.934169	-0.512714	0.506062
C36	C	1.538318	-0.512576	0.780098
C37	C	1.538349	-0.512530	0.896875
C38	C	1.538342	-0.235063	0.506098
C39	C	1.538384	-0.116757	0.506112
C40	C	1.538230	-0.512714	0.233098
C41	C	1.538405	-0.512459	0.116321
C42	C	1.606459	-0.444453	0.951747
C43	C	1.606484	-0.444415	1.061471
C44	C	1.470287	-0.580540	1.061442
C45	C	1.470257	-0.580572	0.951720
C46	C	1.685095	-0.365865	0.951764
C47	C	1.685120	-0.365827	1.061488
H48	H	0.972348	-0.644142	0.635324
N49	N	1.396795	-0.653998	0.892539
H50	H	1.407105	-0.643696	0.814708
H51	H	1.320791	-0.637412	0.911722
H52	H	1.663043	-0.283436	0.922006
H53	H	0.972404	-0.560668	0.329010
H54	H	1.105261	-0.691879	0.458412
H55	H	1.104998	-0.381313	0.376626
H56	H	1.490201	-0.945951	0.329073
N57	N	0.962217	-0.306938	0.560849
H58	H	0.987943	-0.287443	0.633330
H59	H	0.882035	-0.307634	0.559885
H60	H	1.414847	-0.635935	1.106110
H61	H	1.669651	-1.078314	0.376535
N62	N	1.115412	-0.457810	0.709379
H63	H	1.089681	-0.511640	0.762244
H64	H	1.088553	-0.385006	0.729336
N65	N	1.387358	-0.935663	0.654672
H66	H	1.388346	-0.855476	0.654576
H67	H	1.406253	-0.962527	0.726873
N68	N	1.332498	-1.088973	0.451499
H69	H	1.278786	-1.063266	0.504510
H70	H	1.333623	-1.169154	0.451034
N71	N	1.744048	-0.935280	0.560715
H72	H	1.763595	-0.960919	0.633183
H73	H	1.743274	-0.855100	0.559750
H74	H	1.767555	-0.387905	1.091262
H75	H	1.586232	-1.078478	0.683042
H76	H	1.763377	-0.395416	0.917724
H77	H	1.655627	-0.287506	1.095534
