data_functionalizedCrystal
_audit_creation_method	'MofGen! by Chris Wilmer'
_symmetry_space_group_name_H-M	'P1'
_symmetry_Int_Tables_number	1
_symmetry_cell_setting	triclinic
loop_
_symmetry_equiv_pos_as_xyz
  x,y,z
_cell_length_a	10.685194
_cell_length_b	12.827893
_cell_length_c	10.686551
_cell_angle_alpha	94.396973
_cell_angle_beta	81.584560
_cell_angle_gamma	85.624958
loop_
_atom_site_label
_atom_site_type_symbol
_atom_site_fract_x
_atom_site_fract_y
_atom_site_fract_z
Zn1	Zn	-0.450293	-1.612302	-0.678969
Zn2	Zn	-0.678903	-1.583179	-0.450432
Zn3	Zn	-0.466641	-1.423013	-0.466725
Zn4	Zn	-0.662512	-1.423042	-0.662635
O5	O	-0.564587	-1.510384	-0.564690
O6	O	-0.480637	-1.754675	-0.648670
O7	O	-0.664448	-1.549732	-0.274960
O8	O	-0.286826	-1.460299	-0.508535
O9	O	-0.648596	-1.733278	-0.480765
O10	O	-0.274815	-1.599369	-0.664470
O11	O	-0.508500	-1.432059	-0.286931
O12	O	-0.492606	-1.276781	-0.492696
O13	O	-0.620659	-1.460348	-0.842434
O14	O	-0.636511	-1.276802	-0.636629
O15	O	-0.464743	-1.599397	-0.854435
O16	O	-0.854375	-1.549760	-0.464926
O17	O	-0.842333	-1.432108	-0.620830
C18	C	-0.564554	-1.238874	-0.564659
C19	C	-0.564568	-1.122721	-0.564673
C20	C	-0.647567	-1.060350	-0.481493
C21	C	-0.647583	-0.940299	-0.481506
C22	C	-0.894414	-1.487807	-0.539365
C23	C	-1.035511	-1.478247	-0.528573
C24	C	-0.233471	-1.533080	-0.590142
C25	C	-0.092369	-1.542751	-0.600988
C26	C	-0.539049	-1.533124	-0.895780
C27	C	-0.528166	-1.542815	-1.036872
C28	C	-0.564612	-0.782954	-0.564713
C29	C	-0.564598	-0.899107	-0.564698
C30	C	-0.589935	-1.487799	-0.234895
C31	C	-0.600461	-1.478335	-0.093832
H32	H	-0.718616	-1.095828	-0.410273
O33	O	-1.106336	-1.403573	-0.444920
C34	C	-1.257569	-1.251217	-0.416358
C35	C	-1.177454	-1.335736	-0.511225
H36	H	-1.315068	-1.196335	-0.469931
H37	H	-1.324824	-1.290460	-0.345358
H38	H	-1.192047	-1.204241	-0.363550
H39	H	-1.242878	-1.382740	-0.564122
H40	H	-1.110187	-1.296429	-0.582142
O41	O	-1.021717	-1.617265	-0.684982
C42	C	-0.964179	-1.685459	-0.904050
C43	C	-1.044248	-1.600998	-0.809066
H44	H	-0.982388	-1.672350	-1.004389
H45	H	-0.859140	-1.680143	-0.898228
H46	H	-0.991801	-1.766467	-0.879830
H47	H	-1.016737	-1.519951	-0.833222
H48	H	-1.149268	-1.606407	-0.814906
O49	O	-0.684132	-1.403657	-1.023062
C50	C	-0.771724	-1.325655	-0.813177
C51	C	-0.676892	-1.410258	-0.893182
H52	H	-0.765922	-1.330977	-0.708153
H53	H	-0.747443	-1.244654	-0.840777
H54	H	-0.872087	-1.338748	-0.831381
H55	H	-0.576496	-1.397263	-0.875020
H56	H	-0.701282	-1.491229	-0.865568
O57	O	-0.444243	-1.617388	-1.107526
C58	C	-0.261469	-1.653368	-1.270581
C59	C	-0.356406	-1.568810	-1.190632
H60	H	-0.190445	-1.614127	-1.337810
H61	H	-0.208692	-1.700344	-1.205069
H62	H	-0.315052	-1.708249	-1.328116
H63	H	-0.302921	-1.513859	-1.133087
H64	H	-0.409182	-1.521912	-1.256213
O65	O	-0.732311	-0.876216	-0.396667
C66	C	-0.809497	-0.698131	-0.319243
C67	C	-0.713490	-0.770586	-0.415413
H68	H	-0.794296	-0.612714	-0.334348
H69	H	-0.910237	-0.713971	-0.333480
H70	H	-0.794977	-0.714079	-0.218632
H71	H	-0.727893	-0.754680	-0.516062
H72	H	-0.612784	-0.754732	-0.401065
H73	H	-0.493531	-0.952698	-0.635911
H74	H	-0.493526	-1.087243	-0.635900
