data_functionalizedCrystal
_audit_creation_method	'MofGen! by Chris Wilmer'
_symmetry_space_group_name_H-M	'P1'
_symmetry_Int_Tables_number	1
_symmetry_cell_setting	triclinic
loop_
_symmetry_equiv_pos_as_xyz
  x,y,z
_cell_length_a	14.853558
_cell_length_b	14.519709
_cell_length_c	13.596369
_cell_angle_alpha	89.993066
_cell_angle_beta	89.995202
_cell_angle_gamma	83.655639
loop_
_atom_site_label
_atom_site_type_symbol
_atom_site_fract_x
_atom_site_fract_y
_atom_site_fract_z
O1	O	1.196418	0.120366	-0.081782
O2	O	1.696418	0.620366	0.418218
O3	O	0.933962	0.134718	-0.081786
O4	O	1.433962	0.634718	0.418214
O5	O	1.072149	-0.006699	-0.081775
O6	O	1.572149	0.493301	0.418225
O7	O	1.058231	0.261784	-0.081793
O8	O	1.558231	0.761784	0.418207
O9	O	1.072135	-0.006707	0.081808
O10	O	1.572135	0.493293	0.581808
O11	O	0.933949	0.134711	0.081797
O12	O	1.433949	0.634711	0.581797
O13	O	1.196404	0.120359	0.081801
O14	O	1.696404	0.620359	0.581801
Zn15	Zn	1.065174	0.127533	0.107771
Zn16	Zn	1.565174	0.627533	0.607771
Zn17	Zn	1.065192	0.127543	-0.107756
Zn18	Zn	1.565192	0.627543	0.392244
O19	O	1.058218	0.261776	0.081790
O20	O	1.558218	0.761776	0.581790
C21	C	0.900366	0.134066	0.000005
C22	C	1.400366	0.634066	0.500005
C23	C	0.800282	0.132122	0.000003
C24	C	1.300282	0.632122	0.500003
C25	C	0.753269	0.131214	-0.089170
C26	C	1.253269	0.631214	0.410830
C27	C	0.753252	0.131195	0.089175
C28	C	1.253252	0.631195	0.589175
C29	C	0.659218	0.129363	0.089176
C30	C	1.159218	0.629363	0.589176
C31	C	0.612205	0.128456	0.000004
C32	C	1.112205	0.628456	0.500004
C33	C	0.659226	0.129379	-0.089171
C34	C	1.159226	0.629379	0.410829
C35	C	0.612190	0.128430	0.178349
C36	C	1.112190	0.628430	0.678349
C37	C	0.518150	0.126597	0.178355
C38	C	1.018150	0.626597	0.678355
C39	C	0.471135	0.125696	0.089181
C40	C	0.971135	0.625696	0.589181
C41	C	0.518162	0.126621	0.000003
C42	C	1.018162	0.626621	0.500003
C43	C	0.471149	0.125713	-0.089170
C44	C	0.971149	0.625713	0.410830
C45	C	0.518173	0.126645	-0.178349
C46	C	1.018173	0.626645	0.321651
C47	C	0.612210	0.128478	-0.178345
C48	C	1.112210	0.628478	0.321655
C49	C	0.377098	0.123863	0.089176
C50	C	0.877098	0.623863	0.589176
C51	C	0.377106	0.123879	-0.089171
C52	C	0.877106	0.623879	0.410829
C53	C	1.071493	-0.041063	0.000017
C54	C	1.571493	0.458937	0.500017
C55	C	1.069550	-0.143443	0.000017
C56	C	1.569550	0.356557	0.500017
C57	C	1.062394	-0.518336	-0.000009
C58	C	1.562394	-0.018336	0.499991
C59	C	1.064381	-0.414029	-0.000001
C60	C	1.564381	0.085971	0.499999
C61	C	1.065972	-0.330893	0.000005
C62	C	1.565972	0.169107	0.500005
C63	C	1.067959	-0.226579	0.000011
C64	C	1.567959	0.273421	0.500011
C65	C	1.230000	0.121011	0.000008
C66	C	1.730000	0.621011	0.500008
C67	C	1.330085	0.122955	0.000003
C68	C	1.830085	0.622955	0.500003
C69	C	1.058873	0.296139	-0.000004
C70	C	1.558873	0.796139	0.499996
C71	C	1.060817	0.398520	-0.000011
C72	C	1.560817	0.898520	0.499989
N73	N	1.065168	0.127526	0.254863
N74	N	1.565168	0.627526	0.754863
N75	N	1.065205	0.127543	-0.254848
N76	N	1.565205	0.627543	0.245152
C77	C	1.065191	0.127544	0.656154
C78	C	1.565191	0.627544	1.156154
C79	C	1.065182	0.127542	0.544503
C80	C	1.565182	0.627542	1.044503
C81	C	1.065180	0.127536	0.455512
C82	C	1.565180	0.627536	0.955512
C83	C	1.065170	0.127533	0.343854
C84	C	1.565170	0.627533	0.843854
H85	H	0.650506	0.129235	-0.250949
H86	H	1.150506	0.629235	0.249051
H87	H	0.479884	0.125901	-0.250953
H88	H	0.979884	0.625901	0.249047
C89	C	0.466424	0.125582	0.276446
C90	C	0.966424	0.625582	0.776446
C91	C	0.411882	0.044305	0.300974
C92	C	0.911882	0.544305	0.800974
C93	C	0.360153	0.043294	0.399064
C94	C	0.860153	0.543294	0.899064
C95	C	0.362966	0.123559	0.472627
C96	C	0.862966	0.623559	0.972627
C97	C	0.417511	0.204842	0.448100
C98	C	0.917511	0.704842	0.948100
C99	C	0.469240	0.205853	0.350010
C100	C	0.969240	0.705853	0.850010
H101	H	0.409798	-0.015118	0.246517
H102	H	0.909798	0.484882	0.746517
H103	H	0.319775	-0.016878	0.417220
H104	H	0.819775	0.483122	0.917220
H105	H	0.324673	0.122810	0.545239
H106	H	0.824673	0.622810	1.045239
H107	H	0.419595	0.264264	0.502557
H108	H	0.919595	0.764264	1.002557
H109	H	0.509617	0.266025	0.331854
H110	H	1.009617	0.766025	0.831854
C111	C	0.663876	0.129470	0.276447
C112	C	1.163876	0.629470	0.776447
C113	C	0.661062	0.049221	0.350051
C114	C	1.161062	0.549221	0.850051
C115	C	0.712740	0.050284	0.448160
C116	C	1.212740	0.550284	0.948160
C117	C	0.767232	0.131597	0.472665
C118	C	1.267232	0.631597	0.972665
C119	C	0.770048	0.211852	0.399060
C120	C	1.270048	0.711852	0.899060
C121	C	0.718371	0.210789	0.300951
C122	C	1.218371	0.710789	0.800951
H123	H	0.620722	-0.010977	0.331912
H124	H	1.120722	0.489023	0.831912
H125	H	0.710655	-0.009127	0.502647
H126	H	1.210655	0.490873	1.002647
H127	H	0.805487	0.132384	0.545291
H128	H	1.305487	0.632384	1.045291
H129	H	0.810389	0.272050	0.417199
H130	H	1.310389	0.772050	0.917199
H131	H	0.720456	0.270200	0.246464
H132	H	1.220456	0.770200	0.746464
H133	H	0.338834	0.123145	-0.161787
H134	H	0.838834	0.623145	0.338213
C135	C	0.804991	0.132240	-0.187262
C136	C	1.304991	0.632240	0.312738
C137	C	0.879758	0.053491	-0.211794
C138	C	1.379758	0.553491	0.288206
C139	C	0.931482	0.054519	-0.309887
C140	C	1.431482	0.554519	0.190113
C141	C	0.908438	0.134295	-0.383448
C142	C	1.408438	0.634295	0.116552
C143	C	0.833666	0.213051	-0.358918
C144	C	1.333666	0.713051	0.141082
C145	C	0.781943	0.212023	-0.260825
C146	C	1.281943	0.712023	0.239175
H147	H	0.896820	-0.005570	-0.157338
H148	H	1.396820	0.494430	0.342662
H149	H	0.986833	-0.003782	-0.328045
H150	H	1.486833	0.496218	0.171955
H151	H	0.946726	0.135056	-0.456062
H152	H	1.446726	0.635056	0.043938
H153	H	0.816604	0.272112	-0.413374
H154	H	1.316604	0.772112	0.086626
H155	H	0.726592	0.270323	-0.242667
H156	H	1.226592	0.770323	0.257333
H157	H	0.791536	0.131927	0.161775
H158	H	1.291536	0.631927	0.661775
H159	H	0.338813	0.123113	0.161784
H160	H	0.838813	0.623113	0.661784
