data_functionalizedCrystal
_audit_creation_method	'MofGen! by Chris Wilmer'
_symmetry_space_group_name_H-M	'P1'
_symmetry_Int_Tables_number	1
_symmetry_cell_setting	triclinic
loop_
_symmetry_equiv_pos_as_xyz
  x,y,z
_cell_length_a	6.817900
_cell_length_b	17.078472
_cell_length_c	11.102193
_cell_angle_alpha	95.114488
_cell_angle_beta	108.604059
_cell_angle_gamma	99.306020
loop_
_atom_site_label
_atom_site_type_symbol
_atom_site_fract_x
_atom_site_fract_y
_atom_site_fract_z
V1	V	-4.064552	-0.109773	-0.396130
O2	O	-4.072802	0.005269	-0.388720
O3	O	-3.995176	-0.217656	-0.393294
O4	O	-4.042048	-0.108087	-0.568953
O5	O	-4.025605	-0.105058	-0.211845
V6	V	-4.547543	-0.096012	-0.374103
O7	O	-4.326979	-0.139958	-0.444447
O8	O	-4.735314	-0.065827	-0.325786
O9	O	-4.393713	0.011870	-0.376939
O10	O	-4.656690	-0.211054	-0.381513
O11	O	-4.703887	-0.100727	-0.558388
O12	O	-4.346841	-0.097698	-0.201280
C13	C	-3.834236	-0.243955	-0.387013
C14	C	-3.858972	-0.332151	-0.385846
C15	C	-4.052871	-0.377626	-0.391633
C16	C	-4.076105	-0.460496	-0.390544
C17	C	-3.905433	-0.497887	-0.383660
C18	C	-3.711520	-0.452406	-0.377877
C19	C	-3.688293	-0.369539	-0.378975
C20	C	-3.955357	-0.745291	-0.379706
C21	C	-3.978598	-0.828164	-0.378605
C22	C	-4.343183	-0.836248	-0.391275
C23	C	-4.319935	-0.753378	-0.392364
C24	C	-4.126029	-0.707905	-0.386588
N25	N	-3.929175	-0.582593	-0.382543
N26	N	-4.102293	-0.623202	-0.387714
C27	C	-3.894025	-0.104188	-0.611082
C28	C	-3.956769	-0.103524	-0.752365
C29	C	-4.014932	-0.248835	-0.788523
C30	C	-4.073484	-0.321175	-0.872975
C31	C	-4.132439	-0.320546	-1.005721
C32	C	-4.132847	-0.247569	-1.054017
C33	C	-4.074295	-0.175229	-0.969566
C34	C	-4.015336	-0.175866	-0.836818
C35	C	-4.016148	-0.029920	-0.933408
C36	C	-3.957177	-0.030547	-0.800661
C37	C	-4.016556	0.043057	-0.981705
C38	C	-3.957989	0.115399	-0.897252
C39	C	-3.899029	0.114767	-0.764498
C40	C	-3.898626	0.041793	-0.716209
C41	C	-4.217994	0.038166	-0.383217
C42	C	-4.172497	0.126360	-0.384392
C43	C	-4.158205	-0.101600	-0.159145
C44	C	-4.074699	-0.102260	-0.017860
H45	H	-4.458923	-0.722941	-0.397979
O46	O	-4.080148	0.043747	-1.124879
H47	H	-3.971907	0.015526	-1.162852
H48	H	-3.966899	-0.249354	-0.680434
O49	O	-4.236977	-0.337309	-0.399066
H50	H	-4.193782	-0.291281	-0.312851
H51	H	-4.233996	-0.497519	-0.395258
H52	H	-4.501055	-0.873281	-0.395978
H53	H	-3.839619	-0.858609	-0.373029
H54	H	-3.797466	-0.708276	-0.374995
O55	O	-4.196483	-0.246886	-1.197195
H56	H	-4.063174	-0.212384	-1.219573
O57	O	-3.527433	-0.492731	-0.370464
H58	H	-3.576151	-0.557993	-0.370664
O59	O	-3.479157	-0.320484	-0.372728
H60	H	-3.364372	-0.360404	-0.367744
O61	O	-4.073022	-0.399885	-0.820888
H62	H	-4.022166	-0.388173	-0.714393
H63	H	-4.180119	-0.379452	-1.074484
O64	O	-3.958419	0.194104	-0.949337
H65	H	-4.009248	0.182388	-1.055831
O66	O	-3.835865	0.192792	-0.673409
H67	H	-3.846042	0.243638	-0.729299
O68	O	-3.835030	0.041115	-0.573032
H69	H	-3.844597	-0.021782	-0.553642
