data_functionalizedCrystal
_audit_creation_method	'MofGen! by Chris Wilmer'
_symmetry_space_group_name_H-M	'P1'
_symmetry_Int_Tables_number	1
_symmetry_cell_setting	triclinic
loop_
_symmetry_equiv_pos_as_xyz
  x,y,z
_cell_length_a	27.732048
_cell_length_b	15.944551
_cell_length_c	14.421503
_cell_angle_alpha	89.996660
_cell_angle_beta	90.002062
_cell_angle_gamma	83.070697
loop_
_atom_site_label
_atom_site_type_symbol
_atom_site_fract_x
_atom_site_fract_y
_atom_site_fract_z
O1	O	-0.641363	-0.099933	-0.076994
O2	O	-0.141363	0.400067	0.423006
O3	O	-0.500635	-0.115130	-0.077023
O4	O	-0.000635	0.384870	0.422977
O5	O	-0.574842	0.014794	-0.076999
O6	O	-0.074842	0.514794	0.423001
O7	O	-0.567156	-0.229856	-0.077018
O8	O	-0.067156	0.270144	0.422982
O9	O	-0.574830	0.014774	0.077224
O10	O	-0.074830	0.514774	0.577224
O11	O	-0.500623	-0.115149	0.077201
O12	O	-0.000623	0.384851	0.577201
O13	O	-0.641351	-0.099952	0.077229
O14	O	-0.141351	0.400048	0.577229
Cu15	Cu	-0.570986	-0.107552	0.091297
Cu16	Cu	-0.070986	0.392448	0.591297
Cu17	Cu	-0.571000	-0.107529	-0.091090
Cu18	Cu	-0.071000	0.392471	0.408910
O19	O	-0.567144	-0.229876	0.077206
O20	O	-0.067144	0.270124	0.577206
C21	C	-0.574517	0.046074	0.000112
C22	C	-0.074517	0.546074	0.500112
C23	C	-0.573560	0.139307	0.000113
C24	C	-0.073560	0.639307	0.500113
C25	C	-0.482621	-0.114820	0.000086
C26	C	0.017379	0.385180	0.500086
C27	C	-0.428962	-0.113860	0.000075
C28	C	0.071038	0.386140	0.500075
C29	C	-0.659365	-0.100262	0.000119
C30	C	-0.159365	0.399738	0.500119
C31	C	-0.713024	-0.101222	0.000123
C32	C	-0.213024	0.398778	0.500123
C33	C	-0.090453	-0.184589	0.000110
C34	C	0.409547	0.315411	0.500110
C35	C	0.111222	-0.181025	0.000118
C36	C	0.611222	0.318975	0.500118
O37	O	0.142198	-0.245701	0.000154
O38	O	0.642198	0.254299	0.500154
N39	N	0.130679	-0.103986	0.000123
N40	N	0.630679	0.396014	0.500123
C41	C	0.099715	-0.027832	0.000131
C42	C	0.599715	0.472168	0.500131
O43	O	0.120892	0.037776	0.000144
O44	O	0.620892	0.537776	0.500144
C45	C	-0.101959	-0.031397	0.000129
C46	C	0.398041	0.468603	0.500129
C47	C	-0.121414	-0.108441	0.000115
C48	C	0.378586	0.391559	0.500115
C49	C	-0.109908	-0.261627	0.000097
C50	C	0.390092	0.238373	0.500097
C51	C	-0.160324	-0.262517	0.000090
C52	C	0.339676	0.237483	0.500090
C53	C	-0.191285	-0.186369	0.000096
C54	C	0.308715	0.313631	0.500096
C55	C	-0.171830	-0.109331	0.000108
C56	C	0.328170	0.390669	0.500108
C57	C	-0.132923	0.044756	0.000143
C58	C	0.367077	0.544756	0.500143
C59	C	-0.183345	0.043858	0.000145
C60	C	0.316655	0.543858	0.500145
C61	C	-0.202799	-0.033186	0.000132
C62	C	0.297201	0.466814	0.500132
C63	C	-0.253206	-0.034073	0.000106
C64	C	0.246794	0.465927	0.500106
N65	N	-0.272664	-0.111113	0.000102
N66	N	0.227336	0.388887	0.500102
C67	C	-0.241703	-0.187260	0.000097
C68	C	0.258297	0.312740	0.500097
C69	C	0.205597	-0.025966	0.000130
C70	C	0.705597	0.474034	0.500130
C71	C	0.256015	-0.025074	0.000129
C72	C	0.756015	0.474926	0.500129
C73	C	0.267519	-0.178268	0.000118
C74	C	0.767519	0.321732	0.500118
C75	C	0.217100	-0.179158	0.000113
C76	C	0.717100	0.320842	0.500113
C77	C	0.186139	-0.103005	0.000126
C78	C	0.686139	0.396995	0.500126
C79	C	-0.347580	-0.189124	0.000081
C80	C	0.152420	0.310876	0.500081
C81	C	-0.398001	-0.190007	0.000070
C82	C	0.101999	0.309993	0.500070
C83	C	-0.409500	-0.036815	0.000085
C84	C	0.090500	0.463185	0.500085
C85	C	-0.359084	-0.035931	0.000091
C86	C	0.140916	0.464069	0.500091
C87	C	-0.328125	-0.112092	0.000092
C88	C	0.171875	0.387908	0.500092
O89	O	-0.284210	0.030569	0.000081
O90	O	0.215790	0.530569	0.500081
O91	O	-0.262890	-0.252859	0.000104
O92	O	0.237110	0.247141	0.500104
C93	C	-0.040037	-0.183699	0.000117
C94	C	0.459963	0.316301	0.500117
C95	C	-0.020582	-0.106661	0.000130
C96	C	0.479418	0.393339	0.500130
C97	C	-0.051543	-0.030513	0.000135
C98	C	0.448457	0.469487	0.500135
C99	C	0.029836	-0.105769	0.000128
C100	C	0.529836	0.394231	0.500128
C101	C	0.060797	-0.181917	0.000123
C102	C	0.560797	0.318083	0.500123
C103	C	0.041339	-0.258956	0.000119
C104	C	0.541339	0.241044	0.500119
C105	C	-0.009076	-0.259846	0.000112
C106	C	0.490924	0.240154	0.500112
C107	C	-0.032086	0.046526	0.000139
C108	C	0.467914	0.546526	0.500139
C109	C	0.018331	0.047410	0.000145
C110	C	0.518331	0.547410	0.500145
C111	C	0.049291	-0.028738	0.000140
C112	C	0.549291	0.471262	0.500140
C113	C	-0.567469	-0.261156	0.000092
C114	C	-0.067469	0.238844	0.500092
C115	C	-0.568426	-0.354389	0.000086
C116	C	-0.068426	0.145611	0.500086
N117	N	-0.570979	-0.107568	0.219578
N118	N	-0.070979	0.392432	0.719578
C119	C	-0.525277	0.353533	0.000090
C120	C	-0.025277	0.853533	0.500090
C121	C	-0.547692	0.414834	0.076136
C122	C	-0.047692	0.914834	0.576136
C123	C	-0.571830	0.310011	0.000105
C124	C	-0.071830	0.810011	0.500105
C125	C	-0.547715	0.414836	-0.075916
C126	C	-0.047715	0.914836	0.424084
C127	C	-0.570155	0.474902	0.000094
C128	C	-0.070155	0.974902	0.500094
C129	C	-0.594258	0.370084	0.076214
C130	C	-0.094258	0.870084	0.576214
C131	C	-0.594274	0.370080	-0.075906
C132	C	-0.094274	0.870080	0.424094
C133	C	-0.616723	0.431364	0.000158
C134	C	-0.116723	0.931364	0.500158
C135	C	-0.572793	0.215021	0.000113
C136	C	-0.072793	0.715021	0.500113
C137	C	-0.569195	0.569890	0.000093
C138	C	-0.069195	1.069890	0.500093
N139	N	-0.571011	-0.107507	-0.219372
N140	N	-0.071011	0.392493	0.280628
C141	C	-0.536660	-0.167618	0.469221
C142	C	-0.036660	0.332382	0.969221
C143	C	-0.580337	-0.183354	0.531031
C144	C	-0.080337	0.316646	1.031031
C145	C	-0.570991	-0.107548	0.408739
C146	C	-0.070991	0.392452	0.908739
C147	C	-0.527325	-0.091831	0.531023
C148	C	-0.027325	0.408169	1.031023
C149	C	-0.570998	-0.107530	0.591461
C150	C	-0.070998	0.392470	1.091461
C151	C	-0.614690	-0.123321	0.469189
C152	C	-0.114690	0.376679	0.969189
C153	C	-0.561649	-0.031766	0.469175
C154	C	-0.061649	0.468234	0.969175
C155	C	-0.605358	-0.047469	0.530958
C156	C	-0.105358	0.452531	1.030958
C157	C	-0.570986	-0.107560	0.303478
C158	C	-0.070986	0.392440	0.803478
C159	C	-0.571008	-0.107517	0.696720
C160	C	-0.071008	0.392483	1.196720
H161	H	-0.413838	-0.252749	0.000058
H162	H	0.086162	0.247251	0.500058
H163	H	-0.651629	-0.136684	0.442142
H164	H	-0.151629	0.363316	0.942142
Br165	Br	-0.681183	0.487476	0.000236
Br166	Br	-0.181183	0.987476	0.500236
Br167	Br	-0.593520	-0.290155	0.576315
Br168	Br	-0.093520	0.209845	1.076315
H169	H	-0.634425	0.003341	0.557895
H170	H	-0.134425	0.503341	1.057895
H171	H	-0.486636	0.319720	0.000158
H172	H	0.013364	0.819720	0.500158
H173	H	-0.613952	0.350215	-0.140193
H174	H	-0.113952	0.850215	0.359807
H175	H	-0.507657	-0.218457	0.442114
H176	H	-0.007657	0.281543	0.942114
H177	H	-0.553727	0.032293	0.441984
H178	H	-0.053727	0.532293	0.941984
Br179	Br	-0.465773	-0.069686	0.576300
Br180	Br	0.034227	0.430314	1.076300
H181	H	-0.528024	0.434664	-0.140211
H182	H	-0.028024	0.934664	0.359789
H183	H	-0.322378	-0.251142	0.000085
H184	H	0.177622	0.248858	0.500085
Br185	Br	-0.186718	-0.367082	0.000076
Br186	Br	0.313282	0.132918	0.500076
H187	H	0.201264	-0.241894	0.000107
H188	H	0.701264	0.258106	0.500107
Br189	Br	-0.067898	-0.364985	0.000090
Br190	Br	0.432102	0.135015	0.500090
Br191	Br	-0.514868	0.447906	0.183281
Br192	Br	-0.014868	0.947906	0.683281
Br193	Br	0.044726	0.151980	0.000148
Br194	Br	0.544726	0.651980	0.500148
H195	H	-0.057290	0.108537	0.000145
H196	H	0.442710	0.608537	0.500145
H197	H	0.271850	0.037663	0.000125
H198	H	0.771850	0.537663	0.500125
Br199	Br	0.309547	-0.281611	0.000112
Br200	Br	0.809547	0.218389	0.500112
Br201	Br	0.163586	0.077396	0.000147
Br202	Br	0.663586	0.577396	0.500147
H203	H	-0.434718	0.025183	0.000086
H204	H	0.065282	0.525183	0.500086
Br205	Br	-0.106534	0.149323	0.000141
Br206	Br	0.393466	0.649323	0.500141
H207	H	-0.208551	0.105873	0.000156
H208	H	0.291449	0.605873	0.500156
H209	H	-0.343244	0.026805	0.000089
H210	H	0.156756	0.526805	0.500089
H211	H	0.066557	-0.320958	0.000111
H212	H	0.566557	0.179042	0.500111
Br213	Br	-0.627042	0.337188	0.183486
Br214	Br	-0.127042	0.837188	0.683486
H215	H	-0.024911	-0.322584	0.000102
H216	H	0.475089	0.177416	0.500102
