data_functionalizedCrystal
_audit_creation_method	'MofGen! by Chris Wilmer'
_symmetry_space_group_name_H-M	'P1'
_symmetry_Int_Tables_number	1
_symmetry_cell_setting	triclinic
loop_
_symmetry_equiv_pos_as_xyz
  x,y,z
_cell_length_a	14.750392
_cell_length_b	10.654550
_cell_length_c	10.654550
_cell_angle_alpha	84.484931
_cell_angle_beta	75.913171
_cell_angle_gamma	75.914630
loop_
_atom_site_label
_atom_site_type_symbol
_atom_site_fract_x
_atom_site_fract_y
_atom_site_fract_z
O1	O	-0.079758	-1.643324	-0.151872
O2	O	-0.079775	-1.277840	-0.168673
O3	O	-0.079760	-1.468987	0.022465
O4	O	-0.079773	-1.452177	-0.343010
O5	O	0.079899	-1.518049	-0.026627
O6	O	0.079884	-1.326902	-0.217765
O7	O	0.079902	-1.692386	-0.200964
Zn8	Zn	0.105242	-1.517434	-0.217159
Zn9	Zn	-0.105116	-1.452792	-0.152478
O10	O	0.079886	-1.501239	-0.392102
C11	C	0.000052	-1.255572	-0.191984
C12	C	0.000046	-1.116127	-0.188290
N13	N	0.248806	-1.561559	-0.261301
N14	N	-0.248680	-1.408677	-0.108326
C15	C	0.600573	-1.285521	0.014919
C16	C	0.701078	-1.316424	-0.016004
C17	C	0.701069	-1.470067	-0.169756
C18	C	0.600562	-1.439181	-0.138841
C19	C	0.550322	-1.346906	-0.046504
C20	C	0.550311	-1.500566	-0.200264
C21	C	0.449813	-1.469677	-0.169357
C22	C	0.399566	-1.377403	-0.077026
C23	C	0.449824	-1.316017	-0.015596
C24	C	0.600553	-1.592834	-0.292608
C25	C	0.550302	-1.654219	-0.354031
C26	C	0.449802	-1.623337	-0.323117
C27	C	0.399555	-1.531063	-0.230786
C28	C	0.399544	-1.684723	-0.384546
C29	C	0.299046	-1.653834	-0.353639
C30	C	0.299057	-1.500174	-0.199878
C31	C	0.000069	-1.492284	0.044717
C32	C	0.000067	-1.488591	0.184161
C33	C	0.000072	-1.714653	-0.177652
C34	C	0.000072	-1.854096	-0.181344
C35	C	0.000044	-1.036641	-0.300831
C36	C	0.000061	-0.905626	-0.297360
C37	C	0.000076	-0.933593	-0.068795
C38	C	0.000066	-1.064609	-0.072270
C39	C	0.000055	-1.477942	-0.414353
C40	C	0.000051	-1.481632	-0.553795
C41	C	0.000072	-1.601135	0.263645
C42	C	0.000061	-1.597654	0.394669
C43	C	0.000043	-1.369079	0.366712
C44	C	0.000048	-1.372559	0.235692
H45	H	0.258149	-1.425040	-0.124682
H46	H	0.000062	-0.840913	-0.389003
H47	H	0.000070	-1.129331	0.019380
H48	H	0.000028	-1.274610	0.408684
H49	H	0.000041	-1.280906	0.170973
H50	H	0.000099	-0.891632	0.025663
H51	H	0.000063	-1.689298	0.459381
H52	H	0.317734	-1.352248	-0.051869
H53	H	0.408916	-1.240883	0.059600
H54	H	0.559665	-1.210387	0.090115
Br55	Br	0.769260	-1.595283	-0.295078
Br56	Br	0.769274	-1.233101	0.067363
Br57	Br	0.618493	-1.779435	-0.479353
H58	H	0.000087	-1.695615	0.221694
H59	H	0.440465	-1.759845	-0.459737
Br60	Br	0.230842	-1.737158	-0.436982
H61	H	0.682385	-1.617980	-0.317771
Br62	Br	0.000019	-1.106557	-0.458287
