data_functionalizedCrystal
_audit_creation_method	'MofGen! by Chris Wilmer'
_symmetry_space_group_name_H-M	'P1'
_symmetry_Int_Tables_number	1
_symmetry_cell_setting	triclinic
loop_
_symmetry_equiv_pos_as_xyz
  x,y,z
_cell_length_a	12.759401
_cell_length_b	12.645330
_cell_length_c	12.759393
_cell_angle_alpha	89.971069
_cell_angle_beta	89.981708
_cell_angle_gamma	90.017853
loop_
_atom_site_label
_atom_site_type_symbol
_atom_site_fract_x
_atom_site_fract_y
_atom_site_fract_z
Zn1	Zn	1.606231	-0.421984	-0.593992
Zn2	Zn	1.606117	-0.599284	-0.418317
Zn3	Zn	1.430534	-0.422036	-0.418332
Zn4	Zn	1.430513	-0.599206	-0.593959
O5	O	1.518349	-0.510628	-0.506150
O6	O	1.753237	-0.445514	-0.570697
O7	O	1.582787	-0.575827	-0.271298
O8	O	1.453897	-0.273682	-0.441654
O9	O	1.753153	-0.575776	-0.441629
O10	O	1.582981	-0.273644	-0.570711
O11	O	1.453787	-0.445603	-0.271309
O12	O	1.283510	-0.445527	-0.441621
O13	O	1.453861	-0.575643	-0.740984
O14	O	1.283495	-0.575693	-0.570653
O15	O	1.582961	-0.445438	-0.741009
O16	O	1.582766	-0.747621	-0.441596
O17	O	1.453751	-0.747564	-0.570639
C18	C	1.245382	-0.510608	-0.506136
C19	C	1.128605	-0.510625	-0.506155
C20	C	1.073762	-0.578511	-0.573231
C21	C	0.964038	-0.578525	-0.573242
C22	C	0.964009	-0.442763	-0.439092
C23	C	1.073731	-0.442745	-0.439087
C24	C	1.128636	-0.646392	-0.640298
C25	C	1.073793	-0.714284	-0.707379
C26	C	0.964069	-0.714298	-0.707390
C27	C	0.909188	-0.646418	-0.640321
C28	C	1.518272	-0.786057	-0.506135
C29	C	1.518336	-0.903887	-0.506164
C30	C	1.437506	-1.071459	-0.587595
C31	C	1.437093	-0.948900	-0.587334
C32	C	1.488363	-0.948490	-0.395443
C33	C	1.487869	-1.071088	-0.395937
C34	C	1.629632	-1.070974	-0.534556
C35	C	1.628950	-0.948367	-0.536977
C36	C	1.792382	-0.510648	-0.506165
C37	C	1.909159	-0.510657	-0.506171
C38	C	1.518421	-0.510526	-0.780183
C39	C	1.518452	-0.510483	-0.896960
C40	C	1.518454	-0.234122	-0.506188
C41	C	1.518499	-0.116292	-0.506204
C42	C	1.585626	-0.578264	-0.951814
C43	C	1.585658	-0.578219	-1.061538
C44	C	1.451333	-0.442608	-1.061545
C45	C	1.451307	-0.442649	-0.951823
C46	C	1.652771	-0.646099	-0.896951
C47	C	1.719949	-0.713887	-0.951805
C48	C	1.719981	-0.713842	-1.061529
C49	C	1.652834	-0.646008	-1.116400
C50	C	1.518337	-0.510652	-0.233183
C51	C	1.518510	-0.510397	-0.116407
H52	H	1.118485	-0.769542	-0.761990
C53	C	0.903740	-0.788967	-0.781176
H54	H	0.830534	-0.779251	-0.771585
H55	H	0.921703	-0.860173	-0.765678
H56	H	0.921755	-0.773530	-0.851795
C57	C	1.652731	-0.646152	-0.776259
H58	H	1.603101	-0.596074	-0.751447
H59	H	1.720528	-0.627846	-0.751433
H60	H	1.634513	-0.714575	-0.751439
H61	H	1.217979	-0.646390	-0.640294
C62	C	1.652560	-0.646272	-1.237093
H63	H	1.702086	-0.696455	-1.261905
H64	H	1.670664	-0.577951	-1.262253
H65	H	1.584662	-0.664692	-1.261577
H66	H	0.819843	-0.646426	-0.640345
C67	C	1.325799	-0.909401	-0.561945
H68	H	1.280666	-0.968282	-0.551741
H69	H	1.300555	-0.867671	-0.618476
H70	H	1.327514	-0.867893	-0.499930
H71	H	0.919316	-0.387500	-0.384487
H72	H	1.774624	-0.769108	-0.907123
C73	C	1.326900	-1.113202	-0.562559
H74	H	1.278450	-1.085743	-0.612107
H75	H	1.307190	-1.091383	-0.494107
H76	H	1.326822	-1.188245	-0.566038
C77	C	1.134067	-0.368076	-0.365306
H78	H	1.207272	-0.377780	-0.374918
H79	H	1.116061	-0.383502	-0.294688
H80	H	1.116102	-0.296866	-0.380812
C81	C	1.462389	-0.908151	-0.698248
H82	H	1.473009	-0.966524	-0.743873
H83	H	1.524124	-0.866203	-0.696105
H84	H	1.405611	-0.866602	-0.723206
H85	H	1.456087	-1.100865	-0.669964
H86	H	1.406630	-1.099781	-0.371918
C87	C	1.377465	-0.368013	-1.121900
H88	H	1.387093	-0.377706	-1.195102
H89	H	1.392855	-0.296791	-1.103935
H90	H	1.306863	-0.383543	-1.103906
C91	C	1.793874	-0.788401	-1.121866
H92	H	1.833851	-0.828808	-1.073474
H93	H	1.839681	-0.747842	-1.164677
H94	H	1.753668	-0.834572	-1.164659
C95	C	1.565517	-0.909102	-0.311275
H96	H	1.616814	-0.864996	-0.342988
H97	H	1.598931	-0.967953	-0.279268
H98	H	1.528401	-0.870035	-0.259650
H99	H	1.396612	-0.387451	-0.907160
H100	H	1.544301	-1.100749	-0.333226
C101	C	1.379754	-0.907159	-0.362411
H102	H	1.352531	-0.862735	-0.415938
H103	H	1.386025	-0.868038	-0.299184
H104	H	1.333691	-0.965218	-0.351755
C105	C	1.666569	-1.112624	-0.641773
H106	H	1.614551	-1.158045	-0.670251
H107	H	1.730138	-1.150752	-0.633267
H108	H	1.677778	-1.054765	-0.687959
C109	C	1.714763	-0.906989	-0.462714
H110	H	1.684116	-0.861848	-0.411714
H111	H	1.765424	-0.868620	-0.501883
H112	H	1.747677	-0.964985	-0.428704
H113	H	1.651554	-0.919211	-0.618463
C114	C	1.711127	-1.110034	-0.454405
H115	H	1.677649	-1.153760	-0.403914
H116	H	1.742080	-1.051015	-0.420320
H117	H	1.763911	-1.149417	-0.489513
