data_functionalizedCrystal
_audit_creation_method	'MofGen! by Chris Wilmer'
_symmetry_space_group_name_H-M	'P1'
_symmetry_Int_Tables_number	1
_symmetry_cell_setting	triclinic
loop_
_symmetry_equiv_pos_as_xyz
  x,y,z
_cell_length_a	21.395362
_cell_length_b	13.032721
_cell_length_c	21.395356
_cell_angle_alpha	97.157890
_cell_angle_beta	89.964230
_cell_angle_gamma	97.222741
loop_
_atom_site_label
_atom_site_type_symbol
_atom_site_fract_x
_atom_site_fract_y
_atom_site_fract_z
Zn1	Zn	0.926198	-0.415665	-0.386227
Zn2	Zn	0.912825	-0.590425	-0.294752
Zn3	Zn	0.821422	-0.415736	-0.281433
Zn4	Zn	0.808091	-0.590425	-0.399457
O5	O	0.867134	-0.503063	-0.340467
O6	O	1.012104	-0.438818	-0.374130
O7	O	0.900682	-0.567282	-0.205310
O8	O	0.846497	-0.269481	-0.284223
O9	O	1.002279	-0.567213	-0.306924
O10	O	0.923475	-0.269429	-0.361215
O11	O	0.833529	-0.438938	-0.195524
O12	O	0.731974	-0.438938	-0.297052
O13	O	0.823776	-0.567213	-0.485378
O14	O	0.722179	-0.567281	-0.383764
O15	O	0.910548	-0.438818	-0.475657
O16	O	0.887756	-0.736671	-0.319752
O17	O	0.810809	-0.736671	-0.396678
C18	C	0.704342	-0.503118	-0.340399
C19	C	0.634697	-0.503167	-0.340386
C20	C	0.596894	-0.570084	-0.385484
C21	C	0.531460	-0.570058	-0.385510
C22	C	0.503832	-0.503126	-0.340428
C23	C	0.541644	-0.436196	-0.295327
C24	C	0.607077	-0.436217	-0.295306
C25	C	0.400754	-0.494719	-0.283383
C26	C	0.335323	-0.494706	-0.283403
C27	C	0.302016	-0.503058	-0.340492
C28	C	0.334148	-0.511445	-0.397564
C29	C	0.399581	-0.511465	-0.397543
C30	C	0.432882	-0.503097	-0.340446
C31	C	0.193262	-0.569951	-0.385621
C32	C	0.127828	-0.569918	-0.385647
C33	C	0.138013	-0.436062	-0.295459
C34	C	0.203446	-0.436089	-0.295438
C35	C	0.231066	-0.503040	-0.340518
C36	C	0.846401	-0.774590	-0.361110
C37	C	0.837589	-0.890751	-0.369962
C38	C	0.871766	-0.942505	-0.335876
C39	C	0.862659	-1.062563	-0.345024
C40	C	1.030561	-0.503008	-0.340536
C41	C	1.100204	-0.502985	-0.340566
C42	C	0.867167	-0.503008	-0.503886
C43	C	0.867181	-0.502984	-0.573526
C44	C	0.887964	-0.230475	-0.319758
C45	C	0.896841	-0.114314	-0.310932
C46	C	0.902234	-0.569594	-1.080401
C47	C	0.902221	-0.569627	-1.014969
C48	C	0.867253	-0.502819	-0.977152
C49	C	0.832284	-0.435991	-1.004775
C50	C	0.832294	-0.435967	-1.070207
C51	C	0.869485	-0.408701	-0.866331
C52	C	0.869480	-0.408723	-0.800899
C53	C	0.867219	-0.502893	-0.775337
C54	C	0.864977	-0.597043	-0.815214
C55	C	0.864987	-0.597019	-0.880646
C56	C	0.867238	-0.502837	-0.906201
C57	C	0.902168	-0.569757	-0.676772
C58	C	0.902149	-0.569792	-0.611338
C59	C	0.832217	-0.436147	-0.601145
C60	C	0.832231	-0.436121	-0.666578
C61	C	0.867210	-0.502925	-0.704388
C62	C	0.867143	-0.503042	-0.177678
C63	C	0.867273	-0.502771	-0.108017
H64	H	0.234226	-0.381603	-0.258712
O65	O	0.433004	-0.486655	-0.227867
C66	C	0.390616	-0.479240	-0.177501
H67	H	0.341292	-0.514365	-0.194990
H68	H	0.390197	-0.393808	-0.158073
C69	C	0.472087	-0.495954	-0.103621
C70	C	0.411508	-0.539103	-0.125101
H71	H	0.484976	-0.532876	-0.071297
H72	H	0.500646	-0.500946	-0.137553
H73	H	0.471731	-0.424762	-0.087436
H74	H	0.411868	-0.610289	-0.141293
H75	H	0.382950	-0.534125	-0.091170
H76	H	0.932848	-1.069744	-0.274977
H77	H	0.801590	-0.935326	-0.405920
H78	H	0.930701	-0.624030	-0.992479
O79	O	0.514875	-0.371232	-0.251449
C80	C	0.529055	-0.393953	-0.190702
H81	H	0.573483	-0.434139	-0.192406
H82	H	0.488095	-0.447625	-0.173637
C83	C	0.485292	-0.242630	-0.143004
C84	C	0.539862	-0.291979	-0.145096
H85	H	0.491955	-0.179728	-0.114870
H86	H	0.475736	-0.227323	-0.183930
H87	H	0.451164	-0.287367	-0.128785
H88	H	0.573987	-0.247247	-0.159322
H89	H	0.549424	-0.307275	-0.104171
H90	H	0.930715	-0.623993	-1.111183
H91	H	0.500675	-0.624550	-0.422236
O92	O	0.304073	-0.486757	-0.227985
C93	C	0.259393	-0.575689	-0.226604
H94	H	0.273985	-0.642959	-0.260403
H95	H	0.211193	-0.557706	-0.241493
C96	C	0.238067	-0.523631	-0.117814
C97	C	0.255991	-0.606257	-0.159322
H98	H	0.235965	-0.542485	-0.076312
H99	H	0.268166	-0.463714	-0.118745
H100	H	0.197901	-0.508654	-0.130229
H101	H	0.296159	-0.621224	-0.146912
H102	H	0.225898	-0.666178	-0.158388
H103	H	0.863159	-0.673679	-0.913111
O104	O	0.301898	-0.519589	-0.453082
C105	C	0.344292	-0.526955	-0.503446
H106	H	0.388592	-0.557241	-0.487440
H107	H	0.357438	-0.446663	-0.519110
C108	C	0.258590	-0.565354	-0.578580
C109	C	0.312998	-0.602560	-0.558923
H110	H	0.239287	-0.611987	-0.612802
H111	H	0.230029	-0.560388	-0.544649
H112	H	0.269553	-0.498445	-0.591629
H113	H	0.302034	-0.669463	-0.545867
H114	H	0.341557	-0.607540	-0.592853
H115	H	0.097049	-0.624408	-0.422375
H116	H	0.863137	-0.673725	-0.794403
H117	H	0.907771	-0.897933	-0.299922
H118	H	0.425741	-0.518291	-0.444013
H119	H	0.826657	-1.107133	-0.380984
O120	O	0.643859	-0.371361	-0.251473
C121	C	0.677100	-0.430788	-0.215441
H122	H	0.680846	-0.510041	-0.243483
H123	H	0.650964	-0.442155	-0.169872
C124	C	0.739053	-0.275948	-0.165317
C125	C	0.743659	-0.373285	-0.199761
H126	H	0.780108	-0.240477	-0.155642
H127	H	0.716657	-0.235910	-0.189591
H128	H	0.717270	-0.285434	-0.127347
H129	H	0.765434	-0.363797	-0.237734
H130	H	0.766060	-0.413320	-0.175493
H131	H	0.930648	-0.624155	-0.707559
H132	H	0.930615	-0.624217	-0.588856
O133	O	0.798303	-0.371285	-0.564323
C134	C	0.805775	-0.385656	-0.500650
H135	H	0.851514	-0.419864	-0.494335
H136	H	0.764356	-0.441336	-0.486296
C137	C	0.751924	-0.237917	-0.466774
C138	C	0.808104	-0.279924	-0.459016
H139	H	0.753358	-0.172698	-0.441091
H140	H	0.746888	-0.228236	-0.509671
H141	H	0.717414	-0.284327	-0.454813
H142	H	0.842612	-0.233521	-0.470985
H143	H	0.813146	-0.289594	-0.416119
O144	O	0.798263	-0.371101	-0.693302
C145	C	0.767383	-0.312158	-0.645897
H146	H	0.793316	-0.308547	-0.598991
H147	H	0.716871	-0.350449	-0.641825
C148	C	0.735004	-0.205359	-0.720588
C149	C	0.766858	-0.200917	-0.662979
H150	H	0.734677	-0.136741	-0.731126
H151	H	0.755806	-0.245072	-0.752527
H152	H	0.692914	-0.237273	-0.717187
H153	H	0.808949	-0.169015	-0.666383
H154	H	0.746063	-0.161196	-0.631041
H155	H	0.871310	-0.332060	-0.768436
O156	O	0.871712	-0.317121	-0.891054
C157	C	0.873679	-0.234033	-0.841830
H158	H	0.892836	-0.258784	-0.797077
H159	H	0.824134	-0.212353	-0.833198
C160	C	0.893349	-0.108722	-0.915140
C161	C	0.916884	-0.139119	-0.860175
H162	H	0.919997	-0.050172	-0.926457
H163	H	0.892021	-0.164699	-0.948304
H164	H	0.852062	-0.090663	-0.907940
H165	H	0.958167	-0.157189	-0.867379
H166	H	0.918220	-0.083142	-0.827013
O167	O	0.798276	-0.371238	-0.967984
C168	C	0.753248	-0.430771	-0.934647
H169	H	0.769296	-0.509964	-0.930874
H170	H	0.705940	-0.442265	-0.960713
C171	C	0.726577	-0.276030	-0.872753
C172	C	0.746290	-0.373294	-0.868114
H173	H	0.722282	-0.240575	-0.831713
H174	H	0.756911	-0.235921	-0.895214
H175	H	0.687155	-0.285623	-0.894478
H176	H	0.785714	-0.363699	-0.846397
H177	H	0.715962	-0.413400	-0.845648
H178	H	0.803823	-0.381550	-1.092690
H179	H	0.619378	-0.624598	-0.422192
H180	H	0.215752	-0.624461	-0.422331
H181	H	0.115519	-0.381560	-0.258755
