data_functionalizedCrystal
_audit_creation_method	'MofGen! by Chris Wilmer'
_symmetry_space_group_name_H-M	'P1'
_symmetry_Int_Tables_number	1
_symmetry_cell_setting	triclinic
loop_
_symmetry_equiv_pos_as_xyz
  x,y,z
_cell_length_a	9.565339
_cell_length_b	19.288864
_cell_length_c	19.288857
_cell_angle_alpha	96.865323
_cell_angle_beta	90.009674
_cell_angle_gamma	89.983156
loop_
_atom_site_label
_atom_site_type_symbol
_atom_site_fract_x
_atom_site_fract_y
_atom_site_fract_z
O1	O	0.116715	-0.921344	0.086651
O2	O	0.616715	-0.421344	0.586651
O3	O	0.116620	-0.719083	0.098340
O4	O	0.616620	-0.219083	0.598340
O5	O	0.116653	-0.826061	-0.008635
O6	O	0.616653	-0.326061	0.491365
O7	O	0.116681	-0.814366	0.193626
O8	O	0.616681	-0.314366	0.693626
O9	O	-0.115867	-0.826055	-0.008645
O10	O	0.384133	-0.326055	0.491355
O11	O	-0.115900	-0.719078	0.098330
O12	O	0.384100	-0.219078	0.598330
O13	O	-0.115805	-0.921339	0.086642
O14	O	0.384195	-0.421339	0.586642
Zn15	Zn	-0.152770	-0.820207	0.092485
Zn16	Zn	0.347230	-0.320207	0.592485
Zn17	Zn	0.153585	-0.820214	0.092497
Zn18	Zn	0.653585	-0.320214	0.592497
O19	O	-0.115839	-0.814361	0.193617
O20	O	0.384161	-0.314361	0.693617
C21	C	0.000348	-0.693204	0.097959
C22	C	0.500348	-0.193204	0.597959
C23	C	0.000311	-0.616100	0.096830
C24	C	0.500311	-0.116100	0.596830
C25	C	0.000392	-0.825683	-0.034516
C26	C	0.500392	-0.325683	0.465484
C27	C	0.000387	-0.824556	-0.111620
C28	C	0.500387	-0.324556	0.388380
N29	N	-0.361850	-0.820207	0.092476
N30	N	0.138150	-0.320207	0.592476
C31	C	-0.546170	-0.869303	0.042623
C32	C	-0.046170	-0.369303	0.542623
C33	C	-0.452915	-0.883142	0.105151
C34	C	0.047085	-0.383142	0.605151
C35	C	-0.453036	-0.806399	0.029953
C36	C	0.046964	-0.306399	0.529953
C37	C	-0.546132	-0.834090	0.155059
C38	C	-0.046132	-0.334090	0.655059
C39	C	-0.546261	-0.757320	0.079820
C40	C	-0.046261	-0.257320	0.579820
C41	C	-0.453048	-0.771132	0.142394
C42	C	0.046952	-0.271132	0.642394
N43	N	0.362664	-0.820220	0.092500
N44	N	0.862664	-0.320220	0.592500
C45	C	0.000470	-0.947218	0.087022
C46	C	0.500470	-0.447218	0.587022
C47	C	0.000516	-1.024321	0.088151
C48	C	0.500516	-0.524321	0.588151
C49	C	0.000342	-0.571402	0.159598
C50	C	0.500342	-0.071402	0.659598
C51	C	0.000357	-0.498955	0.158537
C52	C	0.500357	0.001045	0.658537
C53	C	0.000370	-0.471209	0.094705
C54	C	0.500370	0.028791	0.594705
C55	C	0.000331	-0.515917	0.031929
C56	C	0.500331	-0.015917	0.531929
C57	C	0.000302	-0.588363	0.032991
C58	C	0.500302	-0.088363	0.532991
C59	C	0.081872	-0.362951	0.044529
C60	C	0.581872	0.137049	0.544529
C61	C	0.081910	-0.290506	0.043469
C62	C	0.581910	0.209494	0.543469
C63	C	0.000454	-0.247764	0.091425
C64	C	0.500454	0.252236	0.591425
C65	C	-0.081022	-0.277473	0.140453
C66	C	0.418978	0.222527	0.640453
C67	C	-0.081051	-0.349919	0.141516
C68	C	0.418949	0.150081	0.641516
C69	C	0.000401	-0.392656	0.093546
C70	C	0.500401	0.107344	0.593546
C71	C	0.000499	-0.124510	0.153048
C72	C	0.500499	0.375490	0.653048
C73	C	0.000506	-0.052062	0.151984
C74	C	0.500506	0.447938	0.651984
C75	C	0.000494	-0.069026	0.025374
C76	C	0.500494	0.430974	0.525374
C77	C	0.000473	-0.141472	0.026439
C78	C	0.500473	0.358528	0.526439
C79	C	0.000482	-0.169210	0.090278
C80	C	0.500482	0.330790	0.590278
C81	C	0.127134	-0.824033	-0.147826
C82	C	0.627134	-0.324033	0.352174
C83	C	0.127144	-0.822964	-0.220272
C84	C	0.627144	-0.322964	0.279728
C85	C	0.000400	-0.822432	-0.256511
C86	C	0.500400	-0.322432	0.243489
C87	C	-0.126363	-0.822951	-0.220297
C88	C	0.373637	-0.322951	0.279703
C89	C	-0.126370	-0.824013	-0.147851
C90	C	0.373630	-0.324013	0.352149
C91	C	-0.096675	-0.861432	-0.376747
C92	C	0.403325	-0.361432	0.123253
C93	C	-0.096664	-0.860374	-0.449192
C94	C	0.403336	-0.360374	0.050808
C95	C	0.000414	-0.819155	-0.479957
C96	C	0.500414	-0.319155	0.020043
C97	C	0.097504	-0.779001	-0.438270
C98	C	0.597504	-0.279001	0.061730
C99	C	0.097498	-0.780063	-0.365825
C100	C	0.597498	-0.280063	0.134175
C101	C	0.000393	-0.821281	-0.335066
C102	C	0.500393	-0.321281	0.164934
C103	C	0.127180	-0.817472	-0.594717
C104	C	0.627180	-0.317472	-0.094717
C105	C	0.127185	-0.816399	-0.667164
C106	C	0.627185	-0.316399	-0.167164
C107	C	-0.126326	-0.816393	-0.667188
C108	C	0.373674	-0.316393	-0.167188
C109	C	-0.126327	-0.817459	-0.594742
C110	C	0.373673	-0.317459	-0.094742
C111	C	0.000430	-0.818002	-0.558511
C112	C	0.500430	-0.318002	-0.058511
C113	C	0.000426	-0.814739	0.219498
C114	C	0.500426	-0.314739	0.719498
C115	C	0.000440	-0.815866	0.296602
C116	C	0.500440	-0.315866	0.796602
H117	H	-0.587057	-0.910844	0.000501
H118	H	-0.087057	-0.410844	0.500501
H119	H	0.000523	-0.015669	0.203100
H120	H	0.500523	0.484331	0.703100
F121	F	0.000347	-0.600918	0.227541
F122	F	0.500347	-0.100918	0.727541
F123	F	0.000338	-0.486387	-0.036006
F124	F	0.500338	0.013613	0.463994
H125	H	0.000278	-0.624757	-0.018124
H126	H	0.500278	-0.124757	0.481876
H127	H	-0.412417	-0.729616	0.184608
H128	H	0.087583	-0.229616	0.684608
H129	H	-0.587292	-0.704148	0.069081
H130	H	-0.087292	-0.204148	0.569081
H131	H	0.176554	-0.745436	-0.463318
H132	H	0.676554	-0.245436	0.036682
F133	F	0.262041	-0.824607	-0.109270
F134	F	0.762041	-0.324607	0.390730
H135	H	0.000591	-0.046436	-0.026600
H136	H	0.500591	0.453564	0.473400
H137	H	-0.175715	-0.893072	-0.483128
H138	H	0.324285	-0.393072	0.016872
F139	F	0.168635	-0.258893	-0.008704
F140	F	0.668635	0.241107	0.491296
F141	F	-0.399293	-0.952659	0.119154
F142	F	0.100707	-0.452659	0.619154
F143	F	0.000448	-0.189045	-0.040368
F144	F	0.500448	0.310955	0.459632
H145	H	-0.412139	-0.794714	-0.022932
H146	H	0.087861	-0.294714	0.477068
F147	F	0.262084	-0.818045	-0.556154
F148	F	0.762084	-0.318045	-0.056154
H149	H	0.230402	-0.815969	-0.696641
H150	H	0.730402	-0.315969	-0.196641
H151	H	-0.229585	-0.824436	-0.118373
H152	H	0.270415	-0.324436	0.381627
F153	F	0.168573	-0.408434	-0.006517
F154	F	0.668573	0.091566	0.493483
H155	H	-0.229559	-0.822516	-0.249807
H156	H	0.270441	-0.322516	0.250193
F157	F	0.262050	-0.822407	-0.258812
F158	F	0.762050	-0.322407	0.241188
F159	F	-0.199982	-0.905320	-0.344013
F160	F	0.300018	-0.405320	0.155987
H161	H	-0.586855	-0.845832	0.207957
H162	H	-0.086855	-0.345832	0.707957
F163	F	-0.167720	-0.231989	0.191497
F164	F	0.332280	0.268011	0.691497
H165	H	0.000378	-0.462555	0.209652
H166	H	0.500378	0.037445	0.709652
F167	F	-0.167765	-0.381536	0.193691
F168	F	0.332235	0.118464	0.693691
F169	F	0.000498	-0.154033	0.220990
F170	F	0.500498	0.345967	0.720990
H171	H	0.176549	-0.747367	-0.331886
H172	H	0.676549	-0.247367	0.168114
H173	H	-0.229524	-0.815955	-0.696693
H174	H	0.270476	-0.315955	-0.196693
H175	H	-0.229538	-0.817891	-0.565264
H176	H	0.270462	-0.317891	-0.065264
