data_functionalizedCrystal
_audit_creation_method	'MofGen! by Chris Wilmer'
_symmetry_space_group_name_H-M	'P1'
_symmetry_Int_Tables_number	1
_symmetry_cell_setting	triclinic
loop_
_symmetry_equiv_pos_as_xyz
  x,y,z
_cell_length_a	6.817900
_cell_length_b	11.353964
_cell_length_c	16.255661
_cell_angle_alpha	105.295369
_cell_angle_beta	103.488922
_cell_angle_gamma	107.526751
loop_
_atom_site_label
_atom_site_type_symbol
_atom_site_fract_x
_atom_site_fract_y
_atom_site_fract_z
V1	V	-4.067279	-0.182068	-0.290700
O2	O	-4.012483	0.007662	-0.257719
O3	O	-4.058468	-0.359964	-0.315110
O4	O	-4.018323	-0.179745	-0.405441
O5	O	-4.052906	-0.173806	-0.166763
V6	V	-4.545849	-0.159318	-0.272670
O7	O	-4.339402	-0.231973	-0.330252
O8	O	-4.723923	-0.109413	-0.233118
O9	O	-4.331453	0.018579	-0.248260
O10	O	-4.718042	-0.349047	-0.305651
O11	O	-4.677619	-0.167580	-0.396607
O12	O	-4.371598	-0.161641	-0.157929
C13	C	-3.913118	-0.403317	-0.317336
C14	C	-3.987197	-0.548752	-0.338059
C15	C	-4.054529	-0.745852	-0.292390
C16	C	-3.977968	-0.595537	-0.270974
C17	C	-3.861908	-0.173427	-0.432561
C18	C	-3.903426	-0.172704	-0.526535
C19	C	-3.812060	-0.164074	-0.748082
C20	C	-3.993296	-0.275467	-0.833973
C21	C	-3.979509	-0.171350	-0.698585
C22	C	-3.872280	-0.058682	-0.780143
C23	C	-4.052984	-0.170035	-0.864774
C24	C	-4.160249	-0.282842	-0.783260
C25	C	-4.039149	-0.065959	-0.729400
C26	C	-4.220528	-0.177384	-0.815276
C27	C	-3.937177	-0.172108	-0.602847
C28	C	-4.095336	-0.169287	-0.960513
C29	C	-4.140147	0.061924	-0.246033
C30	C	-4.045306	0.207358	-0.225316
C31	C	-4.191357	-0.167963	-0.130805
C32	C	-4.129075	-0.168679	-0.036829
H33	H	-3.980739	-0.721418	-0.152036
F34	F	-4.063796	0.049822	-0.670367
F35	F	-3.968548	-0.391241	-0.892974
H36	H	-3.913399	-0.524317	-0.197690
F37	F	-4.138948	-0.838941	-0.388175
H38	H	-4.051775	-0.619971	-0.411344
F39	F	-3.585970	-0.156905	-0.709796
F40	F	-3.713681	0.065143	-0.779647
H41	H	-4.281596	-0.377679	-0.783768
F42	F	-4.446822	-0.184773	-0.853417
