data_functionalizedCrystal
_audit_creation_method	'MofGen! by Chris Wilmer'
_symmetry_space_group_name_H-M	'P1'
_symmetry_Int_Tables_number	1
_symmetry_cell_setting	triclinic
loop_
_symmetry_equiv_pos_as_xyz
  x,y,z
_cell_length_a	9.065218
_cell_length_b	10.654556
_cell_length_c	9.130313
_cell_angle_alpha	90.001127
_cell_angle_beta	89.997596
_cell_angle_gamma	95.248289
loop_
_atom_site_label
_atom_site_type_symbol
_atom_site_fract_x
_atom_site_fract_y
_atom_site_fract_z
O1	O	-0.207279	1.668654	0.121739
O2	O	-0.227013	1.303255	0.121753
O3	O	-0.002462	1.493508	0.121741
O4	O	-0.431829	1.478402	0.121751
O5	O	-0.002458	1.493497	-0.121857
O6	O	-0.227008	1.303244	-0.121846
O7	O	-0.207274	1.668644	-0.121860
Cu8	Cu	-0.217141	1.485943	-0.144095
Cu9	Cu	-0.217146	1.485956	0.143989
O10	O	-0.431825	1.478391	-0.121848
C11	C	-0.225560	1.256446	-0.000044
C12	C	-0.221218	1.116986	-0.000039
C13	C	-0.215109	0.920422	0.132736
C14	C	-0.219178	1.051461	0.132745
C15	C	-0.219173	1.051468	-0.132840
C16	C	-0.215093	0.920433	-0.132848
C17	C	-0.486806	1.479848	-0.000048
C18	C	-0.650625	1.484189	-0.000044
C19	C	0.052519	1.492050	-0.000056
C20	C	0.216338	1.487710	-0.000050
C21	C	-0.208727	1.715453	-0.000059
C22	C	-0.213068	1.854913	-0.000055
N23	N	-0.217137	1.485943	-0.346718
C24	C	-0.117743	1.570222	-0.576722
C25	C	-0.117745	1.570214	-0.423385
C26	C	-0.316543	1.401683	-0.423396
C27	C	-0.316547	1.401698	-0.576730
N28	N	-0.217139	1.485965	0.346611
H29	H	-0.213458	0.867080	0.240864
H30	H	-0.036801	1.638840	-0.639134
N31	N	-0.423749	1.310806	-0.659429
H32	H	-0.408668	1.323606	-0.768197
H33	H	-0.528581	1.326493	-0.632619
H34	H	-0.220825	1.104830	-0.240955
H35	H	-0.213430	0.867094	-0.240989
N36	N	-0.221365	1.122121	0.275969
H37	H	-0.219460	1.060727	0.360084
H38	H	-0.314357	1.167353	0.281764
H39	H	-0.036810	1.638825	-0.360967
N40	N	-0.423752	1.310793	-0.340713
H41	H	-0.408665	1.323563	-0.231943
H42	H	-0.405727	1.221509	-0.367536
