data_functionalizedCrystal
_audit_creation_method	'MofGen! by Chris Wilmer'
_symmetry_space_group_name_H-M	'P1'
_symmetry_Int_Tables_number	1
_symmetry_cell_setting	triclinic
loop_
_symmetry_equiv_pos_as_xyz
  x,y,z
_cell_length_a	12.645331
_cell_length_b	17.640280
_cell_length_c	17.640968
_cell_angle_alpha	114.317439
_cell_angle_beta	78.774858
_cell_angle_gamma	101.200740
loop_
_atom_site_label
_atom_site_type_symbol
_atom_site_fract_x
_atom_site_fract_y
_atom_site_fract_z
Zn1	Zn	1.792545	0.233871	-0.399731
Zn2	Zn	1.792458	0.399540	-0.234092
Zn3	Zn	1.585463	0.261756	-0.261928
Zn4	Zn	1.645057	0.371635	-0.371869
O5	O	1.703880	0.316701	-0.316905
O6	O	1.940886	0.255856	-0.377770
O7	O	1.740023	0.404611	-0.122454
O8	O	1.588028	0.142740	-0.303518
O9	O	1.940822	0.377572	-0.256076
O10	O	1.740171	0.122253	-0.404761
O11	O	1.587944	0.303382	-0.142905
O12	O	1.445015	0.276324	-0.276501
O13	O	1.689598	0.330013	-0.490896
O14	O	1.488799	0.357052	-0.357274
O15	O	1.797957	0.228798	-0.511366
O16	O	1.797809	0.511156	-0.229059
O17	O	1.689514	0.490655	-0.330283
C18	C	1.750151	0.530802	-0.273645
C19	C	1.770049	0.622390	-0.255165
C20	C	1.428441	0.316686	-0.316885
C21	C	1.310616	0.316696	-0.316892
C22	C	1.750435	0.273182	-0.531871
C23	C	1.770273	0.254637	-0.623477
C24	C	1.115485	0.265546	-0.266489
C25	C	1.238020	0.265768	-0.266176
C26	C	1.279758	0.408299	-0.275635
C27	C	1.156990	0.408037	-0.275273
C28	C	1.157576	0.277019	-0.408631
C29	C	1.279657	0.275178	-0.408538
C30	C	1.980395	0.316716	-0.316926
C31	C	2.098229	0.316723	-0.316934
C32	C	1.657462	0.101760	-0.360353
C33	C	1.637681	0.010164	-0.378867
C34	C	1.553219	0.870441	-0.457591
C35	C	1.571912	0.956508	-0.440201
C36	C	1.684787	0.977769	-0.334903
C37	C	1.666107	0.891702	-0.352288
C38	C	1.600321	0.838045	-0.413632
C39	C	1.713210	0.859306	-0.308328
C40	C	1.694527	0.773247	-0.325708
C41	C	1.628741	0.719585	-0.387048
C42	C	1.581638	0.751986	-0.431012
C43	C	1.778989	0.912965	-0.246980
C44	C	1.826092	0.880568	-0.203020
C45	C	1.807415	0.794508	-0.220405
C46	C	1.741630	0.740846	-0.281744
C47	C	1.854518	0.762106	-0.176441
C48	C	1.835835	0.676048	-0.193821
C49	C	1.722947	0.654787	-0.299125
C50	C	1.553479	0.457137	-0.871466
C51	C	1.572140	0.439701	-0.957545
C52	C	1.684964	0.334315	-0.978849
C53	C	1.666308	0.351740	-0.892770
C54	C	1.600565	0.413152	-0.839085
C55	C	1.713395	0.307755	-0.860389
C56	C	1.694744	0.325181	-0.774317
C57	C	1.629007	0.386593	-0.720626
C58	C	1.581915	0.430579	-0.753013
C59	C	1.779144	0.246347	-0.914075
C60	C	1.826230	0.202362	-0.881693
C61	C	1.807574	0.219784	-0.795621
C62	C	1.741837	0.281195	-0.741930
C63	C	1.854666	0.175798	-0.763234
C64	C	1.836016	0.193224	-0.677162
C65	C	1.723186	0.298622	-0.655858
C66	C	1.657556	0.359991	-0.102788
C67	C	1.637872	0.378304	-0.011229
H68	H	1.257401	0.198391	-0.294048
H69	H	1.533792	0.475524	-0.983905
N70	N	1.655729	0.599975	-0.361776
N71	N	1.571499	0.557885	-0.342413
H72	H	1.524024	0.519176	-0.386656
H73	H	1.330426	0.308328	-0.449552
N74	N	1.884091	0.148297	-0.644067
N75	N	1.867427	0.163865	-0.567216
H76	H	1.901383	0.132136	-0.543841
H77	H	1.738496	0.284315	-1.022570
H78	H	1.256473	0.293422	-0.198582
N79	N	1.798085	1.000876	-0.229208
N80	N	1.770414	1.052329	-0.157139
H81	H	1.783902	1.114417	-0.144587
H82	H	1.499658	0.826750	-0.507550
N83	N	1.921832	0.113073	-0.818061
N84	N	2.018748	0.120491	-0.807337
H85	H	2.066185	0.076190	-0.846056
N86	N	1.921711	0.816909	-0.113776
N87	N	1.963758	0.787973	-0.074528
H88	H	2.011211	0.826676	-0.030268
N89	N	1.893275	0.935374	-0.140350
N90	N	1.867768	0.941173	-0.066235
H91	H	1.915217	0.979879	-0.021971
H92	H	1.073860	0.292962	-0.199307
N93	N	1.341796	0.458379	-0.319296
N94	N	1.402516	0.522843	-0.281537
H95	H	1.446335	0.558212	-0.312373
H96	H	1.794329	0.232162	-0.984159
H97	H	1.874190	0.649671	-0.158024
N98	N	1.064965	0.180823	-0.301302
N99	N	1.015648	0.157168	-0.363696
H100	H	0.979957	0.097330	-0.388284
N101	N	1.108843	0.447691	-0.190523
N102	N	1.165968	0.475364	-0.132053
H103	H	1.131969	0.503370	-0.072194
N104	N	1.145174	0.458681	-0.318156
N105	N	1.227543	0.494111	-0.348250
H106	H	1.219203	0.529883	-0.378531
N107	N	1.656044	0.361358	-0.600999
N108	N	1.639411	0.376911	-0.524151
H109	H	1.591997	0.421218	-0.485405
H110	H	1.117880	0.210463	-0.442769
N111	N	1.306269	0.448173	-0.191664
N112	N	1.347879	0.409304	-0.162039
H113	H	1.366600	0.437461	-0.102733
H114	H	1.298800	0.207681	-0.439330
H115	H	1.879762	0.152362	-0.925415
H116	H	1.613522	0.649512	-0.401192
H117	H	1.613828	0.400784	-0.650540
N118	N	1.514740	0.493302	-0.698181
N119	N	1.472689	0.532564	-0.727102
H120	H	1.425247	0.576860	-0.688378
H121	H	1.528078	0.708295	-0.480971
N122	N	1.146711	0.323530	-0.456040
N123	N	1.095514	0.385648	-0.422549
H124	H	1.087843	0.418506	-0.456022
N125	N	1.486303	0.519861	-0.816634
N126	N	1.444253	0.559123	-0.845555
H127	H	1.396811	0.603418	-0.806831
H128	H	1.533565	0.982878	-0.476013
N129	N	1.751973	1.032593	-0.272242
N130	N	1.768643	1.109430	-0.256727
H131	H	1.816096	1.148150	-0.212472
