data_functionalizedCrystal
_audit_creation_method	'MofGen! by Chris Wilmer'
_symmetry_space_group_name_H-M	'P1'
_symmetry_Int_Tables_number	1
_symmetry_cell_setting	triclinic
loop_
_symmetry_equiv_pos_as_xyz
  x,y,z
_cell_length_a	10.654550
_cell_length_b	19.188930
_cell_length_c	9.730223
_cell_angle_alpha	89.990488
_cell_angle_beta	89.999957
_cell_angle_gamma	83.814856
loop_
_atom_site_label
_atom_site_type_symbol
_atom_site_fract_x
_atom_site_fract_y
_atom_site_fract_z
O1	O	1.665764	0.098062	-0.114205
O2	O	2.165764	0.598062	0.385795
O3	O	1.300088	0.107404	-0.114232
O4	O	1.800088	0.607404	0.385768
O5	O	1.493479	0.001147	-0.114191
O6	O	1.993479	0.501147	0.385809
O7	O	1.472373	0.204320	-0.114246
O8	O	1.972373	0.704320	0.385754
O9	O	1.493466	0.001144	0.114389
O10	O	1.993466	0.501144	0.614389
O11	O	1.300076	0.107402	0.114348
O12	O	1.800076	0.607402	0.614348
O13	O	1.665752	0.098059	0.114375
O14	O	2.165752	0.598059	0.614375
Zn15	Zn	1.482912	0.102730	0.150654
Zn16	Zn	1.982912	0.602730	0.650654
Zn17	Zn	1.482928	0.102734	-0.150510
Zn18	Zn	1.982928	0.602734	0.349490
O19	O	1.472361	0.204317	0.114334
O20	O	1.972361	0.704317	0.614334
C21	C	1.253298	0.106717	0.000055
C22	C	1.753298	0.606717	0.500055
C23	C	1.113898	0.104665	0.000046
C24	C	1.613898	0.604665	0.500046
C25	C	1.492789	-0.024870	0.000103
C26	C	1.992789	0.475130	0.500103
C27	C	1.490737	-0.102388	0.000115
C28	C	1.990737	0.397612	0.500115
C29	C	1.033089	0.167228	0.000033
C30	C	1.533089	0.667228	0.500033
C31	C	0.902109	0.165295	0.000058
C32	C	1.402109	0.665295	0.500058
C33	C	0.932761	0.038231	0.000103
C34	C	1.432761	0.538231	0.500103
C35	C	1.063738	0.040164	0.000088
C36	C	1.563738	0.540164	0.500088
C37	C	1.604213	-0.146570	0.000130
C38	C	2.104213	0.353430	0.500130
C39	C	1.602285	-0.219407	0.000108
C40	C	2.102285	0.280593	0.500108
C41	C	1.486876	-0.248058	0.000098
C42	C	1.986876	0.251942	0.500098
C43	C	1.373386	-0.203866	0.000076
C44	C	1.873386	0.296134	0.500076
C45	C	1.375316	-0.131032	0.000084
C46	C	1.875316	0.368968	0.500084
N47	N	1.398655	-0.356641	0.077882
N48	N	1.898655	0.143359	0.577882
N49	N	1.396829	-0.425831	0.077877
N50	N	1.896829	0.074169	0.577877
C51	C	1.481052	-0.467505	0.000070
C52	C	1.981052	0.032495	0.500070
N53	N	1.567189	-0.437375	-0.077714
N54	N	2.067189	0.062625	0.422286
N55	N	1.569019	-0.368178	-0.077703
N56	N	2.069019	0.131822	0.422297
C57	C	1.484770	-0.327034	0.000088
C58	C	1.984770	0.172966	0.500088
C59	C	1.592445	-0.590665	0.000059
C60	C	2.092445	-0.090665	0.500059
C61	C	1.590513	-0.663502	0.000028
C62	C	2.090513	-0.163502	0.500028
C63	C	1.361610	-0.647960	0.000010
C64	C	1.861610	-0.147960	0.500010
C65	C	1.363545	-0.575124	0.000027
C66	C	1.863545	-0.075124	0.500027
C67	C	1.478966	-0.546481	0.000058
C68	C	1.978966	-0.046481	0.500058
C69	C	1.712541	0.098746	0.000085
C70	C	2.212541	0.598746	0.500085
C71	C	1.851941	0.100799	0.000085
C72	C	2.351941	0.600799	0.500085
C73	C	1.473051	0.230334	0.000037
C74	C	1.973051	0.730334	0.500037
C75	C	1.475102	0.307852	0.000017
C76	C	1.975102	0.807852	0.500017
N77	N	1.482910	0.102727	0.356190
N78	N	1.982910	0.602727	0.856190
N79	N	1.482940	0.102731	-0.356047
N80	N	1.982940	0.602731	0.143953
C81	C	1.568572	0.055696	0.428134
C82	C	2.068572	0.555696	0.928134
C83	C	1.568584	0.055696	0.572017
C84	C	2.068584	0.555696	1.072017
C85	C	1.397269	0.149764	0.571999
C86	C	1.897269	0.649764	1.071999
C87	C	1.397251	0.149760	0.428119
C88	C	1.897251	0.649760	0.928119
H89	H	1.073924	0.219748	0.000010
H90	H	1.573924	0.719748	0.500010
Cl91	Cl	1.289547	0.208886	0.337666
Cl92	Cl	1.789547	0.708886	0.837666
H93	H	1.638337	0.017398	0.630590
H94	H	2.138337	0.517398	1.130590
H95	H	1.279418	-0.227199	0.000065
H96	H	1.779418	0.272801	0.500065
H97	H	1.327529	0.188059	0.630578
H98	H	1.827529	0.688059	1.130578
Cl99	Cl	1.676252	-0.003435	0.337715
Cl100	Cl	2.176252	0.496565	0.837715
H101	H	0.836318	0.216240	0.000050
H102	H	1.336318	0.716240	0.500050
H103	H	0.891904	-0.014283	0.000145
H104	H	1.391904	0.485717	0.500145
Cl105	Cl	1.232649	-0.075486	0.000066
Cl106	Cl	1.732649	0.424514	0.500066
Cl107	Cl	1.749313	-0.110565	0.000130
Cl108	Cl	2.249313	0.389435	0.500130
H109	H	1.129537	-0.010785	0.000102
H110	H	1.629537	0.489215	0.500102
Cl111	Cl	1.737542	-0.554652	0.000106
Cl112	Cl	2.237542	-0.054652	0.500106
H113	H	1.682922	-0.699475	0.000033
H114	H	2.182922	-0.199475	0.500033
Cl115	Cl	1.744951	-0.274960	0.000125
Cl116	Cl	2.244951	0.225040	0.500125
Cl117	Cl	1.216522	-0.683972	-0.000010
Cl118	Cl	1.716522	-0.183972	0.499990
H119	H	1.271141	-0.539150	0.000022
H120	H	1.771141	-0.039150	0.500022
