data_functionalizedCrystal
_audit_creation_method	'MofGen! by Chris Wilmer'
_symmetry_space_group_name_H-M	'P1'
_symmetry_Int_Tables_number	1
_symmetry_cell_setting	triclinic
loop_
_symmetry_equiv_pos_as_xyz
  x,y,z
_cell_length_a	21.295418
_cell_length_b	21.295417
_cell_length_c	21.295411
_cell_angle_alpha	90.027671
_cell_angle_beta	90.035622
_cell_angle_gamma	90.045515
loop_
_atom_site_label
_atom_site_type_symbol
_atom_site_fract_x
_atom_site_fract_y
_atom_site_fract_z
Zn1	Zn	0.962309	-0.250371	0.356238
Zn2	Zn	0.962228	-0.355636	0.250965
Zn3	Zn	0.857047	-0.250414	0.250948
Zn4	Zn	0.857003	-0.355636	0.356162
O5	O	0.909647	-0.303014	0.303578
O6	O	1.050388	-0.264317	0.342313
O7	O	0.948260	-0.341696	0.162874
O8	O	0.871063	-0.162319	0.264940
O9	O	1.050328	-0.341655	0.264969
O10	O	0.948398	-0.162287	0.342296
O11	O	0.870984	-0.264390	0.162861
O12	O	0.768952	-0.264389	0.264866
O13	O	0.870988	-0.341654	0.444261
O14	O	0.768919	-0.341695	0.342166
O15	O	0.948355	-0.264317	0.444317
O16	O	0.948217	-0.443725	0.264895
O17	O	0.870909	-0.443725	0.342183
C18	C	0.746095	-0.303047	0.303506
C19	C	0.676127	-0.303077	0.303490
C20	C	0.643260	-0.343383	0.343680
C21	C	0.577517	-0.343368	0.343708
C22	C	0.544644	-0.303052	0.303535
C23	C	0.577519	-0.262738	0.263342
C24	C	0.643261	-0.262750	0.263320
N25	N	0.441376	-0.298132	0.248477
N26	N	0.378925	-0.298124	0.248501
C27	C	0.346570	-0.303012	0.303602
N28	N	0.379025	-0.307921	0.358680
N29	N	0.441483	-0.307932	0.358656
C30	C	0.473359	-0.303034	0.303556
C31	C	0.242417	-0.343304	0.343826
C32	C	0.176673	-0.343284	0.343855
C33	C	0.176677	-0.262658	0.263484
C34	C	0.242419	-0.262674	0.263460
C35	C	0.275285	-0.303001	0.303630
C36	C	0.909566	-0.466566	0.303547
C37	C	0.909590	-0.536534	0.303554
C38	C	0.949835	-0.569327	0.343862
C39	C	0.949857	-0.635070	0.343878
C40	C	0.909641	-0.668016	0.303574
C41	C	0.869387	-0.635215	0.263263
C42	C	0.869362	-0.569474	0.263253
N43	N	0.904889	-0.771277	0.248481
N44	N	0.904917	-0.833728	0.248492
C45	C	0.909714	-0.866091	0.303602
N46	N	0.914495	-0.833643	0.358702
N47	N	0.914470	-0.771186	0.358690
C48	C	0.909664	-0.739302	0.303580
C49	C	0.949986	-0.970170	0.343931
C50	C	0.950004	-1.035914	0.343947
C51	C	0.869537	-1.036058	0.263327
C52	C	0.869516	-0.970315	0.263316
C53	C	0.909744	-0.937375	0.303617
C54	C	1.073837	-0.302981	0.303652
C55	C	1.143805	-0.302967	0.303683
C56	C	0.909676	-0.302981	0.467769
C57	C	0.909688	-0.302966	0.537737
C58	C	0.909744	-0.138824	0.303624
C59	C	0.909786	-0.068856	0.303644
C60	C	0.909654	-0.303002	0.140027
C61	C	0.909764	-0.302839	0.070059
C62	C	0.949996	-0.343089	1.037202
C63	C	0.949984	-0.343109	0.971460
C64	C	0.909747	-0.302868	0.938577
C65	C	0.869508	-0.262615	0.971441
C66	C	0.869516	-0.262601	1.037183
N67	N	0.904938	-0.247790	0.835369
N68	N	0.904934	-0.247806	0.772917
C69	C	0.909720	-0.302911	0.740502
N70	N	0.914522	-0.358001	0.772897
N71	N	0.914529	-0.357984	0.835354
C72	C	0.909734	-0.302880	0.867291
C73	C	0.949942	-0.343186	0.636359
C74	C	0.949926	-0.343207	0.570616
C75	C	0.869452	-0.262707	0.570598
C76	C	0.869465	-0.262692	0.636341
C77	C	0.909713	-0.302930	0.669217
H78	H	0.550750	-0.229912	0.230634
Br79	Br	1.004483	-0.679585	0.398582
H80	H	0.982776	-1.062613	0.376774
H81	H	0.836788	-1.062882	0.230515
H82	H	0.836641	-0.662045	0.230448
Br83	Br	0.814892	-0.925807	0.208610
H84	H	0.149912	-0.229829	0.230777
Br85	Br	1.004611	-0.397704	1.081818
H86	H	0.836746	-0.229852	0.944664
Br87	Br	0.814737	-0.524966	0.208546
Br88	Br	0.287025	-0.398029	0.398344
H89	H	0.836753	-0.229823	1.063934
H90	H	0.550752	-0.376190	0.376438
Br91	Br	1.004578	-0.925462	0.398625
H92	H	0.982755	-0.375879	0.944703
Br93	Br	0.687861	-0.398110	0.398198
H94	H	0.149914	-0.376105	0.376587
H95	H	0.982713	-0.375952	0.663129
Br96	Br	1.004426	-0.524625	0.398559
H97	H	0.836689	-0.229944	0.543825
Br98	Br	1.004527	-0.397842	0.526023
Br99	Br	0.687869	-0.208043	0.208773
Br100	Br	0.287028	-0.207969	0.208913
H101	H	0.836706	-0.229913	0.663093
