data_functionalizedCrystal
_audit_creation_method	'MofGen! by Chris Wilmer'
_symmetry_space_group_name_H-M	'P1'
_symmetry_Int_Tables_number	1
_symmetry_cell_setting	triclinic
loop_
_symmetry_equiv_pos_as_xyz
  x,y,z
_cell_length_a	11.169417
_cell_length_b	13.897448
_cell_length_c	13.897441
_cell_angle_alpha	89.969401
_cell_angle_beta	89.981458
_cell_angle_gamma	90.018571
loop_
_atom_site_label
_atom_site_type_symbol
_atom_site_fract_x
_atom_site_fract_y
_atom_site_fract_z
Zn1	Zn	1.834886	-0.383962	-0.545325
Zn2	Zn	2.084886	-0.133962	-0.295325
Zn3	Zn	2.334886	0.116038	-0.045325
Zn4	Zn	2.584886	0.366038	0.204675
Zn5	Zn	1.834754	-0.545283	-0.384026
Zn6	Zn	2.084754	-0.295283	-0.134026
Zn7	Zn	2.334754	-0.045283	0.115974
Zn8	Zn	2.584754	0.204717	0.365974
Zn9	Zn	1.634176	-0.384006	-0.384049
Zn10	Zn	1.884176	-0.134006	-0.134049
Zn11	Zn	2.134176	0.115994	0.115951
Zn12	Zn	2.384176	0.365994	0.365951
Zn13	Zn	1.634153	-0.545219	-0.545285
Zn14	Zn	1.884153	-0.295219	-0.295285
Zn15	Zn	2.134153	-0.045219	-0.045285
Zn16	Zn	2.384153	0.204781	0.204715
O17	O	1.734492	-0.464617	-0.464671
O18	O	1.984492	-0.214617	-0.214671
O19	O	2.234492	0.035383	0.035329
O20	O	2.484492	0.285383	0.285329
O21	O	2.002818	-0.405369	-0.523935
O22	O	2.252818	-0.155369	-0.273935
O23	O	2.502818	0.094631	-0.023935
O24	O	2.752818	0.344631	0.226065
O25	O	1.808101	-0.523935	-0.249048
O26	O	2.058101	-0.273935	0.000952
O27	O	2.308101	-0.023935	0.250952
O28	O	2.558101	0.226065	0.500952
O29	O	1.660865	-0.249019	-0.405469
O30	O	1.910865	0.000981	-0.155469
O31	O	2.160865	0.250981	0.094531
O32	O	2.410865	0.500981	0.344531
O33	O	2.002721	-0.523892	-0.405430
O34	O	2.252721	-0.273892	-0.155430
O35	O	2.502721	-0.023892	0.094570
O36	O	2.752721	0.226108	0.344570
O37	O	1.808326	-0.248986	-0.523958
O38	O	2.058326	0.001014	-0.273958
O39	O	2.308326	0.251014	-0.023958
O40	O	2.558326	0.501014	0.226042
O41	O	1.660738	-0.405446	-0.249065
O42	O	1.910738	-0.155446	0.000935
O43	O	2.160738	0.094554	0.250935
O44	O	2.410738	0.344554	0.500935
O45	O	1.466223	-0.405383	-0.405431
O46	O	1.716223	-0.155383	-0.155431
O47	O	1.966223	0.094617	0.094569
O48	O	2.216223	0.344617	0.344569
O49	O	1.660827	-0.523782	-0.680272
O50	O	1.910827	-0.273782	-0.430272
O51	O	2.160827	-0.023782	-0.180272
O52	O	2.410827	0.226218	0.069728
O53	O	1.466207	-0.523825	-0.523890
O54	O	1.716207	-0.273825	-0.273890
O55	O	1.966207	-0.023825	-0.023890
O56	O	2.216207	0.226175	0.226110
O57	O	1.808304	-0.405307	-0.680301
O58	O	2.058304	-0.155307	-0.430301
O59	O	2.308304	0.094693	-0.180301
O60	O	2.558304	0.344693	0.069699
O61	O	1.808079	-0.680256	-0.405391
O62	O	2.058079	-0.430256	-0.155391
O63	O	2.308079	-0.180256	0.094609
O64	O	2.558079	0.069744	0.344609
O65	O	1.660699	-0.680209	-0.523867
O66	O	1.910699	-0.430209	-0.273867
O67	O	2.160699	-0.180209	-0.023867
O68	O	2.410699	0.069791	0.226133
C69	C	1.422668	-0.464603	-0.464659
C70	C	1.672668	-0.214603	-0.214659
C71	C	1.922668	0.035397	0.035341
C72	C	2.172668	0.285397	0.285341
C73	C	1.289268	-0.464620	-0.464676
C74	C	1.539268	-0.214620	-0.214676
C75	C	1.789268	0.035380	0.035324
C76	C	2.039268	0.285380	0.285324
C77	C	1.734405	-0.715232	-0.464643
C78	C	1.984405	-0.465232	-0.214643
C79	C	2.234405	-0.215232	0.035357
C80	C	2.484405	0.034768	0.285357
C81	C	1.734477	-0.822446	-0.464664
C82	C	1.984477	-0.572446	-0.214664
C83	C	2.234477	-0.322446	0.035336
C84	C	2.484477	-0.072446	0.285336
C85	C	1.734603	-1.018741	-0.464724
C86	C	1.984603	-0.768741	-0.214724
C87	C	2.234603	-0.518741	0.035276
C88	C	2.484603	-0.268741	0.285276
C89	C	1.734530	-0.909508	-0.464693
C90	C	1.984530	-0.659508	-0.214693
C91	C	2.234530	-0.409508	0.035307
C92	C	2.484530	-0.159508	0.285307
C93	C	2.047535	-0.464633	-0.464684
C94	C	2.297535	-0.214633	-0.214684
C95	C	2.547535	0.035367	0.035316
C96	C	2.797535	0.285367	0.285316
C97	C	2.180935	-0.464639	-0.464690
C98	C	2.430935	-0.214639	-0.214690
C99	C	2.680935	0.035361	0.035310
C100	C	2.930935	0.285361	0.285310
C101	C	1.734577	-0.464532	-0.716264
C102	C	1.984577	-0.214532	-0.466264
C103	C	2.234577	0.035468	-0.216264
C104	C	2.484577	0.285468	0.033736
C105	C	1.734614	-0.464496	-0.823478
C106	C	1.984614	-0.214496	-0.573478
C107	C	2.234614	0.035504	-0.323478
C108	C	2.484614	0.285504	-0.073478
C109	C	1.734613	-0.213024	-0.464720
C110	C	1.984613	0.036976	-0.214720
C111	C	2.234613	0.286976	0.035280
C112	C	2.484613	0.536976	0.285280
C113	C	1.734664	-0.105811	-0.464741
C114	C	1.984664	0.144189	-0.214741
C115	C	2.234664	0.394189	0.035259
C116	C	2.484664	0.644189	0.285259
C117	C	1.734646	-0.464431	-1.019774
C118	C	1.984646	-0.214431	-0.769774
C119	C	2.234646	0.035569	-0.519774
C120	C	2.484646	0.285569	-0.269774
C121	C	1.734625	-0.464470	-0.910541
C122	C	1.984625	-0.214470	-0.660541
C123	C	2.234625	0.035530	-0.410541
C124	C	2.484625	0.285530	-0.160541
C125	C	1.734477	-0.464633	-0.214057
C126	C	1.984477	-0.214633	0.035943
C127	C	2.234477	0.035367	0.285943
C128	C	2.484477	0.285367	0.535943
C129	C	1.734673	-0.464397	-0.106844
C130	C	1.984673	-0.214397	0.143156
C131	C	2.234673	0.035603	0.393156
C132	C	2.484673	0.285603	0.643156
