data_functionalizedCrystal
_audit_creation_method	'MofGen! by Chris Wilmer'
_symmetry_space_group_name_H-M	'P1'
_symmetry_Int_Tables_number	1
_symmetry_cell_setting	triclinic
loop_
_symmetry_equiv_pos_as_xyz
  x,y,z
_cell_length_a	23.196402
_cell_length_b	18.760487
_cell_length_c	23.196401
_cell_angle_alpha	90.040886
_cell_angle_beta	59.999265
_cell_angle_gamma	60.020943
loop_
_atom_site_label
_atom_site_type_symbol
_atom_site_fract_x
_atom_site_fract_y
_atom_site_fract_z
Zr1	Zr	0.631010	0.686687	-0.075292
O2	O	0.751291	0.572854	-0.167402
O3	O	0.510740	0.721580	-0.047058
O4	O	0.631026	0.721557	-0.167333
O5	O	0.630989	0.572899	0.047752
O6	O	0.631026	0.838860	-0.167275
O7	O	0.631005	0.572877	-0.047127
O8	O	0.415856	0.838902	0.047875
O9	O	0.846159	0.572857	-0.167398
O10	O	0.560205	0.824007	-0.034969
O11	O	0.560192	0.736482	0.035794
O12	O	0.701814	0.736454	-0.105814
O13	O	0.701802	0.648928	-0.035050
Zr14	Zr	0.630984	0.873806	0.076122
Zr15	Zr	0.631010	0.873772	-0.075198
Zr16	Zr	0.630984	0.686722	0.076029
Zr17	Zr	0.782312	0.686692	-0.075285
Zr18	Zr	0.479681	0.873801	0.076116
O19	O	0.751254	0.838913	0.047889
O20	O	0.751291	0.838864	-0.167270
O21	O	0.751254	0.572903	0.047757
O22	O	0.510703	0.987640	0.168233
O23	O	0.510740	0.987591	-0.046926
O24	O	0.510703	0.721630	0.168100
O25	O	0.631005	0.987595	-0.046921
O26	O	0.630968	0.838937	0.168164
O27	O	0.630968	0.721634	0.168105
O28	O	0.630988	0.987616	0.047958
O29	O	0.846158	0.721564	-0.167324
O30	O	0.415835	0.838929	0.168155
O31	O	0.415835	0.987637	0.168229
O32	O	0.415856	0.987609	0.047949
O33	O	0.846138	0.572884	-0.047118
O34	O	0.846138	0.721592	-0.047044
O35	O	0.560180	0.824040	0.106645
O36	O	0.560192	0.911565	0.035881
O37	O	0.701801	0.824012	-0.034963
O38	O	0.701789	0.736486	0.035800
C39	C	0.441741	0.780240	0.000407
C40	C	0.377509	0.780238	0.000404
C41	C	0.630997	0.546232	0.000299
C42	C	0.630997	0.466810	0.000259
C43	C	0.347345	0.825920	-0.036536
C44	C	0.286984	0.825928	-0.036530
C45	C	0.256801	0.780238	0.000406
C46	C	0.286969	0.734554	0.037355
C47	C	0.347323	0.734555	0.037354
C48	C	0.194772	0.703695	-0.004907
C49	C	0.134423	0.703692	-0.004911
C50	C	0.070646	0.780239	0.000413
C51	C	0.067233	0.856788	0.005728
C52	C	0.127587	0.856788	0.005727
C53	C	0.191356	0.780233	0.000412
C54	C	-0.024969	0.825934	-0.036522
C55	C	-0.085335	0.825945	-0.036512
C56	C	-0.085343	0.734563	0.037369
C57	C	-0.024984	0.734560	0.037363
C58	C	0.005202	0.780244	0.000413
C59	C	0.704918	0.085291	-0.036442
C60	C	0.557076	0.176703	0.037521
C61	C	0.557075	0.251325	0.037460
C62	C	0.630996	0.242933	0.000447
C63	C	0.704919	0.159919	-0.036505
C64	C	0.483153	0.334344	0.074406
C65	C	0.483149	0.408972	0.074346
C66	C	0.557071	0.400581	0.037337
C67	C	0.630997	0.317561	0.000384
C68	C	0.704919	0.309169	-0.036630
C69	C	0.778846	0.226149	-0.073579
C70	C	0.778842	0.151528	-0.073515
C71	C	0.557075	0.475202	0.037273
C72	C	0.704920	0.383796	-0.036693
C73	C	0.820253	0.780253	0.000424
C74	C	0.884485	0.780255	0.000426
C75	C	0.631029	0.780203	-0.188864
C76	C	0.631040	0.780189	-0.253103
C77	C	0.630997	1.014261	0.000532
C78	C	0.630997	1.093683	0.000571
C79	C	0.631042	0.844814	-0.283234
C80	C	0.631025	0.844833	-0.343581
C81	C	0.631024	0.780214	-0.373803
C82	C	0.631018	0.715583	-0.343662
C83	C	0.631026	0.715571	-0.283312
C84	C	0.678519	0.701351	-0.493222
C85	C	0.678516	0.701363	-0.553572
C86	C	0.630995	0.780253	-0.559939
C87	C	0.583488	0.859135	-0.505952
C88	C	0.583496	0.859122	-0.445603
C89	C	0.631015	0.780221	-0.439241
C90	C	0.630978	0.844904	-0.655504
C91	C	0.630956	0.844924	-0.715849
C92	C	0.630957	0.715667	-0.715933
C93	C	0.630970	0.715654	-0.655585
C94	C	0.630984	0.780272	-0.625376
C95	C	0.630964	0.780290	0.189695
C96	C	0.630953	0.780305	0.253934
C97	C	0.441740	1.014255	0.000524
C98	C	0.377508	1.093675	0.000560
C99	C	0.441708	0.780284	0.189686
C100	C	0.377465	0.780296	0.253923
C101	C	0.441708	1.014298	0.189803
C102	C	0.377465	1.093733	0.254079
C103	C	0.820286	0.546196	-0.188972
C104	C	0.884529	0.466761	-0.253249
C105	C	0.820253	0.546239	0.000307
C106	C	0.884485	0.466819	0.000270
C107	C	0.820286	0.780210	-0.188856
C108	C	0.884529	0.780197	-0.253093
C109	C	0.347351	1.085267	-0.036412
C110	C	0.287006	1.159883	-0.036391
C111	C	0.256817	1.242907	0.000606
C112	C	0.286980	1.251313	0.037579
C113	C	0.347328	1.176698	0.037554
C114	C	0.347290	0.826006	0.321079
C115	C	0.286935	0.826015	0.381442
C116	C	0.256753	0.780318	0.374648
C117	C	0.286935	0.734602	0.307485
C118	C	0.347292	0.734589	0.247123
C119	C	0.347302	1.176732	0.247326
C120	C	0.286947	1.251376	0.307715
C121	C	0.256752	1.243020	0.374856
C122	C	0.286921	1.160013	0.381608
C123	C	0.347279	1.085370	0.321220
C124	C	0.914699	0.383762	-0.246496
C125	C	0.975073	0.309117	-0.306884
C126	C	1.005271	0.317473	-0.374025
C127	C	0.975098	0.400481	-0.380777
C128	C	0.914730	0.475124	-0.320389
C129	C	0.914649	0.475227	0.037236
C130	C	0.975010	0.400610	0.037199
C131	C	1.005202	0.317587	0.000200
C132	C	0.975036	0.309180	-0.036771
C133	C	0.914680	0.383796	-0.036737
C134	C	0.914691	0.825904	-0.246276
C135	C	0.975046	0.825909	-0.306627
C136	C	1.005242	0.780202	-0.373795
C137	C	0.975073	0.734495	-0.380611
C138	C	0.914715	0.734495	-0.320260
H139	H	0.371918	0.863120	-0.066620
Cl140	Cl	0.180871	1.336867	0.450767
H141	H	0.422970	0.341169	0.104540
H142	H	-0.109899	0.863149	-0.066590
Cl143	Cl	-0.123281	0.677122	0.083803
H144	H	0.999629	0.241536	-0.301373
H145	H	0.890163	0.697272	-0.325820
Cl146	Cl	0.871769	0.047162	-0.119963
Cl147	Cl	0.876748	0.373234	-0.162097
Cl148	Cl	0.385294	0.980903	-0.082932
Cl149	Cl	1.012997	0.204801	-0.083278
Cl150	Cl	0.630951	0.926178	-0.753727
H151	H	0.890166	0.542703	-0.325896
H152	H	1.054426	0.256687	-0.423191
Cl153	Cl	0.876743	0.883372	-0.161843
Cl154	Cl	0.249030	1.355717	0.299211
H155	H	0.999693	0.407274	-0.435450
Cl156	Cl	0.876710	0.579590	0.083752
H157	H	0.631026	0.897461	-0.368118
Cl158	Cl	0.385186	0.981031	0.329721
H159	H	0.717208	0.637104	-0.488042
H160	H	0.630951	0.663055	-0.740537
H161	H	0.422953	0.476563	0.104432
Cl162	Cl	1.012918	0.411198	0.083684
Cl163	Cl	0.249048	0.883370	-0.082966
H164	H	0.262368	0.863245	0.436123
H165	H	0.207606	0.780335	0.423804
H166	H	0.544813	0.923351	-0.401647
Cl167	Cl	1.012965	0.883368	-0.298043
Cl168	Cl	1.081124	0.780208	-0.449659
Cl169	Cl	0.876761	0.373211	-0.083209
H170	H	0.631025	0.662944	-0.258779
Cl171	Cl	1.013049	0.677030	-0.465056
H172	H	0.631015	0.662970	-0.368270
H173	H	0.765108	0.017695	-0.066523
Cl174	Cl	0.249096	1.149296	-0.082872
Cl175	Cl	0.797856	0.373236	-0.083222
Cl176	Cl	0.248952	1.149523	0.466019
Cl177	Cl	0.180948	1.336702	0.000632
Cl178	Cl	0.274948	0.607455	-0.011602
Cl179	Cl	0.871772	0.215610	-0.120109
Cl180	Cl	0.464147	0.579561	0.083714
H181	H	1.054348	0.256837	0.000178
H182	H	0.631051	0.897432	-0.258639
H183	H	-0.000422	0.697358	0.067441
Cl184	Cl	0.385218	0.883464	0.329639
H185	H	0.124804	0.919117	0.010055
Cl186	Cl	0.464151	0.187249	0.084045
H187	H	-0.000394	0.863135	-0.066606
Cl188	Cl	-0.012938	0.953024	0.012418
H189	H	0.262389	0.697354	0.067430
Cl190	Cl	0.138721	0.607460	-0.011595
H191	H	0.544792	0.923374	-0.511132
Cl192	Cl	0.630975	0.634403	-0.617705
Cl193	Cl	0.385245	0.677121	0.083797
Cl194	Cl	0.385254	1.187259	0.162928
Cl195	Cl	0.630989	0.926142	-0.617523
H196	H	0.262391	1.318921	0.067701
H197	H	0.371874	1.183556	0.067666
Cl198	Cl	0.738242	0.602199	-0.621437
Cl199	Cl	0.248981	0.677160	0.298956
H200	H	0.371853	0.697369	0.192444
