data_functionalizedCrystal
_audit_creation_method	'MofGen! by Chris Wilmer'
_symmetry_space_group_name_H-M	'P1'
_symmetry_Int_Tables_number	1
_symmetry_cell_setting	triclinic
loop_
_symmetry_equiv_pos_as_xyz
  x,y,z
_cell_length_a	14.971486
_cell_length_b	13.185407
_cell_length_c	14.048226
_cell_angle_alpha	89.993273
_cell_angle_beta	89.998499
_cell_angle_gamma	67.793806
loop_
_atom_site_label
_atom_site_type_symbol
_atom_site_fract_x
_atom_site_fract_y
_atom_site_fract_z
O1	O	1.152623	0.142070	-0.079052
O2	O	0.888113	0.159084	-0.079078
O3	O	1.065686	-0.008113	-0.079057
O4	O	0.975050	0.309267	-0.079073
O5	O	1.065672	-0.008122	0.079264
O6	O	0.888099	0.159074	0.079243
O7	O	1.152609	0.142061	0.079269
Zn8	Zn	1.020352	0.150566	0.104393
Zn9	Zn	1.020370	0.150579	-0.104202
O10	O	0.975035	0.309257	0.079249
C11	C	0.854965	0.158318	0.000079
C12	C	0.756219	0.156038	0.000070
C13	C	1.074868	-0.048734	0.000103
C14	C	1.102236	-0.169759	0.000103
C15	C	0.675263	0.254261	0.000066
C16	C	0.582482	0.252112	0.000081
C17	C	0.570660	0.151739	0.000092
C18	C	0.651625	0.053508	0.000098
C19	C	0.744403	0.055658	0.000090
C20	C	0.458243	0.049034	0.000111
C21	C	0.365459	0.046883	0.000117
C22	C	0.296323	0.245488	0.000101
C23	C	0.389101	0.247638	0.000094
C24	C	0.470060	0.149407	0.000098
C25	C	0.841040	-0.459354	0.000068
C26	C	0.815323	-0.345645	0.000059
C27	C	0.887049	-0.301668	0.000070
C28	C	0.984497	-0.371411	0.000090
C29	C	1.010216	-0.485131	0.000091
C30	C	1.056225	-0.327445	0.000093
C31	C	1.153673	-0.397188	0.000113
C32	C	1.179388	-0.510897	0.000115
C33	C	1.107662	-0.554874	0.000104
C34	C	1.030506	-0.213725	0.000092
C35	C	1.199682	-0.239502	0.000115
C36	C	1.225399	-0.353211	0.000124
C37	C	1.185757	0.142826	0.000110
C38	C	1.284503	0.145106	0.000113
C39	C	0.965854	0.349878	0.000086
C40	C	0.938485	0.470903	0.000081
N41	N	1.020346	0.150556	0.246754
N42	N	1.020385	0.150580	-0.246563
C43	C	1.098987	0.076552	0.296581
C44	C	1.098993	0.076552	0.396239
C45	C	1.020360	0.150561	0.446068
C46	C	0.941711	0.224568	0.396233
C47	C	0.941703	0.224563	0.296577
C48	C	0.941735	0.224576	0.603948
C49	C	0.941744	0.224583	0.703610
C50	C	1.099025	0.076565	0.703609
C51	C	1.099017	0.076560	0.603953
C52	C	1.020369	0.150569	0.554126
H53	H	0.516569	0.332096	0.000077
C54	C	1.344030	-0.524952	0.000147
C55	C	1.286503	-0.587560	0.000132
H56	H	1.410157	-0.572282	0.000164
H57	H	1.330491	-0.480063	-0.055062
H58	H	1.330465	-0.480065	0.055359
H59	H	1.300063	-0.632443	-0.055084
H60	H	1.300048	-0.632469	0.055347
C61	C	1.335970	-0.226447	-0.081257
C62	C	1.278532	-0.191173	0.000126
H63	H	1.384639	-0.196599	-0.081253
H64	H	1.365231	-0.304141	-0.081248
H65	H	1.296992	-0.202504	-0.136463
H66	H	1.317508	-0.215123	0.055334
H67	H	1.249270	-0.113462	0.000126
C68	C	1.154058	-0.071827	0.184583
C69	C	1.185414	-0.004854	0.241837
H70	H	1.207412	-0.122096	0.150792
H71	H	1.126260	-0.111058	0.223489
H72	H	1.107246	-0.027743	0.140625
H73	H	1.232221	-0.048937	0.285800
H74	H	1.213226	0.034381	0.202928
C75	C	1.254472	-0.069726	0.386228
C76	C	1.185448	-0.004779	0.451009
H77	H	1.307851	-0.119930	0.420042
H78	H	1.226709	-0.109032	0.347377
H79	H	1.275678	-0.024261	0.347341
H80	H	1.164237	-0.050245	0.489892
H81	H	1.213215	0.034529	0.489877
C82	C	0.704752	-0.472414	0.081423
C83	C	0.762203	-0.507689	0.000048
H84	H	0.656074	-0.502249	0.081403
H85	H	0.743713	-0.496358	0.136629
H86	H	0.675495	-0.394708	0.081414
H87	H	0.791466	-0.585395	0.000061
H88	H	0.723237	-0.483751	-0.055173
C89	C	0.771580	0.288240	0.734330
C90	C	0.855305	0.305914	0.758393
H91	H	0.718218	0.338443	0.768158
H92	H	0.760313	0.298844	0.667858
H93	H	0.779424	0.215450	0.750670
H94	H	0.847464	0.378702	0.742046
H95	H	0.866573	0.295319	0.824880
C96	C	1.154176	-0.071784	0.815680
C97	C	1.185478	-0.004796	0.758370
H98	H	1.207551	-0.122012	0.849483
H99	H	1.107357	-0.027713	0.859617
H100	H	1.126406	-0.111072	0.776802
H101	H	1.213243	0.034498	0.797249
H102	H	1.232314	-0.048873	0.714428
C103	C	1.190562	-0.724782	-0.081270
C104	C	1.135930	-0.679869	0.000110
H105	H	1.208015	-0.801949	-0.081262
H106	H	1.153506	-0.694296	-0.136473
H107	H	1.247226	-0.708573	-0.081256
H108	H	1.079263	-0.696071	0.000092
H109	H	1.172987	-0.710366	0.055327
H110	H	0.877665	0.284823	0.256009
H111	H	0.866104	-0.209080	0.000065
H112	H	0.810320	-0.024325	0.000093
H113	H	0.877689	0.284839	0.563381
H114	H	0.735981	-0.288868	0.000041
C115	C	0.443112	-0.149215	0.000147
C116	C	0.352462	-0.063447	0.000134
H117	H	0.435085	-0.217327	0.000163
H118	H	0.477861	-0.144252	-0.055061
H119	H	0.477860	-0.144239	0.055360
H120	H	0.317716	-0.068418	-0.055082
H121	H	0.317698	-0.068413	0.055348
C122	C	0.602688	-0.063753	-0.081277
C123	C	0.547239	-0.058940	0.000113
H124	H	0.657633	-0.130406	-0.081274
H125	H	0.565053	-0.060465	-0.136473
H126	H	0.622996	-0.003659	-0.081271
H127	H	0.526925	-0.119030	0.000104
H128	H	0.584881	-0.062238	0.055324
H129	H	0.877683	0.284825	0.436809
H130	H	0.684878	0.335997	0.000057
C131	C	0.878405	-0.156755	-0.081315
C132	C	0.923395	-0.137073	0.000077
H133	H	0.812275	-0.109437	-0.081318
H134	H	0.908948	-0.143399	-0.136510
H135	H	0.883469	-0.230777	-0.081305
H136	H	0.918338	-0.063053	0.000064
H137	H	0.892844	-0.150421	0.055286
H138	H	0.398721	0.329370	0.000076
H139	H	1.304742	-0.410011	0.000139
H140	H	0.230401	0.325471	0.000102
H141	H	0.641992	-0.028218	0.000120
H142	H	1.163049	0.016301	0.563383
