data_functionalizedCrystal
_audit_creation_method	'MofGen! by Chris Wilmer'
_symmetry_space_group_name_H-M	'P1'
_symmetry_Int_Tables_number	1
_symmetry_cell_setting	triclinic
loop_
_symmetry_equiv_pos_as_xyz
  x,y,z
_cell_length_a	16.974813
_cell_length_b	10.654550
_cell_length_c	9.730223
_cell_angle_alpha	90.003749
_cell_angle_beta	86.344112
_cell_angle_gamma	96.061272
loop_
_atom_site_label
_atom_site_type_symbol
_atom_site_fract_x
_atom_site_fract_y
_atom_site_fract_z
O1	O	0.111052	-1.666105	-0.126752
O2	O	0.121633	-1.300462	-0.127906
O3	O	0.001295	-1.493478	-0.114527
O4	O	0.231389	-1.473090	-0.140131
O5	O	0.001298	-1.493475	0.114052
O6	O	0.121636	-1.300460	0.100673
O7	O	0.111055	-1.666103	0.101828
Zn8	Zn	0.116346	-1.483281	0.137543
Zn9	Zn	0.116342	-1.483284	-0.163621
O10	O	0.231392	-1.473088	0.088449
C11	C	0.120857	-1.253675	-0.013527
C12	C	0.118533	-1.114268	-0.013260
C13	C	-0.028166	-1.492701	0.003038
C14	C	-0.115955	-1.490376	0.012798
C15	C	0.111830	-1.712890	-0.012554
C16	C	0.114155	-1.852297	-0.012830
C17	C	-0.157196	-1.489287	-0.107214
C18	C	-0.239683	-1.487094	-0.098039
C19	C	-0.280928	-1.485999	0.031150
C20	C	-0.239681	-1.487083	0.151171
C21	C	-0.157195	-1.489267	0.141995
C22	C	-0.527624	-1.479458	0.071956
C23	C	-0.610116	-1.477278	0.081124
C24	C	-0.610112	-1.477287	-0.168088
C25	C	-0.527625	-1.479478	-0.177253
C26	C	-0.486385	-1.480556	-0.057232
N27	N	-0.365243	-1.483761	0.040532
N28	N	-0.402071	-1.482785	-0.066615
C29	C	0.260854	-1.473864	-0.029119
C30	C	0.348643	-1.476190	-0.038889
N31	N	0.116348	-1.483288	0.343079
C32	C	0.189386	-1.033679	-0.021164
C33	C	0.187197	-0.902693	-0.020944
C34	C	0.043296	-0.932896	-0.004922
C35	C	0.045486	-1.063880	-0.005132
C36	C	0.272466	-1.016241	-0.030421
C37	C	0.270277	-0.885254	-0.030201
N38	N	0.116333	-1.483287	-0.369156
C39	C	0.063081	-1.568777	0.420927
C40	C	0.063071	-1.568774	0.564811
C41	C	0.169603	-1.397789	0.552985
C42	C	0.169608	-1.397787	0.409104
C43	C	0.001578	-1.667498	0.427755
C44	C	0.001568	-1.667495	0.571639
H45	H	-0.123621	-1.490186	-0.212414
H46	H	0.020835	-1.758382	0.380980
Cl47	Cl	0.236555	-1.290307	0.635997
H48	H	-0.273269	-1.486184	0.256360
H49	H	-0.055863	-1.637876	0.622647
H50	H	-0.059196	-1.647001	0.395465
Cl51	Cl	0.022477	-1.816173	0.629605
H52	H	-0.494049	-1.480372	-0.282452
Cl53	Cl	-0.661961	-1.475929	-0.318962
Cl54	Cl	-0.291525	-1.485729	-0.248919
H55	H	0.295386	-0.839191	0.065689
H56	H	-0.643695	-1.476379	0.186330
Cl57	Cl	0.318601	-0.820062	-0.183277
H58	H	0.212976	-1.328165	0.345722
H59	H	-0.494058	-1.480361	0.169686
H60	H	-0.123617	-1.490136	0.239722
H61	H	-0.012209	-1.129492	0.001324
H62	H	-0.016176	-0.891854	0.001675
Cl63	Cl	0.322636	-1.060753	0.111689
H64	H	0.298918	-1.051485	-0.132052
