data_functionalizedCrystal
_audit_creation_method	'MofGen! by Chris Wilmer'
_symmetry_space_group_name_H-M	'P1'
_symmetry_Int_Tables_number	1
_symmetry_cell_setting	triclinic
loop_
_symmetry_equiv_pos_as_xyz
  x,y,z
_cell_length_a	10.967819
_cell_length_b	23.532407
_cell_length_c	9.482944
_cell_angle_alpha	79.495785
_cell_angle_beta	67.676358
_cell_angle_gamma	83.799648
loop_
_atom_site_label
_atom_site_type_symbol
_atom_site_fract_x
_atom_site_fract_y
_atom_site_fract_z
O1	O	1.734216	0.116655	-0.555404
O2	O	1.357305	0.118046	-0.460978
O3	O	1.557122	0.034676	-0.511011
O4	O	1.534399	0.200024	-0.505371
O5	O	1.521215	0.018071	-0.260218
O6	O	1.321398	0.101440	-0.210185
O7	O	1.698309	0.100050	-0.304611
Cu8	Cu	1.506575	0.099229	-0.234498
Cu9	Cu	1.549039	0.118866	-0.531091
O10	O	1.498491	0.183419	-0.254578
C11	C	1.291140	0.108387	-0.323502
C12	C	1.147484	0.104338	-0.287512
C13	C	0.953573	0.106959	-0.364215
C14	C	1.102048	0.111138	-0.401404
C15	C	1.538589	0.005144	-0.385465
C16	C	1.536847	-0.058113	-0.385018
C17	C	1.644193	-0.454758	-0.411991
C18	C	1.642578	-0.514195	-0.411597
O19	O	1.742086	-0.548662	-0.436580
N20	N	1.523784	-0.539535	-0.381835
C21	C	1.406600	-0.505435	-0.352480
O22	O	1.305409	-0.532447	-0.327130
C23	C	1.408218	-0.445999	-0.352884
C24	C	1.527017	-0.420663	-0.382633
C25	C	1.762983	-0.429422	-0.441739
C26	C	1.764597	-0.369989	-0.442129
C27	C	1.647422	-0.335894	-0.412772
C28	C	1.528632	-0.361231	-0.383024
C29	C	1.291037	-0.411900	-0.323540
C30	C	1.292665	-0.352460	-0.323949
C31	C	1.411465	-0.327124	-0.353698
C32	C	1.413070	-0.267703	-0.354057
N33	N	1.531864	-0.242363	-0.383819
C34	C	1.649040	-0.276458	-0.413177
C35	C	1.403212	-0.630255	-0.351635
C36	C	1.401591	-0.689691	-0.351219
C37	C	1.637570	-0.698446	-0.410339
C38	C	1.639188	-0.639010	-0.410744
C39	C	1.522005	-0.604914	-0.381397
C40	C	1.652420	-0.151646	-0.413993
C41	C	1.654023	-0.092209	-0.414375
C42	C	1.418046	-0.083458	-0.355263
C43	C	1.416441	-0.142891	-0.354873
C44	C	1.533640	-0.176983	-0.384246
O45	O	1.313615	-0.233200	-0.329093
O46	O	1.750217	-0.249437	-0.438542
C47	C	1.764475	0.109709	-0.442090
C48	C	1.908132	0.113758	-0.478091
C49	C	1.517025	0.212951	-0.380127
C50	C	1.518768	0.276209	-0.380584
N51	N	1.476717	0.085417	-0.025894
N52	N	1.578907	0.132674	-0.739698
C53	C	1.515401	0.103299	0.204022
C54	C	1.540233	0.114796	0.030380
H55	H	1.173061	0.120058	-0.526438
N56	N	1.380353	0.040819	0.080534
H57	H	1.289951	0.051931	0.076790
H58	H	1.410392	0.001740	0.046554
N59	N	1.053432	0.092540	-0.121884
H60	H	0.960696	0.091231	-0.118789
H61	H	1.079333	0.054188	-0.070755
N62	N	1.002185	0.125571	-0.643707
H63	H	1.094919	0.126884	-0.646798
H64	H	0.998152	0.093804	-0.700279
N65	N	1.166281	-0.315680	-0.292290
H66	H	1.127728	-0.317945	-0.372268
H67	H	1.101199	-0.330291	-0.186294
N68	N	1.782160	-0.064882	-0.446454
H69	H	1.856142	-0.095504	-0.464996
H70	H	1.801287	-0.034250	-0.540876
H71	H	1.747855	-0.179397	-0.437918
H72	H	1.442653	0.069636	0.284389
H73	H	1.861337	-0.349366	-0.466360
H74	H	1.319699	-0.163523	-0.330607
N75	N	0.859676	0.094657	-0.198643
H76	H	0.766995	0.093179	-0.195567
H77	H	0.886232	0.056215	-0.148591
N78	N	1.889376	-0.466191	-0.473404
H79	H	1.964862	-0.441112	-0.492306
H80	H	1.880535	-0.497200	-0.381547
N81	N	1.767319	-0.611685	-0.442828
H82	H	1.841296	-0.642309	-0.461359
H83	H	1.786451	-0.581056	-0.537260
N84	N	1.763957	-0.735226	-0.442004
H85	H	1.744897	-0.776721	-0.437236
H86	H	1.829075	-0.720590	-0.547955
H87	H	1.304849	-0.710316	-0.326968
N88	N	1.675291	0.177259	0.153861
H89	H	1.679371	0.179151	0.044904
H90	H	1.645330	0.216335	0.187885
H91	H	1.307780	-0.602498	-0.327722
N92	N	1.162899	-0.439218	-0.291435
H93	H	1.088928	-0.408592	-0.272904
H94	H	1.170387	-0.457527	-0.382948
H95	H	1.322644	-0.055687	-0.331356
N96	N	1.636621	0.159383	-0.076056
H97	H	1.640701	0.161275	-0.185014
H98	H	1.606660	0.198459	-0.042033
