data_functionalizedCrystal
_audit_creation_method	'MofGen! by Chris Wilmer'
_symmetry_space_group_name_H-M	'P1'
_symmetry_Int_Tables_number	1
_symmetry_cell_setting	triclinic
loop_
_symmetry_equiv_pos_as_xyz
  x,y,z
_cell_length_a	17.699083
_cell_length_b	11.026607
_cell_length_c	16.176319
_cell_angle_alpha	89.996049
_cell_angle_beta	90.006703
_cell_angle_gamma	84.065651
loop_
_atom_site_label
_atom_site_type_symbol
_atom_site_fract_x
_atom_site_fract_y
_atom_site_fract_z
O1	O	-1.025155	0.153394	-0.068730
O2	O	-0.807518	0.173353	-0.068734
O3	O	-0.898299	-0.013226	-0.068730
O4	O	-0.934374	0.339973	-0.068735
O5	O	-0.898281	-0.013238	0.068764
O6	O	-0.807501	0.173341	0.068759
O7	O	-1.025137	0.153382	0.068763
Cu8	Cu	-0.916317	0.163361	0.081315
Cu9	Cu	-0.916338	0.163375	-0.081286
O10	O	-0.934356	0.339962	0.068758
C11	C	-0.779214	0.172632	0.000012
C12	C	-0.694901	0.170487	0.000010
C13	C	-0.655286	0.169470	0.074958
C14	C	-0.576064	0.167435	0.074959
C15	C	-0.536460	0.166426	0.000010
C16	C	-0.576081	0.167440	-0.074944
C17	C	-0.655301	0.169466	-0.074944
C18	C	-0.256595	0.159267	-0.074946
C19	C	-0.177370	0.157245	-0.074941
C20	C	-0.177358	0.157236	0.074956
C21	C	-0.256578	0.159262	0.074956
C22	C	-0.296192	0.160269	0.000003
C23	C	-0.382093	0.162474	0.000003
C24	C	-0.450560	0.164231	0.000009
C25	C	-0.891635	-0.058423	0.000016
C26	C	-0.871796	-0.193079	0.000013
C27	C	-0.926575	-0.267046	0.000012
C28	C	-0.906072	-0.406220	0.000009
C29	C	-0.053441	0.154096	0.000015
C30	C	-0.137752	0.156219	0.000009
C31	C	-0.941020	0.385159	0.000011
C32	C	-0.960860	0.519814	0.000009
N33	N	-0.916308	0.163350	0.195680
N34	N	-0.916352	0.163376	-0.195652
C35	C	-0.956526	0.080767	0.238947
C36	C	-0.956529	0.080765	0.325494
C37	C	-0.916319	0.163354	0.368773
C38	C	-0.876097	0.245942	0.325501
C39	C	-0.876089	0.245936	0.238955
C40	C	-0.876126	0.245964	0.674529
C41	C	-0.876138	0.245966	0.761080
C42	C	-0.956566	0.080793	0.761068
C43	C	-0.956558	0.080788	0.674522
C44	C	-0.916333	0.163371	0.631257
C45	C	-0.916328	0.163369	0.537413
C46	C	-0.916328	0.163362	0.462616
H47	H	-0.145095	0.156411	0.135987
C48	C	-0.787928	-0.246716	0.000012
N49	N	-0.724758	-0.287114	0.000014
H50	H	-0.145126	0.156422	-0.135976
H51	H	-0.989273	0.013518	0.203715
H52	H	-0.543811	0.166586	0.135989
H53	H	-0.988654	-0.227338	0.000019
C54	C	-0.831896	0.336817	0.808686
N55	N	-0.798573	0.405241	0.844542
H56	H	-0.687526	0.170301	0.135990
H57	H	-0.288821	0.160090	0.135987
H58	H	-0.843989	-0.445922	0.000002
H59	H	-0.989317	0.013546	0.796303
H60	H	-0.843338	0.313183	0.203728
H61	H	-0.288839	0.160083	-0.135978
H62	H	-1.022942	-0.440485	-0.000052
H63	H	-0.543828	0.166610	-0.135968
C64	C	-0.698878	0.170587	-0.157393
N65	N	-0.731699	0.171429	-0.219496
C66	C	-1.000791	-0.010069	0.626920
N67	N	-1.034104	-0.078509	0.591067
C68	C	-1.000750	-0.010112	0.373083
N69	N	-1.034051	-0.078577	0.408926
H70	H	-0.843374	0.313208	0.639309
H71	H	-0.843352	0.313183	0.360744
