data_functionalizedCrystal
_audit_creation_method	'MofGen! by Chris Wilmer'
_symmetry_space_group_name_H-M	'P1'
_symmetry_Int_Tables_number	1
_symmetry_cell_setting	triclinic
loop_
_symmetry_equiv_pos_as_xyz
  x,y,z
_cell_length_a	15.995350
_cell_length_b	12.811435
_cell_length_c	11.295483
_cell_angle_alpha	88.702131
_cell_angle_beta	94.101747
_cell_angle_gamma	96.230025
loop_
_atom_site_label
_atom_site_type_symbol
_atom_site_fract_x
_atom_site_fract_y
_atom_site_fract_z
O1	O	-1.117847	0.127249	-0.112661
O2	O	-0.874233	0.143827	-0.114476
O3	O	-1.001241	-0.016085	-0.097191
O4	O	-0.990838	0.287161	-0.129946
O5	O	-0.990085	-0.002061	0.099344
O6	O	-0.863077	0.157850	0.082059
O7	O	-1.106691	0.141273	0.083874
Cu8	Cu	-0.983865	0.150842	0.100912
Cu9	Cu	-0.997058	0.134258	-0.131514
O10	O	-0.979683	0.301185	0.066589
C11	C	-0.837454	0.150153	-0.016137
C12	C	-0.744484	0.148097	-0.015924
C13	C	-0.994738	-0.047878	0.005266
C14	C	-0.991971	-0.163505	0.017747
C15	C	-1.143470	0.134947	-0.014467
C16	C	-1.236440	0.137002	-0.014688
C17	C	-0.406664	0.140720	-0.015103
C18	C	-0.452975	0.026864	-0.002363
C19	C	-0.549710	0.028887	-0.003036
C20	C	-0.574260	0.144379	-0.015510
C21	C	-0.540085	0.192544	-0.133804
C22	C	-0.443427	0.189677	-0.133580
C23	C	-0.430425	0.207978	0.089663
C24	C	-0.527286	0.208056	0.091140
C25	C	-0.668978	0.146453	-0.015744
C26	C	-0.311946	0.138649	-0.014876
C27	C	-0.986186	0.332978	-0.035870
C28	C	-0.988953	0.448604	-0.048359
C29	C	-0.998931	0.603935	-0.173080
C30	C	-0.996333	0.495292	-0.161355
C31	C	-0.984169	0.510567	0.052919
C32	C	-0.986768	0.619209	0.041195
C33	C	-0.994150	0.665889	-0.071808
C34	C	-0.996755	0.774532	-0.083532
C35	C	-0.984586	0.789806	0.130742
C36	C	-0.981987	0.681163	0.142466
N37	N	-0.974592	0.162506	0.264387
N38	N	-1.006338	0.122585	-0.294988
C39	C	-1.073090	0.038562	0.527074
C40	C	-1.066088	0.047384	0.650784
C41	C	-0.953584	0.188967	0.635520
C42	C	-0.960586	0.180145	0.511810
C43	C	-1.020341	0.104941	0.457592
C44	C	-1.027346	0.096125	0.333879
C45	C	-0.914839	0.237702	0.318618
C46	C	-0.907837	0.246524	0.442328
H47	H	-0.573147	-0.009527	0.082182
H48	H	-0.429445	-0.012916	0.083037
N49	N	-1.122987	-0.024201	0.725727
H50	H	-1.161904	-0.073175	0.672603
H51	H	-1.157479	0.019370	0.772730
H52	H	-0.437487	-0.024161	-0.077506
H53	H	-0.871890	0.291755	0.262030
N54	N	-1.137532	-0.042563	0.468610
H55	H	-1.107991	-0.092362	0.422281
H56	H	-1.177883	-0.006335	0.413027
H57	H	-0.975973	0.643142	0.234470
H58	H	-0.978152	0.472543	0.144921
N59	N	-0.389363	0.319272	0.078686
H60	H	-0.434268	0.369147	0.070661
H61	H	-0.355524	0.326053	0.006243
H62	H	-0.980696	0.840260	0.213205
N63	N	-0.592112	-0.037614	-0.103418
H64	H	-0.547963	-0.068352	-0.147408
H65	H	-0.625327	0.007346	-0.159724
N66	N	-0.424950	0.127487	-0.238839
H67	H	-0.479548	0.102188	-0.284945
H68	H	-0.395144	0.065118	-0.210084
H69	H	-0.412274	0.272928	-0.147704
N70	N	-1.006906	0.654289	-0.294953
H71	H	-1.009546	0.598554	-0.357331
H72	H	-0.956459	0.707476	-0.305409
N73	N	-1.091797	0.015020	0.275394
H74	H	-1.124148	-0.025693	0.338188
H75	H	-1.062203	-0.034707	0.229046
H76	H	-0.555265	0.277096	-0.147141
N77	N	-0.396364	0.166706	0.207677
H78	H	-0.332936	0.169938	0.208924
H79	H	-0.421059	0.091549	0.219458
N80	N	-0.583436	0.132979	-0.238870
H81	H	-0.646161	0.137510	-0.240657
H82	H	-0.572113	0.056977	-0.231717
N83	N	-1.004722	0.824883	-0.205407
H84	H	-1.007354	0.769146	-0.267782
H85	H	-0.954274	0.878071	-0.215855
H86	H	-0.904927	0.250189	0.679682
H87	H	-0.859183	0.307751	0.486487
H88	H	-0.549494	0.172974	0.178594
N89	N	-0.548194	0.320261	0.088079
H90	H	-0.610901	0.321244	0.093012
H91	H	-0.530503	0.355467	0.011568
H92	H	-1.000223	0.444853	-0.243821
