data_functionalizedCrystal
_audit_creation_method	'MofGen! by Chris Wilmer'
_symmetry_space_group_name_H-M	'P1'
_symmetry_Int_Tables_number	1
_symmetry_cell_setting	triclinic
loop_
_symmetry_equiv_pos_as_xyz
  x,y,z
_cell_length_a	12.594517
_cell_length_b	17.077402
_cell_length_c	17.077396
_cell_angle_alpha	89.970216
_cell_angle_beta	90.019909
_cell_angle_gamma	89.977317
loop_
_atom_site_label
_atom_site_type_symbol
_atom_site_fract_x
_atom_site_fract_y
_atom_site_fract_z
Zn1	Zn	1.627202	0.312512	0.443844
Zn2	Zn	1.627076	0.443787	0.312575
Zn3	Zn	1.449210	0.312539	0.312591
Zn4	Zn	1.449166	0.443740	0.443798
O5	O	1.538163	0.378145	0.378202
O6	O	1.776131	0.329935	0.426444
O7	O	1.603447	0.426408	0.202730
O8	O	1.472892	0.202688	0.330028
O9	O	1.776038	0.426382	0.330001
O10	O	1.603661	0.202669	0.426459
O11	O	1.472770	0.329980	0.202742
O12	O	1.300258	0.329934	0.329983
O13	O	1.472818	0.426301	0.553651
O14	O	1.300226	0.426327	0.426380
O15	O	1.603619	0.329889	0.553685
O16	O	1.603405	0.553628	0.329956
O17	O	1.472696	0.553593	0.426365
C18	C	1.261622	0.378129	0.378179
C19	C	1.143317	0.378141	0.378188
C20	C	1.538061	0.582092	0.378171
C21	C	1.538114	0.669342	0.378184
C22	C	1.538228	0.378087	0.582946
C23	C	1.538255	0.378062	0.670196
C24	C	1.074050	0.325641	0.325857
C25	C	1.003228	0.397243	0.306544
C26	C	1.003340	0.306575	0.397514
C27	C	1.074053	0.449780	0.358837
C28	C	1.074171	0.359063	0.449841
C29	C	1.003381	0.430714	0.430554
C30	C	1.815784	0.378161	0.378226
C31	C	1.934090	0.378168	0.378236
C32	C	1.538295	0.173400	0.378251
C33	C	1.538352	0.086150	0.378271
C34	C	1.606244	0.710324	0.328037
C35	C	1.606296	0.792305	0.328057
C36	C	1.538212	0.833302	0.378220
C37	C	1.470079	0.792314	0.428372
C38	C	1.470033	0.710335	0.428355
C39	C	1.470178	0.963184	0.428402
C40	C	1.470222	1.045168	0.428418
C41	C	1.606440	1.045154	0.328104
C42	C	1.606394	0.963175	0.328087
C43	C	1.538260	0.922193	0.378238
C44	C	1.538160	0.378145	0.174254
C45	C	1.538339	0.377949	0.087005
C46	C	1.606366	0.327856	0.711205
C47	C	1.606379	0.327830	0.793186
C48	C	1.538285	0.378014	0.834156
C49	C	1.470167	0.428223	0.793141
C50	C	1.470150	0.428244	0.711162
C51	C	1.470210	0.428175	0.964011
C52	C	1.470228	0.428155	1.045996
C53	C	1.606439	0.327761	1.046035
C54	C	1.606422	0.327783	0.964056
C55	C	1.538304	0.377992	0.923047
H56	H	1.105080	0.281288	0.281549
Br57	Br	1.377746	0.496326	0.848742
Br58	Br	1.698889	0.259623	1.101689
H59	H	1.414676	0.469119	0.677773
H60	H	1.661828	0.929796	0.287237
Br61	Br	1.698869	0.259727	0.848839
Br62	Br	0.951292	0.424168	0.205584
Br63	Br	1.377713	0.907565	0.496467
H64	H	1.414802	1.078545	0.469279
H65	H	0.972547	0.475174	0.474829
Br66	Br	1.125600	0.550705	0.331509
Br67	Br	0.951555	0.205684	0.424724
Br68	Br	1.698639	0.654694	0.259948
H69	H	1.105356	0.342889	0.510397
H70	H	1.414649	0.825700	0.469219
Br71	Br	1.698768	0.847921	0.260004
Br72	Br	1.377805	0.496255	1.101598
Br73	Br	1.377575	0.654715	0.496418
Br74	Br	1.377760	0.496315	0.908356
H75	H	1.661921	1.078526	0.287272
H76	H	1.661819	0.286992	0.677854
H77	H	1.661875	0.286923	0.930701
