data_functionalizedCrystal
_audit_creation_method	'MofGen! by Chris Wilmer'
_symmetry_space_group_name_H-M	'P1'
_symmetry_Int_Tables_number	1
_symmetry_cell_setting	triclinic
loop_
_symmetry_equiv_pos_as_xyz
  x,y,z
_cell_length_a	21.883469
_cell_length_b	21.882911
_cell_length_c	21.879399
_cell_angle_alpha	60.006540
_cell_angle_beta	60.013207
_cell_angle_gamma	59.992231
loop_
_atom_site_label
_atom_site_type_symbol
_atom_site_fract_x
_atom_site_fract_y
_atom_site_fract_z
O1	O	0.084645	-0.892842	0.746620
O2	O	0.584645	-0.392842	1.246620
O3	O	0.031867	-0.695139	0.601571
O4	O	0.531867	-0.195139	1.101571
O5	O	0.157054	-0.820237	0.601476
O6	O	0.657054	-0.320237	1.101476
O7	O	-0.040542	-0.767744	0.746716
O8	O	0.459458	-0.267744	1.246716
O9	O	0.198586	-0.778715	0.642912
O10	O	0.698586	-0.278715	1.142912
O11	O	0.073399	-0.653617	0.643007
O12	O	0.573399	-0.153617	1.143007
O13	O	0.126177	-0.851320	0.788056
O14	O	0.626177	-0.351320	1.288056
Cu15	Cu	0.103580	-0.748677	0.719315
Cu16	Cu	0.603580	-0.248677	1.219315
Cu17	Cu	0.054464	-0.797782	0.670313
Cu18	Cu	0.554464	-0.297782	1.170313
O19	O	0.000990	-0.726222	0.788151
O20	O	0.500990	-0.226222	1.288151
N21	N	0.138128	-0.714145	0.753785
N22	N	0.638128	-0.214145	1.253785
N23	N	0.019923	-0.832320	0.635843
N24	N	0.519923	-0.332320	1.135843
C25	C	0.190018	-0.547369	0.805644
C26	C	0.690018	-0.047369	1.305644
C27	C	0.190029	-0.662289	0.805630
C28	C	0.690029	-0.162289	1.305630
C29	C	0.218780	-0.633565	0.834353
C30	C	0.718780	-0.133565	1.334353
C31	C	0.344122	-0.611968	0.768360
C32	C	0.844122	-0.111968	1.268360
C33	C	0.422474	-0.638085	0.742222
C34	C	0.922474	-0.138085	1.242222
C35	C	0.422504	-0.764859	0.790561
C36	C	0.922504	-0.264859	1.290561
C37	C	0.344154	-0.738739	0.816702
C38	C	0.844154	-0.238739	1.316702
C39	C	0.208899	-0.508180	0.728617
C40	C	0.708899	-0.008180	1.228617
C41	C	0.182748	-0.429822	0.702522
C42	C	0.682748	0.070178	1.202522
C43	C	0.118843	-0.429847	0.830485
C44	C	0.618843	0.070153	1.330485
C45	C	0.144993	-0.508205	0.856580
C46	C	0.644993	-0.008205	1.356580
C47	C	0.112994	-0.643364	0.824587
C48	C	0.612994	-0.143364	1.324587
C49	C	0.086865	-0.669476	0.798467
C50	C	0.586865	-0.169476	1.298467
C51	C	0.214799	-0.733437	0.734451
C52	C	0.714799	-0.233437	1.234451
C53	C	0.240932	-0.707325	0.760562
C54	C	0.740932	-0.207325	1.260562
C55	C	0.113084	-0.643389	0.959747
C56	C	0.613084	-0.143389	1.459747
C57	C	0.087018	-0.669524	1.038102
C58	C	0.587018	-0.169524	1.538102
C59	C	0.214996	-0.733501	1.038048
C60	C	0.714996	-0.233501	1.538048
C61	C	0.241061	-0.707367	0.959690
C62	C	0.741061	-0.207367	1.459690
C63	C	0.190103	-0.662308	0.920542
C64	C	0.690103	-0.162308	1.420542
C65	C	0.304966	-0.662293	0.805598
C66	C	0.804966	-0.162293	1.305598
C67	C	-0.117460	-0.854702	0.612901
C68	C	0.382540	-0.354702	1.112901
C69	C	-0.002405	-0.854864	0.498145
C70	C	0.497595	-0.354864	0.998145
C71	C	-0.002621	-0.969735	0.613108
C72	C	0.497379	-0.469735	1.113108
C73	C	-0.002603	-0.854858	0.613180
C74	C	0.497397	-0.354858	1.113180
C75	C	-0.031272	-0.883541	0.584334
C76	C	0.468728	-0.383541	1.084334
N77	N	0.460550	-0.714150	0.753681
N78	N	0.960550	-0.214150	1.253681
O79	O	0.699805	-0.721060	0.574973
O80	O	1.199805	-0.221060	1.074973
O81	O	0.700047	-0.866553	0.772482
O82	O	1.200047	-0.366553	1.272482
O83	O	0.699952	-0.866219	0.647213
O84	O	1.199952	-0.366219	1.147213
O85	O	0.699900	-0.721394	0.700242
O86	O	1.199900	-0.221394	1.200242
O87	O	0.575478	-0.824800	0.688791
O88	O	1.075478	-0.324800	1.188791
O89	O	0.575573	-0.825134	0.814060
O90	O	1.075573	-0.325134	1.314060
O91	O	0.575331	-0.679641	0.616551
O92	O	1.075331	-0.179641	1.116551
Cu93	Cu	0.564087	-0.748606	0.719102
Cu94	Cu	1.064087	-0.248606	1.219102
Cu95	Cu	0.711292	-0.797588	0.669931
Cu96	Cu	1.211292	-0.297588	1.169931
O97	O	0.575426	-0.679975	0.741820
O98	O	1.075426	-0.179975	1.241820
N99	N	0.814828	-0.832044	0.635345
N100	N	1.314828	-0.332044	1.135345
N101	N	0.138106	-0.391772	0.753815
N102	N	0.638106	0.108228	1.253815
O103	O	-0.040520	-0.152377	0.746758
O104	O	0.459480	0.347623	1.246758
O105	O	0.156993	-0.152371	0.601281
O106	O	0.656993	0.347629	1.101281
O107	O	0.031698	-0.152390	0.601639
O108	O	0.531698	0.347610	1.101639
O109	O	0.084775	-0.152358	0.746401
O110	O	0.584775	0.347642	1.246401
O111	O	0.073234	-0.276876	0.643130
O112	O	0.573234	0.223124	1.143130
O113	O	0.198529	-0.276856	0.642772
O114	O	0.698529	0.223144	1.142772
O115	O	0.001015	-0.276863	0.788249
O116	O	0.501015	0.223137	1.288249
Cu117	Cu	0.103564	-0.288226	0.719299
Cu118	Cu	0.603564	0.211774	1.219299
Cu119	Cu	0.054444	-0.141007	0.670231
Cu120	Cu	0.554444	0.358993	1.170231
O121	O	0.126310	-0.276844	0.787892
O122	O	0.626310	0.223156	1.287892
N123	N	0.019892	-0.037461	0.635717
N124	N	0.519892	0.462539	1.135717
N125	N	0.138332	-0.714192	1.076133
N126	N	0.638332	-0.214192	1.576133
O127	O	0.131293	-0.892804	1.315506
O128	O	0.631293	-0.392804	1.815506
O129	O	-0.014162	-0.695219	1.315533
O130	O	0.485838	-0.195219	1.815533
O131	O	-0.013826	-0.820490	1.315480
O132	O	0.486174	-0.320490	1.815480
O133	O	0.130957	-0.767533	1.315559
O134	O	0.630957	-0.267533	1.815559
O135	O	0.027651	-0.778981	1.191001
O136	O	0.527651	-0.278981	1.691001
O137	O	0.027314	-0.653710	1.191054
O138	O	0.527314	-0.153710	1.691054
O139	O	0.172770	-0.851295	1.191026
O140	O	0.672770	-0.351295	1.691026
Cu141	Cu	0.103829	-0.748713	1.179674
Cu142	Cu	0.603829	-0.248713	1.679674
Cu143	Cu	0.054778	-0.797802	1.326885
Cu144	Cu	0.554778	-0.297802	1.826885
O145	O	0.172434	-0.726024	1.191079
O146	O	0.672434	-0.226024	1.691079
N147	N	0.020275	-0.832331	1.430426
N148	N	0.520275	-0.332331	1.930426
C149	C	0.047687	-0.649466	0.602306
C150	C	0.547687	-0.149466	1.102306
C151	C	0.202716	-0.804385	0.602188
C152	C	0.702716	-0.304385	1.102188
C153	C	0.110357	-0.896993	0.787321
C154	C	0.610357	-0.396993	1.287321
C155	C	-0.044672	-0.742074	0.787439
C156	C	0.455328	-0.242074	1.287439
C157	C	0.637839	-0.865879	0.818154
C158	C	1.137839	-0.365879	1.318154
C159	C	0.637724	-0.865466	0.663023
C160	C	1.137724	-0.365466	1.163023
C161	C	0.637536	-0.680313	0.570880
C162	C	1.137536	-0.180313	1.070880
C163	C	0.637655	-0.680728	0.726010
C164	C	1.137655	-0.180728	1.226010
C165	C	0.202592	-0.214459	0.601942
C166	C	0.702592	0.285541	1.101942
C167	C	0.047481	-0.214636	0.602435
C168	C	0.547481	0.285364	1.102435
C169	C	-0.044635	-0.214620	0.787537
C170	C	0.455365	0.285380	1.287537
C171	C	0.110528	-0.214598	0.787096
C172	C	0.610528	0.285402	1.287096
C173	C	-0.013455	-0.649572	1.253296
C174	C	0.486545	-0.149572	1.753296
C175	C	-0.013030	-0.804697	1.253206
C176	C	0.486970	-0.304697	1.753206
C177	C	0.172063	-0.896942	1.253263
C178	C	0.672063	-0.396942	1.753263
C179	C	0.171648	-0.741808	1.253325
C180	C	0.671648	-0.241808	1.753325
H181	H	0.071582	-0.606692	0.927876
H182	H	0.571582	-0.106692	1.427876
C183	C	0.125578	-0.973714	0.848862
C184	C	0.625578	-0.473714	1.348862
H185	H	0.175125	-1.005067	0.830642
H186	H	0.675125	-0.505067	1.330642
H187	H	0.119986	-0.967234	0.891409
H188	H	0.619986	-0.467234	1.391409
H189	H	0.091018	-0.996181	0.862493
H190	H	0.591018	-0.496181	1.362493
C191	C	-0.121339	-0.726970	0.849056
C192	C	0.378661	-0.226970	1.349056
H193	H	-0.121466	-0.770304	0.892549
H194	H	0.378534	-0.270304	1.392549
H195	H	-0.130446	-0.686167	0.860769
H196	H	0.369554	-0.186167	1.360769
H197	H	-0.159406	-0.715132	0.831864
H198	H	0.340594	-0.215132	1.331864
H199	H	0.637745	-0.910963	0.651673
H200	H	1.137745	-0.410963	1.151673
C201	C	-0.074455	-0.819966	1.253104
C202	C	0.425545	-0.319966	1.753104
H203	H	-0.118013	-0.776687	1.253096
H204	H	0.381987	-0.276687	1.753096
H205	H	-0.057138	-0.831832	1.209672
H206	H	0.442862	-0.331832	1.709672
H207	H	-0.086118	-0.860793	1.296495
H208	H	0.413882	-0.360793	1.796495
H209	H	0.036413	-0.592673	0.556752
H210	H	0.536413	-0.092673	1.056752
H211	H	0.217133	-0.730478	1.253340
H212	H	0.717133	-0.230478	1.753340
C213	C	0.637932	-0.927587	0.894781
C214	C	1.137932	-0.427587	1.394781
H215	H	0.637949	-0.909508	0.926231
H216	H	1.137949	-0.409508	1.426231
H217	H	0.594550	-0.941218	0.917192
H218	H	1.094550	-0.441218	1.417192
H219	H	0.681370	-0.970105	0.888192
H220	H	1.181370	-0.470105	1.388192
C221	C	0.125870	-0.214588	0.848538
C222	C	0.625870	0.285412	1.348538
H223	H	0.082618	-0.214583	0.892101
H224	H	0.582618	0.285417	1.392101
H225	H	0.166710	-0.257994	0.860178
H226	H	0.666710	0.242006	1.360178
H227	H	0.137736	-0.171167	0.831239
H228	H	0.637736	0.328833	1.331239
C229	C	0.270794	-0.782977	0.684883
C230	C	0.770794	-0.282977	1.184883
H231	H	0.320414	-0.790502	0.677335
H232	H	0.820414	-0.290502	1.177335
H233	H	0.263285	-0.829943	0.708798
H234	H	0.763285	-0.329943	1.208798
H235	H	0.263236	-0.759038	0.637923
H236	H	0.763236	-0.259038	1.137923
C237	C	0.637432	-0.618602	0.494257
C238	C	1.137432	-0.118602	0.994257
H239	H	0.637423	-0.636684	0.462805
H240	H	1.137423	-0.136684	0.962805
H241	H	0.594001	-0.576086	0.500846
H242	H	1.094001	-0.076086	1.000846
H243	H	0.680820	-0.604974	0.471841
H244	H	1.180820	-0.104974	0.971841
H245	H	0.637644	-0.635235	0.737357
H246	H	1.137644	-0.135235	1.237357
C247	C	0.279058	-0.213983	0.540084
C248	C	0.779058	0.286017	1.040084
H249	H	0.310485	-0.213873	0.558119
H250	H	0.810485	0.286127	1.058119
H251	H	0.301629	-0.257298	0.526283
H252	H	0.801629	0.242702	1.026283
H253	H	0.272232	-0.170472	0.497690
H254	H	0.772232	0.329528	0.997690
H255	H	-0.101359	-0.214623	0.833209
H256	H	0.398641	0.285377	1.333209
H257	H	0.036114	-0.214639	0.556956
H258	H	0.536114	0.285361	1.056956
H259	H	0.217732	-0.953686	1.253245
H260	H	0.717732	-0.453686	1.753245
H261	H	-0.059121	-0.592825	1.253304
H262	H	0.440879	-0.092825	1.753304
H263	H	0.024299	-0.654107	1.070013
H264	H	0.524299	-0.154107	1.570013
H265	H	0.303780	-0.722782	0.927774
H266	H	0.803780	-0.222782	1.427774
C267	C	0.271049	-0.783049	1.081105
C268	C	0.771049	-0.283049	1.581105
H269	H	0.244499	-0.795900	1.133386
H270	H	0.744499	-0.295900	1.633386
H271	H	0.301621	-0.827350	1.068248
H272	H	0.801621	-0.327350	1.568248
H273	H	0.301602	-0.756453	1.068254
H274	H	0.801602	-0.256453	1.568254
C275	C	0.002129	-0.648657	0.819304
C276	C	0.502129	-0.148657	1.319304
H277	H	-0.006143	-0.670651	0.797287
H278	H	0.493857	-0.170651	1.297287
H279	H	-0.019855	-0.666684	0.872171
H280	H	0.480145	-0.166684	1.372171
H281	H	-0.019891	-0.595783	0.801292
H282	H	0.480109	-0.095783	1.301292
C283	C	0.325668	-0.728141	0.739721
C284	C	0.825668	-0.228141	1.239721
H285	H	0.333939	-0.706135	0.761727
H286	H	0.833939	-0.206135	1.261727
H287	H	0.347693	-0.781010	0.757725
H288	H	0.847693	-0.281010	1.257725
H289	H	0.347646	-0.710106	0.686850
H290	H	0.847646	-0.210106	1.186850
C291	C	0.301083	-0.794100	0.857661
C292	C	0.801083	-0.294100	1.357661
H293	H	0.335646	-0.843368	0.860521
H294	H	0.835646	-0.343368	1.360521
H295	H	0.270543	-0.792105	0.906753
H296	H	0.770543	-0.292105	1.406753
H297	H	0.270496	-0.780986	0.830970
H298	H	0.770496	-0.280986	1.330970
H299	H	0.071542	-0.606694	0.861281
H300	H	0.571542	-0.106694	1.361281
C301	C	0.465615	-0.848948	0.802763
C302	C	0.965615	-0.348948	1.302763
H303	H	0.431072	-0.875182	0.828688
H304	H	0.931072	-0.375182	1.328688
H305	H	0.496155	-0.856210	0.755680
H306	H	0.996155	-0.356210	1.255680
H307	H	0.496204	-0.867333	0.831464
H308	H	0.996204	-0.367333	1.331464
H309	H	0.312222	-0.549720	0.759316
H310	H	0.812222	-0.049720	1.259316
C311	C	0.465549	-0.582731	0.701255
C312	C	0.965549	-0.082731	1.201255
H313	H	0.517825	-0.609237	0.687283
H314	H	1.017825	-0.109237	1.187283
H315	H	0.452680	-0.546851	0.657718
H316	H	0.952680	-0.046851	1.157718
H317	H	0.452727	-0.557961	0.733498
H318	H	0.952727	-0.057961	1.233498
C319	C	0.258424	-0.551263	0.672594
C320	C	0.758424	-0.051263	1.172594
H321	H	0.271301	-0.603543	0.699168
H322	H	0.771301	-0.103543	1.199168
H323	H	0.231819	-0.538419	0.642041
H324	H	0.731819	-0.038419	1.142041
H325	H	0.302717	-0.538413	0.642017
H326	H	0.802717	-0.038413	1.142017
C327	C	0.203511	-0.386707	0.617790
C328	C	0.703511	0.113293	1.117790
H329	H	0.181486	-0.334431	0.609543
H330	H	0.681486	0.165569	1.109543
H331	H	0.256372	-0.399543	0.595765
H332	H	0.756372	0.100457	1.095765
H333	H	0.185471	-0.399543	0.595789
H334	H	0.685471	0.100457	1.095789
C335	C	0.069331	-0.386760	0.886509
C336	C	0.569331	0.113240	1.386509
H337	H	0.056464	-0.334480	0.859933
H338	H	0.556464	0.165520	1.359933
H339	H	0.025041	-0.399608	0.917099
H340	H	0.525041	0.100392	1.417099
H341	H	0.095953	-0.399604	0.917049
H342	H	0.595953	0.100396	1.417049
C343	C	0.124228	-0.551320	0.941313
C344	C	0.624228	-0.051320	1.441313
H345	H	0.146244	-0.603596	0.949559
H346	H	0.646244	-0.103596	1.449559
H347	H	0.142258	-0.538484	0.963320
H348	H	0.642258	-0.038484	1.463320
H349	H	0.071362	-0.538485	0.963331
H350	H	0.571362	-0.038485	1.463331
C351	C	0.279381	-0.819496	0.540571
C352	C	0.779381	-0.319496	1.040571
H353	H	0.310786	-0.869040	0.558729
H354	H	0.810786	-0.369040	1.058729
H355	H	0.272846	-0.813866	0.498040
H356	H	0.772846	-0.313866	0.998040
H357	H	0.301817	-0.784908	0.526942
H358	H	0.801817	-0.284908	1.026942
