data_functionalizedCrystal
_audit_creation_method	'MofGen! by Chris Wilmer'
_symmetry_space_group_name_H-M	'P1'
_symmetry_Int_Tables_number	1
_symmetry_cell_setting	triclinic
loop_
_symmetry_equiv_pos_as_xyz
  x,y,z
_cell_length_a	21.295418
_cell_length_b	25.639240
_cell_length_c	21.295412
_cell_angle_alpha	89.964267
_cell_angle_beta	89.957310
_cell_angle_gamma	90.048568
loop_
_atom_site_label
_atom_site_type_symbol
_atom_site_fract_x
_atom_site_fract_y
_atom_site_fract_z
Zn1	Zn	0.962339	-0.207943	-0.356211
Zn2	Zn	0.962240	-0.295377	-0.250928
Zn3	Zn	0.857065	-0.207981	-0.250921
Zn4	Zn	0.857028	-0.295373	-0.356124
O5	O	0.909668	-0.251669	-0.303546
O6	O	1.050416	-0.219527	-0.342285
O7	O	0.948262	-0.283801	-0.162837
O8	O	0.871087	-0.134811	-0.264922
O9	O	1.050342	-0.283764	-0.264933
O10	O	0.948432	-0.134783	-0.342278
O11	O	0.870990	-0.219592	-0.162833
O12	O	0.768970	-0.219589	-0.264837
O13	O	0.871024	-0.283758	-0.444225
O14	O	0.768943	-0.283795	-0.342129
O15	O	0.948396	-0.219523	-0.444289
O16	O	0.948226	-0.368542	-0.264848
O17	O	0.870927	-0.368539	-0.342136
C18	C	0.746116	-0.251696	-0.303474
C19	C	0.676148	-0.251721	-0.303458
C20	C	0.643284	-0.285197	-0.343643
C21	C	0.577541	-0.285184	-0.343672
C22	C	0.544666	-0.251700	-0.303503
C23	C	0.577538	-0.218217	-0.263314
C24	C	0.643279	-0.218227	-0.263292
N25	N	0.441391	-0.247615	-0.248446
N26	N	0.378939	-0.247609	-0.248469
C27	C	0.346591	-0.251667	-0.303570
N28	N	0.379053	-0.255742	-0.358647
N29	N	0.441510	-0.255752	-0.358623
C30	C	0.473380	-0.251685	-0.303523
C31	C	0.242441	-0.285131	-0.343789
C32	C	0.176698	-0.285115	-0.343819
C33	C	0.176695	-0.218150	-0.263456
C34	C	0.242438	-0.218164	-0.263432
C35	C	0.275307	-0.251657	-0.303598
C36	C	0.909579	-0.387511	-0.303497
C37	C	0.909598	-0.445625	-0.303497
C38	C	0.949961	-0.805935	-0.343898
C39	C	0.949980	-0.860540	-0.343911
O40	O	0.984192	-0.888731	-0.378211
N41	N	0.909755	-0.887908	-0.303607
C42	C	0.869505	-0.860669	-0.263292
O43	O	0.835292	-0.888962	-0.229012
C44	C	0.869484	-0.806065	-0.263283
C45	C	0.909715	-0.778700	-0.303585
C46	C	0.990190	-0.778570	-0.384197
C47	C	0.990172	-0.723969	-0.384184
C48	C	0.949926	-0.696734	-0.343871
C49	C	0.909698	-0.724100	-0.303571
C50	C	0.829230	-0.778828	-0.222972
C51	C	0.829212	-0.724221	-0.222966
C52	C	0.869444	-0.696855	-0.263268
C53	C	0.869434	-0.642264	-0.263244
N54	N	0.909658	-0.614896	-0.303548
C55	C	0.949904	-0.642131	-0.343861
C56	C	0.869552	-0.975339	-0.263315
C57	C	0.869576	-1.029942	-0.263321
C58	C	0.950050	-1.029809	-0.343941
C59	C	0.950029	-0.975205	-0.343931
C60	C	0.909777	-0.947971	-0.303619
C61	C	0.949864	-0.527466	-0.343829
C62	C	0.949845	-0.472860	-0.343810
C63	C	0.869368	-0.472998	-0.263193
C64	C	0.869390	-0.527599	-0.263209
C65	C	0.909640	-0.554831	-0.303532
O66	O	0.835237	-0.614038	-0.228964
O67	O	0.984106	-0.613831	-0.378142
C68	C	1.073858	-0.251641	-0.303619
C69	C	1.143826	-0.251630	-0.303650
C70	C	0.909717	-0.251636	-0.467736
C71	C	0.909738	-0.251622	-0.537705
C72	C	0.909774	-0.115296	-0.303609
C73	C	0.909820	-0.057182	-0.303636
C74	C	0.869513	-0.218185	-0.570559
C75	C	0.869511	-0.218175	-0.636301
C76	C	0.909745	-0.251597	-0.669187
C77	C	0.949972	-0.285041	-0.636325
C78	C	0.949969	-0.285054	-0.570584
N79	N	0.964849	-0.255578	-0.772443
N80	N	0.964851	-0.255563	-0.834895
C81	C	0.909757	-0.251563	-0.867262
N82	N	0.854660	-0.247567	-0.834818
N83	N	0.854659	-0.247580	-0.772361
C84	C	0.909753	-0.251588	-0.740473
C85	C	0.869526	-0.218113	-0.971402
C86	C	0.869523	-0.218107	-1.037146
C87	C	0.949990	-0.284970	-1.037168
C88	C	0.949987	-0.284979	-0.971425
C89	C	0.909756	-0.251547	-0.938546
C90	C	0.909655	-0.251663	-0.139995
C91	C	0.909756	-0.251530	-0.070027
H92	H	0.149941	-0.312375	-0.376547
O93	O	0.826118	-0.182130	-0.535100
H94	H	0.832875	-0.187751	-0.483865
O95	O	0.678736	-0.321318	-0.386966
H96	H	0.708755	-0.297957	-0.419035
O97	O	0.826191	-1.059451	-0.219840
H98	H	0.832965	-1.101997	-0.226611
O99	O	0.993455	-1.059192	-0.387426
H100	H	1.021429	-1.030993	-0.415450
O101	O	0.277904	-0.321235	-0.387127
H102	H	0.307795	-0.347816	-0.358892
O103	O	0.785801	-0.694848	-0.179478
H104	H	0.736395	-0.705371	-0.190211
H105	H	0.982789	-0.952928	-0.376749
H106	H	0.836634	-0.549881	-0.230387
O107	O	0.141247	-0.182038	-0.220123
H108	H	0.090011	-0.187658	-0.226885
H109	H	0.982608	-0.450581	-0.376629
H110	H	0.982731	-0.312254	-0.663105
O111	O	0.993366	-0.321111	-0.535141
H112	H	1.021348	-0.344348	-0.569051
O113	O	0.826131	-0.182062	-0.935932
H114	H	0.798151	-0.158815	-0.969826
O115	O	0.825959	-0.443619	-0.219714
H116	H	0.832704	-0.401053	-0.226485
O117	O	0.826138	-0.182038	-1.072587
H118	H	0.798170	-0.158791	-1.038676
H119	H	0.836757	-0.190944	-0.663057
O120	O	0.542082	-0.321312	-0.386992
H121	H	0.575983	-0.344612	-0.414907
H122	H	0.982750	-0.312182	-1.063943
O123	O	0.993386	-0.321032	-0.935983
H124	H	1.021370	-0.344267	-0.969893
H125	H	0.550766	-0.190953	-0.230610
H126	H	0.982635	-0.549632	-0.376668
H127	H	0.670037	-0.190965	-0.230567
O128	O	0.277891	-0.182071	-0.220072
H129	H	0.243988	-0.158790	-0.192137
H130	H	1.022930	-0.701692	-0.417003
H131	H	1.022963	-0.800739	-0.417029
H132	H	0.836775	-0.953168	-0.230483
H133	H	0.796469	-0.801099	-0.190153
