data_functionalizedCrystal
_audit_creation_method	'MofGen! by Chris Wilmer'
_symmetry_space_group_name_H-M	'P1'
_symmetry_Int_Tables_number	1
_symmetry_cell_setting	triclinic
loop_
_symmetry_equiv_pos_as_xyz
  x,y,z
_cell_length_a	12.759395
_cell_length_b	16.625545
_cell_length_c	12.759387
_cell_angle_alpha	90.034554
_cell_angle_beta	89.982262
_cell_angle_gamma	89.976118
loop_
_atom_site_label
_atom_site_type_symbol
_atom_site_fract_x
_atom_site_fract_y
_atom_site_fract_z
Zn1	Zn	1.606183	0.320953	-0.593956
Zn2	Zn	1.606050	0.455811	-0.418268
Zn3	Zn	1.430486	0.320996	-0.418296
Zn4	Zn	1.430445	0.455747	-0.593911
O5	O	1.518291	0.388377	-0.506108
O6	O	1.753186	0.338851	-0.570658
O7	O	1.582723	0.437972	-0.271251
O8	O	1.453866	0.208158	-0.441628
O9	O	1.753089	0.437931	-0.441581
O10	O	1.582949	0.208127	-0.570685
O11	O	1.453737	0.338924	-0.271271
O12	O	1.283460	0.338862	-0.441584
O13	O	1.453795	0.437822	-0.740938
O14	O	1.283429	0.437863	-0.570608
O15	O	1.582909	0.338789	-0.740971
O16	O	1.582683	0.568635	-0.441537
O17	O	1.453666	0.568588	-0.570581
C18	C	1.245324	0.388361	-0.506095
C19	C	1.128547	0.388373	-0.506114
C20	C	1.128629	0.285369	-0.640739
C21	C	1.073810	0.233876	-0.708060
C22	C	0.964088	0.233890	-0.708073
C23	C	0.909183	0.285401	-0.640756
C24	C	0.964003	0.336894	-0.573435
C25	C	1.073727	0.336876	-0.573431
C26	C	0.963921	0.439893	-0.438806
C27	C	1.073642	0.439884	-0.438797
C28	C	0.909016	0.491404	-0.371489
C29	C	0.963836	0.542902	-0.304172
C30	C	1.073564	0.542886	-0.304162
C31	C	1.128462	0.491377	-0.371476
C32	C	1.518184	0.597868	-0.506074
C33	C	1.518235	0.687489	-0.506095
C34	C	1.518406	1.015664	-0.506220
C35	C	1.518355	0.924356	-0.506188
C36	C	1.518320	0.851580	-0.506157
C37	C	1.518270	0.760265	-0.506126
C38	C	1.792324	0.388394	-0.506121
C39	C	1.909101	0.388401	-0.506127
C40	C	1.518362	0.388294	-0.780141
C41	C	1.518393	0.388258	-0.896918
C42	C	1.518418	1.178068	-0.506177
C43	C	1.518449	1.088447	-0.506238
C44	C	1.384088	0.285112	-0.896958
C45	C	1.316955	0.233523	-0.951839
C46	C	1.316987	0.233494	-1.061561
C47	C	1.384156	0.285061	-1.116404
C48	C	1.451289	0.336650	-1.061523
C49	C	1.451253	0.336672	-0.951799
C50	C	1.585587	0.439799	-1.061483
C51	C	1.585562	0.439825	-0.951761
C52	C	1.652756	0.491366	-1.116327
C53	C	1.719896	0.542952	-1.061446
C54	C	1.719863	0.542979	-0.951717
C55	C	1.652695	0.491414	-0.896881
C56	C	1.518281	0.388402	-0.233140
C57	C	1.518454	0.388210	-0.116364
H58	H	0.919454	0.191956	-0.762885
N59	N	1.384067	0.285153	-0.784881
N60	N	1.444009	0.331220	-0.735893
H61	H	1.443993	0.331249	-0.656737
H62	H	0.919124	0.584835	-0.249363
H63	H	1.262265	0.191540	-0.907174
N64	N	1.384338	0.285023	-1.228481
N65	N	1.362449	0.347889	-1.277512
H66	H	1.362635	0.347854	-1.356668
H67	H	0.819842	0.285402	-0.640764
N68	N	1.788437	0.595688	-0.895678
N69	N	1.848394	0.641724	-0.944662
H70	H	1.896827	0.678953	-0.905088
H71	H	0.819675	0.491410	-0.371502
N72	N	1.129541	0.595483	-0.235377
N73	N	1.080503	0.641462	-0.175280
H74	H	1.120032	0.678610	-0.126696
N75	N	1.248400	0.180799	-1.117610
N76	N	1.188429	0.134766	-1.068638
H77	H	1.139989	0.097550	-1.108222
H78	H	1.217803	0.491355	-0.371470
N79	N	1.652759	0.491251	-1.228404
N80	N	1.674768	0.428297	-1.277300
H81	H	1.674765	0.428187	-1.356457
H82	H	1.774576	0.584937	-1.106108
N83	N	1.652682	0.491428	-0.784803
N84	N	1.674683	0.428546	-0.735859
H85	H	1.674673	0.428554	-0.656703
N86	N	1.240706	0.285342	-0.640737
N87	N	1.289692	0.222416	-0.618933
H88	H	1.368848	0.222395	-0.618933
N89	N	1.129909	0.181262	-0.776807
N90	N	1.227874	0.181252	-0.776790
H91	H	1.267494	0.144092	-0.825341
