data_functionalizedCrystal
_audit_creation_method	'MofGen! by Chris Wilmer'
_symmetry_space_group_name_H-M	'P1'
_symmetry_Int_Tables_number	1
_symmetry_cell_setting	triclinic
loop_
_symmetry_equiv_pos_as_xyz
  x,y,z
_cell_length_a	10.723023
_cell_length_b	17.038272
_cell_length_c	9.798715
_cell_angle_alpha	89.996584
_cell_angle_beta	89.996770
_cell_angle_gamma	87.789552
loop_
_atom_site_label
_atom_site_type_symbol
_atom_site_fract_x
_atom_site_fract_y
_atom_site_fract_z
O1	O	1.667337	0.109717	-0.113479
O2	O	1.305156	0.120220	-0.113485
O3	O	1.484094	0.001141	-0.113471
O4	O	1.488399	0.228796	-0.113492
O5	O	1.484080	0.001141	0.113511
O6	O	1.305142	0.120220	0.113498
O7	O	1.667323	0.109717	0.113503
Zn8	Zn	1.486230	0.114968	0.149539
Zn9	Zn	1.486249	0.114969	-0.149520
O10	O	1.488385	0.228796	0.113490
C11	C	1.258579	0.119456	0.000006
C12	C	1.119813	0.117169	0.000004
C13	C	1.057939	0.116150	0.117586
C14	C	0.914517	0.113787	0.117587
C15	C	1.480171	-0.028009	0.000020
C16	C	1.468489	-0.114866	0.000019
C17	C	1.575745	-0.164388	0.000023
C18	C	1.564761	-0.245999	0.000009
C19	C	1.446520	-0.278087	0.000003
C20	C	1.339256	-0.228559	-0.000004
C21	C	1.350242	-0.146949	-0.000001
C22	C	1.407711	-0.524059	-0.000016
C23	C	1.396734	-0.605675	-0.000016
C24	C	1.622239	-0.623110	-0.000004
C25	C	1.633214	-0.541497	0.000007
C26	C	1.525951	-0.491977	-0.000007
C27	C	1.435290	-0.361507	-0.000006
C28	C	1.537182	-0.408559	-0.000008
C29	C	1.713900	0.110481	0.000010
C30	C	1.852666	0.112768	0.000003
C31	C	1.492307	0.257946	-0.000004
C32	C	1.503990	0.344803	-0.000013
N33	N	1.486226	0.114968	0.353639
N34	N	1.486262	0.114963	-0.353620
C35	C	1.561337	0.064749	0.421421
C36	C	1.561357	0.064747	0.578584
H37	H	0.905867	0.113649	-0.100669
H38	H	1.421930	0.157957	0.411958
C39	C	1.648171	0.006654	0.342639
N40	N	1.713571	-0.037109	0.283302
C41	C	1.129810	0.117368	0.253587
N42	N	1.183940	0.118298	0.356027
H43	H	1.066606	0.116291	-0.100662
H44	H	1.672029	-0.138268	0.000036
C45	C	1.682751	-0.300469	0.000035
N46	N	1.771628	-0.341497	0.000061
C47	C	1.399381	0.173050	0.567644
N48	N	1.333941	0.216800	0.508330
C49	C	0.842637	0.112602	0.253589
N50	N	0.788493	0.111709	0.356030
C51	C	1.763288	-0.506207	0.000016
N52	N	1.861261	-0.479627	0.000028
H53	H	1.242982	-0.254692	-0.000018
H54	H	1.709567	-0.663438	0.000005
C55	C	1.266655	-0.640970	-0.000033
N56	N	1.168684	-0.667554	-0.000047
C57	C	1.289716	-0.469597	-0.000040
N58	N	1.200837	-0.428573	-0.000061
H59	H	1.262902	-0.106629	-0.000004
H60	H	1.633453	-0.382429	-0.000033
H61	H	1.339017	-0.387642	-0.000009
C62	C	1.648233	0.006661	0.657329
N63	N	1.713669	-0.037091	0.716643
