data_functionalizedCrystal
_audit_creation_method	'MofGen! by Chris Wilmer'
_symmetry_space_group_name_H-M	'P1'
_symmetry_Int_Tables_number	1
_symmetry_cell_setting	triclinic
loop_
_symmetry_equiv_pos_as_xyz
  x,y,z
_cell_length_a	17.640280
_cell_length_b	11.169417
_cell_length_c	11.169409
_cell_angle_alpha	90.019824
_cell_angle_beta	101.234358
_cell_angle_gamma	78.801822
loop_
_atom_site_label
_atom_site_type_symbol
_atom_site_fract_x
_atom_site_fract_y
_atom_site_fract_z
Zn1	Zn	-0.314589	1.931511	0.582049
Zn2	Zn	-0.446792	1.971974	0.340816
Zn3	Zn	-0.314638	1.730812	0.381369
Zn4	Zn	-0.446728	1.771358	0.541481
O5	O	-0.380687	1.851414	0.461429
O6	O	-0.332133	2.104830	0.550056
O7	O	-0.429309	1.939948	0.178231
O8	O	-0.204024	1.723532	0.441939
O9	O	-0.429262	2.134558	0.372823
O10	O	-0.203988	1.870985	0.589378
O11	O	-0.332215	1.762767	0.208025
O12	O	-0.332153	1.568238	0.402602
O13	O	-0.429152	1.792638	0.714827
O14	O	-0.429199	1.598028	0.520235
O15	O	-0.332071	1.910301	0.744632
O16	O	-0.557391	1.979264	0.333485
O17	O	-0.557344	1.831873	0.480912
C18	C	-0.380675	1.539585	0.461417
C19	C	-0.380689	1.406189	0.461435
C20	C	-0.586047	1.914392	0.398422
C21	C	-0.673901	1.941444	0.371508
C22	C	-0.962856	1.646394	0.666331
C23	C	-1.045408	1.671816	0.641003
C24	C	-1.045391	1.825390	0.487642
C25	C	-0.962838	1.799985	0.512961
C26	C	-0.921576	1.710485	0.602306
C27	C	-0.921558	1.864076	0.448937
C28	C	-0.839012	1.838668	0.474250
C29	C	-0.797745	1.749170	0.563589
C30	C	-0.839030	1.685077	0.627620
C31	C	-0.962821	1.953570	0.359586
C32	C	-0.921542	2.017661	0.295561
C33	C	-0.838994	1.992259	0.320881
C34	C	-0.797727	1.902761	0.410219
C35	C	-0.797709	2.056352	0.256849
C36	C	-0.715162	2.030944	0.282163
C37	C	-0.715180	1.877353	0.435532
C38	C	-0.174525	1.788222	0.524708
C39	C	-0.086671	1.761294	0.551674
C40	C	-0.380599	1.851479	0.774498
C41	C	-0.380562	1.851507	0.907910
C42	C	-0.380699	2.164460	0.461441
C43	C	-0.380705	2.297861	0.461446
C44	C	-0.380717	1.851400	0.149595
C45	C	-0.380532	1.851537	0.016252
H46	H	-0.681583	1.804482	0.508295
C47	C	-0.917463	1.547923	0.764600
N48	N	-0.883274	1.473748	0.838603
C49	C	-0.706940	1.721221	0.591435
N50	N	-0.638546	1.700172	0.612410
C51	C	-1.090812	1.601309	0.711449
N52	N	-1.125011	1.548205	0.764508
H53	H	-0.805433	1.612206	0.700383
H54	H	-1.078998	1.898258	0.414894
C55	C	-0.843108	2.154786	0.158560
N56	N	-0.877302	2.228926	0.084526
C57	C	-0.669752	2.101457	0.211742
N58	N	-0.635549	2.154570	0.158700
C59	C	-1.053626	1.981521	0.331747
N60	N	-1.122020	2.002575	0.310783
H61	H	-0.955148	2.090528	0.222813
