data_functionalizedCrystal
_audit_creation_method	'MofGen! by Chris Wilmer'
_symmetry_space_group_name_H-M	'P1'
_symmetry_Int_Tables_number	1
_symmetry_cell_setting	triclinic
loop_
_symmetry_equiv_pos_as_xyz
  x,y,z
_cell_length_a	11.026607
_cell_length_b	17.038272
_cell_length_c	10.065875
_cell_angle_alpha	99.426590
_cell_angle_beta	79.302338
_cell_angle_gamma	99.848786
loop_
_atom_site_label
_atom_site_type_symbol
_atom_site_fract_x
_atom_site_fract_y
_atom_site_fract_z
O1	O	1.661277	0.323101	-0.113507
O2	O	1.304065	0.285271	-0.113508
O3	O	1.480547	0.190072	-0.113497
O4	O	1.484796	0.418300	-0.113518
O5	O	1.446904	0.208319	0.113490
O6	O	1.270422	0.303517	0.113479
O7	O	1.627634	0.341348	0.113479
Zn8	Zn	1.443687	0.325329	0.149518
Zn9	Zn	1.488013	0.301289	-0.149547
O10	O	1.451153	0.436546	0.113468
C11	C	1.241312	0.287415	-0.000014
C12	C	1.104451	0.266610	-0.000014
C13	C	1.036576	0.324055	-0.000020
C14	C	0.895122	0.302554	-0.000020
C15	C	1.459863	0.169523	-0.000004
C16	C	1.448341	0.081107	-0.000004
C17	C	1.554125	0.045899	-0.000002
C18	C	1.543294	-0.037179	-0.000015
C19	C	1.426676	-0.085047	-0.000020
C20	C	1.320885	-0.049835	-0.000026
C21	C	1.331719	0.033241	-0.000022
C22	C	1.388403	-0.336200	-0.000039
C23	C	1.377576	-0.419281	-0.000038
C24	C	1.599986	-0.406621	-0.000030
C25	C	1.610809	-0.323543	-0.000019
C26	C	1.505019	-0.288338	-0.000032
C27	C	1.415601	-0.169966	-0.000029
C28	C	1.516096	-0.203421	-0.000032
C29	C	1.690387	0.339203	-0.000017
C30	C	1.827251	0.360008	-0.000026
C31	C	1.471837	0.457095	-0.000028
C32	C	1.483360	0.545511	-0.000036
N33	N	1.413444	0.341737	0.353622
N34	N	1.518264	0.284877	-0.353650
C35	C	1.477482	0.306992	0.421405
C36	C	1.454217	0.319627	0.578571
H37	H	1.649086	0.084868	0.000010
H38	H	1.225934	-0.088816	-0.000038
H39	H	1.590314	0.245770	0.588033
H40	H	0.873855	0.425112	-0.000023
H41	H	0.848520	0.237447	-0.000049
O42	O	1.327402	0.388281	0.423339
C43	C	1.234669	0.341796	0.505987
H44	H	1.273917	0.288229	0.527245
H45	H	1.203943	0.380244	0.606528
H46	H	1.151162	0.319328	0.451021
O47	O	1.092378	0.401676	-0.000081
C48	C	1.221187	0.405866	-0.000040
H49	H	1.251200	0.344710	-0.043011
H50	H	1.275317	0.452814	-0.065938
H51	H	1.241201	0.423463	0.108859
O52	O	1.048833	0.188936	-0.000251
C53	C	0.992262	0.164045	-0.117790
H54	H	1.039183	0.203155	-0.199960
H55	H	1.002905	0.098536	-0.157247
H56	H	0.888956	0.170314	-0.091211
H57	H	1.629434	-0.065841	-0.000011
H58	H	1.686114	-0.435294	-0.000022
O59	O	1.724158	-0.277103	-0.000256
C60	C	1.806601	-0.303010	-0.117794
H61	H	1.750741	-0.336147	-0.199969
H62	H	1.870022	-0.248676	-0.157242
H63	H	1.865704	-0.345155	-0.091215
O64	O	1.264204	-0.465671	-0.000118
C65	C	1.173148	-0.416783	-0.000101
H66	H	1.219839	-0.359159	-0.043067
H67	H	1.102025	-0.450511	-0.066015
H68	H	1.123951	-0.401147	0.108791
H69	H	1.302260	-0.307547	-0.000049
H70	H	1.611050	-0.164446	-0.000059
O71	O	1.228899	0.067339	-0.000204
C72	C	1.176048	0.033758	-0.117783
H73	H	1.205609	-0.027911	-0.156972
H74	H	1.070027	0.027253	-0.091350
H75	H	1.209768	0.074776	-0.200102
O76	O	1.302330	-0.216454	-0.000267
C77	C	1.254728	-0.209436	-0.117804
H78	H	1.334944	-0.189489	-0.199970
H79	H	1.203023	-0.270114	-0.157269
H80	H	1.187725	-0.163032	-0.091218
O81	O	1.563303	0.260235	0.351870
C82	C	1.529769	0.181663	0.386683
H83	H	1.425333	0.170668	0.426096
H84	H	1.553499	0.136307	0.292624
H85	H	1.583360	0.174480	0.469477
O86	O	1.368170	0.366173	0.648282
C87	C	1.275437	0.319689	0.730930
H88	H	1.314685	0.266121	0.752188
H89	H	1.244711	0.358136	0.831472
H90	H	1.191930	0.297221	0.675964
