data_functionalizedCrystal
_audit_creation_method	'MofGen! by Chris Wilmer'
_symmetry_space_group_name_H-M	'P1'
_symmetry_Int_Tables_number	1
_symmetry_cell_setting	triclinic
loop_
_symmetry_equiv_pos_as_xyz
  x,y,z
_cell_length_a	15.538191
_cell_length_b	19.188930
_cell_length_c	14.750779
_cell_angle_alpha	77.396187
_cell_angle_beta	97.572172
_cell_angle_gamma	65.208438
loop_
_atom_site_label
_atom_site_type_symbol
_atom_site_fract_x
_atom_site_fract_y
_atom_site_fract_z
O1	O	1.230319	-0.206654	-0.079811
O2	O	0.955725	-0.125950	-0.079820
O3	O	1.100951	-0.269953	-0.079797
O4	O	1.085093	-0.062651	-0.079835
O5	O	1.142004	-0.310658	0.079860
O6	O	0.996778	-0.166654	0.079837
O7	O	1.271372	-0.247359	0.079846
Zn8	Zn	1.140594	-0.213470	0.105190
Zn9	Zn	1.086504	-0.159839	-0.105165
O10	O	1.126146	-0.103356	0.079822
C11	C	0.941121	-0.137858	0.000007
C12	C	0.836443	-0.112707	0.000004
C13	C	1.120965	-0.316188	0.000035
C14	C	1.119427	-0.393308	0.000043
C15	C	0.549690	-0.362580	0.000035
C16	C	0.451325	-0.338928	0.000030
C17	C	0.428328	-0.205893	0.000006
C18	C	0.526694	-0.229535	0.000016
C19	C	0.587367	-0.307879	0.000029
C20	C	0.564371	-0.174835	0.000010
C21	C	0.662727	-0.198474	0.000014
C22	C	0.723406	-0.276813	0.000025
C23	C	0.685723	-0.331518	0.000034
C24	C	0.503694	-0.096490	-0.000011
C25	C	0.541372	-0.041789	-0.000017
C26	C	0.639731	-0.065429	-0.000005
C27	C	0.700410	-0.143769	0.000006
C28	C	0.677414	-0.010724	-0.000014
C29	C	0.775770	-0.034363	-0.000009
C30	C	0.798766	-0.167408	0.000010
C31	C	1.204639	-0.459635	0.000050
C32	C	1.203187	-0.532092	0.000035
C33	C	1.116524	-0.538221	0.000031
C34	C	1.031299	-0.471879	0.000018
C35	C	1.032751	-0.399422	0.000024
N36	N	1.064252	-0.643440	0.054363
N37	N	1.062879	-0.712273	0.054360
C38	C	1.112146	-0.756526	0.000012
N39	N	1.162854	-0.729353	-0.054321
N40	N	1.164230	-0.660516	-0.054313
C41	C	1.114941	-0.616784	0.000024
C42	C	1.195790	-0.901421	0.000001
C43	C	1.194333	-0.973876	-0.000020
C44	C	1.022445	-0.913663	-0.000027
C45	C	1.023901	-0.841208	-0.000016
C46	C	1.110577	-0.835093	0.000003
C47	C	1.285976	-0.235450	0.000016
C48	C	1.390652	-0.260600	0.000013
C49	C	1.106132	-0.057120	-0.000011
C50	C	1.107668	0.020001	-0.000026
N51	N	1.177515	-0.250073	0.248752
N52	N	1.049589	-0.123244	-0.248726
C53	C	0.946472	-0.021047	0.600532
C54	C	0.972351	-0.046693	0.701036
C55	C	1.100975	-0.174180	0.701020
C56	C	1.075104	-0.148545	0.600514
C57	C	0.997852	-0.071978	0.550279
C58	C	1.126484	-0.199476	0.550260
C59	C	1.100617	-0.173842	0.449764
C60	C	1.023370	-0.097277	0.399521
C61	C	0.971985	-0.046344	0.449782
C62	C	1.203739	-0.276041	0.600498
C63	C	1.255119	-0.326973	0.550244
C64	C	1.229248	-0.301341	0.449745
C65	C	1.152002	-0.224776	0.399503
C66	C	1.280633	-0.352274	0.399484
C67	C	1.254767	-0.326640	0.298988
C68	C	1.126135	-0.199142	0.299006
H69	H	0.848172	-0.231204	0.000027
H70	H	0.423607	-0.077245	-0.000017
H71	H	0.963358	-0.345414	0.000018
H72	H	0.491958	0.022000	-0.000032
C73	C	1.321625	-0.909478	-0.082079
C74	C	1.291052	-0.894682	0.000001
H75	H	1.380432	-0.905312	-0.082082
H76	H	1.332959	-0.962119	-0.082077
H77	H	1.272220	-0.871025	-0.137745
H78	H	1.340454	-0.933139	0.055667
H79	H	1.279723	-0.842034	0.000008
H80	H	0.420654	-0.383477	0.000033
H81	H	0.909073	0.016002	0.408878
C82	C	1.271323	-1.069343	-0.082102
C83	C	1.288007	-1.046785	-0.000019
H84	H	1.329158	-1.114351	-0.082103
H85	H	1.219510	-1.083362	-0.082106
H86	H	1.254004	-1.025614	-0.137766
H87	H	1.305319	-1.090512	0.055645
H88	H	1.339836	-1.032769	-0.000006
C89	C	0.836943	-0.253537	-0.082046
C90	C	0.831522	-0.302801	0.000030
H91	H	0.903690	-0.269580	-0.082037
H92	H	0.804629	-0.258568	-0.137708
H93	H	0.806199	-0.199054	-0.082045
H94	H	0.862259	-0.357284	0.000026
H95	H	0.863850	-0.297778	0.055707
C96	C	0.516426	0.084587	-0.000039
C97	C	0.610714	0.075389	-0.000032
H98	H	0.475252	0.137750	-0.000044
H99	H	0.490727	0.075325	-0.055709
H100	H	0.519354	0.046930	0.055643
H101	H	0.607787	0.113042	-0.055718
H102	H	0.636419	0.084660	0.055644
H103	H	0.951881	-0.918651	-0.000035
H104	H	0.806449	0.010177	-0.000005
C105	C	0.562554	-0.491723	0.000052
C106	C	0.616391	-0.448697	0.000047
H107	H	0.603732	-0.544883	0.000051
H108	H	0.538035	-0.493936	0.055726
H109	H	0.509391	-0.465535	-0.055627
H110	H	0.669550	-0.474882	0.055730
H111	H	0.640925	-0.446487	-0.055632
H112	H	0.954514	-0.787202	-0.000016
H113	H	1.063223	-0.136796	0.258102
C114	C	0.788587	-0.414363	-0.082013
C115	C	0.752433	-0.417636	0.000055
H116	H	0.829776	-0.467526	-0.081995
H117	H	0.735427	-0.388195	-0.137681
H118	H	0.825093	-0.385159	-0.082011
H119	H	0.715920	-0.446836	0.000050
H120	H	0.805601	-0.443816	0.055737
C121	C	1.075088	-0.068925	0.255534
C122	C	0.994934	-0.069097	0.289052
H123	H	1.057532	-0.051532	0.187336
H124	H	1.093647	-0.033316	0.278258
H125	H	1.128443	-0.121817	0.278264
H126	H	0.941582	-0.016203	0.266328
H127	H	0.976362	-0.104707	0.266318
H128	H	0.883560	0.041299	0.559629
C129	C	0.357336	-0.064288	-0.082087
C130	C	0.361629	-0.119780	-0.000010
H131	H	0.316155	-0.011126	-0.082096
H132	H	0.421300	-0.070538	-0.082075
H133	H	0.331627	-0.073558	-0.137754
H134	H	0.387345	-0.110514	0.055658
H135	H	0.297652	-0.113527	-0.000013
H136	H	0.960737	-0.476873	0.000013
C137	C	1.374396	-0.526437	0.000061
C138	C	1.299909	-0.452912	0.000061
H139	H	1.433209	-0.522282	0.000061
H140	H	1.384568	-0.567643	0.055732
H141	H	1.355932	-0.539242	-0.055621
H142	H	1.318371	-0.440110	0.055746
H143	H	1.289738	-0.411693	-0.055616
C144	C	0.842586	0.081905	0.690955
C145	C	0.915856	0.009291	0.756276
H146	H	0.807707	0.116463	0.725060
H147	H	0.871640	0.107121	0.651754
H148	H	0.798712	0.071377	0.651762
H149	H	0.959735	0.019819	0.795465
H150	H	0.886802	-0.015929	0.795494
C151	C	1.280179	-0.627583	-0.082026
C152	C	1.296860	-0.605015	0.000049
H153	H	1.338011	-0.672598	-0.082016
H154	H	1.228360	-0.641595	-0.082028
H155	H	1.262868	-0.583862	-0.137695
H156	H	1.314164	-0.648734	0.055719
H157	H	1.348695	-0.591005	0.000060
H158	H	1.163877	-0.236521	0.741933
C159	C	1.246599	-0.398054	0.185873
C160	C	1.311265	-0.382565	0.243695
H161	H	1.281490	-0.432558	0.151721
H162	H	1.217594	-0.423332	0.225060
H163	H	1.196865	-0.348774	0.141612
H164	H	1.360995	-0.431844	0.287961
H165	H	1.340286	-0.357288	0.204505
C166	C	1.152024	-0.304409	0.744482
C167	C	1.232176	-0.304227	0.710966
H168	H	1.169583	-0.321815	0.812680
H169	H	1.098672	-0.251527	0.721762
H170	H	1.133469	-0.340023	0.721744
H171	H	1.250726	-0.268609	0.733698
H172	H	1.285544	-0.357118	0.733696
C173	C	1.351884	-0.422882	0.704291
C174	C	1.340029	-0.411136	0.605469
H175	H	1.404299	-0.474845	0.738381
H176	H	1.366174	-0.383032	0.720747
H177	H	1.293220	-0.418749	0.720766
H178	H	1.398690	-0.415263	0.588992
H179	H	1.325744	-0.450997	0.589006
H180	H	1.343539	-0.414613	0.440399
