data_functionalizedCrystal
_audit_creation_method	'MofGen! by Chris Wilmer'
_symmetry_space_group_name_H-M	'P1'
_symmetry_Int_Tables_number	1
_symmetry_cell_setting	triclinic
loop_
_symmetry_equiv_pos_as_xyz
  x,y,z
_cell_length_a	14.519731
_cell_length_b	15.995292
_cell_length_c	13.596369
_cell_angle_alpha	89.997204
_cell_angle_beta	89.994584
_cell_angle_gamma	83.578735
loop_
_atom_site_label
_atom_site_type_symbol
_atom_site_fract_x
_atom_site_fract_y
_atom_site_fract_z
O1	O	1.223632	0.109848	-0.081786
O2	O	1.473632	0.359848	0.168214
O3	O	1.723632	0.609848	0.418214
O4	O	1.973632	0.859848	0.668214
O5	O	0.955131	0.122755	-0.081787
O6	O	1.205131	0.372755	0.168213
O7	O	1.455131	0.622755	0.418213
O8	O	1.705131	0.872755	0.668213
O9	O	1.096749	-0.005578	-0.081788
O10	O	1.346749	0.244422	0.168212
O11	O	1.596749	0.494422	0.418212
O12	O	1.846749	0.744422	0.668212
O13	O	1.082014	0.238181	-0.081785
O14	O	1.332014	0.488181	0.168215
O15	O	1.582014	0.738181	0.418215
O16	O	1.832014	0.988181	0.668215
O17	O	1.096735	-0.005585	0.081795
O18	O	1.346735	0.244415	0.331795
O19	O	1.596735	0.494415	0.581795
O20	O	1.846735	0.744415	0.831795
O21	O	0.955117	0.122748	0.081796
O22	O	1.205117	0.372748	0.331796
O23	O	1.455117	0.622748	0.581796
O24	O	1.705117	0.872748	0.831796
O25	O	1.223618	0.109841	0.081797
O26	O	1.473618	0.359841	0.331797
O27	O	1.723618	0.609841	0.581797
O28	O	1.973618	0.859841	0.831797
Zn29	Zn	1.089365	0.116294	0.107769
Zn30	Zn	1.339365	0.366294	0.357769
Zn31	Zn	1.589365	0.616294	0.607769
Zn32	Zn	1.839365	0.866294	0.857769
Zn33	Zn	1.089383	0.116303	-0.107759
Zn34	Zn	1.339383	0.366303	0.142241
Zn35	Zn	1.589383	0.616303	0.392241
Zn36	Zn	1.839383	0.866303	0.642241
O37	O	1.082000	0.238174	0.081798
O38	O	1.332000	0.488174	0.331798
O39	O	1.582000	0.738174	0.581798
O40	O	1.832000	0.988174	0.831798
C41	C	0.920766	0.122147	0.000004
C42	C	1.170766	0.372147	0.250004
C43	C	1.420766	0.622147	0.500004
C44	C	1.670766	0.872147	0.750004
C45	C	0.818389	0.120335	0.000004
C46	C	1.068389	0.370335	0.250004
C47	C	1.318389	0.620335	0.500004
C48	C	1.568389	0.870335	0.750004
C49	C	0.735248	0.118862	-0.000000
C50	C	0.985248	0.368862	0.250000
C51	C	1.235248	0.618862	0.500000
C52	C	1.485248	0.868862	0.750000
C53	C	0.630943	0.117022	-0.000001
C54	C	0.880943	0.367022	0.249999
C55	C	1.130943	0.617022	0.499999
C56	C	1.380943	0.867022	0.749999
C57	C	0.547807	0.115562	-0.000001
C58	C	0.797807	0.365562	0.249999
C59	C	1.047807	0.615562	0.499999
C60	C	1.297807	0.865562	0.749999
C61	C	0.443495	0.113722	-0.000003
C62	C	0.693495	0.363722	0.249997
C63	C	0.943495	0.613722	0.499997
C64	C	1.193495	0.863722	0.749997
C65	C	1.096142	-0.036778	0.000001
C66	C	1.346142	0.213222	0.250001
C67	C	1.596142	0.463222	0.500001
C68	C	1.846142	0.713222	0.750001
C69	C	1.094344	-0.129734	-0.000007
C70	C	1.344344	0.120266	0.249993
C71	C	1.594344	0.370266	0.499993
C72	C	1.844344	0.620266	0.749993
C73	C	1.087734	-0.467482	0.000002
C74	C	1.337734	-0.217482	0.250002
C75	C	1.587734	0.032518	0.500002
C76	C	1.837734	0.282518	0.750002
C77	C	1.189950	-0.444010	0.000368
C78	C	1.439950	-0.194010	0.250368
C79	C	1.689950	0.055990	0.500368
C80	C	1.939950	0.305990	0.750368
C81	C	1.191893	-0.347331	-0.000004
C82	C	1.441893	-0.097331	0.249996
C83	C	1.691893	0.152669	0.499996
C84	C	1.941893	0.402669	0.749996
C85	C	1.091014	-0.299921	-0.000001
C86	C	1.341014	-0.049921	0.249999
C87	C	1.591014	0.200079	0.499999
C88	C	1.841014	0.450079	0.749999
C89	C	1.039919	-0.329099	-0.093412
C90	C	1.289919	-0.079099	0.156588
C91	C	1.539919	0.170901	0.406588
C92	C	1.789919	0.420901	0.656588
C93	C	1.038688	-0.425891	-0.093487
C94	C	1.288688	-0.175891	0.156513
C95	C	1.538688	0.074109	0.406513
C96	C	1.788688	0.324109	0.656513
C97	C	1.036585	-0.425759	0.092537
C98	C	1.286585	-0.175759	0.342537
C99	C	1.536585	0.074241	0.592537
C100	C	1.786585	0.324241	0.842537
C101	C	1.040373	-0.329261	0.093768
C102	C	1.290373	-0.079261	0.343768
C103	C	1.540373	0.170739	0.593768
C104	C	1.790373	0.420739	0.843768
C105	C	1.092862	-0.205222	-0.000007
C106	C	1.342862	0.044778	0.249993
C107	C	1.592862	0.294778	0.499993
C108	C	1.842862	0.544778	0.749993
C109	C	1.085883	-0.562181	0.000001
C110	C	1.335883	-0.312181	0.250001
C111	C	1.585883	-0.062181	0.500001
C112	C	1.835883	0.187819	0.750001
C113	C	1.257983	0.110449	0.000003
C114	C	1.507983	0.360449	0.250003
C115	C	1.757983	0.610449	0.500003
C116	C	2.007983	0.860449	0.750003
C117	C	1.360359	0.112261	-0.000003
C118	C	1.610359	0.362261	0.249997
C119	C	1.860359	0.612261	0.499997
C120	C	2.110359	0.862261	0.749997
C121	C	1.082606	0.269374	0.000007
C122	C	1.332606	0.519374	0.250007
C123	C	1.582606	0.769374	0.500007
C124	C	1.832606	1.019374	0.750007
C125	C	1.084404	0.362330	0.000008
C126	C	1.334404	0.612330	0.250008
C127	C	1.584404	0.862330	0.500008
C128	C	1.834404	1.112330	0.750008
N129	N	1.089359	0.116287	0.254860
N130	N	1.339359	0.366287	0.504860
N131	N	1.589359	0.616287	0.754860
N132	N	1.839359	0.866287	1.004860
N133	N	1.089397	0.116303	-0.254851
N134	N	1.339397	0.366303	-0.004851
N135	N	1.589397	0.616303	0.245149
N136	N	1.839397	0.866303	0.495149
C137	C	1.089382	0.116303	0.656151
C138	C	1.339382	0.366303	0.906151
C139	C	1.589382	0.616303	1.156151
C140	C	1.839382	0.866303	1.406151
C141	C	1.089373	0.116302	0.544500
C142	C	1.339373	0.366302	0.794500
C143	C	1.589373	0.616302	1.044500
C144	C	1.839373	0.866302	1.294500
C145	C	1.089371	0.116296	0.455509
C146	C	1.339371	0.366296	0.705509
C147	C	1.589371	0.616296	0.955509
C148	C	1.839371	0.866296	1.205509
C149	C	1.089361	0.116293	0.343851
C150	C	1.339361	0.366293	0.593851
C151	C	1.589361	0.616293	0.843851
C152	C	1.839361	0.866293	1.093851
H153	H	1.231910	-0.328246	0.066955
H154	H	1.481910	-0.078246	0.316955
H155	H	1.731910	0.171754	0.566955
H156	H	1.981910	0.421754	0.816955
H157	H	1.077578	-0.310640	0.162873
H158	H	1.327578	-0.060640	0.412873
H159	H	1.577578	0.189360	0.662873
H160	H	1.827578	0.439360	0.912873
H161	H	1.232158	-0.328861	-0.067082
H162	H	1.482158	-0.078861	0.182918
H163	H	1.732158	0.171139	0.432918
H164	H	1.982158	0.421139	0.682918
H165	H	0.963743	-0.440559	-0.097717
H166	H	1.213743	-0.190559	0.152283
H167	H	1.463743	0.059441	0.402283
H168	H	1.713743	0.309441	0.652283
H169	H	0.966741	-0.296407	0.099412
H170	H	1.216741	-0.046407	0.349412
H171	H	1.466741	0.203593	0.599412
H172	H	1.716741	0.453593	0.849412
H173	H	1.229343	-0.471948	0.067357
H174	H	1.479343	-0.221948	0.317357
H175	H	1.729343	0.028052	0.567357
H176	H	1.979343	0.278052	0.817357
H177	H	1.074086	-0.452649	-0.163315
H178	H	1.324086	-0.202649	0.086685
H179	H	1.574086	0.047351	0.336685
H180	H	1.824086	0.297351	0.586685
H181	H	0.965686	-0.297347	-0.096883
H182	H	1.215686	-0.047347	0.153117
H183	H	1.465686	0.202653	0.403117
H184	H	1.715686	0.452653	0.653117
H185	H	1.229136	-0.472964	-0.066245
H186	H	1.479136	-0.222964	0.183755
H187	H	1.729136	0.027036	0.433755
H188	H	1.979136	0.277036	0.683755
H189	H	1.075412	-0.308980	-0.162930
H190	H	1.325412	-0.058980	0.087070
H191	H	1.575412	0.191020	0.337070
H192	H	1.825412	0.441020	0.587070
H193	H	1.068769	-0.453800	0.163343
H194	H	1.318769	-0.203800	0.413343
H195	H	1.568769	0.046200	0.663343
H196	H	1.818769	0.296200	0.913343
H197	H	0.961346	-0.439868	0.093169
H198	H	1.211346	-0.189868	0.343169
H199	H	1.461346	0.060132	0.593169
H200	H	1.711346	0.310132	0.843169
