data_functionalizedCrystal
_audit_creation_method	'MofGen! by Chris Wilmer'
_symmetry_space_group_name_H-M	'P1'
_symmetry_Int_Tables_number	1
_symmetry_cell_setting	triclinic
loop_
_symmetry_equiv_pos_as_xyz
  x,y,z
_cell_length_a	13.897449
_cell_length_b	12.827892
_cell_length_c	12.827885
_cell_angle_alpha	89.970214
_cell_angle_beta	90.020099
_cell_angle_gamma	89.983328
loop_
_atom_site_label
_atom_site_type_symbol
_atom_site_fract_x
_atom_site_fract_y
_atom_site_fract_z
Zn1	Zn	1.474712	0.415947	0.590872
Zn2	Zn	1.808045	0.749280	0.924205
Zn3	Zn	2.141379	1.082613	1.257538
Zn4	Zn	1.474614	0.590724	0.416132
Zn5	Zn	1.807948	0.924057	0.749465
Zn6	Zn	2.141281	1.257391	1.082799
Zn7	Zn	1.313403	0.416002	0.416143
Zn8	Zn	1.646736	0.749335	0.749476
Zn9	Zn	1.980070	1.082668	1.082810
Zn10	Zn	1.313389	0.590650	0.590830
Zn11	Zn	1.646723	0.923984	0.924163
Zn12	Zn	1.980056	1.257317	1.257496
O13	O	1.394030	0.503331	0.503494
O14	O	1.727363	0.836664	0.836827
O15	O	2.060696	1.169997	1.170161
O16	O	1.609681	0.439139	0.567705
O17	O	1.943014	0.772473	0.901039
O18	O	2.276347	1.105806	1.234372
O19	O	1.453194	0.567601	0.269897
O20	O	1.786527	0.900934	0.603231
O21	O	2.119861	1.234267	0.936564
O22	O	1.334848	0.269758	0.439343
O23	O	1.668181	0.603092	0.772677
O24	O	2.001514	0.936425	1.106010
O25	O	1.609609	0.567547	0.439325
O26	O	1.942942	0.900881	0.772658
O27	O	2.276275	1.234214	1.105991
O28	O	1.453361	0.269718	0.567716
O29	O	1.786694	0.603051	0.901049
O30	O	2.120027	0.936385	1.234382
O31	O	1.334753	0.439233	0.269905
O32	O	1.668086	0.772566	0.603239
O33	O	2.001419	1.105899	0.936572
O34	O	1.178420	0.439161	0.439302
O35	O	1.511753	0.772495	0.772636
O36	O	1.845086	1.105828	1.105969
O37	O	1.334824	0.567422	0.737071
O38	O	1.668158	0.900755	1.070405
O39	O	2.001491	1.234088	1.403738
O40	O	1.178410	0.567475	0.567644
O41	O	1.511743	0.900808	0.900977
O42	O	1.845076	1.234142	1.234310
O43	O	1.453347	0.439068	0.737102
O44	O	1.786681	0.772401	1.070436
O45	O	2.120014	1.105734	1.403769
O46	O	1.453181	0.736950	0.439284
O47	O	1.786514	1.070284	0.772617
O48	O	2.119847	1.403617	1.105951
O49	O	1.334730	0.736896	0.567633
O50	O	1.668063	1.070230	0.900967
O51	O	2.001396	1.403563	1.234300
C52	C	1.393969	0.774841	0.503476
C53	C	1.727303	1.108174	0.836809
C54	C	2.060636	1.441507	1.170142
C55	C	1.394032	0.890994	0.503503
C56	C	1.727365	1.224327	0.836836
C57	C	2.060698	1.557660	1.170169
C58	C	1.143415	0.503317	0.503470
C59	C	1.476749	0.836650	0.836804
C60	C	1.810082	1.169983	1.170137
C61	C	1.036201	0.503336	0.503485
C62	C	1.369535	0.836669	0.836818
C63	C	1.702868	1.170003	1.170151
C64	C	1.394095	0.503230	0.776064
C65	C	1.727429	0.836564	1.109398
C66	C	2.060762	1.169897	1.442731
C67	C	1.394123	0.503188	0.892218
C68	C	1.727457	0.836521	1.225551
C69	C	2.060790	1.169854	1.558884
C70	C	0.839906	0.503340	0.503512
C71	C	1.173240	0.836673	0.836846
C72	C	1.506573	1.170006	1.170179
C73	C	0.949139	0.503334	0.503494
C74	C	1.282472	0.836668	0.836827
C75	C	1.615805	1.170001	1.170161
C76	C	1.645623	0.503345	0.503519
C77	C	1.978956	0.836679	0.836852
C78	C	2.312289	1.170012	1.170185
C79	C	1.752836	0.503352	0.503529
C80	C	2.086170	0.836685	0.836862
C81	C	2.419503	1.170018	1.170196
C82	C	1.394116	0.230761	0.503535
C83	C	1.727450	0.564094	0.836869
C84	C	2.060783	0.897427	1.170202
C85	C	1.394153	0.114607	0.503553
C86	C	1.727487	0.447941	0.836886
C87	C	2.060820	0.781274	1.170220
C88	C	1.452715	0.942771	0.440062
C89	C	1.786048	1.276104	0.773395
C90	C	2.119381	1.609437	1.106728
C91	C	1.452781	1.062821	0.440088
C92	C	1.786114	1.396154	0.773422
C93	C	2.119447	1.729488	1.106755
C94	C	1.394020	0.503355	0.231984
C95	C	1.727353	0.836689	0.565317
C96	C	2.060686	1.170022	0.898651
C97	C	1.394179	0.503104	0.115832
C98	C	1.727512	0.836437	0.449165
C99	C	2.060845	1.169770	0.782498
C100	C	1.452779	0.439662	0.944018
C101	C	1.786112	0.772995	1.277351
C102	C	2.119445	1.106328	1.610684
C103	C	1.452809	0.439616	1.064068
C104	C	1.786142	0.772949	1.397401
C105	C	2.119476	1.106283	1.730735
H106	H	1.502911	0.898225	0.385731
H107	H	1.836244	1.231558	0.719065
H108	H	2.169578	1.564891	1.052398
F109	F	1.328475	1.056418	0.574546
F110	F	1.661808	1.389751	0.907879
F111	F	1.995142	1.723085	1.241212
F112	F	1.518447	1.121017	0.369088
F113	F	1.851780	1.454350	0.702421
F114	F	2.185113	1.787684	1.035755
H115	H	1.503029	0.385232	1.108615
H116	H	1.836362	0.718566	1.441948
H117	H	2.169696	1.051899	1.775282
H118	H	1.343844	0.935542	0.557840
H119	H	1.677177	1.268876	0.891174
H120	H	2.010510	1.602209	1.224507
F121	F	1.328508	0.574229	0.950414
F122	F	1.661841	0.907562	1.283748
F123	F	1.995175	1.240895	1.617081
H124	H	1.502970	0.385305	0.899489
H125	H	1.836303	0.718638	1.232822
H126	H	2.169636	1.051971	1.566156
H127	H	1.343963	0.557497	1.071291
H128	H	1.677296	0.890831	1.404625
H129	H	2.010629	1.224164	1.737958
