data_functionalizedCrystal
_audit_creation_method	'MofGen! by Chris Wilmer'
_symmetry_space_group_name_H-M	'P1'
_symmetry_Int_Tables_number	1
_symmetry_cell_setting	triclinic
loop_
_symmetry_equiv_pos_as_xyz
  x,y,z
_cell_length_a	10.489716
_cell_length_b	17.019294
_cell_length_c	9.565339
_cell_angle_alpha	86.121262
_cell_angle_beta	89.996780
_cell_angle_gamma	83.960396
loop_
_atom_site_label
_atom_site_type_symbol
_atom_site_fract_x
_atom_site_fract_y
_atom_site_fract_z
O1	O	1.692217	0.111194	-0.129633
O2	O	1.320843	0.121661	-0.130898
O3	O	1.516890	0.001654	-0.116441
O4	O	1.496170	0.231201	-0.144089
O5	O	1.516875	0.001661	0.116078
O6	O	1.320827	0.121668	0.101621
O7	O	1.692202	0.111201	0.102886
Zn8	Zn	1.506512	0.116436	0.139171
Zn9	Zn	1.506533	0.116426	-0.167183
O10	O	1.496154	0.231209	0.088430
C11	C	1.273316	0.120878	-0.014544
C12	C	1.131724	0.118525	-0.014263
C13	C	1.032824	0.192117	-0.023130
C14	C	0.956118	0.153234	0.096204
C15	C	0.956140	0.153209	-0.133039
C16	C	1.056884	0.079672	0.105162
C17	C	1.056911	0.079658	-0.124185
C18	C	0.980256	0.040720	-0.004817
C19	C	1.516097	-0.027736	0.003356
C20	C	1.513740	-0.115319	0.013896
C21	C	1.512644	-0.156466	-0.107898
C22	C	1.510421	-0.238759	-0.097990
C23	C	1.509303	-0.279905	0.033713
C24	C	1.510395	-0.238752	0.155516
C25	C	1.512609	-0.156460	0.145606
C26	C	1.502611	-0.528374	0.069974
C27	C	1.500401	-0.610672	0.079874
C28	C	1.500424	-0.610673	-0.173633
C29	C	1.502645	-0.528379	-0.183530
C30	C	1.503731	-0.487234	-0.061728
C31	C	1.507035	-0.364022	0.043844
C32	C	1.505990	-0.403117	-0.071860
C33	C	1.739728	0.111984	-0.013470
C34	C	1.881320	0.114337	-0.013761
C35	C	1.496948	0.260598	-0.031370
C36	C	1.499305	0.348182	-0.041920
N37	N	1.506507	0.116442	0.348250
N38	N	1.506547	0.116414	-0.376261
C39	C	1.415815	0.171923	0.432770
C40	C	1.531047	0.187878	0.524028
C41	C	1.391325	0.100494	0.534546
C42	C	1.621798	0.132433	0.437453
C43	C	1.482000	0.045018	0.447966
C44	C	1.597316	0.060943	0.539186
H45	H	0.912145	0.184287	-0.233697
C46	C	0.948680	-0.045820	0.005700
N47	N	0.924891	-0.111001	0.013630
H48	H	1.100931	0.048612	-0.217378
H49	H	1.513561	-0.122971	-0.215144
H50	H	1.100712	0.048627	0.205926
C51	C	1.559080	0.269460	0.569564
N52	N	1.580183	0.330909	0.603860
H53	H	1.461208	-0.015353	0.414237
H54	H	1.506129	-0.397532	0.151077
H55	H	1.339188	0.218885	0.386257
H56	H	1.719243	0.145982	0.395034
C57	C	1.499167	-0.655931	0.224763
N58	N	1.498239	-0.690020	0.333889
H59	H	1.509534	-0.272257	-0.197167
H60	H	1.506891	-0.369612	-0.179092
H61	H	1.674112	0.014010	0.585438
H62	H	1.503557	-0.494884	-0.290777
C63	C	1.259709	0.082282	0.592067
N64	N	1.160572	0.068571	0.635386
C65	C	1.503810	-0.483125	0.203962
N66	N	1.504715	-0.449040	0.304888
H67	H	1.513483	-0.122958	0.244784
H68	H	1.056426	0.256131	-0.030733
C69	C	0.896653	0.195208	0.222084
N70	N	0.851863	0.226829	0.316890
C71	C	1.509157	-0.284015	0.300391
N72	N	1.508226	-0.318107	0.409514
H73	H	1.499538	-0.644182	-0.272797
