data_functionalizedCrystal
_audit_creation_method	'MofGen! by Chris Wilmer'
_symmetry_space_group_name_H-M	'P1'
_symmetry_Int_Tables_number	1
_symmetry_cell_setting	triclinic
loop_
_symmetry_equiv_pos_as_xyz
  x,y,z
_cell_length_a	10.686220
_cell_length_b	25.639239
_cell_length_c	10.686551
_cell_angle_alpha	85.590528
_cell_angle_beta	90.308082
_cell_angle_gamma	94.420676
loop_
_atom_site_label
_atom_site_type_symbol
_atom_site_fract_x
_atom_site_fract_y
_atom_site_fract_z
Zn1	Zn	1.972159	-0.127472	-0.562366
Zn2	Zn	1.955834	-0.222109	-0.352592
Zn3	Zn	1.746264	-0.140848	-0.368681
Zn4	Zn	1.762265	-0.221050	-0.578370
O5	O	1.859130	-0.177870	-0.465502
O6	O	2.145540	-0.134872	-0.521108
O7	O	1.914505	-0.217371	-0.179180
O8	O	1.776365	-0.065903	-0.394409
O9	O	2.133546	-0.204401	-0.366988
O10	O	1.942329	-0.056076	-0.536709
O11	O	1.760535	-0.157668	-0.191000
O12	O	1.572839	-0.156641	-0.409928
O13	O	1.803636	-0.202595	-0.751793
O14	O	1.584595	-0.215565	-0.563985
O15	O	1.957844	-0.133844	-0.740035
O16	O	1.930021	-0.295139	-0.382506
O17	O	1.787807	-0.294361	-0.548384
C18	C	1.533200	-0.187440	-0.490440
C19	C	1.393768	-0.191545	-0.501138
C20	C	1.858915	-0.313720	-0.465461
C21	C	1.858941	-0.371833	-0.465476
C22	C	1.933401	-0.732571	-0.379250
C23	C	1.933451	-0.787174	-0.379263
O24	O	1.996536	-0.815738	-0.305904
N25	N	1.859357	-0.814099	-0.465568
C26	C	1.785218	-0.786419	-0.551874
O27	O	1.722201	-0.814336	-0.625286
C28	C	1.785176	-0.731818	-0.551866
C29	C	1.859265	-0.704895	-0.465547
C30	C	2.007485	-0.705649	-0.292939
C31	C	2.007433	-0.651050	-0.292925
C32	C	1.933297	-0.623374	-0.379222
C33	C	1.859213	-0.650297	-0.465533
C34	C	1.711045	-0.704138	-0.638177
C35	C	1.711010	-0.649533	-0.638162
C36	C	1.785099	-0.622611	-0.551843
C37	C	1.785025	-0.568023	-0.551816
N38	N	1.859119	-0.541097	-0.465510
C39	C	1.933255	-0.568773	-0.379213
C40	C	1.785314	-0.901087	-0.551887
C41	C	1.785349	-0.955688	-0.551890
C42	C	1.933583	-0.956438	-0.379280
C43	C	1.933541	-0.901836	-0.379272
C44	C	1.859408	-0.874161	-0.465581
C45	C	1.933139	-0.454112	-0.379189
C46	C	1.933077	-0.399509	-0.379179
C47	C	1.784847	-0.398763	-0.551793
C48	C	1.784904	-0.453362	-0.551799
C49	C	1.859060	-0.481035	-0.465493
O50	O	1.721976	-0.539424	-0.625140
O51	O	1.996274	-0.540849	-0.305825
C52	C	2.186333	-0.168263	-0.440468
C53	C	2.325768	-0.164169	-0.429800
C54	C	1.884346	-0.166610	-0.792704
C55	C	1.895092	-0.161811	-0.932138
C56	C	1.859383	-0.041486	-0.465568
C57	C	1.859490	0.016632	-0.465597
C58	C	1.834084	-0.189046	-0.139567
C59	C	1.823582	-0.193690	-0.000116
H60	H	1.374220	-0.137590	-0.360538
H61	H	1.754142	-0.224655	-0.951643
H62	H	1.345309	-0.218129	-0.570396
C63	C	1.703409	-0.482982	-0.646746
C64	C	1.600810	-0.525344	-0.599866
C65	C	1.519329	-0.554960	-0.694825
C66	C	1.540447	-0.542215	-0.836663
C67	C	1.643051	-0.499852	-0.883549
C68	C	1.724532	-0.470235	-0.788591
H69	H	1.585173	-0.534781	-0.494863
H70	H	1.443375	-0.586321	-0.660115
H71	H	1.480130	-0.564139	-0.906957
H72	H	1.658688	-0.490415	-0.988553
H73	H	1.800486	-0.438875	-0.823300
C74	C	1.703299	-0.368315	-0.646718
C75	C	1.724423	-0.370587	-0.788563
C76	C	1.642880	-0.340138	-0.883495
C77	C	1.540212	-0.307415	-0.836582
C78	C	1.519083	-0.305142	-0.694730
C79	C	1.600627	-0.335591	-0.599798
H80	H	1.800428	-0.394811	-0.823297
H81	H	1.658522	-0.341821	-0.988503
H82	H	1.479849	-0.284875	-0.906856
H83	H	1.443078	-0.280918	-0.659996
H84	H	1.584985	-0.333908	-0.494790
C85	C	2.014584	-0.369895	-0.284226
C86	C	1.993483	-0.382640	-0.142385
C87	C	2.074989	-0.353029	-0.047436
C88	C	2.177596	-0.310673	-0.094329
C89	C	2.198701	-0.297926	-0.236176
C90	C	2.117195	-0.327537	-0.331125
H91	H	1.917523	-0.413996	-0.107666
H92	H	2.059365	-0.362465	0.057569
H93	H	2.237932	-0.288753	-0.024042
H94	H	2.274661	-0.266570	-0.270895
H95	H	2.132819	-0.318101	-0.436130
C96	C	1.988917	-0.119978	-0.997617
C97	C	2.071754	-0.083050	-0.918979
C98	C	2.165576	-0.041217	-0.984458
C99	C	2.176562	-0.036313	-1.128574
C100	C	2.093723	-0.073242	-1.207219
C101	C	1.999900	-0.115075	-1.141741
H102	H	2.063623	-0.086680	-0.812289
H103	H	2.226899	-0.013880	-0.926238
H104	H	2.246015	-0.005346	-1.177045
H105	H	2.101853	-0.069613	-1.313910
H106	H	1.938577	-0.142412	-1.199960
C107	C	2.014702	-0.484548	-0.284247
C108	C	1.952865	-0.527108	-0.189870
C109	C	2.034418	-0.557544	-0.094922
C110	C	2.177809	-0.545420	-0.094350
C111	C	2.239654	-0.502857	-0.188730
C112	C	2.158100	-0.472421	-0.283678
H113	H	1.846711	-0.536085	-0.190290
H114	H	1.988636	-0.589052	-0.025056
H115	H	2.238180	-0.567951	-0.024064
H116	H	2.345807	-0.493880	-0.188310
H117	H	2.203882	-0.440914	-0.353544
C118	C	2.089041	-0.736085	-0.197998
C119	C	2.067909	-0.733798	-0.056159
C120	C	2.149463	-0.764230	0.038796
C121	C	2.252150	-0.796950	-0.008089
C122	C	2.273287	-0.799239	-0.149935
C123	C	2.191732	-0.768806	-0.244890
H124	H	1.991890	-0.709576	-0.021447
H125	H	2.133816	-0.762536	0.143800
H126	H	2.312521	-0.819478	0.062203
H127	H	2.349305	-0.823461	-0.184648
H128	H	2.207379	-0.770501	-0.349894
H129	H	2.067766	-0.629133	-0.222640
H130	H	1.993871	-0.879919	-0.308984
C131	C	1.703839	-0.985299	-0.646833
C132	C	1.622295	-0.954849	-0.741753
C133	C	1.540789	-0.984458	-0.836706
C134	C	1.540827	-1.044517	-0.836739
C135	C	1.622374	-1.074971	-0.741816
C136	C	1.703880	-1.045362	-0.646863
H137	H	1.622264	-0.910387	-0.741732
H138	H	1.480423	-0.961914	-0.906974
H139	H	1.480492	-1.066435	-0.907028
H140	H	1.622405	-1.119433	-0.741837
H141	H	1.764247	-1.067906	-0.576595
H142	H	1.993954	-0.978981	-0.309016
H143	H	1.724935	-0.878556	-0.622167
C144	C	1.629550	-0.733741	-0.733141
C145	C	1.486147	-0.730833	-0.733716
C146	C	1.404648	-0.760433	-0.828690
C147	C	1.466551	-0.792940	-0.923089
C148	C	1.609962	-0.795849	-0.922517
C149	C	1.691461	-0.766249	-0.827543
H150	H	1.440315	-0.706768	-0.663834
H151	H	1.298485	-0.758279	-0.829113
H152	H	1.406221	-0.814851	-0.993394
H153	H	1.655794	-0.819914	-0.992400
H154	H	1.797623	-0.768403	-0.827120
H155	H	1.650643	-0.627002	-0.708450
