data_functionalizedCrystal
_audit_creation_method	'MofGen! by Chris Wilmer'
_symmetry_space_group_name_H-M	'P1'
_symmetry_Int_Tables_number	1
_symmetry_cell_setting	triclinic
loop_
_symmetry_equiv_pos_as_xyz
  x,y,z
_cell_length_a	15.711784
_cell_length_b	15.995343
_cell_length_c	14.185569
_cell_angle_alpha	76.840771
_cell_angle_beta	107.179161
_cell_angle_gamma	101.538992
loop_
_atom_site_label
_atom_site_type_symbol
_atom_site_fract_x
_atom_site_fract_y
_atom_site_fract_z
O1	O	1.127293	0.472221	-0.083511
O2	O	0.875635	0.408463	-0.083496
O3	O	1.008351	0.320559	-0.083485
O4	O	0.994577	0.560125	-0.083522
O5	O	1.047557	0.294596	0.083353
O6	O	0.914840	0.382499	0.083342
O7	O	1.166499	0.446258	0.083327
Cu8	Cu	1.044249	0.412008	0.098568
Cu9	Cu	0.997884	0.442712	-0.098737
O10	O	1.033782	0.534161	0.083316
C11	C	0.863034	0.385065	-0.000075
C12	C	0.767078	0.354021	-0.000069
C13	C	0.642138	0.237150	-0.000050
C14	C	0.732302	0.266329	-0.000056
C15	C	0.711695	0.412569	-0.000082
C16	C	0.621526	0.383402	-0.000081
C17	C	0.586756	0.295692	-0.000064
C18	C	0.566144	0.441944	-0.000095
C19	C	0.475984	0.412779	-0.000090
C20	C	0.441207	0.325072	-0.000070
C21	C	0.496596	0.266526	-0.000058
C22	C	0.600918	0.529653	-0.000105
C23	C	0.545535	0.588195	-0.000120
C24	C	0.455372	0.559031	-0.000121
C25	C	0.420595	0.471324	-0.000101
C26	C	0.399983	0.617576	-0.000132
C27	C	0.309824	0.588411	-0.000126
C28	C	0.330436	0.442159	-0.000095
C29	C	1.027386	0.276208	-0.000064
C30	C	1.025686	0.182735	-0.000056
C31	C	1.022590	0.011605	-0.000078
C32	C	0.926792	-0.041084	-0.000075
C33	C	0.924898	-0.138253	-0.000465
C34	C	1.019541	-0.156884	-0.000100
C35	C	1.045367	-0.098233	-0.095183
C36	C	1.046487	-0.001082	-0.095252
C37	C	1.092475	-0.030283	0.094480
C38	C	1.089229	-0.128054	0.095719
C39	C	1.017822	-0.252105	-0.000115
C40	C	1.024310	0.106828	-0.000070
C41	C	1.179099	0.469655	-0.000096
C42	C	1.275053	0.500701	-0.000109
C43	C	1.014746	0.578512	-0.000108
C44	C	1.016445	0.671987	-0.000122
N45	N	1.076866	0.390413	0.237342
N46	N	0.965274	0.464303	-0.237511
C47	C	0.869445	0.527711	0.604974
C48	C	0.894158	0.511361	0.709998
C49	C	1.011702	0.433572	0.709969
C50	C	0.986996	0.449912	0.604943
C51	C	0.915868	0.496983	0.552454
C52	C	1.033419	0.419184	0.552423
C53	C	1.008718	0.435527	0.447406
C54	C	0.937594	0.482598	0.394910
C55	C	0.891166	0.513326	0.447438
C56	C	1.104551	0.372118	0.604914
C57	C	1.150974	0.341390	0.552393
C58	C	1.126269	0.357728	0.447375
C59	C	1.055145	0.404799	0.394879
C60	C	1.172696	0.327000	0.394847
C61	C	1.147995	0.343342	0.289831
C62	C	1.030444	0.421141	0.289862
H63	H	0.302121	0.370738	-0.000092
H64	H	1.208890	0.303067	0.595142
Br65	Br	0.592733	0.707227	-0.000142
Br66	Br	0.963595	0.045251	-0.214162
H67	H	0.856349	0.536389	0.752755
Br68	Br	0.723305	0.569219	-0.000003
Br69	Br	0.318849	0.285484	-0.000050
Br70	Br	0.449398	0.147489	-0.000036
H71	H	0.613824	0.165729	-0.000047
H72	H	1.230615	0.288681	0.437597
Br73	Br	0.835497	-0.170358	-0.114735
Br74	Br	0.807465	0.186869	-0.000032
H75	H	1.159643	-0.140806	0.101742
H76	H	0.428310	0.688989	-0.000136
Br77	Br	1.210360	0.028834	0.096007
H78	H	1.185798	0.318321	0.247068
Br79	Br	0.888737	-0.206893	0.113114
H80	H	0.811519	0.566033	0.562236
H81	H	1.115786	0.035641	-0.099308
Br82	Br	1.160076	-0.114927	-0.100645
Br83	Br	0.234659	0.667858	-0.000132
H84	H	0.995624	-0.117388	-0.166212
Br85	Br	0.904075	0.504786	0.252385
H86	H	1.124663	0.358818	0.690425
Br87	Br	0.891595	-0.031051	0.113557
H88	H	0.740019	0.483983	-0.000092
H89	H	0.874266	-0.012688	-0.068155
Br90	Br	1.070336	-0.017307	0.214646
Br91	Br	1.058318	-0.195146	0.212969
H92	H	0.972518	0.459463	0.247124
H93	H	0.833240	0.551647	0.404699
Br94	Br	1.108235	0.369697	0.781210
