data_functionalizedCrystal
_audit_creation_method	'MofGen! by Chris Wilmer'
_symmetry_space_group_name_H-M	'P1'
_symmetry_Int_Tables_number	1
_symmetry_cell_setting	triclinic
loop_
_symmetry_equiv_pos_as_xyz
  x,y,z
_cell_length_a	8.497374
_cell_length_b	8.497365
_cell_length_c	23.388383
_cell_angle_alpha	92.073373
_cell_angle_beta	92.105502
_cell_angle_gamma	90.037770
loop_
_atom_site_label
_atom_site_type_symbol
_atom_site_fract_x
_atom_site_fract_y
_atom_site_fract_z
Zn1	Zn	0.716508	-0.803288	0.877578
Zn2	Zn	0.980446	-0.539559	0.877522
Zn3	Zn	0.706960	-0.549231	0.781578
Zn4	Zn	0.970524	-0.812998	0.781615
O5	O	0.843610	-0.676269	0.829573
O6	O	0.759668	-0.760193	0.957884
O7	O	0.944324	-0.320084	0.864755
O8	O	0.487465	-0.582917	0.794320
O9	O	0.953582	-0.566432	0.957842
O10	O	0.494480	-0.769571	0.864851
O11	O	0.743395	-0.327190	0.794265
O12	O	0.733774	-0.592332	0.701269
O13	O	0.936672	-1.032468	0.794384
O14	O	0.927414	-0.786120	0.701297
O15	O	0.750047	-1.025335	0.864887
O16	O	1.199891	-0.575847	0.864792
O17	O	1.192602	-0.776741	0.794330
C18	C	0.828483	-0.691330	0.680459
C19	C	0.822049	-0.697810	0.616667
C20	C	1.253489	-0.676293	0.829566
C21	C	1.432134	-0.676265	0.829581
C22	C	1.011607	-0.507917	0.496752
C23	C	1.005567	-0.514001	0.436814
C24	C	0.803940	-0.716069	0.436852
C25	C	0.809979	-0.709985	0.496790
C26	C	0.913815	-0.605904	0.526738
C27	C	0.919845	-0.599813	0.586677
C28	C	0.718227	-0.801888	0.586714
C29	C	0.712188	-0.807972	0.526776
C30	C	0.858792	-0.661161	0.979270
C31	C	0.865382	-0.654594	1.044260
Zn32	Zn	0.753569	-0.502652	1.241315
Zn33	Zn	1.016716	-0.766836	1.241385
Zn34	Zn	1.007704	-0.512753	1.145394
Zn35	Zn	0.743341	-0.776066	1.145399
O36	O	0.880332	-0.639577	1.193373
O37	O	0.796528	-0.529607	1.321637
O38	O	1.236285	-0.733495	1.228679
O39	O	0.974502	-0.290654	1.158087
O40	O	0.989860	-0.723701	1.321689
O41	O	0.787790	-0.283233	1.228559
O42	O	1.229664	-0.546822	1.158155
O43	O	0.964584	-0.555772	1.065082
O44	O	0.523933	-0.739433	1.158095
O45	O	0.770357	-0.749227	1.065085
O46	O	0.531448	-0.538557	1.228564
O47	O	0.979942	-0.988819	1.228684
O48	O	0.779095	-0.995601	1.158164
C49	C	0.843777	-0.266393	0.829532
C50	C	0.843462	-0.087741	0.829613
C51	C	0.879393	-1.049450	1.193439
C52	C	0.879022	-1.228089	1.193486
C53	C	0.468845	-0.638787	1.193286
C54	C	0.290189	-0.638192	1.193150
C55	C	0.895340	-0.624498	1.343070
C56	C	0.901736	-0.618072	1.406862
H57	H	1.004390	-0.515061	0.611059
H58	H	0.719416	-0.800820	0.412458
H59	H	1.096144	-0.423160	0.521136
Br60	Br	1.138297	-0.381020	0.396119
H61	H	0.638590	-0.881670	0.611135
Br62	Br	0.571288	-0.949230	0.486128
