data_functionalizedCrystal
_audit_creation_method	'MofGen! by Chris Wilmer'
_symmetry_space_group_name_H-M	'P1'
_symmetry_Int_Tables_number	1
_symmetry_cell_setting	triclinic
loop_
_symmetry_equiv_pos_as_xyz
  x,y,z
_cell_length_a	14.044220
_cell_length_b	10.654550
_cell_length_c	9.730223
_cell_angle_alpha	89.995747
_cell_angle_beta	90.001660
_cell_angle_gamma	88.836904
loop_
_atom_site_label
_atom_site_type_symbol
_atom_site_fract_x
_atom_site_fract_y
_atom_site_fract_z
O1	O	1.259697	0.302986	-0.114143
O2	O	0.983656	0.292052	-0.114178
O3	O	1.128023	0.115418	-0.114151
O4	O	1.115330	0.479621	-0.114170
O5	O	1.128014	0.115411	0.114429
O6	O	0.983646	0.292046	0.114402
O7	O	1.259688	0.302980	0.114437
Zn8	Zn	1.121665	0.297512	0.150711
Zn9	Zn	1.121678	0.297520	-0.150453
O10	O	1.115320	0.479614	0.114410
C11	C	1.127086	0.068523	0.000138
C12	C	1.124298	-0.071201	0.000136
C13	C	0.948305	0.287263	0.000108
C14	C	0.842986	0.272988	0.000095
C15	C	1.209299	-0.142144	0.000146
C16	C	1.206673	-0.273429	0.000129
C17	C	1.034038	-0.262814	0.000097
C18	C	1.036665	-0.131532	0.000104
C19	C	0.650153	0.246889	0.000123
C20	C	0.593185	0.348137	0.000124
C21	C	0.485886	0.333615	0.000140
C22	C	0.757462	0.261409	0.000107
C23	C	1.295038	0.307769	0.000148
C24	C	1.400358	0.322044	0.000152
C25	C	1.116257	0.526509	0.000118
C26	C	1.119045	0.666233	0.000111
N27	N	1.121664	0.297506	0.356248
N28	N	1.121687	0.297517	-0.355989
C29	C	1.185612	0.219331	0.428186
C30	C	1.185621	0.219332	0.572069
C31	C	1.057732	0.375696	0.572063
C32	C	1.057719	0.375687	0.428183
H33	H	1.280656	-0.093027	0.000168
O34	O	0.612052	0.130566	0.000066
C35	C	0.511848	0.141783	0.000110
H36	H	0.489379	0.237307	-0.043157
H37	H	0.484262	0.132657	0.109774
C38	C	0.497606	-0.079999	-0.036391
C39	C	0.470008	0.037321	-0.089543
H40	H	0.471796	-0.144439	-0.091688
H41	H	0.565116	-0.087558	-0.036416
H42	H	0.474615	-0.087586	0.054995
H43	H	0.493009	0.044913	-0.180920
H44	H	0.402501	0.044879	-0.089536
H45	H	1.005640	0.439347	0.369607
H46	H	0.962690	-0.311952	0.000074
O47	O	0.954000	-0.062797	0.000156
C48	C	0.876089	-0.144195	0.000104
H49	H	0.899514	-0.239340	0.043382
H50	H	0.849278	-0.156514	-0.109563
C51	C	0.766790	0.028912	0.036575
C52	C	0.795558	-0.087942	0.089740
H53	H	0.717112	0.063613	0.091860
H54	H	0.819279	0.083753	0.036604
H55	H	0.744453	0.018631	-0.054814
H56	H	0.817905	-0.077657	0.181120
H57	H	0.743071	-0.142780	0.089727
O58	O	0.630972	0.464654	0.000158
C59	C	0.556871	0.555940	0.000118
H60	H	0.489377	0.513332	0.043415
H61	H	0.543129	0.589342	-0.109548
C62	C	0.668562	0.720425	0.036550
C63	C	0.585667	0.668096	0.089739
H64	H	0.686325	0.789611	0.091827
H65	H	0.718487	0.658925	0.036572
H66	H	0.657100	0.748249	-0.054838
H67	H	0.597134	0.640258	0.181118
H68	H	0.535745	0.729594	0.089734
H69	H	1.237679	0.155670	0.369619
H70	H	1.275890	-0.331186	0.000134
H71	H	1.005671	0.439350	0.630647
H72	H	1.237692	0.155673	0.630636
