data_functionalizedCrystal
_audit_creation_method	'MofGen! by Chris Wilmer'
_symmetry_space_group_name_H-M	'P1'
_symmetry_Int_Tables_number	1
_symmetry_cell_setting	triclinic
loop_
_symmetry_equiv_pos_as_xyz
  x,y,z
_cell_length_a	23.532407
_cell_length_b	23.532407
_cell_length_c	12.996460
_cell_angle_alpha	89.998354
_cell_angle_beta	90.010797
_cell_angle_gamma	82.848712
loop_
_atom_site_label
_atom_site_type_symbol
_atom_site_fract_x
_atom_site_fract_y
_atom_site_fract_z
O1	O	0.069137	0.755256	0.085512
O2	O	0.079140	0.589393	0.085530
O3	O	-0.008793	0.677326	0.085502
O4	O	0.157070	0.667323	0.085541
O5	O	-0.008799	0.677325	-0.085632
O6	O	0.079134	0.589392	-0.085604
O7	O	0.069131	0.755255	-0.085622
Cu8	Cu	0.074132	0.672323	-0.101239
Cu9	Cu	0.074139	0.672325	0.101147
O10	O	0.157064	0.667322	-0.085593
C11	C	0.078882	0.568176	-0.000035
C12	C	0.078116	0.504959	-0.000029
C13	C	-0.030012	0.677071	-0.000068
C14	C	-0.093229	0.676305	-0.000076
C15	C	0.022921	0.238792	-0.000070
C16	C	0.023632	0.298192	-0.000069
O17	O	-0.020153	0.334937	-0.000115
N18	N	0.075909	0.320818	-0.000050
C19	C	0.127477	0.284041	-0.000042
O20	O	0.172007	0.308740	-0.000026
C21	C	0.126765	0.224642	-0.000050
C22	C	0.074485	0.202019	-0.000058
C23	C	-0.029354	0.216169	-0.000080
C24	C	-0.030066	0.156772	-0.000078
C25	C	0.021499	0.119999	-0.000067
C26	C	0.073774	0.142623	-0.000057
C27	C	0.178333	0.187865	-0.000049
C28	C	0.177616	0.128463	-0.000057
C29	C	0.125336	0.105840	-0.000066
C30	C	0.124627	0.046454	-0.000044
N31	N	0.072351	0.023828	-0.000063
C32	C	0.020787	0.060600	-0.000075
C33	C	0.128968	0.408783	-0.000027
C34	C	0.129681	0.468181	-0.000012
C35	C	0.025836	0.482328	-0.000042
C36	C	0.025124	0.422929	-0.000049
C37	C	0.076692	0.386157	-0.000047
C38	C	0.019297	-0.064136	-0.000071
C39	C	0.018590	-0.123538	-0.000065
C40	C	0.122435	-0.137680	-0.000041
C41	C	0.123142	-0.078284	-0.000041
C42	C	0.071568	-0.041512	-0.000060
O43	O	0.168390	0.009675	-0.000002
O44	O	-0.023737	0.035892	-0.000104
C45	C	-0.492332	0.723538	-0.000024
C46	C	-0.551733	0.722827	-0.000016
O47	O	-0.588477	0.766613	0.000017
N48	N	-0.574359	0.670551	-0.000012
C49	C	-0.537581	0.618982	-0.000004
O50	O	-0.562281	0.574452	0.000002
C51	C	-0.478182	0.619695	-0.000005
C52	C	-0.455559	0.671974	-0.000020
C53	C	-0.469709	0.775814	-0.000038
C54	C	-0.410313	0.776525	-0.000048
C55	C	-0.373540	0.724961	-0.000044
C56	C	-0.396163	0.672685	-0.000030
C57	C	-0.441406	0.568127	0.000010
C58	C	-0.382003	0.568843	0.000010
C59	C	-0.359381	0.621123	-0.000005
C60	C	-0.299994	0.621832	-0.000035
N61	N	-0.277368	0.674109	-0.000040
C62	C	-0.314141	0.725673	-0.000044
C63	C	-0.662324	0.617491	-0.000001
C64	C	-0.721722	0.616778	-0.000008
C65	C	-0.735869	0.720623	-0.000018
C66	C	-0.676470	0.721335	-0.000019
C67	C	-0.639698	0.669767	-0.000006
C68	C	-0.189404	0.727163	-0.000066
C69	C	-0.130002	0.727869	-0.000080
C70	C	-0.115860	0.624025	-0.000064
C71	C	-0.175257	0.623318	-0.000056
C72	C	-0.212028	0.674891	-0.000053
O73	O	-0.263215	0.578069	-0.000064
O74	O	-0.289433	0.770196	-0.000037
C75	C	0.178283	0.667577	-0.000021
C76	C	0.241500	0.668343	-0.000007
C77	C	0.069389	0.776472	-0.000054
C78	C	0.070155	0.839689	-0.000054
N79	N	0.074139	0.672326	0.243494
N80	N	0.074127	0.672326	-0.243586
C81	C	0.074134	0.672324	0.663308
C82	C	0.074137	0.672322	0.546503
C83	C	0.074136	0.672325	0.453405
C84	C	0.074140	0.672324	0.336592
H85	H	-0.023984	-0.141954	-0.000069
C86	C	-0.775775	0.776627	-0.000224
C87	C	-0.765624	0.808123	-0.088283
C88	C	-0.802381	0.859709	-0.088514
H89	H	-0.768976	0.798145	0.059383
H90	H	-0.814398	0.768734	-0.000273
H91	H	-0.727010	0.816018	-0.088225
H92	H	-0.772427	0.786623	-0.147904
H93	H	-0.841004	0.851816	-0.088563
H94	H	-0.795579	0.881222	-0.028903
H95	H	-0.795502	0.881084	-0.148265
H96	H	-0.740135	0.574207	-0.000013
C97	C	-0.466033	0.511405	0.000200
C98	C	-0.499717	0.507970	0.088240
C99	C	-0.522417	0.455726	0.088447
H100	H	-0.435676	0.480755	0.000263
H101	H	-0.488951	0.508950	-0.059442
H102	H	-0.476801	0.510419	0.147866
H103	H	-0.530084	0.538608	0.088195
H104	H	-0.545334	0.453271	0.028805
H105	H	-0.492056	0.425080	0.088507
H106	H	-0.545278	0.453391	0.148175
H107	H	0.172252	0.486595	0.000009
C108	C	0.233589	0.088512	-0.000261
C109	C	0.236220	0.054009	-0.088317
C110	C	0.287776	0.017206	-0.088543
H111	H	0.235530	0.064991	0.059348
H112	H	0.264839	0.110477	-0.000310
H113	H	0.204978	0.032046	-0.088259
H114	H	0.234289	0.077514	-0.147940
H115	H	0.319026	0.039171	-0.088592
H116	H	0.289712	-0.006311	-0.028930
H117	H	0.289570	-0.006205	-0.148292
H118	H	-0.352065	0.526850	0.000022
C119	C	-0.229349	0.783138	0.000142
C120	C	-0.263842	0.785781	0.088203
C121	C	-0.300640	0.837340	0.088429
H122	H	-0.252877	0.785076	-0.059464
H123	H	-0.207381	0.814386	0.000187
H124	H	-0.285808	0.754542	0.088149
H125	H	-0.240330	0.783854	0.147823
H126	H	-0.278673	0.868588	0.088473
H127	H	-0.324164	0.839273	0.028819
H128	H	-0.324045	0.839142	0.148181
C129	C	0.184918	0.368794	0.000156
C130	C	0.187540	0.334267	0.088187
C131	C	0.239068	0.297422	0.088384
H132	H	0.216197	0.390710	0.000224
H133	H	0.186808	0.345296	-0.059491
H134	H	0.185655	0.357763	0.147819
H135	H	0.156273	0.312340	0.088138
H136	H	0.240958	0.273924	0.028736
H137	H	0.270343	0.319342	0.088449
H138	H	0.240852	0.273987	0.148106
H139	H	-0.499644	0.817806	-0.000038
H140	H	-0.072637	0.138359	-0.000090
C141	C	-0.385867	0.833346	-0.000002
C142	C	-0.430794	0.878345	0.000024
C143	C	-0.408301	0.930699	0.000084
H144	H	-0.363006	0.835869	-0.059665
H145	H	-0.363000	0.835816	0.059699
H146	H	-0.453651	0.875876	-0.059671
H147	H	-0.453659	0.875841	0.059682
H148	H	-0.385434	0.933169	0.059785
H149	H	-0.385440	0.933216	-0.059580
H150	H	-0.438780	0.961237	0.000111
H151	H	-0.632386	0.575496	0.000000
C152	C	-0.105552	0.784692	-0.000039
C153	C	-0.150475	0.829695	-0.000009
C154	C	-0.127976	0.882046	0.000045
H155	H	-0.082693	0.787212	-0.059704
H156	H	-0.082683	0.787160	0.059660
H157	H	-0.173334	0.827228	-0.059702
H158	H	-0.173338	0.827194	0.059651
H159	H	-0.105106	0.884514	0.059744
H160	H	-0.105116	0.884560	-0.059621
H161	H	-0.158452	0.912587	0.000074
H162	H	-0.658055	0.763906	-0.000030
C163	C	-0.199903	0.566601	0.000112
C164	C	-0.233585	0.563167	0.088155
C165	C	-0.256301	0.510931	0.088348
H166	H	-0.169553	0.535943	0.000162
H167	H	-0.222825	0.564159	-0.059527
H168	H	-0.210665	0.565603	0.147779
H169	H	-0.263944	0.593812	0.088123
H170	H	-0.279222	0.508489	0.028708
H171	H	-0.225947	0.480277	0.088395
H172	H	-0.279161	0.508596	0.148078
H173	H	0.220904	0.206274	-0.000037
C174	C	-0.075994	0.568000	0.000109
C175	C	-0.086171	0.536502	0.088152
C176	C	-0.049461	0.484886	0.088349
H177	H	-0.037360	0.575836	0.000160
H178	H	-0.082831	0.546511	-0.059530
H179	H	-0.079330	0.557986	0.147776
H180	H	-0.124798	0.528651	0.088120
H181	H	-0.056298	0.463398	0.028710
H182	H	-0.010829	0.492728	0.088398
H183	H	-0.056364	0.463506	0.148081
H184	H	0.165712	-0.059864	-0.000033
H185	H	-0.022699	-0.034204	-0.000085
H186	H	-0.017447	0.404515	-0.000057
C187	C	-0.085363	0.256060	0.000126
C188	C	-0.116843	0.245873	0.088179
C189	C	-0.168440	0.282611	0.088420
H190	H	-0.106884	0.249266	-0.059485
H191	H	-0.077486	0.294688	0.000191
H192	H	-0.124721	0.207254	0.088105
H193	H	-0.095338	0.252670	0.147805
H194	H	-0.160564	0.321239	0.088485
H195	H	-0.189957	0.275815	0.028805
H196	H	-0.189803	0.275708	0.148167
H197	H	-0.016150	0.512280	-0.000051
H198	H	0.164417	-0.167631	-0.000026
