data_functionalizedCrystal
_audit_creation_method	'MofGen! by Chris Wilmer'
_symmetry_space_group_name_H-M	'P1'
_symmetry_Int_Tables_number	1
_symmetry_cell_setting	triclinic
loop_
_symmetry_equiv_pos_as_xyz
  x,y,z
_cell_length_a	12.759401
_cell_length_b	8.497374
_cell_length_c	8.497374
_cell_angle_alpha	90.005237
_cell_angle_beta	90.000187
_cell_angle_gamma	89.994284
loop_
_atom_site_label
_atom_site_type_symbol
_atom_site_fract_x
_atom_site_fract_y
_atom_site_fract_z
Zn1	Zn	-1.606167	0.892274	0.628368
Zn2	Zn	-1.606158	0.628540	0.892113
Zn3	Zn	-1.430524	0.628483	0.628337
Zn4	Zn	-1.430499	0.892253	0.892095
O5	O	-1.518337	0.760388	0.760228
O6	O	-1.753187	0.857322	0.663374
O7	O	-1.582867	0.407770	0.857117
O8	O	-1.453838	0.663461	0.407579
O9	O	-1.753181	0.663558	0.857147
O10	O	-1.582881	0.857267	0.407601
O11	O	-1.453830	0.407728	0.663322
O12	O	-1.283500	0.663440	0.663305
O13	O	-1.453795	1.113018	0.857117
O14	O	-1.283481	0.857231	0.857087
O15	O	-1.582857	1.113034	0.663357
O16	O	-1.582843	0.663537	1.112873
O17	O	-1.453787	0.857286	1.112860
C18	C	-1.245370	0.760328	0.760192
C19	C	-1.128593	0.760340	0.760214
C20	C	-0.963994	0.659354	0.860981
C21	C	-1.073718	0.659317	0.860955
C22	C	-1.073739	0.861395	0.659482
C23	C	-0.964017	0.861423	0.659501
C24	C	-0.963983	0.542690	0.977305
C25	C	-1.073707	0.542653	0.977279
C26	C	-0.792370	0.760431	0.760261
C27	C	-0.909147	0.760405	0.760260
C28	C	-1.518329	1.171868	0.760231
C29	C	-1.518332	1.350512	0.760247
C30	C	-1.518324	0.760410	1.170108
C31	C	-1.518352	0.760385	1.348752
H32	H	-1.103502	0.575196	1.099506
H33	H	-0.929967	0.586294	1.093440
C34	C	-0.923719	0.377709	0.932836
N35	N	-0.893393	0.253449	0.899337
C36	C	-0.903689	0.972574	0.548688
N37	N	-0.858250	1.056298	0.465219
H38	H	-1.118427	0.943639	0.577446
H39	H	-1.107712	0.426639	0.933331
