data_functionalizedCrystal
_audit_creation_method	'MofGen! by Chris Wilmer'
_symmetry_space_group_name_H-M	'P1'
_symmetry_Int_Tables_number	1
_symmetry_cell_setting	triclinic
loop_
_symmetry_equiv_pos_as_xyz
  x,y,z
_cell_length_a	21.295419
_cell_length_b	21.295417
_cell_length_c	21.295411
_cell_angle_alpha	90.020597
_cell_angle_beta	90.024539
_cell_angle_gamma	90.044503
loop_
_atom_site_label
_atom_site_type_symbol
_atom_site_fract_x
_atom_site_fract_y
_atom_site_fract_z
Zn1	Zn	0.962359	-0.250432	0.355916
Zn2	Zn	1.462359	0.249568	0.855916
Zn3	Zn	0.962263	-0.355684	0.250643
Zn4	Zn	1.462263	0.144316	0.750643
Zn5	Zn	0.857082	-0.250460	0.250661
Zn6	Zn	1.357082	0.249540	0.750661
Zn7	Zn	0.857053	-0.355695	0.355875
Zn8	Zn	1.357053	0.144305	0.855875
O9	O	0.909689	-0.303068	0.303274
O10	O	1.409689	0.196932	0.803274
O11	O	1.050436	-0.264378	0.341961
O12	O	1.550436	0.235622	0.841961
O13	O	0.948282	-0.341733	0.162556
O14	O	1.448282	0.158267	0.662556
O15	O	0.871100	-0.162367	0.264648
O16	O	1.371100	0.337633	0.764648
O17	O	1.050365	-0.341706	0.264617
O18	O	1.550365	0.158294	0.764617
O19	O	0.948446	-0.162347	0.341978
O20	O	1.448446	0.337653	0.841978
O21	O	0.871007	-0.264425	0.162569
O22	O	1.371007	0.235575	0.662569
O23	O	0.768989	-0.264436	0.264608
O24	O	1.268989	0.235564	0.764608
O25	O	0.871050	-0.341724	0.443970
O26	O	1.371050	0.158276	0.943970
O27	O	0.768968	-0.341751	0.341908
O28	O	1.268968	0.158249	0.841908
O29	O	0.948418	-0.264388	0.444000
O30	O	1.448418	0.235612	0.944000
O31	O	0.948254	-0.443775	0.264578
O32	O	1.448254	0.056225	0.764578
O33	O	0.870957	-0.443783	0.341891
O34	O	1.370957	0.056217	0.841891
C35	C	0.746138	-0.303098	0.303256
C36	C	1.246138	0.196902	0.803256
C37	C	0.676170	-0.303126	0.303263
C38	C	1.176170	0.196874	0.803263
C39	C	0.643362	-0.262927	0.343598
C40	C	1.143362	0.237073	0.843598
C41	C	0.577620	-0.262910	0.343601
C42	C	1.077620	0.237090	0.843601
C43	C	0.544687	-0.303104	0.303275
C44	C	1.044687	0.196896	0.803275
C45	C	0.577502	-0.343305	0.262932
C46	C	1.077502	0.156695	0.762932
C47	C	0.643244	-0.343317	0.262926
C48	C	1.143244	0.156683	0.762926
N49	N	0.441412	-0.358181	0.298356
N50	N	0.941412	0.141819	0.798356
N51	N	0.378961	-0.358168	0.298365
N52	N	0.878961	0.141832	0.798365
C53	C	0.346612	-0.303071	0.303289
C54	C	0.846612	0.196929	0.803289
N55	N	0.379074	-0.247985	0.308215
N56	N	0.879074	0.252015	0.808215
N57	N	0.441532	-0.247999	0.308209
N58	N	0.941532	0.252001	0.808209
C59	C	0.473402	-0.303095	0.303276
C60	C	0.973402	0.196905	0.803276
C61	C	0.242519	-0.262850	0.343628
C62	C	0.742519	0.237150	0.843628
C63	C	0.176776	-0.262832	0.343626
C64	C	0.676776	0.237168	0.843626
C65	C	0.176660	-0.343233	0.262961
C66	C	0.676660	0.156767	0.762961
C67	C	0.242402	-0.343245	0.262960
C68	C	0.742402	0.156755	0.762960
C69	C	0.275328	-0.303055	0.303297
C70	C	0.775328	0.196945	0.803297
C71	C	0.909609	-0.466619	0.303242
C72	C	1.409609	0.033381	0.803242
C73	C	0.909632	-0.536588	0.303249
C74	C	1.409632	-0.036588	0.803249
C75	C	0.949884	-0.569386	0.343544
C76	C	1.449884	-0.069386	0.843544
C77	C	0.949906	-0.635129	0.343559
C78	C	1.449906	-0.135129	0.843559
C79	C	0.909683	-0.668070	0.303269
C80	C	1.409683	-0.168070	0.803269
C81	C	0.869424	-0.635263	0.262971
C82	C	1.369424	-0.135263	0.762971
C83	C	0.869399	-0.569522	0.262962
C84	C	1.369399	-0.069522	0.762962
N85	N	0.904924	-0.771324	0.248178
N86	N	1.404924	-0.271324	0.748178
N87	N	0.904952	-0.833775	0.248189
N88	N	1.404952	-0.333775	0.748189
C89	C	0.909757	-0.866145	0.303297
C90	C	1.409757	-0.366145	0.803297
N91	N	0.914545	-0.833704	0.358395
N92	N	1.414545	-0.333704	0.858395
N93	N	0.914521	-0.771247	0.358383
N94	N	1.414521	-0.271247	0.858383
C95	C	0.909706	-0.739355	0.303276
C96	C	1.409706	-0.239355	0.803276
C97	C	0.950034	-0.970229	0.343612
C98	C	1.450034	-0.470229	0.843612
C99	C	0.950052	-1.035973	0.343629
C100	C	1.450052	-0.535973	0.843629
C101	C	0.869574	-1.036106	0.263035
C102	C	1.369574	-0.536106	0.763035
C103	C	0.869553	-0.970363	0.263024
C104	C	1.369553	-0.470363	0.763024
C105	C	0.909786	-0.937429	0.303312
C106	C	1.409786	-0.437429	0.803312
C107	C	1.073880	-0.303038	0.303292
C108	C	1.573880	0.196962	0.803292
C109	C	1.143848	-0.303025	0.303299
C110	C	1.643848	0.196975	0.803299
C111	C	0.909742	-0.303055	0.467464
C112	C	1.409742	0.196945	0.967464
C113	C	0.909764	-0.303049	0.537432
C114	C	1.409764	0.196951	1.037432
C115	C	0.909787	-0.138878	0.303319
C116	C	1.409787	0.361122	0.803319
C117	C	0.909829	-0.068909	0.303339
C118	C	1.409829	0.431091	0.803339
C119	C	0.909674	-0.303036	0.139722
C120	C	1.409674	0.196964	0.639722
C121	C	0.909773	-0.302864	0.069754
C122	C	1.409773	0.197136	0.569754
C123	C	0.950048	-0.262778	0.570315
C124	C	1.450048	0.237222	1.070315
C125	C	0.950047	-0.262751	0.636058
C126	C	1.450047	0.237249	1.136058
C127	C	0.909769	-0.303006	0.668915
C128	C	1.409769	0.196994	1.168915
C129	C	0.869477	-0.343279	0.636023
C130	C	1.369477	0.156721	1.136023
C131	C	0.869475	-0.343301	0.570282
C132	C	1.369475	0.156699	1.070282
N133	N	0.904913	-0.358075	0.772131
N134	N	1.404913	0.141925	1.272131
N135	N	0.904919	-0.358052	0.834582
N136	N	1.404919	0.141948	1.334582
C137	C	0.909773	-0.302942	0.866989
C138	C	1.409773	0.197058	1.366989
N139	N	0.914633	-0.247853	0.834586
N140	N	1.414633	0.252147	1.334586
N141	N	0.914630	-0.247876	0.772128
N142	N	1.414630	0.252124	1.272128
C143	C	0.909767	-0.302986	0.740200
C144	C	1.409767	0.197014	1.240200
C145	C	0.950058	-0.262638	0.971158
C146	C	1.450058	0.237362	1.471158
C147	C	0.950052	-0.262610	1.036902
C148	C	1.450052	0.237390	1.536902
C149	C	0.869486	-0.343143	1.036866
C150	C	1.369486	0.156857	1.536866
C151	C	0.869488	-0.343166	0.971124
C152	C	1.369488	0.156834	1.471124
C153	C	0.909777	-0.302914	0.938274
C154	C	1.409777	0.197086	1.438274
H155	H	0.149847	-0.375959	0.230127
H156	H	0.649847	0.124041	0.730127
Br157	Br	0.814830	-0.679967	0.208297
Br158	Br	1.314830	-0.179967	0.708297
H159	H	0.836685	-0.375913	1.063618
H160	H	1.336685	0.124087	1.563618
H161	H	0.982678	-0.661839	0.376379
H162	H	1.482678	-0.161839	0.876379
H163	H	0.836621	-0.542817	0.230148
H164	H	1.336621	-0.042817	0.730148
H165	H	0.982855	-0.229813	1.063675
H166	H	1.482855	0.270187	1.563675
Br167	Br	1.004674	-1.080487	0.398330
Br168	Br	1.504674	-0.580487	0.898330
Br169	Br	0.814815	-0.397823	0.926493
Br170	Br	1.314815	0.102177	1.426493
Br171	Br	1.004723	-0.208149	0.525736
Br172	Br	1.504723	0.291851	1.025736
Br173	Br	1.004706	-0.208078	0.680695
Br174	Br	1.504706	0.291922	1.180695
Br175	Br	0.814922	-0.925847	0.208337
Br176	Br	1.314922	-0.425847	0.708337
H177	H	0.836681	-0.376052	0.662779
H178	H	1.336681	0.123948	1.162779
Br179	Br	0.532810	-0.397849	0.208199
Br180	Br	1.032810	0.102151	0.708199
H181	H	0.670166	-0.230200	0.376443
H182	H	1.170166	0.269800	0.876443
Br183	Br	1.004634	-0.925529	0.398288
Br184	Br	1.504634	-0.425529	0.898288
Br185	Br	0.687771	-0.397873	0.208178
Br186	Br	1.187771	0.102127	0.708178
H187	H	0.836668	-0.376093	0.543509
H188	H	1.336668	0.123907	1.043509
Br189	Br	0.533085	-0.208349	0.398343
Br190	Br	1.033085	0.291651	0.898343
Br191	Br	1.004732	-0.208010	0.926572
Br192	Br	1.504732	0.291990	1.426572
H193	H	0.269329	-0.230121	0.376469
H194	H	0.769329	0.269879	0.876469
Br195	Br	0.814982	-1.080804	0.208358
Br196	Br	1.314982	-0.580804	0.708358
H197	H	0.150065	-0.230094	0.376471
H198	H	0.650065	0.269906	0.876471
H199	H	0.982642	-0.542573	0.376350
H200	H	1.482642	-0.042573	0.876350
H201	H	0.269114	-0.375982	0.230117
H202	H	0.769114	0.124018	0.730117
