data_functionalizedCrystal
_audit_creation_method	'MofGen! by Chris Wilmer'
_symmetry_space_group_name_H-M	'P1'
_symmetry_Int_Tables_number	1
_symmetry_cell_setting	triclinic
loop_
_symmetry_equiv_pos_as_xyz
  x,y,z
_cell_length_a	17.019372
_cell_length_b	17.038272
_cell_length_c	9.130313
_cell_angle_alpha	89.998262
_cell_angle_beta	93.876188
_cell_angle_gamma	87.242864
loop_
_atom_site_label
_atom_site_type_symbol
_atom_site_fract_x
_atom_site_fract_y
_atom_site_fract_z
O1	O	1.053349	0.099574	0.010941
O2	O	0.824538	0.112280	-0.017897
O3	O	0.937584	-0.007888	-0.003638
O4	O	0.940303	0.219741	-0.003318
O5	O	0.937582	-0.007884	0.239961
O6	O	0.824537	0.112283	0.225702
O7	O	1.053348	0.099577	0.254540
Cu8	Cu	0.938942	0.105930	0.262363
Cu9	Cu	0.938944	0.105926	-0.025720
O10	O	0.940302	0.219744	0.240281
C11	C	0.795116	0.111800	0.100195
C12	C	0.707450	0.110358	0.089146
C13	C	0.935109	-0.037012	0.117850
C14	C	0.927729	-0.123798	0.116919
C15	C	0.211629	0.102174	0.019899
C16	C	0.294001	0.103529	0.030300
C17	C	0.335177	0.104215	0.168287
C18	C	0.293979	0.103536	0.295882
C19	C	0.211609	0.102176	0.285480
C20	C	0.583881	0.108319	0.206339
C21	C	0.666257	0.109682	0.216731
C22	C	0.666273	0.109674	-0.048852
C23	C	0.583901	0.108317	-0.059242
C24	C	0.542710	0.107635	0.068352
C25	C	0.419375	0.105602	0.178922
C26	C	0.458515	0.106242	0.057716
C27	C	0.995489	-0.173972	0.125461
C28	C	0.988549	-0.255517	0.124572
C29	C	0.913850	-0.286886	0.115153
C30	C	0.846085	-0.236705	0.106606
C31	C	0.853025	-0.155163	0.107484
C32	C	0.889332	-0.532622	0.112043
C33	C	0.882397	-0.614171	0.111169
C34	C	1.024862	-0.632977	0.129133
C35	C	1.031795	-0.551432	0.130019
C36	C	0.964031	-0.501259	0.121465
C37	C	0.906755	-0.370237	0.114249
C38	C	0.971126	-0.417909	0.122358
C39	C	1.082769	0.100056	0.136445
C40	C	1.170436	0.101498	0.147484
C41	C	0.942776	0.248868	0.118790
C42	C	0.950157	0.335655	0.119711
N43	N	0.938947	0.105932	0.464987
N44	N	0.938945	0.105918	-0.228343
C45	C	0.989018	0.052740	0.547954
C46	C	0.989015	0.052731	0.701291
C47	C	0.888868	0.159113	0.688678
C48	C	0.888867	0.159118	0.535344
C49	C	1.046840	-0.008676	0.555238
C50	C	1.046837	-0.008686	0.708574
H51	H	0.178108	0.101622	-0.092466
H52	H	1.105189	0.009806	0.515031
Cl53	Cl	1.012146	-0.096069	0.777633
Cl54	Cl	0.718062	0.110524	-0.209246
H55	H	0.848088	0.202424	0.467791
H56	H	1.031946	-0.392365	0.129995
Cl57	Cl	0.345744	0.104396	0.469353
H58	H	0.834153	-0.491780	0.105077
Cl59	Cl	0.812850	-0.409679	0.102400
Cl60	Cl	0.532142	0.107457	-0.232719
Cl61	Cl	0.825914	0.225970	0.777137
Cl62	Cl	1.141576	0.011075	0.784776
H63	H	0.699781	0.110245	0.329103
Cl64	Cl	1.020647	-0.101252	0.487676
Cl65	Cl	0.345783	0.104375	-0.130101
Cl66	Cl	1.110046	-0.696056	0.139882
Cl67	Cl	1.125707	-0.512003	0.141814
H68	H	0.550354	0.107752	0.310236
Cl69	Cl	0.788482	-0.653605	0.099336
H70	H	0.785263	-0.262252	0.098927
H71	H	0.797848	-0.114311	0.100529
H72	H	0.424985	0.105681	-0.054632
Cl73	Cl	0.159823	0.101319	0.445880
Cl74	Cl	0.471146	0.106473	0.352387
H75	H	1.056317	-0.148439	0.133140
H76	H	1.043727	-0.296366	0.131531
