data_functionalizedCrystal
_audit_creation_method	'MofGen! by Chris Wilmer'
_symmetry_space_group_name_H-M	'P1'
_symmetry_Int_Tables_number	1
_symmetry_cell_setting	triclinic
loop_
_symmetry_equiv_pos_as_xyz
  x,y,z
_cell_length_a	12.594517
_cell_length_b	12.759400
_cell_length_c	12.759393
_cell_angle_alpha	89.968436
_cell_angle_beta	90.021999
_cell_angle_gamma	89.985516
loop_
_atom_site_label
_atom_site_type_symbol
_atom_site_fract_x
_atom_site_fract_y
_atom_site_fract_z
Zn1	Zn	1.627284	0.418210	0.594080
Zn2	Zn	2.127284	0.918210	1.094080
Zn3	Zn	1.627177	0.593929	0.418400
Zn4	Zn	2.127177	1.093929	0.918400
Zn5	Zn	1.449286	0.418264	0.418408
Zn6	Zn	1.949286	0.918264	0.918408
Zn7	Zn	1.449274	0.593847	0.594030
Zn8	Zn	1.949274	1.093847	1.094030
O9	O	1.538255	0.506062	0.506229
O10	O	2.038255	1.006062	1.006229
O11	O	1.776216	0.441531	0.570792
O12	O	2.276216	0.941531	1.070792
O13	O	1.603540	0.570683	0.271380
O14	O	2.103540	1.070683	0.771380
O15	O	1.472947	0.271236	0.441736
O16	O	1.972947	0.771236	0.941736
O17	O	1.776137	0.570631	0.441721
O18	O	2.276137	1.070631	0.941721
O19	O	1.603722	0.271196	0.570800
O20	O	2.103722	0.771196	1.070800
O21	O	1.472844	0.441623	0.271386
O22	O	1.972844	0.941623	0.771386
O23	O	1.300339	0.441544	0.441688
O24	O	1.800339	0.941544	0.941688
O25	O	1.472928	0.570491	0.741058
O26	O	1.972928	1.070491	1.241058
O27	O	1.300330	0.570544	0.570717
O28	O	1.800330	1.070544	1.070717
O29	O	1.603711	0.441452	0.741094
O30	O	2.103711	0.941452	1.241094
O31	O	1.603528	0.740939	0.441673
O32	O	2.103528	1.240939	0.941673
O33	O	1.472824	0.740879	0.570708
O34	O	1.972824	1.240879	1.070708
C35	C	1.261714	0.506041	0.506199
C36	C	1.761714	1.006041	1.006199
C37	C	1.143409	0.506058	0.506210
C38	C	1.643409	1.006058	1.006210
C39	C	1.538330	0.505956	0.780263
C40	C	2.038330	1.005956	1.280263
C41	C	1.538362	0.505911	0.897040
C42	C	2.038362	1.005911	1.397040
C43	C	1.538192	0.779030	0.506208
C44	C	2.038192	1.279030	1.006208
C45	C	1.538263	0.895806	0.506233
C46	C	2.038263	1.395806	1.006233
C47	C	1.074130	0.435799	0.436165
C48	C	1.574130	0.935799	0.936165
C49	C	1.003321	0.531634	0.410323
C50	C	1.503321	1.031634	0.910323
C51	C	1.003419	0.410269	0.532070
C52	C	1.503419	0.910269	1.032070
C53	C	1.074158	0.601943	0.480318
C54	C	1.574158	1.101943	0.980318
C55	C	1.074263	0.480514	0.602110
C56	C	1.574263	0.980514	1.102110
C57	C	1.003486	0.576415	0.576304
C58	C	1.503486	1.076415	1.076304
C59	C	1.815876	0.506084	0.506261
C60	C	2.315876	1.006084	1.006261
C61	C	1.934182	0.506094	0.506275
C62	C	2.434182	1.006094	1.006275
C63	C	1.538348	0.232029	0.506274
C64	C	2.038348	0.732029	1.006274
C65	C	1.538387	0.115252	0.506294
C66	C	2.038387	0.615252	1.006294
C67	C	1.606396	0.950665	0.439119
C68	C	2.106396	1.450665	0.939119
C69	C	1.606461	1.060389	0.439151
C70	C	2.106461	1.560389	0.939151
C71	C	1.470251	1.060386	0.573415
C72	C	1.970251	1.560386	1.073415
C73	C	1.470192	0.950664	0.573387
C74	C	1.970192	1.450664	1.073387
C75	C	1.674467	0.895807	0.371965
C76	C	2.174467	1.395807	0.871965
C77	C	1.742605	0.950666	0.304844
C78	C	2.242605	1.450666	0.804844
C79	C	1.742670	1.060390	0.304877
C80	C	2.242670	1.560390	0.804877
C81	C	1.674597	1.115255	0.372030
C82	C	2.174597	1.615255	0.872030
C83	C	1.538242	0.506092	0.233262
C84	C	2.038242	1.006092	0.733262
C85	C	1.538417	0.505841	0.116486
C86	C	2.038417	1.005841	0.616486
C87	C	1.606470	0.438714	0.951922
C88	C	2.106470	0.938714	1.451922
C89	C	1.606495	0.438676	1.061646
C90	C	2.106495	0.938676	1.561646
C91	C	1.470301	0.573042	1.061596
C92	C	1.970301	1.073042	1.561596
C93	C	1.470271	0.573073	0.951874
C94	C	1.970271	1.073073	1.451874
C95	C	1.674560	0.371551	0.897088
C96	C	2.174560	0.871551	1.397088
C97	C	1.742675	0.304349	0.951971
C98	C	2.242675	0.804349	1.451971
C99	C	1.742700	0.304311	1.061695
C100	C	2.242700	0.804311	1.561695
C101	C	1.674611	0.371475	1.116537
C102	C	2.174611	0.871475	1.616537
H103	H	1.105148	0.376441	0.376858
H104	H	1.605148	0.876441	0.876858
H105	H	1.674549	0.371577	0.807745
H106	H	2.174549	0.871577	1.307745
Br107	Br	1.835055	0.213182	0.877547
Br108	Br	2.335055	0.713182	1.377547
Br109	Br	1.377833	0.664267	0.877383
Br110	Br	1.877833	1.164267	1.377383
Br111	Br	0.952107	0.675579	0.675082
Br112	Br	1.452107	1.175579	1.175082
Br113	Br	1.835140	0.213113	1.136177
Br114	Br	2.335140	0.713113	1.636177
H115	H	0.972161	0.553262	0.329250
H116	H	1.472161	1.053262	0.829250
Br117	Br	1.126237	0.444422	0.737202
Br118	Br	1.626237	0.944422	1.237202
H119	H	1.414866	0.627723	1.106256
H120	H	1.914866	1.127723	1.606256
Br121	Br	1.125724	0.737027	0.443751
Br122	Br	1.625724	1.237027	0.943751
Br123	Br	0.951616	0.275231	0.568478
Br124	Br	1.451616	0.775231	1.068478
Br125	Br	1.674628	0.371404	1.265449
Br126	Br	2.174628	0.871404	1.765449
H127	H	1.674418	0.806464	0.371928
H128	H	2.174418	1.306464	0.871928
H129	H	1.798034	0.905988	0.250176
H130	H	2.298034	1.405988	0.750176
H131	H	1.798159	1.105052	0.250231
H132	H	2.298159	1.605052	0.750231
H133	H	1.674665	1.204600	0.372059
H134	H	2.174665	1.704600	0.872059
H135	H	1.414829	1.105066	0.628087
H136	H	1.914829	1.605066	1.128087
Br137	Br	1.377729	0.876206	0.664478
Br138	Br	1.877729	1.376206	1.164478
