data_functionalizedCrystal
_audit_creation_method	'MofGen! by Chris Wilmer'
_symmetry_space_group_name_H-M	'P1'
_symmetry_Int_Tables_number	1
_symmetry_cell_setting	triclinic
loop_
_symmetry_equiv_pos_as_xyz
  x,y,z
_cell_length_a	6.817900
_cell_length_b	11.168129
_cell_length_c	16.015572
_cell_angle_alpha	76.766063
_cell_angle_beta	104.485554
_cell_angle_gamma	108.508637
loop_
_atom_site_label
_atom_site_type_symbol
_atom_site_fract_x
_atom_site_fract_y
_atom_site_fract_z
V1	V	-3.999072	-0.050929	-0.269395
O2	O	-3.960768	0.129811	-0.264259
O3	O	-3.976116	-0.223478	-0.267560
O4	O	-3.927036	0.005739	-0.386884
O5	O	-4.010188	-0.100993	-0.144109
V6	V	-4.482466	-0.035914	-0.254409
O7	O	-4.260614	-0.083867	-0.302268
O8	O	-4.671122	-0.002977	-0.221536
O9	O	-4.282216	0.136634	-0.256244
O10	O	-4.638167	-0.216654	-0.259545
O11	O	-4.588747	0.014149	-0.379695
O12	O	-4.331296	-0.092582	-0.136920
C13	C	-3.828071	-0.267288	-0.263312
C14	C	-3.890431	-0.407989	-0.262595
C15	C	-3.892349	-0.488130	-0.187081
C16	C	-3.956800	-0.633552	-0.186338
C17	C	-3.765464	0.025102	-0.415521
C18	C	-3.788018	0.070293	-0.511569
C19	C	-4.135799	-0.330821	-0.889219
C20	C	-4.156991	-0.288316	-0.979467
C21	C	-4.047576	-0.068411	-0.954750
C22	C	-4.026365	-0.110897	-0.864499
C23	C	-4.070483	-0.242103	-0.831741
C24	C	-3.961048	-0.022180	-0.807020
C25	C	-3.939850	-0.064663	-0.716777
C26	C	-3.983968	-0.195864	-0.684012
C27	C	-4.049284	-0.284587	-0.741497
C28	C	-3.916946	0.109026	-0.839780
C29	C	-3.851629	0.197743	-0.782302
C30	C	-3.830415	0.155261	-0.692056
C31	C	-3.874533	0.024060	-0.659291
C32	C	-3.765099	0.243983	-0.634570
C33	C	-3.743900	0.201500	-0.544327
C34	C	-3.853335	-0.018424	-0.569047
C35	C	-4.093604	0.180437	-0.260490
C36	C	-4.010482	0.321139	-0.261212
C37	C	-4.156212	-0.111952	-0.108279
C38	C	-4.112895	-0.157137	-0.012230
H39	H	-4.008728	-0.610016	-0.325867
O40	O	-3.945704	-0.454719	-0.339021
C41	C	-4.154339	-0.534316	-0.347404
H42	H	-4.197120	-0.571312	-0.279952
H43	H	-4.266465	-0.477345	-0.389626
C44	C	-4.120442	-0.602807	-0.473490
C45	C	-4.172981	-0.648255	-0.390643
H46	H	-4.131947	-0.673088	-0.500166
H47	H	-3.979883	-0.549178	-0.467845
H48	H	-4.213888	-0.555332	-0.508664
H49	H	-4.079520	-0.695716	-0.355468
H50	H	-4.313525	-0.701896	-0.396284
O51	O	-3.896003	-0.145832	-0.537070
C52	C	-3.863340	-0.164298	-0.445095
H53	H	-3.750165	-0.074105	-0.420627
H54	H	-4.020245	-0.185337	-0.423939
C55	C	-3.907591	-0.388659	-0.436310
C56	C	-3.768573	-0.277887	-0.406257
H57	H	-3.849144	-0.458729	-0.412351
H58	H	-3.929605	-0.376220	-0.498275
H59	H	-4.038335	-0.406175	-0.418678
H60	H	-3.637842	-0.260364	-0.423899
H61	H	-3.746535	-0.290325	-0.344293
H62	H	-4.011669	0.038418	-0.981435
H63	H	-3.815721	0.304572	-0.808986
O64	O	-4.178056	-0.458219	-0.857234
C65	C	-3.995808	-0.485026	-0.801583
H66	H	-3.850348	-0.406931	-0.818969
H67	H	-4.004061	-0.488414	-0.730825
C68	C	-4.160734	-0.711145	-0.791534
C69	C	-3.982075	-0.615233	-0.812893
H70	H	-4.152265	-0.791465	-0.798506
H71	H	-4.283521	-0.693086	-0.829024
H72	H	-4.167591	-0.713952	-0.732570
H73	H	-3.975235	-0.612416	-0.871858
H74	H	-3.859286	-0.633295	-0.775412
O75	O	-4.091541	-0.411985	-0.709512
C76	C	-3.909293	-0.438792	-0.653861
H77	H	-3.763833	-0.360697	-0.671247
H78	H	-3.917545	-0.442180	-0.583103
C79	C	-4.074219	-0.664912	-0.643812
C80	C	-3.895560	-0.568999	-0.665171
H81	H	-4.065750	-0.745231	-0.650784
H82	H	-4.197006	-0.646852	-0.681302
H83	H	-4.081076	-0.667719	-0.584848
H84	H	-3.888720	-0.566183	-0.724136
H85	H	-3.772771	-0.587061	-0.627690
O86	O	-4.220383	-0.374674	-1.035179
C87	C	-4.254835	-0.499586	-0.986912
H88	H	-4.160404	-0.496149	-0.917435
H89	H	-4.429727	-0.541673	-0.984976
C90	C	-4.299755	-0.588043	-1.115984
C91	C	-4.183760	-0.583823	-1.030654
H92	H	-4.255924	-0.640008	-1.142968
H93	H	-4.276553	-0.503889	-1.148505
H94	H	-4.445491	-0.623113	-1.114360
H95	H	-4.038031	-0.548740	-1.032280
H96	H	-4.206937	-0.667975	-0.998135
O97	O	-3.837182	-0.441711	-0.110541
C98	C	-3.661737	-0.480822	-0.058117
H99	H	-3.654277	-0.570245	-0.078676
H100	H	-3.511349	-0.400917	-0.066653
C101	C	-3.692483	-0.400858	0.063704
C102	C	-3.683330	-0.510695	0.038457
H103	H	-3.705794	-0.419279	0.123276
H104	H	-3.810678	-0.374503	0.028384
H105	H	-3.567155	-0.334281	0.056583
H106	H	-3.808666	-0.577264	0.045568
H107	H	-3.565155	-0.537061	0.073781
O108	O	-3.937879	0.150141	-0.927466
C109	C	-4.148058	0.099972	-0.968571
H110	H	-4.225489	0.009921	-0.925178
H111	H	-4.238437	0.174165	-0.979689
C112	C	-4.055858	0.177196	-1.110364
C113	C	-4.150955	0.066587	-1.057071
H114	H	-4.057649	0.156607	-1.164957
H115	H	-3.914258	0.211001	-1.082672
H116	H	-4.131187	0.239013	-1.119620
H117	H	-4.075611	0.004779	-1.047807
H118	H	-4.292543	0.032771	-1.084764
O119	O	-3.721941	0.371470	-0.666285
C120	C	-3.510386	0.432062	-0.632566
H121	H	-3.452821	0.371310	-0.569170
H122	H	-3.408718	0.443590	-0.682155
C123	C	-3.565091	0.639357	-0.692250
C124	C	-3.494396	0.564746	-0.614382
H125	H	-3.555223	0.721206	-0.681037
H126	H	-3.707619	0.598537	-0.714971
H127	H	-3.480360	0.648950	-0.733566
H128	H	-3.579143	0.555141	-0.573071
H129	H	-3.351882	0.605569	-0.591654
H130	H	-3.690714	0.273743	-0.497526
H131	H	-3.958535	-0.702404	-0.121686
H132	H	-3.966710	-0.230452	-0.610529
