data_functionalizedCrystal
_audit_creation_method	'MofGen! by Chris Wilmer'
_symmetry_space_group_name_H-M	'P1'
_symmetry_Int_Tables_number	1
_symmetry_cell_setting	triclinic
loop_
_symmetry_equiv_pos_as_xyz
  x,y,z
_cell_length_a	19.121321
_cell_length_b	19.120786
_cell_length_c	12.759393
_cell_angle_alpha	92.477119
_cell_angle_beta	87.580725
_cell_angle_gamma	90.133760
loop_
_atom_site_label
_atom_site_type_symbol
_atom_site_fract_x
_atom_site_fract_y
_atom_site_fract_z
Zn1	Zn	1.059836	-0.324739	0.505616
Zn2	Zn	1.559836	0.175261	1.005616
Zn3	Zn	1.054741	-0.441999	0.322761
Zn4	Zn	1.554741	0.058001	0.822761
Zn5	Zn	0.942598	-0.319781	0.337750
Zn6	Zn	1.442598	0.180219	0.837750
Zn7	Zn	0.937570	-0.436953	0.506198
Zn8	Zn	1.437570	0.063047	1.006198
O9	O	0.998686	-0.380868	0.418081
O10	O	1.498686	0.119132	0.918081
O11	O	1.157261	-0.344480	0.474844
O12	O	1.657261	0.155520	0.974844
O13	O	1.039837	-0.425823	0.177727
O14	O	1.539837	0.074177	0.677727
O15	O	0.962386	-0.222328	0.366047
O16	O	1.462386	0.277672	0.866047
O17	O	1.153518	-0.430631	0.340501
O18	O	1.653518	0.069369	0.840501
O19	O	1.048520	-0.225971	0.489378
O20	O	1.548520	0.274029	0.989378
O21	O	0.957446	-0.336030	0.188740
O22	O	1.457446	0.163970	0.688740
O23	O	0.843829	-0.331138	0.366611
O24	O	1.343829	0.168862	0.866611
O25	O	0.953817	-0.422031	0.653142
O26	O	1.453817	0.077969	1.153142
O27	O	0.840135	-0.417223	0.490369
O28	O	1.340135	0.082777	0.990369
O29	O	1.043645	-0.339588	0.652715
O30	O	1.543645	0.160412	1.152715
O31	O	1.034962	-0.539440	0.341065
O32	O	1.534962	-0.039440	0.841065
O33	O	0.948876	-0.535733	0.475835
O34	O	1.448876	-0.035733	0.975835
C35	C	0.816546	-0.373095	0.430180
C36	C	1.316546	0.126905	0.930180
C37	C	0.738625	-0.369787	0.435380
C38	C	1.238625	0.130213	0.935380
C39	C	0.298019	-0.348774	0.468357
C40	C	0.798019	0.151226	0.968357
C41	C	0.371233	-0.351896	0.463464
C42	C	0.871233	0.148104	0.963464
C43	C	0.405886	-0.398237	0.390968
C44	C	0.905886	0.101763	0.890968
C45	C	0.367320	-0.441464	0.323368
C46	C	0.867320	0.058536	0.823368
C47	C	0.294106	-0.438345	0.328266
C48	C	0.794106	0.061655	0.828266
C49	C	0.626845	-0.409896	0.372678
C50	C	1.126845	0.090104	0.872678
C51	C	0.700064	-0.413009	0.367783
C52	C	1.200064	0.086991	0.867783
C53	C	0.703972	-0.323442	0.507881
C54	C	1.203972	0.176558	1.007881
C55	C	0.630758	-0.320325	0.512769
C56	C	1.130758	0.179675	1.012769
C57	C	0.592198	-0.363554	0.445172
C58	C	1.092198	0.136446	0.945172
C59	C	0.480723	-0.401427	0.385963
C60	C	0.980723	0.098573	0.885963
C61	C	0.517362	-0.360367	0.450183
C62	C	1.017362	0.139633	0.950183
C63	C	0.990840	-0.563026	0.406908
C64	C	1.490840	-0.063026	0.906908
C65	C	0.987547	-0.640957	0.402159
C66	C	1.487547	-0.140957	0.902159
C67	C	1.030812	-0.679403	0.464196
C68	C	1.530812	-0.179403	0.964196
C69	C	1.027715	-0.752627	0.459736
C70	C	1.527715	-0.252627	0.959736
C71	C	0.981357	-0.787403	0.393232
C72	C	1.481357	-0.287403	0.893232
C73	C	0.938087	-0.748951	0.331192
C74	C	1.438087	-0.248951	0.831192
C75	C	0.941180	-0.675729	0.335659
C76	C	1.441180	-0.175729	0.835659
C77	C	0.969771	-1.008397	0.376536
C78	C	1.469771	-0.508397	0.876536
C79	C	0.966682	-1.081625	0.372072
C80	C	1.466682	-0.581625	0.872072
C81	C	1.056310	-1.085296	0.500617
C82	C	1.556310	-0.585296	1.000617
C83	C	1.059403	-1.012072	0.505073
C84	C	1.559403	-0.512072	1.005073
C85	C	1.016130	-0.973626	0.443038
C86	C	1.516130	-0.473626	0.943038
C87	C	0.978192	-0.862250	0.388669
C88	C	1.478192	-0.362250	0.888669
C89	C	1.019292	-0.898780	0.447607
C90	C	1.519292	-0.398780	0.947607
C91	C	1.181538	-0.388671	0.405935
C92	C	1.681538	0.111329	0.905935
C93	C	1.259458	-0.391997	0.400759
C94	C	1.759458	0.108003	0.900759
C95	C	0.998738	-0.380799	0.692116
C96	C	1.498738	0.119201	1.192116
C97	C	0.998760	-0.380770	0.808893
C98	C	1.498760	0.119230	1.308893
C99	C	1.006582	-0.197999	0.429320
C100	C	1.506582	0.302001	0.929320
C101	C	1.009947	-0.120072	0.434109
C102	C	1.509947	0.379928	0.934109
C103	C	0.998677	-0.380887	0.145113
C104	C	1.498677	0.119113	0.645113
C105	C	0.998799	-0.380725	0.028340
C106	C	1.498799	0.119275	0.528340
C107	C	1.045540	-0.337838	0.863534
C108	C	1.545540	0.162162	1.363534
C109	C	1.045558	-0.337813	0.973259
C110	C	1.545558	0.162187	1.473259
C111	C	0.952014	-0.423659	0.973691
C112	C	1.452014	0.076341	1.473691
C113	C	0.951993	-0.423679	0.863969
C114	C	1.451993	0.076321	1.363969
C115	C	1.092308	-0.294929	0.808458
C116	C	1.592308	0.205071	1.308458
C117	C	1.139092	-0.251994	0.863099
C118	C	1.639092	0.248006	1.363099
C119	C	1.139110	-0.251969	0.972824
C120	C	1.639110	0.248031	1.472824
C121	C	1.092343	-0.294879	1.027907
C122	C	1.592343	0.205121	1.527907
H123	H	0.489144	-0.322639	0.509213
H124	H	0.989144	0.177361	1.009213
Br125	Br	1.122322	-0.964880	0.595331
Br126	Br	1.622322	-0.464880	1.095331
H127	H	0.940448	-0.890573	0.334518
H128	H	1.440448	-0.390573	0.834518
H129	H	0.900337	-0.777272	0.277048
H130	H	1.400337	-0.277272	0.777048
Br131	Br	1.202602	-0.193703	1.046978
Br132	Br	1.702602	0.306297	1.546978
Br133	Br	0.250998	-0.285874	0.566741
Br134	Br	0.750998	0.214126	1.066741
H135	H	1.068565	-0.651094	0.518346
H136	H	1.568565	-0.151094	1.018346
Br137	Br	1.115032	-1.137475	0.584806
Br138	Br	1.615032	-0.637475	1.084806
Br139	Br	1.092290	-0.294964	0.659546
Br140	Br	1.592290	0.205036	1.159546
H141	H	1.057035	-0.870463	0.501759
H142	H	1.557035	-0.370463	1.001759
H143	H	0.262711	-0.473543	0.273223
H144	H	0.762711	0.026457	0.773223
Br145	Br	0.888502	-0.481942	0.789806
Br146	Br	1.388502	0.018058	1.289806
H147	H	0.928928	-1.109938	0.317916
H148	H	1.428928	-0.609938	0.817916
Br149	Br	1.202545	-0.193747	0.788349
Br150	Br	1.702545	0.306253	1.288349
H151	H	0.402626	-0.316702	0.518513
H152	H	0.902626	0.183298	1.018513
H153	H	1.092354	-0.294847	1.117253
H154	H	1.592354	0.205153	1.617253
Br155	Br	0.882458	-0.623550	0.251467
Br156	Br	1.382458	-0.123550	0.751467
Br157	Br	1.086423	-0.804802	0.543953
Br158	Br	1.586423	-0.304802	1.043953
Br159	Br	0.888550	-0.481892	1.048446
Br160	Br	1.388550	0.018108	1.548446
H161	H	0.934538	-0.977100	0.326022
H162	H	1.434538	-0.477100	0.826022
H163	H	0.508945	-0.439155	0.326933
H164	H	1.008945	0.060845	0.826933
H165	H	0.602548	-0.282592	0.571807
H166	H	1.102548	0.217408	1.071807
H167	H	0.735376	-0.288248	0.562916
H168	H	1.235376	0.211752	1.062916
H169	H	0.595459	-0.445095	0.317634
H170	H	1.095459	0.054905	0.817634
Br171	Br	0.747092	-0.475918	0.269409
Br172	Br	1.247092	0.024082	0.769409
H173	H	0.395540	-0.479198	0.264344
H174	H	0.895540	0.020802	0.764344
