data_functionalizedCrystal
_audit_creation_method	'MofGen! by Chris Wilmer'
_symmetry_space_group_name_H-M	'P1'
_symmetry_Int_Tables_number	1
_symmetry_cell_setting	triclinic
loop_
_symmetry_equiv_pos_as_xyz
  x,y,z
_cell_length_a	12.759399
_cell_length_b	12.759401
_cell_length_c	12.759393
_cell_angle_alpha	90.020120
_cell_angle_beta	89.968582
_cell_angle_gamma	89.988508
loop_
_atom_site_label
_atom_site_type_symbol
_atom_site_fract_x
_atom_site_fract_y
_atom_site_fract_z
Zn1	Zn	-0.418317	-1.606249	-0.594028
Zn2	Zn	0.081683	-1.106249	-0.094028
Zn3	Zn	-0.594036	-1.606141	-0.418348
Zn4	Zn	-0.094036	-1.106141	0.081652
Zn5	Zn	-0.418359	-1.430551	-0.418362
Zn6	Zn	0.081641	-0.930551	0.081638
Zn7	Zn	-0.593942	-1.430537	-0.593985
Zn8	Zn	-0.093942	-0.930537	-0.093985
O9	O	-0.506164	-1.518370	-0.506181
O10	O	-0.006164	-1.018370	-0.006181
O11	O	-0.441648	-1.753256	-0.570736
O12	O	0.058352	-1.253256	-0.070736
O13	O	-0.570789	-1.582809	-0.271329
O14	O	-0.070789	-1.082809	0.228671
O15	O	-0.271333	-1.453909	-0.441688
O16	O	0.228667	-0.953909	0.058312
O17	O	-0.570748	-1.753177	-0.441665
O18	O	-0.070748	-1.253177	0.058335
O19	O	-0.271302	-1.582994	-0.570749
O20	O	0.228698	-1.082994	-0.070749
O21	O	-0.441720	-1.453804	-0.271339
O22	O	0.058280	-0.953804	0.228661
O23	O	-0.441629	-1.283529	-0.441647
O24	O	0.058371	-0.783529	0.058353
O25	O	-0.570589	-1.453886	-0.741012
O26	O	-0.070589	-0.953886	-0.241012
O27	O	-0.570629	-1.283518	-0.570676
O28	O	-0.070629	-0.783518	-0.070676
O29	O	-0.441557	-1.582980	-0.741043
O30	O	0.058443	-1.082980	-0.241043
O31	O	-0.741045	-1.582796	-0.441623
O32	O	-0.241045	-1.082796	0.058377
O33	O	-0.740976	-1.453781	-0.570663
O34	O	-0.240976	-0.953781	-0.070663
C35	C	-0.506125	-1.245402	-0.506159
C36	C	-0.006125	-0.745402	-0.006159
C37	C	-0.506133	-1.128626	-0.506174
C38	C	-0.006133	-0.628626	-0.006174
C39	C	-0.439035	-1.073798	-0.573484
C40	C	0.060965	-0.573798	-0.073484
C41	C	-0.439049	-0.964074	-0.573488
C42	C	0.060951	-0.464074	-0.073488
C43	C	-0.573269	-0.964015	-0.438869
C44	C	-0.073269	-0.464015	0.061131
C45	C	-0.573249	-1.073737	-0.438861
C46	C	-0.073249	-0.573737	0.061139
C47	C	-0.361547	-1.073832	-0.651209
C48	C	0.138453	-0.573832	-0.151209
C49	C	-0.361561	-0.964107	-0.651212
C50	C	0.138439	-0.464107	-0.151212
C51	C	-0.779131	-1.518304	-0.506160
C52	C	-0.279131	-1.018304	-0.006160
C53	C	-0.895908	-1.518371	-0.506186
C54	C	-0.395908	-1.018371	-0.006186
C55	C	-1.060387	-1.585622	-0.573481
C56	C	-0.560387	-1.085622	-0.073481
C57	C	-0.950663	-1.585557	-0.573449
C58	C	-0.450663	-1.085557	-0.073449
C59	C	-0.950883	-1.451252	-0.438942
C60	C	-0.450883	-0.951252	0.061058
C61	C	-1.060605	-1.451323	-0.438969
C62	C	-0.560605	-0.951323	0.061031
C63	C	-1.060259	-1.663159	-0.651141
C64	C	-0.560259	-1.163159	-0.151141
C65	C	-0.950535	-1.663094	-0.651110
C66	C	-0.450535	-1.163094	-0.151110
C67	C	-0.232131	-1.518465	-0.506225
C68	C	0.267869	-1.018465	-0.006225
C69	C	-0.115354	-1.518506	-0.506244
C70	C	0.384646	-1.018506	-0.006244
C71	C	-0.506058	-1.518443	-0.780214
C72	C	-0.006058	-1.018443	-0.280214
C73	C	-0.506013	-1.518475	-0.896991
C74	C	-0.006013	-1.018475	-0.396991
C75	C	-0.506191	-0.792403	-0.506197
C76	C	-0.006191	-0.292403	-0.006197
C77	C	-0.506168	-0.909180	-0.506186
C78	C	-0.006168	-0.409180	-0.006186
C79	C	-0.438820	-1.585704	-0.951871
C80	C	0.061180	-1.085704	-0.451871
C81	C	-0.438782	-1.585729	-1.061595
C82	C	0.061218	-1.085729	-0.561595
C83	C	-0.573139	-1.451293	-1.061550
C84	C	-0.073139	-0.951293	-0.561550
C85	C	-0.573171	-1.451263	-0.951827
C86	C	-0.073171	-0.951263	-0.451827
C87	C	-0.361253	-1.663322	-0.951899
C88	C	0.138747	-1.163322	-0.451899
C89	C	-0.361215	-1.663347	-1.061623
C90	C	0.138785	-1.163347	-0.561623
C91	C	-0.506194	-1.518357	-0.233214
C92	C	-0.006194	-1.018357	0.266786
C93	C	-0.505943	-1.518529	-0.116437
C94	C	-0.005943	-1.018529	0.383563
H95	H	-0.627912	-0.919311	-0.384065
H96	H	-0.127912	-0.419311	0.115935
F97	F	-0.260490	-0.919608	-0.613303
F98	F	0.239510	-0.419608	-0.113303
F99	F	-0.644671	-1.379695	-0.893424
F100	F	-0.144671	-0.879695	-0.393424
H101	H	-0.906294	-1.396554	-0.384167
H102	H	-0.406294	-0.896554	0.115833
H103	H	-0.627814	-1.396570	-1.106211
H104	H	-0.127814	-0.896570	-0.606211
H105	H	-0.279887	-1.641555	-0.922142
H106	H	0.220113	-1.141555	-0.422142
F107	F	-0.399381	-1.764321	-0.907409
F108	F	0.100619	-1.264321	-0.407409
H109	H	-0.280145	-1.103599	-0.629556
H110	H	0.219855	-0.603599	-0.129556
F111	F	-0.260211	-1.625178	-1.106130
F112	F	0.239789	-1.125178	-0.606130
F113	F	-1.119101	-1.379901	-0.367395
F114	F	-0.619101	-0.879901	0.132605
F115	F	-1.104699	-1.625050	-0.752149
F116	F	-0.604699	-1.125050	-0.252149
F117	F	-0.644638	-1.132085	-0.367195
F118	F	-0.144638	-0.632085	0.132805
F119	F	-0.389695	-1.769704	-1.100553
F120	F	0.110305	-1.269704	-0.600553
F121	F	-1.099117	-1.769554	-0.622766
F122	F	-0.599117	-1.269554	-0.122766
F123	F	-0.399759	-1.118362	-0.752163
F124	F	0.100241	-0.618362	-0.252163
F125	F	-0.905996	-1.764121	-0.613104
F126	F	-0.405996	-1.264121	-0.113104
H127	H	-0.383455	-0.934362	-0.732548
H128	H	0.116545	-0.434362	-0.232548
H129	H	-0.920709	-1.641235	-0.732452
H130	H	-0.420709	-1.141235	-0.232452
