data_functionalizedCrystal
_audit_creation_method	'MofGen! by Chris Wilmer'
_symmetry_space_group_name_H-M	'P1'
_symmetry_Int_Tables_number	1
_symmetry_cell_setting	triclinic
loop_
_symmetry_equiv_pos_as_xyz
  x,y,z
_cell_length_a	19.077409
_cell_length_b	18.101397
_cell_length_c	19.076919
_cell_angle_alpha	87.731459
_cell_angle_beta	85.523525
_cell_angle_gamma	92.322373
loop_
_atom_site_label
_atom_site_type_symbol
_atom_site_fract_x
_atom_site_fract_y
_atom_site_fract_z
Zn1	Zn	1.061691	-0.264951	0.355435
Zn2	Zn	1.561691	0.235049	0.855435
Zn3	Zn	1.066354	-0.383615	0.237548
Zn4	Zn	1.566354	0.116385	0.737548
Zn5	Zn	0.948546	-0.264976	0.242283
Zn6	Zn	1.448546	0.235024	0.742283
Zn7	Zn	0.943784	-0.393942	0.360110
Zn8	Zn	1.443784	0.106058	0.860110
O9	O	1.005094	-0.326871	0.298844
O10	O	1.505094	0.173129	0.798844
O11	O	1.160957	-0.276360	0.335859
O12	O	1.660957	0.223640	0.835859
O13	O	1.054671	-0.363565	0.139530
O14	O	1.554671	0.136435	0.639530
O15	O	0.963597	-0.161339	0.257318
O16	O	1.463597	0.338661	0.757318
O17	O	1.164383	-0.363541	0.249248
O18	O	1.664383	0.136459	0.749248
O19	O	1.046724	-0.161321	0.340450
O20	O	1.546724	0.338679	0.840450
O21	O	0.968119	-0.276402	0.143008
O22	O	1.468119	0.223598	0.643008
O23	O	0.849267	-0.286416	0.261851
O24	O	1.349267	0.213584	0.761851
O25	O	0.955480	-0.381143	0.458136
O26	O	1.455480	0.118857	0.958136
O27	O	0.845768	-0.381166	0.348418
O28	O	1.345768	0.118834	0.848418
O29	O	1.042106	-0.286374	0.454701
O30	O	1.542106	0.213626	0.954701
O31	O	1.050053	-0.488618	0.253781
O32	O	1.550053	0.011382	0.753781
O33	O	0.960001	-0.496205	0.343827
O34	O	1.460001	0.003795	0.843827
C35	C	0.821939	-0.334915	0.306156
C36	C	1.321939	0.165085	0.806156
C37	C	0.743584	-0.338375	0.309301
C38	C	1.243584	0.161625	0.809301
C39	C	0.302333	-0.363132	0.331890
C40	C	0.802333	0.136868	0.831890
C41	C	0.375956	-0.359887	0.328922
C42	C	0.875956	0.140113	0.828922
C43	C	0.414564	-0.308859	0.282442
C44	C	0.914564	0.191141	0.782442
C45	C	0.379544	-0.261080	0.238923
C46	C	0.879544	0.238920	0.738923
C47	C	0.305922	-0.264330	0.241888
C48	C	0.805922	0.235670	0.741888
C49	C	0.634943	-0.293845	0.268746
C50	C	1.134943	0.206155	0.768746
C51	C	0.708570	-0.290597	0.265786
C52	C	1.208570	0.209403	0.765786
C53	C	0.704977	-0.389406	0.355785
C54	C	1.204977	0.110594	0.855785
C55	C	0.631353	-0.392648	0.358749
C56	C	1.131353	0.107352	0.858749
C57	C	0.596340	-0.344871	0.315227
C58	C	1.096340	0.155129	0.815227
N59	N	0.489819	-0.305539	0.279409
N60	N	0.989819	0.194461	0.779409
N61	N	0.521087	-0.348196	0.318257
N62	N	1.021087	0.151804	0.818257
C63	C	1.005035	-0.519283	0.298812
C64	C	1.505035	-0.019283	0.798812
C65	C	1.005073	-0.601595	0.298820
C66	C	1.505073	-0.101595	0.798820
C67	C	1.005161	-0.900685	0.298880
C68	C	1.505161	-0.400685	0.798880
C69	C	1.061673	-0.864556	0.242086
C70	C	1.561673	-0.364556	0.742086
C71	C	1.061855	-0.778935	0.242220
C72	C	1.561855	-0.278935	0.742220
C73	C	1.005117	-0.752303	0.298850
C74	C	1.505117	-0.252303	0.798850
C75	C	1.022268	-0.785693	0.372349
C76	C	1.522268	-0.285693	0.872349
C77	C	1.022700	-0.871307	0.372035
C78	C	1.522700	-0.371307	0.872035
C79	C	0.931327	-0.871639	0.282824
C80	C	1.431327	-0.371639	0.782824
C81	C	0.931762	-0.785900	0.281150
C82	C	1.431762	-0.285900	0.781150
C83	C	1.005092	-0.668444	0.298837
C84	C	1.505092	-0.168444	0.798837
C85	C	1.005188	-0.984544	0.298898
C86	C	1.505188	-0.484544	0.798898
C87	C	1.188964	-0.318796	0.291504
C88	C	1.688964	0.181204	0.791504
C89	C	1.267318	-0.315355	0.288376
C90	C	1.767318	0.184645	0.788376
C91	C	0.997741	-0.334908	0.482712
C92	C	1.497741	0.165092	0.982712
C93	C	0.994608	-0.338332	0.561066
C94	C	1.494608	0.161668	1.061066
C95	C	1.005172	-0.133708	0.298890
C96	C	1.505172	0.366292	0.798890
C97	C	1.005205	-0.051393	0.298910
C98	C	1.505205	0.448607	0.798910
C99	C	1.012458	-0.318810	0.115689
C100	C	1.512458	0.181190	0.615689
C101	C	1.015728	-0.315171	0.037331
C102	C	1.515728	0.184829	0.537331
C103	C	1.038236	-0.290602	0.596089
C104	C	1.538236	0.209398	1.096089
C105	C	1.035283	-0.293818	0.669711
C106	C	1.535283	0.206182	1.169711
C107	C	0.988706	-0.344767	0.708308
C108	C	1.488706	0.155233	1.208308
C109	C	0.945074	-0.392499	0.673280
C110	C	1.445074	0.107501	1.173280
C111	C	0.948024	-0.389280	0.599659
C112	C	1.448024	0.110720	1.099659
C113	C	0.975045	-0.359683	0.928682
C114	C	1.475045	0.140317	1.428682
C115	C	0.972101	-0.362901	1.002307
C116	C	1.472101	0.137099	1.502307
C117	C	1.062309	-0.264218	0.998734
C118	C	1.562309	0.235782	1.498734
C119	C	1.065257	-0.261006	0.925112
C120	C	1.565257	0.238994	1.425112
C121	C	1.021623	-0.308736	0.890090
C122	C	1.521623	0.191264	1.390090
N123	N	0.985689	-0.348057	0.783562
N124	N	1.485689	0.151943	1.283562
N125	N	1.024637	-0.305442	0.814838
N126	N	1.524637	0.194558	1.314838
H127	H	0.404462	-0.398794	0.364355
H128	H	0.904462	0.101206	0.864355
H129	H	0.599924	-0.434202	0.396597
H130	H	1.099924	0.065798	0.896597
H131	H	0.733492	-0.428304	0.391218
H132	H	1.233492	0.071696	0.891218
N133	N	1.088477	-0.235654	0.554462
N134	N	1.588477	0.264346	1.054462
H135	H	1.115665	-0.205905	0.587824
H136	H	1.615665	0.294095	1.087824
H137	H	1.061021	-0.201306	0.525068
H138	H	1.561021	0.298694	1.025068
N139	N	0.909891	-0.898290	0.213268
N140	N	1.409891	-0.398290	0.713268
H141	H	0.947828	-0.929468	0.191460
H142	H	1.447828	-0.429468	0.691460
H143	H	0.903153	-0.854270	0.180657
H144	H	1.403153	-0.354270	0.680657
N145	N	0.970336	-0.903423	0.429788
N146	N	1.470336	-0.403423	0.929788
H147	H	0.995494	-0.934681	0.464078
H148	H	1.495494	-0.434681	0.964078
H149	H	0.933373	-0.935113	0.408587
H150	H	1.433373	-0.435113	0.908587
N151	N	1.115495	-0.206043	0.883500
N152	N	1.615495	0.293957	1.383500
H153	H	1.104048	-0.154175	0.896771
H154	H	1.604048	0.345825	1.396771
H155	H	1.110731	-0.211299	0.831558
H156	H	1.610731	0.288701	1.331558
N157	N	0.268152	-0.212805	0.194950
N158	N	0.768152	0.287195	0.694950
H159	H	0.280530	-0.159823	0.205470
H160	H	0.780530	0.340177	0.705470
H161	H	0.215667	-0.222676	0.203903
H162	H	0.715667	0.277324	0.703903
N163	N	1.048110	-0.748685	0.169907
N164	N	1.548110	-0.248685	0.669907
H165	H	1.041877	-0.790978	0.137656
H166	H	1.541877	-0.290978	0.637656
H167	H	1.089291	-0.715191	0.150506
H168	H	1.589291	-0.215191	0.650506
H169	H	0.907148	-0.433981	0.704711
H170	H	1.407148	0.066019	1.204711
N171	N	0.421177	-0.206041	0.188788
N172	N	0.921177	0.293959	0.688788
H173	H	0.453016	-0.233302	0.154837
H174	H	0.953016	0.266698	0.654837
H175	H	0.450548	-0.171688	0.216318
H176	H	0.950548	0.328312	0.716318
H177	H	0.889258	-0.895436	0.324226
H178	H	1.389258	-0.395436	0.824226
H179	H	0.740002	-0.249036	0.227942
H180	H	1.240002	0.250964	0.727942
H181	H	0.606444	-0.254945	0.233305
H182	H	1.106444	0.245055	0.733305
N183	N	1.048130	-0.889392	0.169541
N184	N	1.548130	-0.389392	0.669541
H185	H	1.005233	-0.924309	0.172784
H186	H	1.505233	-0.424309	0.672784
H187	H	1.090292	-0.915588	0.149136
H188	H	1.590292	-0.415588	0.649136
H189	H	1.116129	-0.884154	0.252341
H190	H	1.616129	-0.384154	0.752341
N191	N	1.134378	-0.749227	0.255980
N192	N	1.634378	-0.249227	0.755980
H193	H	1.166352	-0.791766	0.261986
H194	H	1.666352	-0.291766	0.761986
H195	H	1.131313	-0.720312	0.300238
H196	H	1.631313	-0.220312	0.800238
H197	H	1.076580	-0.889536	0.385982
H198	H	1.576580	-0.389536	0.885982
H199	H	0.912491	-0.428139	0.571144
H200	H	1.412491	0.071861	1.071144
H201	H	0.982236	-0.768860	0.415674
H202	H	1.482236	-0.268860	0.915674
N203	N	0.873296	-0.762220	0.332242
N204	N	1.373296	-0.262220	0.832242
H205	H	0.838246	-0.734191	0.305741
H206	H	1.338246	-0.234191	0.805741
H207	H	0.893674	-0.729256	0.367739
H208	H	1.393674	-0.229256	0.867739
N209	N	0.260691	-0.418169	0.382021
N210	N	0.760691	0.081831	0.882021
H211	H	0.271509	-0.408392	0.431893
H212	H	0.771509	0.091608	0.931893
H213	H	0.273948	-0.469992	0.370399
H214	H	0.773948	0.030008	0.870399
N215	N	0.914553	-0.756768	0.209524
N216	N	1.414553	-0.256768	0.709524
H217	H	0.954103	-0.721951	0.188621
H218	H	1.454103	-0.221951	0.688621
H219	H	0.869443	-0.729414	0.214344
H220	H	1.369443	-0.229414	0.714344
H221	H	1.097833	-0.225359	1.027257
H222	H	1.597833	0.274641	1.527257
H223	H	1.075527	-0.762535	0.386594
H224	H	1.575527	-0.262535	0.886594
N225	N	1.082324	-0.242324	0.707488
N226	N	1.582324	0.257676	1.207488
H227	H	1.112276	-0.209559	0.671866
H228	H	1.612276	0.290441	1.171866
H229	H	1.113713	-0.272360	0.736735
H230	H	1.613713	0.227640	1.236735
H231	H	0.934170	-0.404392	1.033731
H232	H	1.434170	0.095608	1.533731
H233	H	0.939525	-0.398558	0.900175
H234	H	1.439525	0.101442	1.400175
