data_functionalizedCrystal
_audit_creation_method	'MofGen! by Chris Wilmer'
_symmetry_space_group_name_H-M	'P1'
_symmetry_Int_Tables_number	1
_symmetry_cell_setting	triclinic
loop_
_symmetry_equiv_pos_as_xyz
  x,y,z
_cell_length_a	10.489741
_cell_length_b	14.853566
_cell_length_c	13.330367
_cell_angle_alpha	89.986628
_cell_angle_beta	89.997892
_cell_angle_gamma	84.086794
loop_
_atom_site_label
_atom_site_type_symbol
_atom_site_fract_x
_atom_site_fract_y
_atom_site_fract_z
O1	O	0.166512	1.197280	0.083357
O2	O	0.186351	0.934932	0.083373
O3	O	-0.009234	1.072076	0.083358
O4	O	0.362096	1.060136	0.083371
O5	O	-0.009221	1.072102	-0.083489
O6	O	0.186364	0.934958	-0.083474
O7	O	0.166524	1.197306	-0.083491
Cu8	Cu	0.176445	1.066134	-0.098717
Cu9	Cu	0.176430	1.066104	0.098599
O10	O	0.362109	1.060162	-0.083476
C11	C	0.185459	0.901351	-0.000048
C12	C	0.182766	0.801252	-0.000042
C13	C	0.171369	0.377989	0.090888
C14	C	0.171383	0.378039	-0.091015
C15	C	0.173912	0.472087	-0.091012
C16	C	0.175171	0.519091	-0.000057
C17	C	0.173902	0.472046	0.090894
C18	C	0.175195	0.519138	-0.181962
C19	C	0.177725	0.613192	-0.181962
C20	C	0.178975	0.660198	-0.091006
C21	C	0.177704	0.613147	-0.000051
C22	C	0.178963	0.660151	0.090903
C23	C	0.177683	0.613103	0.181859
C24	C	0.175152	0.519052	0.181850
C25	C	0.181507	0.754249	-0.090997
C26	C	0.181496	0.754207	0.090909
C27	C	-0.056749	1.071187	-0.000064
C28	C	-0.198348	1.068489	-0.000062
C29	C	-0.265508	0.981228	-0.000050
C30	C	-0.358087	1.022462	-0.082317
C31	C	-0.358075	1.022457	0.082182
C32	C	-0.289062	1.109759	-0.082397
C33	C	-0.289040	1.109742	0.082175
C34	C	-0.381592	1.151039	-0.000112
C35	C	0.409624	1.061051	-0.000051
C36	C	0.551223	1.063749	-0.000046
C37	C	0.167417	1.230887	-0.000067
C38	C	0.170110	1.330986	-0.000066
N39	N	0.176410	1.066083	0.237381
N40	N	0.176455	1.066162	-0.237498
C41	C	0.262881	1.005308	0.710010
C42	C	0.090020	1.126999	0.709965
C43	C	0.090011	1.126986	0.604947
C44	C	0.176437	1.066131	0.552455
C45	C	0.262872	1.005291	0.604982
C46	C	0.003570	1.187819	0.552412
C47	C	0.003556	1.187807	0.447388
C48	C	0.089989	1.126956	0.394894
C49	C	0.176428	1.066114	0.447427
C50	C	0.262854	1.005259	0.394936
C51	C	0.349300	0.944421	0.447467
C52	C	0.349305	0.944440	0.552489
C53	C	0.089985	1.126937	0.289872
C54	C	0.262845	1.005242	0.289908
H55	H	0.178765	0.651490	-0.256024
C56	C	-0.399371	0.972544	0.176141
N57	N	-0.430468	0.934944	0.246908
H58	H	-0.258639	1.146659	-0.152026
C59	C	-0.399422	0.972597	-0.176268
N60	N	-0.430552	0.935032	-0.247028
C61	C	0.170003	0.326332	-0.191059
N62	N	0.168960	0.287382	-0.266417
C63	C	-0.449465	1.248047	-0.000182
N64	N	-0.500591	1.321112	-0.000241
H65	H	0.019649	1.176541	0.752707
C66	C	0.173816	0.467428	-0.282005
N67	N	0.172775	0.428476	-0.357360
C68	C	-0.005098	1.193857	0.232093
N69	N	-0.076716	1.244267	0.188574
H70	H	-0.215051	0.909483	-0.000128
C71	C	0.357922	0.938295	0.232175
N72	N	0.429532	0.887869	0.188692
C73	C	0.169959	0.326237	0.190935
N74	N	0.168899	0.287255	0.266292
H75	H	-0.258415	1.146622	0.151725
C76	C	0.444378	0.877517	0.610281
N77	N	0.515981	0.827107	0.653814
C78	C	0.182876	0.805904	0.190969
N79	N	0.183916	0.844842	0.266334
C80	C	0.444356	0.877476	0.389713
N81	N	0.515948	0.827054	0.346208
C82	C	0.173751	0.467292	0.281893
N83	N	0.172701	0.428302	0.357244
H84	H	0.182562	0.792550	-0.165052
C85	C	0.357965	0.938387	0.767794
N86	N	0.429582	0.887980	0.811319
H87	H	-0.066802	1.237361	0.595154
H88	H	0.178717	0.651385	0.255915
C89	C	-0.091546	1.254723	0.389613
N90	N	-0.163181	1.305123	0.346096
