data_functionalizedCrystal
_audit_creation_method	'MofGen! by Chris Wilmer'
_symmetry_space_group_name_H-M	'P1'
_symmetry_Int_Tables_number	1
_symmetry_cell_setting	triclinic
loop_
_symmetry_equiv_pos_as_xyz
  x,y,z
_cell_length_a	18.215407
_cell_length_b	18.215405
_cell_length_c	18.215399
_cell_angle_alpha	90.030551
_cell_angle_beta	89.980167
_cell_angle_gamma	89.974667
loop_
_atom_site_label
_atom_site_type_symbol
_atom_site_fract_x
_atom_site_fract_y
_atom_site_fract_z
Zn1	Zn	1.125072	0.292983	-0.416103
Zn2	Zn	1.124980	0.416054	-0.293031
Zn3	Zn	1.002005	0.293007	-0.293050
Zn4	Zn	1.001970	0.416013	-0.416056
O5	O	1.063507	0.354514	-0.354560
O6	O	1.228044	0.309316	-0.399788
O7	O	1.108643	0.399759	-0.190049
O8	O	1.018382	0.190020	-0.309401
O9	O	1.227977	0.399736	-0.309368
O10	O	1.108799	0.190002	-0.399807
O11	O	1.018293	0.309357	-0.190063
O12	O	0.899016	0.309317	-0.309355
O13	O	1.018324	0.399666	-0.519046
O14	O	0.898991	0.399689	-0.399727
O15	O	1.108766	0.309276	-0.519081
O16	O	1.108610	0.519033	-0.309322
O17	O	1.018235	0.519003	-0.399708
C18	C	0.872301	0.354502	-0.354539
C19	C	0.790502	0.354514	-0.354547
C20	C	1.063429	0.545721	-0.354524
C21	C	1.063463	0.627520	-0.354534
C22	C	1.063552	0.354464	-0.546513
C23	C	1.063571	0.354442	-0.628312
C24	C	0.602314	0.401645	-0.401544
C25	C	0.525455	0.401647	-0.401554
C26	C	0.525452	0.307397	-0.307591
C27	C	0.602309	0.307392	-0.307586
C28	C	0.640738	0.354520	-0.354562
C29	C	0.487022	0.354528	-0.354576
C30	C	0.403688	0.354530	-0.354585
C31	C	0.724077	0.354517	-0.354553
C32	C	1.255460	0.354528	-0.354581
C33	C	1.337259	0.354533	-0.354591
C34	C	1.063605	0.162561	-0.354611
C35	C	1.063647	0.080763	-0.354633
C36	C	1.110632	0.815705	-0.307556
C37	C	1.110665	0.892563	-0.307574
C38	C	1.016476	0.892572	-0.401616
C39	C	1.016447	0.815715	-0.401601
C40	C	1.063524	0.777283	-0.354567
C41	C	1.063586	0.930999	-0.354600
C42	C	1.063621	1.014333	-0.354619
C43	C	1.063490	0.693944	-0.354548
C44	C	1.110681	0.307332	-0.816525
C45	C	1.110690	0.307311	-0.893384
C46	C	1.016513	0.401438	-0.893336
C47	C	1.016501	0.401455	-0.816479
C48	C	1.063589	0.354403	-0.778075
C49	C	1.063610	0.354365	-0.931791
C50	C	1.063619	0.354342	-1.015125
C51	C	1.063579	0.354425	-0.694736
C52	C	1.063504	0.354512	-0.163353
C53	C	1.063628	0.354326	-0.081555
H54	H	0.633601	0.440018	-0.439797
H55	H	0.494153	0.269028	-0.269344
H56	H	0.978177	0.439748	-0.924614
O57	O	0.488244	0.447496	-0.447215
C58	C	0.538647	0.489073	-0.488687
H59	H	0.593418	0.491580	-0.458532
H60	H	0.546857	0.462194	-0.544627
C61	C	0.441354	0.564335	-0.536192
C62	C	0.508624	0.567419	-0.499152
H63	H	0.422834	0.612661	-0.542651
H64	H	0.407396	0.536322	-0.508254
H65	H	0.448205	0.541933	-0.582805
H66	H	0.501770	0.589812	-0.452537
H67	H	0.542580	0.595438	-0.527083
H68	H	0.978086	0.784430	-0.439887
O69	O	1.156312	0.261584	-0.779139
C70	C	1.114424	0.214050	-0.734704
H71	H	1.058641	0.240011	-0.723169
H72	H	1.106363	0.159508	-0.764343
C73	C	1.223424	0.168848	-0.675880
C74	C	1.154913	0.200736	-0.661706
H75	H	1.248400	0.160632	-0.630852
H76	H	1.251645	0.200870	-0.705818
H77	H	1.216696	0.123400	-0.700580
H78	H	1.161641	0.246187	-0.637014
H79	H	1.126693	0.168721	-0.631762
H80	H	0.633595	0.269012	-0.269327
H81	H	1.149035	0.268979	-0.924686
O82	O	1.156433	0.778485	-0.261850
C83	C	1.198005	0.828883	-0.220348
H84	H	1.200555	0.883644	-0.250506
H85	H	1.171093	0.837121	-0.164431
C86	C	1.273193	0.731572	-0.172769
C87	C	1.276330	0.798829	-0.209813
H88	H	1.321507	0.713033	-0.166266
H89	H	1.245184	0.697617	-0.200727
H90	H	1.250763	0.738446	-0.126175
H91	H	1.298752	0.791952	-0.256408
H92	H	1.304346	0.832782	-0.181862
H93	H	0.978146	0.923873	-0.439908
H94	H	1.149026	0.923843	-0.269294
H95	H	0.978148	0.439786	-0.785173
