data_functionalizedCrystal
_audit_creation_method	'MofGen! by Chris Wilmer'
_symmetry_space_group_name_H-M	'P1'
_symmetry_Int_Tables_number	1
_symmetry_cell_setting	triclinic
loop_
_symmetry_equiv_pos_as_xyz
  x,y,z
_cell_length_a	8.559649
_cell_length_b	16.109301
_cell_length_c	15.186229
_cell_angle_alpha	90.001705
_cell_angle_beta	90.004821
_cell_angle_gamma	76.620073
loop_
_atom_site_label
_atom_site_type_symbol
_atom_site_fract_x
_atom_site_fract_y
_atom_site_fract_z
O1	O	-2.120146	0.028212	-0.073213
O2	O	-1.654920	-0.014727	-0.073219
O3	O	-1.900314	0.128588	-0.073207
O4	O	-1.874753	-0.115103	-0.073225
O5	O	-1.900285	0.128579	0.073250
O6	O	-1.654891	-0.014736	0.073238
O7	O	-2.120118	0.028203	0.073244
Zn8	Zn	-1.887500	0.006732	0.096494
Zn9	Zn	-1.887538	0.006744	-0.096469
O10	O	-1.874724	-0.115112	0.073232
C11	C	-1.595374	-0.017985	0.000009
C12	C	-1.417989	-0.027671	0.000007
C13	C	-1.899264	0.159492	0.000022
C14	C	-1.896160	0.251590	0.000023
C15	C	-2.179664	0.031461	0.000014
C16	C	-2.357049	0.041147	0.000011
C17	C	-1.875774	-0.146016	0.000001
C18	C	-1.878878	-0.238114	-0.000006
N19	N	-1.887486	0.006725	0.228187
C20	C	-2.034553	0.482679	0.000011
C21	C	-2.031624	0.569213	0.000004
C22	C	-1.740473	0.530789	0.000004
C23	C	-1.743404	0.444257	0.000005
C24	C	-1.890449	0.420205	0.000013
C25	C	-1.884589	0.593271	0.000005
C26	C	-1.881412	0.687094	-0.000003
C27	C	-1.893627	0.326376	0.000019
N28	N	-1.887565	0.006758	-0.228162
C29	C	-1.984397	-0.037529	0.453907
C30	C	-1.984414	-0.037522	0.546097
C31	C	-1.790650	0.051018	0.546111
C32	C	-1.790642	0.051015	0.453924
C33	C	-1.887513	0.006737	0.407824
C34	C	-1.887538	0.006746	0.592201
C35	C	-1.887556	0.006754	0.692158
C36	C	-1.887497	0.006730	0.307861
H37	H	-1.440580	0.107476	0.000011
H38	H	-2.154287	0.463099	0.000016
H39	H	-1.334449	-0.094004	-0.000003
H40	H	-1.620755	0.550384	-0.000001
H41	H	-1.711746	0.087066	0.416401
C42	C	-1.584870	0.375531	0.000002
N43	N	-1.465466	0.323766	-0.000003
C44	C	-2.190151	0.637932	0.000010
N45	N	-2.309561	0.689691	0.000016
C46	C	-2.090971	-0.086228	0.403201
N47	N	-2.171253	-0.122906	0.365011
H48	H	-2.063309	-0.073566	0.583614
C49	C	-1.684081	0.099711	0.596830
N50	N	-1.603805	0.136385	0.635030
