data_functionalizedCrystal
_audit_creation_method	'MofGen! by Chris Wilmer'
_symmetry_space_group_name_H-M	'P1'
_symmetry_Int_Tables_number	1
_symmetry_cell_setting	triclinic
loop_
_symmetry_equiv_pos_as_xyz
  x,y,z
_cell_length_a	11.169416
_cell_length_b	12.759401
_cell_length_c	12.759393
_cell_angle_alpha	89.981712
_cell_angle_beta	89.971151
_cell_angle_gamma	90.010262
loop_
_atom_site_label
_atom_site_type_symbol
_atom_site_fract_x
_atom_site_fract_y
_atom_site_fract_z
Zn1	Zn	-0.477736	1.606276	-0.594028
Zn2	Zn	-0.678470	1.606187	-0.418357
Zn3	Zn	-0.477799	1.430581	-0.418365
Zn4	Zn	-0.678376	1.430580	-0.593996
O5	O	-0.578095	1.518406	-0.506186
O6	O	-0.504377	1.753285	-0.570735
O7	O	-0.651916	1.582856	-0.271337
O8	O	-0.309841	1.453925	-0.441684
O9	O	-0.651855	1.753220	-0.441671
O10	O	-0.309795	1.583007	-0.570743
O11	O	-0.504484	1.453839	-0.271343
O12	O	-0.504393	1.283560	-0.441652
O13	O	-0.651695	1.453923	-0.741021
O14	O	-0.651756	1.283559	-0.570688
O15	O	-0.504286	1.583006	-0.741045
O16	O	-0.846407	1.582854	-0.441639
O17	O	-0.846338	1.453837	-0.570680
C18	C	-0.578072	1.245438	-0.506168
C19	C	-0.578091	1.128662	-0.506185
C20	C	-0.501281	0.964045	-0.439128
C21	C	-0.501258	1.073769	-0.439115
C22	C	-0.654943	1.073825	-0.573279
C23	C	-0.654960	0.964103	-0.573295
C24	C	-0.412555	0.964013	-0.361666
C25	C	-0.412532	1.073737	-0.361654
C26	C	-0.889920	1.518364	-0.506179
C27	C	-1.023320	1.518442	-0.506210
C28	C	-0.265053	1.518476	-0.506218
C29	C	-0.131653	1.518506	-0.506231
C30	C	-0.577973	1.518474	-0.780220
C31	C	-0.577921	1.518503	-0.896997
C32	C	-0.578120	1.792439	-0.506206
C33	C	-0.578130	1.909216	-0.506214
C34	C	-0.501139	1.451352	-0.951868
C35	C	-0.501103	1.451384	-1.061592
C36	C	-0.654635	1.585726	-1.061564
C37	C	-0.654676	1.585688	-0.951842
C38	C	-0.412495	1.373794	-0.951884
C39	C	-0.412459	1.373826	-1.061609
C40	C	-0.578130	1.518398	-0.233219
C41	C	-0.577844	1.518573	-0.116443
H42	H	-0.717494	1.118528	-0.627895
H43	H	-0.437386	1.292407	-0.922107
H44	H	-0.717217	1.640354	-0.907170
N45	N	-0.295558	1.412400	-0.906813
H46	H	-0.299856	1.410961	-0.827756
H47	H	-0.280349	1.486493	-0.931311
N48	N	-0.456529	1.271448	-1.106694
H49	H	-0.477847	1.221955	-1.047775
H50	H	-0.391518	1.239208	-1.151283
N51	N	-0.289329	1.402737	-1.101086
H52	H	-0.234410	1.415623	-1.039562
H53	H	-0.294760	1.468371	-1.145092
N54	N	-0.289485	0.924571	-0.390724
H55	H	-0.256542	0.880563	-0.331588
H56	H	-0.234636	0.986165	-0.403703
H57	H	-0.717125	1.640427	-1.106233
N58	N	-0.737845	0.904964	-0.645653
H59	H	-0.786516	0.956387	-0.688138
H60	H	-0.793337	0.859422	-0.602808
N61	N	-0.445373	1.113146	-0.253827
H62	H	-0.377712	1.157114	-0.225139
H63	H	-0.460071	1.051537	-0.205797
H64	H	-0.445755	0.929942	-0.284331
H65	H	-0.324264	1.107784	-0.390923
