data_functionalizedCrystal
_audit_creation_method	'MofGen! by Chris Wilmer'
_symmetry_space_group_name_H-M	'P1'
_symmetry_Int_Tables_number	1
_symmetry_cell_setting	triclinic
loop_
_symmetry_equiv_pos_as_xyz
  x,y,z
_cell_length_a	19.077068
_cell_length_b	19.077148
_cell_length_c	19.076919
_cell_angle_alpha	89.924853
_cell_angle_beta	94.470751
_cell_angle_gamma	89.885327
loop_
_atom_site_label
_atom_site_type_symbol
_atom_site_fract_x
_atom_site_fract_y
_atom_site_fract_z
Zn1	Zn	-0.340464	-1.044046	-0.453520
Zn2	Zn	-0.453614	-1.043959	-0.340361
Zn3	Zn	-0.331035	-0.931658	-0.330949
Zn4	Zn	-0.453188	-0.921799	-0.453095
O5	O	-0.394575	-0.985366	-0.394481
O6	O	-0.359598	-1.142194	-0.442626
O7	O	-0.433586	-1.033152	-0.240637
O8	O	-0.233811	-0.950729	-0.343447
O9	O	-0.442728	-1.142130	-0.359489
O10	O	-0.240738	-1.033300	-0.433500
O11	O	-0.343528	-0.950645	-0.233722
O12	O	-0.343115	-0.832191	-0.343035
O13	O	-0.442002	-0.933926	-0.551627
O14	O	-0.432860	-0.824947	-0.432775
O15	O	-0.359185	-1.023740	-0.551940
O16	O	-0.552032	-1.023592	-0.359077
O17	O	-0.551719	-0.933841	-0.441902
C18	C	-0.386918	-0.803117	-0.386838
C19	C	-0.383660	-0.725150	-0.383586
C20	C	-0.360265	-0.286677	-0.360268
C21	C	-0.363330	-0.359936	-0.363328
C22	C	-0.411659	-0.392810	-0.411510
C23	C	-0.456921	-0.352421	-0.456641
C24	C	-0.453852	-0.279164	-0.453584
C25	C	-0.425853	-0.611503	-0.425659
C26	C	-0.428920	-0.684766	-0.428711
C27	C	-0.335328	-0.692276	-0.335399
C28	C	-0.332266	-0.619016	-0.332343
C29	C	-0.377525	-0.578634	-0.377476
N30	N	-0.414795	-0.467692	-0.414638
N31	N	-0.374386	-0.503753	-0.374351
C32	C	-0.577410	-0.977656	-0.401480
C33	C	-0.655631	-0.974421	-0.404501
C34	C	-0.692522	-1.019663	-0.362836
C35	C	-0.766020	-1.016624	-0.365681
C36	C	-0.802625	-0.968340	-0.410188
C37	C	-0.765729	-0.923096	-0.451858
C38	C	-0.692233	-0.926138	-0.449016
C39	C	-1.022419	-0.954229	-0.423311
C40	C	-1.095919	-0.951188	-0.426149
C41	C	-1.096206	-1.044717	-0.339973
C42	C	-1.022708	-1.047753	-0.337132
C43	C	-0.985819	-1.002512	-0.378804
N44	N	-0.877751	-0.965231	-0.413096
N45	N	-0.910694	-1.005624	-0.375899
C46	C	-0.211027	-0.993124	-0.387471
C47	C	-0.132810	-0.996430	-0.384484
C48	C	-0.401598	-0.977743	-0.578031
C49	C	-0.404590	-0.974494	-0.656249
C50	C	-0.402259	-0.168326	-0.402147
C51	C	-0.405525	-0.246294	-0.405393
C52	C	-0.362879	-1.019727	-0.693160
C53	C	-0.365688	-1.016667	-0.766654
C54	C	-0.410212	-0.968376	-0.803236
C55	C	-0.451924	-0.923138	-0.766320
C56	C	-0.449111	-0.926196	-0.692827
C57	C	-0.423245	-0.954214	-1.023017
C58	C	-0.426056	-0.951161	-1.096515
C59	C	-0.339819	-1.044689	-1.096844
C60	C	-0.337013	-1.047745	-1.023350
C61	C	-0.378723	-1.002505	-0.986440
N62	N	-0.413086	-0.965248	-0.878358
N63	N	-0.375845	-1.005630	-0.911319
C64	C	-0.387531	-0.993001	-0.211645
C65	C	-0.384346	-0.996394	-0.133426
H66	H	-0.496269	-0.379193	-0.495875
H67	H	-0.992906	-1.087070	-0.300891
H68	H	-0.796053	-1.053464	-0.331753
C69	C	-0.462706	-0.495877	-0.462416
C70	C	-0.475604	-0.567121	-0.475265
H71	H	-0.493420	-0.468476	-0.493046
H72	H	-0.470618	-0.485395	-0.415013
H73	H	-0.415333	-0.485442	-0.470487
H74	H	-0.522976	-0.577557	-0.467189
H75	H	-0.467698	-0.577607	-0.522679
C76	C	-0.277915	-1.111862	-0.700874
C77	C	-0.313935	-1.072809	-0.652953
H78	H	-0.247694	-1.144629	-0.676051
H79	H	-0.310799	-1.136205	-0.731834
H80	H	-0.250813	-1.081236	-0.727229
H81	H	-0.341040	-1.103435	-0.626601
H82	H	-0.281046	-1.048465	-0.621980
H83	H	-1.126249	-1.081551	-0.306047
H84	H	-0.320911	-0.259916	-0.321031
H85	H	-1.125722	-0.911877	-0.462404
H86	H	-0.292916	-0.592256	-0.293103
C87	C	-0.298469	-0.807908	-0.298654
C88	C	-0.285575	-0.736665	-0.285797
H89	H	-0.267747	-0.835311	-0.268035
H90	H	-0.345833	-0.818348	-0.290581
H91	H	-0.290560	-0.818383	-0.346066
H92	H	-0.293489	-0.726190	-0.238386
H93	H	-0.238199	-0.726221	-0.293865
H94	H	-0.331724	-1.053502	-0.796703
H95	H	-0.490706	-0.246284	-0.490332
C96	C	-0.700195	-1.111809	-0.277945
C97	C	-0.652290	-1.072739	-0.313912
H98	H	-0.675357	-1.144580	-0.247745
H99	H	-0.726585	-1.081199	-0.250833
H100	H	-0.731125	-1.136154	-0.310867
H101	H	-0.621363	-1.048390	-0.280990
H102	H	-0.625888	-1.103353	-0.341025
H103	H	-0.483069	-0.889355	-0.662775
H104	H	-0.326478	-0.392813	-0.326579
H105	H	-0.468276	-0.711530	-0.467951
H106	H	-0.992389	-0.917390	-0.457241
H107	H	-0.305860	-1.081520	-1.126904
C108	C	-0.252046	-1.139880	-1.031060
C109	C	-0.288067	-1.100825	-0.983141
H110	H	-0.221827	-1.172647	-1.006235
H111	H	-0.284929	-1.164223	-1.062021
H112	H	-0.224942	-1.109256	-1.057414
H113	H	-0.315175	-1.131448	-0.956790
H114	H	-0.255179	-1.076481	-0.952168
H115	H	-0.457219	-0.917386	-0.992975
H116	H	-0.795538	-0.883785	-0.488099
C117	C	-0.468651	-0.904942	-1.209029
C118	C	-0.474992	-0.898068	-1.136728
H119	H	-0.498862	-0.872168	-1.233854
H120	H	-0.421402	-0.896183	-1.218830
H121	H	-0.481402	-0.951136	-1.223438
H122	H	-0.462236	-0.851875	-1.122317
H123	H	-0.522251	-0.906821	-1.126922
C124	C	-0.699327	-0.833384	-0.534481
C125	C	-0.651679	-0.876408	-0.494816
H126	H	-0.674290	-0.802682	-0.562756
H127	H	-0.730269	-0.861621	-0.563806
H128	H	-0.725729	-0.806661	-0.503778
H129	H	-0.625281	-0.903136	-0.525520
H130	H	-0.620725	-0.848168	-0.465488
C131	C	-0.494531	-0.876925	-0.878831
C132	C	-0.500866	-0.870055	-0.806529
H133	H	-0.524751	-0.844156	-0.903652
H134	H	-0.447285	-0.868156	-0.888636
H135	H	-0.507274	-0.923121	-0.893241
H136	H	-0.488119	-0.823861	-0.792118
H137	H	-0.548123	-0.878819	-0.796719
