data_functionalizedCrystal
_audit_creation_method	'MofGen! by Chris Wilmer'
_symmetry_space_group_name_H-M	'P1'
_symmetry_Int_Tables_number	1
_symmetry_cell_setting	triclinic
loop_
_symmetry_equiv_pos_as_xyz
  x,y,z
_cell_length_a	16.120530
_cell_length_b	19.121063
_cell_length_c	19.120904
_cell_angle_alpha	94.741613
_cell_angle_beta	89.648943
_cell_angle_gamma	89.687057
loop_
_atom_site_label
_atom_site_type_symbol
_atom_site_fract_x
_atom_site_fract_y
_atom_site_fract_z
Zn1	Zn	1.233120	-0.352205	-0.464728
Zn2	Zn	1.233018	-0.464847	-0.352074
Zn3	Zn	1.100521	-0.341281	-0.341171
Zn4	Zn	1.088106	-0.463353	-0.463237
O5	O	1.163691	-0.405421	-0.405303
O6	O	1.349246	-0.372344	-0.454972
O7	O	1.220595	-0.444510	-0.252398
O8	O	1.123350	-0.244501	-0.353623
O9	O	1.349170	-0.455102	-0.372206
O10	O	1.220770	-0.252527	-0.444400
O11	O	1.123250	-0.353726	-0.244387
O12	O	0.982735	-0.352277	-0.352176
O13	O	1.102189	-0.452555	-0.561665
O14	O	0.973614	-0.441963	-0.441857
O15	O	1.208731	-0.370895	-0.562761
O16	O	1.208556	-0.562877	-0.370759
O17	O	1.102090	-0.561780	-0.452429
C18	C	0.948061	-0.395773	-0.395672
C19	C	0.855811	-0.391663	-0.391570
C20	C	0.686911	-0.384143	-0.384085
C21	C	0.641307	-0.426754	-0.426574
C22	C	0.547325	-0.422569	-0.422410
C23	C	0.780901	-0.388326	-0.388248
C24	C	1.153986	-0.587800	-0.412632
C25	C	1.149909	-0.665826	-0.415794
C26	C	1.203464	-0.703035	-0.374797
C27	C	1.199634	-0.776350	-0.377776
C28	C	1.142244	-0.812454	-0.421747
C29	C	1.088687	-0.775240	-0.462749
C30	C	1.092521	-0.701927	-0.459774
C31	C	1.127895	-1.033784	-0.432859
C32	C	1.124063	-1.107102	-0.435830
C33	C	1.235011	-1.108207	-0.350857
C34	C	1.238837	-1.034892	-0.347883
C35	C	1.185283	-0.997685	-0.388887
C36	C	1.138326	-0.887393	-0.424791
C37	C	1.189205	-0.922748	-0.385846
C38	C	1.380164	-0.415108	-0.414971
C39	C	1.472411	-0.419236	-0.419091
C40	C	1.154087	-0.412777	-0.588395
C41	C	1.149994	-0.415911	-0.666419
C42	C	1.173456	-0.222332	-0.397961
C43	C	1.177618	-0.144311	-0.394833
C44	C	1.203538	-0.374870	-0.703646
C45	C	1.199683	-0.377812	-0.776956
C46	C	1.142285	-0.421799	-0.813039
C47	C	1.088735	-0.462842	-0.775806
C48	C	1.092587	-0.459896	-0.702497
C49	C	1.127875	-0.432818	-1.034357
C50	C	1.124028	-0.435763	-1.107672
C51	C	1.234975	-0.350731	-1.108817
C52	C	1.238826	-0.347792	-1.035506
C53	C	1.185273	-0.388832	-0.998280
C54	C	1.138345	-0.424809	-0.887974
C55	C	1.189210	-0.385818	-0.923346
C56	C	1.173309	-0.398046	-0.222922
C57	C	1.177573	-0.394721	-0.144899
H58	H	0.655372	-0.344524	-0.344583
H59	H	1.041998	-0.498655	-0.805190
H60	H	1.243286	-0.344393	-0.807264
F61	F	1.035523	-0.662327	-0.503410
H62	H	1.041962	-0.804642	-0.498555
F63	F	1.250285	-0.884322	-0.339053
H64	H	1.048977	-0.493309	-0.672186
H65	H	1.243243	-0.806642	-0.344391
F66	F	1.291965	-0.307054	-1.148441
H67	H	1.235939	-0.350000	-0.893964
F68	F	0.682530	-0.478539	-0.478214
H69	H	1.285568	-1.005498	-0.312078
F70	F	1.292007	-1.147811	-0.307224
F71	F	1.264541	-0.664616	-0.327991
H72	H	1.091615	-0.460627	-0.917360
F73	F	1.062970	-1.145525	-0.482625
H74	H	1.084287	-1.003496	-0.466245
H75	H	1.091598	-0.916797	-0.460592
H76	H	1.250280	-0.339052	-0.674273
F77	F	1.299916	-0.300974	-0.997110
F78	F	1.062933	-0.482580	-1.146071
H79	H	1.084280	-0.466247	-1.004057
