data_functionalizedCrystal
_audit_creation_method	'MofGen! by Chris Wilmer'
_symmetry_space_group_name_H-M	'P1'
_symmetry_Int_Tables_number	1
_symmetry_cell_setting	triclinic
loop_
_symmetry_equiv_pos_as_xyz
  x,y,z
_cell_length_a	14.519731
_cell_length_b	10.540510
_cell_length_c	13.596369
_cell_angle_alpha	89.996501
_cell_angle_beta	89.994584
_cell_angle_gamma	84.101082
loop_
_atom_site_label
_atom_site_type_symbol
_atom_site_fract_x
_atom_site_fract_y
_atom_site_fract_z
O1	O	1.224741	0.166531	-0.081788
O2	O	1.724741	0.666531	0.418212
O3	O	0.956370	0.186098	-0.081789
O4	O	1.456370	0.686098	0.418211
O5	O	1.096693	-0.008456	-0.081788
O6	O	1.596693	0.491544	0.418212
O7	O	1.084418	0.361086	-0.081789
O8	O	1.584418	0.861086	0.418211
O9	O	1.096678	-0.008467	0.081795
O10	O	1.596678	0.491533	0.581795
O11	O	0.956356	0.186088	0.081794
O12	O	1.456356	0.686088	0.581794
O13	O	1.224727	0.166521	0.081795
O14	O	1.724727	0.666521	0.581795
Zn15	Zn	1.090539	0.176303	0.107767
Zn16	Zn	1.590539	0.676303	0.607767
Zn17	Zn	1.090558	0.176316	-0.107761
Zn18	Zn	1.590558	0.676316	0.392239
O19	O	1.084404	0.361075	0.081794
O20	O	1.584404	0.861075	0.581794
C21	C	0.921999	0.185176	0.000002
C22	C	1.421999	0.685176	0.500002
C23	C	0.819604	0.182429	0.000002
C24	C	1.319604	0.682429	0.500002
C25	C	0.736448	0.180197	-0.000002
C26	C	1.236448	0.680197	0.499998
C27	C	0.632125	0.177407	-0.000002
C28	C	1.132125	0.677407	0.499998
C29	C	0.548974	0.175193	-0.000002
C30	C	1.048974	0.675193	0.499998
C31	C	0.444644	0.172404	-0.000005
C32	C	0.944644	0.672404	0.499995
C33	C	1.095771	-0.055756	0.000001
C34	C	1.595771	0.444244	0.500001
C35	C	1.093034	-0.196678	-0.000005
C36	C	1.593034	0.303322	0.499995
C37	C	1.190516	-0.415118	0.000370
C38	C	1.690516	0.084882	0.500370
C39	C	1.193435	-0.268552	-0.000003
C40	C	1.693435	0.231448	0.499997
C41	C	1.041647	-0.240912	-0.093417
C42	C	1.541647	0.259088	0.406583
C43	C	1.039439	-0.387650	-0.093490
C44	C	1.539439	0.112350	0.406510
C45	C	1.037332	-0.387449	0.092535
C46	C	1.537332	0.112551	0.592535
C47	C	1.042094	-0.241156	0.093764
C48	C	1.542094	0.258844	0.593764
C49	C	1.259098	0.167443	0.000001
C50	C	1.759098	0.667443	0.500001
C51	C	1.361493	0.170190	-0.000004
C52	C	1.861493	0.670190	0.499996
C53	C	1.085326	0.408375	0.000002
C54	C	1.585326	0.908375	0.500002
C55	C	1.088063	0.549297	0.000002
C56	C	1.588063	1.049297	0.500002
N57	N	1.090533	0.176293	0.254859
N58	N	1.590533	0.676293	0.754859
N59	N	1.090571	0.176316	-0.254853
N60	N	1.590571	0.676316	0.245147
C61	C	1.090557	0.176318	0.656150
C62	C	1.590557	0.676318	1.156150
C63	C	1.090547	0.176315	0.544498
C64	C	1.590547	0.676315	1.044498
C65	C	1.090545	0.176306	0.455508
C66	C	1.590545	0.676306	0.955508
C67	C	1.090535	0.176301	0.343849
C68	C	1.590535	0.676301	0.843849
H69	H	1.233642	-0.239619	0.066957
H70	H	1.733642	0.260381	0.566957
C71	C	0.929921	-0.104560	-0.184888
C72	C	1.429921	0.395440	0.315112
C73	C	0.941871	-0.175920	-0.098122
C74	C	1.441871	0.324080	0.401878
H75	H	0.868323	-0.064440	-0.187792
H76	H	1.368323	0.435560	0.312208
H77	H	0.972134	-0.041447	-0.185747
H78	H	1.472134	0.458553	0.314253
H79	H	0.941188	-0.159405	-0.239969
H80	H	1.441188	0.340595	0.260031
H81	H	0.930611	-0.121073	-0.043041
H82	H	1.430611	0.378927	0.456959
H83	H	0.899645	-0.239040	-0.097254
H84	H	1.399645	0.260960	0.402746
C85	C	1.120487	-0.307815	-0.242766
C86	C	1.620487	0.192185	0.257234
C87	C	1.089835	-0.199753	-0.187269
C88	C	1.589835	0.300247	0.312731
H89	H	1.150233	-0.282404	-0.300707
H90	H	1.650233	0.217596	0.199293
H91	H	1.162965	-0.362366	-0.204976
H92	H	1.662965	0.137634	0.295024
H93	H	1.069044	-0.351949	-0.260266
H94	H	1.569044	0.148051	0.239734
H95	H	1.141278	-0.155624	-0.169763
H96	H	1.641278	0.344376	0.330237
H97	H	1.047354	-0.145180	-0.225067
H98	H	1.547354	0.354820	0.274933
H99	H	1.229625	-0.457473	0.067361
H100	H	1.729625	0.042527	0.567361
C101	C	1.334164	-0.441972	-0.088391
C102	C	1.834164	0.058028	0.411609
C103	C	1.243028	-0.474355	-0.089556
C104	C	1.743028	0.025645	0.410444
H105	H	1.366580	-0.478549	-0.143907
H106	H	1.866580	0.021451	0.356093
H107	H	1.333667	-0.351838	-0.090589
H108	H	1.833667	0.148162	0.409411
H109	H	1.364057	-0.473590	-0.029891
H110	H	1.864057	0.026410	0.470109
H111	H	1.213132	-0.442728	-0.148053
H112	H	1.713132	0.057272	0.351947
H113	H	1.243521	-0.564508	-0.087367
H114	H	1.743521	-0.064508	0.412633
C115	C	0.925453	-0.489065	-0.184132
C116	C	1.425453	0.010935	0.315868
C117	C	0.938074	-0.417691	-0.099228
C118	C	1.438074	0.082309	0.400772
H119	H	0.862877	-0.507615	-0.187675
H120	H	1.362877	-0.007615	0.312325
H121	H	0.939771	-0.441510	-0.240450
H122	H	1.439771	0.058490	0.259550
H123	H	0.965142	-0.566489	-0.181842
H124	H	1.465142	-0.066489	0.318158
H125	H	0.898389	-0.340262	-0.101522
H126	H	1.398389	0.159738	0.398478
H127	H	0.923745	-0.465247	-0.042896
H128	H	1.423745	0.034753	0.457104
C129	C	1.012448	-0.500668	0.241867
C130	C	1.512448	-0.000668	0.741867
C131	C	1.080158	-0.445176	0.188121
C132	C	1.580158	0.054824	0.688121
H133	H	1.038897	-0.536313	0.300871
H134	H	1.538897	-0.036313	0.800871
H135	H	0.963227	-0.437425	0.257462
H136	H	1.463227	0.062575	0.757462
H137	H	0.989313	-0.565916	0.203722
H138	H	1.489313	-0.065916	0.703722
H139	H	1.103288	-0.379920	0.226264
H140	H	1.603288	0.120080	0.726264
H141	H	1.129396	-0.508425	0.172529
H142	H	1.629396	-0.008425	0.672529
H143	H	1.079486	-0.212927	0.162870
H144	H	1.579486	0.287073	0.662870
C145	C	0.879553	-0.265197	0.100224
C146	C	1.379553	0.234803	0.600224
C147	C	0.943137	-0.173928	0.101380
C148	C	1.443137	0.326072	0.601380
H149	H	0.818460	-0.223690	0.104925
H150	H	1.318460	0.276310	0.604925
H151	H	0.885881	-0.312257	0.040609
H152	H	1.385881	0.187743	0.540609
H153	H	0.891188	-0.321530	0.154368
H154	H	1.391188	0.178470	0.654368
H155	H	0.931506	-0.117600	0.047231
H156	H	1.431506	0.382400	0.547231
H157	H	0.936806	-0.126846	0.161002
H158	H	1.436806	0.373154	0.661002
H159	H	1.074569	-0.428216	-0.163316
H160	H	1.574569	0.071784	0.336684
H161	H	1.233887	-0.240551	-0.067080
H162	H	1.733887	0.259449	0.432920
H163	H	0.961951	-0.408838	0.093164
H164	H	1.461951	0.091162	0.593164
