data_functionalizedCrystal
_audit_creation_method	'MofGen! by Chris Wilmer'
_symmetry_space_group_name_H-M	'P1'
_symmetry_Int_Tables_number	1
_symmetry_cell_setting	triclinic
loop_
_symmetry_equiv_pos_as_xyz
  x,y,z
_cell_length_a	14.971486
_cell_length_b	14.421503
_cell_length_c	14.971506
_cell_angle_alpha	90.005875
_cell_angle_beta	96.381742
_cell_angle_gamma	90.002684
loop_
_atom_site_label
_atom_site_type_symbol
_atom_site_fract_x
_atom_site_fract_y
_atom_site_fract_z
O1	O	1.186959	0.077002	-0.116549
O2	O	0.926559	0.077027	-0.130508
O3	O	1.063729	0.077011	0.006670
O4	O	1.049789	0.077017	-0.253727
O5	O	1.063706	-0.077212	0.006650
O6	O	0.926537	-0.077197	-0.130528
O7	O	1.186936	-0.077222	-0.116570
Cu8	Cu	1.056734	-0.091291	-0.123551
Cu9	Cu	1.056761	0.091096	-0.123527
O10	O	1.049766	-0.077206	-0.253748
C11	C	0.893223	-0.000082	-0.129894
C12	C	0.793926	-0.000072	-0.128023
N13	N	1.056722	-0.219572	-0.123567
C14	C	0.736707	-0.000072	-0.208612
C15	C	0.643407	-0.000086	-0.206849
C16	C	0.607329	-0.000094	-0.124496
C17	C	0.664556	-0.000097	-0.043901
C18	C	0.757853	-0.000090	-0.045665
C19	C	0.470093	-0.000110	-0.040230
C20	C	0.376789	-0.000115	-0.038466
C21	C	0.355647	-0.000106	-0.201414
C22	C	0.448944	-0.000099	-0.203178
C23	C	0.506165	-0.000100	-0.122582
C24	C	0.993283	-0.469219	-0.186970
C25	C	1.074126	-0.531029	-0.204417
C26	C	1.056744	-0.408734	-0.123546
C27	C	0.975922	-0.531018	-0.106120
C28	C	1.056757	-0.591455	-0.123527
C29	C	1.137627	-0.469183	-0.141033
C30	C	1.039369	-0.469166	-0.042701
C31	C	1.120271	-0.530948	-0.060114
C32	C	1.056734	-0.303473	-0.123559
C33	C	1.056776	-0.696714	-0.123514
C34	C	1.220272	-0.000111	-0.117184
C35	C	1.319569	-0.000115	-0.119054
C36	C	1.063091	-0.000099	0.039984
C37	C	1.061213	-0.000095	0.139281
N38	N	1.056781	0.219377	-0.123503
C39	C	1.050404	-0.000094	-0.287062
C40	C	1.052282	-0.000092	-0.386358
C41	C	1.134631	-0.000103	0.577563
C42	C	1.136389	-0.000109	0.484263
C43	C	1.055796	-0.000098	0.427043
C44	C	0.973441	-0.000090	0.463127
C45	C	0.971685	-0.000090	0.556426
C46	C	0.977108	-0.000087	0.268664
C47	C	0.978864	-0.000085	0.175359
C48	C	1.141812	-0.000105	0.196501
C49	C	1.140055	-0.000105	0.289800
C50	C	1.057700	-0.000096	0.325878
H51	H	0.766074	-0.000065	-0.275673
H52	H	1.205998	-0.442136	-0.155846
H53	H	1.205681	-0.000108	0.336387
H54	H	0.635173	-0.000117	0.023151
H55	H	0.804441	-0.000090	0.019958
H56	H	0.904628	-0.000090	0.585799
H57	H	0.478316	-0.000083	-0.270236
H58	H	0.596822	-0.000084	-0.272472
H59	H	0.907566	-0.558181	-0.091390
H60	H	1.024636	-0.441972	0.025638
H61	H	1.088834	-0.558201	-0.272778
H62	H	0.939672	-0.442115	-0.240649
H63	H	1.203445	-0.000118	0.454893
H64	H	1.200259	-0.000104	0.624146
H65	H	1.174001	-0.557882	-0.006467
H66	H	0.910045	-0.000092	0.298035
H67	H	0.309053	-0.000109	-0.267037
H68	H	1.208869	-0.000027	0.167122
H69	H	0.913239	-0.000081	0.128772
H70	H	0.907821	-0.000087	0.416531
H71	H	0.347417	-0.000123	0.028593
H72	H	0.516680	-0.000112	0.025399
