data_functionalizedCrystal
_audit_creation_method	'MofGen! by Chris Wilmer'
_symmetry_space_group_name_H-M	'P1'
_symmetry_Int_Tables_number	1
_symmetry_cell_setting	triclinic
loop_
_symmetry_equiv_pos_as_xyz
  x,y,z
_cell_length_a	14.853569
_cell_length_b	14.853559
_cell_length_c	9.730223
_cell_angle_alpha	90.000855
_cell_angle_beta	90.001765
_cell_angle_gamma	83.633509
loop_
_atom_site_label
_atom_site_type_symbol
_atom_site_fract_x
_atom_site_fract_y
_atom_site_fract_z
O1	O	1.196355	0.117707	-0.114220
O2	O	0.933895	0.131727	-0.114236
O3	O	1.072140	-0.006513	-0.114226
O4	O	1.058111	0.255948	-0.114230
O5	O	1.072138	-0.006509	0.114354
O6	O	0.933894	0.131731	0.114344
O7	O	1.196354	0.117711	0.114360
Zn8	Zn	1.065123	0.124721	0.150644
Zn9	Zn	1.065126	0.124717	-0.150520
O10	O	1.058109	0.255951	0.114350
C11	C	0.900306	0.131094	0.000052
C12	C	0.800222	0.129189	0.000046
C13	C	1.071505	-0.040100	0.000061
C14	C	1.069604	-0.140184	0.000053
C15	C	0.763848	0.046178	0.000042
C16	C	0.742554	0.210411	0.000055
C17	C	0.648520	0.208625	0.000057
C18	C	0.612146	0.125614	0.000053
C19	C	0.669806	0.044389	0.000048
C20	C	0.590853	0.289848	0.000076
C21	C	0.496812	0.288065	0.000079
C22	C	0.460437	0.205053	0.000066
C23	C	0.518103	0.123825	0.000059
C24	C	0.481729	0.040813	0.000055
C25	C	0.539394	-0.040416	0.000038
C26	C	0.633430	-0.038623	0.000034
C27	C	0.366401	0.203260	0.000070
C28	C	0.387687	0.039024	0.000061
C29	C	1.061541	-0.563361	-0.124546
C30	C	1.061539	-0.563352	0.124660
C31	C	1.063333	-0.469319	0.124662
C32	C	1.064229	-0.422302	0.000057
C33	C	1.063332	-0.469319	-0.124549
C34	C	1.064221	-0.422294	0.249265
C35	C	1.066013	-0.328255	0.249272
C36	C	1.066916	-0.281237	0.124666
C37	C	1.066020	-0.328260	0.000055
C38	C	1.066916	-0.281243	-0.124550
C39	C	1.066027	-0.328265	-0.249162
C40	C	1.064235	-0.422301	-0.249155
C41	C	1.068708	-0.187201	0.124658
C42	C	1.068707	-0.187201	-0.124552
C43	C	1.229943	0.118345	0.000069
C44	C	1.330027	0.120249	0.000066
C45	C	1.058744	0.289538	0.000060
C46	C	1.060645	0.389622	0.000058
N47	N	1.065129	0.124724	0.356180
N48	N	1.065128	0.124707	-0.356056
C49	C	1.126359	0.063532	0.428111
C50	C	1.126357	0.063521	0.571994
C51	C	1.003891	0.185902	0.572003
C52	C	1.003889	0.185908	0.428123
C53	C	1.187598	0.002348	0.356168
C54	C	1.248834	-0.058849	0.428099
C55	C	1.248832	-0.058860	0.571982
C56	C	1.187593	0.002326	0.643934
H57	H	0.358079	-0.028574	0.000050
H58	H	1.066741	-0.289978	0.350739
H59	H	0.954029	0.235736	0.369557
C60	C	1.268215	-0.181528	0.266334
C61	C	1.316122	-0.126140	0.349044
H62	H	1.309753	-0.223078	0.217535
H63	H	1.230641	-0.213992	0.322475
H64	H	1.231773	-0.145073	0.202880
H65	H	1.352560	-0.162594	0.412504
H66	H	1.353713	-0.093673	0.292897
H67	H	0.509766	-0.108003	0.000027
C68	C	1.369887	-0.179822	0.557513
C69	C	1.316138	-0.126125	0.651050
H70	H	1.411445	-0.221344	0.606327
H71	H	1.332327	-0.212319	0.501390
H72	H	1.402351	-0.142217	0.501400
H73	H	1.283669	-0.163730	0.707156
H74	H	1.353703	-0.093626	0.707196
C75	C	1.272563	0.020708	0.150077
C76	C	1.187605	0.002354	0.198011
H77	H	1.272567	0.020708	0.052438
H78	H	1.284950	0.078349	0.182633
H79	H	1.317787	-0.024496	0.182634
H80	H	1.142381	0.047563	0.165462
H81	H	1.175207	-0.055294	0.165440
H82	H	1.063510	-0.460595	-0.350607
C83	C	0.991805	-0.148248	-0.336965
C84	C	1.069679	-0.135536	-0.261537
H85	H	0.992401	-0.116351	-0.421533
H86	H	0.990625	-0.210979	-0.354767
H87	H	0.939575	-0.126018	-0.285755
H88	H	1.121910	-0.157771	-0.312744
H89	H	1.070868	-0.072791	-0.243739
H90	H	1.066750	-0.289971	-0.350615
H91	H	0.680389	-0.104755	0.000024
C92	C	1.058799	-0.707511	-0.235212
C93	C	1.060559	-0.615041	-0.261516
H94	H	1.058187	-0.739413	-0.319774
H95	H	1.111035	-0.729726	-0.184024
H96	H	1.005972	-0.716104	-0.184017
H97	H	1.113390	-0.606447	-0.312703
H98	H	1.008318	-0.592819	-0.312727
C99	C	0.485219	0.450586	0.000080
C100	C	0.433432	0.377349	0.000080
H101	H	0.446088	0.505705	0.000068
H102	H	0.522337	0.447868	0.079789
H103	H	0.522344	0.447860	-0.079634
H104	H	0.396312	0.380071	0.079800
H105	H	0.396299	0.380068	-0.079637
H106	H	0.620476	0.357431	0.000088
C107	C	0.810945	-0.093270	0.117519
C108	C	0.827224	-0.043109	0.000021
H109	H	0.850067	-0.148394	0.117497
H110	H	0.821999	-0.059243	0.197217
H111	H	0.749730	-0.106202	0.117513
H112	H	0.888437	-0.030171	0.000032
H113	H	0.816176	-0.077143	-0.079698
C114	C	1.120909	0.068939	0.850052
C115	C	1.187585	0.002311	0.802094
H116	H	1.120904	0.068925	0.947691
H117	H	1.133319	0.126577	0.817521
H118	H	1.063282	0.056488	0.817484
H119	H	1.245214	0.014766	0.834653
H120	H	1.175181	-0.055340	0.834638
C121	C	0.986231	-0.441240	0.461668
C122	C	1.063239	-0.473987	0.386213
H123	H	0.985627	-0.473165	0.546209
H124	H	0.987426	-0.378516	0.479522
H125	H	0.933413	-0.449843	0.410450
H126	H	1.116057	-0.465378	0.437426
H127	H	1.062052	-0.536726	0.368362
C128	C	0.877251	0.286071	0.000074
C129	C	0.782534	0.301654	0.000072
H130	H	0.901933	0.342404	0.000078
H131	H	0.897028	0.252624	0.079775
H132	H	0.897027	0.252628	-0.079647
H133	H	0.762758	0.335091	0.079799
H134	H	0.762750	0.335115	-0.079638
C135	C	0.248288	0.296527	-0.117410
C136	C	0.303013	0.292535	0.000090
H137	H	0.209152	0.351643	-0.117391
H138	H	0.285413	0.293824	-0.197106
H139	H	0.213173	0.246828	-0.117405
H140	H	0.338133	0.342231	0.000080
H141	H	0.265884	0.295247	0.079807
C142	C	1.058812	-0.707502	0.235309
C143	C	1.060568	-0.615032	0.261621
H144	H	1.058223	-0.739409	0.319868
H145	H	1.005984	-0.716099	0.184135
H146	H	1.111048	-0.729711	0.184096
H147	H	1.008328	-0.592821	0.312825
H148	H	1.113401	-0.606430	0.312816
C149	C	1.068489	-0.196637	0.370986
C150	C	1.069668	-0.135512	0.261618
H151	H	1.069083	-0.164726	0.455543
H152	H	1.015267	-0.226507	0.365778
H153	H	1.120330	-0.240125	0.365821
H154	H	1.017823	-0.092028	0.266777
H155	H	1.122896	-0.105628	0.266829
H156	H	0.954034	0.235718	0.630596
