data_functionalizedCrystal
_audit_creation_method	'MofGen! by Chris Wilmer'
_symmetry_space_group_name_H-M	'P1'
_symmetry_Int_Tables_number	1
_symmetry_cell_setting	triclinic
loop_
_symmetry_equiv_pos_as_xyz
  x,y,z
_cell_length_a	23.532361
_cell_length_b	23.532357
_cell_length_c	10.868271
_cell_angle_alpha	89.989339
_cell_angle_beta	89.999961
_cell_angle_gamma	82.828980
loop_
_atom_site_label
_atom_site_type_symbol
_atom_site_fract_x
_atom_site_fract_y
_atom_site_fract_z
O1	O	0.755264	0.069011	-0.102214
O2	O	0.589395	0.079042	-0.102245
O3	O	0.677346	-0.008908	-0.102203
O4	O	0.667313	0.156961	-0.102256
O5	O	0.677339	-0.008912	0.102442
O6	O	0.589388	0.079038	0.102400
O7	O	0.755257	0.069007	0.102431
Zn8	Zn	0.672321	0.074022	0.134907
Zn9	Zn	0.672331	0.074027	-0.134721
O10	O	0.667306	0.156957	0.102389
C11	C	0.568175	0.078789	0.000074
C12	C	0.504957	0.078034	0.000063
C13	C	0.231718	0.074732	-0.111481
C14	C	0.291117	0.075447	-0.111484
O15	O	0.321846	0.075798	-0.206353
N16	N	0.320819	0.075806	0.000068
C17	C	0.291119	0.075445	0.111631
O18	O	0.321837	0.075815	0.206514
C19	C	0.231721	0.074726	0.111633
C20	C	0.202021	0.074372	0.000073
C21	C	0.202018	0.074378	-0.223031
C22	C	0.142622	0.073664	-0.223027
C23	C	0.112926	0.073304	-0.111473
C24	C	0.142626	0.073658	0.000077
C25	C	0.202022	0.074360	0.223194
C26	C	0.142620	0.073641	0.223187
C27	C	0.112921	0.073287	0.111627
C28	C	0.053534	0.072585	0.111635
N29	N	0.023832	0.072225	0.000083
C30	C	0.053528	0.072585	-0.111471
C31	C	0.415859	0.076954	0.111618
C32	C	0.475255	0.077677	0.111618
C33	C	0.475249	0.077678	-0.111498
C34	C	0.415851	0.076959	-0.111496
C35	C	0.386157	0.076594	0.000066
C36	C	-0.071207	0.071087	-0.111455
C37	C	-0.130608	0.070375	-0.111442
C38	C	-0.130597	0.070371	0.111673
C39	C	-0.071202	0.071086	0.111660
C40	C	-0.041508	0.071441	0.000086
O41	O	0.022767	0.072230	0.206455
O42	O	0.022804	0.072207	-0.206339
C43	C	0.677092	-0.030127	0.000123
C44	C	0.676337	-0.093345	0.000134
C45	C	0.671604	-0.485354	-0.111485
C46	C	0.670887	-0.544753	-0.111492
O47	O	0.670500	-0.575468	-0.206362
N48	N	0.670527	-0.574466	0.000058
C49	C	0.670879	-0.544776	0.111623
O50	O	0.670507	-0.575503	0.206504
C51	C	0.671592	-0.485377	0.111629
C52	C	0.671958	-0.455668	0.000071
C53	C	0.671969	-0.455645	-0.223033
C54	C	0.672687	-0.396249	-0.223025
C55	C	0.673041	-0.366564	-0.111469
C56	C	0.672676	-0.396273	0.000079
C57	C	0.671940	-0.455687	0.223192
C58	C	0.672653	-0.396284	0.223188
C59	C	0.673018	-0.366575	0.111631
C60	C	0.673748	-0.307192	0.111643
N61	N	0.674108	-0.277479	0.000092
C62	C	0.673754	-0.307165	-0.111464
C63	C	0.669381	-0.669517	0.111602
C64	C	0.668672	-0.728915	0.111598
C65	C	0.668678	-0.728888	-0.111518
C66	C	0.669391	-0.669490	-0.111512
C67	C	0.669740	-0.639804	0.000052
C68	C	0.675263	-0.182431	-0.111439
C69	C	0.675984	-0.123031	-0.111422
C70	C	0.675974	-0.123063	0.111693
C71	C	0.675256	-0.182458	0.111676
C72	C	0.674899	-0.212140	0.000100
O73	O	0.674133	-0.276439	0.206465
O74	O	0.674119	-0.276429	-0.206329
C75	C	0.776477	0.069260	0.000110
C76	C	0.839695	0.070015	0.000113
C77	C	0.667560	0.178176	0.000060
C78	C	0.668315	0.241394	0.000041
N79	N	0.672319	0.074019	0.318921
N80	N	0.672338	0.074026	-0.318735
C81	C	0.672328	0.074026	0.569927
C82	C	0.672321	0.074024	0.430250
H83	H	0.499430	0.077974	0.202460
H84	H	0.226193	0.074646	0.314038
H85	H	0.676282	-0.098845	-0.202269
O86	O	0.676212	-0.094175	0.220016
C87	C	0.627670	-0.020342	0.349404
C88	C	0.627330	-0.053027	0.226702
H89	H	0.588160	0.012942	0.354839
H90	H	0.627247	-0.051739	0.429200
H91	H	0.667883	0.001994	0.354976
H92	H	0.587124	-0.075365	0.221010
H93	H	0.627783	-0.021603	0.146964
O94	O	0.113703	0.073363	0.331483
C95	C	0.039926	0.121916	0.461006
C96	C	0.072619	0.122293	0.338308
H97	H	0.006712	0.161477	0.466575
H98	H	0.017523	0.081745	0.466617
H99	H	0.071375	0.122264	0.540710
H100	H	0.041209	0.121965	0.258534
H101	H	0.095031	0.162460	0.332804
H102	H	0.669666	-0.645351	0.202456
H103	H	0.391684	0.076664	0.202471
H104	H	0.118447	0.073373	-0.313871
H105	H	-0.047021	0.071385	0.202501
O106	O	-0.159463	0.069919	0.219999
C107	C	-0.219815	0.019772	0.349438
C108	C	-0.187139	0.020210	0.226729
H109	H	-0.242210	-0.020407	0.354909
H110	H	-0.188411	0.020110	0.429228
H111	H	-0.253051	0.059317	0.354984
H112	H	-0.153903	-0.019328	0.221063
H113	H	-0.218578	0.019901	0.146998
O114	O	0.672914	-0.367430	-0.331460
C115	C	0.623755	-0.342622	-0.522181
C116	C	0.623436	-0.375252	-0.399381
H117	H	0.583763	-0.348944	-0.577141
H118	H	0.624281	-0.295046	-0.503198
H119	H	0.663488	-0.359752	-0.577153
H120	H	0.583710	-0.358170	-0.344348
H121	H	0.622940	-0.422824	-0.418450
H122	H	0.674969	-0.206591	-0.202295
O123	O	0.671526	-0.484488	-0.331376
C124	C	0.621406	-0.544814	-0.460892
C125	C	0.621823	-0.512169	-0.338153
H126	H	0.581231	-0.567212	-0.466400
H127	H	0.621752	-0.513388	-0.540653
H128	H	0.660956	-0.578043	-0.466452
H129	H	0.582280	-0.478939	-0.332474
H130	H	0.621506	-0.543630	-0.258451
O131	O	0.674837	-0.211378	0.219957
C132	C	0.624667	-0.271686	0.349462
C133	C	0.625079	-0.238974	0.226780
H134	H	0.584436	-0.293995	0.355031
H135	H	0.664167	-0.304980	0.355045
H136	H	0.625077	-0.240261	0.429182
H137	H	0.624649	-0.270355	0.146991
H138	H	0.585583	-0.205672	0.221305
H139	H	0.669688	-0.645304	-0.202352
H140	H	0.499439	0.077970	-0.202331
H141	H	0.226191	0.074669	-0.313877
H142	H	0.668383	-0.753101	0.202439
O143	O	-0.159366	0.070006	-0.219926
C144	C	-0.153096	0.070119	-0.441225
C145	C	-0.120459	0.070525	-0.318462
H146	H	-0.121656	0.070550	-0.520923
H147	H	-0.175442	0.029913	-0.446876
H148	H	-0.186367	0.109638	-0.446751
H149	H	-0.087162	0.031033	-0.312852
H150	H	-0.098154	0.110757	-0.312862
H151	H	0.671644	-0.479866	0.314034
H152	H	0.391674	0.076671	-0.202338
O153	O	0.668228	-0.757742	-0.219856
C154	C	0.618090	-0.818080	-0.349304
C155	C	0.618520	-0.785417	-0.226590
H156	H	0.577911	-0.840474	-0.354777
H157	H	0.618433	-0.786666	-0.429089
H158	H	0.657635	-0.851315	-0.354858
H159	H	0.578981	-0.752182	-0.220916
H160	H	0.618206	-0.816866	-0.146864
H161	H	0.672929	-0.372116	0.314039
H162	H	-0.047037	0.071377	-0.202309
