data_functionalizedCrystal
_audit_creation_method	'MofGen! by Chris Wilmer'
_symmetry_space_group_name_H-M	'P1'
_symmetry_Int_Tables_number	1
_symmetry_cell_setting	triclinic
loop_
_symmetry_equiv_pos_as_xyz
  x,y,z
_cell_length_a	19.121215
_cell_length_b	19.121449
_cell_length_c	16.625539
_cell_angle_alpha	92.469138
_cell_angle_beta	92.466418
_cell_angle_gamma	89.914638
loop_
_atom_site_label
_atom_site_type_symbol
_atom_site_fract_x
_atom_site_fract_y
_atom_site_fract_z
Zn1	Zn	1.083720	-0.233485	0.497694
Zn2	Zn	1.088629	-0.350731	0.357361
Zn3	Zn	0.966478	-0.238499	0.356872
Zn4	Zn	0.971442	-0.355676	0.486154
O5	O	1.027567	-0.294598	0.424520
O6	O	1.182481	-0.244870	0.484113
O7	O	1.072402	-0.335873	0.244461
O8	O	0.977898	-0.139727	0.380176
O9	O	1.186088	-0.331010	0.381011
O10	O	1.064035	-0.136043	0.483638
O11	O	0.982658	-0.253416	0.244101
O12	O	0.869026	-0.258211	0.368987
O13	O	0.986360	-0.339438	0.600520
O14	O	0.872674	-0.344301	0.463971
O15	O	1.068850	-0.249665	0.608998
O16	O	1.077217	-0.449494	0.369822
O17	O	0.991120	-0.453128	0.464445
C18	C	0.845412	-0.302337	0.415174
C19	C	0.767485	-0.305665	0.411194
C20	C	1.035259	-0.476748	0.415953
C21	C	1.038613	-0.554670	0.412318
C22	C	0.326843	-0.326732	0.386013
C23	C	0.400063	-0.323601	0.389747
C24	C	0.434800	-0.277260	0.445374
C25	C	0.396313	-0.234042	0.497265
C26	C	0.323095	-0.237170	0.493527
C27	C	0.655780	-0.265574	0.459347
C28	C	0.729004	-0.262451	0.463083
C29	C	0.732748	-0.352010	0.355563
C30	C	0.659528	-0.355136	0.351833
C31	C	0.621047	-0.311915	0.403721
C32	C	0.509643	-0.274061	0.449194
C33	C	0.546206	-0.315112	0.399897
C34	C	0.995333	-0.593197	0.459832
C35	C	0.998488	-0.666412	0.456413
C36	C	1.044927	-0.701100	0.405485
C37	C	1.088210	-0.662569	0.357966
C38	C	1.085051	-0.589355	0.361381
C39	C	1.056706	-0.922064	0.392708
C40	C	1.059864	-0.995284	0.389299
C41	C	0.970140	-0.999123	0.487746
C42	C	0.966988	-0.925906	0.491159
C43	C	1.010268	-0.887381	0.443637
C44	C	1.048155	-0.775939	0.401991
C45	C	1.007036	-0.812545	0.447127
C46	C	1.210435	-0.286829	0.433904
C47	C	1.288362	-0.283518	0.437902
C48	C	1.027611	-0.294544	0.634834
C49	C	1.027629	-0.294521	0.724457
C50	C	1.019865	-0.111735	0.433140
C51	C	1.016583	-0.033810	0.436813
C52	C	1.027562	-0.294600	0.215029
C53	C	1.027671	-0.294419	0.125423
C54	C	1.027658	-0.294441	1.052638
C55	C	1.027648	-0.294465	0.961328
C56	C	1.027644	-0.294481	0.888551
C57	C	1.027633	-0.294505	0.797235
H58	H	0.298566	-0.364471	0.340719
C59	C	1.132656	-0.546972	0.309115
H60	H	1.124118	-0.498401	0.318435
H61	H	1.180273	-0.556912	0.322813
H62	H	1.122932	-0.559451	0.253842
C63	C	0.547853	-0.223094	0.510388
H64	H	0.514451	-0.197802	0.540759
H65	H	0.577570	-0.248737	0.545657
H66	H	0.575107	-0.191289	0.482496
H67	H	0.764087	-0.387197	0.313318
C68	C	0.434519	-0.183068	0.558456
H69	H	0.401112	-0.157776	0.588819
H70	H	0.464233	-0.208707	0.593731
H71	H	0.461774	-0.151264	0.530564
C72	C	1.099240	-0.814095	0.345976
H73	H	1.124566	-0.780666	0.318162
H74	H	1.130998	-0.841312	0.377086
H75	H	1.073665	-0.843840	0.308106
C76	C	0.767214	-0.211474	0.524275
H77	H	0.733810	-0.186177	0.554638
H78	H	0.796926	-0.237114	0.559550
H79	H	0.794470	-0.179674	0.496380
H80	H	0.624458	-0.230384	0.501602
C81	C	0.442390	-0.371136	0.332669
H82	H	0.411215	-0.399188	0.299011
H83	H	0.469798	-0.343058	0.300308
H84	H	0.472262	-0.400499	0.363478
H85	H	0.957520	-0.564958	0.501307
H86	H	0.631250	-0.392871	0.306535
C87	C	0.922532	-1.041498	0.540012
H88	H	0.894426	-1.010353	0.570836
H89	H	0.893234	-1.071407	0.506242
H90	H	0.950569	-1.068870	0.575220
C91	C	0.950881	-0.708788	0.508682
H92	H	0.922778	-0.677643	0.539509
H93	H	0.921580	-0.738695	0.474912
H94	H	0.978919	-0.736162	0.543885
H95	H	0.969222	-0.784300	0.488590
C96	C	1.110954	-1.033443	0.333284
H97	H	1.106643	-1.082564	0.338068
H98	H	1.100211	-1.021930	0.279127
H99	H	1.157535	-1.019383	0.348117
C100	C	0.280765	-0.189640	0.550610
H101	H	0.311939	-0.161598	0.584281
H102	H	0.250893	-0.160278	0.519807
H103	H	0.253357	-0.217724	0.582970
H104	H	0.517920	-0.352840	0.354604
C105	C	0.915894	-0.887755	0.547168
H106	H	0.890562	-0.921187	0.574969
H107	H	0.941454	-0.858003	0.585036
H108	H	0.884132	-0.860546	0.516044
H109	H	1.091948	-0.890703	0.354016
H110	H	1.126019	-0.690818	0.316495
