data_functionalizedCrystal
_audit_creation_method	'MofGen! by Chris Wilmer'
_symmetry_space_group_name_H-M	'P1'
_symmetry_Int_Tables_number	1
_symmetry_cell_setting	triclinic
loop_
_symmetry_equiv_pos_as_xyz
  x,y,z
_cell_length_a	10.686220
_cell_length_b	12.594509
_cell_length_c	10.686285
_cell_angle_alpha	94.395035
_cell_angle_beta	89.654406
_cell_angle_gamma	94.349925
loop_
_atom_site_label
_atom_site_type_symbol
_atom_site_fract_x
_atom_site_fract_y
_atom_site_fract_z
Zn1	Zn	1.956166	-0.452682	0.352049
Zn2	Zn	1.972164	-0.260120	0.561852
Zn3	Zn	1.746397	-0.287226	0.368217
Zn4	Zn	1.762492	-0.450569	0.577871
O5	O	1.859305	-0.362649	0.464997
O6	O	2.133826	-0.416680	0.366410
O7	O	1.942175	-0.114769	0.536229
O8	O	1.760792	-0.321403	0.190528
O9	O	2.145580	-0.275205	0.520551
O10	O	1.914909	-0.442963	0.178649
O11	O	1.776305	-0.134683	0.393966
O12	O	1.572994	-0.319353	0.409498
O13	O	1.788223	-0.599796	0.547853
O14	O	1.584819	-0.439360	0.563530
O15	O	1.930515	-0.601349	0.381942
O16	O	1.957781	-0.273155	0.739522
O17	O	1.803736	-0.413077	0.751291
C18	C	1.533391	-0.382069	0.490008
C19	C	1.393966	-0.390400	0.500738
C20	C	1.859380	-0.640273	0.464881
C21	C	1.859412	-0.758580	0.464832
C22	C	1.782042	-0.826990	0.555021
C23	C	1.898858	-0.888818	0.576878
C24	C	1.742681	-0.907551	0.442892
C25	C	1.976292	-0.818842	0.486744
C26	C	1.820034	-0.837576	0.352711
C27	C	1.936925	-0.899371	0.374518
C28	C	2.186491	-0.343154	0.439890
C29	C	2.325918	-0.334847	0.429191
C30	C	1.884275	-0.339966	0.790920
C31	C	1.895073	-0.330291	0.930343
C32	C	1.859295	-0.086108	0.465017
C33	C	1.859478	0.032188	0.464695
C34	C	1.834271	-0.385442	0.137799
C35	C	1.823603	-0.395155	-0.001633
H36	H	1.374329	-0.280903	0.359729
H37	H	1.716677	-0.795225	0.631397
H38	H	1.643934	-0.946218	0.424391
H39	H	1.964516	-0.267345	0.978773
C40	C	1.794797	-0.549490	0.852131
C41	C	1.729856	-0.480128	0.933006
H42	H	1.736920	-0.601953	0.811781
H43	H	1.838175	-0.510092	0.790784
H44	H	1.853325	-0.583479	0.898988
H45	H	1.671334	-0.446133	0.886147
H46	H	1.686458	-0.519532	0.994361
H47	H	2.075075	-0.780296	0.505353
C48	C	1.198525	-0.457659	0.587342
C49	C	1.328630	-0.463218	0.594510
H50	H	1.158186	-0.502621	0.645229
H51	H	1.178481	-0.386124	0.607235
H52	H	1.170671	-0.480482	0.504702
H53	H	1.356486	-0.440389	0.677148
H54	H	1.348684	-0.534769	0.574625
H55	H	1.932201	-0.911648	0.671637
H56	H	2.002464	-0.930927	0.298184
H57	H	1.786659	-0.814723	0.257982
