data_functionalizedCrystal
_audit_creation_method	'MofGen! by Chris Wilmer'
_symmetry_space_group_name_H-M	'P1'
_symmetry_Int_Tables_number	1
_symmetry_cell_setting	triclinic
loop_
_symmetry_equiv_pos_as_xyz
  x,y,z
_cell_length_a	6.817900
_cell_length_b	12.850268
_cell_length_c	17.370321
_cell_angle_alpha	104.778941
_cell_angle_beta	92.689897
_cell_angle_gamma	91.777450
loop_
_atom_site_label
_atom_site_type_symbol
_atom_site_fract_x
_atom_site_fract_y
_atom_site_fract_z
V1	V	3.786418	0.020772	-0.243325
O2	O	3.836476	-0.129043	-0.242339
O3	O	3.683826	0.164335	-0.238155
O4	O	3.658632	-0.035732	-0.351047
O5	O	3.861845	0.072409	-0.128665
V6	V	4.287355	0.009491	-0.230037
O7	O	4.009478	0.045517	-0.272474
O8	O	4.514492	-0.015255	-0.200888
O9	O	4.166741	-0.134073	-0.235207
O10	O	4.354694	0.159305	-0.231023
O11	O	4.329325	-0.042147	-0.344697
O12	O	4.191935	0.065994	-0.122315
C13	C	3.518225	0.201088	-0.233415
C14	C	3.515042	0.320290	-0.229841
C15	C	3.486075	-0.054118	-0.377416
C16	C	3.462520	-0.099365	-0.465457
C17	C	3.995710	-0.170820	-0.239949
C18	C	3.977736	-0.290027	-0.243541
V19	V	3.772664	0.510546	-0.231250
O20	O	3.811074	0.662035	-0.234134
O21	O	3.678538	0.363262	-0.232189
O22	O	3.703058	0.563307	-0.119271
O23	O	3.786384	0.460605	-0.347833
V24	V	4.258652	0.540483	-0.265813
O25	O	4.010800	0.494513	-0.212045
O26	O	4.464679	0.573420	-0.304298
O27	O	4.132563	0.679385	-0.255315
O28	O	4.336065	0.393401	-0.267957
O29	O	4.360755	0.594831	-0.154258
O30	O	4.108043	0.479340	-0.368233
C31	C	4.027836	0.084385	-0.095941
C32	C	4.030632	0.129628	-0.007900
C33	C	3.546319	0.575465	-0.085803
C34	C	3.569295	0.620691	0.002251
C35	C	3.628548	-0.117416	-0.510709
C36	C	3.606445	-0.159944	-0.593432
C37	C	3.418311	-0.184414	-0.630901
C38	C	3.252271	-0.166364	-0.585642
C39	C	3.274377	-0.123843	-0.502920
C40	C	3.932637	0.454530	-0.387287
C41	C	3.889183	0.408517	-0.474451
C42	C	3.854317	0.154098	0.029560
C43	C	3.856957	0.196619	0.112284
C44	C	4.035915	0.214676	0.157544
C45	C	4.212243	0.190200	0.120077
C46	C	4.209600	0.147673	0.037357
C47	C	4.062868	0.341514	0.405362
C48	C	4.065498	0.384048	0.488088
C49	C	3.710210	0.390461	0.480288
C50	C	3.707584	0.347939	0.397565
C51	C	3.883911	0.323462	0.360107
N52	N	4.038619	0.258142	0.242100
N53	N	3.881204	0.279989	0.275553
C54	C	3.757215	0.645426	0.039874
C55	C	3.778831	0.687935	0.122608
C56	C	3.612524	0.705701	0.167718
C57	C	3.424589	0.680965	0.130090
C58	C	3.402975	0.638464	0.047356
H59	H	3.781752	-0.097495	-0.480214
F60	F	4.250535	0.315498	0.365503
H61	H	3.289191	0.695437	0.166831
F62	F	3.052054	-0.192402	-0.625531
F63	F	3.097651	-0.104627	-0.454768
F64	F	3.783180	-0.179141	-0.641586
H65	H	3.561857	0.333244	0.360719
H66	H	4.353174	0.127752	0.006857
H67	H	3.708589	0.139403	-0.007285
H68	H	4.357953	0.204899	0.156936
H69	H	3.400339	-0.219036	-0.698259
F70	F	3.522563	0.416512	0.520160
F71	F	4.255979	0.403264	0.536256
F72	F	3.934240	0.626522	-0.008122
H73	H	3.931871	0.708066	0.153233
F74	F	3.635558	0.750934	0.255771
H75	H	3.713385	0.216552	0.142779
H76	H	3.249947	0.618322	0.016731
