data_functionalizedCrystal
_audit_creation_method	'MofGen! by Chris Wilmer'
_symmetry_space_group_name_H-M	'P1'
_symmetry_Int_Tables_number	1
_symmetry_cell_setting	triclinic
loop_
_symmetry_equiv_pos_as_xyz
  x,y,z
_cell_length_a	11.026607
_cell_length_b	11.026607
_cell_length_c	10.065918
_cell_angle_alpha	97.653451
_cell_angle_beta	97.708363
_cell_angle_gamma	108.586017
loop_
_atom_site_label
_atom_site_type_symbol
_atom_site_fract_x
_atom_site_fract_y
_atom_site_fract_z
O1	O	1.747087	0.553904	0.113491
O2	O	1.380508	0.493141	0.113493
O3	O	1.533415	0.340232	0.113487
O4	O	1.594180	0.706814	0.113497
O5	O	1.492688	0.299659	-0.113502
O6	O	1.339781	0.452569	-0.113496
O7	O	1.706360	0.513332	-0.113498
Zn8	Zn	1.516604	0.476508	-0.149536
Zn9	Zn	1.570264	0.529965	0.149532
O10	O	1.553453	0.666241	-0.113492
C11	C	1.312485	0.461645	-0.000001
C12	C	1.170471	0.428228	-0.000000
C13	C	1.501842	0.272286	-0.000005
C14	C	1.468426	0.130273	-0.000000
C15	C	1.116822	0.520499	0.000003
C16	C	0.970043	0.485963	0.000004
C17	C	1.560696	0.076624	0.000001
C18	C	1.526161	-0.070153	0.000006
C19	C	1.774384	0.544828	-0.000001
C20	C	1.916399	0.578247	0.000007
C21	C	1.585027	0.734187	0.000004
C22	C	1.618444	0.876202	0.000008
N23	N	1.479992	0.440027	-0.353642
C24	C	1.557517	0.517270	-0.421420
C25	C	1.529347	0.489184	-0.578588
N26	N	1.606884	0.566438	0.353637
H27	H	1.179554	0.625061	-0.000002
H28	H	1.107743	0.323671	0.000032
O29	O	1.387644	-0.153241	0.000001
H30	H	1.356143	-0.116051	0.092520
H31	H	1.723033	-0.061053	0.000110
H32	H	0.907320	0.381399	0.000036
O33	O	1.673057	0.632424	-0.344179
H34	H	1.677043	0.636422	-0.232854
H35	H	1.442118	0.402251	-0.636911
H36	H	1.694119	0.653366	-0.588041
O37	O	1.364441	0.324884	-0.430884
H38	H	1.360442	0.320899	-0.542208
H39	H	0.979125	0.682816	0.000001
H40	H	1.665257	0.139356	-0.000008
O41	O	1.329912	0.047193	-0.000008
H42	H	1.324521	-0.055058	-0.000018
