data_functionalizedCrystal
_audit_creation_method	'MofGen! by Chris Wilmer'
_symmetry_space_group_name_H-M	'P1'
_symmetry_Int_Tables_number	1
_symmetry_cell_setting	triclinic
loop_
_symmetry_equiv_pos_as_xyz
  x,y,z
_cell_length_a	16.959455
_cell_length_b	16.625545
_cell_length_c	16.959447
_cell_angle_alpha	90.030136
_cell_angle_beta	89.980656
_cell_angle_gamma	89.977015
loop_
_atom_site_label
_atom_site_type_symbol
_atom_site_fract_x
_atom_site_fract_y
_atom_site_fract_z
Zn1	Zn	1.208382	0.321008	-0.446961
Zn2	Zn	1.208290	0.455855	-0.314783
Zn3	Zn	1.076205	0.321038	-0.314793
Zn4	Zn	1.076166	0.455800	-0.446916
O5	O	1.142261	0.388425	-0.380863
O6	O	1.318981	0.338906	-0.429442
O7	O	1.190746	0.438007	-0.204173
O8	O	1.093793	0.208201	-0.332348
O9	O	1.318913	0.437978	-0.332331
O10	O	1.190904	0.208179	-0.429451
O11	O	1.093704	0.338958	-0.204180
O12	O	0.965589	0.338904	-0.332305
O13	O	1.093728	0.437883	-0.557533
O14	O	0.965561	0.437912	-0.429375
O15	O	1.190866	0.338852	-0.557566
O16	O	1.190708	0.568680	-0.332288
O17	O	1.093638	0.568639	-0.429365
C18	C	0.936895	0.388406	-0.380836
C19	C	0.849038	0.388417	-0.380844
C20	C	0.807755	0.336794	-0.330385
C21	C	0.807767	0.440046	-0.431314
C22	C	0.725221	0.440055	-0.431326
C23	C	0.683939	0.388432	-0.380867
C24	C	0.725202	0.336800	-0.330396
C25	C	0.683952	0.491681	-0.481801
C26	C	0.601401	0.491691	-0.481816
C27	C	0.560117	0.440072	-0.431352
C28	C	0.601385	0.388438	-0.380879
C29	C	0.560102	0.336815	-0.330420
C30	C	0.601369	0.285185	-0.279942
C31	C	0.683918	0.285181	-0.279933
C32	C	0.477568	0.440076	-0.431361
C33	C	0.477549	0.336821	-0.330431
C34	C	1.142180	0.597916	-0.380838
C35	C	1.142218	0.687537	-0.380853
C36	C	1.142347	1.015713	-0.380948
C37	C	1.142309	0.924404	-0.380924
C38	C	1.142282	0.851628	-0.380900
C39	C	1.142245	0.760313	-0.380877
C40	C	1.348429	0.388445	-0.380890
C41	C	1.436286	0.388454	-0.380902
C42	C	1.142303	0.388358	-0.587031
C43	C	1.142321	0.388329	-0.674888
C44	C	1.142356	1.178116	-0.380915
C45	C	1.142380	1.088495	-0.380961
C46	C	1.091866	0.336674	-1.046374
C47	C	1.192916	0.439815	-1.046354
C48	C	1.192903	0.439834	-0.963808
C49	C	1.142369	0.388273	-0.922541
C50	C	1.091849	0.336693	-0.963820
C51	C	1.243416	0.491419	-0.922523
C52	C	1.243404	0.491440	-0.839972
C53	C	1.192873	0.439875	-0.798703
C54	C	1.142352	0.388292	-0.839988
C55	C	1.091818	0.336730	-0.798721
C56	C	1.041300	0.285143	-0.840004
C57	C	1.041318	0.285127	-0.922552
C58	C	1.192855	0.439891	-0.716155
C59	C	1.091801	0.336749	-0.716167
C60	C	1.142264	0.388434	-0.175497
C61	C	1.142399	0.388235	-0.087641
H62	H	0.717571	0.533707	-0.522885
H63	H	1.284549	0.533406	-0.956128
H64	H	0.717524	0.243146	-0.238837
H65	H	0.443973	0.482108	-0.472464
H66	H	0.841358	0.294760	-0.289285
H67	H	1.050653	0.294758	-0.682574
H68	H	0.841385	0.482071	-0.472399
H69	H	1.233992	0.481887	-0.682546
O70	O	0.437572	0.286598	-0.281388
C71	C	0.446272	0.184223	-0.181239
C72	C	0.491643	0.241045	-0.236752
H73	H	0.489969	0.147391	-0.145124
H74	H	0.407680	0.142051	-0.217566
H75	H	0.407568	0.221208	-0.139889
H76	H	0.530390	0.204125	-0.278113
H77	H	0.530185	0.283220	-0.200376
O78	O	0.561352	0.235079	-0.230817
C79	C	0.535988	0.195819	-0.096431
C80	C	0.581373	0.252600	-0.151974
H81	H	0.552146	0.209976	-0.032674
H82	H	0.552263	0.130804	-0.110347
H83	H	0.469905	0.204678	-0.105157
H84	H	0.647467	0.243812	-0.143279
H85	H	0.565033	0.317594	-0.138044
O86	O	0.561441	0.541924	-0.530866
C87	C	0.570172	0.644309	-0.631001
C88	C	0.615526	0.587472	-0.575483
H89	H	0.613880	0.681137	-0.667101
H90	H	0.531520	0.686484	-0.594680
H91	H	0.531529	0.607336	-0.672365
H92	H	0.654211	0.624380	-0.534109
H93	H	0.654127	0.545295	-0.611854
O94	O	0.992286	0.235085	-0.799791
C95	C	0.947445	0.189456	-0.672619
C96	C	1.003004	0.246171	-0.718065
H97	H	0.956079	0.198411	-0.606535
H98	H	0.961362	0.124417	-0.688802
H99	H	0.883713	0.203593	-0.688885
H100	H	1.066754	0.232107	-0.701823
H101	H	0.989019	0.311193	-0.701878
O102	O	1.292404	0.541519	-0.799751
C103	C	1.337207	0.587220	-0.672574
C104	C	1.281660	0.530481	-0.718026
H105	H	1.328552	0.578304	-0.606491
H106	H	1.323298	0.652250	-0.688721
H107	H	1.400944	0.573071	-0.688869
H108	H	1.217905	0.544558	-0.701755
H109	H	1.295637	0.465468	-0.701875
H110	H	1.000188	0.243128	-0.956172
H111	H	1.050737	0.294670	-1.079990
H112	H	1.234053	0.481800	-1.079958
