data_functionalizedCrystal
_audit_creation_method	'MofGen! by Chris Wilmer'
_symmetry_space_group_name_H-M	'P1'
_symmetry_Int_Tables_number	1
_symmetry_cell_setting	triclinic
loop_
_symmetry_equiv_pos_as_xyz
  x,y,z
_cell_length_a	19.188925
_cell_length_b	12.837942
_cell_length_c	11.295443
_cell_angle_alpha	94.173332
_cell_angle_beta	85.387983
_cell_angle_gamma	91.014256
loop_
_atom_site_label
_atom_site_type_symbol
_atom_site_fract_x
_atom_site_fract_y
_atom_site_fract_z
O1	O	0.939628	-0.135565	-0.099052
O2	O	0.737511	-0.152988	-0.099049
O3	O	0.834088	0.006606	-0.099043
O4	O	0.843052	-0.295159	-0.099058
O5	O	0.824862	0.019036	0.099010
O6	O	0.728286	-0.140558	0.099005
O7	O	0.930403	-0.123136	0.099001
Cu8	Cu	0.828502	-0.130712	0.117087
Cu9	Cu	0.839412	-0.145412	-0.117134
O10	O	0.833826	-0.282729	0.098996
C11	C	0.706849	-0.146209	-0.000022
C12	C	0.629228	-0.144519	-0.000020
C13	C	0.073105	-0.226841	-0.000027
C14	C	0.146038	-0.228439	-0.000034
C15	C	0.184549	-0.134795	-0.000027
C16	C	0.150123	-0.039547	-0.000044
C17	C	0.077191	-0.037952	-0.000050
N18	N	0.297436	-0.062769	0.067395
N19	N	0.366717	-0.064290	0.067403
C20	C	0.404287	-0.139594	-0.000013
N21	N	0.369957	-0.213335	-0.067422
N22	N	0.300669	-0.211816	-0.067424
C23	C	0.263631	-0.136513	-0.000022
C24	C	0.517787	-0.236569	-0.000011
C25	C	0.590722	-0.238164	-0.000025
C26	C	0.594805	-0.049268	-0.000024
C27	C	0.521872	-0.047677	-0.000022
C28	C	0.483367	-0.141330	-0.000010
C29	C	0.826447	0.051428	-0.000017
C30	C	0.817416	0.166464	-0.000019
C31	C	0.961066	-0.129914	-0.000028
C32	C	1.038687	-0.131605	-0.000038
C33	C	0.841467	-0.327551	-0.000033
C34	C	0.850498	-0.442588	-0.000039
N35	N	0.820833	-0.120372	0.281825
C36	C	0.925985	0.407916	-0.000045
C37	C	0.917503	0.516003	-0.000047
C38	C	0.791971	0.490726	-0.000033
C39	C	0.800453	0.382639	-0.000031
C40	C	0.867462	0.341238	-0.000035
C41	C	0.875943	0.233150	-0.000025
C42	C	0.750412	0.207875	-0.000019
C43	C	0.741930	0.315962	-0.000021
N44	N	0.847086	-0.155743	-0.281873
C45	C	0.765636	-0.045956	0.468860
C46	C	0.771425	-0.053766	0.344195
C47	C	0.864457	-0.179169	0.344129
C48	C	0.858667	-0.171358	0.468795
C49	C	0.809255	-0.104751	0.531156
C50	C	0.803463	-0.096946	0.655823
C51	C	0.896497	-0.222342	0.655756
C52	C	0.902286	-0.230153	0.531090
H53	H	0.618744	-0.315720	-0.000026
H54	H	0.980546	0.374208	-0.000037
H55	H	0.735906	-0.005889	0.293478
N56	N	0.712339	0.025869	0.536130
H57	H	0.685581	0.061928	0.477748
H58	H	0.736998	0.079886	0.587854
N59	N	0.750176	-0.025098	0.723085
H60	H	0.753125	-0.029070	0.811513
H61	H	0.701784	-0.047119	0.701311
N62	N	0.719705	0.535395	-0.000038
H63	H	0.690318	0.515678	0.073382
H64	H	0.697221	0.506429	-0.073503
H65	H	0.930505	0.199444	-0.000024
H66	H	0.702758	0.153574	-0.000002
N67	N	0.917757	-0.250989	0.276859
H68	H	0.914807	-0.247006	0.188432
H69	H	0.907973	-0.325051	0.298625
H70	H	0.687374	0.349685	-0.000022
H71	H	0.942518	-0.284380	0.480299
H72	H	0.965159	0.570288	-0.000059
H73	H	0.932010	-0.270225	0.706490
H74	H	0.041759	-0.303102	-0.000023
N75	N	0.040059	0.064768	-0.000052
H76	H	0.057063	0.101172	-0.073470
H77	H	0.050234	0.110311	0.073415
N78	N	0.183172	-0.331162	-0.000024
H79	H	0.147713	-0.390248	-0.000019
H80	H	0.209919	-0.331316	0.073402
H81	H	0.181483	0.036699	-0.000042
H82	H	0.626160	0.026979	-0.000027
H83	H	0.493848	0.029875	-0.000023
N84	N	0.476251	-0.337575	-0.000012
H85	H	0.509125	-0.398152	-0.000018
H86	H	0.449324	-0.345632	-0.073434
