data_functionalizedCrystal
_audit_creation_method	'MofGen! by Chris Wilmer'
_symmetry_space_group_name_H-M	'P1'
_symmetry_Int_Tables_number	1
_symmetry_cell_setting	triclinic
loop_
_symmetry_equiv_pos_as_xyz
  x,y,z
_cell_length_a	23.096457
_cell_length_b	17.052862
_cell_length_c	17.052862
_cell_angle_alpha	61.493325
_cell_angle_beta	89.997784
_cell_angle_gamma	70.263778
loop_
_atom_site_label
_atom_site_type_symbol
_atom_site_fract_x
_atom_site_fract_y
_atom_site_fract_z
Zr1	Zr	0.671028	0.816691	-0.200494
O2	O	0.607088	0.944585	-0.328619
O3	O	0.676551	0.665970	-0.146304
O4	O	0.707577	0.783773	-0.307118
O5	O	0.567604	0.860708	-0.057917
O6	O	0.802858	0.783774	-0.307122
O7	O	0.576063	0.826781	-0.167805
O8	O	0.747359	0.573045	-0.019455
O9	O	0.623102	1.071437	-0.345584
O10	O	0.767022	0.736419	-0.141213
O11	O	0.689602	0.761737	-0.059202
O12	O	0.726130	0.900436	-0.248540
O13	O	0.648710	0.925754	-0.166528
Zr14	Zr	0.809499	0.870802	-0.025242
Zr15	Zr	0.822990	0.816693	-0.200501
Zr16	Zr	0.657536	0.870800	-0.025235
Zr17	Zr	0.696568	1.019006	-0.227551
Zr18	Zr	0.783958	0.668487	0.001815
O19	O	0.803975	1.021523	-0.079433
O20	O	0.823159	0.944587	-0.328629
O21	O	0.587905	1.021521	-0.079423
O22	O	0.873439	0.742908	0.102882
O23	O	0.892622	0.665972	-0.146313
O24	O	0.657368	0.742906	0.102892
O25	O	0.912923	0.826785	-0.167820
O26	O	0.772950	0.903720	0.081381
O27	O	0.677669	0.903719	0.081385
O28	O	0.904464	0.860711	-0.057932
O29	O	0.743892	1.071438	-0.345589
O30	O	0.736635	0.616055	0.119853
O31	O	0.857425	0.616056	0.119847
O32	O	0.868149	0.573046	-0.019460
O33	O	0.612378	1.114447	-0.206276
O34	O	0.733167	1.114448	-0.206282
O35	O	0.754396	0.787057	0.022803
O36	O	0.831816	0.761739	-0.059208
O37	O	0.790924	0.925755	-0.166535
O38	O	0.713504	0.951074	-0.084523
C39	C	0.708316	0.590682	-0.079024
C40	C	0.697474	0.504794	-0.067538
C41	C	0.828560	0.209831	-0.206409
C42	C	0.838746	0.290530	-0.217207
C43	C	0.803429	0.344100	-0.179790
C44	C	0.757924	0.316963	-0.131574
C45	C	0.747734	0.236261	-0.120781
C46	C	0.722603	0.370530	-0.094163
C47	C	0.677097	0.343393	-0.045947
C48	C	0.666909	0.262698	-0.035155
C49	C	0.702226	0.209129	-0.072571
C50	C	0.732793	0.451232	-0.104956
C51	C	0.651966	0.477662	-0.019328
C52	C	0.641780	0.396963	-0.008530
C53	C	0.550182	0.843745	-0.112860
C54	C	0.485670	0.843744	-0.112857
C55	C	0.476710	0.758130	-0.056842
C56	C	0.416094	0.758129	-0.056838
C57	C	0.364440	0.843744	-0.112866
C58	C	0.373404	0.929371	-0.168885
C59	C	0.434019	0.929371	-0.168880
N60	N	0.256295	0.895799	-0.192377
N61	N	0.198715	0.895793	-0.192379
C62	C	0.181810	0.843749	-0.112882
N63	N	0.224664	0.791695	-0.033382
N64	N	0.282250	0.791698	-0.033381
C65	C	0.298711	0.843753	-0.112877
C66	C	0.107125	0.758129	-0.056858
C67	C	0.046507	0.758133	-0.056852
C68	C	0.003818	0.929375	-0.168908
C69	C	0.064435	0.929370	-0.168905
C70	C	0.116086	0.843743	-0.112881
C71	C	0.930345	0.843748	-0.112877
C72	C	0.994857	0.843749	-0.112880
C73	C	0.757139	0.776064	-0.332091
C74	C	0.762867	0.753093	-0.406493
C75	C	0.772210	1.096811	-0.146713
C76	C	0.783053	1.182699	-0.158199
C77	C	0.693621	1.030811	-0.840318
C78	C	0.688236	1.052396	-0.770416
C79	C	0.706894	0.977572	-0.679432
C80	C	0.730937	0.881159	-0.658357
C81	C	0.736318	0.859572	-0.728266
C82	C	0.749590	0.806334	-0.567380
C83	C	0.773633	0.709920	-0.546304
C84	C	0.779013	0.688337	-0.616208
C85	C	0.760356	0.763161	-0.707192
C86	C	0.744209	0.827921	-0.497471
C87	C	0.786905	0.656682	-0.385418
C88	C	0.792290	0.635097	-0.455321
C89	C	0.723387	0.911429	0.106354
C90	C	0.717660	0.934400	0.180756
C91	C	0.898398	0.590684	-0.079033
C92	C	0.952067	0.504797	-0.067549
C93	C	0.691440	0.658364	0.140198
C94	C	0.674870	0.595447	0.226087
C95	C	0.881522	0.658366	0.140189
C96	C	0.929464	0.595450	0.226075
C97	C	0.599005	1.029127	-0.365926
C98	C	0.551063	1.092043	-0.451812
C99	C	0.582129	1.096809	-0.146704
C100	C	0.528459	1.182696	-0.158187
C101	C	0.789086	1.029129	-0.365935
C102	C	0.805656	1.092045	-0.451823
C103	C	0.943450	0.451244	-0.104970
C104	C	0.993875	0.370550	-0.094198
C105	C	1.052915	0.343406	-0.045999
C106	C	1.061533	0.396967	-0.008579
C107	C	1.011109	0.477663	-0.019357
C108	C	0.700910	0.579120	0.309234
C109	C	0.685339	0.520016	0.389940
C110	C	0.643731	0.477235	0.387498
C111	C	0.617689	0.493568	0.304342
C112	C	0.633256	0.552677	0.223636
C113	C	0.992396	0.552688	0.223599
C114	C	1.037451	0.493580	0.304289
C115	C	1.019570	0.477231	0.387456
C116	C	0.956631	0.520000	0.389929
C117	C	0.911579	0.579112	0.309239
C118	C	0.488131	1.134815	-0.449337
C119	C	0.443080	1.193948	-0.530030
C120	C	0.460962	1.210301	-0.613197
C121	C	0.523900	1.167527	-0.615671
C122	C	0.568950	1.108401	-0.534979
C123	C	0.537079	1.236255	-0.120776
C124	C	0.486658	1.316965	-0.131570
C125	C	0.427618	1.344111	-0.179771
C126	C	0.419000	1.290548	-0.217188
C127	C	0.469421	1.209843	-0.206399
C128	C	0.847266	1.134809	-0.449352
C129	C	0.862847	1.193917	-0.530045
C130	C	0.836815	1.210267	-0.613209
C131	C	0.795203	1.167496	-0.615678
C132	C	0.779626	1.108383	-0.534985
H133	H	0.629851	0.240613	0.004098
Br134	Br	0.357670	1.251986	-0.526652
H135	H	0.868468	1.121509	-0.381643
Br136	Br	1.080721	0.397004	0.496957
Br137	Br	0.932374	0.497802	0.502806
H138	H	0.039216	0.688414	-0.011232
Br139	Br	0.546805	0.641924	0.019193
Br140	Br	0.826169	0.637137	0.312617
H141	H	0.769844	0.473319	-0.144214
H142	H	0.849504	1.258403	-0.678908
Br143	Br	0.548157	1.189728	-0.728548
H144	H	0.895382	0.473339	-0.144228
Br145	Br	1.016681	0.574867	0.110740
H146	H	0.774011	1.180817	-0.683402
Br147	Br	0.303303	1.045566	-0.244916
H148	H	0.875795	0.312622	-0.256465
Br149	Br	0.403928	0.641929	0.019185
H150	H	0.370923	1.312663	-0.256434
Br151	Br	0.561222	0.435500	0.301043
H152	H	0.585147	1.214162	-0.081520
H153	H	0.745742	1.073571	-0.537011
Br154	Br	0.654357	1.050353	-0.538353
H155	H	0.441310	0.999092	-0.214493
Br156	Br	0.982165	0.297875	-0.144987
H157	H	0.493686	1.360566	-0.101095
Br158	Br	0.668290	1.132345	-0.963791
H159	H	0.857308	0.166215	-0.236875
H160	H	0.811725	0.409807	-0.188585
Br161	Br	0.177225	0.641925	0.019175
H162	H	0.386567	1.409828	-0.188550
Br163	Br	0.076596	1.045567	-0.244932
H164	H	0.724632	0.906422	-0.514640
Br165	Br	-0.066279	1.045572	-0.244938
Br166	Br	0.457711	1.137161	-0.257174
Br167	Br	0.919318	1.251957	-0.526673
H168	H	0.702507	0.995153	-0.622518
Br169	Br	0.767666	0.733870	-0.802066
Br170	Br	0.399813	1.290547	-0.722702
H171	H	0.693938	0.143412	-0.063777
H172	H	0.706551	0.506726	0.457642
H173	H	0.668661	1.130896	-0.787582
H174	H	0.612051	0.565960	0.155938
H175	H	0.811866	0.556597	-0.438172
H176	H	1.093968	0.277695	-0.037229
Br177	Br	1.141663	0.360114	0.056834
H178	H	0.802095	0.595755	-0.311336
Br179	Br	0.604029	0.550363	0.031446
Br180	Br	0.811629	0.557491	-0.587604
Br181	Br	0.580030	0.360120	0.056912
H182	H	1.018134	0.521259	0.011122
Br183	Br	0.622610	0.397019	0.497037
Br184	Br	0.757383	0.637163	0.312574
H185	H	1.088695	0.458761	0.302259
Br186	Br	0.463847	1.112633	-0.336478
