data_functionalizedCrystal
_audit_creation_method	'MofGen! by Chris Wilmer'
_symmetry_space_group_name_H-M	'P1'
_symmetry_Int_Tables_number	1
_symmetry_cell_setting	triclinic
loop_
_symmetry_equiv_pos_as_xyz
  x,y,z
_cell_length_a	10.723022
_cell_length_b	14.853559
_cell_length_c	9.798715
_cell_angle_alpha	89.999043
_cell_angle_beta	89.996609
_cell_angle_gamma	84.049340
loop_
_atom_site_label
_atom_site_type_symbol
_atom_site_fract_x
_atom_site_fract_y
_atom_site_fract_z
O1	O	1.655904	0.126439	-0.113475
O2	O	1.292629	0.138544	-0.113479
O3	O	1.483975	0.001312	-0.113475
O4	O	1.464557	0.263670	-0.113478
O5	O	1.483961	0.001312	0.113507
O6	O	1.292614	0.138543	0.113503
O7	O	1.655890	0.126439	0.113507
Zn8	Zn	1.474250	0.132491	0.149544
Zn9	Zn	1.474269	0.132491	-0.149515
O10	O	1.464543	0.263670	0.113504
C11	C	1.246131	0.137663	0.000012
C12	C	1.107603	0.135028	0.000010
C13	C	1.059846	0.055892	0.000010
C14	C	0.916671	0.053167	0.000008
C15	C	1.483090	-0.032281	0.000013
C16	C	1.480460	-0.132379	0.000006
C17	C	1.469306	-0.555613	-0.123723
C18	C	1.469290	-0.555608	0.123742
C19	C	1.471773	-0.461562	0.123743
C20	C	1.473020	-0.414536	0.000010
C21	C	1.471785	-0.461558	-0.123725
C22	C	1.472995	-0.414532	0.247476
C23	C	1.475476	-0.320480	0.247482
C24	C	1.476732	-0.273454	0.123747
C25	C	1.475499	-0.320481	0.000007
C26	C	1.476746	-0.273456	-0.123727
C27	C	1.475521	-0.320482	-0.247468
C28	C	1.473041	-0.414531	-0.247461
C29	C	1.479212	-0.179405	0.123739
C30	C	1.479224	-0.179400	-0.123729
C31	C	1.702388	0.127319	0.000014
C32	C	1.840915	0.129954	0.000007
C33	C	1.465428	0.297264	0.000012
C34	C	1.468059	0.397362	0.000011
N35	N	1.474246	0.132490	0.353643
N36	N	1.474282	0.132485	-0.353615
C37	C	1.554590	0.074617	0.421422
C38	C	1.554610	0.074613	0.578584
H39	H	1.480246	-0.141120	-0.224490
N40	N	1.480521	-0.128681	0.257184
H41	H	1.479347	-0.172742	0.335568
H42	H	1.558844	-0.096494	0.262583
N43	N	0.895355	0.219718	0.000007
H44	H	0.948710	0.224355	0.084150
H45	H	0.948659	0.224300	-0.084190
N46	N	1.146076	-0.031188	0.000006
H47	H	1.236133	-0.016898	0.000007
H48	H	1.129822	-0.067464	0.084153
N49	N	1.467983	-0.606329	-0.257179
H50	H	1.469151	-0.562264	-0.335560
H51	H	1.544256	-0.652179	-0.262563
H52	H	0.875547	-0.014589	-0.000026
H53	H	1.476527	-0.282181	-0.348212
N54	N	1.645660	0.008961	0.344182
H55	H	1.632723	0.018260	0.242859
H56	H	1.734299	0.019742	0.369049
N57	N	1.021348	0.222096	0.000044
H58	H	1.037488	0.258400	0.084198
H59	H	1.037509	0.258361	-0.084142
H60	H	1.472042	-0.452828	-0.348204
N61	N	1.467961	-0.606324	0.257191
H62	H	1.466209	-0.673040	0.238417
H63	H	1.545697	-0.596714	0.311202
H64	H	1.471973	-0.452827	0.348213
N65	N	1.383159	0.198117	0.569187
H66	H	1.294498	0.187344	0.594001
H67	H	1.397970	0.262139	0.594006
N68	N	1.476806	-0.269763	0.380937
H69	H	1.475641	-0.313826	0.459319
H70	H	1.555134	-0.237580	0.386321
H71	H	1.623401	0.025069	0.636871
H72	H	1.405471	0.182033	0.411966
