data_functionalizedCrystal
_audit_creation_method	'MofGen! by Chris Wilmer'
_symmetry_space_group_name_H-M	'P1'
_symmetry_Int_Tables_number	1
_symmetry_cell_setting	triclinic
loop_
_symmetry_equiv_pos_as_xyz
  x,y,z
_cell_length_a	6.394989
_cell_length_b	16.992694
_cell_length_c	16.053802
_cell_angle_alpha	87.249047
_cell_angle_beta	92.643543
_cell_angle_gamma	88.582967
loop_
_atom_site_label
_atom_site_type_symbol
_atom_site_fract_x
_atom_site_fract_y
_atom_site_fract_z
O1	O	0.435392	1.047996	-0.069315
O2	O	0.430522	0.819664	-0.069340
O3	O	0.129434	0.937071	-0.069328
O4	O	0.736481	0.930589	-0.069327
O5	O	0.145934	0.930608	0.069530
O6	O	0.447022	0.813201	0.069519
O7	O	0.451892	1.041533	0.069543
Zn8	Zn	0.452077	0.926341	0.091578
Zn9	Zn	0.430338	0.934856	-0.091374
O10	O	0.752980	0.924126	0.069531
C11	C	0.432511	0.787158	0.000086
C12	C	0.413828	0.699930	0.000077
C13	C	0.594076	0.651470	0.000077
C14	C	0.576512	0.569510	0.000089
C15	C	0.378698	0.536010	0.000094
C16	C	0.198436	0.584476	0.000095
C17	C	0.216003	0.666435	0.000090
C18	C	0.305891	0.291692	0.000116
C19	C	0.288337	0.209727	0.000119
C20	C	0.666415	0.194766	0.000114
C21	C	0.683964	0.276728	0.000104
C22	C	0.503703	0.325186	0.000110
N23	N	0.360739	0.452234	0.000103
N24	N	0.521664	0.408961	0.000106
C25	C	0.822765	0.928639	0.000099
C26	C	1.059654	0.932556	0.000097
C27	C	0.449903	1.074039	0.000116
C28	C	0.468585	1.161268	0.000120
N29	N	0.466913	0.920535	0.216437
N30	N	0.415486	0.940668	-0.216234
C31	C	0.338851	0.970511	0.260136
C32	C	0.349250	0.966457	0.347543
C33	C	0.487723	0.912431	0.391248
C34	C	0.615790	0.862449	0.347543
C35	C	0.605379	0.866500	0.260139
C36	C	0.533141	0.894737	0.652656
C37	C	0.543548	0.890692	0.740067
C38	C	0.277004	0.994700	0.740060
C39	C	0.266614	0.998748	0.652654
C40	C	0.394673	0.948764	0.608957
N41	N	0.498361	0.908288	0.480592
N42	N	0.384023	0.952904	0.519615
H43	H	0.037372	0.557194	0.000111
C44	C	0.693932	0.831941	0.787370
C45	C	0.803805	0.789015	0.730396
C46	C	0.942323	0.734881	0.773941
H47	H	0.790043	0.859375	0.821464
H48	H	0.617237	0.796892	0.821456
H49	H	0.880496	0.824059	0.696325
H50	H	0.707749	0.761565	0.696300
H51	H	0.865627	0.699833	0.808026
H52	H	1.038419	0.762322	0.808033
H53	H	1.016874	0.705745	0.735290
C54	C	0.020211	0.719021	-0.000088
C55	C	-0.106575	0.706930	-0.071537
C56	C	-0.286946	0.755366	-0.071731
H57	H	-0.054834	0.706464	0.048279
H58	H	0.058914	0.772643	-0.000136
H59	H	-0.145280	0.653321	-0.071482
H60	H	-0.031594	0.719492	-0.119915
H61	H	-0.248243	0.808988	-0.071779
H62	H	-0.361972	0.742805	-0.023361
H63	H	-0.372983	0.747175	-0.120212
C64	C	0.766076	0.803871	0.395143
C65	C	0.747832	0.811035	0.481043
C66	C	0.886270	0.757093	0.524915
H67	H	0.732962	0.751856	0.380930
H68	H	0.905492	0.814447	0.380858
H69	H	0.608448	0.800453	0.495323
H70	H	0.780964	0.863037	0.495281
H71	H	1.025686	0.767669	0.510629
H72	H	0.853144	0.705082	0.510695
H73	H	0.873924	0.761952	0.583202
H74	H	0.709658	0.825803	0.224560
H75	H	0.755158	0.678739	0.000073
C76	C	0.110083	0.344263	-0.000057
C77	C	-0.016695	0.332166	-0.071506
C78	C	-0.197087	0.380590	-0.071699
H79	H	0.035043	0.331699	0.048310
H80	H	0.148761	0.397887	-0.000102
H81	H	-0.055375	0.278554	-0.071453
H82	H	0.058281	0.344735	-0.119884
H83	H	-0.158409	0.434215	-0.071745
H84	H	-0.272108	0.368023	-0.023330
H85	H	-0.283118	0.372395	-0.120180
C86	C	0.137848	1.049048	0.787354
C87	C	0.014380	1.097238	0.730370
C88	C	-0.113834	1.147318	0.773904
H89	H	0.049876	1.018441	0.821457
H90	H	0.222613	1.080951	0.821428
H91	H	-0.070378	1.065339	0.696310
H92	H	0.102296	1.127861	0.696264
H93	H	-0.029069	1.179221	0.807978
H94	H	-0.201792	1.116705	0.808007
H95	H	-0.197608	1.180026	0.735248
C96	C	0.188294	1.029196	0.212839
C97	C	0.078329	1.072079	0.269822
C98	C	-0.060409	1.126138	0.226285
H99	H	0.264767	1.064285	0.178732
H100	H	0.092269	1.001682	0.178769
H101	H	0.174342	1.099591	0.303878
H102	H	0.001814	1.037011	0.303931
H103	H	-0.156435	1.098625	0.192215
H104	H	0.016080	1.161222	0.192179
H105	H	-0.135051	1.155236	0.264941
C106	C	0.073592	0.173315	-0.000042
C107	C	0.043949	0.130033	-0.071491
C108	C	-0.153845	0.096487	-0.071675
H109	H	0.064436	0.139351	0.048325
H110	H	-0.031328	0.213890	-0.000083
H111	H	0.148840	0.089463	-0.071443
H112	H	0.053063	0.163980	-0.119870
H113	H	-0.258765	0.137062	-0.071715
H114	H	-0.162982	0.062526	-0.023305
H115	H	-0.173991	0.067122	-0.120155
H116	H	0.244971	1.007151	0.383122
C117	C	0.115140	1.057073	0.605320
C118	C	-0.025846	1.016001	0.555403
C119	C	-0.165835	1.069611	0.511879
H120	H	0.040196	1.086078	0.643950
H121	H	0.190770	1.092289	0.571013
H122	H	-0.101468	0.980798	0.589707
H123	H	0.049038	0.986998	0.516757
H124	H	-0.090206	1.104827	0.477572
H125	H	-0.240763	1.098613	0.550515
H126	H	-0.261498	1.041752	0.477999
H127	H	0.723290	0.530057	0.000089
H128	H	0.813173	0.155303	0.000111
H129	H	0.845044	0.303997	0.000090
H130	H	0.637416	0.854039	0.617085
