data_functionalizedCrystal
_audit_creation_method	'MofGen! by Chris Wilmer'
_symmetry_space_group_name_H-M	'P1'
_symmetry_Int_Tables_number	1
_symmetry_cell_setting	triclinic
loop_
_symmetry_equiv_pos_as_xyz
  x,y,z
_cell_length_a	15.995292
_cell_length_b	15.995343
_cell_length_c	16.176319
_cell_angle_alpha	89.988477
_cell_angle_beta	89.991411
_cell_angle_gamma	83.478900
loop_
_atom_site_label
_atom_site_type_symbol
_atom_site_fract_x
_atom_site_fract_y
_atom_site_fract_z
O1	O	1.111016	0.107697	-0.068778
O2	O	1.611016	0.607697	0.431222
O3	O	0.867234	0.121076	-0.068776
O4	O	1.367234	0.621076	0.431224
O5	O	0.995792	-0.007503	-0.068761
O6	O	1.495792	0.492497	0.431239
O7	O	0.982458	0.236276	-0.068792
O8	O	1.482458	0.736276	0.431208
O9	O	0.995775	-0.007511	0.068732
O10	O	1.495775	0.492489	0.568732
O11	O	0.867216	0.121067	0.068718
O12	O	1.367216	0.621067	0.568718
O13	O	1.110998	0.107689	0.068715
O14	O	1.610998	0.607689	0.568715
Cu15	Cu	0.989106	0.114378	0.081271
Cu16	Cu	1.489106	0.614378	0.581271
Cu17	Cu	0.989127	0.114387	-0.081331
Cu18	Cu	1.489127	0.614387	0.418669
O19	O	0.982440	0.236268	0.068701
O20	O	1.482440	0.736268	0.568701
C21	C	0.995233	-0.038702	-0.000013
C22	C	1.495233	0.461298	0.499987
C23	C	0.993584	-0.131652	-0.000006
C24	C	1.493584	0.368348	0.499994
C25	C	0.836029	0.120527	-0.000028
C26	C	1.336029	0.620527	0.499972
C27	C	0.743077	0.118895	-0.000027
C28	C	1.243077	0.618895	0.499973
C29	C	0.990590	-0.301838	-0.000025
C30	C	1.490590	0.198162	0.499975
C31	C	0.897791	-0.325164	-0.000026
C32	C	1.397791	0.174836	0.499974
C33	C	0.896045	-0.421842	-0.000347
C34	C	1.396045	0.078158	0.499653
C35	C	0.987642	-0.469397	-0.000042
C36	C	1.487642	0.030603	0.499958
C37	C	1.034313	-0.440303	-0.078400
C38	C	1.534313	0.059697	0.421600
C39	C	1.035414	-0.343511	-0.078457
C40	C	1.535414	0.156489	0.421543
C41	C	1.036752	-0.343625	0.077904
C42	C	1.536752	0.156375	0.577904
C43	C	1.033326	-0.440119	0.078925
C44	C	1.533326	0.059881	0.578925
C45	C	0.985980	-0.564095	-0.000055
C46	C	1.485980	-0.064095	0.499945
C47	C	0.992255	-0.207140	-0.000018
C48	C	1.492255	0.292860	0.499982
C49	C	0.405338	0.112893	-0.000036
C50	C	0.905338	0.612893	0.499964
C51	C	0.428648	0.205698	-0.000354
C52	C	0.928648	0.705698	0.499646
C53	C	0.525324	0.207462	-0.000041
C54	C	1.025324	0.707462	0.499959
C55	C	0.572894	0.115871	-0.000032
C56	C	1.072894	0.615871	0.499968
C57	C	0.543783	0.069469	0.078487
C58	C	1.043783	0.569469	0.578487
C59	C	0.446993	0.068351	0.078549
C60	C	0.946993	0.568351	0.578549
C61	C	0.447158	0.066466	-0.077806
C62	C	0.947158	0.566466	0.422194
C63	C	0.543650	0.069905	-0.078841
C64	C	1.043650	0.569905	0.421159
C65	C	0.667590	0.117549	-0.000027
C66	C	1.167590	0.617549	0.499973
C67	C	0.310643	0.111213	-0.000035
C68	C	0.810643	0.611213	0.499965
C69	C	1.142203	0.108238	-0.000033
C70	C	1.642203	0.608238	0.499967
C71	C	1.235156	0.109870	-0.000040
C72	C	1.735156	0.609870	0.499960
C73	C	0.982999	0.267467	-0.000049
C74	C	1.482999	0.767467	0.499951
C75	C	0.984648	0.360417	-0.000061
C76	C	1.484648	0.860417	0.499939
N77	N	0.989097	0.114370	0.195636
N78	N	1.489097	0.614370	0.695636
N79	N	0.989142	0.114388	-0.195696
N80	N	1.489142	0.614388	0.304304
C81	C	1.046040	0.057459	0.238906
C82	C	1.546040	0.557459	0.738906
C83	C	1.046044	0.057458	0.325454
C84	C	1.546044	0.557458	0.825454
C85	C	0.989109	0.114373	0.368729
C86	C	1.489109	0.614373	0.868729
C87	C	0.932160	0.171287	0.325452
C88	C	1.432160	0.671287	0.825452
C89	C	0.932152	0.171283	0.238907
C90	C	1.432152	0.671283	0.738907
C91	C	0.932189	0.171303	0.674480
C92	C	1.432189	0.671303	1.174480
C93	C	0.932202	0.171304	0.761032
C94	C	1.432202	0.671304	1.261032
C95	C	1.046080	0.057477	0.761027
C96	C	1.546080	0.557477	1.261027
C97	C	1.046073	0.057474	0.674482
C98	C	1.546073	0.557474	1.174482
C99	C	0.989121	0.114384	0.631213
C100	C	1.489121	0.614384	1.131213
C101	C	0.989116	0.114384	0.537369
C102	C	1.489116	0.614384	1.037369
C103	C	0.989117	0.114379	0.462571
C104	C	1.489117	0.614379	0.962571
H105	H	0.859504	-0.440861	0.055807
H106	H	1.359504	0.059139	0.555807
H107	H	0.400658	0.241473	-0.056664
H108	H	0.900658	0.741473	0.443336
H109	H	0.420167	0.100481	0.137236
H110	H	0.920167	0.600481	0.637236
H111	H	1.101726	-0.472163	-0.081096
H112	H	1.601726	0.027837	0.418904
H113	H	0.576623	0.003053	-0.083576
H114	H	1.076623	0.503053	0.416424
H115	H	0.399621	0.241267	0.055630
H116	H	0.899621	0.741267	0.555630
H117	H	0.885798	0.217626	0.360692
H118	H	1.385798	0.717626	0.860692
H119	H	1.003485	-0.316710	-0.137253
H120	H	1.503485	0.183290	0.362747
H121	H	0.433167	-0.001845	-0.078330
H122	H	0.933167	0.498155	0.421670
H123	H	0.885818	0.217643	0.639257
H124	H	1.385818	0.717643	1.139257
H125	H	1.092407	0.011115	0.203678
H126	H	1.592407	0.511115	0.703678
H127	H	1.002304	-0.460378	-0.136938
H128	H	1.502304	0.039622	0.363062
H129	H	1.092411	0.011116	0.360684
H130	H	1.592411	0.511116	0.860684
H131	H	1.092451	0.011135	0.796266
H132	H	1.592451	0.511135	1.296266
H133	H	1.007466	-0.315358	0.137318
H134	H	1.507466	0.184642	0.637318
H135	H	0.859701	-0.440263	-0.056850
H136	H	1.359701	0.059737	0.443150
H137	H	0.432444	0.000307	0.082123
H138	H	0.932444	0.500307	0.582123
H139	H	0.885783	0.217625	0.203677
H140	H	1.385783	0.717625	0.703677
H141	H	1.103467	-0.328951	-0.081797
H142	H	1.603467	0.171049	0.418203
H143	H	0.999340	-0.458681	0.136895
H144	H	1.499340	0.041319	0.636895
H145	H	0.544356	0.243798	-0.056328
H146	H	1.044356	0.743798	0.443672
H147	H	0.885836	0.217653	0.796265
H148	H	1.385836	0.717653	1.296265
H149	H	0.861814	-0.297157	0.056158
H150	H	1.361814	0.202843	0.556158
H151	H	0.862414	-0.296164	-0.056133
H152	H	1.362414	0.203836	0.443867
H153	H	1.100164	-0.473082	0.083891
H154	H	1.600164	0.026918	0.583891
H155	H	1.105056	-0.329619	0.078665
H156	H	1.605056	0.170381	0.578665
H157	H	0.575653	0.002070	0.081413
H158	H	1.075653	0.502070	0.581413
H159	H	0.563834	0.101686	0.136913
H160	H	1.063834	0.601686	0.636913
H161	H	0.418837	0.095477	-0.137318
H162	H	0.918837	0.595477	0.362682
H163	H	0.543719	0.244015	0.056331
H164	H	1.043719	0.744015	0.556331
H165	H	0.562226	0.103691	-0.136928
H166	H	1.062226	0.603691	0.363072
H167	H	1.092438	0.011131	0.639250
H168	H	1.592438	0.511131	1.139250
