data_functionalizedCrystal
_audit_creation_method	'MofGen! by Chris Wilmer'
_symmetry_space_group_name_H-M	'P1'
_symmetry_Int_Tables_number	1
_symmetry_cell_setting	triclinic
loop_
_symmetry_equiv_pos_as_xyz
  x,y,z
_cell_length_a	23.532407
_cell_length_b	14.519709
_cell_length_c	12.996460
_cell_angle_alpha	90.000052
_cell_angle_beta	90.000251
_cell_angle_gamma	96.735589
loop_
_atom_site_label
_atom_site_type_symbol
_atom_site_fract_x
_atom_site_fract_y
_atom_site_fract_z
O1	O	-0.755765	0.111951	-0.085425
O2	O	-0.422432	0.445284	0.247908
O3	O	-0.089099	0.778618	0.581242
O4	O	-0.589975	0.128149	-0.085453
O5	O	-0.256642	0.461482	0.247880
O6	O	0.076692	0.794816	0.581213
O7	O	-0.677266	-0.014240	-0.085448
O8	O	-0.343933	0.319093	0.247885
O9	O	-0.010599	0.652426	0.581219
O10	O	-0.668475	0.254341	-0.085431
O11	O	-0.335141	0.587674	0.247903
O12	O	-0.001808	0.921007	0.581236
O13	O	-0.677257	-0.014248	0.085686
O14	O	-0.343924	0.319085	0.419019
O15	O	-0.010590	0.652419	0.752353
O16	O	-0.589966	0.128141	0.085680
O17	O	-0.256633	0.461475	0.419014
O18	O	0.076701	0.794808	0.752347
O19	O	-0.755756	0.111943	0.085709
O20	O	-0.422423	0.445277	0.419042
O21	O	-0.089090	0.778610	0.752375
Cu22	Cu	-0.672860	0.120042	0.101320
Cu23	Cu	-0.339527	0.453375	0.434654
Cu24	Cu	-0.006194	0.786708	0.767987
Cu25	Cu	-0.672871	0.120051	-0.101065
Cu26	Cu	-0.339538	0.453384	0.232268
Cu27	Cu	-0.006204	0.786717	0.565602
O28	O	-0.668465	0.254333	0.085703
O29	O	-0.335132	0.587666	0.419037
O30	O	-0.001799	0.920999	0.752370
C31	C	-0.568753	0.127733	0.000110
C32	C	-0.235419	0.461066	0.333443
C33	C	0.097914	0.794399	0.666776
C34	C	-0.505530	0.126493	0.000098
C35	C	-0.172197	0.459826	0.333432
C36	C	0.161137	0.793159	0.666765
C37	C	-0.776979	0.112360	0.000143
C38	C	-0.443645	0.445693	0.333477
C39	C	-0.110312	0.779026	0.666810
C40	C	-0.840201	0.113600	0.000148
C41	C	-0.506868	0.446933	0.333482
C42	C	-0.173535	0.780266	0.666815
C43	C	-0.106772	0.202977	0.000150
C44	C	0.226561	0.536311	0.333483
C45	C	0.559895	0.869644	0.666816
C46	C	-0.047367	0.201825	0.000156
C47	C	0.285967	0.535159	0.333489
C48	C	0.619300	0.868492	0.666823
O49	O	-0.010942	0.272727	0.000198
O50	O	0.322391	0.606061	0.333531
O51	O	0.655725	0.939394	0.666865
N52	N	-0.024358	0.117175	0.000149
N53	N	0.308975	0.450508	0.333482
N54	N	0.642308	0.783841	0.666815
C55	C	-0.060759	0.033671	0.000146
C56	C	0.272574	0.367004	0.333479
C57	C	0.605907	0.700337	0.666813
O58	O	-0.035734	-0.038437	0.000141
O59	O	0.297599	0.294896	0.333475
O60	O	0.630932	0.628230	0.666808
C61	C	-0.120164	0.034824	0.000147
C62	C	0.213170	0.368157	0.333480
C63	C	0.546503	0.701490	0.666814
C64	C	-0.143168	0.119480	0.000144
C65	C	0.190165	0.452813	0.333477
C66	C	0.523498	0.786146	0.666810
C67	C	-0.129777	0.287626	0.000148
C68	C	0.203556	0.620960	0.333481
C69	C	0.536889	0.954293	0.666814
C70	C	-0.189179	0.288778	0.000139
C71	C	0.144155	0.622111	0.333473
C72	C	0.477488	0.955445	0.666806
C73	C	-0.225575	0.205281	0.000133
C74	C	0.107759	0.538614	0.333467
C75	C	0.441092	0.871947	0.666800
C76	C	-0.202570	0.120631	0.000136
C77	C	0.130764	0.453965	0.333469
C78	C	0.464097	0.787298	0.666802
C79	C	-0.156563	-0.048679	0.000151
C80	C	0.176770	0.284654	0.333485
C81	C	0.510103	0.617988	0.666818
C82	C	-0.215971	-0.047519	0.000153
C83	C	0.117362	0.285815	0.333487
C84	C	0.450696	0.619148	0.666820
C85	C	-0.238976	0.037137	0.000150
C86	C	0.094358	0.370471	0.333483
C87	C	0.427691	0.703804	0.666817
C88	C	-0.298367	0.038286	0.000121
C89	C	0.034966	0.371619	0.333455
C90	C	0.368300	0.704952	0.666788
N91	N	-0.321375	0.122936	0.000129
N92	N	0.011958	0.456269	0.333462
N93	N	0.345291	0.789603	0.666795
C94	C	-0.284979	0.206434	0.000135
C95	C	0.048354	0.539767	0.333468
C96	C	0.381688	0.873100	0.666801
C97	C	0.063994	0.031256	0.000145
C98	C	0.397327	0.364589	0.333479
C99	C	0.730661	0.697922	0.666812
C100	C	0.123397	0.030102	0.000137
C101	C	0.456731	0.363435	0.333470
C102	C	0.790064	0.696768	0.666803
C103	C	0.136786	0.198257	0.000149
C104	C	0.470119	0.531590	0.333482
C105	C	0.803453	0.864923	0.666815
C106	C	0.077382	0.199410	0.000150
C107	C	0.410715	0.532743	0.333483
C108	C	0.744048	0.866076	0.666817
C109	C	0.040986	0.115906	0.000152
C110	C	0.374319	0.449240	0.333486
C111	C	0.707653	0.782573	0.666819
C112	C	-0.409727	0.208846	0.000117
C113	C	-0.076393	0.542179	0.333450
C114	C	0.256940	0.875512	0.666783
C115	C	-0.469134	0.209990	0.000104
C116	C	-0.135801	0.543323	0.333438
C117	C	0.197533	0.876657	0.666771
C118	C	-0.482517	0.041836	0.000098
C119	C	-0.149184	0.375169	0.333431
C120	C	0.184149	0.708502	0.666764
C121	C	-0.423115	0.040691	0.000105
C122	C	-0.089782	0.374024	0.333438
C123	C	0.243551	0.707358	0.666771
C124	C	-0.386721	0.124204	0.000118
C125	C	-0.053388	0.457537	0.333451
C126	C	0.279946	0.790870	0.666784
O127	O	-0.334827	-0.032579	0.000084
O128	O	-0.001493	0.300754	0.333417
O129	O	0.331840	0.634087	0.666750
O130	O	-0.310012	0.278529	0.000153
O131	O	0.023321	0.611863	0.333486
O132	O	0.356654	0.945196	0.666819
C133	C	-0.676852	-0.048599	0.000114
C134	C	-0.343518	0.284734	0.333448
C135	C	-0.010185	0.618067	0.666781
C136	C	-0.675624	-0.150966	0.000100
C137	C	-0.342291	0.182367	0.333434
C138	C	-0.008957	0.515701	0.666767
C139	C	-0.668880	0.288692	0.000139
C140	C	-0.335546	0.622025	0.333472
C141	C	-0.002213	0.955358	0.666805
C142	C	-0.670107	0.391058	0.000146
C143	C	-0.336774	0.724392	0.333479
C144	C	-0.003441	1.057725	0.666813
N145	N	-0.672857	0.120035	0.243668
N146	N	-0.339524	0.453368	0.577001
N147	N	-0.006190	0.786701	0.910334
C148	C	-0.674627	0.765901	0.000106
C149	C	-0.341294	1.099234	0.333439
C150	C	-0.007961	1.432567	0.666772
C151	C	-0.673372	0.661608	0.000117
C152	C	-0.340039	0.994941	0.333451
C153	C	-0.006706	1.328274	0.666784
C154	C	-0.672368	0.578483	0.000127
C155	C	-0.339034	0.911816	0.333460
C156	C	-0.005701	1.245149	0.666793
C157	C	-0.671112	0.474183	0.000136
C158	C	-0.337779	0.807516	0.333470
C159	C	-0.004445	1.140850	0.666803
N160	N	-0.672879	0.120050	-0.243412
N161	N	-0.339546	0.453384	0.089921
N162	N	-0.006212	0.786717	0.423254
C163	C	-0.672870	0.120052	0.663482
C164	C	-0.339537	0.453385	0.996815
C165	C	-0.006204	0.786718	1.330149
C166	C	-0.672865	0.120050	0.546677
C167	C	-0.339532	0.453383	0.880010
C168	C	-0.006198	0.786717	1.213343
C169	C	-0.672864	0.120044	0.453578
C170	C	-0.339531	0.453377	0.786912
C171	C	-0.006197	0.786710	1.120245
C172	C	-0.672858	0.120041	0.336766
C173	C	-0.339525	0.453374	0.670099
C174	C	-0.006191	0.786707	1.003433
H175	H	-0.487860	0.278930	0.000101
H176	H	-0.154527	0.612263	0.333434
H177	H	0.178806	0.945597	0.666768
H178	H	-0.137844	-0.117615	0.000155
H179	H	0.195489	0.215718	0.333488
H180	H	0.528823	0.549052	0.666822
N181	N	0.052578	0.290721	0.000156
N182	N	0.385911	0.624054	0.333490
N183	N	0.719244	0.957387	0.666823
H184	H	0.028231	0.294951	0.063597
H185	H	0.361565	0.628284	0.396931
H186	H	0.694898	0.961617	0.730264
H187	H	0.028257	0.294902	-0.063323
H188	H	0.361591	0.628235	0.270010
H189	H	0.694924	0.961568	0.603343
H190	H	0.166431	0.266245	0.000158
H191	H	0.499764	0.599578	0.333492
H192	H	0.833097	0.932911	0.666825
N193	N	0.148206	-0.061205	0.000122
N194	N	0.481540	0.272128	0.333455
N195	N	0.814873	0.605462	0.666788
H196	H	0.116130	-0.113920	0.000116
H197	H	0.449464	0.219413	0.333449
H198	H	0.782797	0.552746	0.666783
H199	H	0.172559	-0.065354	0.063566
H200	H	0.505892	0.267980	0.396899
H201	H	0.839225	0.601313	0.730232
H202	H	-0.404384	-0.028243	0.000092
H203	H	-0.071051	0.305091	0.333426
H204	H	0.262282	0.638424	0.666759
H205	H	-0.380101	0.276850	0.000130
H206	H	-0.046767	0.610183	0.333464
H207	H	0.286566	0.943517	0.666797
H208	H	-0.100149	0.355624	0.000156
H209	H	0.233185	0.688957	0.333489
H210	H	0.566518	1.022291	0.666823
H211	H	-0.512162	-0.026146	0.000089
H212	H	-0.178828	0.307188	0.333422
H213	H	0.154505	0.640521	0.666756
N214	N	-0.213986	0.380086	0.000131
N215	N	0.119347	0.713419	0.333464
N216	N	0.452680	1.046752	0.666797
H217	H	-0.181909	0.432799	0.000135
H218	H	0.151424	0.766132	0.333468
H219	H	0.484758	1.099465	0.666802
H220	H	-0.238343	0.384234	0.063570
H221	H	0.094990	0.717567	0.396903
H222	H	0.428324	1.050900	0.730236
N223	N	0.024740	-0.058814	0.000143
N224	N	0.358074	0.274519	0.333476
N225	N	0.691407	0.607853	0.666810
H226	H	0.048334	-0.112608	0.000138
H227	H	0.381668	0.220725	0.333471
H228	H	0.715001	0.554058	0.666805
H229	H	-0.000199	-0.062001	-0.063298
H230	H	0.333134	0.271332	0.270035
H231	H	0.666467	0.604665	0.603368
N232	N	-0.255226	-0.137585	0.000163
N233	N	0.078107	0.195748	0.333496
N234	N	0.411440	0.529081	0.666829
H235	H	-0.231634	-0.191383	0.000166
H236	H	0.101699	0.141951	0.333499
H237	H	0.435032	0.475284	0.666833
H238	H	-0.280164	-0.140775	-0.063280
H239	H	0.053169	0.192558	0.270053
H240	H	0.386502	0.525892	0.603387
