data_functionalizedCrystal
_audit_creation_method	'MofGen! by Chris Wilmer'
_symmetry_space_group_name_H-M	'P1'
_symmetry_Int_Tables_number	1
_symmetry_cell_setting	triclinic
loop_
_symmetry_equiv_pos_as_xyz
  x,y,z
_cell_length_a	16.120566
_cell_length_b	16.120531
_cell_length_c	16.120256
_cell_angle_alpha	84.387676
_cell_angle_beta	89.874858
_cell_angle_gamma	90.174626
loop_
_atom_site_label
_atom_site_type_symbol
_atom_site_fract_x
_atom_site_fract_y
_atom_site_fract_z
Zn1	Zn	-1.224935	0.422268	-0.554854
Zn2	Zn	-0.724935	0.922268	-0.054854
Zn3	Zn	-1.224815	0.554947	-0.422149
Zn4	Zn	-0.724815	1.054947	0.077851
Zn5	Zn	-1.093676	0.408180	-0.408090
Zn6	Zn	-0.593676	0.908180	0.091910
Zn7	Zn	-1.078813	0.554184	-0.554074
Zn8	Zn	-0.578813	1.054184	-0.054074
O9	O	-1.155560	0.484895	-0.484792
O10	O	-0.655560	0.984895	0.015208
O11	O	-1.340954	0.446083	-0.543460
O12	O	-0.840954	0.946083	-0.043460
O13	O	-1.213590	0.529901	-0.303651
O14	O	-0.713590	1.029901	0.196349
O15	O	-1.117358	0.293419	-0.422000
O16	O	-0.617358	0.793419	0.078000
O17	O	-1.340866	0.543561	-0.445963
O18	O	-0.840866	1.043561	0.054037
O19	O	-1.213793	0.303770	-0.529827
O20	O	-0.713793	0.803770	-0.029827
O21	O	-1.117243	0.422073	-0.293322
O22	O	-0.617243	0.922073	0.206678
O23	O	-0.975670	0.421333	-0.421245
O24	O	-0.475670	0.921333	0.078755
O25	O	-1.092026	0.542262	-0.670810
O26	O	-0.592026	1.042262	-0.170810
O27	O	-0.964750	0.528602	-0.528499
O28	O	-0.464750	1.028602	-0.028499
O29	O	-1.199381	0.445344	-0.671383
O30	O	-0.699381	0.945344	-0.171383
O31	O	-1.199178	0.671475	-0.445207
O32	O	-0.699178	1.171475	0.054793
O33	O	-1.091910	0.670915	-0.542132
O34	O	-0.591910	1.170915	-0.042132
C35	C	-0.940123	0.473357	-0.473262
C36	C	-0.440123	0.973357	0.026738
C37	C	-0.847956	0.468442	-0.468351
C38	C	-0.347956	0.968442	0.031649
C39	C	-1.143939	0.701438	-0.495130
C40	C	-0.643939	1.201438	0.004870
C41	C	-1.139043	0.794082	-0.499585
C42	C	-0.639043	1.294082	0.000415
C43	C	-0.679206	0.459449	-0.459389
C44	C	-0.179206	0.959449	0.040611
C45	C	-0.632750	0.510413	-0.510204
C46	C	-0.132750	1.010413	-0.010204
C47	C	-0.538851	0.505409	-0.505218
C48	C	-0.038851	1.005409	-0.005218
C49	C	-0.773113	0.464452	-0.464374
C50	C	-0.273113	0.964452	0.035626
C51	C	-0.371838	0.496481	-0.496353
C52	C	0.128162	0.996481	0.003647
C53	C	-0.464005	0.501423	-0.501246
C54	C	0.035995	1.001423	-0.001246
C55	C	-1.130106	0.963704	-0.507735
C56	C	-0.630106	1.463704	-0.007735
C57	C	-1.181047	1.005245	-0.461803
C58	C	-0.681047	1.505245	0.038197
C59	C	-1.176075	1.099629	-0.466338
C60	C	-0.676075	1.599629	0.033662
C61	C	-1.135077	0.869312	-0.503201
C62	C	-0.635077	1.369312	-0.003201
C63	C	-1.144059	0.495289	-0.702184
C64	C	-0.644059	0.995289	-0.202184
C65	C	-1.139158	0.499719	-0.794823
C66	C	-0.639158	0.999719	-0.294823
C67	C	-1.167219	1.267506	-0.474416
C68	C	-0.667219	1.767506	0.025584
C69	C	-1.172113	1.174862	-0.469951
C70	C	-0.672113	1.674862	0.030049
C71	C	-1.181118	0.461774	-1.005993
C72	C	-0.681118	0.961774	-0.505993
C73	C	-1.130183	0.507770	-0.964429
C74	C	-0.630183	1.007770	-0.464429
C75	C	-1.135178	0.503289	-0.870052
C76	C	-0.635178	1.003289	-0.370052
C77	C	-1.176125	0.466254	-1.100378
C78	C	-0.676125	0.966254	-0.600378
C79	C	-1.167067	0.474483	-0.268245
C80	C	-0.667067	0.974483	0.231755
C81	C	-1.172141	0.469828	-0.175603
C82	C	-0.672141	0.969828	0.324397
H83	H	-0.648461	0.412064	-0.412144
H84	H	-0.148461	0.912064	0.087856
O85	O	-1.237455	0.962984	-0.410834
O86	O	-0.737455	1.462984	0.089166
C87	C	-1.229931	0.876790	-0.417601
C88	C	-0.729931	1.376790	0.082399
H89	H	-1.165085	0.862930	-0.440876
H90	H	-0.665085	1.362930	0.059124
H91	H	-1.278014	0.856765	-0.463480
H92	H	-0.778014	1.356765	0.036520
C93	C	-1.324001	0.845431	-0.302988
C94	C	-0.824001	1.345431	0.197012
C95	C	-1.244353	0.828407	-0.331568
C96	C	-0.744353	1.328407	0.168432
H97	H	-1.332901	0.815584	-0.249921
H98	H	-0.832901	1.315584	0.250079
H99	H	-1.329073	0.903501	-0.298431
H100	H	-0.829073	1.403501	0.201569
H101	H	-1.364061	0.828743	-0.341228
H102	H	-0.864061	1.328743	0.158772
H103	H	-1.204295	0.845104	-0.293334
H104	H	-0.704295	1.345104	0.206666
H105	H	-1.239275	0.770338	-0.336117
H106	H	-0.739275	1.270338	0.163883
O107	O	-1.073644	1.005957	-0.558633
O108	O	-0.573644	1.505957	-0.058633
C109	C	-1.081198	1.092153	-0.551889
C110	C	-0.581198	1.592153	-0.051889
H111	H	-1.111209	1.102318	-0.489604
H112	H	-0.611209	1.602318	0.010396
H113	H	-1.121419	1.121526	-0.604888
H114	H	-0.621419	1.621526	-0.104888
C115	C	-0.957717	1.120411	-0.633566
C116	C	-0.457717	1.620411	-0.133566
C117	C	-0.994571	1.132897	-0.557063
C118	C	-0.494571	1.632897	-0.057063
H119	H	-0.904283	1.145546	-0.636761
H120	H	-0.404283	1.645546	-0.136761
H121	H	-0.952629	1.062340	-0.638113
H122	H	-0.452629	1.562340	-0.138113
H123	H	-0.991243	1.144889	-0.677723
H124	H	-0.491243	1.644889	-0.177723
H125	H	-0.961050	1.108410	-0.512909
H126	H	-0.461050	1.608410	-0.012909
H127	H	-0.999652	1.190965	-0.552509
H128	H	-0.499652	1.690965	-0.052509
O129	O	-1.073769	0.558760	-1.006662
O130	O	-0.573769	1.058760	-0.506662
C131	C	-1.081276	0.551940	-1.092856
C132	C	-0.581276	1.051940	-0.592856
H133	H	-1.146118	0.528601	-1.106765
H134	H	-0.646118	1.028601	-0.606765
H135	H	-1.033186	0.506088	-1.112808
H136	H	-0.533186	1.006088	-0.612808
C137	C	-0.987210	0.666619	-1.124187
C138	C	-0.487210	1.166619	-0.624187
C139	C	-1.066852	0.637961	-1.141271
C140	C	-0.566852	1.137961	-0.641271
H141	H	-0.978309	0.719679	-1.154053
H142	H	-0.478309	1.219679	-0.654053
H143	H	-0.982149	0.671213	-1.066116
H144	H	-0.482149	1.171213	-0.566116
H145	H	-0.947144	0.628402	-1.140814
H146	H	-0.447144	1.128402	-0.640814
H147	H	-1.106917	0.676172	-1.124635
H148	H	-0.606917	1.176172	-0.624635
H149	H	-1.071919	0.633375	-1.199341
H150	H	-0.571919	1.133375	-0.699341
H151	H	-1.228473	0.419035	-0.970700
H152	H	-0.728473	0.919035	-0.470700
H153	H	-0.663496	0.557801	-0.557454
H154	H	-0.163496	1.057801	-0.057454
