data_functionalizedCrystal
_audit_creation_method	'MofGen! by Chris Wilmer'
_symmetry_space_group_name_H-M	'P1'
_symmetry_Int_Tables_number	1
_symmetry_cell_setting	triclinic
loop_
_symmetry_equiv_pos_as_xyz
  x,y,z
_cell_length_a	11.169417
_cell_length_b	17.639999
_cell_length_c	11.169409
_cell_angle_alpha	78.764683
_cell_angle_beta	90.019824
_cell_angle_gamma	101.192807
loop_
_atom_site_label
_atom_site_type_symbol
_atom_site_fract_x
_atom_site_fract_y
_atom_site_fract_z
Zn1	Zn	1.931464	0.314589	0.582043
Zn2	Zn	1.971907	0.446792	0.340807
Zn3	Zn	1.730764	0.314638	0.381362
Zn4	Zn	1.771291	0.446728	0.541471
O5	O	1.851356	0.380687	0.461421
O6	O	2.104780	0.332133	0.550049
O7	O	1.939884	0.429309	0.178222
O8	O	1.723501	0.204024	0.441935
O9	O	2.134494	0.429262	0.372814
O10	O	1.870954	0.203988	0.589374
O11	O	1.762717	0.332215	0.208018
O12	O	1.568189	0.332153	0.402595
O13	O	1.792573	0.429152	0.714818
O14	O	1.597963	0.429199	0.520226
O15	O	1.910251	0.332071	0.744625
O16	O	1.979181	0.557391	0.333473
O17	O	1.831789	0.557344	0.480901
C18	C	1.539528	0.380675	0.461409
C19	C	1.406132	0.380689	0.461427
C20	C	1.914304	0.586047	0.398410
C21	C	1.941343	0.673901	0.371494
C22	C	1.646249	0.962856	0.666311
C23	C	1.671659	1.045408	0.640981
C24	C	1.825233	1.045391	0.487620
C25	C	1.799841	0.962838	0.512941
C26	C	1.710347	0.921576	0.602287
C27	C	1.863938	0.921558	0.448917
C28	C	1.838542	0.839012	0.474233
C29	C	1.749050	0.797745	0.563572
C30	C	1.684951	0.839030	0.627602
C31	C	1.953425	0.962821	0.359566
C32	C	2.017522	0.921542	0.295542
C33	C	1.992133	0.838994	0.320863
C34	C	1.902641	0.797727	0.410202
C35	C	2.056232	0.797709	0.256832
C36	C	2.030837	0.715162	0.282148
C37	C	1.877246	0.715180	0.435517
C38	C	2.164403	0.380699	0.461433
C39	C	2.297804	0.380705	0.461438
C40	C	1.851422	0.380599	0.774490
C41	C	1.851449	0.380562	0.907902
C42	C	1.788158	1.174525	0.524699
C43	C	1.761131	1.086671	0.551651
C44	C	1.851343	0.380717	0.149587
C45	C	1.851479	0.380532	0.016244
H46	H	1.728366	0.730530	0.584173
O47	O	1.559255	0.922889	0.753120
C48	C	1.508155	0.977022	0.804242
H49	H	1.522111	1.035886	0.737028
H50	H	1.554763	0.985746	0.892745
C51	C	1.353385	0.872557	0.913879
C52	C	1.370517	0.944853	0.831321
H53	H	1.268484	0.852713	0.930589
H54	H	1.387814	0.836086	0.879442
H55	H	1.392232	0.879837	0.987623
H56	H	1.331682	0.937570	0.757575
H57	H	1.336078	0.981322	0.865748
O58	O	2.093246	0.675180	0.219880
C59	C	2.177659	0.729299	0.135572
H60	H	2.199895	0.788119	0.166695
H61	H	2.136472	0.738140	0.041674
C62	C	2.268154	0.624772	0.090052
C63	C	2.295473	0.697014	0.128284
H64	H	2.340826	0.604857	0.085551
H65	H	2.211281	0.588311	0.146848
H66	H	2.233829	0.632150	0.011807
H67	H	2.329783	0.689634	0.206533
H68	H	2.352355	0.733474	0.071500
O69	O	1.790410	0.675174	0.522461
C70	C	1.822795	0.695265	0.635940
H71	H	1.887348	0.755179	0.620092
H72	H	1.870191	0.648763	0.690661
C73	C	1.627659	0.625505	0.726850
C74	C	1.706936	0.699096	0.707385
H75	H	1.556193	0.627865	0.770925
H76	H	1.605842	0.611967	0.650399
H77	H	1.667171	0.586761	0.772446
H78	H	1.667430	0.737837	0.661777
H79	H	1.728744	0.712641	0.783831
H80	H	1.619471	1.079014	0.693138
H81	H	1.612085	0.805433	0.700366
O82	O	1.912148	1.085598	0.400894
C83	C	1.920787	1.167308	0.392243
H84	H	1.884911	1.178570	0.481382
H85	H	1.864117	1.190784	0.313806
C86	C	2.099305	1.195807	0.258857
C87	C	2.055250	1.209639	0.368343
H88	H	2.182246	1.221920	0.244109
H89	H	2.093482	1.140757	0.264681
H90	H	2.052068	1.215370	0.193505
H91	H	2.102477	1.190068	0.433694
H92	H	2.061084	1.264687	0.362529
H93	H	1.974102	1.030036	0.338960
O94	O	2.104437	0.961749	0.208816
C95	C	2.113077	1.043459	0.200165
H96	H	2.077200	1.054721	0.289304
H97	H	2.056406	1.066934	0.121728
C98	C	2.291594	1.071957	0.066780
C99	C	2.247539	1.085790	0.176265
H100	H	2.374535	1.098070	0.052031
H101	H	2.285771	1.016908	0.072603
H102	H	2.244357	1.091520	0.001428
H103	H	2.294766	1.066218	0.241616
H104	H	2.253373	1.140837	0.170452
H105	H	2.129089	0.831316	0.184079
