data_functionalizedCrystal
_audit_creation_method	'MofGen! by Chris Wilmer'
_symmetry_space_group_name_H-M	'P1'
_symmetry_Int_Tables_number	1
_symmetry_cell_setting	triclinic
loop_
_symmetry_equiv_pos_as_xyz
  x,y,z
_cell_length_a	15.297327
_cell_length_b	11.169417
_cell_length_c	11.169409
_cell_angle_alpha	90.021649
_cell_angle_beta	99.639791
_cell_angle_gamma	80.295081
loop_
_atom_site_label
_atom_site_type_symbol
_atom_site_fract_x
_atom_site_fract_y
_atom_site_fract_z
Zn1	Zn	-0.359125	-1.752152	-0.761201
Zn2	Zn	-0.510016	-1.717248	-0.595224
Zn3	Zn	-0.359173	-1.551427	-0.560540
Zn4	Zn	-0.509936	-1.516670	-0.795844
O5	O	-0.434562	-1.634374	-0.678202
O6	O	-0.379154	-1.915469	-0.739201
O7	O	-0.490060	-1.695189	-0.422685
O8	O	-0.232923	-1.607207	-0.558145
O9	O	-0.490014	-1.889824	-0.617258
O10	O	-0.232888	-1.754679	-0.705570
O11	O	-0.379236	-1.573362	-0.397203
O12	O	-0.379158	-1.378870	-0.591736
O13	O	-0.489876	-1.547969	-0.959186
O14	O	-0.489923	-1.353334	-0.764613
O15	O	-0.379076	-1.720977	-0.933734
O16	O	-0.636249	-1.661487	-0.650849
O17	O	-0.636190	-1.514124	-0.798244
C18	C	-0.434538	-1.322555	-0.678171
C19	C	-0.434549	-1.189153	-0.678191
C20	C	-0.668953	-1.580279	-0.732096
C21	C	-0.769226	-1.557247	-0.755192
C22	C	-1.051877	-1.799485	-0.513541
C23	C	-0.957665	-1.821125	-0.491835
C24	C	-0.910551	-1.755158	-0.557672
C25	C	-0.957657	-1.667546	-0.645219
C26	C	-1.051878	-1.645898	-0.666921
C27	C	-0.910552	-1.601570	-0.711052
C28	C	-0.957658	-1.513959	-0.798599
C29	C	-1.051870	-1.492315	-0.820297
C30	C	-1.098984	-1.558282	-0.754460
C31	C	-0.816331	-1.623218	-0.689351
C32	C	-0.816332	-1.469631	-0.842731
C33	C	-0.910544	-1.447992	-0.864436
C34	C	-0.199257	-1.688714	-0.624124
C35	C	-0.098983	-1.711870	-0.601080
C36	C	-0.434462	-1.634490	-0.991222
C37	C	-0.434419	-1.634539	-1.124612
C38	C	-0.434579	-0.947413	-0.678224
C39	C	-0.434564	-1.080816	-0.678208
C40	C	-0.434597	-1.634344	-0.366385
C41	C	-0.434386	-1.634586	-0.232937
H42	H	-0.833839	-1.772781	-0.539993
O43	O	-1.097504	-1.863626	-0.449448
C44	C	-1.087575	-2.018292	-0.295076
C45	C	-1.035791	-1.945716	-0.367563
H46	H	-1.037703	-2.084697	-0.228873
H47	H	-1.131727	-1.953128	-0.242364
H48	H	-1.131642	-2.070841	-0.360401
H49	H	-0.991675	-1.893161	-0.302323
H50	H	-0.991695	-2.010942	-0.420291
H51	H	-0.948911	-1.376657	-0.935718
H52	H	-0.919315	-1.892456	-0.420554
O53	O	-0.770715	-1.405402	-0.906766
C54	C	-0.780651	-1.250833	-1.061237
C55	C	-0.832431	-1.323460	-0.988795
H56	H	-0.830526	-1.184584	-1.127593
H57	H	-0.736634	-1.198139	-0.996001
H58	H	-0.736449	-1.316082	-1.113808
H59	H	-0.876682	-1.258296	-0.936220
H60	H	-0.876391	-1.376170	-1.054093
O61	O	-1.190504	-1.537377	-0.775740
C62	C	-1.325612	-1.537069	-0.921977
C63	C	-1.221966	-1.560806	-0.898037
H64	H	-1.351080	-1.555977	-1.020858
H65	H	-1.351234	-1.599307	-0.859969
H66	H	-1.351252	-1.438255	-0.902835
H67	H	-1.196248	-1.659586	-0.917192
H68	H	-1.196405	-1.498490	-0.960034
O69	O	-0.770439	-1.708242	-0.604325
C70	C	-0.625301	-1.809719	-0.502965
C71	C	-0.677160	-1.713367	-0.599275
H72	H	-0.549876	-1.813912	-0.498868
H73	H	-0.643830	-1.784430	-0.410413
H74	H	-0.643813	-1.902216	-0.528377
H75	H	-0.658675	-1.620835	-0.573977
H76	H	-0.658626	-1.738759	-0.691801
H77	H	-1.090221	-1.420962	-0.891570
