data_functionalizedCrystal
_audit_creation_method	'MofGen! by Chris Wilmer'
_symmetry_space_group_name_H-M	'P1'
_symmetry_Int_Tables_number	1
_symmetry_cell_setting	triclinic
loop_
_symmetry_equiv_pos_as_xyz
  x,y,z
_cell_length_a	11.169417
_cell_length_b	10.686285
_cell_length_c	10.686551
_cell_angle_alpha	80.915481
_cell_angle_beta	85.606327
_cell_angle_gamma	85.632710
loop_
_atom_site_label
_atom_site_type_symbol
_atom_site_fract_x
_atom_site_fract_y
_atom_site_fract_z
Zn1	Zn	1.917381	-0.450141	-0.678937
Zn2	Zn	2.250714	-0.116808	-0.345604
Zn3	Zn	2.584047	0.216526	-0.012271
Zn4	Zn	1.917284	-0.678721	-0.450435
Zn5	Zn	2.250617	-0.345388	-0.117101
Zn6	Zn	2.583950	-0.012054	0.216232
Zn7	Zn	1.702372	-0.466497	-0.466707
Zn8	Zn	2.035705	-0.133164	-0.133374
Zn9	Zn	2.369038	0.200169	0.199960
Zn10	Zn	1.730979	-0.662340	-0.662645
Zn11	Zn	2.064312	-0.329007	-0.329312
Zn12	Zn	2.397646	0.004326	0.004022
O13	O	1.817004	-0.564425	-0.564681
O14	O	2.150337	-0.231092	-0.231348
O15	O	2.483670	0.102242	0.101986
O16	O	2.085319	-0.480473	-0.648634
O17	O	2.418652	-0.147140	-0.315301
O18	O	2.751985	0.186194	0.018032
O19	O	1.876762	-0.664270	-0.274963
O20	O	2.210096	-0.330936	0.058370
O21	O	2.543429	0.002397	0.391703
O22	O	1.718961	-0.286705	-0.508488
O23	O	2.052295	0.046628	-0.175155
O24	O	2.385628	0.379961	0.158179
O25	O	2.085247	-0.648410	-0.480754
O26	O	2.418581	-0.315076	-0.147421
O27	O	2.751914	0.018257	0.185912
O28	O	1.876928	-0.274688	-0.664413
O29	O	2.210261	0.058645	-0.331079
O30	O	2.543594	0.391978	0.002254
O31	O	1.718867	-0.508350	-0.286918
O32	O	2.052201	-0.175017	0.046415
O33	O	2.385534	0.158317	0.379748
O34	O	1.538216	-0.492466	-0.492690
O35	O	1.871549	-0.159133	-0.159357
O36	O	2.204882	0.174200	0.173977
O37	O	1.767719	-0.620491	-0.842436
O38	O	2.101052	-0.287158	-0.509103
O39	O	2.434385	0.046175	-0.175770
O40	O	1.559233	-0.636351	-0.636645
O41	O	1.892567	-0.303018	-0.303312
O42	O	2.225900	0.030315	0.030022
O43	O	1.904667	-0.464589	-0.854406
O44	O	2.238000	-0.131256	-0.521073
O45	O	2.571334	0.202077	-0.187739
O46	O	1.904502	-0.854171	-0.464957
O47	O	2.237835	-0.520837	-0.131623
O48	O	2.571168	-0.187504	0.201710
O49	O	1.767624	-0.842136	-0.620867
O50	O	2.100958	-0.508803	-0.287533
O51	O	2.434291	-0.175469	0.045800
C52	C	1.505177	-0.564407	-0.564666
C53	C	1.838510	-0.231074	-0.231333
C54	C	2.171843	0.102260	0.102001
C55	C	1.371780	-0.564428	-0.564688
C56	C	1.705113	-0.231094	-0.231354
C57	C	2.038446	0.102239	0.101979
C58	C	1.839191	-0.894207	-0.539406
C59	C	2.172525	-0.560873	-0.206073
C60	C	2.505858	-0.227540	0.127261
C61	C	1.848796	-1.035285	-0.528635
C62	C	2.182129	-0.701952	-0.195302
C63	C	2.515462	-0.368619	0.138031
C64	C	2.130049	-0.564444	-0.564697
C65	C	2.463382	-0.231111	-0.231363
C66	C	2.796715	0.102223	0.101970
C67	C	2.263450	-0.564452	-0.564703
C68	C	2.596783	-0.231119	-0.231370
C69	C	2.930116	0.102215	0.101963
C70	C	1.839395	-0.538889	-0.895766
C71	C	2.172728	-0.205555	-0.562433
C72	C	2.506061	0.127778	-0.229100
C73	C	1.848936	-0.528006	-1.036855
C74	C	2.182270	-0.194673	-0.703522
C75	C	2.515603	0.138660	-0.370188
C76	C	1.794764	-0.233354	-0.590083
C77	C	2.128098	0.099980	-0.256749
C78	C	2.461431	0.433313	0.076584
C79	C	1.785287	-0.092271	-0.600907
C80	C	2.118620	0.241063	-0.267574
C81	C	2.451954	0.574396	0.065759
C82	C	1.794763	-0.589771	-0.234891
C83	C	2.128096	-0.256437	0.098443
C84	C	2.461430	0.076896	0.431776
C85	C	1.785430	-0.600295	-0.093830
C86	C	2.118763	-0.266962	0.239503
C87	C	2.452096	0.066372	0.572837
H88	H	1.723568	-1.033130	-0.671024
H89	H	2.056901	-0.699797	-0.337691
H90	H	2.390235	-0.366463	-0.004357
H91	H	1.910510	-1.094435	-0.458506
H92	H	2.243844	-0.761101	-0.125173
H93	H	2.577177	-0.427768	0.208160
H94	H	1.723763	-0.670513	-1.034671
H95	H	2.057096	-0.337180	-0.701338
H96	H	2.390429	-0.003846	-0.368005
H97	H	1.910616	-0.457793	-1.096020
H98	H	2.243950	-0.124459	-0.762687
H99	H	2.577283	0.208874	-0.429353
