data_functionalizedCrystal
_audit_creation_method	'MofGen! by Chris Wilmer'
_symmetry_space_group_name_H-M	'P1'
_symmetry_Int_Tables_number	1
_symmetry_cell_setting	triclinic
loop_
_symmetry_equiv_pos_as_xyz
  x,y,z
_cell_length_a	6.817900
_cell_length_b	11.102188
_cell_length_c	14.858572
_cell_angle_alpha	93.467807
_cell_angle_beta	104.524003
_cell_angle_gamma	108.603875
loop_
_atom_site_label
_atom_site_type_symbol
_atom_site_fract_x
_atom_site_fract_y
_atom_site_fract_z
V1	V	-4.064538	-0.176639	-0.289960
O2	O	-4.024475	0.007665	-0.284441
O3	O	-4.041627	-0.349453	-0.287977
O4	O	-4.020828	-0.174283	-0.416422
O5	O	-4.045417	-0.168718	-0.155107
V6	V	-4.544255	-0.154551	-0.273831
O7	O	-4.334144	-0.225089	-0.325342
O8	O	-4.724846	-0.106100	-0.238449
O9	O	-4.343960	0.018263	-0.275814
O10	O	-4.701715	-0.338855	-0.279350
O11	O	-4.680772	-0.162472	-0.408684
O12	O	-4.364758	-0.156907	-0.147369
C13	C	-3.892677	-0.391570	-0.283403
C14	C	-3.955262	-0.532851	-0.282625
C15	C	-3.938296	-0.580841	-0.197095
C16	C	-3.997125	-0.713590	-0.196367
C17	C	-4.089878	-0.750350	-0.366706
C18	C	-4.031063	-0.617603	-0.367434
C19	C	-4.139577	-0.877091	-0.096035
C20	C	-4.122575	-0.925082	-0.010500
C21	C	-3.944737	-0.861606	0.067442
C22	C	-3.783850	-0.750137	0.059853
C23	C	-3.800837	-0.702151	-0.025683
C24	C	-3.978720	-0.765627	-0.103623
C25	C	-3.888591	-0.454098	-0.467759
C26	C	-3.905563	-0.406110	-0.553296
C27	C	-4.083392	-0.469585	-0.631245
C28	C	-4.244255	-0.581059	-0.623665
C29	C	-4.227283	-0.629048	-0.538128
C30	C	-4.049454	-0.565563	-0.460179
C31	C	-3.866145	-0.168121	-0.447246
C32	C	-3.911859	-0.167339	-0.550629
C33	C	-4.079177	-0.164478	-0.929197
C34	C	-4.032615	-0.165274	-0.823868
C35	C	-3.995520	-0.165909	-0.739916
C36	C	-3.948955	-0.166703	-0.634580
C37	C	-4.156253	0.060374	-0.280385
C38	C	-4.072906	0.201653	-0.281170
C39	C	-4.182784	-0.163072	-0.116540
C40	C	-4.116307	-0.163849	-0.013156
H41	H	-4.151597	-0.819370	-0.435755
H42	H	-3.669841	-0.611399	-0.031863
H43	H	-4.389052	-0.632748	-0.687139
O44	O	-4.312497	-0.938577	-0.171726
C45	C	-4.620498	-0.924191	-0.286847
C46	C	-4.424771	-0.854406	-0.201119
H47	H	-4.711301	-0.856161	-0.310650
H48	H	-4.732691	-1.012074	-0.266762
H49	H	-4.562301	-0.955984	-0.346643
H50	H	-4.482773	-0.822528	-0.141288
H51	H	-4.312619	-0.766581	-0.221281
H52	H	-4.358275	-0.719820	-0.531961
H53	H	-4.097186	-0.430508	-0.700896
H54	H	-3.639032	-0.698469	0.123321
O55	O	-3.749442	-0.297872	-0.560836
C56	C	-3.625550	-0.146369	-0.661410
C57	C	-3.802477	-0.268973	-0.653006
H58	H	-3.668387	-0.122951	-0.735919
H59	H	-3.464093	-0.162480	-0.645315
H60	H	-3.613255	-0.062852	-0.609186
H61	H	-3.814968	-0.352549	-0.705224
H62	H	-3.963841	-0.252754	-0.669064
H63	H	-3.743779	-0.402402	-0.404289
H64	H	-3.876576	-0.511838	-0.128038
H65	H	-3.930899	-0.900691	0.137086
O66	O	-4.278862	-1.033248	-0.002975
C67	C	-4.548615	-1.127210	0.075053
C68	C	-4.371666	-1.004624	0.066640
H69	H	-4.623729	-1.104104	0.131319
H70	H	-4.474641	-1.203923	0.095374
H71	H	-4.678587	-1.164343	0.004635
H72	H	-4.241638	-0.967378	0.137030
H73	H	-4.445800	-0.927993	0.046271
