data_functionalizedCrystal
_audit_creation_method	'MofGen! by Chris Wilmer'
_symmetry_space_group_name_H-M	'P1'
_symmetry_Int_Tables_number	1
_symmetry_cell_setting	triclinic
loop_
_symmetry_equiv_pos_as_xyz
  x,y,z
_cell_length_a	13.635800
_cell_length_b	13.167930
_cell_length_c	19.551833
_cell_angle_alpha	79.622542
_cell_angle_beta	101.663477
_cell_angle_gamma	74.245432
loop_
_atom_site_label
_atom_site_type_symbol
_atom_site_fract_x
_atom_site_fract_y
_atom_site_fract_z
V1	V	2.012470	-0.150073	0.227588
O2	O	1.996747	0.006050	0.213319
O3	O	1.997368	-0.296452	0.235589
O4	O	1.983705	-0.148274	0.322487
O5	O	2.010505	-0.143154	0.125819
V6	V	2.253696	-0.131338	0.214255
O7	O	2.144273	-0.191168	0.256836
O8	O	2.346992	-0.090243	0.185007
O9	O	2.157195	0.015041	0.206254
O10	O	2.328118	-0.287461	0.228524
O11	O	2.314360	-0.138257	0.316024
O12	O	2.170858	-0.133137	0.119356
V13	V	2.512470	-0.150073	0.227588
O14	O	2.496747	0.006050	0.213319
O15	O	2.497368	-0.296452	0.235589
O16	O	2.483705	-0.148274	0.322487
O17	O	2.510505	-0.143154	0.125819
V18	V	2.753696	-0.131338	0.214255
O19	O	2.644273	-0.191168	0.256836
O20	O	2.846992	-0.090243	0.185007
O21	O	2.657195	0.015041	0.206254
O22	O	2.828118	-0.287461	0.228524
O23	O	2.814360	-0.138257	0.316024
O24	O	2.670858	-0.133137	0.119356
C25	C	1.922230	-0.332120	0.234465
C26	C	1.950495	-0.451791	0.241639
C27	C	1.967430	-0.645255	0.125094
C28	C	1.993987	-0.757695	0.131832
C29	C	2.030174	-0.789113	0.261850
C30	C	2.003617	-0.676673	0.255113
C31	C	1.972244	-0.604747	0.186733
C32	C	1.945679	-0.492305	0.179996
C33	C	1.981874	-0.523725	0.310014
C34	C	2.008431	-0.636165	0.316751
C35	C	1.904801	-0.143103	0.345311
C36	C	1.921984	-0.142601	0.422954
C37	C	2.064005	0.050703	0.207377
C38	C	2.025358	0.170373	0.200207
C39	C	2.081434	-0.138312	0.096529
C40	C	2.053869	-0.138808	0.018885
C41	C	2.422230	-0.332120	0.234465
C42	C	2.450495	-0.451791	0.241639
C43	C	2.404801	-0.143103	0.345311
C44	C	2.421984	-0.142601	0.422954
C45	C	2.021280	-0.147768	0.463336
C46	C	2.037426	-0.147297	0.536290
C47	C	1.954276	-0.141679	0.568862
C48	C	1.854965	-0.136504	0.528469
C49	C	1.838819	-0.136965	0.455515
C50	C	1.926513	-0.200212	0.691969
C51	C	1.942665	-0.199758	0.764923
C52	C	2.004071	-0.140252	0.793876
C53	C	2.049345	-0.081215	0.749869
C54	C	2.033199	-0.081676	0.676915
C55	C	1.971774	-0.141178	0.647968
C56	C	2.120880	-0.144907	0.913364
C57	C	2.137021	-0.144428	0.986318
C58	C	1.954560	-0.133647	0.978498
C59	C	1.938419	-0.134114	0.905543
C60	C	2.021585	-0.139750	0.872982
C61	C	2.564005	0.050703	0.207377
C62	C	2.525358	0.170373	0.200207
C63	C	2.581434	-0.138312	0.096529
C64	C	2.553869	-0.138808	0.018885
C65	C	2.555013	-0.513496	0.248856
C66	C	2.581589	-0.625943	0.255608
C67	C	2.503644	-0.676680	0.255137
C68	C	2.399118	-0.614967	0.247921
C69	C	2.372545	-0.502524	0.241175
C70	C	2.521285	-0.147751	0.463326
C71	C	2.537441	-0.147265	0.536278
C72	C	2.454297	-0.141636	0.568858
C73	C	2.354988	-0.136483	0.528479
C74	C	2.338831	-0.136961	0.455527
C75	C	2.593334	0.232078	0.192992
C76	C	2.557030	0.344523	0.186244
C77	C	2.452752	0.395260	0.186716
C78	C	2.384771	0.333548	0.193930
C79	C	2.421073	0.221105	0.200673
C80	C	2.454781	-0.144424	-0.013677
C81	C	2.428862	-0.144878	-0.086634
C82	C	2.502037	-0.139724	-0.127026
C83	C	2.601132	-0.134104	-0.094459
C84	C	2.627046	-0.133643	-0.021506
H85	H	1.941870	-0.586690	0.069416
O86	O	2.417577	0.504517	0.180068
C87	C	2.386257	0.683814	0.106489
C88	C	2.426137	0.560108	0.113930
H89	H	2.393143	0.728795	0.053013
H90	H	2.435958	0.704776	0.152825
H91	H	2.300066	0.709452	0.108104
H92	H	2.512314	0.534383	0.112297
H93	H	2.376359	0.539214	0.067596
H94	H	2.395185	-0.148621	0.019201
H95	H	2.299864	0.374875	0.194312
O96	O	2.242359	-0.131826	0.416247
C97	C	2.093779	-0.032523	0.313745
C98	C	2.203005	-0.038163	0.358174
H99	H	2.061939	0.043184	0.266775
H100	H	2.037056	-0.028370	0.349509
H101	H	2.101517	-0.108268	0.292032
H102	H	2.195369	0.037562	0.379894
H103	H	2.259687	-0.042371	0.322379
H104	H	2.348169	-0.149454	-0.113138
H105	H	2.707737	-0.129076	0.005001
H106	H	1.920127	-0.433743	0.124317
H107	H	2.287298	-0.131901	0.555016
O108	O	2.694648	0.182986	0.192483
C109	C	2.861671	0.205768	0.184171
C110	C	2.746953	0.261494	0.184727
H111	H	2.904001	0.269212	0.177916
H112	H	2.861659	0.165496	0.137209
H113	H	2.904305	0.141314	0.237034
H114	H	2.704252	0.325994	0.131897
H115	H	2.747041	0.301693	0.231724
H116	H	2.365714	0.170872	0.206554
H117	H	2.612398	0.394754	0.180372
H118	H	2.618311	-0.151466	0.569146
H119	H	2.525295	-0.768239	0.260631
H120	H	2.089000	-0.152353	0.436829
O121	O	2.476706	-0.140240	-0.197876
C122	C	2.344960	-0.146765	-0.298272
C123	C	2.373524	-0.146210	-0.218026
H124	H	2.261528	-0.151568	-0.314592
H125	H	2.403261	-0.220257	-0.307276
H126	H	2.348924	-0.068794	-0.332370
H127	H	2.369549	-0.224129	-0.183876
H128	H	2.315220	-0.072666	-0.209080
O129	O	2.323403	-0.664238	0.247580
C130	C	2.192720	-0.704151	0.304808
C131	C	2.278457	-0.648326	0.305297
H132	H	2.156341	-0.691287	0.351458
H133	H	2.229630	-0.795135	0.310909
H134	H	2.128660	-0.667293	0.251654
H135	H	2.342543	-0.685096	0.358439
H136	H	2.241468	-0.557345	0.299156
H137	H	2.660703	-0.129905	-0.127358
O138	O	2.601939	-0.153065	0.431584
C139	C	2.665151	-0.066066	0.338220
C140	C	2.573714	-0.059931	0.374084
H141	H	2.642373	0.009233	0.291734
H142	H	2.681923	-0.142235	0.316780
H143	H	2.738889	-0.069709	0.379637
H144	H	2.499920	-0.056246	0.332708
H145	H	2.557034	0.016226	0.395540
H146	H	1.990066	-0.790671	0.081639
H147	H	1.787264	-0.131927	0.554994
O148	O	2.470091	-0.141041	0.639706
C149	C	2.518822	-0.049544	0.730964
C150	C	2.500989	-0.050098	0.650712
H151	H	2.543784	0.023988	0.739885
H152	H	2.583456	-0.127484	0.765098
H153	H	2.442346	-0.044692	0.747312
H154	H	2.577407	-0.054910	0.634297
H155	H	2.436310	0.027840	0.616624
H156	H	2.033983	-0.694742	0.372425
O157	O	2.060835	-0.858962	0.328291
C158	C	2.186587	-0.925415	0.445141
C159	C	2.151989	-0.846273	0.369919
H160	H	2.260275	-0.915166	0.478824
H161	H	2.204826	-1.012760	0.439406
H162	H	2.120214	-0.906854	0.472899
H163	H	2.218319	-0.864734	0.342120
H164	H	2.133715	-0.758952	0.375704
O165	O	2.271060	-0.442568	0.234277
C166	C	2.152332	-0.324111	0.283935
C167	C	2.267309	-0.391981	0.291844
H168	H	2.149265	-0.283175	0.330462
H169	H	2.101156	-0.379655	0.284796
H170	H	2.121463	-0.259192	0.230654
H171	H	2.298275	-0.456905	0.345121
H172	H	2.318414	-0.336367	0.290941
O173	O	1.898576	-0.257127	0.807560
C174	C	1.791102	-0.374798	0.814799
C175	C	1.840951	-0.309853	0.766430
H176	H	1.744519	-0.417462	0.781569
H177	H	1.735783	-0.316903	0.837761
H178	H	1.856173	-0.438173	0.860897
H179	H	1.775951	-0.246475	0.720297
H180	H	1.896295	-0.367815	0.743523
H181	H	1.985789	-0.490733	0.360205
H182	H	2.118289	-0.151511	0.569177
H183	H	1.757957	-0.132749	0.422634
H184	H	2.070061	-0.033603	0.641087
H185	H	2.099350	-0.032762	0.773441
O186	O	1.841961	-0.128977	0.866244
C187	C	1.693419	-0.029672	0.763718
C188	C	1.802626	-0.035309	0.808175
H189	H	1.661594	0.046040	0.716751
H190	H	1.636671	-0.025529	0.799463
H191	H	1.701181	-0.105412	0.741999
H192	H	1.794966	0.040413	0.829902
H193	H	1.859333	-0.039506	0.772399
O194	O	1.866995	-0.258094	0.663786
C195	C	1.861345	-0.402559	0.604495
C196	C	1.928862	-0.337085	0.636372
H197	H	1.911343	-0.466454	0.582336
H198	H	1.790984	-0.345115	0.559122
H199	H	1.831738	-0.444629	0.648479
H200	H	1.958544	-0.295009	0.592439
H201	H	1.999169	-0.394581	0.681762
O202	O	1.873827	-0.128045	1.010183
C203	C	1.761651	-0.027477	1.072410
C204	C	1.853112	-0.033708	1.036562
H205	H	1.744860	0.048800	1.093733
H206	H	1.784391	-0.102663	1.118977
H207	H	1.687935	-0.023921	1.031008
H208	H	1.926864	-0.037229	1.077910
H209	H	1.830283	0.041477	0.989982
O210	O	2.233412	-0.149252	1.025547
C211	C	2.333058	-0.061280	1.096931
C212	C	2.223838	-0.055666	1.052508
H213	H	2.325351	0.014364	1.118754
H214	H	2.389751	-0.065321	1.061147
H215	H	2.364922	-0.137091	1.143826
H216	H	2.191879	0.020139	1.005610
H217	H	2.167216	-0.051684	1.088341
H218	H	2.188597	-0.149492	0.886850
O219	O	2.630876	-0.464403	0.249358
C220	C	2.814662	-0.487182	0.257657
C221	C	2.728848	-0.542911	0.257113
H222	H	2.893888	-0.550627	0.263911
H223	H	2.820762	-0.446902	0.304614
H224	H	2.792843	-0.422735	0.204790
H225	H	2.750604	-0.607404	0.309947
H226	H	2.722765	-0.583119	0.210121
H227	H	2.666703	-0.676174	0.261480
