data_functionalizedCrystal
_audit_creation_method	'MofGen! by Chris Wilmer'
_symmetry_space_group_name_H-M	'P1'
_symmetry_Int_Tables_number	1
_symmetry_cell_setting	triclinic
loop_
_symmetry_equiv_pos_as_xyz
  x,y,z
_cell_length_a	34.490303
_cell_length_b	34.489386
_cell_length_c	34.485816
_cell_angle_alpha	60.004462
_cell_angle_beta	60.008900
_cell_angle_gamma	59.994399
loop_
_atom_site_label
_atom_site_type_symbol
_atom_site_fract_x
_atom_site_fract_y
_atom_site_fract_z
O1	O	0.053846	-0.566517	0.473678
O2	O	0.020329	-0.441078	0.381663
O3	O	0.099768	-0.520436	0.381578
O4	O	-0.025592	-0.487159	0.473762
O5	O	0.126127	-0.494082	0.407849
O6	O	0.046689	-0.414724	0.407933
O7	O	0.080206	-0.540163	0.499949
Zn8	Zn	0.067632	-0.473259	0.458112
Zn9	Zn	0.032903	-0.507982	0.423499
O10	O	0.000767	-0.460805	0.500033
N11	N	0.091336	-0.449565	0.481736
N12	N	0.009203	-0.531680	0.399875
C13	C	0.142510	-0.268211	0.532817
C14	C	0.142641	-0.398441	0.662987
C15	C	0.142524	-0.398421	0.532817
C16	C	0.272762	-0.398394	0.532723
C17	C	0.156853	-0.311177	0.547124
C18	C	0.156928	-0.384109	0.620020
C19	C	0.229794	-0.384081	0.547073
C20	C	0.156863	-0.384097	0.547124
C21	C	0.124253	-0.213522	0.514606
C22	C	0.124277	-0.416652	0.514606
C23	C	0.175110	-0.365866	0.565335
C24	C	0.352285	-0.384669	0.490824
C25	C	0.401998	-0.401229	0.474223
C26	C	0.402027	-0.481671	0.504898
C27	C	0.352316	-0.465109	0.521500
C28	C	0.136220	-0.188652	0.465734
C29	C	0.119621	-0.138936	0.449181
C30	C	0.079092	-0.138961	0.530374
C31	C	0.095691	-0.188678	0.546927
C32	C	0.075398	-0.404656	0.526651
C33	C	0.058814	-0.421229	0.510091
C34	C	0.139984	-0.461794	0.469452
C35	C	0.156570	-0.445221	0.486007
C36	C	0.075593	-0.404694	0.742565
C37	C	0.059066	-0.421281	0.792280
C38	C	0.140274	-0.461856	0.792215
C39	C	0.156800	-0.445269	0.742499
C40	C	0.124458	-0.416687	0.717675
C41	C	0.327446	-0.416608	0.514460
C42	C	-0.023585	-0.564792	0.161919
C43	C	-0.023910	-0.769260	0.366530
C44	C	-0.023880	-0.564780	0.366623
C45	C	-0.228325	-0.564561	0.366222
C46	C	-0.129610	-0.597564	0.333467
C47	C	-0.056729	-0.597644	0.333613
C48	C	-0.074925	-0.615849	0.315324
C49	C	-0.088689	-0.695351	0.357144
C50	C	-0.072155	-0.745068	0.373736
C51	C	0.008283	-0.745150	0.343188
C52	C	-0.008252	-0.695435	0.326596
C53	C	-0.154529	-0.609541	0.382326
C54	C	-0.204241	-0.592916	0.398818
C55	C	-0.204114	-0.552341	0.317588
C56	C	-0.154401	-0.568966	0.301096
C57	C	-0.068707	-0.548770	0.321590
C58	C	-0.052166	-0.532225	0.338221
C59	C	-0.011669	-0.613425	0.378886
C60	C	-0.028210	-0.629972	0.362261
C61	C	-0.068581	-0.548777	0.235758
C62	C	-0.051939	-0.532234	0.186043
C63	C	-0.011379	-0.613438	0.186090
C64	C	-0.028020	-0.629981	0.235806
C65	C	-0.056622	-0.597649	0.260639
C66	C	-0.056739	-0.670537	0.333576
C67	C	-0.005614	-0.545951	0.107238
C68	C	-0.006360	-0.823943	0.385033
C69	C	-0.005995	-0.545937	0.384582
C70	C	-0.283006	-0.545971	0.383725
N71	N	0.426163	-0.449489	0.481488
O72	O	0.588601	-0.457377	0.364497
O73	O	0.588789	-0.549696	0.489801
O74	O	0.588709	-0.549485	0.410335
O75	O	0.588681	-0.457588	0.443963
O76	O	0.509731	-0.523223	0.436741
O77	O	0.509811	-0.523434	0.516207
O78	O	0.509624	-0.431115	0.390903
Zn79	Zn	0.497178	-0.473105	0.457747
Zn80	Zn	0.601234	-0.507706	0.422956
O81	O	0.509704	-0.431326	0.470368
N82	N	0.672250	-0.531322	0.399211
N83	N	0.091303	-0.114798	0.481730
O84	O	-0.025603	0.047729	0.473733
O85	O	0.099703	0.047764	0.381394
O86	O	0.020199	0.047731	0.381655
O87	O	0.053901	0.047761	0.473472
O88	O	0.046564	-0.031252	0.407974
O89	O	0.126068	-0.031219	0.407713
O90	O	0.000762	-0.031254	0.500052
Zn91	Zn	0.067601	-0.043777	0.458061
Zn92	Zn	0.032864	0.060287	0.423385
O93	O	0.080266	-0.031222	0.499791
N94	N	0.009156	0.131307	0.399717
N95	N	0.091635	-0.449614	0.816396
O96	O	0.083664	-0.566502	0.978913
O97	O	-0.008637	-0.441152	0.978954
O98	O	-0.008421	-0.520640	0.978930
O99	O	0.083448	-0.487013	0.978936
O100	O	0.017877	-0.494296	0.899950
O101	O	0.017661	-0.414807	0.899974
O102	O	0.109961	-0.540157	0.899933
Zn103	Zn	0.067986	-0.473299	0.887414
Zn104	Zn	0.033338	-0.508010	0.991473
O105	O	0.109746	-0.460669	0.899956
N106	N	0.009689	-0.531700	1.062491
C107	C	0.030367	-0.412095	0.382120
C108	C	0.128741	-0.510370	0.382016
C109	C	0.070168	-0.569147	0.499490
C110	C	-0.028207	-0.470871	0.499595
C111	C	0.549323	-0.549278	0.518791
C112	C	0.549225	-0.549017	0.420381
C113	C	0.549087	-0.431532	0.361914
C114	C	0.549188	-0.431794	0.460322
C115	C	0.128638	0.008374	0.381806
C116	C	0.030215	0.008236	0.382161
C117	C	-0.028206	0.008233	0.499608
C118	C	0.070250	0.008272	0.499285
C119	C	-0.008199	-0.412187	0.939469
C120	C	-0.007927	-0.510619	0.939425
C121	C	0.109523	-0.569121	0.939417
C122	C	0.109257	-0.470684	0.939444
H123	H	0.019274	-0.411508	0.812539
H124	H	0.077468	0.008281	0.528131
H125	H	0.049100	-0.381393	0.549936
O126	O	0.044109	-0.376948	0.718527
C127	C	-0.002564	-0.369909	0.751157
H128	H	-0.002440	-0.399890	0.786585
H129	H	-0.016807	-0.334497	0.756455
C130	C	-0.034630	-0.332734	0.688274
C131	C	-0.034477	-0.369559	0.731786
H132	H	-0.054316	-0.332516	0.676324
H133	H	-0.003185	-0.337474	0.666290
H134	H	-0.046498	-0.303228	0.692695
H135	H	-0.022604	-0.399065	0.727363
H136	H	-0.065921	-0.364824	0.753769
H137	H	0.549237	-0.577886	0.413185
O138	O	-0.071172	0.008251	0.534130
C139	C	-0.100741	0.008228	0.517063
H140	H	-0.087902	0.023174	0.476612
H141	H	-0.099454	-0.029667	0.529147
C142	C	-0.167893	0.020846	0.586422
C143	C	-0.152126	0.039207	0.536739
H144	H	-0.199590	0.039953	0.598560
H145	H	-0.147972	0.020860	0.597922
H146	H	-0.166817	-0.010733	0.596486
H147	H	-0.153197	0.070782	0.526676
H148	H	-0.172049	0.039198	0.525238
H149	H	0.196592	-0.455039	0.722237
H150	H	0.164551	0.008603	0.352745
O151	O	0.328074	-0.337573	0.484071
C152	C	0.299356	-0.330820	0.528452
H153	H	0.291929	-0.365004	0.556157
H154	H	0.318529	-0.321022	0.539483
C155	C	0.261239	-0.248515	0.490578
C156	C	0.252114	-0.290500	0.524605
H157	H	0.232099	-0.223642	0.488206
H158	H	0.280589	-0.253064	0.460678
H159	H	0.277218	-0.240357	0.499775
H160	H	0.236141	-0.298660	0.515405
H161	H	0.232761	-0.285951	0.554504
O162	O	0.144112	-0.612070	0.939465
C163	C	0.156867	-0.633101	0.980372
H164	H	0.147243	-0.604306	0.994021
H165	H	0.136943	-0.659018	1.009010
C166	C	0.222532	-0.695331	0.951171
C167	C	0.210716	-0.659964	0.967932
H168	H	0.255748	-0.711903	0.943499
H169	H	0.213938	-0.681164	0.923612
H170	H	0.205925	-0.716923	0.975038
H171	H	0.227318	-0.638369	0.944063
H172	H	0.219314	-0.674129	0.995487
O173	O	0.549037	-0.397010	0.318951
C174	C	0.549004	-0.414105	0.289409
H175	H	0.564001	-0.454556	0.302246
H176	H	0.511102	-0.402065	0.290737
C177	C	0.561490	-0.344715	0.222240
C178	C	0.579913	-0.394398	0.238004
H179	H	0.580554	-0.332558	0.190531
H180	H	0.561511	-0.333197	0.242143
H181	H	0.529906	-0.334689	0.223350
H182	H	0.611495	-0.404424	0.236900
H183	H	0.579898	-0.405918	0.218100
O184	O	-0.071119	-0.462452	0.534190
C185	C	-0.064867	-0.467759	0.574186
H186	H	-0.026985	-0.491511	0.573687
H187	H	-0.071649	-0.431447	0.573290
C188	C	-0.146574	-0.461352	0.620373
C189	C	-0.100048	-0.490528	0.619762
H190	H	-0.168277	-0.475395	0.648487
H191	H	-0.150787	-0.457775	0.593426
H192	H	-0.152219	-0.431094	0.619624
H193	H	-0.094401	-0.520784	0.620505
H194	H	-0.095835	-0.494111	0.646710
O195	O	0.143646	-0.462017	0.939418
C196	C	0.126343	-0.415338	0.939443
H197	H	0.095849	-0.392869	0.924502
H198	H	0.113112	-0.416042	0.977337
C199	C	0.203961	-0.421349	0.926818
C200	C	0.166510	-0.393750	0.908463
H201	H	0.228738	-0.408032	0.907710
H202	H	0.215619	-0.452798	0.926803
H203	H	0.192929	-0.421933	0.958396
H204	H	0.177542	-0.393171	0.876889
H205	H	0.154856	-0.362301	0.908472
H206	H	0.549371	-0.578259	0.554780
H207	H	0.164745	-0.517463	0.353068
O208	O	0.078701	-0.612170	0.533927
C209	C	0.089865	-0.647935	0.517624
H210	H	0.074554	-0.631735	0.488125
H211	H	0.130077	-0.664629	0.503333
C212	C	0.087224	-0.706233	0.595198
C213	C	0.068416	-0.686336	0.558970
H214	H	0.073996	-0.729922	0.620702
H215	H	0.079705	-0.682138	0.606182
H216	H	0.120734	-0.720140	0.583283
H217	H	0.034907	-0.672424	0.570883
H218	H	0.075929	-0.710430	0.547989
O219	O	0.171755	-0.489630	0.816256
C220	C	0.218430	-0.496649	0.783627
H221	H	0.218308	-0.491082	0.748197
H222	H	0.232671	-0.470187	0.778335
C223	C	0.250492	-0.554419	0.846511
C224	C	0.250343	-0.547586	0.802996
H225	H	0.270179	-0.585838	0.858460
H226	H	0.219047	-0.549690	0.868494
H227	H	0.262358	-0.532364	0.842095
H228	H	0.238472	-0.569637	0.807414
H229	H	0.281787	-0.552320	0.781014
O230	O	0.011337	-0.409522	0.521709
C231	C	-0.000721	-0.384495	0.479959
H232	H	0.027283	-0.367658	0.450081
H233	H	-0.002379	-0.410055	0.469497
C234	C	-0.083875	-0.366052	0.525544
C235	C	-0.049482	-0.345369	0.488848
H236	H	-0.113953	-0.341919	0.531027
H237	H	-0.075752	-0.382915	0.553672
H238	H	-0.085251	-0.387352	0.516821
H239	H	-0.048101	-0.324074	0.497574
H240	H	-0.057606	-0.328501	0.460722
O241	O	0.549156	-0.397397	0.468988
C242	C	0.549229	-0.414704	0.515650
H243	H	0.534316	-0.445210	0.538125
H244	H	0.587131	-0.427923	0.514911
C245	C	0.536566	-0.337075	0.509656
C246	C	0.518247	-0.374540	0.537261
H247	H	0.517457	-0.312300	0.522986
H248	H	0.536519	-0.325415	0.478218
H249	H	0.568151	-0.348097	0.509043
H250	H	0.486665	-0.363519	0.537868
H251	H	0.518288	-0.386197	0.568699
H252	H	-0.037176	-0.376187	0.939482
O253	O	0.021541	0.008193	0.347809
C254	C	-0.025140	0.008182	0.365128
H255	H	-0.037612	-0.006759	0.405578
H256	H	-0.049726	0.046066	0.353116
C257	C	-0.010751	-0.004471	0.295948
C258	C	-0.026069	-0.022826	0.345630
H259	H	-0.011326	-0.023597	0.283919
H260	H	0.020698	-0.004463	0.284279
H261	H	-0.031242	0.027098	0.285944
H262	H	-0.005575	-0.054392	0.355632
H263	H	-0.057515	-0.022841	0.357300
O264	O	-0.042329	-0.519262	0.939446
C265	C	-0.053249	-0.557716	0.980335
H266	H	-0.021869	-0.580461	0.993990
H267	H	-0.085883	-0.543640	1.008977
C268	C	-0.102027	-0.560075	0.951091
C269	C	-0.063483	-0.588013	0.967860
H270	H	-0.108342	-0.578762	0.943397
H271	H	-0.094672	-0.534166	0.923544
H272	H	-0.129217	-0.548346	0.974962
H273	H	-0.036292	-0.599736	0.943986
H274	H	-0.070834	-0.613924	0.995403
O275	O	0.171420	-0.489528	0.441661
C276	C	0.218118	-0.496573	0.434595
H277	H	0.218032	-0.466601	0.440148
H278	H	0.232390	-0.531992	0.461039
C279	C	0.250072	-0.533723	0.376832
C280	C	0.249966	-0.496908	0.383649
H281	H	0.269718	-0.533932	0.345407
H282	H	0.218611	-0.528978	0.381593
H283	H	0.261964	-0.563235	0.398872
H284	H	0.238068	-0.467397	0.361614
H285	H	0.281426	-0.501648	0.378883
H286	H	0.196371	-0.454985	0.476195
H287	H	0.332093	-0.491119	0.540748
O288	O	0.131184	-0.114700	0.401721
C289	C	0.110419	-0.065492	0.394041
H290	H	0.078525	-0.058718	0.426678
H291	H	0.137612	-0.051374	0.387397
C292	C	0.133257	-0.048284	0.310452
C293	C	0.094082	-0.039963	0.350536
H294	H	0.123182	-0.032535	0.283615
H295	H	0.147249	-0.081436	0.315626
H296	H	0.155915	-0.036518	0.304922
H297	H	0.071428	-0.051734	0.356069
H298	H	0.080086	-0.006812	0.345362
H299	H	0.422274	-0.521162	0.510626
H300	H	0.159477	-0.208876	0.439413
O301	O	0.426109	-0.370174	0.451188
C302	C	0.413911	-0.336418	0.410224
H303	H	0.400229	-0.351739	0.398817
H304	H	0.385055	-0.302908	0.418365
C305	C	0.474855	-0.305295	0.383900
C306	C	0.458054	-0.324115	0.369887
H307	H	0.502083	-0.297704	0.359019
H308	H	0.483072	-0.328036	0.411499
H309	H	0.450804	-0.277373	0.390685
H310	H	0.482102	-0.352040	0.363109
H311	H	0.449842	-0.301378	0.342286
O312	O	0.051407	-0.114880	0.561816
C313	C	0.076552	-0.127018	0.590519
H314	H	0.105502	-0.163107	0.590982
H315	H	0.093411	-0.099027	0.575554
C316	C	0.006579	-0.085012	0.640893
C317	C	0.042134	-0.129340	0.641465
H318	H	-0.014651	-0.086443	0.672319
H319	H	-0.010362	-0.076833	0.621555
H320	H	0.020634	-0.061691	0.628420
H321	H	0.028080	-0.152658	0.653933
H322	H	0.059072	-0.137523	0.660807
O323	O	0.084163	-0.212874	0.594392
C324	C	0.125967	-0.241596	0.606356
H325	H	0.157173	-0.249043	0.573580
H326	H	0.132973	-0.222412	0.619958
C327	C	0.081683	-0.279677	0.685582
C328	C	0.120011	-0.288827	0.645327
H329	H	0.078009	-0.308811	0.709623
H330	H	0.053519	-0.260326	0.677523
H331	H	0.087526	-0.263690	0.696911
H332	H	0.114164	-0.304809	0.633996
H333	H	0.148174	-0.308183	0.653386
O334	O	0.021912	-0.369128	0.347594
C335	C	0.062702	-0.369013	0.306631
H336	H	0.095332	-0.397095	0.317040
H337	H	0.058862	-0.377282	0.280832
C338	C	0.028288	-0.285293	0.269892
C339	C	0.068366	-0.319781	0.282677
H340	H	0.031782	-0.254925	0.255114
H341	H	0.000806	-0.285371	0.297488
H342	H	0.025093	-0.292191	0.248395
H343	H	0.071557	-0.312887	0.304178
H344	H	0.095849	-0.319701	0.255083
O345	O	-0.063646	-0.484752	0.161900
C346	C	-0.113433	-0.464065	0.173981
H347	H	-0.129468	-0.492349	0.187614
H348	H	-0.128192	-0.448361	0.202840
C349	C	-0.106527	-0.389735	0.113033
C350	C	-0.126221	-0.424473	0.129774
H351	H	-0.114416	-0.365311	0.085765
H352	H	-0.072985	-0.403671	0.104895
H353	H	-0.118828	-0.376653	0.137087
H354	H	-0.113916	-0.437557	0.105723
H355	H	-0.159762	-0.410538	0.137907
O356	O	-0.096290	-0.517353	0.259863
C357	C	-0.071179	-0.488641	0.247757
H358	H	-0.031407	-0.507874	0.234142
H359	H	-0.081717	-0.453711	0.218876
C360	C	-0.132087	-0.454862	0.308658
C361	C	-0.083238	-0.478486	0.291940
H362	H	-0.139527	-0.448595	0.335911
H363	H	-0.149006	-0.474204	0.316813
H364	H	-0.140862	-0.425756	0.284586
H365	H	-0.074464	-0.507594	0.316009
H366	H	-0.066318	-0.459148	0.283790
H367	H	0.011902	-0.639768	0.165877
H368	H	-0.018278	-0.669778	0.256062
H369	H	-0.091926	-0.522444	0.298262
H370	H	0.011557	-0.639751	0.402207
O371	O	-0.063771	-0.484763	0.326606
C372	C	-0.043046	-0.477093	0.347418
H373	H	-0.035609	-0.509712	0.379358
H374	H	-0.008341	-0.470511	0.320274
C375	C	-0.086470	-0.393478	0.324442
C376	C	-0.077339	-0.433540	0.363674
H377	H	-0.107621	-0.366612	0.334468
H378	H	-0.100431	-0.398645	0.310419
H379	H	-0.057546	-0.388000	0.301825
H380	H	-0.106261	-0.439021	0.386287
H381	H	-0.063383	-0.428373	0.377701
O382	O	-0.016595	-0.677457	0.374003
C383	C	-0.033672	-0.698098	0.423791
H384	H	-0.038561	-0.674548	0.441225
H385	H	-0.069200	-0.701750	0.434965
C386	C	0.008279	-0.776449	0.418117
C387	C	0.002277	-0.747526	0.439530
H388	H	0.030452	-0.806940	0.427826
H389	H	0.019782	-0.762543	0.384574
H390	H	-0.021331	-0.779487	0.427431
H391	H	0.031885	-0.744484	0.430211
H392	H	-0.009220	-0.761433	0.473072
O393	O	0.022848	-0.671402	0.303730
C394	C	0.069189	-0.704041	0.301120
H395	H	0.067255	-0.739465	0.330485
H396	H	0.088206	-0.709349	0.265097
C397	C	0.099111	-0.641163	0.271198
C398	C	0.096735	-0.684670	0.307267
H399	H	0.116104	-0.629213	0.274987
H400	H	0.067891	-0.619173	0.272954
H401	H	0.114958	-0.645592	0.241182
H402	H	0.080884	-0.680239	0.337282
H403	H	0.127954	-0.706659	0.305516
H404	H	0.047765	-0.765423	0.337508
H405	H	-0.098172	-0.765271	0.392919
H406	H	-0.128170	-0.675084	0.362831
H407	H	-0.224531	-0.602667	0.438605
O408	O	-0.130497	-0.637368	0.413814
C409	C	-0.142682	-0.679040	0.442532
H410	H	-0.178761	-0.672334	0.442956
H411	H	-0.114699	-0.708964	0.427610
C412	C	-0.100740	-0.701433	0.492969
C413	C	-0.145055	-0.693196	0.493492
H414	H	-0.102202	-0.710167	0.524402
H415	H	-0.092530	-0.673359	0.473619
H416	H	-0.077426	-0.726369	0.480531
H417	H	-0.168367	-0.668257	0.505923
H418	H	-0.153270	-0.721266	0.512844
O419	O	-0.228149	-0.524619	0.286101
C420	C	-0.215985	-0.549735	0.257362
H421	H	-0.179910	-0.578705	0.256928
H422	H	-0.243979	-0.566571	0.272271
C423	C	-0.257919	-0.479714	0.206946
C424	C	-0.213610	-0.515293	0.206410
H425	H	-0.256457	-0.458469	0.175517
H426	H	-0.266116	-0.462793	0.226309
H427	H	-0.281243	-0.493750	0.219373
H428	H	-0.190288	-0.501258	0.193989
H429	H	-0.205410	-0.532211	0.187044
H430	H	-0.134111	-0.559208	0.261309
