data_functionalizedCrystal
_audit_creation_method	'MofGen! by Chris Wilmer'
_symmetry_space_group_name_H-M	'P1'
_symmetry_Int_Tables_number	1
_symmetry_cell_setting	triclinic
loop_
_symmetry_equiv_pos_as_xyz
  x,y,z
_cell_length_a	8.497374
_cell_length_b	8.497374
_cell_length_c	12.827893
_cell_angle_alpha	90.001385
_cell_angle_beta	89.994501
_cell_angle_gamma	90.000078
loop_
_atom_site_label
_atom_site_type_symbol
_atom_site_fract_x
_atom_site_fract_y
_atom_site_fract_z
Zn1	Zn	-0.628323	0.892034	1.597640
Zn2	Zn	-0.128323	1.392034	2.097640
Zn3	Zn	-0.892068	0.628275	1.597652
Zn4	Zn	-0.392068	1.128275	2.097652
Zn5	Zn	-0.628297	0.628263	1.422935
Zn6	Zn	-0.128297	1.128263	1.922935
Zn7	Zn	-0.892055	0.892008	1.422931
Zn8	Zn	-0.392055	1.392008	1.922931
O9	O	-0.760186	0.760145	1.510290
O10	O	-0.260186	1.260145	2.010290
O11	O	-0.663325	0.857061	1.743878
O12	O	-0.163325	1.357061	2.243878
O13	O	-0.857073	0.407511	1.574483
O14	O	-0.357073	0.907511	2.074483
O15	O	-0.407538	0.663258	1.446107
O16	O	0.092462	1.163258	1.946107
O17	O	-0.857098	0.663279	1.743887
O18	O	-0.357098	1.163279	2.243887
O19	O	-0.407557	0.857050	1.574462
O20	O	0.092443	1.357050	2.074462
O21	O	-0.663281	0.407502	1.446119
O22	O	-0.163281	0.907502	1.946119
O23	O	-0.663269	0.663233	1.276699
O24	O	-0.163269	1.163233	1.776699
O25	O	-0.857076	1.112774	1.446099
O26	O	-0.357076	1.612774	1.946099
O27	O	-0.857051	0.857006	1.276695
O28	O	-0.357051	1.357006	1.776695
O29	O	-0.663313	1.112793	1.574457
O30	O	-0.163313	1.612793	2.074457
O31	O	-1.112829	0.663254	1.574478
O32	O	-0.612829	1.163254	2.074478
O33	O	-1.112819	0.857018	1.446111
O34	O	-0.612819	1.357018	1.946111
C35	C	-0.760157	0.760116	1.238780
C36	C	-0.260157	1.260116	1.738780
C37	C	-0.760182	0.760141	1.122627
C38	C	-0.260182	1.260141	1.622627
C39	C	-0.170066	0.760139	1.510286
C40	C	0.329934	1.260139	2.010286
C41	C	-0.348710	0.760148	1.510291
C42	C	0.151290	1.260148	2.010291
C43	C	-0.856246	0.855902	0.950824
C44	C	-0.356246	1.355902	1.450824
C45	C	-0.856222	0.855878	1.070874
C46	C	-0.356222	1.355878	1.570874
C47	C	-0.760188	1.171625	1.510282
C48	C	-0.260188	1.671625	2.010282
C49	C	-0.760205	1.350269	1.510284
C50	C	-0.260205	1.850269	2.010284
C51	C	-0.760216	0.760174	1.782860
C52	C	-0.260216	1.260174	2.282860
C53	C	-0.760229	0.760187	1.899013
C54	C	-0.260229	1.260187	2.399013
H55	H	-0.938473	0.937858	0.906304
H56	H	-0.438473	1.437858	1.406304
Cl57	Cl	-0.633287	0.633628	0.967739
Cl58	Cl	-0.133287	1.133628	1.467739
H59	H	-0.938418	0.937831	1.115430
H60	H	-0.438418	1.437831	1.615430
H61	H	-0.677968	0.678199	1.078077
H62	H	-0.177968	1.178199	1.578077
