data_functionalizedCrystal
_audit_creation_method	'MofGen! by Chris Wilmer'
_symmetry_space_group_name_H-M	'P1'
_symmetry_Int_Tables_number	1
_symmetry_cell_setting	triclinic
loop_
_symmetry_equiv_pos_as_xyz
  x,y,z
_cell_length_a	13.185408
_cell_length_b	16.109301
_cell_length_c	15.186229
_cell_angle_alpha	89.998295
_cell_angle_beta	89.997880
_cell_angle_gamma	67.717490
loop_
_atom_site_label
_atom_site_type_symbol
_atom_site_fract_x
_atom_site_fract_y
_atom_site_fract_z
O1	O	-1.447047	0.216618	0.073153
O2	O	-1.129520	0.132337	0.073172
O3	O	-1.297006	0.297458	0.073153
O4	O	-1.279561	0.051497	0.073172
O5	O	-1.296987	0.297447	-0.073304
O6	O	-1.129500	0.132325	-0.073285
O7	O	-1.447028	0.216606	-0.073304
Zn8	Zn	-1.288261	0.174464	-0.096548
Zn9	Zn	-1.288287	0.174479	0.096416
O10	O	-1.279541	0.051485	-0.073285
C11	C	-1.088879	0.123787	-0.000054
C12	C	-0.967809	0.098338	-0.000047
C13	C	-1.296290	0.328270	-0.000076
C14	C	-1.294171	0.420091	-0.000077
C15	C	-1.487669	0.225156	-0.000076
C16	C	-1.608738	0.250606	-0.000077
C17	C	-0.897907	0.007725	-0.000038
C18	C	-0.784156	-0.016188	-0.000044
C19	C	-0.740296	0.050508	-0.000052
C20	C	-0.810198	0.141122	-0.000055
C21	C	-0.923961	0.165038	-0.000056
C22	C	-0.766349	0.207821	-0.000070
C23	C	-0.836252	0.298435	-0.000072
C24	C	-0.950003	0.322347	-0.000072
C25	C	-0.993863	0.255651	-0.000064
C26	C	-0.652587	0.183905	-0.000069
C27	C	-0.678641	0.341218	-0.000086
C28	C	-0.792392	0.365132	-0.000080
C29	C	-1.280258	0.020674	-0.000054
C30	C	-1.282376	-0.071148	-0.000047
N31	N	-1.288251	0.174456	-0.228241
C32	C	-1.388628	0.663479	-0.000069
C33	C	-1.386629	0.749752	-0.000061
C34	C	-1.187912	0.685456	-0.000053
C35	C	-1.189912	0.599184	-0.000054
C36	C	-1.290274	0.588199	-0.000066
C37	C	-1.286274	0.760744	-0.000058
C38	C	-1.284106	0.854286	-0.000050
C39	C	-1.292442	0.494652	-0.000073
C40	C	-1.354395	0.138814	-0.453963
C41	C	-1.354407	0.138822	-0.546153
C42	C	-1.222159	0.210143	-0.546162
C43	C	-1.222153	0.210140	-0.453974
C44	C	-1.288270	0.174470	-0.407877
C45	C	-1.288287	0.174482	-0.592255
C46	C	-1.288299	0.174491	-0.692211
C47	C	-1.288259	0.174462	-0.307915
N48	N	-1.288305	0.174496	0.228109
H49	H	-0.647674	0.031032	-0.000058
O50	O	-1.418687	0.104305	-0.409087
C51	C	-1.565976	0.132400	-0.305037
C52	C	-1.493221	0.171588	-0.355785
H53	H	-1.626270	0.186784	-0.261944
H54	H	-1.512383	0.074524	-0.261821
H55	H	-1.613188	0.106886	-0.353832
H56	H	-1.445995	0.197153	-0.307053
H57	H	-1.546873	0.229425	-0.399014
H58	H	-1.168305	0.239180	-0.416450
H59	H	-1.106201	0.694412	-0.000044
O60	O	-0.860256	0.453163	0.000069
C61	C	-0.917298	0.594952	0.075906
C62	C	-0.840397	0.495271	0.075856
H63	H	-0.901253	0.629030	0.137163
H64	H	-1.006154	0.600635	0.075965
H65	H	-0.901365	0.629003	0.014582
H66	H	-0.856231	0.461158	0.137169
H67	H	-0.751566	0.489652	0.075751
H68	H	-1.006915	0.396131	-0.000086
O69	O	-1.157957	0.244714	-0.591076
C70	C	-1.099328	0.276312	-0.733097
C71	C	-1.172074	0.237117	-0.682346
H72	H	-1.110734	0.270201	-0.806897
H73	H	-1.009755	0.237801	-0.714997
H74	H	-1.123698	0.350019	-0.714958
H75	H	-1.147801	0.163416	-0.700458
H76	H	-1.261630	0.275695	-0.700450
O77	O	-0.636099	0.406046	-0.000247
C78	C	-0.623595	0.533205	-0.076109
C79	C	-0.671834	0.459829	-0.076044
H80	H	-0.652486	0.576720	-0.137375
H81	H	-0.530279	0.500595	-0.076161
H82	H	-0.652369	0.576662	-0.014794
H83	H	-0.643144	0.416348	-0.137349
H84	H	-0.765145	0.492497	-0.075947
O85	O	-1.486210	0.652965	-0.000031
C86	C	-1.683098	0.725848	-0.000078
C87	C	-1.572661	0.737879	-0.000105
H88	H	-1.753023	0.794489	-0.000156
H89	H	-1.689078	0.687111	0.061229
H90	H	-1.688945	0.687025	-0.061355
H91	H	-1.566740	0.776722	0.061130
H92	H	-1.566729	0.776578	-0.061453
H93	H	-1.408254	0.109789	-0.583672
H94	H	-0.595683	0.110126	-0.000068
O95	O	-0.940694	-0.056942	-0.000000
C96	C	-1.104405	-0.089807	-0.000071
C97	C	-1.056096	-0.016475	-0.000087
H98	H	-1.197713	-0.057118	-0.000160
H99	H	-1.075710	-0.133293	0.061236
H100	H	-1.075544	-0.133310	-0.061348
H101	H	-1.084935	0.027090	0.061148
H102	H	-1.084786	0.026946	-0.061435
H103	H	-0.727249	-0.089966	-0.000042
H104	H	-1.086487	0.275117	-0.000062
H105	H	-1.466719	0.811045	-0.000062
H106	H	-1.109815	0.537885	-0.000049
