data_functionalizedCrystal
_audit_creation_method	'MofGen! by Chris Wilmer'
_symmetry_space_group_name_H-M	'P1'
_symmetry_Int_Tables_number	1
_symmetry_cell_setting	triclinic
loop_
_symmetry_equiv_pos_as_xyz
  x,y,z
_cell_length_a	6.394989
_cell_length_b	10.723024
_cell_length_c	9.198806
_cell_angle_alpha	90.003648
_cell_angle_beta	90.000201
_cell_angle_gamma	85.482790
loop_
_atom_site_label
_atom_site_type_symbol
_atom_site_fract_x
_atom_site_fract_y
_atom_site_fract_z
O1	O	-0.293022	-1.660298	-0.120873
O2	O	-0.321070	-1.297443	-0.120877
O3	O	-0.003055	-1.484021	-0.120876
O4	O	-0.611036	-1.473720	-0.120874
O5	O	-0.003054	-1.484006	0.120909
O6	O	-0.321069	-1.297428	0.120908
O7	O	-0.293021	-1.660282	0.120912
Cu8	Cu	-0.307045	-1.478854	0.142987
Cu9	Cu	-0.307046	-1.478872	-0.142952
O10	O	-0.611035	-1.473705	0.120911
C11	C	-0.319028	-1.250914	0.000015
C12	C	-0.312921	-1.112295	0.000013
C13	C	-0.295062	-1.706811	0.000017
C14	C	-0.301169	-1.845430	0.000010
N15	N	-0.307043	-1.478850	0.344101
C16	C	0.074796	-1.481977	0.000011
C17	C	0.311120	-1.475752	0.000010
N18	N	-0.307031	-1.478885	-0.344066
C19	C	-0.490865	-1.039201	0.000013
C20	C	-0.484558	-0.895931	0.000011
C21	C	-0.172929	-1.557183	0.416299
C22	C	-0.172922	-1.557202	0.583711
H23	H	-0.636892	-0.833115	0.000005
H24	H	-0.155907	-1.068806	-0.000025
O25	O	-0.035941	-1.637030	0.342001
C26	C	0.093546	-1.567900	0.253956
H27	H	0.011441	-1.471613	0.231357
H28	H	0.125754	-1.619337	0.146837
H29	H	0.248146	-1.556851	0.312473
O30	O	-0.035644	-1.637152	0.657611
C31	C	0.171377	-1.613266	0.620557
H32	H	0.171775	-1.565229	0.510017
H33	H	0.273256	-1.705316	0.615486
H34	H	0.236504	-1.549942	0.706202
H35	H	-0.421866	-1.411822	0.593857
O36	O	-0.443812	-1.398680	0.418143
C37	C	-0.408633	-1.274481	0.381053
H38	H	-0.241465	-1.270929	0.339112
H39	H	-0.431845	-1.212338	0.481232
H40	H	-0.524141	-1.239745	0.292829
O41	O	-0.678013	-1.091274	-0.000044
C42	C	-0.642647	-1.222730	0.000001
H43	H	-0.480003	-1.250613	-0.045778
H44	H	-0.766145	-1.264748	-0.070188
H45	H	-0.653198	-1.259127	0.116001
O46	O	-0.119556	-0.920480	-0.000185
C47	C	-0.111635	-0.996512	-0.125428
H48	H	-0.277595	-1.005581	-0.167176
H49	H	-0.035406	-1.093177	-0.097266
H50	H	-0.015501	-0.952262	-0.213113
