data_functionalizedCrystal
_audit_creation_method	'MofGen! by Chris Wilmer'
_symmetry_space_group_name_H-M	'P1'
_symmetry_Int_Tables_number	1
_symmetry_cell_setting	triclinic
loop_
_symmetry_equiv_pos_as_xyz
  x,y,z
_cell_length_a	21.395362
_cell_length_b	13.032868
_cell_length_c	21.395356
_cell_angle_alpha	82.845906
_cell_angle_beta	89.957023
_cell_angle_gamma	82.769555
loop_
_atom_site_label
_atom_site_type_symbol
_atom_site_fract_x
_atom_site_fract_y
_atom_site_fract_z
Zn1	Zn	0.926214	0.415642	-0.386214
Zn2	Zn	1.426214	0.915642	0.113786
Zn3	Zn	0.912814	0.590407	-0.294735
Zn4	Zn	1.412814	1.090407	0.205265
Zn5	Zn	0.821425	0.415719	-0.281421
Zn6	Zn	1.321425	0.915719	0.218579
Zn7	Zn	0.808095	0.590401	-0.399439
Zn8	Zn	1.308095	1.090401	0.100561
O9	O	0.867137	0.503042	-0.340452
O10	O	1.367137	1.003042	0.159548
O11	O	1.012117	0.438796	-0.374116
O12	O	1.512117	0.938796	0.125884
O13	O	0.900662	0.567269	-0.205293
O14	O	1.400662	1.067269	0.294707
O15	O	0.846511	0.269463	-0.284215
O16	O	1.346511	0.769463	0.215785
O17	O	1.002272	0.567195	-0.306907
O18	O	1.502272	1.067195	0.193093
O19	O	0.923500	0.269407	-0.361206
O20	O	1.423500	0.769407	0.138794
O21	O	0.833519	0.438926	-0.195512
O22	O	1.333519	0.938926	0.304488
O23	O	0.731976	0.438920	-0.297039
O24	O	1.231976	0.938920	0.202961
O25	O	0.823793	0.567184	-0.485360
O26	O	1.323793	1.067184	0.014640
O27	O	0.722183	0.567258	-0.383747
O28	O	1.222183	1.067258	0.116253
O29	O	0.910574	0.438789	-0.475643
O30	O	1.410574	0.938789	0.024357
O31	O	0.887737	0.736651	-0.319731
O32	O	1.387737	1.236651	0.180269
O33	O	0.810800	0.736647	-0.396657
O34	O	1.310800	1.236647	0.103343
C35	C	0.704345	0.503097	-0.340384
C36	C	1.204345	1.003097	0.159616
C37	C	0.634700	0.503146	-0.340371
C38	C	1.134700	1.003146	0.159629
C39	C	0.596897	0.570061	-0.385466
C40	C	1.096897	1.070061	0.114534
C41	C	0.531464	0.570035	-0.385492
C42	C	1.031464	1.070035	0.114508
C43	C	0.503835	0.503106	-0.340413
C44	C	1.003835	1.003106	0.159587
C45	C	0.541647	0.436179	-0.295314
C46	C	1.041647	0.936179	0.204686
C47	C	0.607079	0.436199	-0.295293
C48	C	1.107079	0.936199	0.204707
C49	C	0.400751	0.494702	-0.283368
C50	C	0.900751	0.994702	0.216632
C51	C	0.335319	0.494689	-0.283388
C52	C	0.835319	0.994689	0.216612
C53	C	0.302019	0.503038	-0.340477
C54	C	0.802019	1.003038	0.159523
C55	C	0.334158	0.511421	-0.397548
C56	C	0.834158	1.011421	0.102452
C57	C	0.399591	0.511441	-0.397527
C58	C	0.899591	1.011441	0.102473
C59	C	0.432885	0.503076	-0.340430
C60	C	0.932885	1.003076	0.159570
C61	C	0.193266	0.569928	-0.385604
C62	C	0.693266	1.069928	0.114396
C63	C	0.127832	0.569895	-0.385630
C64	C	0.627832	1.069895	0.114370
C65	C	0.138015	0.436044	-0.295446
C66	C	0.638015	0.936044	0.204554
C67	C	0.203449	0.436072	-0.295425
C68	C	0.703449	0.936072	0.204575
C69	C	0.231070	0.503019	-0.340503
C70	C	0.731070	1.003019	0.159497
C71	C	0.846385	0.774569	-0.361087
C72	C	1.346385	1.274569	0.138913
C73	C	0.837564	0.890729	-0.369936
C74	C	1.337564	1.390729	0.130064
C75	C	0.871733	0.942485	-0.335848
C76	C	1.371733	1.442485	0.164152
C77	C	0.862617	1.062542	-0.344993
C78	C	1.362617	1.562542	0.155007
C79	C	1.030564	0.502987	-0.340521
C80	C	1.530564	1.002987	0.159479
C81	C	1.100208	0.502964	-0.340551
C82	C	1.600208	1.002964	0.159449
C83	C	0.887966	1.230455	-0.319743
C84	C	1.387966	1.730455	0.180257
C85	C	0.896790	1.114295	-0.310901
C86	C	1.396790	1.614295	0.189099
C87	C	0.867191	0.502977	-0.503870
C88	C	1.367191	1.002977	-0.003870
C89	C	0.867214	0.502950	-0.573510
C90	C	1.367214	1.002950	-0.073510
C91	C	0.832264	0.436114	-0.601119
C92	C	1.332264	0.936114	-0.101119
C93	C	0.832263	0.436095	-0.666553
C94	C	1.332263	0.936095	-0.166553
C95	C	0.867225	0.502900	-0.704374
C96	C	1.367225	1.002900	-0.204374
C97	C	0.902177	0.569749	-0.676758
C98	C	1.402177	1.069749	-0.176758
C99	C	0.902172	0.569774	-0.611326
C100	C	1.402172	1.069774	-0.111326
C101	C	0.923054	0.511090	-0.808703
C102	C	1.423054	1.011090	-0.308703
C103	C	0.923060	0.511058	-0.874133
C104	C	1.423060	1.011058	-0.374133
C105	C	0.867241	0.502829	-0.906190
C106	C	1.367241	1.002829	-0.406190
C107	C	0.811414	0.494611	-0.872806
C108	C	1.311414	0.994611	-0.372806
C109	C	0.811408	0.494636	-0.807374
C110	C	1.311408	0.994636	-0.307374
C111	C	0.867234	0.502881	-0.775325
C112	C	1.367234	1.002881	-0.275325
C113	C	0.832286	0.435969	-1.004750
C114	C	1.332286	0.935969	-0.504750
C115	C	0.832284	0.435957	-1.070186
C116	C	1.332284	0.935957	-0.570186
C117	C	0.902204	0.569606	-1.080389
C118	C	1.402204	1.069606	-0.580389
C119	C	0.902200	0.569623	-1.014955
C120	C	1.402200	1.069623	-0.514955
C121	C	0.867243	0.502799	-0.977139
C122	C	1.367243	1.002799	-0.477139
C123	C	0.867125	0.503031	-0.177664
C124	C	1.367125	1.003031	0.322336
C125	C	0.867245	0.502764	-0.108002
C126	C	1.367245	1.002764	0.391998
H127	H	0.500679	0.624524	-0.422217
H128	H	1.000679	1.124524	0.077783
H129	H	0.427858	0.487899	-0.236876
H130	H	0.927858	0.987899	0.263124
O131	O	0.939910	0.641702	-0.985178
O132	O	1.439910	1.141702	-0.485178
H133	H	0.907800	0.694905	-0.959390
H134	H	1.407800	1.194905	-0.459390
H135	H	0.803796	0.381705	-0.570333
H136	H	1.303796	0.881705	-0.070333
H137	H	0.215756	0.624435	-0.422312
H138	H	0.715756	1.124435	0.077688
H139	H	0.765952	0.487946	-0.780195
H140	H	1.265952	0.987946	-0.280195
O141	O	0.244230	0.363910	-0.246783
O142	O	0.744230	0.863910	0.253217
H143	H	0.270426	0.410633	-0.218407
H144	H	0.770426	0.910633	0.281593
H145	H	0.097053	0.624383	-0.422356
H146	H	0.597053	1.124383	0.077644
H147	H	0.801566	0.935301	-0.405893
H148	H	1.301566	1.435301	0.094107
O149	O	0.298248	0.520408	-0.459125
O150	O	0.798248	1.020408	0.040875
H151	H	0.315943	0.454026	-0.484898
H152	H	0.815943	0.954026	0.015102
O153	O	0.794589	0.363863	-1.099969
O154	O	1.294589	0.863863	-0.599969
H155	H	0.770287	0.317396	-1.062677
H156	H	1.270287	0.817396	-0.562677
H157	H	0.968518	0.517745	-0.901309
H158	H	1.468518	1.017745	-0.401309
O159	O	0.939916	0.641662	-1.121171
O160	O	1.439916	1.141662	-0.621171
H161	H	0.934052	0.630414	-1.171309
H162	H	1.434052	1.130414	-0.671309
H163	H	0.765961	0.487903	-0.898904
H164	H	1.265961	0.987903	-0.398904
H165	H	0.803821	0.381558	-0.973958
H166	H	1.303821	0.881558	-0.473958
H167	H	0.803804	0.381664	-0.689037
H168	H	1.303804	0.881664	-0.189037
H169	H	0.968513	0.517782	-0.782608
H170	H	1.468513	1.017782	-0.282608
H171	H	0.930643	0.624142	-0.707556
H172	H	1.430643	1.124142	-0.207556
O173	O	0.939883	0.641851	-0.581545
O174	O	1.439883	1.141851	-0.081545
H175	H	0.922871	0.723874	-0.600325
H176	H	1.422871	1.223874	-0.100325
O177	O	0.626691	0.642250	-0.434092
O178	O	1.126691	1.142250	0.065908
H179	H	0.589408	0.688768	-0.465458
H180	H	1.089408	1.188768	0.034542
H181	H	0.907737	0.897915	-0.299896
H182	H	1.407737	1.397915	0.200104
O183	O	0.108226	0.363862	-0.246817
O184	O	0.608226	0.863862	0.253183
H185	H	0.056375	0.375095	-0.254403
H186	H	0.556375	0.875095	0.245597
H187	H	0.425756	0.518264	-0.443997
H188	H	0.925756	1.018264	0.056003
H189	H	0.637859	0.381706	-0.258570
H190	H	1.137859	0.881706	0.241430
O191	O	0.300661	0.485641	-0.221834
O192	O	0.800661	0.985641	0.278166
H193	H	0.308100	0.552017	-0.196039
H194	H	0.808100	1.052017	0.303961
O195	O	0.511851	0.364011	-0.246678
O196	O	1.011851	0.864011	0.253322
H197	H	0.459999	0.375254	-0.254260
H198	H	0.959999	0.875254	0.245740
O199	O	0.814919	1.121564	-0.392618
O200	O	1.314919	1.621564	0.107382
H201	H	0.815238	1.206599	-0.392322
H202	H	1.315238	1.706599	0.107678
H203	H	0.932796	1.069728	-0.274946
H204	H	1.432796	1.569728	0.225054
