data_functionalizedCrystal
_audit_creation_method	'MofGen! by Chris Wilmer'
_symmetry_space_group_name_H-M	'P1'
_symmetry_Int_Tables_number	1
_symmetry_cell_setting	triclinic
loop_
_symmetry_equiv_pos_as_xyz
  x,y,z
_cell_length_a	15.698487
_cell_length_b	12.970454
_cell_length_c	12.970454
_cell_angle_alpha	59.999776
_cell_angle_beta	89.999559
_cell_angle_gamma	60.000777
loop_
_atom_site_label
_atom_site_type_symbol
_atom_site_fract_x
_atom_site_fract_y
_atom_site_fract_z
Zr1	Zr	0.820611	1.128544	-0.135320
O2	O	0.684598	1.343630	-0.299943
O3	O	0.862307	0.913455	-0.084854
O4	O	0.862308	1.128544	-0.299945
O5	O	0.684595	1.128541	0.084815
O6	O	1.002489	1.128548	-0.299947
O7	O	0.684596	1.128540	-0.084852
O8	O	1.002487	0.743792	0.084811
O9	O	0.684598	1.513297	-0.299943
O10	O	0.984705	1.001928	-0.063334
O11	O	0.880089	1.001926	0.063289
O12	O	0.880090	1.255166	-0.189953
O13	O	0.775474	1.255164	-0.063331
Zr14	Zr	1.044182	1.128552	0.135274
Zr15	Zr	1.044184	1.128551	-0.135324
Zr16	Zr	0.820610	1.128546	0.135278
Zr17	Zr	0.820611	1.399144	-0.135322
Zr18	Zr	1.044182	0.857952	0.135275
O19	O	1.002487	1.343641	0.084808
O20	O	1.002489	1.343639	-0.299949
O21	O	0.684595	1.343632	0.084814
O22	O	1.180196	0.913466	0.299896
O23	O	1.180198	0.913464	-0.084860
O24	O	0.862305	0.913457	0.299902
O25	O	1.180198	1.128555	-0.084861
O26	O	1.002486	1.128552	0.299899
O27	O	0.862305	1.128548	0.299901
O28	O	1.180197	1.128556	0.084806
O29	O	0.862308	1.513303	-0.299947
O30	O	1.002486	0.743793	0.299901
O31	O	1.180196	0.743799	0.299897
O32	O	1.180197	0.743797	0.084807
O33	O	0.684596	1.513299	-0.084854
O34	O	0.862307	1.513304	-0.084857
O35	O	0.984704	1.001930	0.189907
O36	O	1.089320	1.001932	0.063285
O37	O	0.984705	1.255170	-0.063335
O38	O	0.880089	1.255168	0.063287
C39	C	0.932397	0.790069	-0.000021
C40	C	0.932397	0.675192	-0.000021
C41	C	0.652742	1.128540	-0.000018
C42	C	0.557829	1.128537	-0.000016
C43	C	0.384044	1.128563	-0.000028
C44	C	0.480748	1.128554	-0.000024
C45	C	1.212052	1.128556	-0.000028
C46	C	1.306965	1.128559	-0.000030
C47	C	0.932399	1.128546	-0.338501
C48	C	0.932399	1.128546	-0.453377
C49	C	0.932397	1.467027	-0.000025
C50	C	0.932397	1.581904	-0.000025
C51	C	0.932395	1.128550	0.338454
C52	C	0.932394	1.128550	0.453331
C53	C	1.212052	0.790077	-0.000027
C54	C	1.306965	0.675203	-0.000028
C55	C	0.932395	0.790071	0.338456
C56	C	0.932394	0.675194	0.453333
C57	C	1.212050	0.790079	0.338451
C58	C	1.306962	0.675205	0.453326
C59	C	0.652744	1.467017	-0.338497
C60	C	0.557832	1.581891	-0.453372
C61	C	0.652742	1.467019	-0.000020
C62	C	0.557829	1.581893	-0.000018
C63	C	0.932399	1.467025	-0.338502
C64	C	0.932400	1.581902	-0.453379
C65	C	1.296929	0.621255	-0.066133
C66	C	1.386100	0.513334	-0.066160
C67	C	1.485307	0.459355	-0.000072
C68	C	1.495341	0.513313	0.066035
C69	C	1.406170	0.621240	0.066053
C70	C	1.406152	0.621261	0.441177
C71	C	1.495340	0.513340	0.549104
C72	C	1.485336	0.459359	0.669178
C73	C	1.386136	0.513314	0.681325
C74	C	1.296950	0.621240	0.573399
C75	C	0.458642	1.635848	-0.441223
C76	C	0.369454	1.743803	-0.549150
C77	C	0.379458	1.797790	-0.669225
C78	C	0.478658	1.743828	-0.681371
C79	C	0.567844	1.635883	-0.573446
C80	C	0.567865	1.635852	0.066076
C81	C	0.478693	1.743804	0.066072
C82	C	0.379487	1.797786	-0.000019
C83	C	0.369453	1.743822	-0.066121
C84	C	0.458623	1.635881	-0.066124
H85	H	1.216158	0.665203	-0.119965
H86	H	1.377910	0.469414	-0.119992
H87	H	0.486790	1.787798	-0.779149
H88	H	1.216189	0.665147	0.583309
F89	F	1.416822	0.678699	0.313394
F90	F	1.416868	0.678637	0.136424
F91	F	0.673406	1.578460	-0.586395
F92	F	1.600933	0.455847	0.136368
H93	H	1.557966	0.371478	0.757048
H94	H	1.557907	0.371473	-0.000096
F95	F	0.489394	1.801212	0.136435
F96	F	0.447972	1.578408	-0.313441
F97	F	0.447926	1.578457	-0.136467
F98	F	1.600906	0.455932	0.536150
F99	F	0.263888	1.801210	-0.536196
F100	F	0.263861	1.801286	-0.136452
H101	H	0.648636	1.591908	0.119903
F102	F	1.375506	0.455847	0.809128
F103	F	0.284528	1.912675	-0.784079
F104	F	0.284591	1.912668	-0.000003
