data_functionalizedCrystal
_audit_creation_method	'MofGen! by Chris Wilmer'
_symmetry_space_group_name_H-M	'P1'
_symmetry_Int_Tables_number	1
_symmetry_cell_setting	triclinic
loop_
_symmetry_equiv_pos_as_xyz
  x,y,z
_cell_length_a	13.635800
_cell_length_b	10.943632
_cell_length_c	10.992410
_cell_angle_alpha	88.198630
_cell_angle_beta	71.235349
_cell_angle_gamma	108.838880
loop_
_atom_site_label
_atom_site_type_symbol
_atom_site_fract_x
_atom_site_fract_y
_atom_site_fract_z
V1	V	-2.057316	-0.178630	0.400562
O2	O	-2.036179	0.008584	0.392969
O3	O	-2.046294	-0.354193	0.397792
O4	O	-2.046109	-0.175882	0.575275
O5	O	-2.036365	-0.170961	0.214257
V6	V	-2.295739	-0.156237	0.378282
O7	O	-2.195269	-0.227751	0.449435
O8	O	-2.382885	-0.107116	0.329410
O9	O	-2.195157	0.019326	0.381052
O10	O	-2.375575	-0.343451	0.385876
O11	O	-2.375388	-0.163905	0.564587
O12	O	-2.195342	-0.158985	0.203569
C13	C	-1.971580	-0.396992	0.391465
C14	C	-2.003298	-0.540517	0.390365
V15	V	-1.557316	-0.178630	0.400562
O16	O	-1.536179	0.008584	0.392969
O17	O	-1.546294	-0.354193	0.397792
O18	O	-1.546109	-0.175882	0.575275
O19	O	-1.536365	-0.170961	0.214257
V20	V	-1.795739	-0.156237	0.378282
O21	O	-1.695269	-0.227751	0.449435
O22	O	-1.882885	-0.107116	0.329410
O23	O	-1.695157	0.019326	0.381052
O24	O	-1.875575	-0.343451	0.385876
O25	O	-1.875388	-0.163905	0.564587
O26	O	-1.695342	-0.158985	0.203569
C27	C	-1.925729	-0.617669	0.383048
C28	C	-1.965259	-0.690316	0.279329
C29	C	-2.020299	-0.723609	0.492136
C30	C	-2.042388	-0.611259	0.286573
C31	C	-2.097437	-0.644558	0.499475
C32	C	-2.137021	-0.717167	0.395735
C33	C	-1.971343	-0.169537	0.617861
C34	C	-2.002909	-0.168452	0.760689
C35	C	-2.101543	0.062118	0.387376
C36	C	-2.059444	0.205642	0.388484
C37	C	-2.101779	-0.165334	0.160977
C38	C	-2.059832	-0.166413	0.018147
C39	C	-1.471580	-0.396992	0.391465
C40	C	-1.503298	-0.540517	0.390365
C41	C	-1.471343	-0.169537	0.617861
C42	C	-1.502909	-0.168452	0.760689
C43	C	-1.936460	-0.158567	0.955815
C44	C	-1.903687	-0.160230	0.807331
C45	C	-2.102054	-0.295751	0.837772
C46	C	-2.134210	-0.294626	0.986338
C47	C	-2.072828	-0.048128	0.948349
C48	C	-2.037473	-0.047524	0.799336
C49	C	-1.601543	0.062118	0.387376
C50	C	-1.559444	0.205642	0.388484
C51	C	-1.601779	-0.165334	0.160977
C52	C	-1.559832	-0.166413	0.018147
C53	C	-1.437341	-0.736759	0.381565
C54	C	-1.404140	-0.587388	0.382200
C55	C	-1.538645	-0.579341	0.270546
C56	C	-1.570923	-0.728611	0.269267
C57	C	-1.636717	-0.767381	0.514880
C58	C	-1.602030	-0.618141	0.517490
C59	C	-1.436460	-0.158567	0.955815
C60	C	-1.403687	-0.160230	0.807331
C61	C	-1.602054	-0.295751	0.837772
C62	C	-1.634210	-0.294626	0.986338
C63	C	-1.572828	-0.048128	0.948349
C64	C	-1.537473	-0.047524	0.799336
H65	H	-1.836079	-0.574185	0.377562
F66	F	-2.254165	-0.773669	0.402703
F67	F	-1.633776	-0.539627	0.272349
F68	F	-1.630341	-0.045560	0.756832
F69	F	-1.699879	-0.578470	0.534985
H70	H	-1.521267	0.048541	0.968724
F71	F	-1.806517	-0.040607	0.737629
H72	H	-1.659073	-0.769693	0.269075
H73	H	-2.126525	-0.384189	1.032593
H74	H	-1.329361	-0.068697	0.754006
F75	F	-2.253164	-0.309071	1.042059
F76	F	-2.054147	-0.547518	0.172893
H77	H	-2.152950	-0.623768	0.592563
F78	F	-1.569972	-0.586767	0.633361
F79	F	-2.008471	-0.787536	0.605662
F80	F	-1.359716	-0.038002	0.980274
H81	H	-1.375190	-0.246399	0.782501
H82	H	-1.877759	-0.066404	0.974660
H83	H	-2.079270	-0.385535	0.812151
H84	H	-1.909706	-0.711074	0.186241
F85	F	-1.920279	-0.269655	1.018518
F86	F	-2.200349	-0.309626	0.800128
F87	F	-1.361692	-0.763761	0.262355
F88	F	-1.366761	-0.553542	0.494098
H89	H	-1.875190	-0.246399	0.782501
H90	H	-2.021267	0.048541	0.968724
F91	F	-1.943717	0.075567	0.730931
F92	F	-1.443717	0.075567	0.730931
F93	F	-2.130341	-0.045560	0.756832
H94	H	-1.424480	-0.783406	0.466643
F95	F	-1.632651	-0.832425	0.633377
H96	H	-2.162325	-0.052754	0.989189
H97	H	-1.329743	-0.534689	0.290925
F98	F	-1.498538	-0.751619	0.144921
H99	H	-1.468291	-0.524838	0.176432
H100	H	-1.626525	-0.384189	1.032593
H101	H	-1.726686	-0.808699	0.521157
H102	H	-1.662325	-0.052754	0.989189
F103	F	-1.420279	-0.269655	1.018518
H104	H	-1.725223	-0.305695	1.028968
F105	F	-1.700349	-0.309626	0.800128
F106	F	-1.572278	-0.413108	0.804285
