data_functionalizedCrystal
_audit_creation_method	'MofGen! by Chris Wilmer'
_symmetry_space_group_name_H-M	'P1'
_symmetry_Int_Tables_number	1
_symmetry_cell_setting	triclinic
loop_
_symmetry_equiv_pos_as_xyz
  x,y,z
_cell_length_a	15.944551
_cell_length_b	15.944545
_cell_length_c	14.421503
_cell_angle_alpha	89.995297
_cell_angle_beta	89.992632
_cell_angle_gamma	96.502545
loop_
_atom_site_label
_atom_site_type_symbol
_atom_site_fract_x
_atom_site_fract_y
_atom_site_fract_z
O1	O	-0.108298	1.114532	-0.077041
O2	O	-0.121659	0.869982	-0.077055
O3	O	0.007297	0.998935	-0.077053
O4	O	-0.237253	0.985579	-0.077043
O5	O	0.007282	0.998915	0.077170
O6	O	-0.121674	0.869961	0.077168
O7	O	-0.108312	1.114512	0.077182
Cu8	Cu	-0.114994	0.992235	0.091257
Cu9	Cu	-0.114977	0.992259	-0.091130
O10	O	-0.237268	0.985558	0.077180
C11	C	-0.121113	0.838677	0.000055
C12	C	-0.119453	0.745431	0.000049
C13	C	-0.034559	0.474798	0.000055
C14	C	-0.075495	0.525370	0.076099
C15	C	-0.113532	0.409787	0.000064
C16	C	-0.075502	0.525371	-0.075953
C17	C	-0.116437	0.574701	0.000055
C18	C	-0.154447	0.459131	0.076171
C19	C	-0.154442	0.459128	-0.075949
C20	C	-0.195436	0.509667	0.000114
C21	C	-0.111856	0.314785	0.000071
C22	C	-0.118119	0.669700	0.000056
C23	C	-0.268555	0.986123	0.000070
C24	C	-0.361801	0.987785	0.000074
C25	C	-0.576656	1.071690	0.000064
C26	C	-0.637680	1.032717	0.076103
C27	C	-0.532527	0.990793	0.000066
C28	C	-0.637651	1.032718	-0.075949
C29	C	-0.697439	0.993703	0.000054
C30	C	-0.592323	0.951798	0.076167
C31	C	-0.592287	0.951810	-0.075953
C32	C	-0.653294	0.912779	0.000104
C33	C	-0.437524	0.989118	0.000073
C34	C	-0.792440	0.995372	0.000053
C35	C	0.038583	0.998370	0.000055
C36	C	0.131829	0.996708	0.000045
C37	C	-0.108859	1.145816	0.000070
C38	C	-0.110519	1.239062	0.000070
N39	N	-0.115006	0.992224	0.219538
N40	N	-0.114959	0.992276	-0.219411
C41	C	-0.175102	0.933088	0.530991
C42	C	-0.099434	0.916092	0.469158
C43	C	-0.114973	0.992258	0.591427
C44	C	-0.190656	1.009198	0.469166
C45	C	-0.114993	0.992239	0.408706
C46	C	-0.039266	0.975224	0.530955
C47	C	-0.130538	1.068364	0.530969
C48	C	-0.054814	1.051399	0.469164
C49	C	-0.114962	0.992267	0.696688
C50	C	-0.114995	0.992231	0.303447
H51	H	-0.042149	0.554292	0.140386
H52	H	-0.572153	0.917631	-0.140245
H53	H	-0.187759	0.430190	-0.140238
C54	C	-0.605061	0.822678	0.163345
C55	C	-0.565354	0.905633	0.163048
H56	H	-0.588406	0.794180	0.216979
H57	H	-0.664539	0.823439	0.163854
H58	H	-0.589155	0.794152	0.109408
H59	H	-0.581266	0.934161	0.216983
H60	H	-0.505864	0.904876	0.162548
C61	C	-0.197438	0.332669	0.162305
C62	C	-0.199432	0.420237	0.163065
H63	H	-0.225200	0.308660	0.215954
H64	H	-0.225294	0.309418	0.108387
H65	H	-0.140465	0.320542	0.162073
H66	H	-0.256405	0.432364	0.163290
H67	H	-0.171578	0.443495	0.216997
H68	H	-0.225885	0.883024	0.558137
H69	H	0.033453	0.459145	0.000126
H70	H	-0.263501	0.525158	0.000161
H71	H	-0.086274	0.851724	0.442001
C72	C	-0.086191	1.217335	0.535079
C73	C	-0.148338	1.155232	0.567654
H74	H	-0.097192	1.270964	0.557724
H75	H	-0.032392	1.205370	0.556203
H76	H	-0.086854	1.217798	0.469216
H77	H	-0.147672	1.154765	0.633518
H78	H	-0.202151	1.167201	0.546536
C79	C	-0.640732	1.037380	-0.242318
C80	C	-0.664765	1.078931	-0.162731
H81	H	-0.657475	1.065912	-0.295888
H82	H	-0.581193	1.037111	-0.242639
H83	H	-0.667241	0.980938	-0.242407
H84	H	-0.638250	1.135372	-0.162638
H85	H	-0.724315	1.079209	-0.162410
C86	C	-0.591925	1.219779	0.001058
C87	C	-0.531690	1.162337	0.000174
H88	H	-0.564165	1.275739	0.001137
H89	H	-0.626594	1.211502	-0.052455
H90	H	-0.625859	1.211060	0.055104
H91	H	-0.497760	1.171052	-0.053875
H92	H	-0.497007	1.170618	0.053693
H93	H	-0.042130	0.554297	-0.140238
H94	H	-0.657792	1.066925	0.140392
C95	C	0.046358	0.955911	0.664524
C96	C	0.047143	0.955762	0.567434
H97	H	0.099700	0.943889	0.687043
H98	H	0.035213	1.009801	0.686195
H99	H	0.003635	0.914134	0.686177
H100	H	0.089862	0.997543	0.545780
H101	H	0.058298	0.901865	0.545754
H102	H	-0.003919	1.101432	0.442189
H103	H	-0.686454	0.845571	0.000143
C104	C	-0.339892	0.966505	0.463719
C105	C	-0.277043	1.028549	0.432510
H106	H	-0.393223	0.978448	0.441089
H107	H	-0.328417	0.912849	0.441653
H108	H	-0.340666	0.966154	0.529583
H109	H	-0.276264	1.028896	0.366645
H110	H	-0.288521	1.082219	0.454571
