data_functionalizedCrystal
_audit_creation_method	'MofGen! by Chris Wilmer'
_symmetry_space_group_name_H-M	'P1'
_symmetry_Int_Tables_number	1
_symmetry_cell_setting	triclinic
loop_
_symmetry_equiv_pos_as_xyz
  x,y,z
_cell_length_a	20.919287
_cell_length_b	14.446369
_cell_length_c	14.446369
_cell_angle_alpha	59.999168
_cell_angle_beta	86.843913
_cell_angle_gamma	58.210668
loop_
_atom_site_label
_atom_site_type_symbol
_atom_site_fract_x
_atom_site_fract_y
_atom_site_fract_z
Zr1	Zr	0.616721	1.013252	-0.170631
O2	O	0.514487	1.206378	-0.310289
O3	O	0.648064	0.820131	-0.127821
O4	O	0.648056	1.013260	-0.320939
O5	O	0.514497	1.013240	0.035166
O6	O	0.753413	1.013261	-0.329337
O7	O	0.514496	1.013248	-0.117171
O8	O	0.753428	0.667789	0.016116
O9	O	0.514483	1.358713	-0.310286
O10	O	0.740054	0.899563	-0.115828
O11	O	0.661429	0.899556	0.004127
O12	O	0.661419	1.126941	-0.223244
O13	O	0.582794	1.126934	-0.103289
Zr14	Zr	0.784756	1.013240	0.058934
Zr15	Zr	0.784753	1.013254	-0.184026
Zr16	Zr	0.616724	1.013239	0.072329
Zr17	Zr	0.616713	1.256209	-0.170628
Zr18	Zr	0.784763	0.770283	0.058930
O19	O	0.753412	1.206361	0.016123
O20	O	0.753408	1.206380	-0.329335
O21	O	0.514492	1.206359	0.035169
O22	O	0.886989	0.820115	0.198591
O23	O	0.886985	0.820134	-0.146866
O24	O	0.648069	0.820112	0.217637
O25	O	0.886979	1.013252	-0.146864
O26	O	0.753420	1.013232	0.209241
O27	O	0.648063	1.013231	0.217640
O28	O	0.886981	1.013244	0.005473
O29	O	0.648046	1.358714	-0.320934
O30	O	0.753430	0.667778	0.209236
O31	O	0.886994	0.667779	0.198589
O32	O	0.886991	0.667790	0.005468
O33	O	0.514485	1.358702	-0.117166
O34	O	0.648048	1.358704	-0.127813
O35	O	0.740057	0.899551	0.111547
O36	O	0.818682	0.899558	-0.008408
O37	O	0.740047	1.126936	-0.115825
O38	O	0.661422	1.126929	0.004131
C39	C	0.700747	0.709344	-0.055853
C40	C	0.700750	0.606202	-0.055854
C41	C	0.750087	0.459890	-0.131840
C42	C	0.750366	0.566815	-0.131555
C43	C	0.736926	0.479338	0.064793
C44	C	0.737286	0.371959	0.064374
C45	C	0.615169	0.546943	-0.099497
C46	C	0.615306	0.655416	-0.102012
C47	C	0.490555	1.013244	-0.039094
C48	C	0.419221	1.013243	-0.033407
C49	C	0.385707	1.013251	-0.114662
C50	C	0.318683	1.013244	-0.109313
C51	C	0.285172	1.013238	-0.022714
C52	C	0.318692	1.013226	0.058549
C53	C	0.385718	1.013224	0.053204
C54	C	0.082801	1.013235	-0.002373
C55	C	0.015769	1.013241	0.002964
C56	C	0.015766	1.013256	-0.164897
C57	C	0.082790	1.013262	-0.170238
C58	C	0.116307	1.013244	-0.088973
C59	C	0.216662	1.013235	-0.017247
C60	C	0.184819	1.013238	-0.094436
C61	C	0.910921	1.013248	-0.072604
C62	C	0.982255	1.013249	-0.078290
C63	C	0.700734	1.013263	-0.359754
C64	C	0.700733	1.013268	-0.462897
C65	C	0.700729	1.317149	-0.055844
C66	C	0.700726	1.420290	-0.055843
C67	C	0.650899	1.156661	-0.677292
C68	C	0.651109	1.156757	-0.570077
C69	C	0.786172	0.942038	-0.473033
C70	C	0.785904	0.942948	-0.580780
C71	C	0.665836	0.939994	-0.569845
C72	C	0.664102	0.942696	-0.463738
C73	C	0.700742	1.013229	0.248057
C74	C	0.700743	1.013224	0.351200
C75	C	0.910930	0.709346	-0.072608
C76	C	0.982267	0.606205	-0.078296
C77	C	0.700751	0.709327	0.248053
C78	C	0.700755	0.606180	0.351194
C79	C	0.910934	0.709329	0.231298
C80	C	0.982272	0.606182	0.328753
C81	C	0.490543	1.317163	-0.342995
C82	C	0.419204	1.420310	-0.440450
C83	C	0.490546	1.317147	-0.039089
C84	C	0.419209	1.420288	-0.033401
C85	C	0.700725	1.317165	-0.359750
C86	C	0.700721	1.420313	-0.462892
C87	C	0.974725	0.557771	-0.137049
C88	C	1.041747	0.460873	-0.142416
C89	C	1.116311	0.412403	-0.089022
C90	C	1.123852	0.460846	-0.030267
C91	C	1.056830	0.557749	-0.024908
C92	C	1.056822	0.557747	0.311903
C93	C	1.123859	0.460844	0.403462
C94	C	1.116343	0.412370	0.511870
C95	C	1.041786	0.460815	0.528719
C96	C	0.974751	0.557723	0.437161
C97	C	0.344654	1.468757	-0.423600
C98	C	0.277618	1.565691	-0.515159
C99	C	0.285133	1.614169	-0.623568
C100	C	0.359691	1.565718	-0.640416
C101	C	0.426725	1.468793	-0.548858
C102	C	0.426752	1.468731	0.025342
C103	C	0.359729	1.565656	0.030682
C104	C	0.285165	1.614130	-0.022716
C105	C	0.277624	1.565682	-0.081466
C106	C	0.344646	1.468765	-0.086812
C107	C	0.650931	0.459857	0.430151
C108	C	0.651137	0.566789	0.322801
C109	C	0.786196	0.479320	0.418939
C110	C	0.785933	0.371933	0.525824
C111	C	0.665860	0.546904	0.536984
C112	C	0.664121	0.655386	0.428446
H113	H	0.813480	0.529348	-0.101578
H114	H	0.601158	0.994633	-0.459238
H115	H	1.062983	0.597171	0.022942
O116	O	0.507166	1.416482	0.082933
H117	H	0.539675	1.309577	0.145950
O118	O	1.204275	0.408561	0.027326
H119	H	1.236768	0.301654	0.090321
H120	H	0.725943	0.497138	-0.221114
H121	H	0.216905	1.605164	-0.124940
O122	O	0.336504	1.416518	-0.150171
H123	H	0.365077	1.309611	-0.092540
O124	O	0.575136	0.599375	-0.214979
H125	H	0.558608	0.700436	-0.273545
H126	H	1.062956	0.597200	0.223638
H127	H	0.216916	1.605123	-0.501419
O128	O	0.819537	0.428243	0.112106
H129	H	0.823434	0.426774	0.189199
H130	H	0.914017	0.597235	-0.180544
O131	O	1.204276	0.408587	0.385303
H132	H	1.211105	0.364411	0.337722
H133	H	0.914051	0.597147	0.450896
H134	H	0.212108	1.013235	-0.164942
H135	H	1.170878	0.333497	-0.093393
O136	O	0.707202	0.804013	-0.362341
H137	H	0.755623	0.783126	-0.309531
O138	O	0.566215	0.514114	-0.026416
H139	H	0.602594	0.408147	0.040668
O140	O	0.118935	1.013261	-0.263639
H141	H	0.118774	1.102014	-0.312017
H142	H	0.824919	0.836535	-0.397855
H143	H	0.588280	0.745912	-0.190866
H144	H	1.170934	0.333461	0.586414
H145	H	0.701969	0.834327	-0.545278
O146	O	0.118942	1.013216	0.085279
H147	H	0.118798	1.101951	0.044944
O148	O	0.682724	0.341091	0.426228
H149	H	0.679770	0.266796	0.501399
H150	H	1.035592	0.421443	-0.190260
O151	O	1.033691	0.408515	0.645652
H152	H	0.970591	0.458473	0.642001
O153	O	0.336539	1.416486	-0.306678
H154	H	0.273433	1.466484	-0.310362
H155	H	0.230542	1.693092	-0.698111
O156	O	0.367792	1.618001	-0.757345
H157	H	0.308650	1.693524	-0.818170
H158	H	0.814339	0.440765	0.365086
O159	O	0.820683	0.251748	0.111228
H160	H	0.844456	0.216288	0.197757
H161	H	0.487426	1.429348	-0.562591
H162	H	0.365884	1.605086	0.078526
O163	O	-0.020387	1.013282	-0.252546
H164	H	-0.020232	0.924536	-0.212210
O165	O	0.567351	1.231243	-0.742128
H166	H	0.540571	1.180703	-0.691676
H167	H	-0.011513	1.013237	0.073488
H168	H	0.675353	0.529326	0.267082
O169	O	0.212879	1.718625	-0.016910
H170	H	0.230658	1.744139	0.032933
H171	H	0.588222	0.656142	0.273547
O172	O	0.822915	1.010006	-0.650430
H173	H	0.779852	1.096858	-0.732579
O174	O	0.567392	0.509103	0.433740
H175	H	0.560499	0.505884	0.511820
O176	O	0.822944	0.251717	0.522515
H177	H	0.840859	0.270680	0.444737
O178	O	0.421841	1.013270	-0.208076
H179	H	0.474074	1.013284	-0.198153
O180	O	0.837804	0.332220	0.625790
H181	H	0.862970	0.389722	0.597646
H182	H	0.824940	0.501566	0.443083
H183	H	0.603897	0.586475	0.546040
O184	O	0.180515	1.013230	0.076155
H185	H	0.162690	1.101971	0.073454
H186	H	0.601177	0.745882	0.382042
O187	O	0.707208	0.697924	0.458844
H188	H	0.755626	0.684590	0.419195
H189	H	0.575435	0.687539	-0.051801
O190	O	0.713708	0.514074	0.636778
H191	H	0.762115	0.408109	0.686286
H192	H	0.413006	1.013215	0.119371
O193	O	0.282552	1.013222	0.151955
H194	H	0.230309	1.013239	0.142016
H195	H	0.703657	0.342000	0.123664
H196	H	0.812825	0.370229	-0.102139
O197	O	0.718291	0.685105	-0.249513
H198	H	0.657389	0.723647	-0.284646
O199	O	0.691606	0.508782	0.142626
H200	H	0.642702	0.614404	0.096034
H201	H	0.291397	1.013249	-0.175476
H202	H	0.588194	1.212657	-0.566684
H203	H	0.675321	1.213001	-0.574459
O204	O	0.682662	1.230876	-0.752662
H205	H	0.744535	1.180557	-0.710008
H206	H	0.825059	0.837710	-0.557249
H207	H	0.814314	0.991509	-0.473134
H208	H	0.603876	0.985889	-0.614928
