data_functionalizedCrystal
_audit_creation_method	'MofGen! by Chris Wilmer'
_symmetry_space_group_name_H-M	'P1'
_symmetry_Int_Tables_number	1
_symmetry_cell_setting	triclinic
loop_
_symmetry_equiv_pos_as_xyz
  x,y,z
_cell_length_a	19.121424
_cell_length_b	19.121063
_cell_length_c	12.827885
_cell_angle_alpha	87.596033
_cell_angle_beta	87.587616
_cell_angle_gamma	94.804615
loop_
_atom_site_label
_atom_site_type_symbol
_atom_site_fract_x
_atom_site_fract_y
_atom_site_fract_z
Zn1	Zn	1.063722	-0.234165	0.538428
Zn2	Zn	1.563722	0.265835	1.038428
Zn3	Zn	1.058605	-0.351851	0.371458
Zn4	Zn	1.558605	0.148149	0.871458
Zn5	Zn	0.946053	-0.239223	0.371459
Zn6	Zn	1.446053	0.260777	0.871459
Zn7	Zn	0.941002	-0.356819	0.553906
Zn8	Zn	1.441002	0.143181	1.053906
O9	O	1.002345	-0.295515	0.458813
O10	O	1.502345	0.204485	0.958813
O11	O	1.161505	-0.245581	0.509801
O12	O	1.661505	0.254419	1.009801
O13	O	1.043648	-0.336948	0.225226
O14	O	1.543648	0.163052	0.725226
O15	O	0.965917	-0.140087	0.387131
O16	O	1.465917	0.359913	0.887131
O17	O	1.157746	-0.332043	0.387129
O18	O	1.657746	0.167957	0.887129
O19	O	1.052368	-0.136371	0.509802
O20	O	1.552368	0.363629	1.009802
O21	O	0.960956	-0.254201	0.225227
O22	O	1.460956	0.245799	0.725227
O23	O	0.846921	-0.259019	0.402139
O24	O	1.346921	0.240981	0.902139
O25	O	0.957308	-0.340512	0.698085
O26	O	1.457308	0.159488	1.198085
O27	O	0.843210	-0.345416	0.536182
O28	O	1.343210	0.154584	1.036182
O29	O	1.047470	-0.250398	0.686713
O30	O	1.547470	0.249602	1.186713
O31	O	1.038750	-0.450976	0.402137
O32	O	1.538750	0.049024	0.902137
O33	O	0.952347	-0.454626	0.536181
O34	O	1.452347	0.045374	1.036181
C35	C	0.819535	-0.303306	0.470841
C36	C	1.319535	0.196694	0.970841
C37	C	0.741328	-0.306656	0.476013
C38	C	1.241328	0.193344	0.976013
C39	C	0.298905	-0.327840	0.508840
C40	C	0.798905	0.172160	1.008840
C41	C	0.372389	-0.324698	0.503962
C42	C	0.872389	0.175302	1.003962
C43	C	0.411044	-0.278072	0.431840
C44	C	0.911044	0.221928	0.931840
C45	C	0.376210	-0.234591	0.364585
C46	C	0.876210	0.265409	0.864585
C47	C	0.302727	-0.237737	0.369459
C48	C	0.802727	0.262263	0.869459
C49	C	0.633011	-0.266321	0.413632
C50	C	1.133011	0.233679	0.913632
C51	C	0.706499	-0.263176	0.408765
C52	C	1.206499	0.236824	0.908765
C53	C	0.702673	-0.353285	0.548141
C54	C	1.202673	0.146715	1.048141
C55	C	0.629189	-0.356424	0.553013
C56	C	1.129189	0.143576	1.053013
C57	C	0.594361	-0.312946	0.485755
C58	C	1.094361	0.187054	0.985755
C59	C	0.486157	-0.274857	0.426854
C60	C	0.986157	0.225143	0.926854
C61	C	0.519250	-0.316164	0.490737
C62	C	1.019250	0.183836	0.990737
C63	C	0.994464	-0.478331	0.470860
C64	C	1.494464	0.021669	0.970860
C65	C	0.991157	-0.556538	0.476045
C66	C	1.491157	-0.056538	0.976045
C67	C	1.034623	-0.591354	0.408744
C68	C	1.534623	-0.091354	0.908744
C69	C	1.031517	-0.664838	0.413626
C70	C	1.531517	-0.164838	0.913626
C71	C	0.984940	-0.703504	0.485804
C72	C	1.484940	-0.203504	0.985804
C73	C	0.941471	-0.668683	0.553112
C74	C	1.441471	-0.168683	1.053112
C75	C	0.944582	-0.595200	0.548234
C76	C	1.444582	-0.095200	1.048234
C77	C	0.973299	-0.925470	0.504025
C78	C	1.473299	-0.425470	1.004025
C79	C	0.970190	-0.998957	0.508896
C80	C	1.470190	-0.498957	1.008896
C81	C	1.060237	-0.995107	0.369410
C82	C	1.560237	-0.495107	0.869410
C83	C	1.063340	-0.921624	0.364535
C84	C	1.563340	-0.421624	0.864535
C85	C	1.019875	-0.886809	0.431846
C86	C	1.519875	-0.386809	0.931846
C87	C	0.981762	-0.778616	0.490794
C88	C	1.481762	-0.278616	0.990794
C89	C	1.023057	-0.811698	0.426861
C90	C	1.523057	-0.311698	0.926861
C91	C	1.185869	-0.287693	0.446738
C92	C	1.685869	0.212307	0.946738
C93	C	1.264076	-0.284361	0.441592
C94	C	1.764076	0.215639	0.941592
C95	C	1.002396	-0.295445	0.731375
C96	C	1.502396	0.204555	1.231375
C97	C	1.002418	-0.295415	0.847525
C98	C	1.502418	0.204585	1.347525
C99	C	1.010277	-0.111984	0.446740
C100	C	1.510277	0.388016	0.946740
C101	C	1.013657	-0.033774	0.441595
C102	C	1.513657	0.466226	0.941595
C103	C	1.002338	-0.295531	0.187304
C104	C	1.502338	0.204469	0.687304
C105	C	1.002461	-0.295357	0.071133
C106	C	1.502461	0.204643	0.571133
C107	C	1.047038	-0.250816	0.893682
C108	C	1.547038	0.249184	1.393682
C109	C	1.047061	-0.250784	1.013729
C110	C	1.547061	0.249216	1.513729
H111	H	0.597721	-0.394394	0.611741
H112	H	1.097721	0.105606	1.111741
O113	O	1.073293	-0.769994	0.349018
O114	O	1.573293	-0.269994	0.849018
H115	H	1.103002	-0.806545	0.303037
H116	H	1.603002	-0.306545	0.803037
H117	H	1.072548	-0.559877	0.349964
H118	H	1.572548	-0.059877	0.849964
H119	H	1.085219	-0.212654	0.844324
H120	H	1.585219	0.287346	1.344324
O121	O	1.097655	-0.200190	1.066322
O122	O	1.597655	0.299810	1.566322
H123	H	1.089725	-0.208095	1.152358
H124	H	1.589725	0.291905	1.652358
O125	O	0.951843	-0.345936	1.018555
O126	O	1.451843	0.154064	1.518555
H127	H	0.981798	-0.380379	0.969099
H128	H	1.481798	0.119621	1.469099
O129	O	0.951831	-0.345960	0.912895
O130	O	1.451831	0.154040	1.412895
H131	H	0.961488	-0.400691	0.894847
H132	H	1.461488	0.099309	1.394847
O133	O	1.078393	-0.702393	0.341033
O134	O	1.578393	-0.202393	0.841033
H135	H	1.111296	-0.663161	0.290013
H136	H	1.611296	-0.163161	0.790013
H137	H	0.604663	-0.230920	0.358861
H138	H	1.104663	0.269080	0.858861
O139	O	0.257212	-0.378179	0.586559
O140	O	0.757212	0.121821	1.086559
H141	H	0.293778	-0.407907	0.632468
H142	H	0.793778	0.092093	1.132468
O143	O	0.265151	-0.190855	0.296916
O144	O	0.765151	0.309145	0.796916
H145	H	0.233216	-0.156532	0.343628
H146	H	0.733216	0.343468	0.843628
H147	H	0.903551	-0.700170	0.611886
H148	H	1.403551	-0.200170	1.111886
O149	O	0.477588	-0.366474	0.568523
O150	O	0.977588	0.133526	1.068523
H151	H	0.445482	-0.336478	0.621942
H152	H	0.945482	0.163522	1.121942
O153	O	0.409958	-0.371587	0.576501
O154	O	0.909958	0.128413	1.076501
H155	H	0.370734	-0.404529	0.627482
H156	H	0.870734	0.095471	1.127482
H157	H	0.737970	-0.225199	0.350042
H158	H	1.237970	0.274801	0.850042
O159	O	0.740235	-0.400170	0.620695
O160	O	1.240235	0.099830	1.120695
H161	H	0.797826	-0.390151	0.605194
H162	H	1.297826	0.109849	1.105194
H163	H	0.407688	-0.196630	0.305857
H164	H	0.907688	0.303370	0.805857
H165	H	1.101267	-0.890143	0.305762
H166	H	1.601267	-0.390143	0.805762
O167	O	0.527847	-0.224564	0.349068
O168	O	1.027847	0.275436	0.849068
H169	H	0.562880	-0.187371	0.391357
H170	H	1.062880	0.312629	0.891357
H171	H	1.095625	-1.023462	0.314611
H172	H	1.595625	-0.523462	0.814611
O173	O	0.919957	-1.040666	0.586756
O174	O	1.419957	-0.540666	1.086756
H175	H	0.890260	-1.004112	0.632751
H176	H	1.390260	-0.504112	1.132751
O177	O	0.926397	-0.887935	0.576603
O178	O	1.426397	-0.387935	1.076603
H179	H	0.937823	-0.901477	0.658779
H180	H	1.437823	-0.401477	1.158779
O181	O	0.897693	-0.557643	0.620810
O182	O	1.397693	-0.057643	1.120810
H183	H	0.864775	-0.596874	0.671811
H184	H	1.364775	-0.096874	1.171811
O185	O	0.931515	-0.820327	0.568621
O186	O	1.431515	-0.320327	1.068621
H187	H	0.961568	-0.852416	0.621969
H188	H	1.461568	-0.352416	1.121969
