data_functionalizedCrystal
_audit_creation_method	'MofGen! by Chris Wilmer'
_symmetry_space_group_name_H-M	'P1'
_symmetry_Int_Tables_number	1
_symmetry_cell_setting	triclinic
loop_
_symmetry_equiv_pos_as_xyz
  x,y,z
_cell_length_a	29.839134
_cell_length_b	13.032721
_cell_length_c	13.032268
_cell_angle_alpha	103.289627
_cell_angle_beta	82.846696
_cell_angle_gamma	82.799327
loop_
_atom_site_label
_atom_site_type_symbol
_atom_site_fract_x
_atom_site_fract_y
_atom_site_fract_z
Zn1	Zn	0.623808	0.499249	0.654486
Zn2	Zn	0.623759	0.654333	0.499434
Zn3	Zn	0.559612	0.476727	0.476877
Zn4	Zn	0.537746	0.676784	0.676937
O5	O	0.586232	0.576773	0.576934
O6	O	0.686665	0.519851	0.633963
O7	O	0.624381	0.611952	0.347826
O8	O	0.577300	0.331086	0.481601
O9	O	0.686629	0.633791	0.520047
O10	O	0.624464	0.347633	0.612090
O11	O	0.577252	0.481465	0.331253
O12	O	0.493849	0.503235	0.503370
O13	O	0.540032	0.672055	0.822574
O14	O	0.477784	0.650216	0.650354
O15	O	0.603261	0.541621	0.806080
O16	O	0.603178	0.805939	0.541816
O17	O	0.539984	0.822434	0.672227
C18	C	0.469516	0.576718	0.576851
C19	C	0.419582	0.576724	0.576844
C20	C	0.569214	0.852727	0.611929
C21	C	0.561972	0.970786	0.626935
C22	C	0.569213	0.611855	0.853939
C23	C	0.561960	0.626804	0.971982
C24	C	0.101574	0.653396	0.653397
C25	C	-0.086103	0.653432	0.653448
O26	O	-0.117474	0.718566	0.718485
N27	N	-0.101218	0.576822	0.577018
C28	C	-0.069409	0.500194	0.500575
O29	O	-0.086572	0.435026	0.435574
C30	C	0.118267	0.500154	0.500529
C31	C	0.133379	0.576776	0.576957
C32	C	0.116687	0.730011	0.729820
C33	C	0.163603	0.730005	0.729803
C34	C	0.195408	0.653384	0.653363
C35	C	0.180296	0.576769	0.576940
C36	C	0.150075	0.423522	0.424091
C37	C	0.196996	0.423517	0.424088
C38	C	0.212108	0.500138	0.500516
C39	C	0.259017	0.500142	0.500483
N40	N	0.274131	0.576752	0.576913
C41	C	0.242327	0.653373	0.653353
C42	C	-0.167943	0.500221	0.500603
C43	C	-0.214862	0.500232	0.500613
C44	C	-0.231553	0.653470	0.653488
C45	C	-0.184633	0.653463	0.653472
C46	C	-0.152829	0.576831	0.577033
C47	C	0.340856	0.653355	0.653311
C48	C	0.387778	0.653345	0.653284
C49	C	0.404464	0.500104	0.500413
C50	C	0.357547	0.500117	0.500436
C51	C	0.325743	0.576747	0.576894
O52	O	0.290413	0.435035	0.435489
O53	O	0.259498	0.718516	0.718358
C54	C	0.054658	0.653403	0.653414
C55	C	0.039545	0.576788	0.576992
C56	C	0.071350	0.500167	0.500552
C57	C	-0.007374	0.576799	0.577002
C58	C	-0.039178	0.653420	0.653441
C59	C	-0.024064	0.730029	0.729871
C60	C	0.022853	0.730023	0.729854
C61	C	0.056235	0.423557	0.424122
C62	C	0.009318	0.423571	0.424145
C63	C	-0.022486	0.500191	0.500584
C64	C	0.703402	0.576829	0.577017
C65	C	0.753333	0.576853	0.577052
C66	C	0.603327	0.299745	0.541825
C67	C	0.610612	0.181692	0.526864
C68	C	0.590032	1.015231	0.569149
C69	C	0.582548	1.137251	0.584658
C70	C	0.603215	0.541752	0.300996
C71	C	0.610572	0.526503	0.182915
C72	C	0.590012	0.568933	1.016449
C73	C	0.582517	0.584382	1.138453
H74	H	0.400078	0.715743	0.715523
O75	O	0.526635	0.699441	1.034251
C76	C	0.444959	0.755299	1.074839
C77	C	0.484922	0.672947	1.004265
H78	H	0.411225	0.733920	1.050606
H79	H	0.445160	0.754792	1.162141
H80	H	0.448913	0.838205	1.063968
H81	H	0.480994	0.590000	1.015043
H82	H	0.484709	0.673547	0.916989
H83	H	0.175902	0.792396	0.792041
H84	H	0.619597	0.962950	0.508199
H85	H	0.552948	0.645363	1.190702
H86	H	0.552984	1.189532	0.645620
O87	O	0.645849	1.119172	0.454151
C88	C	0.685463	0.940562	0.372472
C89	C	0.645534	1.011236	0.454837
H90	H	0.685228	0.853284	0.373015
H91	H	0.681543	0.951426	0.289535
H92	H	0.719202	0.964674	0.393945
H93	H	0.611777	0.987170	0.433464
H94	H	0.649495	1.000364	0.537752
O95	O	0.625232	0.496114	0.953995
C96	C	0.647772	0.336926	0.810513
C97	C	0.607842	0.419331	0.881147
H98	H	0.633727	0.274814	0.751613
H99	H	0.671419	0.379109	0.764705
H100	H	0.667735	0.295808	0.862991
H101	H	0.587845	0.460475	0.828747
H102	H	0.584228	0.377090	0.926963
O103	O	0.135338	0.349089	0.349977
C104	C	0.092070	0.203889	0.317689
C105	C	0.108725	0.288134	0.401750
H106	H	0.070559	0.154570	0.359514
H107	H	0.070489	0.245510	0.268286
H108	H	0.122866	0.149170	0.263021
H109	H	0.077956	0.342879	0.456489
H110	H	0.130321	0.246443	0.451075
H111	H	0.532410	1.023071	0.687893
O112	O	0.227829	0.349033	0.349722
C113	C	0.239428	0.197006	0.198132
C114	C	0.204462	0.281306	0.282277
H115	H	0.220550	0.142213	0.143595
H116	H	0.261795	0.238577	0.148606
H117	H	0.261830	0.147774	0.239958
H118	H	0.182030	0.330564	0.240539
H119	H	0.182127	0.239670	0.331798
H120	H	0.314966	0.715752	0.715572
O121	O	0.085857	0.804553	0.804124
C122	C	0.074270	0.956514	0.955778
C123	C	0.109230	0.872158	0.871676
H124	H	0.093153	1.011180	1.010429
H125	H	0.051887	1.005877	0.914029
H126	H	0.051883	0.914879	1.005186
H127	H	0.131647	0.913705	0.822242
H128	H	0.131580	0.822800	0.913491
O129	O	0.342942	0.425591	0.426143
C130	C	0.364455	0.273639	0.274472
C131	C	0.381052	0.357971	0.358556
H132	H	0.395258	0.218960	0.219793
H133	H	0.342936	0.224285	0.316238
H134	H	0.342876	0.315294	0.225091
H135	H	0.402648	0.316403	0.407963
H136	H	0.402546	0.407319	0.316726
O137	O	-0.005436	0.349257	0.349924
C138	C	-0.070312	0.281325	0.282189
C139	C	-0.053668	0.365551	0.366289
H140	H	-0.109309	0.294455	0.295406
H141	H	-0.057007	0.289015	0.198858
H142	H	-0.056935	0.198092	0.290090
H143	H	-0.067038	0.448822	0.358488
H144	H	-0.066968	0.357767	0.449587
O145	O	0.645791	0.453660	1.120476
C146	C	0.668315	0.294436	0.977030
C147	C	0.628392	0.376879	1.047645
H148	H	0.654262	0.232326	0.918144
H149	H	0.691971	0.336586	0.931207
H150	H	0.688269	0.253323	1.029525
H151	H	0.608403	0.418018	0.995229
H152	H	0.604768	0.334670	1.093476
O153	O	-0.170033	0.727933	0.727824
C154	C	-0.191553	0.879963	0.879415
C155	C	-0.208146	0.795670	0.795282
H156	H	-0.222358	0.934764	0.933962
H157	H	-0.170018	0.838386	0.928931
H158	H	-0.169992	0.929188	0.837578
H159	H	-0.229724	0.746419	0.837031
H160	H	-0.229656	0.837313	0.745770
H161	H	-0.257456	0.715857	0.715728
O162	O	-0.229479	0.425842	0.426214
C163	C	-0.229577	0.351184	0.239069
C164	C	-0.212990	0.435473	0.323216
H165	H	-0.216261	0.358956	0.155778
H166	H	-0.216209	0.267922	0.246911
H167	H	-0.268575	0.364322	0.252237
H168	H	-0.173995	0.422434	0.310102
H169	H	-0.226392	0.518705	0.315352
O170	O	0.435425	0.425723	0.426269
C171	C	0.515107	0.357844	0.358485
C172	C	0.480093	0.442132	0.442522
H173	H	0.551229	0.371096	0.371582
H174	H	0.510042	0.274590	0.366427
H175	H	0.509968	0.365492	0.275175
H176	H	0.485211	0.434583	0.525869
H177	H	0.485167	0.525353	0.434486
H178	H	-0.142051	0.437817	0.438351
O179	O	-0.054982	0.804320	0.804221
C180	C	-0.117655	0.836957	0.949379
C181	C	-0.082656	0.752726	0.865248
H182	H	-0.140046	0.795276	0.998727
H183	H	-0.098825	0.891714	1.004088
H184	H	-0.140028	0.886248	0.907548
H185	H	-0.060274	0.703361	0.906989
H186	H	-0.101515	0.698044	0.810545
H187	H	0.035152	0.792416	0.792090
O188	O	0.087109	0.349220	0.349723
C189	C	0.115688	0.274478	0.162568
C190	C	0.080709	0.358734	0.246724
H191	H	0.110520	0.282126	0.079274
H192	H	0.151832	0.287611	0.175577
H193	H	0.110587	0.191259	0.170557
H194	H	0.085768	0.441987	0.238785
H195	H	0.044578	0.345507	0.233690
