data_functionalizedCrystal
_audit_creation_method	'MofGen! by Chris Wilmer'
_symmetry_space_group_name_H-M	'P1'
_symmetry_Int_Tables_number	1
_symmetry_cell_setting	triclinic
loop_
_symmetry_equiv_pos_as_xyz
  x,y,z
_cell_length_a	18.101395
_cell_length_b	14.908571
_cell_length_c	14.908308
_cell_angle_alpha	89.824947
_cell_angle_beta	93.266316
_cell_angle_gamma	93.272726
loop_
_atom_site_label
_atom_site_type_symbol
_atom_site_fract_x
_atom_site_fract_y
_atom_site_fract_z
Zn1	Zn	-0.386468	-1.345208	-0.587575
Zn2	Zn	-0.053135	-1.011875	-0.254242
Zn3	Zn	0.280198	-0.678541	0.079092
Zn4	Zn	-0.503604	-1.353762	-0.437213
Zn5	Zn	-0.170270	-1.020429	-0.103880
Zn6	Zn	0.163063	-0.687095	0.229453
Zn7	Zn	-0.372244	-1.203527	-0.428573
Zn8	Zn	-0.038911	-0.870193	-0.095240
Zn9	Zn	0.294423	-0.536860	0.238094
Zn10	Zn	-0.502724	-1.194790	-0.578865
Zn11	Zn	-0.169391	-0.861457	-0.245532
Zn12	Zn	0.163943	-0.528123	0.087802
O13	O	-0.441260	-1.274322	-0.508057
O14	O	-0.107927	-0.940988	-0.174723
O15	O	0.225407	-0.607655	0.158610
O16	O	-0.408328	-1.472167	-0.574890
O17	O	-0.074994	-1.138834	-0.241557
O18	O	0.258339	-0.805501	0.091776
O19	O	-0.480594	-1.341069	-0.310243
O20	O	-0.147261	-1.007736	0.023091
O21	O	0.186073	-0.674402	0.356424
O22	O	-0.270503	-1.222397	-0.449694
O23	O	0.062830	-0.889064	-0.116361
O24	O	0.396164	-0.555731	0.216972
O25	O	-0.494387	-1.478452	-0.464420
O26	O	-0.161053	-1.145119	-0.131087
O27	O	0.172280	-0.811785	0.202246
O28	O	-0.280953	-1.326490	-0.566512
O29	O	0.052380	-0.993157	-0.233179
O30	O	0.385713	-0.659824	0.100154
O31	O	-0.384085	-1.230692	-0.303895
O32	O	-0.050751	-0.897358	0.029439
O33	O	0.282582	-0.564025	0.362772
O34	O	-0.383231	-1.076543	-0.441249
O35	O	-0.049898	-0.743210	-0.107915
O36	O	0.283435	-0.409876	0.225418
O37	O	-0.492887	-1.207507	-0.705845
O38	O	-0.159554	-0.874174	-0.372512
O39	O	0.173780	-0.540840	-0.039178
O40	O	-0.479094	-1.070124	-0.551667
O41	O	-0.145761	-0.736791	-0.218334
O42	O	0.187572	-0.403458	0.114999
O43	O	-0.407474	-1.318019	-0.712244
O44	O	-0.074141	-0.984685	-0.378911
O45	O	0.259192	-0.651352	-0.045578
O46	O	-0.607115	-1.332598	-0.455974
O47	O	-0.273782	-0.999264	-0.122641
O48	O	0.059552	-0.665931	0.210692
O49	O	-0.606469	-1.215801	-0.560045
O50	O	-0.273135	-0.882468	-0.226712
O51	O	0.060198	-0.549135	0.106621
C52	C	-0.429524	-1.040709	-0.494576
C53	C	-0.096191	-0.707375	-0.161242
C54	C	0.237142	-0.374042	0.172091
C55	C	-0.424523	-0.940767	-0.488830
C56	C	-0.091189	-0.607434	-0.155496
C57	C	0.242144	-0.274100	0.177837
C58	C	-0.633663	-1.274203	-0.508023
C59	C	-0.300330	-0.940870	-0.174690
C60	C	0.033003	-0.607536	0.158643
C61	C	-0.715980	-1.274233	-0.508044
C62	C	-0.382646	-0.940899	-0.174710
C63	C	-0.049313	-0.607566	0.158623
C64	C	-0.451669	-1.260834	-0.742582
C65	C	-0.118336	-0.927501	-0.409248
C66	C	0.214997	-0.594168	-0.075915
C67	C	-0.456105	-1.255087	-0.842522
C68	C	-0.122772	-0.921753	-0.509189
C69	C	0.210562	-0.588420	-0.175856
C70	C	-1.015083	-1.274427	-0.508104
C71	C	-0.681749	-0.941094	-0.174770
C72	C	-0.348416	-0.607760	0.158563
C73	C	-0.983397	-1.201093	-0.573764
C74	C	-0.650064	-0.867760	-0.240431
C75	C	-0.316731	-0.534427	0.092903
C76	C	-0.897753	-1.200777	-0.573527
C77	C	-0.564420	-0.867443	-0.240194
C78	C	-0.231087	-0.534110	0.093140
C79	C	-0.866694	-1.274331	-0.508075
C80	C	-0.533361	-0.940997	-0.174741
C81	C	-0.200028	-0.607664	0.158592
C82	C	-0.892332	-1.254147	-0.411835
C83	C	-0.558999	-0.920814	-0.078502
C84	C	-0.225665	-0.587481	0.254831
C85	C	-0.977973	-1.253677	-0.412227
C86	C	-0.644640	-0.920343	-0.078893
C87	C	-0.311307	-0.587010	0.254440
C88	C	-0.989281	-1.368144	-0.537857
C89	C	-0.655948	-1.034811	-0.204524
C90	C	-0.322615	-0.701477	0.128810
C91	C	-0.903695	-1.367465	-0.539903
C92	C	-0.570361	-1.034131	-0.206570
C93	C	-0.237028	-0.700798	0.126764
C94	C	-0.782831	-1.274278	-0.508053
C95	C	-0.449498	-0.940945	-0.174719
C96	C	-0.116165	-0.607611	0.158614
C97	C	-1.098945	-1.274478	-0.508119
C98	C	-0.765612	-0.941145	-0.174786
C99	C	-0.432279	-0.607811	0.158548
C100	C	-0.248107	-1.274464	-0.508111
C101	C	0.085226	-0.941131	-0.174778
C102	C	0.418559	-0.607798	0.158555
C103	C	-0.165797	-1.274525	-0.508134
C104	C	0.167536	-0.941192	-0.174801
C105	C	0.500869	-0.607858	0.158532
C106	C	-0.453042	-1.508847	-0.521591
C107	C	-0.119709	-1.175513	-0.188257
C108	C	0.213625	-0.842180	0.145076
C109	C	-0.458063	-1.608787	-0.527358
C110	C	-0.124729	-1.275454	-0.194025
C111	C	0.208604	-0.942121	0.139309
C112	C	-0.515086	-0.746339	-0.592857
C113	C	-0.181753	-0.413006	-0.259524
C114	C	0.151581	-0.079672	0.073810
C115	C	-0.510389	-0.652434	-0.587462
C116	C	-0.177056	-0.319101	-0.254128
C117	C	0.156278	0.014232	0.079205
C118	C	-0.410428	-0.659052	-0.472648
C119	C	-0.077095	-0.325718	-0.139315
C120	C	0.256238	0.007615	0.194019
C121	C	-0.415125	-0.752956	-0.478044
C122	C	-0.081792	-0.419623	-0.144710
C123	C	0.251541	-0.086289	0.188623
C124	C	-0.467457	-0.796596	-0.538149
C125	C	-0.134124	-0.463263	-0.204816
C126	C	0.199210	-0.129930	0.128517
C127	C	-0.472157	-0.890503	-0.543540
C128	C	-0.138824	-0.557169	-0.210206
C129	C	0.194510	-0.223836	0.123127
C130	C	-0.372193	-0.897118	-0.428731
C131	C	-0.038860	-0.563784	-0.095398
C132	C	0.294473	-0.230451	0.237935
C133	C	-0.367496	-0.803213	-0.423336
C134	C	-0.034163	-0.469880	-0.090003
C135	C	0.299170	-0.136547	0.243331
C136	C	-0.375483	-1.359359	-1.036986
C137	C	-0.042150	-1.026026	-0.703653
C138	C	0.291184	-0.692693	-0.370320
C139	C	-0.379648	-1.353962	-1.130890
C140	C	-0.046315	-1.020629	-0.797556
C141	C	0.287018	-0.687295	-0.464223
C142	C	-0.468597	-1.238890	-1.124234
C143	C	-0.135264	-0.905557	-0.790900
C144	C	0.198070	-0.572223	-0.457567
C145	C	-0.464432	-1.244288	-1.030330
C146	C	-0.131098	-0.910954	-0.696997
C147	C	0.202235	-0.577621	-0.363664
C148	C	-0.417874	-1.304525	-0.986710
C149	C	-0.084540	-0.971192	-0.653377
C150	C	0.248793	-0.637859	-0.320044
C151	C	-0.413713	-1.309927	-0.892805
C152	C	-0.080379	-0.976593	-0.559472
C153	C	0.252954	-0.643260	-0.226139
C154	C	-0.502657	-1.194851	-0.886151
C155	C	-0.169324	-0.861518	-0.552817
C156	C	0.164010	-0.528184	-0.219484
C157	C	-0.506822	-1.189453	-0.980054
C158	C	-0.173489	-0.856120	-0.646721
C159	C	0.159844	-0.522787	-0.313387
C160	C	-0.430840	-1.287808	-0.274447
C161	C	-0.097507	-0.954475	0.058886
C162	C	0.235826	-0.621142	0.392220
C163	C	-0.426205	-1.293730	-0.174517
C164	C	-0.092871	-0.960397	0.158817
C165	C	0.240462	-0.627064	0.492150
H166	H	-0.880629	-1.212770	-0.644716
H167	H	-0.547295	-0.879437	-0.311383
H168	H	-0.213962	-0.546104	0.021950
H169	H	-0.506502	-1.189847	-1.159766
H170	H	-0.173168	-0.856514	-0.826432
H171	H	0.160165	-0.523181	-0.493099
H172	H	-0.345127	-1.398611	-1.171821
H173	H	-0.011794	-1.065278	-0.838488
H174	H	0.321539	-0.731945	-0.505155
H175	H	-0.887413	-1.382784	-0.610757
H176	H	-0.554080	-1.049451	-0.277423
H177	H	-0.220746	-0.716117	0.055910
H178	H	-1.009859	-1.422713	-0.490101
H179	H	-0.676526	-1.089380	-0.156767
H180	H	-0.343192	-0.756046	0.176566
H181	H	-0.324888	-0.767668	-0.374402
H182	H	0.008446	-0.434335	-0.041069
H183	H	0.341779	-0.101002	0.292265
H184	H	-0.873076	-1.131201	-0.553387
H185	H	-0.539742	-0.797868	-0.220053
H186	H	-0.206409	-0.464534	0.113280
H187	H	-0.544727	-1.140408	-1.015582
H188	H	-0.211393	-0.807075	-0.682249
H189	H	0.121940	-0.473741	-0.348916
H190	H	-0.367818	-0.623503	-0.423719
H191	H	-0.034485	-0.290169	-0.090385
H192	H	0.298848	0.043164	0.242948
H193	H	-0.993611	-1.185333	-0.387659
H194	H	-0.660277	-0.851999	-0.054325
H195	H	-0.326944	-0.518666	0.279008
H196	H	-0.337578	-1.408412	-1.001471
H197	H	-0.004244	-1.075078	-0.668137
H198	H	0.329089	-0.741745	-0.334804
H199	H	-0.514769	-0.926033	-0.592479
H200	H	-0.181436	-0.592700	-0.259146
H201	H	0.151898	-0.259367	0.074187
H202	H	-0.866562	-1.186561	-0.386941
H203	H	-0.533229	-0.853228	-0.053608
H204	H	-0.199895	-0.519895	0.279725
H205	H	-0.333411	-0.938048	-0.384182
H206	H	-0.000078	-0.604714	-0.050849
H207	H	0.333255	-0.271381	0.282484
H208	H	-0.557700	-0.781872	-0.641793
H209	H	-0.224367	-0.448538	-0.308459
H210	H	0.108966	-0.115205	0.024874
H211	H	-0.549172	-0.611518	-0.632012
H212	H	-0.215839	-0.278185	-0.298679
H213	H	0.117494	0.055149	0.034654
H214	H	-0.882912	-1.424553	-0.496001
H215	H	-0.549579	-1.091220	-0.162668
H216	H	-0.216246	-0.757887	0.170666
H217	H	-0.998720	-1.305069	-0.361342
H218	H	-0.665386	-0.971736	-0.028009
H219	H	-0.332053	-0.638403	0.305325
H220	H	-0.872037	-1.306121	-0.361340
H221	H	-0.538703	-0.972788	-0.028007
H222	H	-0.205370	-0.639454	0.305326
H223	H	-0.375804	-1.358977	-0.857292
H224	H	-0.042471	-1.025643	-0.523958
H225	H	0.290862	-0.692310	-0.190625
H226	H	-0.537177	-1.150203	-0.845206
H227	H	-0.203843	-0.816870	-0.511872
H228	H	0.129490	-0.483536	-0.178539
H229	H	-1.007887	-1.212915	-0.645171
H230	H	-0.674553	-0.879581	-0.311838
H231	H	-0.341220	-0.546248	0.021495
H232	H	-1.000760	-1.131935	-0.553850
H233	H	-0.667427	-0.798601	-0.220517
H234	H	-0.334094	-0.465268	0.112816
H235	H	-1.015032	-1.387612	-0.607127
H236	H	-0.681699	-1.054278	-0.273793
H237	H	-0.348366	-0.720945	0.059540
