data_functionalizedCrystal
_audit_creation_method	'MofGen! by Chris Wilmer'
_symmetry_space_group_name_H-M	'P1'
_symmetry_Int_Tables_number	1
_symmetry_cell_setting	triclinic
loop_
_symmetry_equiv_pos_as_xyz
  x,y,z
_cell_length_a	6.817900
_cell_length_b	13.923258
_cell_length_c	14.858329
_cell_angle_alpha	83.242316
_cell_angle_beta	104.519616
_cell_angle_gamma	81.871755
loop_
_atom_site_label
_atom_site_type_symbol
_atom_site_fract_x
_atom_site_fract_y
_atom_site_fract_z
V1	V	-3.973189	0.303094	-0.130635
O2	O	-3.956437	0.297039	0.004258
O3	O	-3.930156	0.301295	-0.257085
O4	O	-3.899104	0.435159	-0.129512
O5	O	-3.987703	0.162249	-0.124198
V6	V	-4.459450	0.286215	-0.114395
O7	O	-4.228442	0.340120	-0.166257
O8	O	-4.654394	0.249188	-0.078773
O9	O	-4.279276	0.288014	0.012054
O10	O	-4.593599	0.292269	-0.249288
O11	O	-4.562333	0.427060	-0.120832
O12	O	-4.310328	0.154150	-0.115519
C13	C	-3.777293	0.296584	-0.287883
C14	C	-3.823224	0.295994	-0.391263
C15	C	-3.860520	0.295505	-0.475217
C16	C	-3.907329	0.294897	-0.580543
C17	C	-3.944653	0.294413	-0.664492
C18	C	-3.991465	0.293803	-0.769824
C19	C	-4.135092	0.121964	-0.119884
C20	C	-4.093584	0.013997	-0.119961
C21	C	-4.017638	-0.183650	-0.120259
C22	C	-3.834381	-0.227054	-0.124770
C23	C	-3.792121	-0.337032	-0.124935
C24	C	-4.059907	-0.073663	-0.120093
C25	C	-3.737683	0.467340	-0.125149
C26	C	-3.758430	0.575305	-0.125068
C27	C	-4.095482	0.292722	0.042847
C28	C	-4.028788	0.293319	0.146226
H29	H	-3.709226	-0.181616	-0.128506
O30	O	-4.166748	-0.237985	-0.115854
C31	C	-4.090695	-0.337286	-0.116993
H32	H	-3.957335	-0.341852	-0.150631
H33	H	-4.218620	-0.371562	-0.159488
H34	H	-4.034633	-0.378742	-0.041782
