data_functionalizedCrystal
_audit_creation_method	'MofGen! by Chris Wilmer'
_symmetry_space_group_name_H-M	'P1'
_symmetry_Int_Tables_number	1
_symmetry_cell_setting	triclinic
loop_
_symmetry_equiv_pos_as_xyz
  x,y,z
_cell_length_a	26.809956
_cell_length_b	10.654550
_cell_length_c	10.654549
_cell_angle_alpha	95.515146
_cell_angle_beta	90.005380
_cell_angle_gamma	90.005664
loop_
_atom_site_label
_atom_site_type_symbol
_atom_site_fract_x
_atom_site_fract_y
_atom_site_fract_z
O1	O	-0.041441	-1.667851	0.176381
O2	O	-0.041450	-1.302372	0.193188
O3	O	-0.041443	-1.493515	0.002045
O4	O	-0.041448	-1.476708	0.367524
O5	O	0.041516	-1.493479	0.002074
O6	O	0.041509	-1.302336	0.193217
O7	O	0.041518	-1.667815	0.176411
Zn8	Zn	0.054685	-1.485070	0.184818
Zn9	Zn	-0.054617	-1.485117	0.184780
O10	O	0.041511	-1.476672	0.367553
C11	C	0.000028	-1.255556	0.191968
C12	C	0.000025	-1.116113	0.188276
N13	N	0.129281	-1.485046	0.184844
N14	N	-0.129213	-1.485150	0.184745
C15	C	0.473910	-1.569744	0.100163
C16	C	0.682788	-1.569774	0.100144
O17	O	0.709794	-1.641736	0.028153
N18	N	0.708908	-1.485124	0.184752
C19	C	0.682806	-1.400455	0.269366
O20	O	0.709816	-1.328446	0.341321
C21	C	0.473929	-1.400420	0.269377
C22	C	0.447811	-1.485084	0.184772
C23	C	0.447792	-1.654401	0.015564
C24	C	0.395576	-1.654397	0.015574
C25	C	0.369478	-1.569737	0.100183
C26	C	0.395595	-1.485081	0.184783
C27	C	0.447828	-1.315746	0.353983
C28	C	0.395605	-1.315742	0.353977
C29	C	0.369488	-1.400407	0.269372
C30	C	0.317280	-1.400417	0.269402
N31	N	0.291160	-1.485067	0.184794
C32	C	0.317259	-1.569727	0.100185
C33	C	0.792469	-1.400480	0.269355
C34	C	0.844688	-1.400490	0.269354
C35	C	0.844666	-1.569808	0.100131
C36	C	0.792447	-1.569804	0.100139
C37	C	0.766349	-1.485131	0.184747
C38	C	0.207601	-1.569714	0.100213
C39	C	0.155380	-1.569706	0.100234
C40	C	0.155406	-1.400384	0.269453
C41	C	0.207622	-1.400396	0.269436
C42	C	0.233718	-1.485065	0.184806
O43	O	0.290242	-1.328483	0.341346
O44	O	0.290240	-1.641706	0.028221
C45	C	0.526126	-1.569748	0.100153
C46	C	0.552244	-1.485091	0.184752
C47	C	0.526145	-1.400431	0.269361
C48	C	0.604463	-1.485101	0.184751
C49	C	0.630562	-1.569762	0.100142
C50	C	0.604441	-1.654412	0.015533
C51	C	0.552225	-1.654408	0.015544
C52	C	0.552266	-1.315781	0.353969
C53	C	0.604482	-1.315793	0.353953
C54	C	0.630581	-1.400453	0.269344
C55	C	0.000036	-1.492263	-0.044738
C56	C	0.000034	-1.488571	-0.184181
C57	C	0.000038	-1.714631	0.177630
C58	C	0.000039	-1.854074	0.181322
C59	C	0.000025	-1.036627	0.300818
C60	C	0.000034	-0.905606	0.297341
C61	C	0.000040	-0.933570	0.068772
C62	C	0.000035	-1.064588	0.072250
C63	C	0.000033	-1.597634	-0.394696
C64	C	0.000037	-1.601113	-0.263676
C65	C	0.000032	-1.372543	-0.235714
C66	C	0.000031	-1.369066	-0.366732
C67	C	0.000031	-1.477924	0.414336
C68	C	0.000029	-1.481616	0.553780
H69	H	0.134116	-1.638655	0.031339
H70	H	0.000041	-1.695586	-0.221732
H71	H	0.134148	-1.331458	0.338344
H72	H	0.000032	-1.689280	-0.459413
H73	H	0.000032	-1.280910	-0.170979
H74	H	0.469037	-1.723341	-0.053341
N75	N	0.000033	-1.250538	-0.419350
N76	N	0.000032	-1.150058	-0.348369
H77	H	0.000035	-1.066350	-0.385529
N78	N	0.765778	-1.656229	0.013645
N79	N	0.789093	-1.731768	-0.061928
H80	H	0.770261	-1.792784	-0.123046
H81	H	0.374314	-1.723334	-0.053322
N82	N	0.234244	-1.656204	0.013755
N83	N	0.210910	-1.731777	-0.061768
H84	H	0.229727	-1.792866	-0.122827
H85	H	0.000051	-0.891602	-0.025693
H86	H	0.530964	-1.723349	-0.053350
H87	H	0.865925	-1.638744	0.031240
H88	H	0.865949	-1.331562	0.338260
N89	N	0.474495	-1.229234	0.440384
N90	N	0.503630	-1.150927	0.399803
H91	H	0.522463	-1.089818	0.460826
H92	H	0.228888	-1.331467	0.338342
N93	N	0.368956	-1.229235	0.440409
N94	N	0.392286	-1.153655	0.515933
H95	H	0.373466	-1.092560	0.576978
N96	N	0.000040	-1.145773	-0.042728
N97	N	0.000047	-1.099756	-0.146313
H98	H	0.000052	-1.157091	-0.227513
H99	H	0.625699	-1.723350	-0.053355
H100	H	0.771224	-1.331528	0.338256
N101	N	0.631149	-1.229286	0.440383
N102	N	0.625314	-1.113196	0.437569
H103	H	0.644145	-1.052094	0.498602
N104	N	0.525619	-1.229284	0.440403
N105	N	0.548952	-1.153714	0.515930
H106	H	0.530135	-1.092621	0.576984
N107	N	0.000031	-1.089260	0.419331
N108	N	0.034999	-1.159243	0.446781
H109	H	0.035006	-1.196413	0.530484
N110	N	0.000037	-0.824432	0.412312
N111	N	0.000031	-0.870459	0.515892
H112	H	0.000035	-0.813130	0.597097
