data_functionalizedCrystal
_audit_creation_method	'MofGen! by Chris Wilmer'
_symmetry_space_group_name_H-M	'P1'
_symmetry_Int_Tables_number	1
_symmetry_cell_setting	triclinic
loop_
_symmetry_equiv_pos_as_xyz
  x,y,z
_cell_length_a	16.959455
_cell_length_b	29.839131
_cell_length_c	16.959447
_cell_angle_alpha	89.970174
_cell_angle_beta	89.977004
_cell_angle_gamma	90.038723
loop_
_atom_site_label
_atom_site_type_symbol
_atom_site_fract_x
_atom_site_fract_y
_atom_site_fract_z
Zn1	Zn	1.208285	-0.178880	-0.447039
Zn2	Zn	1.208152	-0.254013	-0.314862
Zn3	Zn	1.076108	-0.178894	-0.314863
Zn4	Zn	1.076029	-0.253980	-0.446987
O5	O	1.142144	-0.216442	-0.380938
O6	O	1.318879	-0.188854	-0.429528
O7	O	1.190613	-0.244069	-0.204251
O8	O	1.093730	-0.116025	-0.332419
O9	O	1.318781	-0.244055	-0.332417
O10	O	1.190841	-0.116015	-0.429528
O11	O	1.093601	-0.188879	-0.204252
O12	O	0.965486	-0.188846	-0.332368
O13	O	1.093596	-0.243997	-0.557605
O14	O	0.965428	-0.244011	-0.429439
O15	O	1.190764	-0.188822	-0.557643
O16	O	1.190537	-0.316876	-0.332366
O17	O	1.093466	-0.316851	-0.429438
C18	C	0.936777	-0.216427	-0.380898
C19	C	0.848921	-0.216432	-0.380900
C20	C	0.477383	-0.245156	-0.330347
C21	C	0.477507	-0.187765	-0.431625
C22	C	0.560053	-0.187757	-0.431606
C23	C	0.601268	-0.216450	-0.380957
C24	C	0.559937	-0.245150	-0.330328
C25	C	0.601390	-0.159061	-0.482240
C26	C	0.683941	-0.159053	-0.482223
C27	C	0.725157	-0.187744	-0.431570
C28	C	0.683821	-0.216445	-0.380938
C29	C	0.725036	-0.245137	-0.330289
C30	C	0.683702	-0.273836	-0.279653
C31	C	0.601153	-0.273841	-0.279674
C32	C	0.807706	-0.187739	-0.431548
C33	C	0.807590	-0.245132	-0.330270
C34	C	1.142000	-0.333164	-0.380914
C35	C	1.142011	-0.383099	-0.380930
C36	C	1.091631	-0.739689	-0.431480
C37	C	1.091527	-0.552016	-0.431455
O38	O	1.048521	-0.527753	-0.474419
N39	N	1.142094	-0.528544	-0.380953
C40	C	1.192695	-0.551993	-0.330458
O41	O	1.235708	-0.527723	-0.287509
C42	C	1.192803	-0.739665	-0.330487
C43	C	1.142226	-0.763135	-0.380986
C44	C	1.041060	-0.763158	-0.481975
C45	C	1.041084	-0.810073	-0.481978
C46	C	1.091679	-0.833520	-0.431485
C47	C	1.142250	-0.810050	-0.380989
C48	C	1.243406	-0.763114	-0.279997
C49	C	1.243430	-0.810035	-0.280010
C50	C	1.192854	-0.833504	-0.330509
C51	C	1.192869	-0.880412	-0.330499
N52	N	1.142301	-0.903883	-0.381000
C53	C	1.091706	-0.880437	-0.431493
C54	C	1.192633	-0.453463	-0.330445
C55	C	1.192606	-0.406545	-0.330437
C56	C	1.091439	-0.406570	-0.431435
C57	C	1.091463	-0.453489	-0.431439
C58	C	1.142066	-0.476934	-0.380947
C59	C	1.091759	-0.978963	-0.431495
C60	C	1.091785	-1.025883	-0.431490
C61	C	1.192954	-1.025853	-0.330496
C62	C	1.192926	-0.978938	-0.330496
C63	C	1.142326	-0.955494	-0.381002
O64	O	1.235859	-0.904703	-0.287563
O65	O	1.048711	-0.904716	-0.474449
C66	C	1.091608	-0.692773	-0.431477
C67	C	1.142179	-0.669304	-0.380981
C68	C	1.192774	-0.692750	-0.330488
C69	C	1.142151	-0.622386	-0.380973
C70	C	1.091556	-0.598940	-0.431466
C71	C	1.040989	-0.622412	-0.481967
C72	C	1.041013	-0.669327	-0.481970
C73	C	1.243341	-0.669278	-0.279987
C74	C	1.243313	-0.622363	-0.279987
C75	C	1.192718	-0.598917	-0.330481
C76	C	1.348312	-0.216457	-0.380978
C77	C	1.436168	-0.216463	-0.380996
C78	C	1.142186	-0.216404	-0.587106
C79	C	1.142204	-0.216388	-0.674963
C80	C	1.142309	-0.099263	-0.380980
C81	C	1.142380	-0.049329	-0.380997
C82	C	1.091764	-0.187606	-1.046445
C83	C	1.192783	-0.245076	-1.046432
C84	C	1.192770	-0.245086	-0.963886
C85	C	1.142251	-0.216357	-0.922616
C86	C	1.091747	-0.187617	-0.963892
C87	C	1.243268	-0.273829	-0.922604
C88	C	1.243255	-0.273841	-0.840053
C89	C	1.192740	-0.245109	-0.798782
C90	C	1.142235	-0.216367	-0.840062
C91	C	1.091716	-0.187638	-0.798792
C92	C	1.041214	-0.158894	-0.840071
C93	C	1.041232	-0.158885	-0.922620
C94	C	1.192722	-0.245118	-0.716233
C95	C	1.091699	-0.187648	-0.716239
C96	C	1.142147	-0.216446	-0.175572
C97	C	1.142282	-0.216336	-0.087715
H98	H	1.050598	-1.044989	-0.472615
H99	H	0.841356	-0.164373	-0.472778
Br100	Br	0.545053	-0.312787	-0.210960
Br101	Br	1.261247	-0.284129	-0.660214
Br102	Br	0.421291	-0.284100	-0.261623
Br103	Br	0.421572	-0.148833	-0.500370
Br104	Br	1.312113	-0.841851	-0.211484
Br105	Br	0.545452	-0.120131	-0.550987
H106	H	1.233907	-0.268469	-1.080039
Br107	Br	0.972372	-0.701171	-0.550510
H108	H	0.999790	-0.603314	-0.523078
Br109	Br	0.972655	-0.119906	-0.784052
H110	H	1.050557	-0.959881	-0.472622
H111	H	1.284590	-0.744012	-0.238876
H112	H	1.284388	-0.297224	-0.956213
H113	H	1.050648	-0.164202	-1.080058
Br114	Br	0.740030	-0.120105	-0.550943
H115	H	0.999898	-0.829178	-0.523098
H116	H	0.999860	-0.744072	-0.523096
Br117	Br	1.022821	-0.485335	-0.499975
Br118	Br	1.311957	-0.590517	-0.211444
H119	H	1.284543	-0.688363	-0.238869
Br120	Br	1.261236	-0.374699	-0.261888
Br121	Br	0.863518	-0.284070	-0.261522
Br122	Br	1.022772	-0.374742	-0.499958
Br123	Br	1.261316	-0.485274	-0.261913
H124	H	1.284377	-0.297247	-0.806451
Br125	Br	1.261619	-1.057682	-0.261976
H126	H	1.000114	-0.135483	-0.956237
Br127	Br	1.261546	-0.947085	-0.261942
H128	H	0.717270	-0.297201	-0.238419
H129	H	1.050564	-0.164251	-0.682642
