data_functionalizedCrystal
_audit_creation_method	'MofGen! by Chris Wilmer'
_symmetry_space_group_name_H-M	'P1'
_symmetry_Int_Tables_number	1
_symmetry_cell_setting	triclinic
loop_
_symmetry_equiv_pos_as_xyz
  x,y,z
_cell_length_a	14.853566
_cell_length_b	14.853567
_cell_length_c	9.198806
_cell_angle_alpha	90.000611
_cell_angle_beta	89.998904
_cell_angle_gamma	83.634672
loop_
_atom_site_label
_atom_site_type_symbol
_atom_site_fract_x
_atom_site_fract_y
_atom_site_fract_z
O1	O	1.196365	0.117697	-0.120784
O2	O	0.933905	0.131719	-0.120806
O3	O	1.072146	-0.006522	-0.120799
O4	O	1.058124	0.255938	-0.120791
O5	O	1.072135	-0.006522	0.120986
O6	O	0.933894	0.131719	0.120979
O7	O	1.196354	0.117696	0.121001
Cu8	Cu	1.065123	0.124708	0.143067
Cu9	Cu	1.065136	0.124708	-0.142872
O10	O	1.058113	0.255938	0.120994
C11	C	0.900311	0.131084	0.000083
C12	C	0.800227	0.129181	0.000074
C13	C	0.377048	0.121130	-0.131698
C14	C	0.377058	0.121130	0.131906
C15	C	0.471092	0.122918	0.131901
C16	C	0.518108	0.123813	0.000095
C17	C	0.471091	0.122920	-0.131706
C18	C	0.518115	0.123819	0.263700
C19	C	0.612155	0.125608	0.263701
C20	C	0.659174	0.126497	0.131894
C21	C	0.612151	0.125603	0.000087
C22	C	0.659167	0.126498	-0.131719
C23	C	0.612147	0.125598	-0.263528
C24	C	0.518110	0.123809	-0.263514
C25	C	0.753211	0.128286	0.131880
C26	C	0.753210	0.128288	-0.131728
C27	C	1.071505	-0.040111	0.000089
C28	C	1.069601	-0.140194	0.000077
C29	C	0.979435	-0.552728	0.000097
C30	C	1.143668	-0.574009	0.000111
C31	C	1.145458	-0.479976	0.000102
C32	C	1.064236	-0.422313	0.000093
C33	C	0.981223	-0.458685	0.000093
C34	C	1.228470	-0.443597	0.000117
C35	C	1.230263	-0.349558	0.000111
C36	C	1.149040	-0.291894	0.000091
C37	C	1.066023	-0.328271	0.000089
C38	C	0.984801	-0.270608	0.000080
C39	C	0.901784	-0.306984	0.000067
C40	C	0.899999	-0.401021	0.000073
C41	C	1.150824	-0.197856	0.000086
C42	C	0.986588	-0.176566	0.000076
C43	C	1.229948	0.118332	0.000109
C44	C	1.330032	0.120235	0.000108
C45	C	1.058754	0.289526	0.000102
C46	C	1.060658	0.389610	0.000106
N47	N	1.065121	0.124707	0.344181
N48	N	1.065146	0.124702	-0.343986
C49	C	1.123166	0.066409	0.416381
C50	C	1.123180	0.066406	0.583793
H51	H	0.791490	0.129027	0.239196
H52	H	1.172847	0.016497	0.354257
C53	C	0.889214	-0.592040	0.000007
C54	C	0.818470	-0.521411	-0.000038
C55	C	0.735346	-0.557591	-0.000142
H56	H	0.884966	-0.628269	0.084296
H57	H	0.885059	-0.628254	-0.084347
H58	H	0.822623	-0.485212	0.084307
H59	H	0.822689	-0.485176	-0.084320
H60	H	0.731190	-0.593805	-0.084496
H61	H	0.731106	-0.593820	0.084148
H62	H	0.687336	-0.509675	-0.000186
C63	C	0.999022	0.191305	0.573061
C64	C	1.047325	0.246365	0.485645
C65	C	0.986443	0.307722	0.409183
H66	H	0.962589	0.227965	0.639923
H67	H	0.961397	0.158911	0.513605
H68	H	1.084934	0.278756	0.545096
H69	H	1.083754	0.209730	0.418756
H70	H	0.948818	0.275329	0.349727
H71	H	0.950014	0.344376	0.476056
H72	H	1.019207	0.345082	0.349853
C73	C	0.663367	0.126529	-0.406477
C74	C	0.755785	0.128273	-0.378259
C75	C	0.803001	0.129120	-0.509903
H76	H	0.641255	0.178753	-0.460743
H77	H	0.654828	0.073682	-0.460644
H78	H	0.764318	0.181115	-0.324115
H79	H	0.777922	0.076054	-0.324014
H80	H	0.794462	0.076273	-0.564071
H81	H	0.780882	0.181344	-0.564159
H82	H	0.865712	0.130295	-0.490776
H83	H	0.479827	0.123097	0.371009
H84	H	0.479817	0.123075	-0.370825
C85	C	0.325930	0.120342	-0.274753
C86	C	0.261909	0.196824	-0.282465
C87	C	0.214809	0.196136	-0.414233
H88	H	0.295976	0.067171	-0.280374
H89	H	0.367365	0.121181	-0.353293
H90	H	0.220480	0.195977	-0.203946
H91	H	0.291839	0.250007	-0.276870
H92	H	0.256245	0.196975	-0.492774
H93	H	0.184861	0.142961	-0.419842
H94	H	0.171372	0.248032	-0.419489
H95	H	1.209796	-0.620963	0.000130
H96	H	1.015433	0.174612	0.406306
H97	H	0.338771	0.120408	0.239216
C98	C	1.316618	-0.506247	-0.000165
C99	C	1.320405	-0.560841	-0.124576
C100	C	1.401601	-0.618563	-0.124896
H101	H	1.319409	-0.543458	0.084052
H102	H	1.366343	-0.471153	-0.000231
H103	H	1.270694	-0.595932	-0.124496
H104	H	1.317630	-0.523655	-0.208813
H105	H	1.451326	-0.583469	-0.124962
H106	H	1.404385	-0.655768	-0.040673
H107	H	1.404185	-0.655606	-0.209313
C108	C	0.898303	-0.114114	0.000137
C109	C	0.825225	-0.166100	0.000161
C110	C	0.743883	-0.108601	0.000236
H111	H	0.895463	-0.076967	-0.084155
H112	H	0.895530	-0.077000	0.084488
H113	H	0.827996	-0.203198	-0.084181
H114	H	0.828034	-0.203245	0.084447
H115	H	0.741111	-0.071488	0.084587
H116	H	0.741053	-0.071458	-0.084057
H117	H	0.694291	-0.143865	0.000266
C118	C	1.320483	-0.310244	0.000039
C119	C	1.391230	-0.380870	0.000013
C120	C	1.474352	-0.344687	-0.000078
H121	H	1.324722	-0.274009	0.084325
H122	H	1.324646	-0.274034	-0.084317
H123	H	1.387069	-0.417064	0.084360
H124	H	1.387021	-0.417110	-0.084267
H125	H	1.478515	-0.308478	-0.084433
H126	H	1.478582	-0.308453	0.084211
H127	H	1.522364	-0.392601	-0.000108
H128	H	0.650432	0.126339	0.371028
C129	C	1.240880	-0.158236	-0.000127
C130	C	1.246703	-0.104860	-0.124507
C131	C	1.329648	-0.068338	-0.124745
H132	H	1.289076	-0.205951	-0.000189
H133	H	1.244991	-0.121938	0.084142
H134	H	1.242601	-0.141156	-0.208754
H135	H	1.198526	-0.057131	-0.124471
H136	H	1.333759	-0.032040	-0.040476
H137	H	1.377838	-0.116058	-0.124803
H138	H	1.333607	-0.032111	-0.209127
H139	H	0.791484	0.129014	-0.239061
H140	H	0.835653	-0.260023	0.000070
H141	H	0.832411	-0.430646	0.000064
H142	H	1.172878	0.016498	0.645882
