data_functionalizedCrystal
_audit_creation_method	'MofGen! by Chris Wilmer'
_symmetry_space_group_name_H-M	'P1'
_symmetry_Int_Tables_number	1
_symmetry_cell_setting	triclinic
loop_
_symmetry_equiv_pos_as_xyz
  x,y,z
_cell_length_a	16.109318
_cell_length_b	14.044220
_cell_length_c	14.586319
_cell_angle_alpha	89.995213
_cell_angle_beta	90.000075
_cell_angle_gamma	88.328720
loop_
_atom_site_label
_atom_site_type_symbol
_atom_site_fract_x
_atom_site_fract_y
_atom_site_fract_z
O1	O	1.112192	0.121913	-0.076166
O2	O	1.612192	0.621913	0.423834
O3	O	0.871259	0.137058	-0.076185
O4	O	1.371259	0.637058	0.423815
O5	O	0.988109	-0.008498	-0.076167
O6	O	1.488109	0.491502	0.423833
O7	O	0.995342	0.267470	-0.076184
O8	O	1.495342	0.767470	0.423816
O9	O	0.988100	-0.008500	0.076314
O10	O	1.488100	0.491500	0.576314
O11	O	0.871250	0.137056	0.076296
O12	O	1.371250	0.637056	0.576296
O13	O	1.112183	0.121911	0.076315
O14	O	1.612183	0.621911	0.576315
Cu15	Cu	0.991716	0.129484	0.090228
Cu16	Cu	1.491716	0.629484	0.590228
Cu17	Cu	0.991726	0.129486	-0.090098
Cu18	Cu	1.491726	0.629486	0.409902
O19	O	0.995333	0.267468	0.076297
O20	O	1.495333	0.767468	0.576297
C21	C	0.840234	0.136441	0.000053
C22	C	1.340234	0.636441	0.500053
C23	C	0.747802	0.134593	0.000046
C24	C	1.247802	0.634593	0.500046
C25	C	0.984939	-0.043813	0.000074
C26	C	1.484939	0.456187	0.500074
C27	C	0.975495	-0.149036	0.000074
C28	C	1.475495	0.350964	0.500074
C29	C	0.448289	0.128626	-0.083054
C30	C	0.948289	0.628626	0.416946
C31	C	0.535139	0.130356	-0.083060
C32	C	1.035139	0.630356	0.416940
C33	C	0.535147	0.130341	0.083183
C34	C	1.035147	0.630341	0.583183
C35	C	0.448299	0.128604	0.083188
C36	C	0.948299	0.628604	0.583188
C37	C	0.404872	0.127752	0.000066
C38	C	0.904872	0.627752	0.500066
C39	C	0.578570	0.131218	0.000056
C40	C	1.078570	0.631218	0.500056
C41	C	0.672737	0.133094	0.000050
C42	C	1.172737	0.633094	0.500050
C43	C	0.310699	0.125874	0.000071
C44	C	0.810699	0.625874	0.500071
C45	C	0.958230	-0.341693	0.000060
C46	C	1.458230	0.158307	0.500060
C47	C	1.025209	-0.399342	0.000062
C48	C	1.525209	0.100658	0.500062
C49	C	1.015602	-0.506544	0.000054
C50	C	1.515602	-0.006544	0.500054
C51	C	0.967835	-0.234482	0.000068
C52	C	1.467835	0.265518	0.500068
C53	C	1.143208	0.122529	0.000075
C54	C	1.643208	0.622529	0.500075
C55	C	1.235640	0.124377	0.000076
C56	C	1.735640	0.624377	0.500076
C57	C	0.998503	0.302782	0.000054
C58	C	1.498503	0.802782	0.500054
C59	C	1.007947	0.408006	0.000048
C60	C	1.507947	0.908006	0.500048
N61	N	0.991714	0.129481	0.217060
N62	N	1.491714	0.629481	0.717060
N63	N	0.991734	0.129481	-0.216930
N64	N	1.491734	0.629481	0.283070
C65	C	1.043476	0.065051	0.452074
C66	C	1.543476	0.565051	0.952074
C67	C	1.043478	0.065048	0.548056
C68	C	1.543478	0.565048	1.048056
C69	C	0.939967	0.193915	0.548049
C70	C	1.439967	0.693915	1.048049
C71	C	0.939961	0.193912	0.452069
C72	C	1.439961	0.693912	0.952069
C73	C	0.991720	0.129481	0.404085
C74	C	1.491720	0.629481	0.904085
C75	C	0.991728	0.129481	0.596045
C76	C	1.491728	0.629481	1.096045
C77	C	0.991730	0.129479	0.700112
C78	C	1.491730	0.629479	1.200112
C79	C	0.991717	0.129481	0.300011
C80	C	1.491717	0.629481	0.800011
H81	H	0.412933	0.127931	-0.150737
H82	H	0.912933	0.627931	0.349263
H83	H	0.570485	0.131067	-0.150745
H84	H	1.070485	0.631067	0.349255
H85	H	0.570516	0.131037	0.150857
H86	H	1.070516	0.631037	0.650857
H87	H	1.085621	0.012582	0.587126
H88	H	1.585621	0.512582	1.087126
O89	O	0.406245	0.127800	0.164018
O90	O	0.906245	0.627800	0.664018
C91	C	0.415413	0.127908	0.328908
C92	C	0.915413	0.627908	0.828908
C93	C	0.463141	0.128849	0.237441
C94	C	0.963141	0.628849	0.737441
H95	H	0.461393	0.128736	0.388294
H96	H	0.961393	0.628736	0.888294
H97	H	0.372081	0.193404	0.333128
H98	H	0.872081	0.693404	0.833128
H99	H	0.377423	0.060814	0.333012
H100	H	0.877423	0.560814	0.833012
H101	H	0.501178	0.195899	0.233276
H102	H	1.001178	0.695899	0.733276
H103	H	0.506422	0.063308	0.233260
H104	H	1.006422	0.563308	0.733260
O105	O	1.102167	-0.362025	0.000118
O106	O	1.602167	0.137975	0.500118
C107	C	1.182030	-0.219596	0.000091
C108	C	1.682030	0.280404	0.500091
C109	C	1.094832	-0.261736	0.000045
C110	C	1.594832	0.238264	0.500045
H111	H	1.176130	-0.138508	0.000012
H112	H	1.676130	0.361492	0.500012
H113	H	1.217262	-0.244495	0.063923
H114	H	1.717262	0.255505	0.563923
H115	H	1.217259	-0.244599	-0.063703
H116	H	1.717259	0.255401	0.436297
H117	H	1.059534	-0.236753	0.063795
H118	H	1.559534	0.263247	0.563795
H119	H	1.059664	-0.236842	-0.063830
H120	H	1.559664	0.263158	0.436170
O121	O	0.889801	0.256547	0.405347
O122	O	1.389801	0.756547	0.905347
C123	C	0.881704	0.386025	0.297009
C124	C	1.381704	0.886025	0.797009
C125	C	0.938601	0.315137	0.349848
C126	C	1.438601	0.815137	0.849848
H127	H	0.921137	0.433427	0.252141
H128	H	1.421137	0.933427	0.752141
H129	H	0.837149	0.345135	0.252019
H130	H	1.337149	0.845135	0.752019
H131	H	0.844698	0.432038	0.347809
H132	H	1.344698	0.932038	0.847809
H133	H	0.975661	0.269106	0.299114
H134	H	1.475661	0.769106	0.799114
H135	H	0.983103	0.356085	0.394851
H136	H	1.483103	0.856085	0.894851
O137	O	1.093610	0.002382	0.405381
O138	O	1.593610	0.502382	0.905381
C139	C	1.101631	-0.127171	0.297142
C140	C	1.601631	0.372829	0.797142
C141	C	1.044774	-0.056209	0.349932
C142	C	1.544774	0.443791	0.849932
H143	H	1.062169	-0.174573	0.252314
H144	H	1.562169	0.325427	0.752314
H145	H	1.146206	-0.086343	0.252117
H146	H	1.646206	0.413657	0.752117
H147	H	1.138616	-0.173176	0.347974
H148	H	1.638616	0.326824	0.847974
H149	H	1.007736	-0.010186	0.299166
H150	H	1.507736	0.489814	0.799166
H151	H	1.000253	-0.097095	0.394971
H152	H	1.500253	0.402905	0.894971
O153	O	0.881277	-0.379010	0.000098
O154	O	1.381277	0.120990	0.500098
C155	C	0.801425	-0.521448	0.000041
C156	C	1.301425	-0.021448	0.500041
C157	C	0.888620	-0.479298	0.000014
C158	C	1.388620	0.020702	0.500014
H159	H	0.807332	-0.602536	-0.000046
H160	H	1.307332	-0.102536	0.499954
H161	H	0.766185	-0.496572	0.063872
H162	H	1.266185	0.003428	0.563872
H163	H	0.766202	-0.496430	-0.063754
H164	H	1.266202	0.003570	0.436246
H165	H	0.923912	-0.504298	0.063767
H166	H	1.423912	-0.004298	0.563767
H167	H	0.923798	-0.504170	-0.063858
H168	H	1.423798	-0.004170	0.436142
O169	O	0.889774	0.256470	0.594805
O170	O	1.389774	0.756470	1.094805
C171	C	0.843875	0.313555	0.742663
C172	C	1.343875	0.813555	1.242663
C173	C	0.900772	0.242671	0.689830
C174	C	1.400772	0.742671	1.189830
H175	H	0.852735	0.302410	0.819500
H176	H	1.352735	0.802410	1.319500
H177	H	0.860340	0.389499	0.723849
H178	H	1.360340	0.889499	1.223849
H179	H	0.776378	0.301188	0.723745
H180	H	1.276378	0.801188	1.223745
H181	H	0.968287	0.254951	0.708719
H182	H	1.468287	0.754951	1.208719
H183	H	0.884237	0.166752	0.708649
H184	H	1.384237	0.666752	1.208649
