data_functionalizedCrystal
_audit_creation_method	'MofGen! by Chris Wilmer'
_symmetry_space_group_name_H-M	'P1'
_symmetry_Int_Tables_number	1
_symmetry_cell_setting	triclinic
loop_
_symmetry_equiv_pos_as_xyz
  x,y,z
_cell_length_a	10.654550
_cell_length_b	10.654550
_cell_length_c	14.586319
_cell_angle_alpha	90.001003
_cell_angle_beta	90.005591
_cell_angle_gamma	95.515097
loop_
_atom_site_label
_atom_site_type_symbol
_atom_site_fract_x
_atom_site_fract_y
_atom_site_fract_z
O1	O	1.667845	-0.176390	0.076232
O2	O	1.302366	-0.193196	0.076235
O3	O	1.493508	-0.002054	0.076230
O4	O	1.476702	-0.367532	0.076237
O5	O	1.493485	-0.002065	-0.076251
O6	O	1.302343	-0.193207	-0.076246
O7	O	1.667821	-0.176401	-0.076249
Cu8	Cu	1.485080	-0.184805	-0.090170
Cu9	Cu	1.485107	-0.184792	0.090156
O10	O	1.476679	-0.367544	-0.076244
C11	C	1.255556	-0.191968	-0.000005
C12	C	1.116113	-0.188276	-0.000004
C13	C	1.492263	0.044739	-0.000009
C14	C	1.488571	0.184182	-0.000006
N15	N	1.485069	-0.184814	-0.217002
C16	C	1.714631	-0.177630	-0.000007
C17	C	1.854074	-0.181321	-0.000002
C18	C	1.933560	-0.068780	-0.000000
C19	C	2.064581	-0.072257	-0.000005
C20	C	2.036617	-0.300826	-0.000008
C21	C	1.905599	-0.297348	-0.000010
C22	C	1.949705	0.063183	0.000005
C23	C	2.080726	0.059706	0.000001
C24	C	1.477924	-0.414336	-0.000003
C25	C	1.481616	-0.553779	0.000000
C26	C	1.601112	0.263668	-0.000010
C27	C	1.597636	0.394688	-0.000003
C28	C	1.369066	0.366725	0.000007
C29	C	1.372544	0.235707	0.000007
C30	C	1.733075	0.279813	-0.000019
C31	C	1.729599	0.410834	-0.000013
C32	C	1.561922	-0.261675	-0.452007
C33	C	1.561935	-0.261667	-0.547989
C34	C	1.408272	-0.107903	-0.548000
C35	C	1.408266	-0.107906	-0.452020
C36	C	1.485089	-0.184799	-0.404027
C37	C	1.485108	-0.184788	-0.595987
C38	C	1.485121	-0.184778	-0.700054
C39	C	1.485078	-0.184808	-0.299953
N40	N	1.485128	-0.184774	0.216988
H41	H	1.840885	-0.388991	-0.000022
C42	C	1.796744	0.467248	-0.086223
N43	N	1.847313	0.509738	-0.151155
C44	C	1.910029	0.132892	-0.086203
N45	N	1.880145	0.185391	-0.151136
H46	H	1.624502	-0.324265	-0.587050
H47	H	1.624477	-0.324287	-0.412934
C48	C	1.323758	-0.023338	-0.600802
N49	N	1.260095	0.040353	-0.640572
C50	C	1.323738	-0.023334	-0.399239
N51	N	1.260076	0.040365	-0.359483
H52	H	2.078585	-0.395291	-0.000016
H53	H	1.280902	0.170993	0.000022
H54	H	1.914084	0.105209	0.065842
C55	C	1.241443	0.423415	0.000010
N56	N	1.145315	0.466113	0.000009
C57	C	2.142387	0.113575	-0.088940
N58	N	2.188832	0.154146	-0.155930
H59	H	2.122490	0.109423	0.063816
H60	H	1.784700	0.250460	0.063789
H61	H	1.775087	0.244181	-0.065858
H62	H	1.769490	0.456482	0.065824
