data_functionalizedCrystal
_audit_creation_method	'MofGen! by Chris Wilmer'
_symmetry_space_group_name_H-M	'P1'
_symmetry_Int_Tables_number	1
_symmetry_cell_setting	triclinic
loop_
_symmetry_equiv_pos_as_xyz
  x,y,z
_cell_length_a	10.489741
_cell_length_b	16.109301
_cell_length_c	14.586319
_cell_angle_alpha	90.005214
_cell_angle_beta	90.000816
_cell_angle_gamma	84.000327
loop_
_atom_site_label
_atom_site_type_symbol
_atom_site_fract_x
_atom_site_fract_y
_atom_site_fract_z
O1	O	-1.692350	-0.117298	-0.076187
O2	O	-1.320995	-0.128308	-0.076202
O3	O	-1.516874	-0.001835	-0.076184
O4	O	-1.496471	-0.243771	-0.076204
O5	O	-1.516860	-0.001833	0.076296
O6	O	-1.320981	-0.128306	0.076279
O7	O	-1.692337	-0.117296	0.076294
Cu8	Cu	-1.506658	-0.122801	0.090209
Cu9	Cu	-1.506674	-0.122803	-0.090117
O10	O	-1.496457	-0.243769	0.076277
C11	C	-1.273468	-0.127475	0.000037
C12	C	-1.131875	-0.124987	0.000032
C13	C	-1.516041	0.029146	0.000056
C14	C	-1.513563	0.121457	0.000058
C15	C	-1.739863	-0.118128	0.000053
C16	C	-1.881456	-0.120616	0.000052
C17	C	-1.064902	-0.044516	0.000047
C18	C	-0.972231	-0.082531	-0.075135
C19	C	-0.972251	-0.082548	0.075199
C20	C	-1.041068	-0.163035	-0.075212
C21	C	-1.041098	-0.163041	0.075189
C22	C	-0.948453	-0.201115	-0.000011
C23	C	-1.497291	-0.274750	0.000034
C24	C	-1.499769	-0.367060	0.000027
N25	N	-1.506656	-0.122799	0.217041
C26	C	-1.624032	0.343048	0.000047
C27	C	-1.621694	0.429783	0.000040
C28	C	-1.389290	0.411341	0.000034
C29	C	-1.391630	0.324608	0.000035
C30	C	-1.509004	0.290464	0.000047
C31	C	-1.504327	0.463932	0.000038
C32	C	-1.501791	0.557974	0.000030
C33	C	-1.511541	0.196417	0.000053
N34	N	-1.506686	-0.122799	-0.216949
C35	C	-1.593420	-0.066815	0.452055
C36	C	-1.593423	-0.066813	0.548036
C37	C	-1.419913	-0.178784	0.548031
C38	C	-1.419904	-0.178782	0.452051
C39	C	-1.506665	-0.122798	0.404066
C40	C	-1.506677	-0.122799	0.596027
C41	C	-1.506680	-0.122797	0.700094
C42	C	-1.506660	-0.122799	0.299992
H43	H	-1.115552	0.021636	-0.000042
H44	H	-1.719606	0.315251	0.000055
H45	H	-1.715362	0.472594	0.000038
C46	C	-1.688851	-0.005234	0.600825
H47	H	-1.676425	-0.013244	0.664860
H48	H	-1.773968	-0.014802	0.585092
H49	H	-1.675014	0.050345	0.585099
H50	H	-1.293728	0.439152	0.000027
H51	H	-1.297954	0.281792	0.000032
C52	C	-1.688840	-0.005229	0.399274
H53	H	-1.740500	0.028118	0.441605
H54	H	-1.741919	-0.035469	0.361823
H55	H	-1.642960	0.029675	0.361843
C56	C	-1.082041	-0.209015	-0.161164
H57	H	-1.172379	-0.210297	-0.160658
H58	H	-1.041109	-0.264474	-0.161362
H59	H	-1.057930	-0.180630	-0.214498
H60	H	-1.349276	-0.224366	0.587110
C61	C	-1.324480	-0.240370	0.399255
H62	H	-1.336896	-0.232345	0.335221
H63	H	-1.338311	-0.295946	0.414976
H64	H	-1.239356	-0.230800	0.414987
C65	C	-0.930994	-0.036537	-0.160990
H66	H	-0.971263	0.019099	-0.160896
H67	H	-0.955706	-0.064591	-0.214382
H68	H	-0.840569	-0.035729	-0.160644
C69	C	-0.880375	-0.290570	-0.000072
H70	H	-0.903918	-0.319017	-0.053529
H71	H	-0.904996	-0.319370	0.052824
H72	H	-0.790199	-0.288507	0.000431
H73	H	-1.071645	-0.197062	0.138749
H74	H	-0.941762	-0.048484	0.138760
