data_functionalizedCrystal
_audit_creation_method	'MofGen! by Chris Wilmer'
_symmetry_space_group_name_H-M	'P1'
_symmetry_Int_Tables_number	1
_symmetry_cell_setting	triclinic
loop_
_symmetry_equiv_pos_as_xyz
  x,y,z
_cell_length_a	10.654541
_cell_length_b	17.666332
_cell_length_c	10.654545
_cell_angle_alpha	90.004079
_cell_angle_beta	84.484678
_cell_angle_gamma	90.007990
loop_
_atom_site_label
_atom_site_type_symbol
_atom_site_fract_x
_atom_site_fract_y
_atom_site_fract_z
O1	O	1.667853	0.062921	0.176387
O2	O	1.302374	0.062927	0.193196
O3	O	1.493516	0.062923	0.002052
O4	O	1.476712	0.062925	0.367531
O5	O	1.493482	-0.062973	0.002041
O6	O	1.302340	-0.062970	0.193185
O7	O	1.667819	-0.062976	0.176376
Cu8	Cu	1.485077	-0.074468	0.184780
Cu9	Cu	1.485117	0.074419	0.184792
O10	O	1.476678	-0.062972	0.367520
C11	C	1.255559	-0.000020	0.191957
C12	C	1.116116	-0.000018	0.188266
N13	N	1.485058	-0.179188	0.184770
C14	C	1.088146	-0.000008	0.416831
C15	C	1.008652	0.000001	0.529374
C16	C	0.877634	0.000001	0.525898
C17	C	0.826108	-0.000009	0.409867
C18	C	0.905602	-0.000017	0.297324
C19	C	1.036622	-0.000015	0.300812
C20	C	0.933572	-0.000032	0.068763
C21	C	1.064590	-0.000028	0.072235
C22	C	0.882046	-0.000042	-0.047269
C23	C	0.961540	-0.000045	-0.159814
C24	C	1.092565	-0.000045	-0.156334
C25	C	1.144084	-0.000036	-0.040308
C26	C	1.569723	-0.218799	0.100174
C27	C	1.569731	-0.298047	0.100168
C28	C	1.485084	-0.337680	0.184780
C29	C	1.400403	-0.298059	0.269383
C30	C	1.400389	-0.218813	0.269378
N31	N	1.470066	-0.462098	0.295770
N32	N	1.470086	-0.537378	0.295771
C33	C	1.485118	-0.576444	0.184798
N34	N	1.500153	-0.537385	0.073821
N35	N	1.500139	-0.462098	0.073821
C36	C	1.485089	-0.423609	0.184794
C37	C	1.569796	-0.701985	0.100188
C38	C	1.569794	-0.781234	0.100180
C39	C	1.400473	-0.781244	0.269406
C40	C	1.400468	-0.701997	0.269403
C41	C	1.485136	-0.662372	0.184795
C42	C	1.714634	-0.000027	0.177615
C43	C	1.854078	-0.000024	0.181306
C44	C	1.492265	-0.000024	-0.044751
C45	C	1.488572	-0.000019	-0.184195
N46	N	1.485146	0.179139	0.184792
C47	C	1.488624	0.137237	-0.184191
C48	C	1.486920	0.205865	-0.249700
C49	C	1.483451	0.205866	-0.380719
C50	C	1.481682	0.137232	-0.446232
C51	C	1.483386	0.068604	-0.380723
C52	C	1.486859	0.068610	-0.249702
C53	C	1.483325	-0.068651	-0.380725
C54	C	1.486803	-0.068654	-0.249707
C55	C	1.481556	-0.137285	-0.446238
C56	C	1.483269	-0.205915	-0.380731
C57	C	1.486740	-0.205913	-0.249704
C58	C	1.488507	-0.137281	-0.184199
C59	C	1.477929	-0.000024	0.414323
C60	C	1.481621	-0.000023	0.553766
H61	H	1.194826	0.000008	0.419672
H62	H	1.488359	0.261746	-0.196345
O63	O	1.488563	-0.272533	-0.185960
C64	C	1.599163	-0.276667	-0.123479
H65	H	1.635916	-0.217087	-0.108265
H66	H	1.577168	-0.305715	-0.028366
H67	H	1.673836	-0.310541	-0.183279
O68	O	1.491708	-0.137375	-0.056908
C69	C	1.384251	-0.174990	0.000142
H70	H	1.346036	-0.215063	-0.070935
H71	H	1.410971	-0.208727	0.084813
H72	H	1.308857	-0.131598	0.032678
O73	O	1.318113	-0.663478	0.351421
C74	C	1.240066	-0.617637	0.283445
H75	H	1.237079	-0.641525	0.184381
H76	H	1.140693	-0.616744	0.333769
H77	H	1.279311	-0.557574	0.277221
H78	H	0.775363	-0.000046	-0.050090
O79	O	0.800357	-0.000124	0.635186
C80	C	0.723692	-0.065315	0.639999
H81	H	0.771101	-0.110894	0.576203
H82	H	0.709823	-0.087194	0.741038
H83	H	0.628161	-0.050574	0.606649
H84	H	1.638734	-0.669720	0.031291
O85	O	1.318101	-0.180448	0.351685
C86	C	1.243361	-0.232418	0.426343
H87	H	1.294866	-0.288902	0.428242
H88	H	1.225068	-0.209517	0.526465
H89	H	1.149716	-0.240858	0.384695
H90	H	1.478842	0.137239	-0.552912
H91	H	0.719425	-0.000017	0.407048
O92	O	1.058913	0.000042	0.641974
C93	C	1.191598	0.000020	0.620918
H94	H	1.221519	0.023850	0.523176
H95	H	1.232471	0.036574	0.695227
H96	H	1.228099	-0.060379	0.627324
H97	H	1.482052	0.261749	-0.434054
O98	O	1.651805	-0.336574	0.017867
C99	C	1.583888	-0.382445	-0.060215
H100	H	1.484829	-0.358574	-0.063274
H101	H	1.634273	-0.383354	-0.159562
H102	H	1.577643	-0.442499	-0.020953
O103	O	0.911428	0.000079	-0.272483
C104	C	0.836457	0.065268	-0.281319
H105	H	0.868014	0.110846	-0.215422
H106	H	0.847333	0.087149	-0.382436
H107	H	0.733405	0.050522	-0.253245
O108	O	1.271334	0.000065	-0.036766
C109	C	1.307455	0.065283	0.027049
H110	H	1.223791	0.087029	0.091767
H111	H	1.388225	0.050622	0.085566
H112	H	1.339558	0.110933	-0.044582
O113	O	1.652095	-0.819799	0.018171
C114	C	1.730171	-0.865612	0.086162
H115	H	1.680995	-0.877484	0.183972
H116	H	1.749593	-0.921339	0.033928
H117	H	1.823058	-0.835060	0.095565
H118	H	1.157283	-0.000054	-0.247981
O119	O	1.318126	-0.336639	0.351403
C120	C	1.240058	-0.382483	0.283422
H121	H	1.289231	-0.394353	0.185611
H122	H	1.220657	-0.438208	0.335663
H123	H	1.147161	-0.351958	0.274022
O124	O	1.481598	-0.272511	-0.444568
C125	C	1.478123	-0.257794	-0.574249
H126	H	1.517363	-0.198816	-0.596993
H127	H	1.537646	-0.301627	-0.631498
H128	H	1.376554	-0.261039	-0.599118
O129	O	1.652004	-0.180426	0.017859
C130	C	1.726755	-0.232388	-0.056790
H131	H	1.675264	-0.288886	-0.058679
H132	H	1.745043	-0.209499	-0.156916
H133	H	1.820403	-0.240798	-0.015141
H134	H	1.331547	-0.813513	0.338294
H135	H	1.491464	0.137244	-0.077511
H136	H	1.478725	-0.137280	-0.552920
