data_functionalizedCrystal
_audit_creation_method	'MofGen! by Chris Wilmer'
_symmetry_space_group_name_H-M	'P1'
_symmetry_Int_Tables_number	1
_symmetry_cell_setting	triclinic
loop_
_symmetry_equiv_pos_as_xyz
  x,y,z
_cell_length_a	27.732048
_cell_length_b	12.837942
_cell_length_c	11.295483
_cell_angle_alpha	85.469583
_cell_angle_beta	85.926381
_cell_angle_gamma	91.264203
loop_
_atom_site_label
_atom_site_type_symbol
_atom_site_fract_x
_atom_site_fract_y
_atom_site_fract_z
O1	O	0.649968	-0.116220	-0.099093
O2	O	1.149968	0.383780	0.400907
O3	O	0.510103	-0.134962	-0.099081
O4	O	1.010103	0.365038	0.400919
O5	O	0.576934	0.025262	-0.099079
O6	O	1.076934	0.525262	0.400921
O7	O	0.583137	-0.276444	-0.099094
O8	O	1.083137	0.223556	0.400906
O9	O	0.571063	0.011210	0.098972
O10	O	1.071063	0.511210	0.598972
O11	O	0.504232	-0.149013	0.098970
O12	O	1.004232	0.350987	0.598970
O13	O	0.644097	-0.130272	0.098958
O14	O	1.144097	0.369728	0.598958
Cu15	Cu	0.573628	-0.140925	0.117048
Cu16	Cu	1.073628	0.359075	0.617048
Cu17	Cu	0.580571	-0.124308	-0.117170
Cu18	Cu	1.080571	0.375692	0.382830
O19	O	0.577266	-0.290495	0.098956
O20	O	1.077266	0.209505	0.598956
C21	C	0.571903	0.056823	-0.000054
C22	C	1.071903	0.556823	0.499946
C23	C	0.565654	0.171800	-0.000056
C24	C	1.065654	0.671800	0.499944
C25	C	0.489141	-0.141594	-0.000054
C26	C	0.989141	0.358406	0.499946
C27	C	0.435427	-0.140410	-0.000049
C28	C	0.935427	0.359590	0.499951
C29	C	0.665059	-0.123639	-0.000072
C30	C	1.165059	0.376361	0.499928
C31	C	0.718773	-0.124823	-0.000085
C32	C	1.218773	0.375177	0.499915
C33	C	1.053265	-0.037602	-0.000039
C34	C	1.553265	0.462398	0.499961
C35	C	1.255142	-0.041997	-0.000036
C36	C	1.755142	0.458003	0.499964
O37	O	1.282445	0.037759	0.000019
O38	O	1.782445	0.537759	0.500019
N39	N	1.278973	-0.137002	-0.000044
N40	N	1.778973	0.362998	0.499956
C41	C	1.252332	-0.230916	-0.000045
C42	C	1.752332	0.269084	0.499955
O43	O	1.277233	-0.311826	-0.000040
O44	O	1.777233	0.188174	0.499960
C45	C	1.050455	-0.226520	-0.000040
C46	C	1.550455	0.273480	0.499960
C47	C	1.026627	-0.131508	-0.000044
C48	C	1.526627	0.368492	0.499956
C49	C	1.029437	0.057403	-0.000042
C50	C	1.529437	0.557403	0.499958
C51	C	0.978971	0.058501	-0.000049
C52	C	1.478971	0.558501	0.499951
C53	C	0.952333	-0.035405	-0.000054
C54	C	1.452333	0.464595	0.499946
C55	C	0.976161	-0.130410	-0.000052
C56	C	1.476161	0.369590	0.499948
C57	C	1.023814	-0.320434	-0.000033
C58	C	1.523814	0.179566	0.499967
C59	C	0.973342	-0.319326	-0.000029
C60	C	1.473342	0.180674	0.499971
C61	C	0.949514	-0.224314	-0.000033
C62	C	1.449514	0.275686	0.499967
C63	C	0.899057	-0.223218	-0.000064
C64	C	1.399057	0.276782	0.499936
N65	N	0.875226	-0.128212	-0.000056
N66	N	1.375226	0.371788	0.499944
C67	C	0.901864	-0.034306	-0.000051
C68	C	1.401864	0.465694	0.499949
C69	C	1.358320	-0.233217	-0.000050
C70	C	1.858320	0.266783	0.499950
C71	C	1.408789	-0.234316	-0.000054
C72	C	1.908789	0.265684	0.499946
C73	C	1.411596	-0.045397	-0.000042
C74	C	1.911596	0.454603	0.499958
C75	C	1.361126	-0.044298	-0.000047
C76	C	1.861126	0.455702	0.499953
C77	C	1.334489	-0.138212	-0.000042
C78	C	1.834489	0.361788	0.499958
C79	C	0.795881	-0.032007	-0.000067
C80	C	1.295881	0.467993	0.499933
C81	C	0.745411	-0.030916	-0.000080
C82	C	1.245411	0.469084	0.499920
C83	C	0.742608	-0.219836	-0.000085
C84	C	1.242608	0.280164	0.499915
C85	C	0.793074	-0.220926	-0.000079
C86	C	1.293074	0.279074	0.499921
C87	C	0.819710	-0.127003	-0.000066
C88	C	1.319710	0.372997	0.499934
O89	O	0.871724	-0.302932	-0.000106
O90	O	1.371724	0.197068	0.499894
O91	O	0.876953	0.046590	-0.000030
O92	O	1.376953	0.546590	0.499970
C93	C	1.103731	-0.038700	-0.000032
C94	C	1.603731	0.461300	0.499968
C95	C	1.127559	-0.133705	-0.000029
C96	C	1.627559	0.366295	0.499971
C97	C	1.100922	-0.227611	-0.000034
C98	C	1.600922	0.272389	0.499966
C99	C	1.178028	-0.134804	-0.000033
C100	C	1.678028	0.365196	0.499967
C101	C	1.204666	-0.040897	-0.000028
C102	C	1.704666	0.459103	0.499972
C103	C	1.180835	0.054108	-0.000020
C104	C	1.680835	0.554108	0.499980
C105	C	1.130369	0.055206	-0.000027
C106	C	1.630369	0.555206	0.499973
C107	C	1.124753	-0.322616	-0.000043
C108	C	1.624753	0.177384	0.499957
C109	C	1.175219	-0.323707	-0.000037
C110	C	1.675219	0.176293	0.499963
C111	C	1.201857	-0.229800	-0.000032
C112	C	1.701857	0.270200	0.499968
C113	C	0.582297	-0.322056	-0.000071
C114	C	1.082297	0.177944	0.499929
C115	C	0.588546	-0.437033	-0.000078
C116	C	1.088546	0.062967	0.499922
N117	N	0.568748	-0.152612	0.281784
N118	N	1.068748	0.347388	0.781784
C119	C	0.640783	0.413964	-0.000087
C120	C	1.140783	0.913964	0.499913
C121	C	0.634914	0.521996	-0.000089
C122	C	1.134914	1.021996	0.499911
C123	C	0.548046	0.495898	-0.000069
C124	C	1.048046	0.995898	0.499931
C125	C	0.553915	0.387867	-0.000067
C126	C	1.053915	0.887867	0.499933
C127	C	0.600285	0.346904	-0.000075
C128	C	1.100285	0.846904	0.499925
C129	C	0.606154	0.238869	-0.000065
C130	C	1.106154	0.738869	0.499935
C131	C	0.519287	0.212774	-0.000053
C132	C	1.019287	0.712774	0.499947
C133	C	0.513417	0.320806	-0.000055
C134	C	1.013417	0.820806	0.499945
N135	N	0.585455	-0.112613	-0.281907
N136	N	1.085455	0.387387	0.218093
C137	C	0.620580	-0.028426	0.531074
C138	C	1.120580	0.471574	1.031074
C139	C	0.616896	-0.037265	0.655738
C140	C	1.116896	0.462735	1.155738
C141	C	0.557694	-0.179124	0.655777
C142	C	1.057694	0.320876	1.155777
C143	C	0.561378	-0.170285	0.531113
C144	C	1.061378	0.329715	1.031113
C145	C	0.592823	-0.094934	0.468766
C146	C	1.092823	0.405066	0.968766
C147	C	0.596509	-0.086101	0.344100
C148	C	1.096509	0.413899	0.844100
C149	C	0.537305	-0.227955	0.344142
C150	C	1.037305	0.272045	0.844142
C151	C	0.533621	-0.236794	0.468805
C152	C	1.033621	0.263206	0.968805
H153	H	0.726013	0.046457	-0.000086
H154	H	1.226013	0.546457	0.499914
H155	H	0.475664	0.354174	-0.000053
H156	H	0.975664	0.854174	0.499947
H157	H	0.667892	0.576594	-0.000103
H158	H	1.167892	1.076594	0.499897
H159	H	0.622114	-0.024749	0.293339
H160	H	1.122114	0.475251	0.793339
H161	H	0.486310	0.158160	-0.000033
H162	H	0.986310	0.658160	0.499967
H163	H	1.336636	-0.309697	-0.000048
H164	H	1.836636	0.190303	0.499952
H165	H	0.720911	-0.296291	-0.000095
H166	H	1.220911	0.203709	0.499905
H167	H	0.646187	0.032921	0.480311
H168	H	1.146187	0.532921	0.980311
H169	H	0.510293	0.529271	-0.000075
H170	H	1.010293	1.029271	0.499925
H171	H	1.110973	0.132575	-0.000030
H172	H	1.610973	0.632575	0.499970
H173	H	0.532089	-0.240466	0.706556
H174	H	1.032089	0.259534	1.206556
H175	H	0.812476	-0.298293	-0.000077
H176	H	1.312476	0.201707	0.499923
H177	H	0.508018	-0.298141	0.519582
H178	H	1.008018	0.201859	1.019582
H179	H	0.643911	0.205519	-0.000066
H180	H	1.143911	0.705519	0.499934
H181	H	0.678540	0.380611	-0.000082
H182	H	1.178540	0.880611	0.499918
H183	H	0.514704	-0.282113	0.293396
H184	H	1.014704	0.217887	0.793396
H185	H	1.202533	0.130570	-0.000023
H186	H	1.702533	0.630570	0.499977
H187	H	0.639498	0.016894	0.706466
H188	H	1.139498	0.516894	1.206466
H189	H	1.194615	-0.401082	-0.000042
H190	H	1.694615	0.098918	0.499958
H191	H	0.817562	0.044474	-0.000057
H192	H	1.317562	0.544474	0.499943
H193	H	0.959574	0.135869	-0.000047
H194	H	1.459574	0.635869	0.499953
H195	H	1.341729	0.033069	-0.000049
H196	H	1.841729	0.533069	0.499951
H197	H	1.433293	0.031065	-0.000042
H198	H	1.933293	0.531065	0.499958
H199	H	1.051120	0.133877	-0.000034
H200	H	1.551120	0.633877	0.499966
H201	H	1.043206	-0.397802	-0.000036
H202	H	1.543206	0.102198	0.499964
H203	H	1.428186	-0.311683	-0.000067
H204	H	1.928186	0.188317	0.499933
H205	H	0.951656	-0.395804	-0.000019
H206	H	1.451656	0.104196	0.499981
H207	H	1.103069	-0.399088	-0.000045
H208	H	1.603069	0.100912	0.499955
