data_functionalizedCrystal
_audit_creation_method	'MofGen! by Chris Wilmer'
_symmetry_space_group_name_H-M	'P1'
_symmetry_Int_Tables_number	1
_symmetry_cell_setting	triclinic
loop_
_symmetry_equiv_pos_as_xyz
  x,y,z
_cell_length_a	18.215407
_cell_length_b	10.685594
_cell_length_c	18.215399
_cell_angle_alpha	85.650869
_cell_angle_beta	90.017368
_cell_angle_gamma	94.382396
loop_
_atom_site_label
_atom_site_type_symbol
_atom_site_fract_x
_atom_site_fract_y
_atom_site_fract_z
Zn1	Zn	1.102670	-0.502459	0.438556
Zn2	Zn	1.093170	-0.713481	0.324934
Zn3	Zn	0.979601	-0.502489	0.315510
Zn4	Zn	0.970164	-0.713399	0.447961
O5	O	1.036401	-0.607957	0.381740
O6	O	1.204393	-0.530473	0.423492
O7	O	1.078079	-0.685539	0.220702
O8	O	1.003852	-0.325905	0.323952
O9	O	1.197414	-0.685510	0.340015
O10	O	1.094270	-0.325883	0.414353
O11	O	0.994640	-0.530524	0.213778
O12	O	0.875366	-0.530446	0.333072
O13	O	0.987767	-0.685371	0.549696
O14	O	0.868432	-0.685400	0.430383
O15	O	1.085119	-0.530394	0.542786
O16	O	1.068928	-0.890050	0.349134
O17	O	0.978555	-0.889990	0.439521
C18	C	0.845197	-0.607918	0.381726
C19	C	0.763397	-0.607932	0.381738
C20	C	0.578829	-0.527371	0.425287
C21	C	0.501970	-0.527381	0.425290
C22	C	0.494724	-0.688579	0.338208
C23	C	0.571582	-0.688561	0.338202
C24	C	0.613633	-0.607959	0.381745
C25	C	0.459915	-0.607987	0.381755
C26	C	0.376581	-0.608000	0.381758
C27	C	0.696972	-0.607944	0.381742
C28	C	1.021707	-0.935805	0.396387
C29	C	1.015487	-1.076060	0.402678
C30	C	1.228352	-0.607997	0.381755
C31	C	1.310150	-0.608014	0.381762
C32	C	1.036450	-0.607870	0.573689
C33	C	1.036471	-0.607833	0.655487
C34	C	1.051173	-0.278829	0.367052
C35	C	1.057468	-0.138574	0.360793
C36	C	1.036399	-0.607953	0.190534
C37	C	1.036537	-0.607634	0.108721
C38	C	1.087182	-0.527061	0.840081
C39	C	1.087192	-0.527024	0.916938
C40	C	0.985820	-0.688410	0.924122
C41	C	0.985807	-0.688439	0.847266
C42	C	1.036492	-0.607767	0.805247
C43	C	1.036516	-0.607701	0.958961
C44	C	1.036527	-0.607661	1.042292
C45	C	1.036480	-0.607804	0.721910
H46	H	1.098172	-1.084796	0.320125
H47	H	0.599919	-0.754186	0.302742
H48	H	1.128468	-0.461303	0.945295
N49	N	0.931145	-0.775399	0.969441
H50	H	0.938841	-0.763131	1.023415
H51	H	0.938541	-0.865533	0.960034
N52	N	0.624182	-0.440440	0.472251
H53	H	0.678153	-0.452661	0.465646
H54	H	0.609877	-0.460210	0.525673
N55	N	0.961573	-1.147289	0.456560
H56	H	0.964622	-1.240747	0.453569
H57	H	0.910024	-1.124402	0.444044
N58	N	0.931118	-0.775465	0.809688
H59	H	0.899011	-0.826566	0.847967
H60	H	0.958436	-0.833882	0.780401
H61	H	0.473637	-0.461757	0.460744
N62	N	1.141846	-0.440053	0.794759
H63	H	1.173958	-0.388920	0.828491
H64	H	1.114504	-0.381666	0.760261
H65	H	0.460477	-0.754204	0.302758
