data_functionalizedCrystal
_audit_creation_method	'MofGen! by Chris Wilmer'
_symmetry_space_group_name_H-M	'P1'
_symmetry_Int_Tables_number	1
_symmetry_cell_setting	triclinic
loop_
_symmetry_equiv_pos_as_xyz
  x,y,z
_cell_length_a	14.519709
_cell_length_b	10.967926
_cell_length_c	9.482900
_cell_angle_alpha	92.549900
_cell_angle_beta	99.350820
_cell_angle_gamma	84.207347
loop_
_atom_site_label
_atom_site_type_symbol
_atom_site_fract_x
_atom_site_fract_y
_atom_site_fract_z
O1	O	0.162805	1.610558	0.282598
O2	O	0.662805	2.110558	0.782598
O3	O	0.164827	1.261349	0.195106
O4	O	0.664827	1.761349	0.695106
O5	O	0.029903	1.445210	0.241184
O6	O	0.529903	1.945210	0.741184
O7	O	0.297729	1.426696	0.236520
O8	O	0.797729	1.926696	0.736520
O9	O	0.057425	1.407864	0.473617
O10	O	0.557425	1.907864	0.973617
O11	O	0.192349	1.224002	0.427539
O12	O	0.692349	1.724002	0.927539
O13	O	0.190327	1.573212	0.515031
O14	O	0.690327	2.073212	1.015031
Cu15	Cu	0.193851	1.395197	0.492508
Cu16	Cu	0.693851	1.895197	0.992508
Cu17	Cu	0.161303	1.439363	0.217629
Cu18	Cu	0.661303	1.939363	0.717629
O19	O	0.325251	1.389350	0.468953
O20	O	0.825251	1.889350	0.968953
C21	C	0.176361	1.197984	0.300126
C22	C	0.676361	1.697984	0.800126
C23	C	0.169716	1.064816	0.266762
C24	C	0.669716	1.564816	0.766762
C25	C	0.181010	0.986099	0.372295
C26	C	0.681010	1.486099	0.872295
C27	C	0.174141	0.848463	0.337815
C28	C	0.674141	1.348463	0.837815
C29	C	0.009274	1.425674	0.357185
C30	C	0.509274	1.925674	0.857185
C31	C	-0.093198	1.423088	0.356538
C32	C	0.406802	1.923088	0.856538
C33	C	-0.468431	1.413573	0.354116
C34	C	0.031569	1.913573	0.854116
C35	C	-0.364029	1.416215	0.354789
C36	C	0.135971	1.916215	0.854789
C37	C	-0.280817	1.418330	0.355328
C38	C	0.219183	1.918330	0.855328
C39	C	-0.176409	1.420973	0.355999
C40	C	0.323591	1.920973	0.855999
C41	C	0.345880	1.408887	0.352949
C42	C	0.845880	1.908887	0.852949
C43	C	0.448350	1.411475	0.353587
C44	C	0.948350	1.911475	0.853587
C45	C	0.178792	1.636577	0.410008
C46	C	0.678792	2.136577	0.910008
C47	C	0.185437	1.769746	0.443362
C48	C	0.685437	2.269746	0.943362
N49	N	0.216743	1.364142	0.685845
N50	N	0.716743	1.864142	1.185845
N51	N	0.138404	1.470428	0.024294
N52	N	0.638404	1.970428	0.524294
C53	C	0.168050	1.430195	0.774598
C54	C	0.668050	1.930195	1.274598
C55	C	0.187104	1.404365	0.935542
C56	C	0.687104	1.904365	1.435542
H57	H	0.200189	0.804243	0.559248
H58	H	0.700189	1.304243	1.059248
Cl59	Cl	0.146928	1.011558	0.087851
Cl60	Cl	0.646928	1.511558	0.587851
H61	H	0.195759	1.020603	0.488172
H62	H	0.695759	1.520603	0.988172
Cl63	Cl	0.081691	1.546761	0.707898
Cl64	Cl	0.581691	2.046761	1.207898
Cl65	Cl	0.273246	1.287517	1.002167
Cl66	Cl	0.773246	1.787517	1.502167
Cl67	Cl	0.052462	1.587527	0.957736
Cl68	Cl	0.552462	2.087527	1.457736
H69	H	0.272533	1.288464	0.729010
H70	H	0.772533	1.788464	1.229010
H71	H	0.159384	0.813965	0.221930
H72	H	0.659384	1.313965	0.721930
