data_functionalizedCrystal
_audit_creation_method	'MofGen! by Chris Wilmer'
_symmetry_space_group_name_H-M	'P1'
_symmetry_Int_Tables_number	1
_symmetry_cell_setting	triclinic
loop_
_symmetry_equiv_pos_as_xyz
  x,y,z
_cell_length_a	16.992694
_cell_length_b	15.944551
_cell_length_c	16.053802
_cell_angle_alpha	92.564789
_cell_angle_beta	87.249047
_cell_angle_gamma	87.083481
loop_
_atom_site_label
_atom_site_type_symbol
_atom_site_fract_x
_atom_site_fract_y
_atom_site_fract_z
O1	O	1.043704	0.174798	-0.069327
O2	O	0.815419	0.172843	-0.069352
O3	O	0.935795	0.051964	-0.069332
O4	O	0.923328	0.295677	-0.069348
O5	O	0.929169	0.058588	0.069526
O6	O	0.808793	0.179467	0.069506
O7	O	1.037078	0.181422	0.069530
Zn8	Zn	0.921884	0.181497	0.091565
Zn9	Zn	0.930613	0.172769	-0.091386
O10	O	0.916702	0.302301	0.069510
C11	C	0.782894	0.173641	0.000074
C12	C	0.695850	0.166141	0.000065
C13	C	0.645613	0.238506	0.000061
C14	C	0.563826	0.231454	0.000073
C15	C	0.532276	0.152037	0.000083
C16	C	0.582519	0.079667	0.000089
C17	C	0.664305	0.086719	0.000083
C18	C	0.288676	0.122807	0.000107
C19	C	0.206884	0.115759	0.000111
C20	C	0.188196	0.267548	0.000095
C21	C	0.269984	0.274593	0.000084
C22	C	0.320220	0.202223	0.000095
N23	N	0.448677	0.144827	0.000092
N24	N	0.403818	0.209434	0.000092
C25	C	0.931964	0.023948	0.000097
C26	C	0.930413	-0.069402	0.000098
C27	C	0.852090	-0.289513	0.000078
C28	C	0.885194	-0.344825	0.068547
C29	C	0.927606	-0.240317	0.000091
C30	C	0.891744	-0.351338	-0.068356
C31	C	0.924889	-0.405412	0.000081
C32	C	0.960728	-0.294396	0.068617
C33	C	0.967271	-0.300907	-0.068348
C34	C	1.000429	-0.356196	0.000138
C35	C	0.929169	-0.145209	0.000098
C36	C	0.923332	-0.500518	0.000080
C37	C	1.069603	0.180624	0.000103
C38	C	1.156648	0.188124	0.000106
C39	C	0.920533	0.330318	0.000079
C40	C	0.922085	0.423667	0.000073
N41	N	0.915931	0.187453	0.216424
N42	N	0.936572	0.166806	-0.216246
C43	C	0.967170	0.136040	0.260127
C44	C	0.963014	0.140215	0.347533
C45	C	0.907622	0.195808	0.391235
C46	C	0.856378	0.247223	0.347526
C47	C	0.860531	0.243043	0.260121
C48	C	0.889481	0.214042	0.652641
C49	C	0.885333	0.218220	0.740052
C50	C	0.991968	0.111209	0.740053
C51	C	0.996120	0.107038	0.652646
C52	C	0.944873	0.158450	0.608945
N53	N	0.903374	0.200078	0.480578
N54	N	0.949118	0.154175	0.519604
H55	H	0.181201	0.051085	0.000118
C56	C	0.343932	0.043204	0.000113
C57	C	0.406161	0.023739	-0.071991
C58	C	0.461423	-0.055867	-0.071986
C59	C	0.454455	-0.116008	0.000123
C60	C	0.392223	-0.096544	0.072233
C61	C	0.336961	-0.016938	0.072227
H62	H	0.411322	0.068260	-0.125376
H63	H	0.507492	-0.070275	-0.125367
H64	H	0.495363	-0.174937	0.000127
H65	H	0.387062	-0.141065	0.125617
H66	H	0.290893	-0.002531	0.125608
H67	H	0.989876	-0.269501	0.126566
C68	C	1.085178	-0.395310	0.000193
C69	C	1.137899	-0.373666	0.072678
C70	C	1.222647	-0.412780	0.072736
C71	C	1.254673	-0.473538	0.000310
C72	C	1.201951	-0.495186	-0.072181
C73	C	1.117203	-0.456072	-0.072239
H74	H	1.114192	-0.328687	0.126297
H75	H	1.261675	-0.396755	0.126399
H76	H	1.317409	-0.502493	0.000353
H77	H	1.225658	-0.540165	-0.125800
H78	H	1.078175	-0.472097	-0.125901
H79	H	0.295666	0.339262	0.000066
C80	C	1.014115	-0.274541	-0.146539
C81	C	0.986590	-0.298418	-0.234065
C82	C	1.033427	-0.272049	-0.312264
C83	C	1.107789	-0.221803	-0.302937
C84	C	1.135317	-0.197923	-0.215408
C85	C	1.088480	-0.224291	-0.137209
H86	H	0.931540	-0.335616	-0.240972
H87	H	1.013049	-0.289727	-0.377059
H88	H	1.142460	-0.202283	-0.360825
H89	H	1.190367	-0.160725	-0.208500
H90	H	1.108858	-0.206613	-0.072414
C91	C	0.852314	-0.385101	-0.146555
C92	C	0.766210	-0.357429	-0.161584
C93	C	0.726773	-0.391189	-0.239778
C94	C	0.773440	-0.452620	-0.302942
C95	C	0.859549	-0.480295	-0.287914
C96	C	0.898986	-0.446536	-0.209720
H97	H	0.731659	-0.311951	-0.114825
H98	H	0.663029	-0.370701	-0.250902
H99	H	0.744247	-0.477611	-0.360826
H100	H	0.894100	-0.525773	-0.334674
H101	H	0.962730	-0.467023	-0.198596
H102	H	0.789404	-0.260406	0.000139
H103	H	0.705207	0.027792	0.000086
H104	H	1.012279	0.090773	0.224550
C105	C	0.132937	0.347151	0.000091
C106	C	0.133046	0.414172	0.072191
C107	C	0.077788	0.493780	0.072190
C108	C	0.022420	0.506368	0.000090
C109	C	0.022308	0.439346	-0.072016
C110	C	0.077567	0.359738	-0.072015
H111	H	0.174035	0.404855	0.125569
H112	H	0.077871	0.543394	0.125568
H113	H	-0.018486	0.565299	0.000089
H114	H	-0.018681	0.448663	-0.125394
H115	H	0.077484	0.310124	-0.125393
C116	C	0.680314	0.325867	0.000049
C117	C	0.657930	0.390947	0.072152
C118	C	0.692629	0.478310	0.072144
C119	C	0.749711	0.500593	0.000032
C120	C	0.772098	0.435512	-0.072077
C121	C	0.737399	0.348148	-0.072068
H122	H	0.615672	0.374453	0.125538
H123	H	0.676056	0.526488	0.125523
H124	H	0.775397	0.565265	0.000025
H125	H	0.814356	0.452006	-0.125463
H126	H	0.753972	0.299971	-0.125448
C127	C	0.838317	-0.371163	0.146735
C128	C	0.750778	-0.342075	0.161766
C129	C	0.703895	-0.368411	0.239950
C130	C	0.744553	-0.423834	0.303102
C131	C	0.832096	-0.452925	0.288073
C132	C	0.878979	-0.426590	0.209889
H133	H	0.720676	-0.301045	0.115015
H134	H	0.639089	-0.346875	0.251075
H135	H	0.709848	-0.443329	0.360979
H136	H	0.862198	-0.493956	0.334824
H137	H	0.943785	-0.448125	0.198764
H138	H	0.522926	0.290381	0.000068
C139	C	1.057047	0.045883	0.604572
C140	C	1.113413	-0.010678	0.652635
C141	C	1.174342	-0.071831	0.604557
C142	C	1.178905	-0.076422	0.508416
C143	C	1.122538	-0.019859	0.460347
C144	C	1.061609	0.041293	0.508425
H145	H	1.110036	-0.007281	0.723810
H146	H	1.216068	-0.113702	0.640142
H147	H	1.224009	-0.121690	0.472826
H148	H	1.125914	-0.023256	0.389172
H149	H	1.019882	0.083165	0.472840
H150	H	0.818806	0.284908	0.224539
C151	C	1.048332	0.054652	0.788124
C152	C	1.014840	-0.008793	0.848225
C153	C	1.071204	-0.065356	0.896295
C154	C	1.161060	-0.058475	0.884264
C155	C	1.194557	0.004972	0.824160
C156	C	1.138193	0.061535	0.776090
H157	H	0.948319	-0.013889	0.857134
H158	H	1.046407	-0.112324	0.940788
H159	H	1.202784	-0.100347	0.919849
H160	H	1.261078	0.010068	0.815252
H161	H	1.162989	0.108503	0.731597
C162	C	0.795445	0.308378	0.395593
C163	C	0.790910	0.313025	0.491735
C164	C	0.729977	0.374183	0.539799
C165	C	0.673580	0.430695	0.491722
C166	C	0.678113	0.426050	0.395575
C167	C	0.739046	0.364891	0.347511
H168	H	0.832660	0.271190	0.527329
H169	H	0.726621	0.377622	0.610974
H170	H	0.628474	0.475968	0.527302
H171	H	0.636363	0.467885	0.359981
H172	H	0.742401	0.361453	0.276336
H173	H	0.556825	0.015004	0.000110
H174	H	0.847755	0.255905	0.617067
H175	H	1.004736	0.098349	0.383115
H176	H	0.840224	0.263494	0.775630
