data_functionalizedCrystal
_audit_creation_method	'MofGen! by Chris Wilmer'
_symmetry_space_group_name_H-M	'P1'
_symmetry_Int_Tables_number	1
_symmetry_cell_setting	triclinic
loop_
_symmetry_equiv_pos_as_xyz
  x,y,z
_cell_length_a	19.188930
_cell_length_b	22.610064
_cell_length_c	19.188924
_cell_angle_alpha	89.998009
_cell_angle_beta	83.143372
_cell_angle_gamma	90.022082
loop_
_atom_site_label
_atom_site_type_symbol
_atom_site_fract_x
_atom_site_fract_y
_atom_site_fract_z
O1	O	0.926148	0.049377	0.087158
O2	O	1.259481	0.382711	0.420492
O3	O	1.592814	0.716044	0.753825
O4	O	0.722836	0.049337	0.098893
O5	O	1.056169	0.382670	0.432226
O6	O	1.389503	0.716004	0.765559
O7	O	0.830361	0.049351	-0.008630
O8	O	1.163695	0.382685	0.324703
O9	O	1.497028	0.716018	0.658036
O10	O	0.818622	0.049363	0.194682
O11	O	1.151955	0.382696	0.528015
O12	O	1.485289	0.716030	0.861348
O13	O	0.830342	-0.049018	-0.008615
O14	O	1.163676	0.284316	0.324719
O15	O	1.497009	0.617649	0.658052
O16	O	0.722817	-0.049032	0.098908
O17	O	1.056150	0.284301	0.432242
O18	O	1.389484	0.617635	0.765575
O19	O	0.926129	-0.048992	0.087174
O20	O	1.259462	0.284341	0.420507
O21	O	1.592795	0.617675	0.753841
Zn22	Zn	0.824470	-0.064630	0.093044
Zn23	Zn	1.157803	0.268703	0.426377
Zn24	Zn	1.491136	0.602036	0.759710
Zn25	Zn	0.824495	0.064975	0.093023
Zn26	Zn	1.157828	0.398309	0.426356
Zn27	Zn	1.491161	0.731642	0.759690
O28	O	0.818603	-0.049006	0.194697
O29	O	1.151936	0.284327	0.528031
O30	O	1.485270	0.617661	0.861364
C31	C	0.696815	0.000147	0.098521
C32	C	1.030149	0.333481	0.431854
C33	C	1.363482	0.666814	0.765187
C34	C	0.619311	0.000132	0.097380
C35	C	0.952644	0.333465	0.430713
C36	C	1.285978	0.666798	0.764046
N37	N	0.824458	-0.153083	0.093057
N38	N	1.157791	0.180251	0.426391
N39	N	1.491124	0.513584	0.759724
C40	C	0.574386	0.000145	0.160471
C41	C	0.907719	0.333478	0.493804
C42	C	1.241052	0.666811	0.827138
C43	C	0.501562	0.000151	0.159399
C44	C	0.834895	0.333484	0.492733
C45	C	1.168228	0.666818	0.826066
C46	C	0.473667	0.000157	0.095233
C47	C	0.807000	0.333490	0.428566
C48	C	1.140333	0.666823	0.761900
C49	C	0.518602	0.000140	0.032134
C50	C	0.851935	0.333474	0.365467
C51	C	1.185269	0.666807	0.698800
C52	C	0.591424	0.000128	0.033207
C53	C	0.924758	0.333461	0.366540
C54	C	1.258091	0.666795	0.699874
N55	N	0.365694	0.033657	0.046180
N56	N	0.699028	0.366990	0.379514
N57	N	1.032361	0.700324	0.712847
N58	N	0.296516	0.033670	0.045165
N59	N	0.629849	0.367003	0.378498
N60	N	0.963182	0.700337	0.711832
C61	C	0.254258	0.000192	0.091995
C62	C	0.587592	0.333526	0.425328
C63	C	0.920925	0.666859	0.758661
N64	N	0.283791	-0.033291	0.139889
N65	N	0.617125	0.300042	0.473222
N66	N	0.950458	0.633376	0.806556
N67	N	0.352976	-0.033301	0.140906
N68	N	0.686309	0.300032	0.474240
N69	N	1.019643	0.633365	0.807573
C70	C	0.394704	0.000170	0.094062
C71	C	0.728038	0.333503	0.427395
C72	C	1.061371	0.666836	0.760728
C73	C	0.130368	0.000212	0.153928
C74	C	0.463702	0.333545	0.487261
C75	C	0.797035	0.666878	0.820595
C76	C	0.057543	0.000214	0.152854
C77	C	0.390877	0.333548	0.486187
C78	C	0.724210	0.666881	0.819520
C79	C	0.074585	0.000209	0.025586
C80	C	0.407919	0.333543	0.358920
C81	C	0.741252	0.666876	0.692253
C82	C	0.147409	0.000201	0.026662
C83	C	0.480742	0.333534	0.359996
C84	C	0.814075	0.666867	0.693329
C85	C	0.175295	0.000205	0.090835
C86	C	0.508629	0.333538	0.424169
C87	C	0.841962	0.666871	0.757502
C88	C	0.872109	-0.561718	0.045419
C89	C	1.205443	-0.228384	0.378752
C90	C	1.538776	0.104949	0.712086
C91	C	0.872113	-0.623638	0.045414
C92	C	1.205446	-0.290304	0.378747
C93	C	1.538779	0.043029	0.712081
O94	O	0.912598	-0.655651	0.004921
O95	O	1.245931	-0.322318	0.338254
O96	O	1.579265	0.011016	0.671587
N97	N	0.824494	-0.654620	0.093009
N98	N	1.157828	-0.321286	0.426342
N99	N	1.491161	0.012047	0.759675
C100	C	0.776864	-0.623679	0.140607
C101	C	1.110198	-0.290345	0.473940
C102	C	1.443531	0.042988	0.807273
O103	O	0.736361	-0.655717	0.181089
O104	O	1.069694	-0.322384	0.514422
O105	O	1.403028	0.010949	0.847755
C106	C	0.776858	-0.561760	0.140608
C107	C	1.110191	-0.228427	0.473941
C108	C	1.443525	0.104907	0.807274
C109	C	0.824484	-0.530781	0.093015
C110	C	1.157818	-0.197448	0.426348
C111	C	1.491151	0.135886	0.759681
C112	C	0.919731	-0.530739	-0.002171
C113	C	1.253064	-0.197405	0.331163
C114	C	1.586398	0.135928	0.664496
C115	C	0.919728	-0.468823	-0.002164
C116	C	1.253062	-0.135490	0.331169
C117	C	1.586395	0.197844	0.664502
C118	C	0.872103	-0.437886	0.045431
C119	C	1.205437	-0.104553	0.378765
C120	C	1.538770	0.228780	0.712098
C121	C	0.824481	-0.468865	0.093021
C122	C	1.157815	-0.135532	0.426354
C123	C	1.491148	0.197801	0.759688
C124	C	0.729225	-0.530820	0.188202
C125	C	1.062559	-0.197487	0.521535
C126	C	1.395892	0.135846	0.854869
C127	C	0.729223	-0.468897	0.188199
C128	C	1.062556	-0.135564	0.521532
C129	C	1.395889	0.197769	0.854865
C130	C	0.776849	-0.437918	0.140606
C131	C	1.110182	-0.104585	0.473939
C132	C	1.443516	0.228748	0.807272
C133	C	0.776854	-0.376013	0.140623
C134	C	1.110187	-0.042680	0.473956
C135	C	1.443520	0.290653	0.807289
N136	N	0.824472	-0.345031	0.093028
N137	N	1.157806	-0.011698	0.426362
N138	N	1.491139	0.321636	0.759695
C139	C	0.872097	-0.375968	0.045432
C140	C	1.205430	-0.042634	0.378766
C141	C	1.538764	0.290699	0.712099
C142	C	0.776881	-0.753712	0.140600
C143	C	1.110214	-0.420379	0.473933
C144	C	1.443547	-0.087046	0.807266
C145	C	0.776890	-0.815630	0.140602
C146	C	1.110223	-0.482297	0.473936
C147	C	1.443556	-0.148963	0.807269
C148	C	0.872137	-0.815585	0.045409
C149	C	1.205471	-0.482251	0.378742
C150	C	1.538804	-0.148918	0.712075
C151	C	0.872131	-0.753666	0.045410
C152	C	1.205464	-0.420332	0.378743
C153	C	1.538798	-0.086999	0.712077
C154	C	0.824499	-0.722730	0.093005
C155	C	1.157832	-0.389397	0.426338
C156	C	1.491166	-0.056064	0.759672
C157	C	0.872088	-0.245940	0.045449
C158	C	1.205421	0.087393	0.378783
C159	C	1.538754	0.420726	0.712116
C160	C	0.872083	-0.184019	0.045462
C161	C	1.205416	0.149314	0.378795
C162	C	1.538749	0.482647	0.712128
C163	C	0.776833	-0.184070	0.140652
C164	C	1.110166	0.149263	0.473986
C165	C	1.443499	0.482597	0.807319
C166	C	0.776840	-0.245986	0.140643
C167	C	1.110173	0.087348	0.473976
C168	C	1.443507	0.420681	0.807310
C169	C	0.824470	-0.276919	0.093036
C170	C	1.157804	0.056414	0.426369
C171	C	1.491137	0.389747	0.759702
O172	O	0.736387	-0.343960	0.181094
O173	O	1.069721	-0.010627	0.514427
O174	O	1.403054	0.322706	0.847760
O175	O	0.912587	-0.343922	0.004951
O176	O	1.245921	-0.010588	0.338285
O177	O	1.579254	0.322745	0.671618
C178	C	0.952149	0.000199	0.087546
C179	C	1.285482	0.333533	0.420880
C180	C	1.618816	0.666866	0.754213
C181	C	1.029654	0.000219	0.088687
C182	C	1.362987	0.333552	0.422020
C183	C	1.696320	0.666885	0.755354
C184	C	0.829973	0.000166	-0.034634
C185	C	1.163306	0.333500	0.298700
C186	C	1.496639	0.666833	0.632033
C187	C	0.828834	0.000164	-0.112138
C188	C	1.162167	0.333498	0.221195
C189	C	1.495500	0.666831	0.554528
N190	N	0.824512	0.153428	0.093004
N191	N	1.157846	0.486761	0.426337
N192	N	1.491179	0.820095	0.759670
C193	C	0.828313	0.053785	-0.148546
C194	C	1.161646	0.387119	0.184787
C195	C	1.494979	0.720452	0.518121
C196	C	0.827233	0.053790	-0.221369
C197	C	1.160566	0.387123	0.111965
C198	C	1.493899	0.720456	0.445298
C199	C	0.826688	0.000170	-0.257783
C200	C	1.160021	0.333503	0.075550
C201	C	1.493355	0.666837	0.408884
C202	C	0.827205	-0.053458	-0.221366
C203	C	1.160539	0.279875	0.111967
C204	C	1.493872	0.613208	0.445300
C205	C	0.828278	-0.053461	-0.148544
C206	C	1.161611	0.279872	0.184789
C207	C	1.494945	0.613206	0.518123
N208	N	0.864728	-0.039730	-0.377440
N209	N	1.198061	0.293603	-0.044107
N210	N	1.531395	0.626936	0.289227
N211	N	0.863710	-0.039724	-0.446618
N212	N	1.197044	0.293609	-0.113285
N213	N	1.530377	0.626942	0.220049
C214	C	0.823454	0.000175	-0.477192
C215	C	1.156787	0.333508	-0.143859
C216	C	1.490121	0.666842	0.189475
N217	N	0.784262	0.040077	-0.435976
N218	N	1.117596	0.373410	-0.102642
N219	N	1.450929	0.706743	0.230691
N220	N	0.785283	0.040072	-0.366791
N221	N	1.118617	0.373405	-0.033458
N222	N	1.451950	0.706739	0.299875
C223	C	0.825524	0.000167	-0.336746
C224	C	1.158858	0.333500	-0.003413
C225	C	1.492191	0.666834	0.329920
C226	C	0.821761	0.053804	-0.592562
C227	C	1.155094	0.387138	-0.259229
C228	C	1.488428	0.720471	0.074105
C229	C	0.820677	0.053806	-0.665386
C230	C	1.154010	0.387140	-0.332052
C231	C	1.487343	0.720473	0.001281
C232	C	0.820656	-0.053443	-0.665383
C233	C	1.153990	0.279890	-0.332049
C234	C	1.487323	0.613224	0.001284
C235	C	0.821733	-0.053444	-0.592560
C236	C	1.155067	0.279890	-0.259226
C237	C	1.488400	0.613223	0.074107
C238	C	0.822289	0.000182	-0.556154
C239	C	1.155622	0.333515	-0.222821
C240	C	1.488956	0.666848	0.110512
C241	C	0.818992	0.000180	0.220700
C242	C	1.152325	0.333514	0.554034
C243	C	1.485659	0.666847	0.887367
C244	C	0.820131	0.000186	0.298205
C245	C	1.153464	0.333519	0.631539
C246	C	1.486797	0.666853	0.964872
H247	H	0.464976	0.000160	0.210777
H248	H	0.798310	0.333493	0.544110
H249	H	1.131643	0.666827	0.877444
C250	C	0.043913	0.000213	-0.044997
C251	C	0.377247	0.333546	0.288336
C252	C	0.710580	0.666879	0.621669
H253	H	0.081103	0.000201	-0.082420
H254	H	0.414436	0.333534	0.250914
H255	H	0.747769	0.666868	0.584247
H256	H	0.015881	0.034519	-0.048069
H257	H	0.349214	0.367852	0.285264
H258	H	0.682548	0.701185	0.618597
H259	H	0.015839	-0.034093	-0.048054
H260	H	0.349172	0.299241	0.285280
H261	H	0.682505	0.632574	0.618613
H262	H	0.826760	-0.097116	-0.251019
H263	H	1.160093	0.236217	0.082314
H264	H	1.493426	0.569551	0.415647
C265	C	0.008122	0.000229	0.222256
C266	C	0.341455	0.333562	0.555589
C267	C	0.674788	0.666896	0.888922
H268	H	-0.039243	0.000229	0.212427
H269	H	0.294090	0.333563	0.545761
H270	H	0.627423	0.666896	0.879094
H271	H	0.016578	0.034534	0.248567
H272	H	0.349912	0.367868	0.581901
H273	H	0.683245	0.701201	0.915234
H274	H	0.016533	-0.034077	0.248585
H275	H	0.349866	0.299256	0.581919
H276	H	0.683199	0.632590	0.915252
C277	C	0.724501	-0.849700	0.192955
C278	C	1.057835	-0.516367	0.526288
C279	C	1.391168	-0.183034	0.859622
H280	H	0.696136	-0.822402	0.221295
H281	H	1.029469	-0.489069	0.554628
H282	H	1.362802	-0.155735	0.887962
H283	H	0.749518	-0.873851	0.221960
H284	H	1.082851	-0.540518	0.555293
H285	H	1.416184	-0.207185	0.888627
H286	H	0.695515	-0.873859	0.167901
H287	H	1.028848	-0.540526	0.501234
H288	H	1.362182	-0.207192	0.834568
C289	C	0.724445	-0.150032	0.192999
C290	C	1.057778	0.183301	0.526332
C291	C	1.391111	0.516635	0.859665
H292	H	0.731262	-0.108719	0.186175
H293	H	1.064595	0.224614	0.519509
H294	H	1.397928	0.557947	0.852842
H295	H	0.731870	-0.160174	0.239583
H296	H	1.065204	0.173159	0.572916
H297	H	1.398537	0.506492	0.906249
H298	H	0.677874	-0.160196	0.185518
H299	H	1.011207	0.173137	0.518851
H300	H	1.344540	0.506471	0.852184
C301	C	0.487924	0.000147	-0.038449
C302	C	0.821257	0.333481	0.294884
C303	C	1.154591	0.666814	0.628217
H304	H	0.525113	0.000134	-0.075872
H305	H	0.858446	0.333467	0.257461
H306	H	1.191780	0.666800	0.590795
H307	H	0.459895	0.034456	-0.041520
H308	H	0.793229	0.367789	0.291813
H309	H	1.126562	0.701123	0.625147
H310	H	0.459846	-0.034155	-0.041506
H311	H	0.793179	0.299178	0.291827
H312	H	1.126512	0.632511	0.625161
C313	C	0.640844	0.000121	-0.036196
C314	C	0.974178	0.333454	0.297137
C315	C	1.307511	0.666787	0.630471
H316	H	0.613804	0.000128	-0.074567
H317	H	0.947138	0.333461	0.258767
H318	H	1.280471	0.666795	0.592100
H319	H	0.669587	-0.034185	-0.038419
H320	H	1.002920	0.299148	0.294915
H321	H	1.336254	0.632482	0.628248
H322	H	0.669625	0.034426	-0.038425
H323	H	1.002959	0.367760	0.294909
H324	H	1.336292	0.701093	0.628242
H325	H	0.828700	-0.097127	-0.118901
H326	H	1.162033	0.236206	0.214432
H327	H	1.495366	0.569540	0.547766
H328	H	0.183988	0.000193	-0.024713
H329	H	0.517322	0.333527	0.308620
H330	H	0.850655	0.666860	0.641953
H331	H	0.822209	0.097469	-0.562919
H332	H	1.155543	0.430803	-0.229585
H333	H	1.488876	0.764136	0.103748
C334	C	0.924470	-0.149946	-0.006896
C335	C	1.257804	0.183388	0.326438
C336	C	1.591137	0.516721	0.659771
H337	H	0.952828	-0.177242	-0.035247
H338	H	1.286161	0.156091	0.298087
H339	H	1.619495	0.489425	0.631420
H340	H	0.953455	-0.125782	0.018148
H341	H	1.286789	0.207551	0.351481
H342	H	1.620122	0.540885	0.684814
H343	H	0.899441	-0.125799	-0.035900
H344	H	1.232774	0.207534	0.297434
H345	H	1.566108	0.540867	0.630767
H346	H	0.828763	0.097452	-0.118909
H347	H	1.162096	0.430785	0.214425
H348	H	1.495430	0.764118	0.547758
C349	C	0.924518	-0.849623	-0.006953
C350	C	1.257851	-0.516289	0.326380
C351	C	1.591184	-0.182956	0.659714
H352	H	0.917691	-0.890935	-0.000139
H353	H	1.251024	-0.557602	0.333194
H354	H	1.584357	-0.224269	0.666527
H355	H	0.971092	-0.839463	0.000507
H356	H	1.304425	-0.506130	0.333841
H357	H	1.637758	-0.172797	0.667174
H358	H	0.917072	-0.839476	-0.053534
H359	H	1.250405	-0.506143	0.279799
H360	H	1.583738	-0.172809	0.613133
C361	C	0.820051	-0.112424	-0.705429
C362	C	1.153385	0.220909	-0.372096
C363	C	1.486718	0.554243	-0.038762
H364	H	0.819340	-0.104744	-0.754014
H365	H	1.152673	0.228590	-0.420681
H366	H	1.486006	0.561923	-0.087348
H367	H	0.779516	-0.134463	-0.688041
H368	H	1.112849	0.198870	-0.354708
H369	H	1.446183	0.532204	-0.021374
H370	H	0.860934	-0.134451	-0.698948
H371	H	1.194267	0.198883	-0.365614
H372	H	1.527600	0.532216	-0.032281
H373	H	0.910872	-0.271119	0.006682
H374	H	1.244205	0.062214	0.340016
H375	H	1.577538	0.395547	0.673349
H376	H	0.153075	0.000206	0.206181
H377	H	0.486408	0.333539	0.539515
H378	H	0.819741	0.666873	0.872848
H379	H	0.738095	-0.728528	0.179363
H380	H	1.071428	-0.395194	0.512696
H381	H	1.404761	-0.061861	0.846030
H382	H	0.690443	-0.556035	0.226956
H383	H	1.023777	-0.222701	0.560289
H384	H	1.357110	0.110632	0.893622
C385	C	0.676830	-0.434872	0.240558
C386	C	1.010163	-0.101538	0.573891
C387	C	1.343496	0.231795	0.907225
H388	H	0.648473	-0.462193	0.268903
H389	H	0.981807	-0.128860	0.602236
H390	H	1.315140	0.204473	0.935569
H391	H	0.647844	-0.410724	0.215518
H392	H	0.981177	-0.077391	0.548851
H393	H	1.314511	0.255943	0.882184
H394	H	0.701855	-0.410713	0.269568
H395	H	1.035188	-0.077380	0.602902
H396	H	1.368522	0.255954	0.936235
H397	H	0.958508	-0.443604	-0.040921
H398	H	1.291841	-0.110270	0.292413
H399	H	1.625174	0.223063	0.625746
C400	C	0.972127	-0.564760	-0.054527
C401	C	1.305460	-0.231426	0.278806
C402	C	1.638793	0.101907	0.612140
H403	H	1.000486	-0.537433	-0.082861
H404	H	1.333820	-0.204100	0.250472
H405	H	1.667153	0.129233	0.583806
H406	H	0.947117	-0.588926	-0.083537
H407	H	1.280450	-0.255592	0.249796
H408	H	1.613783	0.077741	0.583129
H409	H	1.001118	-0.588899	-0.029477
H410	H	1.334452	-0.255566	0.303856
H411	H	1.667785	0.077767	0.637190
H412	H	0.738065	-0.271209	0.179404
H413	H	1.071399	0.062124	0.512738
H414	H	1.404732	0.395457	0.846071
C415	C	0.822319	-0.112427	-0.552511
C416	C	1.155652	0.220906	-0.219178
C417	C	1.488985	0.554239	0.114156
H418	H	0.821846	-0.144362	-0.584627
H419	H	1.155179	0.188971	-0.251293
H420	H	1.488512	0.522305	0.082040
H421	H	0.782032	-0.114668	-0.518651
H422	H	1.115366	0.218665	-0.185318
H423	H	1.448699	0.551999	0.148016
H424	H	0.863450	-0.114647	-0.529557
H425	H	1.196783	0.218686	-0.196224
H426	H	1.530116	0.552019	0.137110
H427	H	0.910912	-0.728446	0.006655
H428	H	1.244245	-0.395113	0.339989
H429	H	1.577579	-0.061780	0.673322
H430	H	0.820249	0.097473	-0.695027
H431	H	1.153582	0.430806	-0.361694
H432	H	1.486915	0.764140	-0.028360
C433	C	0.826663	0.112773	-0.261429
C434	C	1.159996	0.446107	0.071904
C435	C	1.493330	0.779440	0.405238
H436	H	0.825941	0.105093	-0.310013
H437	H	1.159274	0.438427	0.023321
H438	H	1.492607	0.771760	0.356654
H439	H	0.867551	0.134811	-0.254945
H440	H	1.200885	0.468144	0.078388
H441	H	1.534218	0.801478	0.411721
H442	H	0.786134	0.134801	-0.244048
H443	H	1.119467	0.468134	0.089286
H444	H	1.452800	0.801468	0.422619
H445	H	0.597086	0.000149	0.212725
H446	H	0.930419	0.333482	0.546059
H447	H	1.263752	0.666816	0.879392
