data_functionalizedCrystal
_audit_creation_method	'MofGen! by Chris Wilmer'
_symmetry_space_group_name_H-M	'P1'
_symmetry_Int_Tables_number	1
_symmetry_cell_setting	triclinic
loop_
_symmetry_equiv_pos_as_xyz
  x,y,z
_cell_length_a	10.654545
_cell_length_b	14.044209
_cell_length_c	9.130313
_cell_angle_alpha	90.007231
_cell_angle_beta	89.996934
_cell_angle_gamma	91.164484
loop_
_atom_site_label
_atom_site_type_symbol
_atom_site_fract_x
_atom_site_fract_y
_atom_site_fract_z
O1	O	1.681228	-0.133211	-0.121795
O2	O	1.317024	-0.145909	-0.121803
O3	O	1.493661	-0.001540	-0.121778
O4	O	1.504591	-0.277581	-0.121820
O5	O	1.493647	-0.001535	0.121821
O6	O	1.317011	-0.145905	0.121796
O7	O	1.681214	-0.133207	0.121803
Cu8	Cu	1.499111	-0.139556	0.144042
Cu9	Cu	1.499127	-0.139561	-0.144041
O10	O	1.504578	-0.277577	0.121779
C11	C	1.270126	-0.144976	-0.000004
C12	C	1.130402	-0.142189	-0.000006
C13	C	1.064759	-0.140875	0.132781
C14	C	0.933475	-0.138240	0.132782
C15	C	0.933489	-0.138239	-0.132803
C16	C	1.064771	-0.140866	-0.132802
C17	C	1.488869	0.033808	0.000023
C18	C	1.474594	0.139128	0.000030
C19	C	1.448497	0.331961	0.000017
C20	C	1.549746	0.388930	0.000017
C21	C	1.535226	0.496229	0.000010
C22	C	1.463016	0.224652	0.000024
C23	C	1.728113	-0.134141	0.000001
C24	C	1.867836	-0.136927	-0.000006
N25	N	1.499109	-0.139551	0.346665
C26	C	1.509373	0.687076	-0.000014
C27	C	1.523655	0.581757	0.000004
N28	N	1.499139	-0.139557	-0.346664
C29	C	1.577355	-0.075652	0.423328
C30	C	1.577367	-0.075652	0.576664
C31	C	1.420884	-0.203460	0.576663
C32	C	1.420866	-0.203454	0.423329
H33	H	0.880033	-0.137171	0.240910
O34	O	0.869663	-0.137131	-0.261755
C35	C	0.716346	-0.216177	-0.415856
C36	C	0.788563	-0.217555	-0.269780
H37	H	0.650741	-0.281181	-0.422378
H38	H	0.785755	-0.217626	-0.510824
H39	H	0.659014	-0.148653	-0.422464
H40	H	0.845898	-0.285067	-0.263029
H41	H	0.719090	-0.216054	-0.174881
H42	H	1.350918	0.363770	0.000013
H43	H	1.118220	-0.141934	-0.240940
O44	O	1.344705	-0.265439	0.651075
C45	C	1.132411	-0.319522	0.697964
C46	C	1.218536	-0.249261	0.613630
H47	H	1.030388	-0.306480	0.667698
H48	H	1.145758	-0.308550	0.820742
H49	H	1.157346	-0.395607	0.667808
H50	H	1.193654	-0.173149	0.643663
H51	H	1.205176	-0.260316	0.490873
O52	O	1.666078	0.350830	0.000097
C53	C	1.786801	0.207590	0.000039
C54	C	1.654990	0.250616	-0.000023
H55	H	1.777881	0.126562	-0.000090
H56	H	1.840059	0.232132	0.102014
H57	H	1.840054	0.232235	-0.101878
H58	H	1.601632	0.225992	0.101824
H59	H	1.601828	0.226078	-0.102066
O60	O	1.653386	-0.013482	0.349082
C61	C	1.808644	0.113252	0.365276
C62	C	1.722582	0.042907	0.449534
H63	H	1.864631	0.158848	0.446454
H64	H	1.749131	0.161089	0.293555
H65	H	1.875949	0.071843	0.293422
H66	H	1.655262	0.084238	0.521467
H67	H	1.782174	-0.004929	0.521162
H68	H	1.641081	-0.023618	0.639079
H69	H	1.118192	-0.141952	0.240913
O70	O	1.344993	-0.265665	0.348917
C71	C	1.289752	-0.430086	0.302025
C72	C	1.375778	-0.359747	0.386359
H73	H	1.314593	-0.506166	0.332289
H74	H	1.303184	-0.419186	0.179247
H75	H	1.187720	-0.416970	0.332182
H76	H	1.477843	-0.372820	0.356325
H77	H	1.362238	-0.370663	0.509116
