data_functionalizedCrystal
_audit_creation_method	'MofGen! by Chris Wilmer'
_symmetry_space_group_name_H-M	'P1'
_symmetry_Int_Tables_number	1
_symmetry_cell_setting	triclinic
loop_
_symmetry_equiv_pos_as_xyz
  x,y,z
_cell_length_a	18.215407
_cell_length_b	18.101397
_cell_length_c	18.215399
_cell_angle_alpha	90.031052
_cell_angle_beta	90.016885
_cell_angle_gamma	90.017909
loop_
_atom_site_label
_atom_site_type_symbol
_atom_site_fract_x
_atom_site_fract_y
_atom_site_fract_z
Zn1	Zn	1.125091	-0.294885	0.416054
Zn2	Zn	1.625091	0.205115	0.916054
Zn3	Zn	1.125010	-0.418732	0.292982
Zn4	Zn	1.625010	0.081268	0.792982
Zn5	Zn	1.002025	-0.294903	0.293006
Zn6	Zn	1.502025	0.205097	0.793006
Zn7	Zn	1.001999	-0.418683	0.416012
Zn8	Zn	1.501999	0.081317	0.916012
O9	O	1.063531	-0.356801	0.354513
O10	O	1.563531	0.143199	0.854513
O11	O	1.228065	-0.311326	0.399735
O12	O	1.728065	0.188674	0.899735
O13	O	1.108672	-0.402334	0.190001
O14	O	1.608672	0.097666	0.690001
O15	O	1.018394	-0.191268	0.309357
O16	O	1.518394	0.308732	0.809357
O17	O	1.228005	-0.402316	0.309315
O18	O	1.728005	0.097684	0.809315
O19	O	1.108811	-0.191254	0.399759
O20	O	1.608811	0.308746	0.899759
O21	O	1.018316	-0.311358	0.190019
O22	O	1.518316	0.188642	0.690019
O23	O	0.899037	-0.311310	0.309316
O24	O	1.399037	0.188690	0.809316
O25	O	1.018351	-0.402233	0.519002
O26	O	1.518351	0.097767	1.019002
O27	O	0.899018	-0.402251	0.399688
O28	O	1.399018	0.097749	0.899688
O29	O	1.108786	-0.311279	0.519032
O30	O	1.608786	0.188721	1.019032
O31	O	1.108648	-0.522358	0.309274
O32	O	1.608648	-0.022358	0.809274
O33	O	1.018272	-0.522323	0.399664
O34	O	1.518272	-0.022323	0.899664
C35	C	0.872325	-0.356778	0.354501
C36	C	1.372325	0.143222	0.854501
C37	C	0.790526	-0.356786	0.354512
C38	C	1.290526	0.143214	0.854512
C39	C	0.602362	-0.309505	0.401669
C40	C	1.102362	0.190495	0.901669
C41	C	0.525503	-0.309511	0.401671
C42	C	1.025503	0.190489	0.901671
C43	C	0.525452	-0.404117	0.307371
C44	C	1.025452	0.095883	0.807371
C45	C	0.602310	-0.404107	0.307365
C46	C	1.102310	0.095893	0.807365
C47	C	0.640762	-0.356802	0.354518
C48	C	1.140762	0.143198	0.854518
C49	C	0.487046	-0.356819	0.354527
C50	C	0.987046	0.143181	0.854527
C51	C	0.403713	-0.356826	0.354529
C52	C	0.903713	0.143174	0.854529
C53	C	0.724101	-0.356793	0.354515
C54	C	1.224101	0.143207	0.854515
C55	C	1.063468	-0.549211	0.354478
C56	C	1.563468	-0.049211	0.854478
C57	C	1.063509	-0.631525	0.354487
C58	C	1.563509	-0.131525	0.854487
C59	C	1.063602	-0.930616	0.354554
C60	C	1.563602	-0.430616	0.854554
C61	C	1.120306	-0.899283	0.297531
C62	C	1.620306	-0.399283	0.797531
C63	C	1.120502	-0.813664	0.297679
C64	C	1.620502	-0.313664	0.797679
C65	C	1.063556	-0.782234	0.354520
C66	C	1.563556	-0.282234	0.854520
C67	C	1.084580	-0.813241	0.432092
C68	C	1.584580	-0.313241	0.932092
C69	C	1.085018	-0.898886	0.431781
C70	C	1.585018	-0.398886	0.931781
C71	C	0.985724	-0.899122	0.334677
C72	C	1.485724	-0.399122	0.834677
C73	C	0.986109	-0.813473	0.332946
C74	C	1.486109	-0.313473	0.832946
C75	C	1.063528	-0.698374	0.354506
C76	C	1.563528	-0.198374	0.854506
C77	C	1.063632	-1.014476	0.354574
C78	C	1.563632	-0.514476	0.854574
C79	C	1.255484	-0.356824	0.354527
C80	C	1.755484	0.143176	0.854527
C81	C	1.337283	-0.356834	0.354532
C82	C	1.837283	0.143166	0.854532
C83	C	1.063574	-0.356748	0.546466
C84	C	1.563574	0.143252	1.046466
C85	C	1.063593	-0.356726	0.628265
C86	C	1.563593	0.143274	1.128265
C87	C	1.063614	-0.163639	0.354565
C88	C	1.563614	0.336361	0.854565
C89	C	1.063650	-0.081325	0.354587
C90	C	1.563650	0.418675	0.854587
C91	C	1.063530	-0.356800	0.163307
C92	C	1.563530	0.143200	0.663307
C93	C	1.063655	-0.356613	0.081509
C94	C	1.563655	0.143387	0.581509
C95	C	1.110710	-0.309302	0.893340
C96	C	1.610710	0.190698	1.393340
C97	C	1.110701	-0.309322	0.816481
C98	C	1.610701	0.190678	1.316481
C99	C	1.016536	-0.404042	0.816439
C100	C	1.516536	0.095958	1.316439
C101	C	1.016549	-0.404026	0.893297
C102	C	1.516549	0.095974	1.393297
C103	C	1.063634	-0.356651	0.931745
C104	C	1.563634	0.143349	1.431745
C105	C	1.063613	-0.356688	0.778029
C106	C	1.563613	0.143312	1.278029
C107	C	1.063603	-0.356710	0.694695
C108	C	1.563603	0.143290	1.194695
C109	C	1.063645	-0.356630	1.015084
C110	C	1.563645	0.143370	1.515084
H111	H	1.107349	-0.792703	0.240161
H112	H	1.607349	-0.292703	0.740161
Br113	Br	1.179897	-0.932094	0.459844
Br114	Br	1.679897	-0.432094	0.959844
Br115	Br	0.915307	-0.932895	0.403899
Br116	Br	1.415307	-0.432895	0.903899
H117	H	1.149035	-0.270767	0.785216
H118	H	1.649035	0.229233	1.285216
H119	H	1.149049	-0.270726	0.924643
H120	H	1.649049	0.229274	1.424643
Br121	Br	0.952633	-0.468329	0.764254
Br122	Br	1.452633	0.031671	1.264254
Br123	Br	0.654546	-0.245304	0.465660
Br124	Br	1.154546	0.254696	0.965660
H125	H	0.978214	-0.442587	0.924567
H126	H	1.478214	0.057413	1.424567
H127	H	0.494241	-0.270997	0.440065
H128	H	0.994241	0.229003	0.940065
H129	H	0.970256	-0.793214	0.275860
H130	H	1.470256	-0.293214	0.775860
Br131	Br	1.017843	-0.779319	0.504812
Br132	Br	1.517843	-0.279319	1.004812
Br133	Br	0.911900	-0.777827	0.397100
Br134	Br	1.411900	-0.277827	0.897100
Br135	Br	0.473262	-0.468315	0.243382
Br136	Br	0.973262	0.031685	0.743382
Br137	Br	1.098655	-0.933691	0.201372
Br138	Br	1.598655	-0.433691	0.701372
Br139	Br	0.654429	-0.468289	0.243360
Br140	Br	1.154429	0.031711	0.743360
H141	H	1.178190	-0.793123	0.310830
H142	H	1.678190	-0.293123	0.810830
Br143	Br	1.215933	-0.935064	0.319195
Br144	Br	1.715933	-0.435064	0.819195
H145	H	1.045527	-0.919611	0.475732
H146	H	1.545527	-0.419611	0.975732
Br147	Br	1.178397	-0.777401	0.460634
Br148	Br	1.678397	-0.277401	0.960634
H149	H	0.966598	-0.920782	0.279094
H150	H	1.466598	-0.420782	0.779094
