data_functionalizedCrystal
_audit_creation_method	'MofGen! by Chris Wilmer'
_symmetry_space_group_name_H-M	'P1'
_symmetry_Int_Tables_number	1
_symmetry_cell_setting	triclinic
loop_
_symmetry_equiv_pos_as_xyz
  x,y,z
_cell_length_a	21.395362
_cell_length_b	12.827892
_cell_length_c	21.395355
_cell_angle_alpha	90.013138
_cell_angle_beta	90.043940
_cell_angle_gamma	90.031272
loop_
_atom_site_label
_atom_site_type_symbol
_atom_site_fract_x
_atom_site_fract_y
_atom_site_fract_z
Zn1	Zn	0.957926	-0.415711	0.354609
Zn2	Zn	0.957857	-0.590438	0.249841
Zn3	Zn	0.853141	-0.415760	0.249810
Zn4	Zn	0.853138	-0.590459	0.354546
O5	O	0.905516	-0.503092	0.302202
O6	O	1.045595	-0.438860	0.340751
O7	O	0.943938	-0.567278	0.162159
O8	O	0.867071	-0.269517	0.263725
O9	O	1.045544	-0.567231	0.263778
O10	O	0.944056	-0.269482	0.340721
O11	O	0.867004	-0.438943	0.162137
O12	O	0.765463	-0.438963	0.263664
O13	O	0.867067	-0.567267	0.442232
O14	O	0.765461	-0.567314	0.340613
O15	O	0.944054	-0.438881	0.442279
O16	O	0.943935	-0.736677	0.263717
O17	O	0.866999	-0.736692	0.340643
C18	C	0.742728	-0.503147	0.302129
C19	C	0.673087	-0.503196	0.302113
C20	C	0.905476	-0.774602	0.302191
C21	C	0.905517	-0.890755	0.302207
C22	C	0.640389	-0.570117	0.342120
C23	C	0.574953	-0.570091	0.342148
C24	C	0.542218	-0.503156	0.302157
C25	C	0.574924	-0.436222	0.262147
C26	C	0.640358	-0.436242	0.262125
C27	C	0.438492	-0.494737	0.245752
C28	C	0.373059	-0.494724	0.245773
C29	C	0.340398	-0.503088	0.302227
C30	C	0.373177	-0.511486	0.358661
C31	C	0.438611	-0.511506	0.358638
C32	C	0.471266	-0.503126	0.302177
C33	C	0.236747	-0.569984	0.342268
C34	C	0.171311	-0.569951	0.342297
C35	C	0.171283	-0.436087	0.262290
C36	C	0.236718	-0.436115	0.262267
C37	C	0.269446	-0.503069	0.302255
C38	C	0.943633	-0.942497	0.264184
C39	C	0.943675	-1.062548	0.264200
C40	C	1.068939	-0.503037	0.302275
C41	C	1.138580	-0.503014	0.302306
C42	C	0.905568	-0.503071	0.465625
C43	C	0.905590	-0.503062	0.535266
C44	C	0.905572	-0.230522	0.302227
C45	C	0.905596	-0.114369	0.302237
C46	C	0.905500	-0.503038	0.139414
C47	C	0.905599	-0.502752	0.069773
C48	C	0.945675	-0.436208	0.568005
C49	C	0.945674	-0.436163	0.633440
C50	C	0.905595	-0.502991	0.666135
C51	C	0.865501	-0.569849	0.633389
C52	C	0.865499	-0.569885	0.567954
C53	C	0.900634	-0.597087	0.769804
C54	C	0.900641	-0.597053	0.835237
C55	C	0.905598	-0.502880	0.867956
C56	C	0.910563	-0.408738	0.835233
C57	C	0.910560	-0.408774	0.769799
C58	C	0.905592	-0.502959	0.737087
C59	C	0.945685	-0.435972	0.971646
C60	C	0.945680	-0.435925	1.037083
C61	C	0.865510	-0.569621	1.037030
C62	C	0.865512	-0.569658	0.971595
C63	C	0.905603	-0.502835	0.938907
H64	H	0.667032	-0.624635	0.374682
C65	C	0.987760	-1.122658	0.220219
N66	N	1.020967	-1.167937	0.187091
C67	C	0.538914	-0.362593	0.218158
N68	N	0.511791	-0.307130	0.185024
C69	C	0.989768	-0.362687	0.532051
N70	N	1.022977	-0.307305	0.504971
H71	H	0.144630	-0.381582	0.229732
H72	H	0.548326	-0.624586	0.374729
C73	C	0.989778	-0.362375	1.073095
N74	N	1.022995	-0.306976	1.100220
H75	H	0.914601	-0.332121	0.743159
H76	H	0.976236	-0.897922	0.231621
C77	C	0.474413	-0.485541	0.183644
N78	N	0.501468	-0.478616	0.136866
C79	C	0.989777	-0.362622	0.669459
N80	N	1.022997	-0.307234	0.696587
C81	C	0.916015	-0.305139	0.871219
N82	N	0.920123	-0.227112	0.898326
C83	C	0.989780	-0.362457	0.935687
N84	N	1.022991	-0.307083	0.908605
C85	C	0.676327	-0.362626	0.218109
N86	N	0.703419	-0.307180	0.184953
C87	C	0.821422	-0.643133	1.072991
N88	N	0.788213	-0.698504	1.100079
C89	C	0.474666	-0.520742	0.420714
N90	N	0.501822	-0.527698	0.467471
H91	H	0.872959	-1.069879	0.334790
H92	H	0.346585	-0.518294	0.404631
C93	C	0.861472	-0.950973	0.346201
N94	N	0.828296	-0.996328	0.379338
H95	H	0.832874	-0.624104	0.944939
H96	H	0.896602	-0.673709	0.861874
C97	C	0.821401	-0.643435	0.531941
N98	N	0.788187	-0.698835	0.504815
H99	H	0.896429	-0.673754	0.743170
H100	H	0.832866	-0.624257	0.660013
C101	C	0.272751	-0.643622	0.386262
N102	N	0.299867	-0.699085	0.419400
C103	C	0.272687	-0.362505	0.218249
N104	N	0.299778	-0.307058	0.185094
C105	C	0.135343	-0.643583	0.386305
N106	N	0.108252	-0.699048	0.419450
H107	H	0.346375	-0.487893	0.199821
