data_functionalizedCrystal
_audit_creation_method	'MofGen! by Chris Wilmer'
_symmetry_space_group_name_H-M	'P1'
_symmetry_Int_Tables_number	1
_symmetry_cell_setting	triclinic
loop_
_symmetry_equiv_pos_as_xyz
  x,y,z
_cell_length_a	17.019383
_cell_length_b	10.489741
_cell_length_c	8.965430
_cell_angle_alpha	89.999293
_cell_angle_beta	86.120223
_cell_angle_gamma	96.031694
loop_
_atom_site_label
_atom_site_type_symbol
_atom_site_fract_x
_atom_site_fract_y
_atom_site_fract_z
O1	O	1.047590	-0.162571	-0.258466
O2	O	0.818045	-0.183273	-0.229014
O3	O	0.938040	0.012763	-0.244401
O4	O	0.927594	-0.358607	-0.243079
O5	O	0.938030	0.012749	0.003679
O6	O	0.818035	-0.183286	0.019066
O7	O	1.047579	-0.162584	-0.010386
Cu8	Cu	0.932806	-0.172936	0.026992
Cu9	Cu	0.932818	-0.172921	-0.266392
O10	O	0.927584	-0.358620	0.005001
C11	C	0.788647	-0.182492	-0.101202
C12	C	0.701064	-0.180128	-0.089965
C13	C	0.659916	-0.179014	-0.219903
C14	C	0.577621	-0.176814	-0.209321
C15	C	0.536477	-0.175719	-0.068801
C16	C	0.577631	-0.176837	0.061147
C17	C	0.659923	-0.179047	0.050564
C18	C	0.288006	-0.169056	-0.030083
C19	C	0.205708	-0.166843	-0.019511
C20	C	0.205704	-0.166822	-0.289980
C21	C	0.287999	-0.169024	-0.300550
C22	C	0.329145	-0.170149	-0.170603
C23	C	0.452359	-0.173466	-0.057982
C24	C	0.413261	-0.172411	-0.181423
C25	C	0.937246	0.060275	-0.120261
C26	C	0.934886	0.201865	-0.119961
C27	C	1.076978	-0.163365	-0.138201
C28	C	1.164560	-0.165729	-0.149449
C29	C	0.928378	-0.406132	-0.119142
C30	C	0.930738	-0.547722	-0.119452
N31	N	0.932803	-0.172946	0.233341
C32	C	0.858536	0.268738	-0.110175
C33	C	0.894598	0.361452	0.007513
C34	C	0.894626	0.361440	-0.237077
C35	C	0.970979	0.292715	-0.002175
C36	C	0.970997	0.292693	-0.246874
C37	C	1.007114	0.385381	-0.129162
N38	N	0.932827	-0.172901	-0.472742
C39	C	0.877292	-0.263577	0.337765
C40	C	0.948714	-0.288202	0.428014
C41	C	0.861411	-0.148332	0.439216
C42	C	1.004262	-0.197629	0.321396
C43	C	0.916912	-0.057709	0.332596
C44	C	0.988385	-0.082285	0.422793
H45	H	0.321498	-0.169964	0.075729
H46	H	0.446764	-0.173310	-0.295834
O47	O	0.161006	-0.166525	0.131812
H48	H	0.129778	-0.078928	0.142725
H49	H	1.069945	0.435848	-0.137156
O50	O	1.013762	0.252354	-0.389375
H51	H	1.075062	0.300991	-0.398150
O52	O	0.781426	-0.120776	0.507372
H53	H	0.788296	-0.031926	0.574574
O54	O	1.050642	0.019266	0.472217
H55	H	1.109821	-0.001460	0.424565
H56	H	1.003252	0.262413	0.097208
H57	H	0.693410	-0.179902	-0.334329
O58	O	0.966504	-0.417264	0.483680
H59	H	0.974796	-0.481900	0.387163
H60	H	0.862316	0.391873	-0.336349
H61	H	0.418850	-0.172570	0.056430
H62	H	1.064661	-0.218545	0.270128
O63	O	0.533242	-0.175542	-0.349467
H64	H	0.575680	-0.176633	-0.448957
O65	O	0.899062	0.071311	0.276928
H66	H	0.839729	0.091505	0.324314
H67	H	0.830392	-0.340290	0.300191
H68	H	0.172194	-0.165909	-0.395776
O69	O	0.332376	-0.170211	-0.452111
H70	H	0.289936	-0.169077	-0.540690
O71	O	0.533034	-0.176248	0.212542
H72	H	0.501891	-0.088556	0.223316
O73	O	0.704310	-0.180259	0.190709
H74	H	0.661877	-0.179120	0.290201
O75	O	0.775391	0.201570	-0.099355
H76	H	0.743884	0.228913	0.006380
H77	H	0.862289	0.391922	0.115068
