data_functionalizedCrystal
_audit_creation_method	'MofGen! by Chris Wilmer'
_symmetry_space_group_name_H-M	'P1'
_symmetry_Int_Tables_number	1
_symmetry_cell_setting	triclinic
loop_
_symmetry_equiv_pos_as_xyz
  x,y,z
_cell_length_a	6.394984
_cell_length_b	10.908937
_cell_length_c	10.065875
_cell_angle_alpha	83.441416
_cell_angle_beta	99.046838
_cell_angle_gamma	73.290654
loop_
_atom_site_label
_atom_site_type_symbol
_atom_site_fract_x
_atom_site_fract_y
_atom_site_fract_z
O1	O	-0.357816	1.716849	-0.113538
O2	O	-0.195619	1.345609	-0.113530
O3	O	-0.582613	1.536502	-0.113530
O4	O	0.029178	1.525956	-0.113538
O5	O	-0.508574	1.500105	0.113459
O6	O	-0.121580	1.309213	0.113459
O7	O	-0.283778	1.680452	0.113451
Zn8	Zn	-0.190924	1.489054	0.149494
Zn9	Zn	-0.288473	1.537008	-0.149573
O10	O	0.103216	1.489560	0.113451
C11	C	-0.143441	1.279815	-0.000034
C12	C	-0.098300	1.137993	-0.000031
C13	C	-0.216385	0.939745	-0.000054
C14	C	-0.263038	1.086323	-0.000036
C15	C	0.377318	1.516205	-0.000031
C16	C	0.143287	1.509851	-0.000034
C17	C	-0.335956	1.746247	-0.000047
C18	C	-0.381100	1.888070	-0.000059
N19	N	-0.124354	1.456336	0.353600
N20	N	-0.355063	1.569736	-0.353679
C21	C	-0.265321	1.525616	0.421379
C22	C	-0.214075	1.500445	0.578546
H23	H	-0.040830	0.875472	-0.000070
C24	C	0.000233	1.395129	0.657332
N25	N	0.161647	1.315806	0.716676
H26	H	-0.556660	0.952346	-0.000060
H27	H	-0.423955	1.603560	0.363054
C28	C	-0.569371	1.675054	0.567538
N29	N	-0.730781	1.754382	0.508197
C30	C	0.089944	1.351024	0.432392
N31	N	0.251358	1.271701	0.491736
H32	H	0.077270	1.073725	-0.000042
C33	C	-0.500226	1.173145	-0.000022
N34	N	-0.678872	1.238540	-0.000007
