data_functionalizedCrystal
_audit_creation_method	'MofGen! by Chris Wilmer'
_symmetry_space_group_name_H-M	'P1'
_symmetry_Int_Tables_number	1
_symmetry_cell_setting	triclinic
loop_
_symmetry_equiv_pos_as_xyz
  x,y,z
_cell_length_a	14.853558
_cell_length_b	13.930277
_cell_length_c	14.971494
_cell_angle_alpha	89.999970
_cell_angle_beta	83.624346
_cell_angle_gamma	90.004278
loop_
_atom_site_label
_atom_site_type_symbol
_atom_site_fract_x
_atom_site_fract_y
_atom_site_fract_z
O1	O	1.196353	0.079815	0.116735
O2	O	0.933890	0.079819	0.130655
O3	O	1.072152	0.079815	-0.006503
O4	O	1.058091	0.079820	0.253894
O5	O	1.072139	-0.079847	-0.006499
O6	O	0.933876	-0.079842	0.130659
O7	O	1.196339	-0.079846	0.116739
Zn8	Zn	1.065106	-0.105194	0.123700
Zn9	Zn	1.065124	0.105167	0.123695
O10	O	1.058077	-0.079842	0.253898
C11	C	0.900294	-0.000011	0.130028
C12	C	0.800211	-0.000009	0.128142
N13	N	1.065100	-0.248760	0.123703
C14	C	0.753198	0.087026	0.127256
C15	C	0.753181	-0.087043	0.127250
C16	C	0.659148	-0.087045	0.125473
C17	C	0.612135	-0.000010	0.124587
C18	C	0.659156	0.087027	0.125477
C19	C	0.612121	-0.174080	0.124574
C20	C	0.518082	-0.174086	0.122797
C21	C	0.471067	-0.087049	0.121917
C22	C	0.518094	-0.000009	0.122808
C23	C	0.471081	0.087027	0.121921
C24	C	0.518105	0.174068	0.122819
C25	C	0.612141	0.174063	0.124597
C26	C	0.377031	-0.087045	0.120139
C27	C	0.377039	0.087028	0.120142
C28	C	1.003869	-0.299022	0.184418
C29	C	1.126336	-0.299004	0.062984
C30	C	1.126346	-0.399500	0.062980
C31	C	1.065115	-0.449761	0.123696
C32	C	1.003875	-0.399527	0.184414
C33	C	1.187579	-0.449741	0.002257
C34	C	1.187590	-0.550243	0.002250
C35	C	1.126363	-0.600507	0.062970
C36	C	1.065121	-0.550266	0.123692
C37	C	1.003890	-0.600527	0.184407
C38	C	0.942652	-0.550289	0.245134
C39	C	0.942648	-0.449790	0.245135
C40	C	1.126367	-0.701005	0.062970
C41	C	1.003896	-0.701032	0.184404
C42	C	1.229935	-0.000014	0.117367
C43	C	1.330019	-0.000009	0.119252
C44	C	1.071515	-0.000014	-0.039826
C45	C	1.069627	-0.000010	-0.139123
N46	N	1.065136	0.248733	0.123685
C47	C	1.068749	0.087023	-0.185770
C48	C	1.066969	0.087024	-0.279069
C49	C	1.066072	-0.000008	-0.325721
C50	C	1.066948	-0.087048	-0.279067
C51	C	1.068721	-0.087048	-0.185768
C52	C	1.063253	-0.087041	-0.473531
C53	C	1.061480	-0.087042	-0.566836
C54	C	1.061500	0.087031	-0.566831
C55	C	1.063274	0.087031	-0.473533
C56	C	1.064150	-0.000009	-0.426886
C57	C	1.058714	-0.000011	0.287220
C58	C	1.060603	-0.000009	0.386517
H59	H	0.338768	0.157903	0.119426
C60	C	1.193666	-0.243713	-0.003819
N61	N	1.244376	-0.202064	-0.054143
C62	C	1.065955	-0.182785	-0.330386
N63	N	1.065210	-0.254896	-0.369039
C64	C	0.663831	-0.269812	0.125621
N65	N	0.702780	-0.341921	0.126439
C66	C	0.466362	-0.269832	0.121828
N67	N	0.427405	-0.341949	0.121106
C68	C	0.936509	-0.243759	0.251213
N69	N	0.885771	-0.202134	0.301523
C70	C	1.060530	0.182776	-0.618144
N71	N	1.059801	0.254888	-0.656797
C72	C	0.875294	-0.605589	0.311912
N73	N	0.824559	-0.647246	0.362206
C74	C	0.325310	-0.182784	0.119150
N75	N	0.286353	-0.254900	0.118407
H76	H	0.650437	0.244928	0.125326
H77	H	1.066258	0.157895	-0.317045
C78	C	1.069734	0.182767	-0.134462
N79	N	1.070473	0.254885	-0.095819
H80	H	1.237427	-0.408815	-0.047180
C81	C	1.060488	-0.182782	-0.618150
N82	N	1.059739	-0.254895	-0.656799
C83	C	0.936535	-0.756312	0.251196
N84	N	0.885798	-0.797948	0.301503
C85	C	1.069689	-0.182791	-0.134458
N86	N	1.070416	-0.254908	-0.095811
C87	C	0.466379	0.269804	0.121840
N88	N	0.427416	0.341910	0.121104
H89	H	0.892789	-0.408879	0.294575
C90	C	1.254946	-0.605497	-0.064558
N91	N	1.305677	-0.647114	-0.114880
H92	H	0.791489	0.157893	0.127990
C93	C	1.064263	0.182771	-0.422219
N94	N	1.065006	0.254884	-0.383568
C95	C	1.193727	-0.756263	-0.003824
N96	N	1.244468	-0.797882	-0.054135
C97	C	0.804892	-0.182777	0.128272
N98	N	0.843842	-0.254887	0.129062
H99	H	1.063947	-0.157919	-0.435551
