data_functionalizedCrystal
_audit_creation_method	'MofGen! by Chris Wilmer'
_symmetry_space_group_name_H-M	'P1'
_symmetry_Int_Tables_number	1
_symmetry_cell_setting	triclinic
loop_
_symmetry_equiv_pos_as_xyz
  x,y,z
_cell_length_a	17.038278
_cell_length_b	17.019294
_cell_length_c	9.130313
_cell_angle_alpha	93.883486
_cell_angle_beta	90.003583
_cell_angle_gamma	87.243447
loop_
_atom_site_label
_atom_site_type_symbol
_atom_site_fract_x
_atom_site_fract_y
_atom_site_fract_z
O1	O	1.037219	0.171277	0.143409
O2	O	0.809591	0.168559	0.143067
O3	O	0.929755	0.055511	0.128801
O4	O	0.917055	0.284325	0.157674
O5	O	0.929747	0.055507	-0.114798
O6	O	0.809583	0.168555	-0.100533
O7	O	1.037211	0.171273	-0.100191
Cu8	Cu	0.923396	0.169914	-0.122604
Cu9	Cu	0.923406	0.169918	0.165480
O10	O	0.917047	0.284321	-0.085925
C11	C	0.780461	0.166084	0.020955
C12	C	0.693674	0.158704	0.020024
C13	C	0.929269	0.026088	0.003292
C14	C	0.927825	-0.061580	-0.007761
C15	C	0.203301	0.113368	0.014309
C16	C	0.284846	0.120308	0.015176
C17	C	0.316215	0.195009	0.024609
C18	C	0.266035	0.262773	0.033160
C19	C	0.184493	0.255833	0.032283
C20	C	0.561951	0.219528	0.027698
C21	C	0.643501	0.226464	0.028580
C22	C	0.662305	0.083998	0.010593
C23	C	0.580760	0.077064	0.009725
C24	C	0.530587	0.144829	0.018269
C25	C	0.399566	0.202104	0.025500
C26	C	0.447238	0.137732	0.017367
C27	C	0.927152	-0.102759	0.119832
C28	C	0.925790	-0.185132	0.109442
C29	C	0.925106	-0.226323	-0.028542
C30	C	0.925776	-0.185138	-0.156144
C31	C	0.927133	-0.102767	-0.145753
C32	C	0.921004	-0.475032	-0.066561
C33	C	0.919649	-0.557409	-0.076943
C34	C	0.919662	-0.557397	0.188644
C35	C	0.921024	-0.475024	0.199023
C36	C	0.921690	-0.433846	0.071422
C37	C	0.923716	-0.310521	-0.039166
C38	C	0.923074	-0.349649	0.082047
C39	C	1.066341	0.173748	0.021924
C40	C	1.153128	0.181128	0.022865
C41	C	0.917532	0.313744	0.039587
C42	C	0.918977	0.401412	0.050650
N43	N	0.923395	0.169910	-0.325227
C44	C	0.976621	0.119876	-0.408193
C45	C	0.976629	0.119877	-0.561530
C46	C	0.870181	0.219952	-0.548921
C47	C	0.870170	0.219947	-0.395587
N48	N	0.923413	0.169916	0.368103
H49	H	0.177767	0.052539	0.006637
H50	H	0.143641	0.311010	0.039244
H51	H	1.019970	0.079134	-0.629077
Cl52	Cl	0.407800	0.043826	0.005502
Cl53	Cl	0.803276	0.282856	-0.637380
H54	H	0.425117	0.262926	0.033184
H55	H	0.291583	0.323597	0.040832
H56	H	0.826823	0.260691	-0.328032
Cl57	Cl	0.725383	-0.001187	-0.000159
Cl58	Cl	0.347918	0.035119	0.004412
H59	H	0.669038	0.287297	0.036240
Cl60	Cl	0.541330	-0.016850	-0.002081
H61	H	0.927714	-0.069227	0.232193
H62	H	0.925246	-0.218657	0.213341
Cl63	Cl	0.921886	-0.423246	0.372496
Cl64	Cl	0.918823	-0.609168	0.349047
Cl65	Cl	0.498888	0.304720	0.038460
H66	H	1.019959	0.079132	-0.350910
Cl67	Cl	0.918794	-0.609192	-0.250421
Cl68	Cl	0.921829	-0.423274	-0.226976
H69	H	0.925214	-0.218683	-0.268494
Cl70	Cl	0.927977	-0.050998	-0.306162
Cl71	Cl	0.923939	-0.297864	0.255506
H72	H	0.923161	-0.344069	-0.151513
