data_functionalizedCrystal
_audit_creation_method	'MofGen! by Chris Wilmer'
_symmetry_space_group_name_H-M	'P1'
_symmetry_Int_Tables_number	1
_symmetry_cell_setting	triclinic
loop_
_symmetry_equiv_pos_as_xyz
  x,y,z
_cell_length_a	18.426585
_cell_length_b	20.016444
_cell_length_c	20.016444
_cell_angle_alpha	90.003392
_cell_angle_beta	59.999014
_cell_angle_gamma	60.004430
loop_
_atom_site_label
_atom_site_type_symbol
_atom_site_fract_x
_atom_site_fract_y
_atom_site_fract_z
Zr1	Zr	0.794321	-0.087612	0.643603
O2	O	0.945719	-0.194284	0.536925
O3	O	0.642922	-0.054915	0.676306
O4	O	0.794314	-0.194282	0.676305
O5	O	0.794332	0.055024	0.536927
O6	O	0.794310	-0.194277	0.786249
O7	O	0.794327	-0.054916	0.536926
O8	O	0.523497	0.055027	0.786251
O9	O	1.065145	-0.194280	0.536925
O10	O	0.705192	-0.040961	0.772303
O11	O	0.705199	0.041082	0.690253
O12	O	0.883444	-0.123006	0.690252
O13	O	0.883451	-0.040963	0.608202
Zr14	Zr	0.794323	0.087738	0.818952
Zr15	Zr	0.794314	-0.087603	0.818952
Zr16	Zr	0.794330	0.087730	0.643604
Zr17	Zr	0.984792	-0.087605	0.643602
Zr18	Zr	0.603852	0.087732	0.818953
O19	O	0.945722	0.055041	0.786249
O20	O	0.945709	-0.194272	0.786248
O21	O	0.945732	0.055029	0.536926
O22	O	0.642925	0.194410	0.925630
O23	O	0.642912	-0.054902	0.925629
O24	O	0.642935	0.194398	0.676307
O25	O	0.794312	-0.054897	0.925628
O26	O	0.794330	0.194409	0.786250
O27	O	0.794334	0.194403	0.676306
O28	O	0.794317	0.055043	0.925629
O29	O	1.065140	-0.194273	0.676303
O30	O	0.523504	0.194400	0.786252
O31	O	0.523499	0.194406	0.925631
O32	O	0.523492	0.055033	0.925630
O33	O	1.065153	-0.054907	0.536925
O34	O	1.065147	-0.054900	0.676304
O35	O	0.705200	0.123132	0.772304
O36	O	0.705193	0.041090	0.854354
O37	O	0.883445	-0.040955	0.772302
O38	O	0.883452	0.041088	0.690252
C39	C	0.556071	0.000055	0.731279
C40	C	0.475211	0.000052	0.731279
C41	C	0.794330	0.000052	0.511943
C42	C	0.794333	0.000049	0.437503
C43	C	0.794333	0.219389	0.731278
C44	C	0.794337	0.293826	0.731279
C45	C	0.179101	0.000076	0.731275
C46	C	0.261488	0.000071	0.731274
C47	C	0.327154	0.000064	0.731276
C48	C	0.409545	0.000060	0.731277
C49	C	1.032573	0.000071	0.731276
C50	C	1.113433	0.000074	0.731276
C51	C	0.794311	-0.219262	0.731277
C52	C	0.794307	-0.293699	0.731276
C53	C	0.887371	0.422266	0.688446
C54	C	0.887367	0.492211	0.688443
C55	C	0.701266	0.577859	0.774111
C56	C	0.701271	0.507914	0.774108
C57	C	0.794327	0.430118	0.731277
C58	C	0.794317	0.570008	0.731278
C59	C	0.794312	0.645846	0.731275
C60	C	0.794333	0.354275	0.731278
C61	C	0.794318	-0.060506	0.266247
C62	C	0.794312	-0.060500	0.196307
C63	C	0.794323	0.060638	0.196315
C64	C	0.794322	0.060636	0.266257
C65	C	0.794325	0.000059	0.301219
C66	C	0.794319	0.000067	0.161336
C67	C	0.794312	0.000074	0.085504
C68	C	0.794330	0.000053	0.377057
C69	C	0.794314	0.000074	0.950612
C70	C	0.794311	0.000078	1.025052
C71	C	0.556063	0.000066	0.950613
C72	C	0.475200	0.000067	1.025054
C73	C	0.556083	0.219380	0.731279
C74	C	0.475226	0.293815	0.731280
C75	C	0.556074	0.219391	0.950614
C76	C	0.475215	0.293829	1.025055
C77	C	1.032570	-0.219265	0.511941
C78	C	1.113429	-0.293703	0.437500
C79	C	1.032581	0.000061	0.511942
C80	C	1.113444	0.000060	0.437502
C81	C	1.032561	-0.219254	0.731276
C82	C	1.113418	-0.293688	0.731275
C83	C	0.437225	-0.042770	1.017182
C84	C	0.361256	-0.042786	1.087120
C85	C	0.323259	0.000041	1.164929
C86	C	0.361241	0.042879	1.172799
C87	C	0.437213	0.042889	1.102862
C88	C	0.437256	0.371607	0.774110
C89	C	0.361294	0.441552	0.774107
C90	C	0.323298	0.433704	0.731279
C91	C	0.361276	0.355904	0.688444
C92	C	0.437242	0.285960	0.688443
C93	C	0.437239	0.285960	1.102849
C94	C	0.361274	0.355896	1.172801
C95	C	0.323281	0.433699	1.164956
C96	C	0.361265	0.441567	1.087153
C97	C	0.437234	0.371632	1.017203
C98	C	1.151414	-0.285834	0.359706
C99	C	1.227403	-0.355770	0.289754
C100	C	1.265400	-0.433573	0.297599
C101	C	1.227411	-0.441440	0.375402
C102	C	1.151429	-0.371505	0.445352
C103	C	1.151427	0.042889	0.445373
C104	C	1.227417	0.042885	0.375435
C105	C	1.265417	0.000056	0.297626
C106	C	1.227431	-0.042778	0.289756
C107	C	1.151448	-0.042779	0.359694
C108	C	1.151389	-0.285814	0.774111
C109	C	1.227352	-0.355746	0.774127
C110	C	1.265347	-0.433552	0.731300
C111	C	1.227368	-0.441425	0.688463
C112	C	1.151401	-0.371493	0.688453
H113	H	0.963143	0.358924	0.653568
H114	H	0.261441	0.490663	0.731288
Cl115	Cl	1.103684	-0.381407	0.634586
H116	H	1.258332	0.077770	0.381859
H117	H	1.327205	-0.490488	0.731315
H118	H	0.330320	0.504924	1.080778
Cl119	Cl	0.313562	0.539348	0.827965
H120	H	0.330328	0.349525	0.653575
H121	H	0.625503	0.641207	0.808984
H122	H	0.794304	-0.109817	0.167835
H123	H	1.258315	-0.504784	0.653595
Cl124	Cl	1.103662	-0.188032	0.349822
H125	H	0.468147	0.222620	0.653568
Cl126	Cl	1.360920	-0.521485	0.209653
H127	H	0.468162	0.222615	1.109252
H128	H	0.330355	0.349476	1.236145
H129	H	1.327288	0.000064	0.240685
Cl130	Cl	1.004343	0.482334	0.634586
Cl131	Cl	1.275088	-0.345829	0.827978
Cl132	Cl	0.484982	-0.096620	0.919374
H133	H	1.258320	-0.349348	0.226410
H134	H	0.261422	0.490638	1.221921
Cl135	Cl	1.275210	-0.096612	0.191933
H136	H	0.625499	0.514314	0.808987
Cl137	Cl	0.227746	0.000022	1.252843
H138	H	0.468144	0.378050	0.953862
Cl139	Cl	0.485004	0.381495	0.827960
H140	H	1.258358	-0.504796	0.381779
H141	H	0.330341	-0.077669	1.080696
H142	H	0.794318	-0.109830	0.294712
Cl143	Cl	1.103678	-0.381412	0.543148
H144	H	0.794323	0.109958	0.167840
H145	H	0.794324	0.109959	0.294734
H146	H	0.330292	0.077746	1.236160
H147	H	0.468123	0.077777	1.109282
H148	H	1.120492	0.077771	0.508723
Cl149	Cl	1.103701	-0.096621	0.349783
H150	H	1.120466	-0.222466	0.808986
