data_functionalizedCrystal
_audit_creation_method	'MofGen! by Chris Wilmer'
_symmetry_space_group_name_H-M	'P1'
_symmetry_Int_Tables_number	1
_symmetry_cell_setting	triclinic
loop_
_symmetry_equiv_pos_as_xyz
  x,y,z
_cell_length_a	14.044191
_cell_length_b	14.044220
_cell_length_c	13.330367
_cell_angle_alpha	89.994700
_cell_angle_beta	89.994894
_cell_angle_gamma	93.190327
loop_
_atom_site_label
_atom_site_type_symbol
_atom_site_fract_x
_atom_site_fract_y
_atom_site_fract_z
O1	O	1.277177	0.230200	-0.083379
O2	O	1.777177	0.730200	0.416621
O3	O	1.000504	0.221887	-0.083392
O4	O	1.500504	0.721887	0.416608
O5	O	1.134688	0.087707	-0.083376
O6	O	1.634688	0.587707	0.416624
O7	O	1.142993	0.364379	-0.083395
O8	O	1.642993	0.864379	0.416605
O9	O	1.134666	0.087702	0.083471
O10	O	1.634666	0.587702	0.583471
O11	O	1.000483	0.221882	0.083455
O12	O	1.500483	0.721882	0.583455
O13	O	1.277155	0.230195	0.083468
O14	O	1.777155	0.730195	0.583468
Cu15	Cu	1.138817	0.226038	0.098696
Cu16	Cu	1.638817	0.726038	0.598696
Cu17	Cu	1.138842	0.226044	-0.098620
Cu18	Cu	1.638842	0.726044	0.401380
O19	O	1.142972	0.364374	0.083452
O20	O	1.642972	0.864374	0.583452
C21	C	0.964872	0.218248	0.000030
C22	C	1.464872	0.718248	0.500030
C23	C	0.858728	0.207401	0.000026
C24	C	1.358728	0.707401	0.500026
C25	C	0.613270	0.264501	0.000032
C26	C	1.113270	0.764501	0.500032
C27	C	0.664395	0.187585	0.000035
C28	C	1.164395	0.687585	0.500035
C29	C	0.772532	0.198613	0.000030
C30	C	1.272532	0.698613	0.500030
C31	C	0.505123	0.253474	0.000037
C32	C	1.005123	0.753474	0.500037
C33	C	1.131041	0.052083	0.000048
C34	C	1.631041	0.552083	0.500048
C35	C	1.120197	-0.054060	0.000049
C36	C	1.620197	0.445940	0.500049
C37	C	1.100370	-0.248398	0.000033
C38	C	1.600370	0.251602	0.500033
C39	C	1.177285	-0.299526	0.000034
C40	C	1.677285	0.200474	0.500034
C41	C	1.166253	-0.407663	0.000025
C42	C	1.666253	0.092337	0.500025
C43	C	1.111400	-0.140252	0.000042
C44	C	1.611400	0.359748	0.500042
C45	C	1.312788	0.233834	0.000043
C46	C	1.812788	0.733834	0.500043
C47	C	1.418931	0.244681	0.000041
C48	C	1.918931	0.744681	0.500041
C49	C	1.146618	0.399998	0.000026
C50	C	1.646618	0.899998	0.500026
C51	C	1.157463	0.506142	0.000018
C52	C	1.657463	1.006142	0.500018
N53	N	1.138806	0.226034	0.237477
N54	N	1.638806	0.726034	0.737477
N55	N	1.138860	0.226041	-0.237402
N56	N	1.638860	0.726041	0.262598
C57	C	1.079421	0.285433	0.710093
C58	C	1.579421	0.785433	1.210093
C59	C	1.198289	0.166649	0.710075
C60	C	1.698289	0.666649	1.210075
C61	C	1.198278	0.166646	0.605057
C62	C	1.698278	0.666646	1.105057
C63	C	1.138839	0.226037	0.552552
C64	C	1.638839	0.726037	1.052552
C65	C	1.079410	0.285433	0.605065
C66	C	1.579410	0.785433	1.105065
C67	C	1.257712	0.107258	0.552536
C68	C	1.757712	0.607258	1.052536
C69	C	1.257704	0.107253	0.447511
C70	C	1.757704	0.607253	0.947511
C71	C	1.198259	0.166640	0.395004
C72	C	1.698259	0.666640	0.895004
C73	C	1.138828	0.226037	0.447524
C74	C	1.638828	0.726037	0.947524
C75	C	1.079389	0.285429	0.395019
C76	C	1.579389	0.785429	0.895019
C77	C	1.019951	0.344822	0.447536
C78	C	1.519951	0.844822	0.947536
C79	C	1.019965	0.344820	0.552558
C80	C	1.519965	0.844820	1.052558
C81	C	1.198245	0.166642	0.289982
C82	C	1.698245	0.666642	0.789982
C83	C	1.079378	0.285429	0.289991
C84	C	1.579378	0.785429	0.789991
H85	H	0.650711	0.338628	0.000023
H86	H	1.150711	0.838628	0.500023
N87	N	1.275487	-0.249942	0.000043
N88	N	1.775487	0.250058	0.500043
H89	H	1.269553	-0.178601	0.000050
H90	H	1.769553	0.321399	0.500050
H91	H	1.311284	-0.269085	0.061899
H92	H	1.811284	0.230915	0.561899
H93	H	1.246688	0.118299	0.752828
H94	H	1.746688	0.618299	1.252828
H95	H	1.026242	-0.285837	0.000027
H96	H	1.526242	0.214163	0.500027
N97	N	1.015259	0.349480	0.233362
N98	N	1.515259	0.849480	0.733362
H99	H	0.977610	0.387100	0.282570
H100	H	1.477610	0.887100	0.782570
H101	H	1.055367	0.394804	0.189777
H102	H	1.555367	0.894804	0.689777
H103	H	0.971560	0.393183	0.404775
H104	H	1.471560	0.893183	0.904775
H105	H	0.971575	0.393177	0.595325
H106	H	1.471575	0.893177	1.095325
N107	N	1.015310	0.349484	0.766728
N108	N	1.515310	0.849484	1.266728
H109	H	1.024330	0.340473	0.841227
H110	H	1.524330	0.840473	1.341227
H111	H	1.032058	0.418153	0.748363
H112	H	1.532058	0.918153	1.248363
N113	N	0.614808	0.089385	0.000044
N114	N	1.114808	0.589385	0.500044
H115	H	0.543467	0.095321	0.000044
H116	H	1.043467	0.595321	0.500044
H117	H	0.633943	0.053580	-0.061810
H118	H	1.133943	0.553580	0.438190
N119	N	1.321826	0.043212	0.609162
N120	N	1.821826	0.543212	1.109162
H121	H	1.312810	0.052223	0.683662
H122	H	1.812810	0.552223	1.183662
H123	H	1.305079	-0.025457	0.590815
H124	H	1.805079	0.474543	1.090815
H125	H	1.306100	0.058891	0.404758
H126	H	1.806100	0.558891	0.904758
H127	H	1.246643	0.118290	0.247227
H128	H	1.746643	0.618290	0.747227
