data_functionalizedCrystal
_audit_creation_method	'MofGen! by Chris Wilmer'
_symmetry_space_group_name_H-M	'P1'
_symmetry_Int_Tables_number	1
_symmetry_cell_setting	triclinic
loop_
_symmetry_equiv_pos_as_xyz
  x,y,z
_cell_length_a	17.699083
_cell_length_b	17.699097
_cell_length_c	16.176319
_cell_angle_alpha	89.988988
_cell_angle_beta	89.992304
_cell_angle_gamma	83.285722
loop_
_atom_site_label
_atom_site_type_symbol
_atom_site_fract_x
_atom_site_fract_y
_atom_site_fract_z
O1	O	0.095761	1.004072	-0.068817
O2	O	0.108203	0.783695	-0.068804
O3	O	-0.008207	0.900110	-0.068803
O4	O	0.212171	0.887658	-0.068817
O5	O	-0.008214	0.900094	0.068690
O6	O	0.108195	0.783679	0.068690
O7	O	0.095754	1.004056	0.068676
Cu8	Cu	0.101974	0.893867	0.081237
Cu9	Cu	0.101983	0.893885	-0.081364
O10	O	0.212163	0.887642	0.068676
C11	C	0.107752	0.755491	-0.000055
C12	C	0.106409	0.671473	-0.000050
C13	C	0.098184	0.155764	-0.075030
C14	C	0.099440	0.234708	-0.075026
C15	C	0.100065	0.274165	-0.000076
C16	C	0.099427	0.234675	0.074876
C17	C	0.098165	0.155733	0.074871
C18	C	0.104514	0.553039	0.074898
C19	C	0.105778	0.631986	0.074897
C20	C	0.105789	0.632014	-0.075000
C21	C	0.104527	0.553072	-0.075005
C22	C	0.103885	0.513589	-0.000054
C23	C	0.102521	0.427989	-0.000059
C24	C	0.101434	0.359763	-0.000069
C25	C	-0.036408	0.899656	-0.000057
C26	C	-0.120426	0.898317	-0.000056
C27	C	-0.169044	0.966650	-0.000059
C28	C	-0.247987	0.965388	-0.000066
C29	C	-0.278311	0.895792	-0.000065
C30	C	-0.229687	0.827454	-0.000064
C31	C	-0.150745	0.828717	-0.000063
C32	C	-0.548050	0.822359	-0.000071
C33	C	-0.626998	0.821101	-0.000070
C34	C	-0.645292	0.959030	-0.000074
C35	C	-0.566350	0.960293	-0.000073
C36	C	-0.517733	0.891955	-0.000077
C37	C	-0.432134	0.893325	-0.000070
C38	C	-0.363909	0.894422	-0.000065
C39	C	0.240364	0.888096	-0.000073
C40	C	0.324382	0.889435	-0.000078
C41	C	0.096205	1.032261	-0.000074
C42	C	0.097547	1.116279	-0.000084
N43	N	0.101967	0.893859	0.195602
N44	N	0.101983	0.893899	-0.195730
C45	C	0.050442	0.945423	0.238867
C46	C	0.050441	0.945426	0.325414
C47	C	0.101970	0.893869	0.368695
C48	C	0.153498	0.842300	0.325425
C49	C	0.153494	0.842293	0.238879
C50	C	0.153512	0.842326	0.674453
C51	C	0.153513	0.842338	0.761004
C52	C	0.050459	0.945459	0.760988
C53	C	0.050455	0.945452	0.674442
C54	C	0.101980	0.893881	0.631179
C55	C	0.101979	0.893876	0.537335
C56	C	0.101975	0.893877	0.462538
H57	H	0.103980	0.520903	0.135928
H58	H	-0.111161	0.773073	-0.000061
N59	N	-0.005133	1.001026	0.192177
H60	H	0.003515	1.054727	0.207217
H61	H	-0.058816	0.992345	0.207268
N62	N	-0.005126	1.001050	0.372075
H63	H	0.002691	0.993231	0.433469
H64	H	-0.058811	0.992414	0.356959
H65	H	0.099931	0.266808	0.135903
H66	H	0.097655	0.123585	0.135900
H67	H	0.008498	0.987437	0.639205
N68	N	0.106478	0.674599	-0.155844
H69	H	0.107369	0.730596	-0.144472
H70	H	0.059360	0.667025	-0.188573
H71	H	0.106287	0.664110	0.135935
N72	N	-0.005118	1.001084	0.807649
H73	H	0.002698	0.993267	0.869043
H74	H	-0.058802	0.992446	0.792532
N75	N	0.209088	0.786724	0.807689
H76	H	0.241726	0.754049	0.767151
H77	H	0.180144	0.753332	0.843614
H78	H	-0.287569	1.021032	-0.000067
H79	H	-0.508475	0.766714	-0.000074
N80	N	0.103844	0.510518	-0.155846
H81	H	0.102948	0.454517	-0.144476
H82	H	0.150965	0.518100	-0.188581
N83	N	-0.697735	1.032737	-0.000072
H84	H	-0.730889	1.035299	-0.051042
H85	H	-0.666494	1.076975	-0.000036
H86	H	-0.541665	1.016965	-0.000070
H87	H	0.195466	0.800336	0.639235
N88	N	0.209071	0.786685	0.372102
H89	H	0.201257	0.794514	0.433493
H90	H	0.262754	0.795323	0.356959
N91	N	0.209063	0.786674	0.192211
H92	H	0.241708	0.754014	0.232760
H93	H	0.242489	0.815578	0.156284
N94	N	-0.136340	1.041715	-0.000053
H95	H	-0.179121	1.084812	-0.000057
H96	H	-0.103977	1.045251	-0.051022
H97	H	-0.254383	0.770787	-0.000068
N98	N	0.097514	0.113208	-0.155871
H99	H	0.098106	0.150204	-0.203348
H100	H	0.050090	0.086677	-0.159136
N101	N	0.100117	0.277297	-0.155861
H102	H	0.099531	0.240322	-0.203342
H103	H	0.147537	0.303836	-0.159130
H104	H	-0.651685	0.764424	-0.000067
