data_functionalizedCrystal
_audit_creation_method	'MofGen! by Chris Wilmer'
_symmetry_space_group_name_H-M	'P1'
_symmetry_Int_Tables_number	1
_symmetry_cell_setting	triclinic
loop_
_symmetry_equiv_pos_as_xyz
  x,y,z
_cell_length_a	10.540535
_cell_length_b	11.792241
_cell_length_c	10.868271
_cell_angle_alpha	90.000107
_cell_angle_beta	89.993517
_cell_angle_gamma	95.641471
loop_
_atom_site_label
_atom_site_type_symbol
_atom_site_fract_x
_atom_site_fract_y
_atom_site_fract_z
O1	O	0.173992	-1.507359	-0.102207
O2	O	0.191924	-1.177064	-0.102236
O3	O	-0.001773	-1.349750	-0.102208
O4	O	0.367690	-1.334673	-0.102234
O5	O	-0.001781	-1.349735	0.102436
O6	O	0.191916	-1.177050	0.102409
O7	O	0.173985	-1.507345	0.102438
Zn8	Zn	0.182949	-1.342195	0.134915
Zn9	Zn	0.182959	-1.342214	-0.134713
O10	O	0.367682	-1.334659	0.102410
C11	C	0.190794	-1.134763	0.000083
C12	C	0.187422	-1.008741	0.000072
C13	C	0.175115	-1.549646	0.000116
C14	C	0.178486	-1.675668	0.000119
C15	C	-0.049077	-1.348613	0.000115
C16	C	-0.190014	-1.345234	0.000116
C17	C	-0.226274	-1.219152	0.000096
C18	C	-0.372863	-1.215596	-0.000391
C19	C	-0.399522	-1.402796	-0.116542
C20	C	-0.252765	-1.405479	-0.116617
C21	C	-0.252918	-1.407296	0.116110
C22	C	-0.399246	-1.401465	0.117621
C23	C	0.414985	-1.335796	0.000085
C24	C	0.555922	-1.339175	0.000075
N25	N	0.182942	-1.342190	0.318929
C26	C	0.181223	-0.778013	0.000108
C27	C	0.184667	-0.906407	0.000088
N28	N	0.182957	-1.342227	-0.318727
C29	C	0.182957	-1.342208	0.569935
C30	C	0.182952	-1.342194	0.430258
H31	H	-0.184157	-1.170729	0.083716
H32	H	-0.427712	-1.355168	0.203896
H33	H	-0.231025	-1.500058	0.117255
H34	H	-0.182650	-1.171552	-0.083418
N35	N	-0.409456	-1.153168	0.104459
N36	N	-0.366424	-1.051375	0.118365
H37	H	-0.392257	-1.007280	0.192419
N38	N	-0.202167	-1.351569	-0.226386
N39	N	-0.123111	-1.265567	-0.219447
H40	H	-0.087380	-1.227488	-0.296972
H41	H	-0.230035	-1.497907	-0.121576
N42	N	-0.461128	-1.514615	0.126932
N43	N	-0.528440	-1.542875	0.218695
H44	H	-0.572151	-1.622790	0.225266
H45	H	-0.447174	-1.493785	-0.120544
N46	N	-0.408064	-1.153607	-0.106080
N47	N	-0.383075	-1.187556	-0.211477
H48	H	-0.407832	-1.143811	-0.286191
N49	N	-0.438104	-1.348051	-0.225844
N50	N	-0.498401	-1.262195	-0.218160
H51	H	-0.525651	-1.223525	-0.295352
N52	N	-0.199510	-1.357918	0.227035
N53	N	-0.114425	-1.276376	0.221944
H54	H	-0.076706	-1.241487	0.300279
