data_functionalizedCrystal
_audit_creation_method	'MofGen! by Chris Wilmer'
_symmetry_space_group_name_H-M	'P1'
_symmetry_Int_Tables_number	1
_symmetry_cell_setting	triclinic
loop_
_symmetry_equiv_pos_as_xyz
  x,y,z
_cell_length_a	11.295498
_cell_length_b	12.837939
_cell_length_c	12.837942
_cell_angle_alpha	85.171210
_cell_angle_beta	94.530935
_cell_angle_gamma	94.539650
loop_
_atom_site_label
_atom_site_type_symbol
_atom_site_fract_x
_atom_site_fract_y
_atom_site_fract_z
O1	O	-0.099013	-1.408691	0.265783
O2	O	-0.099017	-1.105558	0.252341
O3	O	-0.099008	-1.250402	0.107496
O4	O	-0.099022	-1.263846	0.410628
O5	O	0.099042	-1.237676	0.120198
O6	O	0.099033	-1.092832	0.265042
O7	O	0.099037	-1.395965	0.278485
Cu8	Cu	0.117119	-1.243237	0.272924
Cu9	Cu	-0.117098	-1.258286	0.257902
O10	O	0.099028	-1.251121	0.423330
C11	C	0.000007	-1.060126	0.254150
C12	C	0.000005	-0.943711	0.240606
C13	C	0.000016	-0.718836	0.403437
C14	C	0.000015	-0.609453	0.390715
C15	C	0.000012	-0.615561	0.202444
C16	C	0.000012	-0.724943	0.215165
C17	C	0.000013	-0.776577	0.315664
C18	C	0.000005	-0.885962	0.328384
C19	C	0.000010	-0.892067	0.140114
C20	C	0.000009	-0.782684	0.127393
N21	N	0.281854	-1.232659	0.283489
C22	C	0.531151	-1.344993	0.171231
C23	C	0.655814	-1.337007	0.179223
C24	C	0.655846	-1.208698	0.307460
C25	C	0.531183	-1.216683	0.299468
C26	C	0.468840	-1.284834	0.231352
C27	C	0.344174	-1.292824	0.223366
C28	C	0.344208	-1.164510	0.351596
C29	C	0.468871	-1.156525	0.359589
N30	N	0.718166	-1.268863	0.247337
C31	C	0.000017	-1.239498	0.074777
C32	C	0.000014	-1.225954	-0.041638
C33	C	0.000012	-0.441397	0.276676
C34	C	0.000011	-0.557812	0.290222
C35	C	-0.000008	-1.388784	-0.266514
C36	C	-0.000010	-1.376063	-0.375896
C37	C	-0.000001	-1.187791	-0.369788
C38	C	0.000001	-1.200513	-0.260405
C39	C	-0.000000	-1.301012	-0.208772
C40	C	0.000010	-1.313732	-0.099387
C41	C	0.000011	-1.125462	-0.093281
C42	C	0.000009	-1.112740	-0.202664
C43	C	0.000001	-1.262025	0.456048
C44	C	-0.000005	-1.275570	0.572463
H45	H	-0.000001	-0.939092	0.068643
N46	N	0.000016	-1.422121	-0.043691
H47	H	0.000008	-1.475793	-0.096873
H48	H	-0.073402	-1.436214	-0.003144
H49	H	-0.000012	-1.105970	-0.411848
N50	N	0.276913	-1.366317	0.149903
H51	H	0.298584	-1.440421	0.170717
H52	H	0.298634	-1.345436	0.075824
H53	H	0.000006	-1.030917	-0.244719
H54	H	0.000002	-1.470614	-0.224472
H55	H	0.293460	-1.115528	0.400554
N56	N	-0.000021	-1.470730	-0.438177
H57	H	-0.000022	-1.536323	-0.388866
H58	H	0.073398	-1.464839	-0.478988
H59	H	0.519645	-1.101035	0.415044
N60	N	0.000026	-1.030784	-0.031003
H61	H	0.000030	-1.054089	0.046126
H62	H	-0.073392	-0.992166	-0.053491
H63	H	0.706622	-1.153204	0.362911
N64	N	-0.000005	-0.941658	0.436773
H65	H	-0.000000	-0.888477	0.490445
H66	H	0.073413	-0.982194	0.450858
N67	N	0.000010	-0.774526	0.511828
H68	H	0.073426	-0.815057	0.526013
H69	H	-0.073457	-0.824433	0.516520
N70	N	0.000065	-0.547170	0.485385
H71	H	0.000080	-0.596481	0.550978
H72	H	-0.073341	-0.506354	0.479529
H73	H	0.000109	-0.573495	0.120628
H74	H	0.480391	-1.400491	0.115776
N75	N	0.000024	-0.726991	0.019003
H76	H	0.000029	-0.648935	0.024262
H77	H	-0.073396	-0.752156	-0.024588
H78	H	0.706545	-1.385993	0.130266
