data_functionalizedCrystal
_audit_creation_method	'MofGen! by Chris Wilmer'
_symmetry_space_group_name_H-M	'P1'
_symmetry_Int_Tables_number	1
_symmetry_cell_setting	triclinic
loop_
_symmetry_equiv_pos_as_xyz
  x,y,z
_cell_length_a	25.639239
_cell_length_b	19.805407
_cell_length_c	19.805384
_cell_angle_alpha	89.930859
_cell_angle_beta	89.900224
_cell_angle_gamma	90.040626
loop_
_atom_site_label
_atom_site_type_symbol
_atom_site_fract_x
_atom_site_fract_y
_atom_site_fract_z
Zn1	Zn	-0.207769	1.035004	-0.382730
Zn2	Zn	0.125564	1.368337	-0.049397
Zn3	Zn	0.458898	1.701670	0.283936
Zn4	Zn	-0.295312	1.034798	-0.269540
Zn5	Zn	0.038022	1.368131	0.063794
Zn6	Zn	0.371355	1.701465	0.397127
Zn7	Zn	-0.207895	0.921722	-0.269553
Zn8	Zn	0.125438	1.255055	0.063780
Zn9	Zn	0.458772	1.588389	0.397114
Zn10	Zn	-0.295178	0.921758	-0.382685
Zn11	Zn	0.038155	1.255091	-0.049352
Zn12	Zn	0.371488	1.588424	0.283982
O13	O	-0.251538	0.978320	-0.326127
O14	O	0.081795	1.311654	0.007206
O15	O	0.415128	1.644987	0.340540
O16	O	-0.219385	1.129693	-0.367729
O17	O	0.113948	1.463026	-0.034395
O18	O	0.447282	1.796360	0.298938
O19	O	-0.283824	1.019697	-0.174824
O20	O	0.049509	1.353031	0.158509
O21	O	0.382843	1.686364	0.491842
O22	O	-0.134713	0.936820	-0.284591
O23	O	0.198620	1.270154	0.048742
O24	O	0.531954	1.603487	0.382076
O25	O	-0.283702	1.129542	-0.284568
O26	O	0.049631	1.462875	0.048765
O27	O	0.382965	1.796209	0.382099
O28	O	-0.134620	1.020048	-0.367742
O29	O	0.198713	1.353381	-0.034409
O30	O	0.532046	1.686715	0.298925
O31	O	-0.219599	0.936621	-0.174834
O32	O	0.113734	1.269954	0.158499
O33	O	0.447067	1.603288	0.491832
O34	O	-0.219470	0.827010	-0.284547
O35	O	0.113863	1.160344	0.048786
O36	O	0.447197	1.493677	0.382120
O37	O	-0.283475	0.936881	-0.477408
O38	O	0.049859	1.270214	-0.144075
O39	O	0.383192	1.603548	0.189259
O40	O	-0.283597	0.827036	-0.367664
O41	O	0.049736	1.160370	-0.034331
O42	O	0.383070	1.493703	0.299002
O43	O	-0.219256	1.020083	-0.477441
O44	O	0.114078	1.353416	-0.144108
O45	O	0.447411	1.686749	0.189225
O46	O	-0.368459	1.019732	-0.284524
O47	O	-0.035126	1.353065	0.048809
O48	O	0.298208	1.686398	0.382143
O49	O	-0.368361	0.936682	-0.367651
O50	O	-0.035028	1.270015	-0.034318
O51	O	0.298305	1.603348	0.299015
C52	C	-0.251533	0.802464	-0.326103
C53	C	0.081800	1.135798	0.007231
C54	C	0.415134	1.469131	0.340564
C55	C	-0.251543	0.727232	-0.326108
C56	C	0.081790	1.060566	0.007225
C57	C	0.415123	1.393899	0.340559
C58	C	-0.218111	0.265524	-0.369521
C59	C	0.115222	0.598857	-0.036188
C60	C	0.448556	0.932190	0.297145
C61	C	-0.218112	0.336212	-0.369516
C62	C	0.115221	0.669545	-0.036183
C63	C	0.448555	1.002879	0.297150
C64	C	-0.251546	0.371471	-0.326149
C65	C	0.081787	0.704804	0.007184
C66	C	0.415120	1.038137	0.340518
C67	C	-0.284986	0.336037	-0.282788
C68	C	0.048348	0.669371	0.050545
C69	C	0.381681	1.002704	0.383878
C70	C	-0.284987	0.265350	-0.282797
C71	C	0.048346	0.598683	0.050536
C72	C	0.381680	0.932017	0.383870
C73	C	-0.284982	0.621110	-0.282752
C74	C	0.048352	0.954444	0.050581
C75	C	0.381685	1.287777	0.383914
C76	C	-0.284977	0.691803	-0.282745
C77	C	0.048357	1.025136	0.050588
C78	C	0.381690	1.358469	0.383921
C79	C	-0.218107	0.691972	-0.369472
C80	C	0.115227	1.025306	-0.036138
C81	C	0.448560	1.358639	0.297195
C82	C	-0.218108	0.621285	-0.369481
C83	C	0.115225	0.954619	-0.036147
C84	C	0.448559	1.287952	0.297186
C85	C	-0.251549	0.585858	-0.326123
C86	C	0.081784	0.919191	0.007211
C87	C	0.415118	1.252525	0.340544
C88	C	-0.251548	0.509210	-0.326130
C89	C	0.081785	0.842543	0.007204
C90	C	0.415118	1.175876	0.340537
C91	C	-0.251545	0.448118	-0.326138
C92	C	0.081788	0.781451	0.007195
C93	C	0.415122	1.114784	0.340528
C94	C	-0.387381	0.978207	-0.326096
C95	C	-0.054048	1.311540	0.007237
C96	C	0.279286	1.644873	0.340571
C97	C	-0.445495	0.978220	-0.326105
C98	C	-0.112162	1.311553	0.007228
C99	C	0.221172	1.644886	0.340561
C100	C	-0.805896	1.021678	-0.282916
C101	C	-0.472563	1.355011	0.050417
C102	C	-0.139230	1.688344	0.383750
C103	C	-0.860501	1.021704	-0.282925
C104	C	-0.527167	1.355037	0.050408
C105	C	-0.193834	1.688371	0.383741
O106	O	-0.888770	1.058535	-0.246170
O107	O	-0.555437	1.391869	0.087163
O108	O	-0.222103	1.725202	0.420496
N109	N	-0.887777	0.978439	-0.326172
N110	N	-0.554444	1.311773	0.007161
N111	N	-0.221111	1.645106	0.340495
C112	C	-0.860447	0.935151	-0.369417
C113	C	-0.527114	1.268484	-0.036084
C114	C	-0.193780	1.601817	0.297250
O115	O	-0.888662	0.898354	-0.406203
O116	O	-0.555329	1.231687	-0.072869
O117	O	-0.221995	1.565020	0.260464
C118	C	-0.805844	0.935128	-0.369411
C119	C	-0.472510	1.268462	-0.036078
C120	C	-0.139177	1.601795	0.297256
C121	C	-0.778570	0.978391	-0.326157
C122	C	-0.445236	1.311724	0.007177
C123	C	-0.111903	1.645058	0.340510
C124	C	-0.778622	1.064937	-0.239666
C125	C	-0.445289	1.398271	0.093667
C126	C	-0.111956	1.731604	0.427000
C127	C	-0.724022	1.064910	-0.239656
C128	C	-0.390689	1.398243	0.093677
C129	C	-0.057355	1.731577	0.427010
C130	C	-0.696695	1.021623	-0.282897
C131	C	-0.363362	1.354956	0.050437
C132	C	-0.030029	1.688290	0.383770
C133	C	-0.723969	0.978364	-0.326147
C134	C	-0.390636	1.311697	0.007186
C135	C	-0.057303	1.645030	0.340520
C136	C	-0.778514	0.891844	-0.412659
C137	C	-0.445181	1.225177	-0.079326
C138	C	-0.111848	1.558510	0.254008
C139	C	-0.723907	0.891825	-0.412649
C140	C	-0.390574	1.225159	-0.079316
C141	C	-0.057241	1.558492	0.254017
C142	C	-0.696633	0.935088	-0.369395
C143	C	-0.363300	1.268421	-0.036062
C144	C	-0.029967	1.601755	0.297271
C145	C	-0.642042	0.935049	-0.369377
C146	C	-0.308709	1.268383	-0.036044
C147	C	0.024624	1.601716	0.297289
N148	N	-0.614765	0.978314	-0.326131
N149	N	-0.281432	1.311647	0.007202
N150	N	0.051901	1.644981	0.340536
C151	C	-0.642092	1.021601	-0.282891
C152	C	-0.308759	1.354934	0.050443
C153	C	0.024575	1.688267	0.383776
C154	C	-0.975118	0.935202	-0.369427
C155	C	-0.641784	1.268535	-0.036094
C156	C	-0.308451	1.601868	0.297239
C157	C	-1.029720	0.935220	-0.369431
C158	C	-0.696387	1.268553	-0.036097
C159	C	-0.363053	1.601887	0.297236
C160	C	-1.029770	1.021774	-0.282940
C161	C	-0.696437	1.355108	0.050394
C162	C	-0.363103	1.688441	0.383727
C163	C	-0.975167	1.021752	-0.282934
C164	C	-0.641833	1.355085	0.050400
C165	C	-0.308500	1.688419	0.383733
C166	C	-0.947841	0.978466	-0.326181
C167	C	-0.614508	1.311800	0.007152
C168	C	-0.281174	1.645133	0.340486
C169	C	-0.527427	1.021540	-0.282873
C170	C	-0.194094	1.354873	0.050460
C171	C	0.139240	1.688206	0.383794
C172	C	-0.472822	1.021507	-0.282865
C173	C	-0.139488	1.354840	0.050468
C174	C	0.193845	1.688173	0.383802
C175	C	-0.472777	0.934955	-0.369358
C176	C	-0.139443	1.268288	-0.036025
C177	C	0.193890	1.601622	0.297309
C178	C	-0.527377	0.934985	-0.369364
C179	C	-0.194044	1.268319	-0.036031
C180	C	0.139290	1.601652	0.297303
C181	C	-0.554701	0.978283	-0.326119
C182	C	-0.221368	1.311617	0.007214
C183	C	0.111966	1.644950	0.340548
O184	O	-0.613738	0.898239	-0.406116
O185	O	-0.280405	1.231572	-0.072782
O186	O	0.052928	1.564906	0.260551
O187	O	-0.613870	1.058398	-0.246117
O188	O	-0.280537	1.391731	0.087216
O189	O	0.052796	1.725064	0.420549
C190	C	-0.115165	0.978453	-0.326173
C191	C	0.218168	1.311787	0.007160
C192	C	0.551501	1.645120	0.340494
C193	C	-0.057051	0.978510	-0.326193
C194	C	0.276282	1.311843	0.007141
C195	C	0.609615	1.645176	0.340474
C196	C	-0.251336	0.978509	-0.502670
C197	C	0.081997	1.311842	-0.169337
C198	C	0.415330	1.645175	0.163996
C199	C	-0.251250	0.978589	-0.577903
C200	C	0.082083	1.311922	-0.244569
C201	C	0.415416	1.645256	0.088764
C202	C	-0.251544	1.154863	-0.326152
C203	C	0.081789	1.488196	0.007181
C204	C	0.415122	1.821530	0.340515
C205	C	-0.251547	1.230095	-0.326163
C206	C	0.081787	1.563428	0.007171
C207	C	0.415120	1.896762	0.340504
C208	C	-0.251702	0.978172	-0.150271
C209	C	0.081631	1.311505	0.183063
C210	C	0.414965	1.644838	0.516396
C211	C	-0.251641	0.978223	-0.075039
C212	C	0.081692	1.311556	0.258295
C213	C	0.415026	1.644889	0.591628
C214	C	-0.218420	0.934681	-0.039732
C215	C	0.114914	1.268014	0.293602
C216	C	0.448247	1.601348	0.626935
C217	C	-0.218362	0.934735	0.030957
C218	C	0.114971	1.268068	0.364290
C219	C	0.448305	1.601402	0.697623
C220	C	-0.251528	0.978328	0.066337
C221	C	0.081805	1.311661	0.399670
C222	C	0.415138	1.644994	0.733003
C223	C	-0.284751	1.021874	0.031024
C224	C	0.048582	1.355208	0.364358
C225	C	0.381916	1.688541	0.697691
C226	C	-0.284806	1.021823	-0.039663
C227	C	0.048528	1.355157	0.293671
C228	C	0.381861	1.688490	0.627004
C229	C	-0.284530	1.022082	0.316097
C230	C	0.048803	1.355415	0.649430
C231	C	0.382136	1.688748	0.982764
C232	C	-0.284474	1.022128	0.386789
C233	C	0.048859	1.355461	0.720122
C234	C	0.382192	1.688795	1.053456
C235	C	-0.218087	0.934993	0.386716
C236	C	0.115246	1.268327	0.720050
C237	C	0.448580	1.601660	1.053383
C238	C	-0.218142	0.934942	0.316029
C239	C	0.115192	1.268276	0.649363
C240	C	0.448525	1.601609	0.982696
C241	C	-0.251362	0.978491	0.280723
C242	C	0.081971	1.311824	0.614057
C243	C	0.415305	1.645158	0.947390
C244	C	-0.251423	0.978433	0.204075
C245	C	0.081910	1.311766	0.537409
C246	C	0.415243	1.645100	0.870742
C247	C	-0.251470	0.978383	0.142983
C248	C	0.081863	1.311716	0.476317
C249	C	0.415197	1.645050	0.809650
H250	H	-0.312210	0.592274	-0.247446
H251	H	0.021123	0.925607	0.085888
H252	H	0.354457	1.258941	0.419221
O253	O	-0.317393	0.230858	-0.240644
O254	O	0.015940	0.564192	0.092689
O255	O	0.349273	0.897525	0.426023
C256	C	-0.287626	0.189949	-0.196990
C257	C	0.045707	0.523282	0.136343
C258	C	0.379040	0.856616	0.469676
H259	H	-0.248004	0.179426	-0.220954
H260	H	0.085329	0.512759	0.112379
H261	H	0.418662	0.846092	0.445713
H262	H	-0.308925	0.140211	-0.187878
H263	H	0.024409	0.473545	0.145455
H264	H	0.357742	0.806878	0.478788
H265	H	-0.281880	0.217128	-0.146840
H266	H	0.051453	0.550462	0.186493
H267	H	0.384787	0.883795	0.519827
O268	O	-0.316765	1.064446	0.421085
O269	O	0.016569	1.397780	0.754418
O270	O	0.349902	1.731113	1.087751
C271	C	-0.368971	1.050078	0.404038
C272	C	-0.035638	1.383411	0.737372
C273	C	0.297695	1.716745	1.070705
H274	H	-0.370243	1.024037	0.352767
H275	H	-0.036910	1.357370	0.686100
H276	H	0.296423	1.690704	1.019433
H277	H	-0.392141	1.099125	0.401614
H278	H	-0.058808	1.432458	0.734947
H279	H	0.274525	1.765791	1.068281
H280	H	-0.386746	1.015455	0.443949
H281	H	-0.053412	1.348789	0.777282
H282	H	0.279921	1.682122	1.110616
H283	H	-0.701661	0.856577	-0.447869
H284	H	-0.368328	1.189911	-0.114535
H285	H	-0.034995	1.523244	0.218798
O286	O	-0.317510	0.725949	-0.240598
O287	O	0.015824	1.059283	0.092735
O288	O	0.349157	1.392616	0.426069
C289	C	-0.347018	0.679523	-0.202320
C290	C	-0.013685	1.012857	0.131013
C291	C	0.319648	1.346190	0.464346
H292	H	-0.348831	0.629169	-0.230044
H293	H	-0.015498	0.962503	0.103289
H294	H	0.317835	1.295836	0.436623
H295	H	-0.388212	0.699906	-0.195009
H296	H	-0.054878	1.033239	0.138324
H297	H	0.278455	1.366572	0.471658
H298	H	-0.327875	0.671955	-0.150957
H299	H	0.005458	1.005288	0.182376
H300	H	0.338792	1.338621	0.515710
H301	H	-0.190879	0.720826	-0.404778
H302	H	0.142455	1.054159	-0.071445
H303	H	0.475788	1.387493	0.261889
H304	H	-0.450617	1.056736	-0.247640
H305	H	-0.117284	1.390069	0.085693
H306	H	0.216050	1.723403	0.419027
O307	O	-0.186000	0.892521	0.281635
O308	O	0.147333	1.225854	0.614968
O309	O	0.480666	1.559187	0.948302
C310	C	-0.216044	0.849038	0.240927
C311	C	0.117290	1.182371	0.574260
C312	C	0.450623	1.515705	0.907593
H313	H	-0.257229	0.845224	0.262383
H314	H	0.076105	1.178557	0.595716
H315	H	0.409438	1.511890	0.929049
H316	H	-0.197427	0.796789	0.240162
H317	H	0.135906	1.130122	0.573495
H318	H	0.469239	1.463455	0.906829
H319	H	-0.217768	0.869939	0.187319
H320	H	0.115565	1.203272	0.520652
H321	H	0.448898	1.536605	0.853986
O322	O	-0.185705	0.231202	-0.411683
O323	O	0.147628	0.564535	-0.078349
O324	O	0.480962	0.897868	0.254984
C325	C	-0.215477	0.190358	-0.455345
C326	C	0.117857	0.523691	-0.122012
C327	C	0.451190	0.857025	0.211322
H328	H	-0.255098	0.179700	-0.431380
H329	H	0.078235	0.513034	-0.098047
H330	H	0.411569	0.846367	0.235286
H331	H	-0.194181	0.140682	-0.464474
H332	H	0.139152	0.474016	-0.131140
H333	H	0.472485	0.807349	0.202193
H334	H	-0.221225	0.217663	-0.505487
H335	H	0.112109	0.550996	-0.172154
H336	H	0.445442	0.884330	0.161180
O337	O	-0.186176	0.892427	-0.074172
O338	O	0.147157	1.225760	0.259162
O339	O	0.480490	1.559094	0.592495
C340	C	-0.152216	0.930647	-0.115243
C341	C	0.181118	1.263980	0.218090
C342	C	0.514451	1.597313	0.551424
H343	H	-0.170377	0.982087	-0.125868
H344	H	0.162956	1.315421	0.207465
H345	H	0.496290	1.648754	0.540798
H346	H	-0.145402	0.902981	-0.164921
H347	H	0.187931	1.236315	0.168413
H348	H	0.521265	1.569648	0.501746
H349	H	-0.113408	0.937776	-0.088153
H350	H	0.219926	1.271109	0.245181
H351	H	0.553259	1.604443	0.578514
H352	H	-0.311582	1.057540	0.287359
H353	H	0.021752	1.390873	0.620693
H354	H	0.355085	1.724207	0.954026
H355	H	-0.549668	1.056798	-0.247660
H356	H	-0.216334	1.390132	0.085673
H357	H	0.116999	1.723465	0.419006
H358	H	-0.952963	1.056980	-0.247713
H359	H	-0.619630	1.390314	0.085621
H360	H	-0.286297	1.723647	0.418954
O361	O	-0.317490	0.370361	-0.240755
O362	O	0.015843	0.703694	0.092578
O363	O	0.349177	1.037028	0.425911
C364	C	-0.351268	0.411260	-0.279208
C365	C	-0.017934	0.744593	0.054126
C366	C	0.315399	1.077927	0.387459
H367	H	-0.332829	0.421933	-0.330543
H368	H	0.000504	0.755267	0.002790
H369	H	0.333837	1.088600	0.336123
H370	H	-0.358271	0.460925	-0.251615
H371	H	-0.024937	0.794258	0.081718
H372	H	0.308396	1.127591	0.415051
H373	H	-0.390016	0.383995	-0.286557
H374	H	-0.056682	0.717328	0.046776
H375	H	0.276651	1.050662	0.380109
H376	H	-0.311753	1.057371	0.059836
H377	H	0.021580	1.390705	0.393170
H378	H	0.354913	1.724038	0.726503
O379	O	-0.317103	1.064025	-0.074037
O380	O	0.016230	1.397358	0.259297
O381	O	0.349563	1.730692	0.592630
C382	C	-0.351128	1.025748	-0.114720
C383	C	-0.017794	1.359081	0.218613
C384	C	0.315539	1.692415	0.551947
H385	H	-0.332984	0.974291	-0.125275
H386	H	0.000349	1.307624	0.208058
H387	H	0.333683	1.640958	0.541392
H388	H	-0.358016	1.053342	-0.164456
H389	H	-0.024683	1.386675	0.168877
H390	H	0.308650	1.720008	0.502211
H391	H	-0.389894	1.018660	-0.087328
H392	H	-0.056561	1.351993	0.246005
H393	H	0.276772	1.685327	0.579338
H394	H	-0.701819	1.100140	-0.204437
H395	H	-0.368485	1.433473	0.128896
H396	H	-0.035152	1.766806	0.462229
H397	H	-0.549585	0.899760	-0.404587
H398	H	-0.216251	1.233093	-0.071254
H399	H	0.117082	1.566426	0.262080
H400	H	-0.191035	0.899536	0.415471
H401	H	0.142298	1.232870	0.748804
H402	H	0.475631	1.566203	1.082138
H403	H	-1.052029	1.057023	-0.247733
H404	H	-0.718696	1.390357	0.085600
H405	H	-0.385362	1.723690	0.418933
O406	O	-0.185654	0.370550	-0.411726
O407	O	0.147679	0.703884	-0.078393
O408	O	0.481013	1.037217	0.254941
C409	C	-0.197087	0.353366	-0.479163
C410	C	0.136247	0.686699	-0.145829
C411	C	0.469580	1.020033	0.187504
H412	H	-0.217189	0.302028	-0.480525
H413	H	0.116144	0.635361	-0.147192
H414	H	0.449478	0.968695	0.186142
H415	H	-0.159351	0.351017	-0.509595
H416	H	0.173982	0.684350	-0.176261
H417	H	0.507315	1.017683	0.157072
H418	H	-0.223964	0.393157	-0.501899
H419	H	0.109370	0.726490	-0.168566
H420	H	0.442703	1.059823	0.164767
O421	O	-0.185686	0.587067	-0.411706
O422	O	0.147647	0.920400	-0.078372
O423	O	0.480981	1.253734	0.254961
C424	C	-0.197109	0.604433	-0.479135
C425	C	0.136224	0.937767	-0.145801
C426	C	0.469558	1.271100	0.187532
H427	H	-0.238877	0.623834	-0.482450
H428	H	0.094456	0.957167	-0.149116
H429	H	0.427789	1.290500	0.184217
H430	H	-0.192610	0.557995	-0.512591
H431	H	0.140724	0.891328	-0.179258
H432	H	0.474057	1.224662	0.154076
H433	H	-0.169077	0.645512	-0.496889
H434	H	0.164256	0.978845	-0.163556
H435	H	0.497589	1.312178	0.169778
O436	O	-0.805082	1.107009	-0.197593
O437	O	-0.471748	1.440343	0.135740
O438	O	-0.138415	1.773676	0.469073
C439	C	-0.769289	1.145193	-0.159438
C440	C	-0.435956	1.478526	0.173896
C441	C	-0.102623	1.811860	0.507229
H442	H	-0.730394	1.117446	-0.157076
H443	H	-0.397060	1.450780	0.176257
H444	H	-0.063727	1.784113	0.509591
H445	H	-0.785127	1.152404	-0.106113
H446	H	-0.451793	1.485737	0.227220
H447	H	-0.118460	1.819070	0.560554
H448	H	-0.763405	1.196604	-0.184269
H449	H	-0.430072	1.529937	0.149064
H450	H	-0.096739	1.863271	0.482398
O451	O	-1.056130	0.893168	-0.411506
O452	O	-0.722796	1.226501	-0.078173
O453	O	-0.389463	1.559835	0.255160
C454	C	-1.020295	0.854947	-0.449653
C455	C	-0.686961	1.188280	-0.116319
C456	C	-0.353628	1.521613	0.217014
H457	H	-0.981346	0.882656	-0.452011
H458	H	-0.648013	1.215989	-0.118678
H459	H	-0.314680	1.549323	0.214655
H460	H	-1.035996	0.847745	-0.502979
H461	H	-0.702662	1.181079	-0.169646
H462	H	-0.369329	1.514412	0.163688
H463	H	-1.014565	0.803533	-0.424815
H464	H	-0.681232	1.136866	-0.091482
H465	H	-0.347898	1.470199	0.241852
O466	O	-0.948518	0.893110	-0.411340
O467	O	-0.615185	1.226444	-0.078007
O468	O	-0.281852	1.559777	0.255326
C469	C	-0.917034	0.849356	-0.372760
C470	C	-0.583701	1.182690	-0.039427
C471	C	-0.250368	1.516023	0.293906
H472	H	-0.908901	0.873213	-0.321490
H473	H	-0.575568	1.206547	0.011843
H474	H	-0.242235	1.539880	0.345176
H475	H	-0.878609	0.840269	-0.400321
H476	H	-0.545275	1.173602	-0.066988
H477	H	-0.211942	1.506935	0.266345
H478	H	-0.938133	0.799208	-0.365273
H479	H	-0.604800	1.132541	-0.031939
H480	H	-0.271467	1.465875	0.301394
O481	O	-0.804919	0.849799	-0.454743
O482	O	-0.471585	1.183132	-0.121410
O483	O	-0.138252	1.516465	0.211924
C484	C	-0.769080	0.811586	-0.492892
C485	C	-0.435746	1.144919	-0.159558
C486	C	-0.102413	1.478252	0.173775
H487	H	-0.730133	0.839299	-0.495243
H488	H	-0.396800	1.172632	-0.161910
H489	H	-0.063466	1.505965	0.171423
H490	H	-0.784778	0.804390	-0.546220
H491	H	-0.451445	1.137723	-0.212887
H492	H	-0.118111	1.471057	0.120447
H493	H	-0.763349	0.760169	-0.468060
H494	H	-0.430015	1.093502	-0.134727
H495	H	-0.096682	1.426836	0.198606
H496	H	-0.450519	0.899709	-0.404562
H497	H	-0.117185	1.233043	-0.071229
H498	H	0.216148	1.566376	0.262105
O499	O	-0.186074	0.892375	0.065149
O500	O	0.147259	1.225708	0.398483
O501	O	0.480592	1.559041	0.731816
C502	C	-0.156805	0.853898	0.018764
C503	C	0.176528	1.187231	0.352098
C504	C	0.509861	1.520565	0.685431
H505	H	-0.178275	0.851697	-0.031541
H506	H	0.155058	1.185030	0.301792
H507	H	0.488391	1.518363	0.635125
H508	H	-0.151509	0.800539	0.039274
H509	H	0.181825	1.133872	0.372607
H510	H	0.515158	1.467206	0.705940
H511	H	-0.116965	0.878343	0.011053
H512	H	0.216368	1.211677	0.344387
H513	H	0.549701	1.545010	0.677720
