data_functionalizedCrystal
_audit_creation_method	'MofGen! by Chris Wilmer'
_symmetry_space_group_name_H-M	'P1'
_symmetry_Int_Tables_number	1
_symmetry_cell_setting	triclinic
loop_
_symmetry_equiv_pos_as_xyz
  x,y,z
_cell_length_a	18.101398
_cell_length_b	17.077402
_cell_length_c	17.077396
_cell_angle_alpha	90.030619
_cell_angle_beta	89.977334
_cell_angle_gamma	89.981851
loop_
_atom_site_label
_atom_site_type_symbol
_atom_site_fract_x
_atom_site_fract_y
_atom_site_fract_z
Zn1	Zn	1.132151	0.312601	-0.443949
Zn2	Zn	1.465485	0.645934	-0.110616
Zn3	Zn	1.798818	0.979267	0.222718
Zn4	Zn	1.132068	0.443878	-0.312680
Zn5	Zn	1.465402	0.777211	0.020653
Zn6	Zn	1.798735	1.110544	0.353987
Zn7	Zn	1.008314	0.312619	-0.312685
Zn8	Zn	1.341647	0.645952	0.020649
Zn9	Zn	1.674980	0.979286	0.353982
Zn10	Zn	1.008279	0.443818	-0.443891
Zn11	Zn	1.341612	0.777151	-0.110558
Zn12	Zn	1.674945	1.110484	0.222775
O13	O	1.070203	0.378229	-0.378301
O14	O	1.403536	0.711562	-0.044968
O15	O	1.736870	1.044895	0.288365
O16	O	1.235773	0.330032	-0.426558
O17	O	1.569106	0.663366	-0.093225
O18	O	1.902440	0.996699	0.240108
O19	O	1.115632	0.426498	-0.202834
O20	O	1.448965	0.759832	0.130500
O21	O	1.782299	1.093165	0.463833
O22	O	1.024790	0.202770	-0.330123
O23	O	1.358124	0.536103	0.003210
O24	O	1.691457	0.869436	0.336543
O25	O	1.235712	0.426481	-0.330116
O26	O	1.569046	0.759814	0.003218
O27	O	1.902379	1.093148	0.336551
O28	O	1.115773	0.202756	-0.426563
O29	O	1.449107	0.536090	-0.093229
O30	O	1.782440	0.869423	0.240104
O31	O	1.024710	0.330063	-0.202837
O32	O	1.358043	0.663397	0.130496
O33	O	1.691377	0.996730	0.463830
O34	O	0.904676	0.330005	-0.330067
O35	O	1.238010	0.663339	0.003266
O36	O	1.571343	0.996672	0.336599
O37	O	1.024731	0.426379	-0.553746
O38	O	1.358064	0.759712	-0.220413
O39	O	1.691397	1.093046	0.112921
O40	O	0.904650	0.426396	-0.426464
O41	O	1.237984	0.759730	-0.093131
O42	O	1.571317	1.093063	0.240203
O43	O	1.115739	0.329974	-0.553788
O44	O	1.449073	0.663308	-0.220455
O45	O	1.782406	0.996641	0.112878
O46	O	1.115598	0.553717	-0.330059
O47	O	1.448931	0.887050	0.003274
O48	O	1.782265	1.220383	0.336607
O49	O	1.024650	0.553673	-0.426460
O50	O	1.357984	0.887006	-0.093126
O51	O	1.691317	1.220339	0.240207
C52	C	0.877792	0.378197	-0.378260
C53	C	1.211126	0.711530	-0.044927
C54	C	1.544459	1.044864	0.288406
C55	C	0.795478	0.378202	-0.378261
C56	C	1.128812	0.711535	-0.044928
C57	C	1.462145	1.044869	0.288405
C58	C	1.070132	0.582177	-0.378270
C59	C	1.403465	0.915510	-0.044937
C60	C	1.736798	1.248843	0.288397
C61	C	1.070169	0.669426	-0.378283
C62	C	1.403502	1.002760	-0.044949
C63	C	1.736835	1.336093	0.288384
C64	C	1.070240	0.378168	-0.583046
C65	C	1.403574	0.711501	-0.249712
C66	C	1.736907	1.044835	0.083621
C67	C	1.070256	0.378142	-0.670296
C68	C	1.403589	0.711475	-0.336962
C69	C	1.736923	1.044809	-0.003629
C70	C	0.496387	0.378251	-0.378327
C71	C	0.829721	0.711584	-0.044994
C72	C	1.163054	1.044918	0.288339
C73	C	0.527704	0.317301	-0.317973
C74	C	0.861037	0.650635	0.015360
C75	C	1.194371	0.983968	0.348694
C76	C	0.613322	0.317465	-0.317715
C77	C	0.946656	0.650798	0.015618
C78	C	1.279989	0.984131	0.348951
C79	C	0.644770	0.378226	-0.378295
C80	C	0.978103	0.711559	-0.044961
C81	C	1.311437	1.044893	0.288372
C82	C	0.613664	0.460916	-0.355690
C83	C	0.946997	0.794249	-0.022357
C84	C	1.280330	1.127583	0.310976
C85	C	0.528018	0.460577	-0.355271
C86	C	0.861352	0.793911	-0.021937
C87	C	1.194685	1.127244	0.311396
C88	C	0.527997	0.357230	-0.461428
C89	C	0.861330	0.690563	-0.128095
C90	C	1.194664	1.023897	0.205239
C91	C	0.613647	0.355389	-0.460975
C92	C	0.946981	0.688722	-0.127641
C93	C	1.280314	1.022055	0.205692
C94	C	0.728629	0.378217	-0.378277
C95	C	1.061963	0.711550	-0.044944
C96	C	1.395296	1.044884	0.288389
C97	C	0.412528	0.378266	-0.378343
C98	C	0.745861	0.711599	-0.045009
C99	C	1.079195	1.044932	0.288324
C100	C	1.263365	0.378261	-0.378343
C101	C	1.596698	0.711595	-0.045010
C102	C	1.930032	1.044928	0.288324
C103	C	1.345679	0.378275	-0.378361
C104	C	1.679012	0.711608	-0.045027
C105	C	2.012346	1.044942	0.288306
C106	C	1.070295	0.173484	-0.378350
C107	C	1.403628	0.506818	-0.045017
C108	C	1.736962	0.840151	0.288317
C109	C	1.070334	0.086235	-0.378371
C110	C	1.403667	0.419568	-0.045037
C111	C	1.737001	0.752901	0.288296
C112	C	1.117574	0.710413	-0.328141
C113	C	1.450907	1.043747	0.005192
C114	C	1.784240	1.377080	0.338526
C115	C	1.117610	0.792394	-0.328161
C116	C	1.450943	1.125727	0.005172
C117	C	1.784276	1.459060	0.338506
C118	C	1.070237	0.833386	-0.378319
C119	C	1.403570	1.166719	-0.044986
C120	C	1.736903	1.500052	0.288347
C121	C	1.022830	0.792393	-0.428467
C122	C	1.356163	1.125726	-0.095133
C123	C	1.689497	1.459060	0.238200
C124	C	1.022798	0.710414	-0.428450
C125	C	1.356131	1.043747	-0.095117
C126	C	1.689465	1.377081	0.238217
C127	C	1.022898	0.963263	-0.428497
C128	C	1.356232	1.296596	-0.095163
C129	C	1.689565	1.629930	0.238170
C130	C	1.022929	1.045248	-0.428512
C131	C	1.356263	1.378581	-0.095179
C132	C	1.689596	1.711914	0.238154
C133	C	1.117710	1.045243	-0.328208
C134	C	1.451044	1.378576	0.005126
C135	C	1.784377	1.711909	0.338459
C136	C	1.117678	0.963264	-0.328191
C137	C	1.451012	1.296597	0.005142
C138	C	1.784345	1.629930	0.338476
C139	C	1.070270	0.922277	-0.378337
C140	C	1.403604	1.255610	-0.045004
C141	C	1.736937	1.588943	0.288329
C142	C	1.022927	0.327922	-0.711287
C143	C	1.356261	0.661256	-0.377953
C144	C	1.689594	0.994589	-0.044620
C145	C	1.022939	0.327904	-0.793267
C146	C	1.356273	0.661238	-0.459934
C147	C	1.689606	0.994571	-0.126601
C148	C	1.070285	0.378103	-0.834255
C149	C	1.403618	0.711436	-0.500922
C150	C	1.736951	1.044770	-0.167588
C151	C	1.117615	0.428328	-0.793258
C152	C	1.450949	0.761662	-0.459925
C153	C	1.784282	1.094995	-0.126591
C154	C	1.117599	0.428350	-0.711279
C155	C	1.450932	0.761683	-0.377946
C156	C	1.784266	1.095016	-0.044612
C157	C	1.117647	0.428279	-0.964128
C158	C	1.450981	0.761613	-0.630795
C159	C	1.784314	1.094946	-0.297461
C160	C	1.117665	0.428257	-1.046113
C161	C	1.450998	0.761591	-0.712779
C162	C	1.784332	1.094924	-0.379446
C163	C	1.022988	0.327834	-1.046116
C164	C	1.356321	0.661167	-0.712783
C165	C	1.689655	0.994501	-0.379450
C166	C	1.022971	0.327855	-0.964137
C167	C	1.356305	0.661189	-0.630804
C168	C	1.689638	0.994522	-0.297471
C169	C	1.070303	0.378080	-0.923146
C170	C	1.403637	0.711413	-0.589813
C171	C	1.736970	1.044746	-0.256479
C172	C	1.070209	0.378233	-0.174353
C173	C	1.403542	0.711566	0.158980
C174	C	1.736875	1.044899	0.492313
C175	C	1.070336	0.378037	-0.087104
C176	C	1.403670	0.711371	0.246229
C177	C	1.737003	1.044704	0.579563
H178	H	0.507125	0.255796	-0.331986
H179	H	0.840458	0.589129	0.001348
H180	H	1.173792	0.922463	0.334681
C181	C	0.500027	0.523937	-0.412134
C182	C	0.833361	0.857270	-0.078800
C183	C	1.166694	1.190603	0.254533
H184	H	0.541001	0.549780	-0.435375
H185	H	0.874334	0.883114	-0.102042
H186	H	1.207668	1.216447	0.231292
H187	H	0.470914	0.500186	-0.451850
H188	H	0.804247	0.833520	-0.118516
H189	H	1.137581	1.166853	0.214817
H190	H	0.470909	0.560924	-0.384269
H191	H	0.804243	0.894257	-0.050935
H192	H	1.137576	1.227591	0.282398
C193	C	0.641184	0.523913	-0.413208
C194	C	0.974518	0.857246	-0.079874
C195	C	1.307851	1.190579	0.253459
H196	H	0.671966	0.500288	-0.451608
H197	H	1.005300	0.833621	-0.118274
H198	H	1.338633	1.166954	0.215059
H199	H	0.600073	0.547894	-0.438093
H200	H	0.933406	0.881227	-0.104760
H201	H	1.266739	1.214561	0.228574
H202	H	0.668508	0.562416	-0.385404
H203	H	1.001842	0.895750	-0.052071
H204	H	1.335175	1.229083	0.281263
H205	H	0.507745	0.401623	-0.506398
H206	H	0.841078	0.734957	-0.173064
H207	H	1.174412	1.068290	0.160269
H208	H	0.984378	0.287040	-0.677920
H209	H	1.317711	0.620373	-0.344587
H210	H	1.651044	0.953707	-0.011254
H211	H	0.984368	1.078621	-0.469370
H212	H	1.317701	1.411954	-0.136037
H213	H	1.651034	1.745288	0.197296
C214	C	1.169686	0.665329	-0.272967
C215	C	1.503019	0.998663	0.060366
C216	C	1.836352	1.331996	0.393700
H217	H	1.197928	0.701484	-0.243113
H218	H	1.531262	1.034817	0.090220
H219	H	1.864595	1.368151	0.423553
H220	H	1.141368	0.633395	-0.238727
H221	H	1.474701	0.966728	0.094607
H222	H	1.808034	1.300062	0.427940
H223	H	1.201926	0.633304	-0.303029
H224	H	1.535259	0.966638	0.030304
H225	H	1.868592	1.299971	0.363637
C226	C	1.169748	0.483469	-1.091198
C227	C	1.503081	0.816802	-0.757865
C228	C	1.836414	1.150136	-0.424532
H229	H	1.197930	0.513389	-1.055046
H230	H	1.531263	0.846722	-0.721712
H231	H	1.864596	1.180056	-0.388379
H232	H	1.202034	0.453432	-1.123188
H233	H	1.535367	0.786765	-0.789854
H234	H	1.868700	1.120099	-0.456521
H235	H	1.141408	0.517658	-1.123168
H236	H	1.474741	0.850992	-0.789835
H237	H	1.808075	1.184325	-0.456502
C238	C	0.970901	0.272612	-1.091203
C239	C	1.304234	0.605946	-0.757870
C240	C	1.637568	0.939279	-0.424537
H241	H	0.977677	0.279801	-1.145897
H242	H	1.311011	0.613134	-0.812564
H243	H	1.644344	0.946467	-0.479230
H244	H	0.981743	0.219869	-1.077797
H245	H	1.315077	0.553203	-0.744464
H246	H	1.648410	0.886536	-0.411131
H247	H	0.921139	0.284118	-1.077741
H248	H	1.254472	0.617451	-0.744408
H249	H	1.587806	0.950785	-0.411074
C250	C	0.970654	0.665325	-0.483604
C251	C	1.303987	0.998658	-0.150271
C252	C	1.637321	1.331991	0.183062
H253	H	0.977425	0.610631	-0.476417
H254	H	1.310758	0.943964	-0.143084
H255	H	1.644091	1.277297	0.190250
H256	H	0.920907	0.678805	-0.472069
H257	H	1.254240	1.012138	-0.138736
H258	H	1.587573	1.345471	0.194597
H259	H	0.981474	0.678714	-0.536362
H260	H	1.314808	1.012048	-0.203029
H261	H	1.648141	1.345381	0.130304
C262	C	0.498848	0.277191	-0.489192
C263	C	0.832182	0.610524	-0.155859
C264	C	1.165515	0.943858	0.177474
H265	H	0.467125	0.255844	-0.450357
H266	H	0.800459	0.589177	-0.117024
H267	H	1.133792	0.922510	0.216309
H268	H	0.472195	0.283655	-0.536657
H269	H	0.805528	0.616989	-0.203324
H270	H	1.138861	0.950322	0.130009
H271	H	0.539247	0.242686	-0.497671
H272	H	0.872581	0.576020	-0.164338
H273	H	1.205914	0.909353	0.168996
C274	C	0.642588	0.485416	-0.274505
C275	C	0.975921	0.818750	0.058828
C276	C	1.309254	1.152083	0.392161
H277	H	0.673611	0.445370	-0.254277
H278	H	1.006944	0.778703	0.079056
H279	H	1.340278	1.112036	0.412390
H280	H	0.669939	0.532655	-0.279100
H281	H	1.003272	0.865989	0.054234
H282	H	1.336605	1.199322	0.387567
H283	H	0.602050	0.493321	-0.240045
H284	H	0.935383	0.826655	0.093288
H285	H	1.268716	1.159988	0.426622
H286	H	0.633983	0.294538	-0.478019
H287	H	0.967316	0.627871	-0.144686
H288	H	1.300649	0.961205	0.188648
H289	H	1.156161	0.469205	-0.826637
H290	H	1.489494	0.802538	-0.493303
H291	H	1.822827	1.135872	-0.159970
C292	C	0.641739	0.234628	-0.336838
C293	C	0.975072	0.567961	-0.003505
C294	C	1.308405	0.901294	0.329829
H295	H	0.600939	0.200571	-0.344831
H296	H	0.934273	0.533905	-0.011498
H297	H	1.267606	0.867238	0.321835
H298	H	0.671019	0.236326	-0.382979
H299	H	1.004352	0.569659	-0.049646
H300	H	1.337686	0.902993	0.283687
H301	H	0.670777	0.215871	-0.294484
H302	H	1.004111	0.549205	0.038850
H303	H	1.337444	0.882538	0.372183
C304	C	0.498603	0.335860	-0.235271
C305	C	0.831937	0.669193	0.098063
C306	C	1.165270	1.002526	0.431396
H307	H	0.467453	0.380592	-0.237364
H308	H	0.800786	0.713925	0.095970
H309	H	1.134119	1.047259	0.429303
H310	H	0.471350	0.292387	-0.216074
H311	H	0.804683	0.625720	0.117260
H312	H	1.138017	0.959054	0.450593
H313	H	0.539061	0.346068	-0.201355
H314	H	0.872395	0.679401	0.131979
H315	H	1.205728	1.012734	0.465312
C316	C	0.970722	0.837478	-0.483644
C317	C	1.304055	1.170812	-0.150311
C318	C	1.637388	1.504145	0.183023
H319	H	0.942490	0.801324	-0.513510
H320	H	1.275823	1.134658	-0.180177
H321	H	1.609156	1.467991	0.153157
H322	H	0.938483	0.869506	-0.453591
H323	H	1.271816	1.202840	-0.120258
H324	H	1.605150	1.536173	0.213076
H325	H	0.999050	0.869410	-0.517885
H326	H	1.332383	1.202743	-0.184552
H327	H	1.665716	1.536076	0.148782
C328	C	0.500985	0.484651	-0.273202
C329	C	0.834319	0.817984	0.060131
C330	C	1.167652	1.151318	0.393464
H331	H	0.542346	0.494542	-0.240431
H332	H	0.875679	0.827875	0.092902
H333	H	1.209013	1.161208	0.426235
H334	H	0.471751	0.530687	-0.277101
H335	H	0.805084	0.864020	0.056232
H336	H	1.138417	1.197354	0.389566
H337	H	0.472193	0.443563	-0.251436
H338	H	0.805527	0.776897	0.081898
H339	H	1.138860	1.110230	0.415231
H340	H	1.156314	1.078618	-0.287379
H341	H	1.489648	1.411952	0.045954
H342	H	1.822981	1.745285	0.379288
H343	H	1.156249	0.929888	-0.287344
H344	H	1.489582	1.263222	0.045989
H345	H	1.822916	1.596555	0.379322
H346	H	1.156197	0.469171	-0.930755
H347	H	1.489530	0.802504	-0.597422
H348	H	1.822863	1.135837	-0.264089
C349	C	0.970882	0.272658	-0.838355
C350	C	1.304216	0.605991	-0.505021
C351	C	1.637549	0.939325	-0.171688
H352	H	0.942691	0.242757	-0.802203
H353	H	1.276024	0.576090	-0.468869
H354	H	1.609357	0.909424	-0.135536
H355	H	0.938604	0.302666	-0.870320
H356	H	1.271937	0.636000	-0.536987
H357	H	1.605271	0.969333	-0.203653
H358	H	0.999241	0.238452	-0.870348
H359	H	1.332574	0.571785	-0.537015
H360	H	1.665908	0.905119	-0.203682
C361	C	1.169660	0.483591	-0.666188
C362	C	1.502993	0.816925	-0.332855
C363	C	1.836327	1.150258	0.000478
H364	H	1.197864	0.513481	-0.702339
H365	H	1.531197	0.846814	-0.369006
H366	H	1.864531	1.180148	-0.035672
H367	H	1.141307	0.517796	-0.634195
H368	H	1.474640	0.851129	-0.300861
H369	H	1.807974	1.184462	0.032472
H370	H	1.201939	0.453575	-0.634223
H371	H	1.535272	0.786909	-0.300889
H372	H	1.868605	1.120242	0.032444
H373	H	0.633779	0.331362	-0.256139
H374	H	0.967113	0.664695	0.077195
H375	H	1.300446	0.998028	0.410528
C376	C	0.642554	0.410996	-0.524979
C377	C	0.975887	0.744330	-0.191646
C378	C	1.309220	1.077663	0.141687
H379	H	0.674119	0.449042	-0.502012
H380	H	1.007452	0.782375	-0.168679
H381	H	1.340785	1.115708	0.164654
H382	H	0.669325	0.381800	-0.562913
H383	H	1.002659	0.715133	-0.229580
H384	H	1.335992	1.048466	0.103753
H385	H	0.602042	0.436474	-0.549489
H386	H	0.935375	0.769808	-0.216155
H387	H	1.268708	1.103141	0.117178
H388	H	1.156211	0.825762	-0.287330
H389	H	1.489544	1.159095	0.046003
H390	H	1.822878	1.492428	0.379337
H391	H	0.984296	0.929894	-0.469334
H392	H	1.317629	1.263227	-0.136001
H393	H	1.650963	1.596561	0.197333
H394	H	0.984422	0.286976	-0.930767
H395	H	1.317756	0.620309	-0.597434
H396	H	1.651089	0.953642	-0.264101
