data_functionalizedCrystal
_audit_creation_method	'MofGen! by Chris Wilmer'
_symmetry_space_group_name_H-M	'P1'
_symmetry_Int_Tables_number	1
_symmetry_cell_setting	triclinic
loop_
_symmetry_equiv_pos_as_xyz
  x,y,z
_cell_length_a	23.096457
_cell_length_b	23.096457
_cell_length_c	23.096457
_cell_angle_alpha	89.998020
_cell_angle_beta	59.998570
_cell_angle_gamma	60.004020
loop_
_atom_site_label
_atom_site_type_symbol
_atom_site_fract_x
_atom_site_fract_y
_atom_site_fract_z
Zr1	Zr	0.633720	0.557827	-0.075981
O2	O	0.754504	0.465390	-0.168424
O3	O	0.512938	0.586156	-0.047645
O4	O	0.633724	0.586166	-0.168433
O5	O	0.633714	0.465380	0.047647
O6	O	0.633726	0.681447	-0.168436
O7	O	0.633717	0.465379	-0.047636
O8	O	0.417661	0.681428	0.047631
O9	O	0.849779	0.465399	-0.168421
O10	O	0.562618	0.669355	-0.035559
O11	O	0.562614	0.598249	0.035552
O12	O	0.704824	0.598261	-0.106660
O13	O	0.704820	0.527155	-0.035549
Zr14	Zr	0.633717	0.709790	0.075979
Zr15	Zr	0.633723	0.709788	-0.075986
Zr16	Zr	0.633714	0.557829	0.075985
Zr17	Zr	0.785672	0.557842	-0.075975
Zr18	Zr	0.481764	0.709775	0.075974
O19	O	0.754499	0.681462	0.047643
O20	O	0.754507	0.681459	-0.168432
O21	O	0.754495	0.465393	0.047651
O22	O	0.512933	0.802228	0.168423
O23	O	0.512941	0.802225	-0.047653
O24	O	0.512929	0.586159	0.168431
O25	O	0.633723	0.802237	-0.047649
O26	O	0.633712	0.681451	0.168431
O27	O	0.633711	0.586171	0.168435
O28	O	0.633719	0.802239	0.047635
O29	O	0.849781	0.586188	-0.168425
O30	O	0.417656	0.681430	0.168424
O31	O	0.417658	0.802219	0.168419
O32	O	0.417663	0.802217	0.047627
O33	O	0.849774	0.465401	-0.047629
O34	O	0.849776	0.586190	-0.047633
O35	O	0.562612	0.669356	0.106658
O36	O	0.562616	0.740462	0.035547
O37	O	0.704823	0.669369	-0.035554
O38	O	0.704819	0.598263	0.035557
C39	C	0.443649	0.633790	-0.000008
C40	C	0.379142	0.633783	-0.000010
C41	C	0.296355	0.686275	0.052476
C42	C	0.235733	0.686280	0.052483
C43	C	0.257903	0.633798	-0.000007
C44	C	0.340704	0.581297	-0.052498
C45	C	0.401323	0.581290	-0.052499
N46	N	0.201795	0.617919	-0.062254
N47	N	0.144206	0.617930	-0.062250
C48	C	0.075264	0.633817	-0.000006
N49	N	0.066078	0.649705	0.062238
N50	N	0.123671	0.649697	0.062234
C51	C	0.192178	0.633800	-0.000012
C52	C	-0.073259	0.686317	0.052491
C53	C	-0.133880	0.686318	0.052498
C54	C	-0.028906	0.581337	-0.052488
C55	C	0.031712	0.581334	-0.052489
C56	C	0.009530	0.633828	-0.000000
C57	C	0.633715	0.443729	0.000006
C58	C	0.633714	0.379217	0.000009
C59	C	0.559486	0.386021	0.037116
C60	C	0.559485	0.325406	0.037119
C61	C	0.633716	0.257986	0.000001
C62	C	0.707954	0.251185	-0.037108
C63	C	0.707953	0.311800	-0.037104
N64	N	0.688971	0.135195	-0.060409
N65	N	0.688967	0.077616	-0.060412
C66	C	0.633723	0.075354	-0.000012
N67	N	0.578471	0.132852	0.060390
N68	N	0.578473	0.190438	0.060390
C69	C	0.633725	0.192255	-0.000007
C70	C	0.559489	0.016434	0.037102
C71	C	0.559491	-0.044184	0.037107
C72	C	0.707962	-0.118405	-0.037127
C73	C	0.707958	-0.057787	-0.037125
C74	C	0.633719	0.009630	-0.000012
C75	C	0.823787	0.633828	0.000006
C76	C	0.888295	0.633834	0.000008
C77	C	0.633726	0.633806	-0.190086
C78	C	0.633728	0.633805	-0.254600
C79	C	0.633721	0.823889	-0.000008
C80	C	0.633723	0.888401	-0.000010
C81	C	0.707938	0.596710	-0.752215
C82	C	0.707943	0.596703	-0.691602
C83	C	0.633713	0.633814	-0.624175
C84	C	0.559474	0.670918	-0.617364
C85	C	0.559471	0.670917	-0.677977
N86	N	0.578463	0.694214	-0.501380
N87	N	0.578471	0.694214	-0.443802
C88	C	0.633717	0.633817	-0.441547
N89	N	0.688967	0.573422	-0.499052
N90	N	0.688962	0.573424	-0.556636
C91	C	0.633708	0.633818	-0.558445
C92	C	0.707957	0.596704	-0.382639
C93	C	0.707959	0.596696	-0.322023
C94	C	0.559487	0.670917	-0.247785
C95	C	0.559488	0.670919	-0.308401
C96	C	0.633725	0.633814	-0.375826
C97	C	0.633711	0.633811	0.190085
C98	C	0.633708	0.633812	0.254598
C99	C	0.443652	0.823870	-0.000014
C100	C	0.379146	0.888375	-0.000019
C101	C	0.443642	0.633792	0.190078
C102	C	0.379131	0.633787	0.254589
C103	C	0.443645	0.823873	0.190071
C104	C	0.379136	0.888379	0.254580
C105	C	0.823792	0.443745	-0.190073
C106	C	0.888301	0.379239	-0.254582
C107	C	0.823784	0.443748	0.000013
C108	C	0.888291	0.379243	0.000018
C109	C	0.823795	0.633825	-0.190080
C110	C	0.888305	0.633831	-0.254591
C111	C	0.348854	0.881550	-0.037144
C112	C	0.288251	0.942153	-0.037163
C113	C	0.257938	1.009582	-0.000052
C114	C	0.288236	1.016405	0.037075
C115	C	0.348842	0.955802	0.037089
C116	C	0.348836	0.670902	0.322007
C117	C	0.288230	0.670894	0.382628
C118	C	0.257917	0.633775	0.375829
C119	C	0.288218	0.596655	0.308404
C120	C	0.348827	0.596659	0.247785
C121	C	0.348844	0.955794	0.247755
C122	C	0.288239	1.016410	0.308361
C123	C	0.257923	1.009609	0.375793
C124	C	0.288221	0.942186	0.382617
C125	C	0.348829	0.881572	0.322011
C126	C	0.918600	0.311824	-0.247756
C127	C	0.979224	0.251208	-0.308363
C128	C	1.009543	0.258009	-0.375795
C129	C	0.979241	0.325431	-0.382619
C130	C	0.918622	0.386046	-0.322012
C131	C	0.918589	0.386068	0.037136
C132	C	0.979208	0.325464	0.037138
C133	C	1.009524	0.258036	0.000025
C134	C	0.979223	0.251212	-0.037099
C135	C	0.918609	0.311815	-0.037104
C136	C	0.918599	0.670957	-0.247769
C137	C	0.979205	0.670976	-0.308378
C138	C	1.009520	0.633865	-0.375809
C139	C	0.979220	0.596737	-0.382629
C140	C	0.918611	0.596723	-0.322020
H141	H	-0.091321	0.729058	0.095234
Cl142	Cl	0.880542	0.550037	-0.330608
H143	H	1.003915	0.196304	-0.067315
Cl144	Cl	1.017302	0.166457	-0.299768
H145	H	-0.201291	0.729062	0.095242
H146	H	0.499036	0.701132	-0.562461
H147	H	0.499039	0.071329	0.067337
Cl148	Cl	0.386929	0.717573	0.330573
H149	H	0.208572	1.058971	0.425137
Cl150	Cl	0.386953	0.796790	-0.083808
Cl151	Cl	0.801285	0.550030	-0.330592
H152	H	0.358751	0.538565	-0.095235
Cl153	Cl	0.505405	0.515294	-0.118487
H154	H	0.893942	0.306248	-0.067329
Cl155	Cl	0.250171	0.933559	-0.083836
H156	H	0.373518	0.961345	0.192854
Cl157	Cl	0.801265	0.550057	-0.836974
Cl158	Cl	0.181745	1.085762	-0.000075
Cl159	Cl	1.085719	0.633887	-0.451996
H160	H	1.058902	0.208647	-0.425139
H161	H	0.768400	0.306254	-0.067320
H162	H	0.893953	0.440937	-0.327578
H163	H	0.893926	0.701178	-0.192870
Cl164	Cl	0.250100	0.549996	0.299869
H165	H	0.263576	1.071303	0.302793
Cl166	Cl	0.466166	-0.035626	0.083769
H167	H	0.373486	0.566438	0.192892
H168	H	0.499035	0.440911	0.067331
Cl169	Cl	0.466145	0.717565	-0.669410
Cl170	Cl	0.466169	0.717565	-0.163025
H171	H	1.003869	0.331034	0.067371
H172	H	0.893918	0.306272	-0.192855
Cl173	Cl	1.017289	0.717650	-0.299788
Cl174	Cl	1.017348	0.550078	-0.467404
H175	H	0.278287	0.729019	0.095217
Cl176	Cl	0.181721	0.633778	0.452045
H177	H	0.263566	0.701123	0.437523
Cl178	Cl	0.386910	0.964395	0.083771
Cl179	Cl	0.131646	0.752277	0.118468
H180	H	-0.010854	0.538604	-0.095226
Cl181	Cl	0.250116	1.101178	0.083729
Cl182	Cl	1.017362	0.333969	-0.467396
H183	H	0.099122	0.538593	-0.095232
H184	H	0.263529	0.936659	0.437528
Cl185	Cl	0.466162	0.333955	0.083768
H186	H	0.768405	0.566487	-0.437540
Cl187	Cl	0.386898	0.796823	0.330604
H188	H	1.058879	0.208695	0.000035
Cl189	Cl	0.801273	0.166430	-0.083767
H190	H	0.499042	0.701135	-0.302850
Cl191	Cl	0.880495	0.470827	0.083795
Cl192	Cl	0.801282	-0.203156	-0.083784
H193	H	0.768392	0.566487	-0.697150
Cl194	Cl	0.801279	-0.066341	-0.083781
