data_functionalizedCrystal
_audit_creation_method	'MofGen! by Chris Wilmer'
_symmetry_space_group_name_H-M	'P1'
_symmetry_Int_Tables_number	1
_symmetry_cell_setting	triclinic
loop_
_symmetry_equiv_pos_as_xyz
  x,y,z
_cell_length_a	10.654550
_cell_length_b	14.971482
_cell_length_c	13.448316
_cell_angle_alpha	89.993798
_cell_angle_beta	89.994587
_cell_angle_gamma	84.048756
loop_
_atom_site_label
_atom_site_type_symbol
_atom_site_fract_x
_atom_site_fract_y
_atom_site_fract_z
O1	O	0.163637	1.187840	-0.082676
O2	O	0.183240	0.927546	-0.082681
O3	O	-0.009365	1.063678	-0.082675
O4	O	0.356242	1.051708	-0.082682
O5	O	-0.009377	1.063660	0.082709
O6	O	0.183228	0.927529	0.082703
O7	O	0.163625	1.187823	0.082707
Cu8	Cu	0.173426	1.057674	0.097806
Cu9	Cu	0.173440	1.057694	-0.097780
O10	O	0.356230	1.051691	0.082701
C11	C	0.182359	0.894208	0.000010
C12	C	0.179734	0.794896	0.000009
C13	C	0.178491	0.748235	0.090160
C14	C	0.176005	0.654923	0.090162
C15	C	0.174770	0.608273	0.000010
C16	C	0.176009	0.654941	-0.090149
C17	C	0.178487	0.748252	-0.090149
C18	C	0.170849	0.460451	-0.090142
C19	C	0.168374	0.367133	-0.090143
C20	C	0.168367	0.367122	0.090168
C21	C	0.170845	0.460433	0.090168
C22	C	0.172086	0.507094	0.000009
C23	C	-0.056159	1.062790	0.000016
C24	C	-0.195574	1.060161	0.000012
C25	C	-0.275921	1.140313	0.000017
C26	C	-0.406916	1.137837	0.000010
C27	C	-0.377203	0.975050	-0.000002
C28	C	-0.246211	0.977526	-0.000002
C29	C	-0.225285	1.222947	0.000031
C30	C	-0.305633	1.303106	0.000037
C31	C	-0.436627	1.300630	0.000030
C32	C	-0.487273	1.217995	0.000017
C33	C	0.403025	1.052578	0.000008
C34	C	0.542440	1.055208	0.000005
C35	C	0.164507	1.221161	0.000014
C36	C	0.167132	1.320472	0.000009
N37	N	0.173415	1.057666	0.235370
N38	N	0.173440	1.057709	-0.235344
C39	C	0.088165	1.117964	0.287413
C40	C	0.088163	1.117970	0.391517
C41	C	0.173420	1.057681	0.443575
C42	C	0.258674	0.997376	0.391525
C43	C	0.258669	0.997367	0.287423
C44	C	0.258683	0.997401	0.608505
C45	C	0.258691	0.997411	0.712613
C46	C	0.088178	1.118004	0.712598
C47	C	0.088172	1.117995	0.608497
C48	C	0.173428	1.057691	0.556454
H49	H	0.171860	0.498439	-0.163560
H50	H	0.328088	0.948283	0.433916
C51	C	0.172204	0.511747	0.189340
N52	N	0.173224	0.550396	0.264037
H53	H	-0.118624	1.224972	0.000040
C54	C	0.179856	0.799578	-0.189323
N55	N	0.180885	0.838236	-0.264024
H56	H	0.167370	0.329153	-0.163552
H57	H	0.328087	0.948265	0.245051
H58	H	-0.264388	1.370384	0.000022
C59	C	-0.525007	1.388805	0.000036
N60	N	-0.591572	1.455221	0.000048
C61	C	0.179848	0.799542	0.189336
N62	N	0.180864	0.838184	0.264039
C63	C	0.166993	0.315794	0.189344
N64	N	0.165961	0.277130	0.264041
H65	H	-0.418450	0.907772	-0.000011
H66	H	0.174995	0.616951	-0.163552
C67	C	-0.157825	0.889355	0.000001
N68	N	-0.091251	0.822942	0.000002
H69	H	0.018744	1.167062	0.245034
C70	C	-0.005649	1.184281	0.448759
N71	N	-0.076325	1.234221	0.491874
C72	C	-0.631372	1.215276	0.000004
N73	N	-0.739907	1.213230	-0.000002
C74	C	-0.005610	1.184335	0.769847
N75	N	-0.076246	1.234296	0.812972
C76	C	0.352470	0.931085	0.769875
N77	N	0.423104	0.881126	0.813005
H78	H	0.018756	1.167091	0.566111
H79	H	0.328104	0.948292	0.566135
H80	H	0.174972	0.616938	0.163572
