data_functionalizedCrystal
_audit_creation_method	'MofGen! by Chris Wilmer'
_symmetry_space_group_name_H-M	'P1'
_symmetry_Int_Tables_number	1
_symmetry_cell_setting	triclinic
loop_
_symmetry_equiv_pos_as_xyz
  x,y,z
_cell_length_a	27.732064
_cell_length_b	27.732048
_cell_length_c	9.198806
_cell_angle_alpha	89.991879
_cell_angle_beta	90.003704
_cell_angle_gamma	82.646040
loop_
_atom_site_label
_atom_site_type_symbol
_atom_site_fract_x
_atom_site_fract_y
_atom_site_fract_z
O1	O	0.640922	0.057554	-0.120649
O2	O	0.500129	0.066291	-0.120711
O3	O	0.574898	-0.008474	-0.120650
O4	O	0.566153	0.132319	-0.120709
O5	O	0.574892	-0.008474	0.121135
O6	O	0.500123	0.066291	0.121074
O7	O	0.640916	0.057554	0.121136
Cu8	Cu	0.570519	0.061923	0.143182
Cu9	Cu	0.570526	0.061923	-0.142756
O10	O	0.566147	0.132319	0.121076
C11	C	0.482120	0.066106	0.000174
C12	C	0.428465	0.065551	0.000152
C13	C	0.051392	0.017583	0.000255
C14	C	0.253053	0.019630	0.000216
O15	O	0.284305	-0.017591	0.000286
N16	N	0.272180	0.063964	0.000191
C17	C	0.240889	0.107790	0.000185
O18	O	0.261785	0.145546	0.000178
C19	C	0.039230	0.105743	0.000234
C20	C	0.020105	0.061406	0.000245
C21	C	0.032267	-0.026750	0.000267
C22	C	-0.018145	-0.027261	0.000269
C23	C	-0.049432	0.016561	0.000258
C24	C	-0.030307	0.060895	0.000246
C25	C	0.007940	0.149568	0.000239
C26	C	-0.042478	0.149053	0.000255
C27	C	-0.061602	0.104716	0.000265
C28	C	-0.112006	0.104206	0.000238
N29	N	-0.131134	0.059872	0.000263
C30	C	-0.099846	0.016049	0.000273
C31	C	0.346763	0.108861	0.000157
C32	C	0.397178	0.109373	0.000142
C33	C	0.409338	0.021213	0.000175
C34	C	0.358923	0.020701	0.000180
C35	C	0.327636	0.064527	0.000182
C36	C	-0.205716	0.014979	0.000276
C37	C	-0.256133	0.014472	0.000271
C38	C	-0.268289	0.102632	0.000245
C39	C	-0.217876	0.103140	0.000242
C40	C	-0.186590	0.059309	0.000262
O41	O	-0.143287	0.141407	0.000184
O42	O	-0.120752	-0.021701	0.000313
C43	C	0.101805	0.018094	0.000253
C44	C	0.120930	0.062428	0.000241
C45	C	0.089642	0.106250	0.000231
C46	C	0.171344	0.062940	0.000226
C47	C	0.202631	0.019117	0.000237
C48	C	0.183504	-0.025217	0.000262
C49	C	0.133092	-0.025728	0.000263
C50	C	0.108770	0.150585	0.000206
C51	C	0.159183	0.151092	0.000202
C52	C	0.190470	0.107270	0.000213
C53	C	0.574712	-0.026481	0.000246
C54	C	0.574159	-0.080136	0.000258
C55	C	0.614862	-0.418948	0.000201
C56	C	0.612811	-0.620608	0.000180
O57	O	0.650032	-0.651862	0.000133
N58	N	0.568476	-0.639735	0.000162
C59	C	0.524651	-0.608442	0.000140
O60	O	0.486895	-0.629338	0.000109
C61	C	0.526703	-0.406784	0.000151
C62	C	0.571040	-0.387660	0.000183
C63	C	0.659196	-0.399824	0.000233
C64	C	0.659709	-0.349412	0.000246
C65	C	0.615887	-0.318124	0.000228
C66	C	0.571553	-0.337248	0.000197
C67	C	0.482878	-0.375493	0.000118
C68	C	0.483395	-0.325075	0.000117
C69	C	0.527733	-0.305952	0.000150
C70	C	0.528243	-0.255548	0.000192
N71	N	0.572578	-0.236422	0.000210
C72	C	0.616400	-0.267710	0.000228
C73	C	0.523577	-0.714317	0.000137
C74	C	0.523064	-0.764731	0.000137
C75	C	0.611225	-0.776893	0.000175
C76	C	0.611737	-0.726478	0.000185
C77	C	0.567912	-0.695190	0.000155
C78	C	0.617472	-0.161841	0.000257
C79	C	0.617981	-0.111424	0.000276
C80	C	0.529821	-0.099266	0.000231
C81	C	0.529312	-0.149679	0.000219
C82	C	0.573142	-0.180965	0.000227
O83	O	0.491043	-0.224267	0.000223
O84	O	0.654151	-0.246805	0.000227
C85	C	0.614350	-0.469360	0.000188
C86	C	0.570016	-0.488484	0.000157
C87	C	0.526194	-0.457196	0.000139
C88	C	0.569503	-0.538899	0.000157
C89	C	0.613325	-0.570187	0.000175
C90	C	0.657660	-0.551060	0.000193
C91	C	0.658172	-0.500648	0.000206
C92	C	0.481859	-0.476323	0.000121
C93	C	0.481351	-0.526735	0.000109
C94	C	0.525172	-0.558023	0.000127
C95	C	0.658925	0.057739	0.000248
C96	C	0.712580	0.058295	0.000261
C97	C	0.566333	0.150326	0.000176
C98	C	0.566886	0.203981	0.000155
N99	N	0.570518	0.061922	0.344296
N100	N	0.570531	0.061919	-0.343870
C101	C	0.601913	0.030394	0.416519
C102	C	0.601921	0.030392	0.583931
H103	H	-0.033711	-0.063365	0.000283
Cl104	Cl	0.448680	-0.033878	0.000188
Cl105	Cl	0.667478	-0.702443	0.000225
Cl106	Cl	0.421214	0.165113	0.000099
Cl107	Cl	0.666315	-0.816236	0.000190
H108	H	0.628785	0.003401	0.354415
Cl109	Cl	0.529031	0.103599	0.560255
Cl110	Cl	0.071592	-0.081849	0.000281
Cl111	Cl	0.334886	-0.035039	0.000201
Cl112	Cl	0.529023	0.103594	0.440174
H113	H	0.321293	0.144551	0.000156
Cl114	Cl	0.031969	0.205310	0.000227
Cl115	Cl	0.467323	-0.788765	0.000123
H116	H	-0.067950	0.184742	0.000263
Cl117	Cl	0.473573	-0.173720	0.000205
Cl118	Cl	-0.280172	-0.041270	0.000275
H119	H	0.174748	0.187200	0.000184
Cl120	Cl	0.713914	-0.476616	0.000235
Cl121	Cl	0.712749	-0.590404	0.000222
H122	H	0.446774	-0.391054	0.000082
H123	H	-0.202304	0.139243	0.000232
H124	H	0.628801	0.003402	0.646039
Cl125	Cl	-0.166393	-0.040122	0.000297
Cl126	Cl	0.109057	-0.081469	0.000271
H127	H	0.208987	-0.060899	0.000262
Cl128	Cl	0.069444	0.205682	0.000185
Cl129	Cl	0.673724	-0.087387	0.000315
H130	H	0.653163	-0.187309	0.000258
Cl131	Cl	0.715451	-0.325380	0.000246
H132	H	0.445243	-0.542300	0.000095
H133	H	-0.293772	0.138311	0.000230
Cl134	Cl	0.714295	-0.439150	0.000258
Cl135	Cl	0.468477	-0.674990	0.000101
H136	H	0.447706	-0.299603	0.000090
H137	H	0.494142	-0.073782	0.000221
Cl138	Cl	0.426763	-0.436996	0.000095
