data_functionalizedCrystal
_audit_creation_method	'MofGen! by Chris Wilmer'
_symmetry_space_group_name_H-M	'P1'
_symmetry_Int_Tables_number	1
_symmetry_cell_setting	triclinic
loop_
_symmetry_equiv_pos_as_xyz
  x,y,z
_cell_length_a	14.048226
_cell_length_b	14.971475
_cell_length_c	14.971494
_cell_angle_alpha	96.386382
_cell_angle_beta	89.995286
_cell_angle_gamma	90.005580
loop_
_atom_site_label
_atom_site_type_symbol
_atom_site_fract_x
_atom_site_fract_y
_atom_site_fract_z
O1	O	-0.079137	-1.186957	0.116518
O2	O	-0.079143	-0.926555	0.130487
O3	O	-0.079138	-1.063732	-0.006698
O4	O	-0.079143	-1.049781	0.253702
O5	O	0.079183	-1.063715	-0.006706
O6	O	0.079178	-0.926539	0.130479
O7	O	0.079184	-1.186940	0.116510
Zn8	Zn	0.104318	-1.056737	0.123493
Zn9	Zn	-0.104277	-1.056759	0.123504
O10	O	0.079179	-1.049764	0.253694
C11	C	0.000017	-0.893222	0.129860
C12	C	0.000014	-0.793925	0.127993
C13	C	0.000021	-1.063098	-0.040026
C14	C	0.000017	-1.061224	-0.139323
N15	N	0.246679	-1.056729	0.123485
N16	N	-0.246638	-1.056774	0.123504
C17	C	0.296499	-1.117489	0.062765
C18	C	0.396157	-1.117495	0.062764
C19	C	0.445992	-1.056744	0.123489
C20	C	0.396165	-0.995977	0.184212
C21	C	0.296509	-0.995967	0.184207
C22	C	0.603879	-0.996003	0.184218
C23	C	0.703542	-0.996013	0.184224
C24	C	0.703527	-1.117531	0.062775
C25	C	0.603871	-1.117521	0.062771
C26	C	0.554050	-1.056755	0.123495
C27	C	0.086316	-0.747271	0.127109
C28	C	0.086317	-0.653972	0.125341
C29	C	0.000014	-0.607328	0.124462
C30	C	-0.086294	-0.653989	0.125344
C31	C	-0.086293	-0.747287	0.127106
C32	C	-0.086289	-0.459526	0.121673
C33	C	-0.086290	-0.366221	0.119913
C34	C	0.086321	-0.366211	0.119909
C35	C	0.086322	-0.459509	0.121670
C36	C	0.000013	-0.506163	0.122553
C37	C	0.000020	-0.220272	0.117143
C38	C	0.000012	-0.319567	0.119029
C39	C	-0.086285	-1.060355	-0.185963
C40	C	-0.086287	-1.058589	-0.279262
C41	C	0.000015	-1.057698	-0.325920
C42	C	0.086324	-1.058565	-0.279273
C43	C	0.086324	-1.060325	-0.185975
C44	C	0.086318	-1.054899	-0.473736
C45	C	0.086318	-1.053140	-0.567041
C46	C	-0.086293	-1.053163	-0.567023
C47	C	-0.086293	-1.054923	-0.473725
C48	C	0.000016	-1.055791	-0.427085
C49	C	0.000017	-1.050397	0.287023
C50	C	0.000016	-1.052271	0.386319
H51	H	0.255929	-1.166963	0.013320
H52	H	0.156597	-0.328221	0.119190
H53	H	-0.156571	-0.497509	0.122392
Cl54	Cl	0.458790	-1.193880	-0.013572
H55	H	0.156592	-0.615993	0.124606
Cl56	Cl	0.541252	-0.919607	0.260558
Cl57	Cl	0.194818	-0.518145	0.122784
H58	H	-0.156562	-1.057885	-0.317233
H59	H	0.563295	-1.166993	0.013329
H60	H	-0.156563	-0.616004	0.124622
H61	H	0.436747	-0.946508	0.233652
Cl62	Cl	0.233879	-0.919576	0.260542
H63	H	0.156593	-1.057834	-0.317268
Cl64	Cl	-0.194786	-0.307584	0.118806
H65	H	0.156594	-0.785241	0.127832
H66	H	0.744096	-1.167008	0.013332
Cl67	Cl	-0.194792	-0.805938	0.128212
H68	H	-0.156563	-1.061085	-0.147982
H69	H	-0.156568	-1.055655	-0.435740
Cl70	Cl	-0.194796	-1.052064	-0.625655
H71	H	0.156600	-1.055586	-0.435761
Cl72	Cl	0.194813	-1.052022	-0.625695
H73	H	0.156600	-1.061020	-0.148000
Cl74	Cl	0.766185	-0.919635	0.260566
