data_functionalizedCrystal
_audit_creation_method	'MofGen! by Chris Wilmer'
_symmetry_space_group_name_H-M	'P1'
_symmetry_Int_Tables_number	1
_symmetry_cell_setting	triclinic
loop_
_symmetry_equiv_pos_as_xyz
  x,y,z
_cell_length_a	19.077399
_cell_length_b	12.645330
_cell_length_c	19.076919
_cell_angle_alpha	92.274320
_cell_angle_beta	94.479523
_cell_angle_gamma	92.312055
loop_
_atom_site_label
_atom_site_type_symbol
_atom_site_fract_x
_atom_site_fract_y
_atom_site_fract_z
Zn1	Zn	1.061728	-0.379329	-0.355402
Zn2	Zn	1.561728	0.120671	0.144598
Zn3	Zn	1.066406	-0.549192	-0.237526
Zn4	Zn	1.566406	-0.049192	0.262474
Zn5	Zn	0.948583	-0.379358	-0.242257
Zn6	Zn	1.448583	0.120642	0.257743
Zn7	Zn	0.943836	-0.563968	-0.360095
Zn8	Zn	1.443836	-0.063968	0.139905
O9	O	1.005138	-0.467962	-0.298820
O10	O	1.505138	0.032038	0.201180
O11	O	1.160996	-0.395666	-0.335822
O12	O	1.660996	0.104334	0.164178
O13	O	1.054721	-0.520491	-0.139506
O14	O	1.554721	-0.020491	0.360494
O15	O	0.963620	-0.231006	-0.257282
O16	O	1.463620	0.268994	0.242718
O17	O	1.164433	-0.520463	-0.249219
O18	O	1.664433	-0.020463	0.250781
O19	O	1.046748	-0.230985	-0.340409
O20	O	1.546748	0.269015	0.159591
O21	O	0.968156	-0.395715	-0.142982
O22	O	1.468156	0.104285	0.357018
O23	O	0.849306	-0.410043	-0.261832
O24	O	1.349306	0.089957	0.238168
O25	O	0.955531	-0.545647	-0.458120
O26	O	1.455531	-0.045647	0.041880
O27	O	0.845819	-0.545675	-0.348407
O28	O	1.345819	-0.045675	0.151593
O29	O	1.042145	-0.409994	-0.454672
O30	O	1.542145	0.090006	0.045328
O31	O	1.050118	-0.699500	-0.253769
O32	O	1.550118	-0.199500	0.246231
O33	O	0.960067	-0.710356	-0.343820
O34	O	1.460067	-0.210356	0.156180
C35	C	0.821984	-0.479466	-0.306142
C36	C	1.321984	0.020534	0.193858
C37	C	0.743629	-0.484415	-0.309292
C38	C	1.243629	0.015585	0.190708
C39	C	1.005104	-0.743393	-0.298805
C40	C	1.505104	-0.243393	0.201195
C41	C	1.005152	-0.861221	-0.298819
C42	C	1.505152	-0.361221	0.201181
C43	C	0.708610	-0.416025	-0.265770
C44	C	1.208610	0.083975	0.234230
C45	C	0.634987	-0.420684	-0.268729
C46	C	1.134987	0.079316	0.231271
C47	C	0.596385	-0.493727	-0.315213
C48	C	1.096385	0.006273	0.184787
C49	C	0.631409	-0.562124	-0.358737
C50	C	1.131409	-0.062124	0.141263
C51	C	0.705031	-0.557470	-0.355774
C52	C	1.205031	-0.057470	0.144226
C53	C	0.376008	-0.515234	-0.328897
C54	C	0.876008	-0.015234	0.171103
C55	C	0.302381	-0.519881	-0.331858
C56	C	0.802381	-0.019881	0.168142
C57	C	0.305964	-0.378442	-0.241850
C58	C	0.805964	0.121558	0.258150
C59	C	0.379587	-0.373790	-0.238894
C60	C	0.879587	0.126210	0.261106
C61	C	0.414605	-0.442190	-0.282414
C62	C	0.914605	0.057810	0.217586
N63	N	0.521130	-0.498489	-0.318241
N64	N	1.021130	0.001511	0.181759
N65	N	0.489858	-0.437433	-0.279383
N66	N	0.989858	0.062567	0.220617
C67	C	1.061721	-1.021910	-0.242061
C68	C	1.561721	-0.521910	0.257939
C69	C	1.061892	-0.899347	-0.242188
C70	C	1.561892	-0.399347	0.257812
C71	C	1.022309	-0.909018	-0.372320
C72	C	1.522309	-0.409018	0.127680
C73	C	1.022752	-1.031571	-0.372013
C74	C	1.522752	-0.531571	0.127987
C75	C	0.931376	-1.032042	-0.282810
C76	C	1.431376	-0.532042	0.217190
C77	C	0.931801	-0.909310	-0.281129
C78	C	1.431801	-0.409310	0.218871
C79	C	1.189008	-0.456413	-0.291469
C80	C	1.689008	0.043587	0.208531
C81	C	1.267362	-0.451492	-0.288337
C82	C	1.767362	0.048508	0.211663
C83	C	0.997787	-0.479466	-0.482689
C84	C	1.497787	0.020534	0.017311
C85	C	0.994654	-0.484368	-0.561043
C86	C	1.494654	0.015632	-0.061043
C87	C	1.005192	-0.191455	-0.298850
C88	C	1.505192	0.308545	0.201150
C89	C	1.005214	-0.073625	-0.298863
C90	C	1.505214	0.426375	0.201137
C91	C	1.038275	-0.416047	-0.596061
C92	C	1.538275	0.083953	-0.096061
C93	C	1.035323	-0.420649	-0.669683
C94	C	1.535323	0.079351	-0.169683
C95	C	0.988753	-0.493579	-0.708287
C96	C	1.488753	0.006421	-0.208287
C97	C	0.945127	-0.561903	-0.673264
C98	C	1.445127	-0.061903	-0.173264
C99	C	0.948076	-0.557294	-0.599643
C100	C	1.448076	-0.057294	-0.099643
C101	C	0.975094	-0.514930	-0.928662
C102	C	1.475094	-0.014930	-0.428662
C103	C	0.972150	-0.519536	-1.002288
C104	C	1.472150	-0.019536	-0.502288
C105	C	1.062346	-0.378280	-0.998701
C106	C	1.562346	0.121720	-0.498701
C107	C	1.065294	-0.373682	-0.925079
C108	C	1.565294	0.126318	-0.425079
C109	C	1.021665	-0.442003	-0.890063
C110	C	1.521665	0.057997	-0.390063
N111	N	0.985736	-0.498287	-0.783540
N112	N	1.485736	0.001713	-0.283540
N113	N	1.024679	-0.437288	-0.814811
N114	N	1.524679	0.062712	-0.314811
C115	C	1.012502	-0.456424	-0.115664
C116	C	1.512502	0.043576	0.384336
C117	C	1.015771	-0.451215	-0.037305
C118	C	1.515771	0.048785	0.462695
H119	H	0.740034	-0.356537	-0.227923
H120	H	1.240034	0.143463	0.272077
H121	H	1.116180	-1.049966	-0.252313
H122	H	1.616180	-0.549966	0.247687
N123	N	1.090349	-1.064301	-0.389508
N124	N	1.590349	-0.564301	0.110492
N125	N	1.136871	-0.996649	-0.401857
N126	N	1.636871	-0.496649	0.098143
H127	H	1.184614	-1.019759	-0.414213
H128	H	1.684614	-0.519759	0.085787
N129	N	0.411767	-0.585114	-0.373346
N130	N	0.911767	-0.085114	0.126654
N131	N	0.403723	-0.683141	-0.368885
N132	N	0.903723	-0.183141	0.131115
H133	H	0.428979	-0.732500	-0.400279
H134	H	0.928979	-0.232500	0.099721
N135	N	0.591980	-0.636723	-0.406230
N136	N	1.091980	-0.136723	0.093770
N137	N	0.597621	-0.633389	-0.470954
N138	N	1.097621	-0.133389	0.029046
H139	H	0.569776	-0.686073	-0.504499
H140	H	1.069776	-0.186073	-0.004499
H141	H	0.907205	-0.621280	-0.704701
H142	H	1.407205	-0.121280	-0.204701
H143	H	1.070846	-0.365017	-0.698190
H144	H	1.570846	0.134983	-0.198190
H145	H	0.915197	-1.060848	-0.230302
H146	H	1.415197	-0.560848	0.269698
H147	H	0.277444	-0.322756	-0.206417
H148	H	0.777444	0.177244	0.293583
N149	N	0.930526	-0.584702	-0.892895
N150	N	1.430526	-0.084702	-0.392895
N151	N	0.887254	-0.547646	-0.853619
N152	N	1.387254	-0.047646	-0.353619
H153	H	0.855773	-0.596923	-0.828356
H154	H	1.355773	-0.096923	-0.328356
N155	N	0.740803	-0.627311	-0.400242
N156	N	1.240803	-0.127311	0.099758
N157	N	0.780099	-0.590334	-0.443553
N158	N	1.280099	-0.090334	0.056447
H159	H	0.805363	-0.639664	-0.474959
H160	H	1.305363	-0.139664	0.025041
H161	H	0.912547	-0.612919	-0.571134
H162	H	1.412547	-0.112919	-0.071134
H163	H	0.934224	-0.578927	-1.033717
H164	H	1.434224	-0.078927	-0.533717
N165	N	1.048856	-0.858356	-0.173700
N166	N	1.548856	-0.358356	0.326300
N167	N	1.039569	-0.920280	-0.125473
N168	N	1.539569	-0.420280	0.374527
H169	H	1.030364	-0.891336	-0.077100
H170	H	1.530364	-0.391336	0.422900
N171	N	0.419027	-0.299193	-0.191408
N172	N	0.919027	0.200807	0.308592
N173	N	0.484759	-0.295049	-0.188769
N174	N	0.984759	0.204951	0.311231
H175	H	0.512615	-0.242362	-0.155234
H176	H	1.012615	0.257638	0.344766
H177	H	1.051497	-1.048763	-0.187300
H178	H	1.551497	-0.548763	0.312700
H179	H	1.103218	-0.314298	-0.893653
H180	H	1.603218	0.185702	-0.393653
H181	H	1.076200	-0.356662	-0.564634
H182	H	1.576200	0.143338	-0.064634
N183	N	1.130578	-0.859095	-0.255209
N184	N	1.630578	-0.359095	0.244791
N185	N	1.178536	-0.921544	-0.264237
N186	N	1.678536	-0.421544	0.235763
H187	H	1.227049	-0.893118	-0.273435
H188	H	1.727049	-0.393118	0.226565
H189	H	0.887670	-0.883703	-0.319707
H190	H	1.387670	-0.383703	0.180293
H191	H	0.270953	-0.579362	-0.369716
H192	H	0.770953	-0.079362	0.130284
H193	H	0.918810	-0.877823	-0.227053
H194	H	1.418810	-0.377823	0.272947
H195	H	0.889311	-1.066103	-0.324217
H196	H	1.389311	-0.566103	0.175783
N197	N	0.973178	-1.075107	-0.426727
N198	N	1.473178	-0.575107	0.073273
N199	N	0.993425	-1.133328	-0.474956
N200	N	1.493425	-0.633328	0.025044
H201	H	0.958418	-1.164070	-0.513603
H202	H	1.458418	-0.664070	-0.013603
H203	H	0.982276	-0.884920	-0.415647
H204	H	1.482276	-0.384920	0.084353
N205	N	0.599227	-0.350825	-0.224263
N206	N	1.099227	0.149175	0.275737
N207	N	0.633701	-0.285612	-0.182763
N208	N	1.133701	0.214388	0.317237
H209	H	0.608447	-0.236273	-0.151354
H210	H	1.108447	0.263727	0.348646
N211	N	1.089118	-0.867427	-0.390178
N212	N	1.589118	-0.367427	0.109822
N213	N	1.124206	-0.802598	-0.348898
N214	N	1.624206	-0.302598	0.151102
H215	H	1.171391	-0.773222	-0.361507
H216	H	1.671391	-0.273222	0.138493
H217	H	1.097865	-0.322656	-1.027219
H218	H	1.597865	0.177344	-0.527219
