data_functionalizedCrystal
_audit_creation_method	'MofGen! by Chris Wilmer'
_symmetry_space_group_name_H-M	'P1'
_symmetry_Int_Tables_number	1
_symmetry_cell_setting	triclinic
loop_
_symmetry_equiv_pos_as_xyz
  x,y,z
_cell_length_a	14.853566
_cell_length_b	13.330367
_cell_length_c	14.853567
_cell_angle_alpha	90.001398
_cell_angle_beta	96.365328
_cell_angle_gamma	90.004843
loop_
_atom_site_label
_atom_site_type_symbol
_atom_site_fract_x
_atom_site_fract_y
_atom_site_fract_z
O1	O	1.196370	0.083349	-0.117695
O2	O	0.933910	0.083364	-0.131718
O3	O	1.072151	0.083359	0.006523
O4	O	1.058129	0.083354	-0.255936
O5	O	1.072130	-0.083488	0.006520
O6	O	0.933889	-0.083483	-0.131721
O7	O	1.196349	-0.083499	-0.117698
Cu8	Cu	1.065117	-0.098725	-0.124710
Cu9	Cu	1.065142	0.098591	-0.124706
O10	O	1.058108	-0.083493	-0.255939
C11	C	0.900311	-0.000057	-0.131084
C12	C	0.800227	-0.000051	-0.129181
C13	C	0.377054	0.090880	-0.121128
C14	C	0.377052	-0.091023	-0.121132
C15	C	0.471086	-0.091020	-0.122920
C16	C	0.518108	-0.000066	-0.123813
C17	C	0.471096	0.090886	-0.122919
C18	C	0.518104	-0.181970	-0.123823
C19	C	0.612144	-0.181971	-0.125611
C20	C	0.659169	-0.091015	-0.126498
C21	C	0.612151	-0.000060	-0.125603
C22	C	0.659173	0.090895	-0.126496
C23	C	0.612158	0.181851	-0.125595
C24	C	0.518121	0.181841	-0.123806
C25	C	0.753205	-0.091006	-0.128287
C26	C	0.753215	0.090900	-0.128287
N27	N	1.065106	-0.237507	-0.124711
C28	C	1.010366	-0.290027	-0.069932
C29	C	1.119858	-0.290014	-0.179486
C30	C	1.119868	-0.395033	-0.179486
C31	C	1.065128	-0.447553	-0.124707
C32	C	1.010377	-0.395055	-0.069928
C33	C	1.174625	-0.447538	-0.234257
C34	C	1.174639	-0.552563	-0.234257
C35	C	1.119893	-0.605086	-0.179482
C36	C	1.065139	-0.552581	-0.124702
C37	C	1.010398	-0.605102	-0.069923
C38	C	0.955639	-0.552599	-0.015147
C39	C	0.955631	-0.447578	-0.015153
C40	C	1.119901	-0.710107	-0.179477
C41	C	1.010409	-0.710130	-0.069919
C42	C	1.229948	-0.000075	-0.118332
C43	C	1.330032	-0.000075	-0.120235
C44	C	1.071505	-0.000062	0.040111
C45	C	1.069601	-0.000053	0.140194
N46	N	1.065160	0.237372	-0.124697
C47	C	1.058754	-0.000071	-0.289526
C48	C	1.060658	-0.000073	-0.389610
C49	C	0.979435	-0.000067	0.552728
C50	C	1.143668	-0.000076	0.574009
C51	C	1.145458	-0.000070	0.479976
C52	C	1.064236	-0.000064	0.422313
C53	C	0.981223	-0.000064	0.458685
C54	C	1.228470	-0.000081	0.443597
C55	C	1.230263	-0.000076	0.349558
C56	C	1.149040	-0.000063	0.291894
C57	C	1.066023	-0.000061	0.328271
C58	C	0.984801	-0.000055	0.270608
C59	C	0.901784	-0.000047	0.306984
C60	C	0.899999	-0.000050	0.401021
C61	C	1.150824	-0.000059	0.197856
C62	C	0.986588	-0.000052	0.176566
H63	H	0.479833	0.255893	-0.123070
H64	H	1.219198	-0.404768	-0.278848
Cl65	Cl	0.317956	0.205219	-0.119969
H66	H	0.338761	-0.165074	-0.120411
H67	H	0.479811	-0.256020	-0.123102
H68	H	0.965828	-0.752885	-0.025314
H69	H	0.835653	-0.000048	0.260023
H70	H	0.791480	-0.165061	-0.129030
H71	H	0.911073	-0.595375	0.029458
H72	H	0.650416	-0.256033	-0.126344
Cl73	Cl	0.886800	-0.381569	0.053705
Cl74	Cl	0.812322	0.205250	-0.129402
H75	H	1.219226	-0.595302	-0.278860
H76	H	0.650455	0.255906	-0.126328
H77	H	0.965779	-0.247275	-0.025338
H78	H	1.164488	-0.752850	-0.224071
Cl79	Cl	0.884473	-0.000037	0.104083
H80	H	1.297861	-0.000082	0.319950
Cl81	Cl	1.245771	-0.000101	0.646499
H82	H	0.832411	-0.000044	0.430646
Cl83	Cl	0.875077	-0.000046	0.598454
Cl84	Cl	1.330571	-0.000111	0.516089
Cl85	Cl	1.188676	-0.223988	-0.248342
H86	H	1.218415	-0.000073	0.168244
