data_functionalizedCrystal
_audit_creation_method	'MofGen! by Chris Wilmer'
_symmetry_space_group_name_H-M	'P1'
_symmetry_Int_Tables_number	1
_symmetry_cell_setting	triclinic
loop_
_symmetry_equiv_pos_as_xyz
  x,y,z
_cell_length_a	9.065218
_cell_length_b	27.732048
_cell_length_c	8.140239
_cell_angle_alpha	89.991555
_cell_angle_beta	89.997198
_cell_angle_gamma	83.829270
loop_
_atom_site_label
_atom_site_type_symbol
_atom_site_fract_x
_atom_site_fract_y
_atom_site_fract_z
O1	O	1.955891	0.070866	-0.136639
O2	O	1.526237	0.076679	-0.136643
O3	O	1.754408	0.003467	-0.136609
O4	O	1.727720	0.144079	-0.136672
O5	O	1.754396	0.003466	0.136618
O6	O	1.526224	0.076678	0.136584
O7	O	1.955879	0.070866	0.136588
Zn8	Zn	1.741050	0.073772	0.179967
Zn9	Zn	1.741066	0.073773	-0.180021
O10	O	1.727708	0.144078	0.136555
C11	C	1.471280	0.076120	-0.000029
C12	C	1.307543	0.074450	-0.000029
C13	C	1.753842	-0.014544	0.000009
C14	C	1.752155	-0.068210	0.000022
C15	C	1.876369	-0.406178	-0.000061
C16	C	1.870110	-0.607880	-0.000084
O17	O	1.983695	-0.638360	-0.000155
N18	N	1.734814	-0.627927	-0.000083
C19	C	1.601073	-0.597545	-0.000088
O20	O	1.485852	-0.619225	-0.000105
C21	C	1.607334	-0.395844	-0.000077
C22	C	1.742639	-0.375800	-0.000061
C23	C	2.011663	-0.386133	-0.000046
C24	C	2.013226	-0.335710	-0.000032
C25	C	1.879496	-0.305332	-0.000031
C26	C	1.744202	-0.325377	-0.000046
C27	C	1.473594	-0.365463	-0.000094
C28	C	1.475171	-0.315035	-0.000095
C29	C	1.610476	-0.294991	-0.000079
C30	C	1.612034	-0.244577	-0.000031
N31	N	1.747331	-0.224529	-0.000031
C32	C	1.881061	-0.254907	-0.000032
C33	C	1.597796	-0.703442	-0.000091
C34	C	1.596230	-0.753867	-0.000091
C35	C	1.865268	-0.764198	-0.000089
C36	C	1.866832	-0.713772	-0.000078
C37	C	1.733092	-0.683395	-0.000091
C38	C	1.884334	-0.149016	0.000001
C39	C	1.885886	-0.098588	0.000022
C40	C	1.616849	-0.088262	0.000012
C41	C	1.615296	-0.138685	-0.000001
C42	C	1.749051	-0.169061	-0.000012
O43	O	1.498510	-0.214067	0.000021
O44	O	1.996266	-0.233218	-0.000051
C45	C	1.874806	-0.456600	-0.000076
C46	C	1.739512	-0.476645	-0.000090
C47	C	1.605781	-0.446267	-0.000090
C48	C	1.737946	-0.527070	-0.000090
C49	C	1.871677	-0.557448	-0.000090
C50	C	2.006973	-0.537401	-0.000090
C51	C	2.008537	-0.486978	-0.000076
C52	C	1.470485	-0.466314	-0.000090
C53	C	1.468933	-0.516737	-0.000102
C54	C	1.602663	-0.547115	-0.000103
C55	C	2.010836	0.071425	-0.000029
C56	C	2.174573	0.073095	-0.000039
C57	C	1.728274	0.162089	-0.000067
C58	C	1.729961	0.215755	-0.000091
N59	N	1.741049	0.073771	0.425650
N60	N	1.741078	0.073770	-0.425704
H61	H	1.993250	-0.173743	-0.000015
O62	O	1.995274	-0.793662	-0.000319
C63	C	2.077464	-0.784487	-0.141858
H64	H	2.040361	-0.746402	-0.189022
H65	H	2.057913	-0.812143	-0.240948
C66	C	2.289341	-0.835329	-0.040971
C67	C	2.243780	-0.788550	-0.098892
H68	H	2.391934	-0.837837	-0.014473
H69	H	2.233968	-0.841512	0.054383
H70	H	2.273037	-0.858370	-0.123557
H71	H	2.260068	-0.765510	-0.016300
H72	H	2.299161	-0.782363	-0.194232
O73	O	1.998172	-0.694246	-0.000295
C74	C	2.007158	-0.665394	-0.141828
H75	H	1.890605	-0.653348	-0.189007
H76	H	2.072934	-0.687376	-0.240912
C77	C	2.228717	-0.635248	-0.040905
C78	C	2.085564	-0.620450	-0.098843
H79	H	2.277087	-0.607526	-0.014394
H80	H	2.222668	-0.654687	0.054446
H81	H	2.283511	-0.653567	-0.123485
H82	H	2.030767	-0.602136	-0.016256
H83	H	2.091606	-0.601006	-0.194179
O84	O	1.483734	-0.158079	-0.000084
C85	C	1.366038	-0.120451	-0.000032
H86	H	1.406598	-0.086016	-0.051729
H87	H	1.324827	-0.113512	0.131048
C88	C	1.188533	-0.177530	-0.043717
C89	C	1.238347	-0.135238	-0.107225
H90	H	1.109764	-0.186652	-0.109831
H91	H	1.267826	-0.202881	-0.043745
H92	H	1.154202	-0.171743	0.065515
H93	H	1.272695	-0.141028	-0.216446
H94	H	1.159056	-0.109888	-0.107217
H95	H	2.120569	-0.410862	-0.000052
O96	O	1.487084	-0.058678	-0.000063
C97	C	1.517495	-0.009875	-0.000014
H98	H	1.633324	-0.007432	-0.051725
H99	H	1.511550	0.004674	0.131067
C100	C	1.260014	0.017480	-0.043665
C101	C	1.402273	0.020481	-0.107191
H102	H	1.188938	0.036206	-0.109770
H103	H	1.239524	-0.015400	-0.043692
H104	H	1.255082	0.029603	0.065568
H105	H	1.407209	0.008353	-0.216413
H106	H	1.422762	0.053359	-0.107185
H107	H	1.358743	-0.533052	-0.000101
H108	H	1.366261	-0.290304	-0.000108
H109	H	1.486052	-0.770182	-0.000076
H110	H	1.488882	-0.678712	-0.000101
H111	H	1.363415	-0.381774	-0.000117
H112	H	2.118716	-0.470663	-0.000063
H113	H	1.996072	-0.082271	0.000040
H114	H	2.115862	-0.562143	-0.000083
H115	H	2.123406	-0.319395	-0.000025
H116	H	1.361583	-0.441585	-0.000093
