data_functionalizedCrystal
_audit_creation_method	'MofGen! by Chris Wilmer'
_symmetry_space_group_name_H-M	'P1'
_symmetry_Int_Tables_number	1
_symmetry_cell_setting	triclinic
loop_
_symmetry_equiv_pos_as_xyz
  x,y,z
_cell_length_a	11.792241
_cell_length_b	10.489741
_cell_length_c	10.868271
_cell_angle_alpha	89.995151
_cell_angle_beta	89.999893
_cell_angle_gamma	84.366295
loop_
_atom_site_label
_atom_site_type_symbol
_atom_site_fract_x
_atom_site_fract_y
_atom_site_fract_z
O1	O	1.507380	0.174832	-0.102202
O2	O	2.007380	0.674832	0.397798
O3	O	1.177088	0.192851	-0.102231
O4	O	1.677088	0.692851	0.397769
O5	O	1.349749	-0.001782	-0.102208
O6	O	1.849749	0.498218	0.397792
O7	O	1.334718	0.369465	-0.102224
O8	O	1.834718	0.869465	0.397776
O9	O	1.349735	-0.001790	0.102436
O10	O	1.849735	0.498210	0.602436
O11	O	1.177073	0.192843	0.102414
O12	O	1.677073	0.692843	0.602414
O13	O	1.507366	0.174825	0.102443
O14	O	2.007366	0.674825	0.602443
Zn15	Zn	1.342217	0.183833	0.134920
Zn16	Zn	1.842217	0.683833	0.634920
Zn17	Zn	1.342236	0.183843	-0.134708
Zn18	Zn	1.842236	0.683843	0.365292
O19	O	1.334704	0.369457	0.102420
O20	O	1.834704	0.869457	0.602420
C21	C	1.134786	0.191715	0.000088
C22	C	1.634786	0.691715	0.500088
C23	C	1.008764	0.188327	0.000077
C24	C	1.508764	0.688327	0.500077
C25	C	0.778035	0.182098	0.000113
C26	C	1.278035	0.682098	0.500113
C27	C	0.906429	0.185559	0.000093
C28	C	1.406429	0.685559	0.500093
C29	C	1.348607	-0.049314	0.000113
C30	C	1.848607	0.450686	0.500113
C31	C	1.345210	-0.190931	0.000111
C32	C	1.845210	0.309069	0.500111
C33	C	1.235351	-0.258697	0.000092
C34	C	1.735351	0.241303	0.500092
C35	C	1.287240	-0.351000	0.100997
C36	C	1.787240	0.149000	0.600997
C37	C	1.287281	-0.350967	-0.100767
C38	C	1.787281	0.149033	0.399233
C39	C	1.397145	-0.281369	0.101099
C40	C	1.897145	0.218631	0.601099
C41	C	1.397170	-0.281327	-0.100755
C42	C	1.897170	0.218673	0.399245
C43	C	1.449140	-0.373603	0.000174
C44	C	1.949140	0.126397	0.500174
C45	C	1.549667	0.175960	0.000121
C46	C	2.049667	0.675960	0.500121
C47	C	1.675690	0.179348	0.000124
C48	C	2.175690	0.679348	0.500124
C49	C	1.335846	0.416989	0.000096
C50	C	1.835846	0.916989	0.500096
C51	C	1.339243	0.558607	0.000091
C52	C	1.839243	1.058607	0.500091
N53	N	1.342213	0.183825	0.318934
N54	N	1.842213	0.683825	0.818934
N55	N	1.342250	0.183840	-0.318722
N56	N	1.842250	0.683840	0.181278
C57	C	1.342230	0.183840	0.569940
C58	C	1.842230	0.683840	1.069940
C59	C	1.342217	0.183835	0.430263
C60	C	1.842217	0.683835	0.930263
H61	H	1.145025	-0.208738	0.000186
H62	H	1.645025	0.291262	0.500186
O63	O	1.452616	-0.245016	0.203027
O64	O	1.952616	0.254984	0.703027
C65	C	1.488198	-0.353950	0.274323
C66	C	1.988198	0.146050	0.774323
H67	H	1.494960	-0.442712	0.213238
H68	H	1.994960	0.057288	0.713238
H69	H	1.574922	-0.342133	0.316836
H70	H	2.074922	0.157867	0.816836
H71	H	1.423487	-0.365092	0.350544
H72	H	1.923487	0.134908	0.850544
O73	O	1.231985	-0.387694	-0.202669
O74	O	1.731985	0.112306	0.297331
C75	C	1.288954	-0.350441	-0.308879
C76	C	1.788954	0.149559	0.191121
H77	H	1.381436	-0.338223	-0.285180
H78	H	1.881436	0.161777	0.214820
H79	H	1.286116	-0.427177	-0.382784
H80	H	1.786116	0.072823	0.117216
H81	H	1.245377	-0.255804	-0.344557
H82	H	1.745377	0.244196	0.155443
H83	H	1.240750	-0.381857	0.186297
H84	H	1.740750	0.118143	0.686297
O85	O	1.557010	-0.432888	0.000463
O86	O	2.057010	0.067112	0.500463
C87	C	1.614489	-0.397373	0.106975
C88	C	2.114489	0.102627	0.606975
H89	H	1.549591	-0.364557	0.180990
H90	H	2.049591	0.135443	0.680990
H91	H	1.672354	-0.483063	0.142195
H92	H	2.172354	0.016937	0.642195
H93	H	1.668000	-0.315785	0.083871
H94	H	2.168000	0.184215	0.583871
H95	H	1.443621	-0.250437	-0.186060
H96	H	1.943621	0.249563	0.313940
