data_functionalizedCrystal
_audit_creation_method	'MofGen! by Chris Wilmer'
_symmetry_space_group_name_H-M	'P1'
_symmetry_Int_Tables_number	1
_symmetry_cell_setting	triclinic
loop_
_symmetry_equiv_pos_as_xyz
  x,y,z
_cell_length_a	11.792241
_cell_length_b	17.019294
_cell_length_c	10.268362
_cell_angle_alpha	86.115747
_cell_angle_beta	89.999626
_cell_angle_gamma	83.793186
loop_
_atom_site_label
_atom_site_type_symbol
_atom_site_fract_x
_atom_site_fract_y
_atom_site_fract_z
O1	O	1.505777	0.108120	-0.120297
O2	O	1.175319	0.119263	-0.121577
O3	O	1.349766	-0.001102	-0.108056
O4	O	1.331329	0.228485	-0.133817
O5	O	1.349751	-0.001107	0.108545
O6	O	1.175304	0.119258	0.095025
O7	O	1.505761	0.108115	0.096304
Cu8	Cu	1.340531	0.113686	0.115442
Cu9	Cu	1.340549	0.113692	-0.140714
O10	O	1.331314	0.228480	0.082784
C11	C	1.133028	0.118561	-0.013201
C12	C	1.007036	0.116466	-0.012978
C13	C	0.776364	0.112613	-0.012508
C14	C	0.904727	0.114754	-0.012769
C15	C	1.349059	-0.030497	0.003539
C16	C	1.346962	-0.118076	0.013357
C17	C	1.345988	-0.159214	-0.100099
C18	C	1.344010	-0.241503	-0.090870
C19	C	1.343014	-0.282654	0.031817
C20	C	1.343986	-0.241511	0.145281
C21	C	1.345955	-0.159222	0.136051
C22	C	1.337059	-0.531113	0.065593
C23	C	1.335093	-0.613408	0.074815
C24	C	1.335115	-0.613395	-0.161337
C25	C	1.337091	-0.531105	-0.170556
C26	C	1.338056	-0.489968	-0.057092
C27	C	1.340996	-0.366768	0.041253
C28	C	1.340066	-0.405855	-0.066530
C29	C	1.548053	0.108818	-0.012074
C30	C	1.674044	0.110913	-0.012306
C31	C	1.332021	0.257875	-0.028815
C32	C	1.334118	0.345454	-0.038641
N33	N	1.340527	0.113681	0.295608
N34	N	1.340562	0.113690	-0.320880
C35	C	1.340543	0.113690	0.561278
C36	C	1.340530	0.113688	0.413440
H37	H	1.346804	-0.125715	-0.200003
H38	H	1.343221	-0.274995	-0.183258
F39	F	1.334087	-0.657182	-0.282085
H40	H	1.337903	-0.497606	-0.270460
H41	H	1.334276	-0.646910	0.174726
H42	H	1.340869	-0.372346	-0.166420
H43	H	1.340190	-0.400283	0.141145
F44	F	1.346991	-0.115440	0.256807
F45	F	1.338072	-0.487341	0.186353
F46	F	1.342914	-0.285308	0.275854
