data_functionalizedCrystal
_audit_creation_method	'MofGen! by Chris Wilmer'
_symmetry_space_group_name_H-M	'P1'
_symmetry_Int_Tables_number	1
_symmetry_cell_setting	triclinic
loop_
_symmetry_equiv_pos_as_xyz
  x,y,z
_cell_length_a	20.875641
_cell_length_b	18.878441
_cell_length_c	20.875685
_cell_angle_alpha	61.743714
_cell_angle_beta	92.963887
_cell_angle_gamma	57.588372
loop_
_atom_site_label
_atom_site_type_symbol
_atom_site_fract_x
_atom_site_fract_y
_atom_site_fract_z
Zr1	Zr	0.638196	0.723624	-0.060755
O2	O	0.526135	0.880484	-0.167284
O3	O	0.672550	0.573062	-0.028100
O4	O	0.665329	0.721426	-0.162182
O5	O	0.539051	0.731657	0.072566
O6	O	0.775126	0.712527	-0.158155
O7	O	0.533356	0.732120	-0.033202
O8	O	0.788044	0.447131	0.081693
O9	O	0.526133	0.997054	-0.167282
O10	O	0.769141	0.626016	-0.011165
O11	O	0.691451	0.632312	0.064763
O12	O	0.682948	0.806991	-0.093101
O13	O	0.605258	0.813287	-0.017172
Zr14	Zr	0.822393	0.708693	0.114356
Zr15	Zr	0.813310	0.709431	-0.054332
Zr16	Zr	0.647279	0.722885	0.107934
Zr17	Zr	0.638194	0.909538	-0.060751
Zr18	Zr	0.822395	0.522778	0.114352
O19	O	0.788039	0.859255	0.081701
O20	O	0.775124	0.860305	-0.158152
O21	O	0.539050	0.879435	0.072569
O22	O	0.934455	0.551833	0.220885
O23	O	0.921540	0.552882	-0.018968
O24	O	0.685465	0.572012	0.211753
O25	O	0.921538	0.700660	-0.018965
O26	O	0.795261	0.710891	0.215783
O27	O	0.685463	0.719789	0.211756
O28	O	0.927233	0.700197	0.086803
O29	O	0.665326	0.985773	-0.162177
O30	O	0.795264	0.446544	0.215778
O31	O	0.934456	0.435263	0.220883
O32	O	0.927236	0.435850	0.086798
O33	O	0.533353	0.996467	-0.033197
O34	O	0.672546	0.985186	-0.028092
O35	O	0.777641	0.625325	0.146702
O36	O	0.855332	0.619030	0.070774
O37	O	0.769139	0.800005	-0.011162
O38	O	0.691449	0.806301	0.064767
C39	C	0.730297	0.483607	0.026796
C40	C	0.730298	0.404682	0.026794
C41	C	0.511254	0.733911	0.018767
C42	C	0.436913	0.739936	0.016040
C43	C	0.770850	0.364316	-0.012841
C44	C	0.770853	0.290152	-0.012835
C45	C	0.730299	0.256360	0.026802
C46	C	0.689747	0.296728	0.066442
C47	C	0.689749	0.370886	0.066440
C48	C	0.689743	0.142162	0.066441
C49	C	0.689740	0.068000	0.066442
C50	C	0.770848	0.061428	-0.012834
C51	C	0.770850	0.135585	-0.012835
C52	C	0.730296	0.175950	0.026803
C53	C	0.446977	0.648302	0.057525
C54	C	0.377123	0.653969	0.054961
C55	C	0.297206	0.751271	0.010908
C56	C	0.287144	0.842912	-0.030578
C57	C	0.356997	0.837244	-0.028009
C58	C	0.083467	0.778354	-0.001356
C59	C	0.013612	0.784015	-0.003924
C60	C	0.103597	0.595071	0.081617
C61	C	0.173447	0.589411	0.084177
C62	C	0.163379	0.681052	0.042695
N63	N	0.225803	0.757067	0.008284
N64	N	0.234782	0.675256	0.045324
C65	C	0.949336	0.698406	0.034834
C66	C	1.023676	0.692381	0.037561
C67	C	0.718933	0.717082	-0.184203
C68	C	0.715077	0.717395	-0.255816
C69	C	0.730292	0.948709	0.026805
C70	C	0.730291	1.027635	0.026807
C71	C	0.686840	0.719674	-0.659152
C72	C	0.690474	0.719376	-0.591862
C73	C	0.752777	0.714332	-0.556009
C74	C	0.811455	0.709576	-0.587444
C75	C	0.807824	0.709867	-0.654728
C76	C	0.770125	0.712930	-0.354535
C77	C	0.773749	0.712642	-0.287247
C78	C	0.652769	0.722441	-0.291670
C79	C	0.649141	0.722737	-0.358958
C80	C	0.707821	0.717976	-0.390385
N81	N	0.756491	0.714030	-0.487230
N82	N	0.704110	0.718270	-0.459159
C83	C	0.741656	0.715235	0.237804
C84	C	0.745512	0.714922	0.309417
C85	C	0.949338	0.465855	0.034829
C86	C	1.023680	0.380905	0.037554
C87	C	0.741659	0.482684	0.237799
C88	C	0.745516	0.403445	0.309410
C89	C	0.960700	0.464932	0.245833
C90	C	1.038897	0.379668	0.320170
C91	C	0.499890	0.967385	-0.192232
C92	C	0.421692	1.052649	-0.266569
C93	C	0.511251	0.966462	0.018772
C94	C	0.436910	1.051412	0.016047
C95	C	0.718931	0.949633	-0.184198
C96	C	0.715074	1.028872	-0.255809
C97	C	1.013600	0.344658	-0.003944
C98	C	1.083444	0.264848	-0.001400
C99	C	1.163367	0.221282	0.042648
C100	C	1.173445	0.257537	0.084148
C101	C	1.103602	0.337350	0.081599
C102	C	0.792318	0.362587	0.385818
C103	C	0.795939	0.288144	0.453111
C104	C	0.752762	0.254555	0.443994
C105	C	0.705954	0.295421	0.367578
C106	C	0.702329	0.369868	0.300287
C107	C	1.116181	0.336340	0.315447
C108	C	1.189662	0.256235	0.385288
C109	C	1.185858	0.219455	0.459853
C110	C	1.108566	0.262790	0.464575
C111	C	1.035087	0.342899	0.394734
C112	C	0.344409	1.095986	-0.261845
C113	C	0.270928	1.176114	-0.331687
C114	C	0.274732	1.212898	-0.406252
C115	C	0.352023	1.169558	-0.410974
C116	C	0.425503	1.089437	-0.341133
C117	C	0.446989	1.087667	0.057539
C118	C	0.377144	1.167497	0.054976
C119	C	0.297221	1.211066	0.010925
C120	C	0.287143	1.174808	-0.030572
C121	C	0.356987	1.094984	-0.028013
C122	C	0.758260	1.062436	-0.246667
C123	C	0.754653	1.136879	-0.313946
C124	C	0.707853	1.177761	-0.390367
C125	C	0.664666	1.144189	-0.399508
C126	C	0.668278	1.069743	-0.332229
H127	H	0.803874	0.257286	-0.045107
O128	O	0.960065	0.384986	0.399431
C129	C	0.953339	0.428443	0.440599
H130	H	1.018218	0.389701	0.480027
H131	H	0.917590	0.515807	0.395798
C132	C	0.826962	0.457813	0.444403
C133	C	0.906646	0.410224	0.492834
H134	H	0.798156	0.446580	0.476621
H135	H	0.831490	0.428539	0.416665
H136	H	0.797181	0.530613	0.407071
H137	H	0.936429	0.337424	0.530158
H138	H	0.902121	0.439485	0.520580
H139	H	0.355111	1.199518	-0.471693
O140	O	-0.064083	0.878456	-0.046706
C141	C	-0.123575	0.863802	-0.040062
H142	H	-0.095535	0.783477	-0.023898
H143	H	-0.142769	0.869654	0.008470
C144	C	-0.234947	1.047053	-0.140050
C145	C	-0.200511	0.948400	-0.120204
H146	H	-0.282407	1.099239	-0.189484
H147	H	-0.194867	1.056927	-0.144524
H148	H	-0.250936	1.051915	-0.099601
H149	H	-0.184513	0.943535	-0.160648
H150	H	-0.240590	0.938527	-0.115739
H151	H	0.341296	1.066041	-0.201138
O152	O	0.619211	1.184053	-0.473804
C153	C	0.625303	1.256942	-0.531215
H154	H	0.642480	1.287957	-0.504395
H155	H	0.675378	1.217411	-0.550389
C156	C	0.520017	1.309974	-0.637198
C157	C	0.541106	1.348074	-0.604259
H158	H	0.468082	1.366186	-0.682257
H159	H	0.515914	1.260865	-0.598520
H160	H	0.561752	1.277032	-0.653170
H161	H	0.499377	1.381003	-0.588279
H162	H	0.545200	1.397191	-0.642937
H163	H	0.214894	1.278138	-0.463115
O164	O	0.796704	1.169386	-0.305093
C165	C	0.854776	1.146575	-0.339345
H166	H	0.870512	1.080306	-0.341873
H167	H	0.826964	1.218826	-0.402303
C168	C	0.915199	1.194966	-0.285193
C169	C	0.934531	1.113568	-0.288292
H170	H	0.964395	1.174610	-0.253705
H171	H	0.876073	1.210339	-0.262119
H172	H	0.892020	1.255168	-0.337662
H173	H	0.957700	1.053372	-0.235826
H174	H	0.973663	1.098184	-0.311356
O175	O	0.936025	0.386886	-0.046803
C176	C	0.942124	0.337751	-0.082866
H177	H	1.004017	0.302181	-0.088737
H178	H	0.938482	0.273635	-0.044467
C179	C	0.794081	0.462424	-0.158986
C180	C	0.870096	0.418744	-0.166204
H181	H	0.749650	0.512382	-0.210391
H182	H	0.789972	0.495525	-0.134688
H183	H	0.791058	0.408985	-0.126984
H184	H	0.873123	0.472180	-0.198196
H185	H	0.874205	0.385652	-0.190509
O186	O	0.626237	1.037299	-0.341259
C187	C	0.584175	1.089337	-0.423138
H188	H	0.573793	1.165334	-0.459318
H189	H	0.623189	1.037541	-0.441496
C190	C	0.512299	1.020149	-0.394471
C191	C	0.499543	1.113494	-0.438908
H192	H	0.460096	1.035047	-0.404199
H193	H	0.540640	0.985087	-0.339307
H194	H	0.544814	0.976995	-0.409774
H195	H	0.467038	1.156641	-0.423598
H196	H	0.471195	1.148565	-0.494070
H197	H	1.245696	0.154224	0.516716
H198	H	0.704918	1.238380	-0.445143
H199	H	1.075222	0.235340	-0.035195
H200	H	0.636104	0.723788	-0.688342
O201	O	0.827190	0.708134	-0.385005
C202	C	0.871458	0.618267	-0.383172
H203	H	0.868108	0.558221	-0.335749
H204	H	0.842800	0.640093	-0.443949
C205	C	0.967166	0.645482	-0.421378
C206	C	0.963058	0.571728	-0.363127
H207	H	1.023668	0.616776	-0.409017
H208	H	0.937340	0.706029	-0.422616
H209	H	0.943279	0.663664	-0.472021
H210	H	0.986934	0.553557	-0.312488
H211	H	0.992890	0.511176	-0.361880
H212	H	0.488428	1.054152	-0.344989
H213	H	0.208002	1.211389	-0.327827
H214	H	1.238528	0.222054	0.120011
H215	H	0.755721	0.193935	0.498793
O216	O	0.524561	1.045498	0.100343
C217	C	0.518463	1.094613	0.136425
H218	H	0.454392	1.174974	0.101817
H219	H	0.527626	1.045243	0.200587
C220	C	0.664669	1.007699	0.178421
C221	C	0.585977	1.106404	0.135911
H222	H	0.706317	1.014969	0.178108
H223	H	0.668778	0.974606	0.154115
H224	H	0.672293	0.966568	0.231885
H225	H	0.578351	1.147528	0.082446
H226	H	0.581868	1.139504	0.160208
O227	O	0.386847	1.202686	0.095352
C228	C	0.352134	1.187359	0.151804
H229	H	0.303581	1.182092	0.132728
H230	H	0.403339	1.111886	0.212660
C231	C	0.370263	1.286150	0.180462
C232	C	0.310625	1.279691	0.157028
H233	H	0.344661	1.343102	0.183688
H234	H	0.393653	1.296474	0.142431
H235	H	0.412930	1.223251	0.231173
H236	H	0.267965	1.342584	0.106313
H237	H	0.287226	1.269380	0.195051
H238	H	0.803867	0.163104	-0.045115
O239	O	0.810175	0.397285	-0.051334
C240	C	0.801501	0.471376	-0.042822
H241	H	0.744547	0.508432	-0.029770
H242	H	0.859422	0.431203	0.008536
C243	C	0.860668	0.511005	-0.136562
C244	C	0.790713	0.556525	-0.120538
H245	H	0.854018	0.563527	-0.184499
H246	H	0.866516	0.461086	-0.142295
H247	H	0.908929	0.477530	-0.093759
H248	H	0.742455	0.589988	-0.163336
H249	H	0.784857	0.606452	-0.114814
O250	O	0.229349	1.288735	0.008306
C251	C	0.178339	1.378661	-0.071371
H252	H	0.217295	1.375407	-0.107843
H253	H	0.126460	1.382250	-0.097469
C254	C	0.092231	1.480435	-0.029091
C255	C	0.140079	1.476442	-0.073885
H256	H	0.068626	1.540752	-0.030642
H257	H	0.126595	1.419849	0.024590
H258	H	0.049004	1.483421	-0.050844
H259	H	0.183310	1.473443	-0.052125
H260	H	0.105721	1.537030	-0.127562
H261	H	0.656725	0.403753	0.098713
O262	O	0.588657	0.727668	-0.393898
C263	C	0.598047	0.726878	-0.460013
H264	H	0.633905	0.755524	-0.482162
H265	H	0.633756	0.644049	-0.441565
C266	C	0.467590	0.764025	-0.500030
C267	C	0.511625	0.799217	-0.527238
H268	H	0.414281	0.808643	-0.541497
H269	H	0.461264	0.764554	-0.455486
H270	H	0.497356	0.695001	-0.484657
H271	H	0.481864	0.868235	-0.542601
H272	H	0.517943	0.798702	-0.571787
O273	O	0.656862	0.409404	0.226125
C274	C	0.619521	0.363803	0.232518
H275	H	0.656306	0.285666	0.293800
H276	H	0.552832	0.417843	0.224565
C277	C	0.573947	0.442510	0.092195
C278	C	0.619131	0.346536	0.167460
H279	H	0.573703	0.431863	0.052062
H280	H	0.599101	0.473236	0.087886
H281	H	0.518377	0.487534	0.085579
H282	H	0.674702	0.301519	0.174079
H283	H	0.593986	0.315802	0.171768
H284	H	1.220232	0.156293	0.044718
H285	H	0.222060	1.210293	-0.066437
H286	H	1.111821	0.366851	0.115397
H287	H	0.348798	0.911862	-0.061780
H288	H	0.348769	1.065469	-0.061799
H289	H	0.512046	0.569067	0.093401
H290	H	0.803869	0.028558	-0.045108
H291	H	1.105481	0.232831	0.525296
O292	O	1.120036	0.371897	0.243084
C293	C	1.204013	0.316410	0.253908
H294	H	1.244494	0.282660	0.315282
H295	H	1.224299	0.250291	0.249239
C296	C	1.163934	0.432160	0.113750
C297	C	1.213654	0.390715	0.189128
H298	H	1.169882	0.477992	0.073789
H299	H	1.107358	0.469541	0.106456
H300	H	1.180846	0.377052	0.109871
H301	H	1.196736	0.445821	0.193010
H302	H	1.270229	0.353345	0.196421
O303	O	1.264751	0.214251	0.380724
C304	C	1.309681	0.228731	0.418751
H305	H	1.264523	0.297373	0.420208
H306	H	1.354494	0.155101	0.482330
C307	C	1.414687	0.166977	0.370650
C308	C	1.359223	0.251291	0.372432
H309	H	1.445251	0.180888	0.342081
H310	H	1.384420	0.157218	0.345032
H311	H	1.452024	0.105627	0.423635
H312	H	1.321882	0.312636	0.319449
H313	H	1.389486	0.261061	0.398040
H314	H	0.656716	0.040490	0.098717
H315	H	0.656718	0.175027	0.098718
H316	H	0.796369	1.029161	-0.184447
H317	H	0.827479	0.389926	0.393256
H318	H	0.385325	0.579351	0.088744
O319	O	0.073727	0.867344	-0.041527
C320	C	0.114429	0.869470	0.012760
H321	H	0.120997	0.817391	0.074953
H322	H	0.178780	0.839863	0.013677
C323	C	0.055023	1.046102	-0.089579
C324	C	0.063084	0.982144	-0.013193
H325	H	0.023354	1.115605	-0.105589
H326	H	0.027604	1.044669	-0.126154
H327	H	0.108653	1.021417	-0.088805
H328	H	0.009456	1.006822	-0.013971
H329	H	0.090493	0.983584	0.023381
O330	O	0.209489	0.937407	-0.073474
C331	C	0.163412	0.946563	-0.132868
H332	H	0.207916	0.891415	-0.146517
H333	H	0.123235	0.925418	-0.110807
C334	C	0.052575	1.127358	-0.192349
C335	C	0.107236	1.059630	-0.209117
H336	H	0.017920	1.197103	-0.239381
H337	H	0.083616	1.121189	-0.152332
H338	H	0.019102	1.109724	-0.173963
H339	H	0.140715	1.077256	-0.227492
H340	H	0.076199	1.065805	-0.249138
O341	O	0.595668	0.727243	-0.261250
C342	C	0.515230	0.820034	-0.319680
H343	H	0.519741	0.879985	-0.365288
H344	H	0.485074	0.802962	-0.350926
C345	C	0.456462	0.789839	-0.223672
C346	C	0.462003	0.863475	-0.279685
H347	H	0.423627	0.816634	-0.199002
H348	H	0.510654	0.727322	-0.184307
H349	H	0.431335	0.775619	-0.249718
H350	H	0.487139	0.877684	-0.253637
H351	H	0.407813	0.925996	-0.319045
O352	O	0.834318	0.707618	-0.252332
C353	C	0.913044	0.614991	-0.226729
H354	H	0.906623	0.555139	-0.218123
H355	H	0.939045	0.632404	-0.273543
C356	C	0.980475	0.644647	-0.157719
C357	C	0.972590	0.571132	-0.147143
H358	H	1.017208	0.617594	-0.108629
H359	H	0.927436	0.707054	-0.174970
H360	H	1.002140	0.659151	-0.196733
H361	H	0.950916	0.556639	-0.108137
H362	H	1.025627	0.508722	-0.129883
O363	O	0.864864	0.705285	-0.685180
C364	C	0.920647	0.700741	-0.639095
H365	H	0.889873	0.734790	-0.606641
H366	H	0.979228	0.616060	-0.593610
C367	C	0.981818	0.722355	-0.733897
C368	C	0.944018	0.764183	-0.694042
H369	H	0.996238	0.761484	-0.767789
H370	H	0.944238	0.725412	-0.764944
H371	H	1.030631	0.651788	-0.695985
H372	H	0.895202	0.834743	-0.731953
H373	H	0.981591	0.761138	-0.663002
H374	H	0.238515	0.510177	0.120035
H375	H	0.111785	0.520462	0.115389
H376	H	0.642699	0.723245	-0.566271
H377	H	0.656732	0.269203	0.098719
H378	H	0.862187	0.705463	-0.558245
H379	H	0.834058	0.254879	0.515325
H380	H	0.670801	0.268062	0.360167
