data_functionalizedCrystal
_audit_creation_method	'MofGen! by Chris Wilmer'
_symmetry_space_group_name_H-M	'P1'
_symmetry_Int_Tables_number	1
_symmetry_cell_setting	triclinic
loop_
_symmetry_equiv_pos_as_xyz
  x,y,z
_cell_length_a	19.805407
_cell_length_b	19.077068
_cell_length_c	19.805407
_cell_angle_alpha	87.717799
_cell_angle_beta	90.002724
_cell_angle_gamma	92.327086
loop_
_atom_site_label
_atom_site_type_symbol
_atom_site_fract_x
_atom_site_fract_y
_atom_site_fract_z
Zn1	Zn	1.023784	-0.280314	0.393537
Zn2	Zn	1.019183	-0.397987	0.284890
Zn3	Zn	0.910633	-0.280306	0.280362
Zn4	Zn	0.906013	-0.397977	0.398037
O5	O	0.964903	-0.339146	0.339207
O6	O	1.117890	-0.295931	0.379137
O7	O	1.004791	-0.382377	0.189573
O8	O	0.929502	-0.181815	0.291596
O9	O	1.114509	-0.382385	0.299315
O10	O	1.012634	-0.181821	0.374746
O11	O	0.925040	-0.295917	0.186246
O12	O	0.815304	-0.295908	0.295959
O13	O	0.921628	-0.382368	0.492156
O14	O	0.811910	-0.382360	0.382415
O15	O	1.008154	-0.295922	0.488851
O16	O	1.000311	-0.496478	0.303678
O17	O	0.917166	-0.496470	0.386806
C18	C	0.789048	-0.339133	0.339184
C19	C	0.713815	-0.339144	0.339191
C20	C	0.957756	-0.522012	0.346236
C21	C	0.954761	-0.600243	0.349266
C22	C	0.676719	-0.384227	0.384141
C23	C	0.606031	-0.384228	0.384151
C24	C	0.572440	-0.339149	0.339207
C25	C	0.609541	-0.294061	0.294255
C26	C	0.680228	-0.294056	0.294249
C27	C	0.324467	-0.294076	0.294278
C28	C	0.253775	-0.294086	0.294286
C29	C	0.250269	-0.384248	0.384179
C30	C	0.320957	-0.384244	0.384174
C31	C	0.358052	-0.339153	0.339224
C32	C	0.434701	-0.339152	0.339215
C33	C	0.495792	-0.339154	0.339212
C34	C	0.996676	-0.636976	0.307445
C35	C	0.993863	-0.710482	0.310299
C36	C	0.949130	-0.747254	0.354971
C37	C	0.907213	-0.710515	0.396796
C38	C	0.910030	-0.637010	0.393946
C39	C	0.936062	-0.967092	0.368138
C40	C	0.933246	-1.040602	0.370984
C41	C	1.019898	-1.040564	0.284487
C42	C	1.022708	-0.967058	0.281637
C43	C	0.980793	-0.930325	0.323465
N44	N	0.946252	-0.822389	0.357888
N45	N	0.983676	-0.855192	0.320552
C46	C	1.141445	-0.339160	0.339229
C47	C	1.216677	-0.339166	0.339239
C48	C	0.964889	-0.339145	0.515749
C49	C	0.964883	-0.339144	0.590981
C50	C	0.972096	-0.155566	0.332164
C51	C	0.975162	-0.077335	0.329163
C52	C	1.006432	-0.384173	1.054503
C53	C	1.006426	-0.384174	0.983814
C54	C	0.964902	-0.339159	0.946743
C55	C	0.923376	-0.294145	0.980365
C56	C	0.923379	-0.294148	1.051052
C57	C	0.923363	-0.294130	0.695291
C58	C	0.923365	-0.294128	0.624599
C59	C	1.006411	-0.384156	0.628053
C60	C	1.006413	-0.384159	0.698740
C61	C	0.964885	-0.339148	0.732356
C62	C	0.964891	-0.339149	0.809004
C63	C	0.964899	-0.339154	0.870096
C64	C	0.964910	-0.339162	1.163351
C65	C	0.964911	-0.339162	1.088119
H66	H	0.704064	-0.420938	0.420738
H67	H	0.226427	-0.257372	0.257686
H68	H	0.875899	-0.607103	0.428001
H69	H	0.710432	-0.257341	0.257650
O70	O	0.214132	-0.427979	0.427826
C71	C	0.144538	-0.418331	0.418188
H72	H	0.137001	-0.363978	0.394020
H73	H	0.122844	-0.460021	0.383682
C74	C	0.117260	-0.491654	0.516602
C75	C	0.108002	-0.424895	0.486924
H76	H	0.094722	-0.495706	0.559000
H77	H	0.164146	-0.498157	0.523094
H78	H	0.099182	-0.526388	0.487840
H79	H	0.126088	-0.390163	0.515682
H80	H	0.061118	-0.418386	0.480438
H81	H	0.870793	-0.740460	0.433172
H82	H	1.040250	-0.420827	1.084681
H83	H	0.582186	-0.257353	0.257663
H84	H	0.348303	-0.420955	0.420770
O85	O	1.040189	-0.601368	0.264031
C86	C	1.076568	-0.649556	0.227720
H87	H	1.076880	-0.701937	0.257479
H88	H	1.051525	-0.657421	0.176597
C89	C	1.149332	-0.556478	0.180364
C90	C	1.149720	-0.620811	0.216917
H91	H	1.194455	-0.538746	0.173697
H92	H	1.124821	-0.524012	0.204825
H93	H	1.128460	-0.563040	0.137765
H94	H	1.170585	-0.614247	0.259518
H95	H	1.174237	-0.653276	0.192462
O96	O	0.883118	-0.250381	0.728019
C97	C	0.923427	-0.204914	0.767163
H98	H	0.973753	-0.229733	0.778702
H99	H	0.932897	-0.152748	0.737931
C100	C	0.824870	-0.161708	0.819648
C101	C	0.886679	-0.192194	0.833826
H102	H	0.802202	-0.153859	0.860768
H103	H	0.797713	-0.192338	0.793275
H104	H	0.832770	-0.118240	0.795287
H105	H	0.878777	-0.235665	0.858179
H106	H	0.913834	-0.161571	0.860205
H107	H	1.040229	-0.420836	0.956447
H108	H	1.054023	-1.070479	0.250434
O109	O	0.360392	-0.250254	0.250552
C110	C	0.315583	-0.210457	0.210898
H111	H	0.264072	-0.239291	0.209618
H112	H	0.310148	-0.157047	0.233721
C113	C	0.406830	-0.164769	0.140053
C114	C	0.343564	-0.200187	0.138476
H115	H	0.424090	-0.158431	0.095381
H116	H	0.437019	-0.191579	0.166770
H117	H	0.402291	-0.120264	0.159075
H118	H	0.348105	-0.244694	0.119462
H119	H	0.313376	-0.173384	0.111755
H120	H	1.040229	-0.420813	0.728920
O121	O	1.034742	-0.746143	0.269819
C122	C	1.076788	-0.788542	0.310118
H123	H	1.081630	-0.766362	0.362581
H124	H	1.053814	-0.844306	0.314546
C125	C	1.141263	-0.816732	0.212854
C126	C	1.147214	-0.789486	0.277288
H127	H	1.184704	-0.817317	0.192602
H128	H	1.112935	-0.788169	0.185703
H129	H	1.122115	-0.863199	0.216553
H130	H	1.166353	-0.743016	0.273588
H131	H	1.175547	-0.818041	0.304438
O132	O	1.066132	-0.931421	0.238156
C133	C	1.050702	-0.949413	0.171378
H134	H	1.022635	-1.002803	0.172021
H135	H	1.017512	-0.908081	0.146943
C136	C	1.151070	-0.887202	0.129787
C137	C	1.116602	-0.952780	0.130576
H138	H	1.191719	-0.889276	0.104616
H139	H	1.161464	-0.875078	0.174775
H140	H	1.123404	-0.852766	0.109425
H141	H	1.144264	-0.987212	0.150944
H142	H	1.106214	-0.964910	0.085589
O143	O	0.882959	-0.250380	0.588691
C144	C	0.846315	-0.210642	0.633517
H145	H	0.842844	-0.239470	0.685011
H146	H	0.873189	-0.157186	0.638987
C147	C	0.778939	-0.165093	0.542289
C148	C	0.774671	-0.200504	0.605533
H149	H	0.734746	-0.158837	0.525027
H150	H	0.803628	-0.191863	0.512088
H151	H	0.801337	-0.120550	0.546856
H152	H	0.752281	-0.245049	0.600964
H153	H	0.749976	-0.173741	0.635733
O154	O	0.895270	-0.931525	0.408784
C155	C	0.855192	-0.979746	0.448828
H156	H	0.850874	-1.032157	0.423134
H157	H	0.879626	-0.987516	0.500562
C158	C	0.789541	-0.886750	0.488950
C159	C	0.784234	-0.951121	0.457390
H160	H	0.745772	-0.869092	0.494235
H161	H	0.816544	-0.854262	0.461974
H162	H	0.809905	-0.893234	0.532059
H163	H	0.763878	-0.944634	0.414279
H164	H	0.757226	-0.983607	0.484359
O165	O	0.883027	-0.250356	1.083602
C166	C	0.846364	-0.210636	1.035727
H167	H	0.874181	-0.208195	0.985246
H168	H	0.793949	-0.236408	1.029195
C169	C	0.805374	-0.138726	1.122449
C170	C	0.839543	-0.135724	1.060449
H171	H	0.801164	-0.092518	1.137699
H172	H	0.830073	-0.165488	1.154704
H173	H	0.761699	-0.160206	1.116997
H174	H	0.883220	-0.114253	1.065903
H175	H	0.814852	-0.108956	1.028195
H176	H	0.896827	-1.070539	0.407373
H177	H	0.889563	-0.257496	0.950176
O178	O	0.570097	-0.428097	0.427831
C179	C	0.614903	-0.467879	0.467503
H180	H	0.665196	-0.470258	0.439864
H181	H	0.623428	-0.442199	0.517968
C182	C	0.522625	-0.539886	0.513953
C183	C	0.584393	-0.542814	0.480003
H184	H	0.503804	-0.586109	0.521666
H185	H	0.492437	-0.513084	0.487227
H186	H	0.529737	-0.518483	0.556003
H187	H	0.577279	-0.564208	0.437951
H188	H	0.614579	-0.569622	0.506722
H189	H	1.040223	-0.420808	0.600675
