data_functionalizedCrystal
_audit_creation_method	'MofGen! by Chris Wilmer'
_symmetry_space_group_name_H-M	'P1'
_symmetry_Int_Tables_number	1
_symmetry_cell_setting	triclinic
loop_
_symmetry_equiv_pos_as_xyz
  x,y,z
_cell_length_a	6.394989
_cell_length_b	16.992694
_cell_length_c	15.455313
_cell_angle_alpha	92.857794
_cell_angle_beta	87.254133
_cell_angle_gamma	88.582967
loop_
_atom_site_label
_atom_site_type_symbol
_atom_site_fract_x
_atom_site_fract_y
_atom_site_fract_z
O1	O	-0.435072	-1.048122	-0.072012
O2	O	0.064928	-0.548122	0.427988
O3	O	-0.430202	-0.819790	-0.072038
O4	O	0.069798	-0.319790	0.427962
O5	O	-0.129113	-0.937197	-0.072026
O6	O	0.370887	-0.437197	0.427974
O7	O	-0.736160	-0.930715	-0.072025
O8	O	-0.236160	-0.430715	0.427975
O9	O	-0.146255	-0.930482	0.072236
O10	O	0.353745	-0.430482	0.572236
O11	O	-0.447343	-0.813075	0.072223
O12	O	0.052657	-0.313075	0.572223
O13	O	-0.452214	-1.041407	0.072249
O14	O	0.047786	-0.541407	0.572249
Cu15	Cu	-0.451344	-0.926628	0.085408
Cu16	Cu	0.048656	-0.426628	0.585408
Cu17	Cu	-0.431071	-0.934569	-0.085198
Cu18	Cu	0.068929	-0.434569	0.414802
O19	O	-0.753302	-0.924000	0.072236
O20	O	-0.253302	-0.424000	0.572236
C21	C	-0.432511	-0.787158	0.000089
C22	C	0.067489	-0.287158	0.500089
C23	C	-0.413829	-0.699930	0.000079
C24	C	0.086171	-0.199930	0.500079
N25	N	-0.465602	-0.921049	0.205403
N26	N	0.034398	-0.421049	0.705403
C27	C	-0.449904	-1.074039	0.000120
C28	C	0.050096	-0.574039	0.500120
C29	C	-0.468586	-1.161267	0.000124
C30	C	0.031414	-0.661267	0.500124
C31	C	-0.059649	-0.932558	0.000102
C32	C	0.440351	-0.432558	0.500102
C33	C	0.177240	-0.928641	0.000100
C34	C	0.677240	-0.428641	0.500100
N35	N	-0.416798	-0.940154	-0.205192
N36	N	0.083202	-0.440154	0.294808
C37	C	-0.594077	-0.651470	0.000080
C38	C	-0.094077	-0.151470	0.500080
C39	C	-0.576513	-0.569510	0.000092
C40	C	-0.076513	-0.069510	0.500092
C41	C	-0.378698	-0.536010	0.000097
C42	C	0.121302	-0.036010	0.500097
C43	C	-0.198437	-0.584476	0.000099
C44	C	0.301563	-0.084476	0.500099
C45	C	-0.216003	-0.666434	0.000093
C46	C	0.283997	-0.166434	0.500093
C47	C	-0.305891	-0.291692	0.000120
C48	C	0.194109	0.208308	0.500120
C49	C	-0.288338	-0.209727	0.000123
C50	C	0.211662	0.290273	0.500123
C51	C	-0.666416	-0.194766	0.000118
C52	C	-0.166416	0.305234	0.500118
C53	C	-0.683964	-0.276728	0.000107
C54	C	-0.183964	0.223272	0.500107
C55	C	-0.503704	-0.325186	0.000113
C56	C	-0.003704	0.174814	0.500113
N57	N	-0.360740	-0.452233	0.000106
N58	N	0.139260	0.047767	0.500106
N59	N	-0.521664	-0.408961	0.000110
N60	N	-0.021664	0.091039	0.500110
C61	C	-0.337742	-0.970946	0.250803
C62	C	0.162258	-0.470946	0.750803
C63	C	-0.348545	-0.966733	0.341610
C64	C	0.151455	-0.466733	0.841610
C65	C	-0.487220	-0.912628	0.387016
C66	C	0.012780	-0.412628	0.887016
C67	C	-0.615085	-0.862725	0.341611
C68	C	-0.115085	-0.362725	0.841611
C69	C	-0.604270	-0.866934	0.250805
C70	C	-0.104270	-0.366934	0.750805
C71	C	-0.533847	-0.894461	0.658596
C72	C	-0.033847	-0.394461	1.158596
C73	C	-0.544658	-0.890257	0.749408
C74	C	-0.044658	-0.390257	1.249408
C75	C	-0.278114	-0.994265	0.749401
C76	C	0.221886	-0.494265	1.249401
C77	C	-0.267319	-0.998472	0.658594
C78	C	0.232681	-0.498472	1.158594
C79	C	-0.395176	-0.948567	0.613196
C80	C	0.104824	-0.448567	1.113196
N81	N	-0.498271	-0.908323	0.479836
N82	N	0.001729	-0.408323	0.979836
N83	N	-0.384114	-0.952869	0.520378
N84	N	0.115886	-0.452869	1.020378
H85	H	-0.755159	-0.678739	0.000075
H86	H	-0.255159	-0.178739	0.500075
F87	F	-0.894505	-0.312374	0.000097
F88	F	-0.394505	0.187626	0.500097
H89	H	-0.813173	-0.155303	0.000115
H90	H	-0.313173	0.344697	0.500115
F91	F	0.012093	-0.548820	0.000110
F92	F	0.512093	-0.048820	0.500110
H93	H	-0.244431	-1.007363	0.378574
H94	H	0.255569	-0.507363	0.878574
H95	H	-0.069226	-0.705890	0.000092
H96	H	0.430774	-0.205890	0.500092
H97	H	-0.657592	-0.846196	0.786374
H98	H	-0.157592	-0.346196	1.286374
F99	F	-0.077788	-0.174076	0.000144
F100	F	0.422212	0.325924	0.500144
F101	F	-0.762666	-0.805137	0.389936
F102	F	-0.262666	-0.305137	0.889936
H103	H	-0.723290	-0.530057	0.000092
H104	H	-0.223290	-0.030057	0.500092
F105	F	-0.669927	-0.841351	0.610287
F106	F	-0.169927	-0.341351	1.110287
H107	H	-0.224828	-1.015007	0.213839
H108	H	0.275172	-0.515007	0.713839
H109	H	-0.708384	-0.826302	0.213841
H110	H	-0.208384	-0.326302	0.713841
H111	H	-0.159109	-0.331137	0.000126
H112	H	0.340891	0.168863	0.500126
F113	F	-0.142043	-1.047372	0.797722
F114	F	0.357957	-0.547372	1.297722
H115	H	-0.154399	-1.042529	0.621626
H116	H	0.345601	-0.542529	1.121626
