data_functionalizedCrystal
_audit_creation_method	'MofGen! by Chris Wilmer'
_symmetry_space_group_name_H-M	'P1'
_symmetry_Int_Tables_number	1
_symmetry_cell_setting	triclinic
loop_
_symmetry_equiv_pos_as_xyz
  x,y,z
_cell_length_a	19.077105
_cell_length_b	14.908178
_cell_length_c	19.076919
_cell_angle_alpha	91.159747
_cell_angle_beta	89.923776
_cell_angle_gamma	90.879305
loop_
_atom_site_label
_atom_site_type_symbol
_atom_site_fract_x
_atom_site_fract_y
_atom_site_fract_z
Zn1	Zn	1.039568	-0.434467	0.420095
Zn2	Zn	1.539568	0.065533	0.920095
Zn3	Zn	1.037992	-0.578863	0.295834
Zn4	Zn	1.537992	-0.078863	0.795834
Zn5	Zn	0.927303	-0.422436	0.298451
Zn6	Zn	1.427303	0.077564	0.798451
Zn7	Zn	0.915837	-0.578321	0.408612
Zn8	Zn	1.415837	-0.078321	0.908612
O9	O	0.980175	-0.503522	0.355748
O10	O	1.480175	-0.003522	0.855748
O11	O	1.137464	-0.458883	0.407322
O12	O	1.637464	0.041117	0.907322
O13	O	1.027448	-0.553304	0.198075
O14	O	1.527448	-0.053304	0.698075
O15	O	0.947654	-0.298363	0.320489
O16	O	1.447654	0.201637	0.820489
O17	O	1.136306	-0.564970	0.316028
O18	O	1.636306	-0.064970	0.816028
O19	O	1.030134	-0.307202	0.409860
O20	O	1.530134	0.192798	0.909860
O21	O	0.946126	-0.438378	0.199998
O22	O	1.446126	0.061622	0.699998
O23	O	0.827677	-0.437853	0.309354
O24	O	1.327677	0.062147	0.809354
O25	O	0.928111	-0.564047	0.508242
O26	O	1.428111	-0.064047	1.008242
O27	O	0.819253	-0.552381	0.390288
O28	O	1.319253	-0.052381	0.890288
O29	O	1.019015	-0.458358	0.516678
O30	O	1.519015	0.041642	1.016678
O31	O	1.016329	-0.704460	0.304893
O32	O	1.516329	-0.204460	0.804893
O33	O	0.926582	-0.704062	0.387751
O34	O	1.426582	-0.204062	0.887751
C35	C	0.798027	-0.493754	0.348859
C36	C	1.298027	0.006246	0.848859
C37	C	0.720102	-0.489597	0.345928
C38	C	1.220102	0.010403	0.845928
C39	C	0.679124	-0.547357	0.386615
C40	C	1.179124	-0.047357	0.886615
C41	C	0.605905	-0.543439	0.383864
C42	C	1.105905	-0.043439	0.883864
C43	C	0.573666	-0.481767	0.340423
C44	C	1.073666	0.018233	0.840423
C45	C	0.614649	-0.424002	0.299735
C46	C	1.114649	0.075998	0.799735
C47	C	0.687867	-0.427915	0.302490
C48	C	1.187867	0.072085	0.802490
C49	C	0.355158	-0.463656	0.327678
C50	C	0.855158	0.036344	0.827678
C51	C	0.281935	-0.459749	0.324924
C52	C	0.781935	0.040251	0.824924
C53	C	0.273196	-0.579186	0.409055
C54	C	0.773196	-0.079186	0.909055
C55	C	0.346416	-0.583097	0.411803
C56	C	0.846416	-0.083097	0.911803
C57	C	0.387393	-0.525329	0.371117
C58	C	0.887393	-0.025329	0.871117
N59	N	0.498825	-0.477764	0.337609
N60	N	0.998825	0.022236	0.837609
N61	N	0.462232	-0.529329	0.373936
N62	N	0.962232	-0.029329	0.873936
C63	C	0.970059	-0.736847	0.344808
C64	C	1.470059	-0.236847	0.844808
C65	C	0.965794	-0.836670	0.340153
C66	C	1.465794	-0.336670	0.840153
C67	C	1.043595	-1.033301	0.424563
C68	C	1.543595	-0.533301	0.924563
C69	C	1.039591	-1.127093	0.420192
C70	C	1.539591	-0.627093	0.920192
C71	C	0.953778	-1.118048	0.327045
C72	C	1.453778	-0.618048	0.827045
C73	C	0.957782	-1.024256	0.331416
C74	C	1.457782	-0.524256	0.831416
C75	C	1.002693	-0.981886	0.380176
C76	C	1.502693	-0.481886	0.880176
C77	C	1.006701	-0.888092	0.384543
C78	C	1.506701	-0.388092	0.884543
C79	C	0.920885	-0.879048	0.291399
C80	C	1.420885	-0.379048	0.791399
C81	C	0.916880	-0.972840	0.287028
C82	C	1.416880	-0.472840	0.787028
C83	C	1.163034	-0.513329	0.362664
C84	C	1.663034	-0.013329	0.862664
C85	C	1.240957	-0.517508	0.365611
C86	C	1.740957	-0.017508	0.865611
C87	C	0.972460	-0.512484	0.538609
C88	C	1.472460	-0.012484	1.038609
C89	C	0.969172	-0.516303	0.616533
C90	C	1.469172	-0.016303	1.116533
C91	C	0.990349	-0.269287	0.366747
C92	C	1.490349	0.230713	0.866747
C93	C	0.994684	-0.169470	0.371434
C94	C	1.494684	0.330530	0.871434
C95	C	0.987903	-0.494532	0.173603
C96	C	1.487903	0.005468	0.673603
C97	C	0.991338	-0.490467	0.095696
C98	C	1.491338	0.009533	0.595696
C99	C	1.014954	-0.463073	0.657536
C100	C	1.514954	0.036927	1.157536
C101	C	1.011856	-0.466657	0.730754
C102	C	1.511856	0.033343	1.230754
C103	C	0.962980	-0.523477	0.762968
C104	C	1.462980	-0.023477	1.262968
C105	C	0.917193	-0.576709	0.721960
C106	C	1.417193	-0.076709	1.221960
C107	C	0.920287	-0.573120	0.648744
C108	C	1.420287	-0.073120	1.148744
C109	C	0.948646	-0.540110	0.981471
C110	C	1.448646	-0.040110	1.481471
C111	C	0.945556	-0.543697	1.054693
C112	C	1.445556	-0.043697	1.554693
C113	C	1.040219	-0.433644	1.063482
C114	C	1.540219	0.066356	1.563482
C115	C	1.043312	-0.430063	0.990264
C116	C	1.543312	0.069937	1.490264
C117	C	0.997523	-0.483291	0.949262
C118	C	1.497523	0.016709	1.449262
N119	N	0.959814	-0.527145	0.837809
N120	N	1.459814	-0.027145	1.337809
N121	N	1.000686	-0.479619	0.874423
N122	N	1.500686	0.020381	1.374423
H123	H	0.705367	-0.597580	0.421987
H124	H	1.205367	-0.097580	0.921987
C125	C	0.869924	-0.631679	0.603641
C126	C	1.369924	-0.131679	1.103641
N127	N	0.831988	-0.675786	0.569670
N128	N	1.331988	-0.175786	1.069670
H129	H	0.572544	-0.590474	0.416995
H130	H	1.072544	-0.090474	0.916995
C131	C	0.863421	-0.639203	0.757399
C132	C	1.363421	-0.139203	1.257399
N133	N	0.822919	-0.686274	0.784090
N134	N	1.322919	-0.186274	1.284090
C135	C	1.062222	-0.408101	0.775854
C136	C	1.562222	0.091899	1.275854
N137	N	1.100159	-0.363994	0.809823
N138	N	1.600159	0.136006	1.309823
C139	C	0.898273	-0.598660	0.936379
C140	C	1.398273	-0.098660	1.436379
N141	N	0.860329	-0.642762	0.902413
N142	N	1.360329	-0.142762	1.402413
C143	C	0.381873	-0.650946	0.459588
C144	C	0.881873	-0.150946	0.959588
N145	N	0.408579	-0.702054	0.495577
N146	N	0.908579	-0.202054	0.995577
C147	C	0.732942	-0.364377	0.257729
C148	C	1.232942	0.135623	0.757729
N149	N	0.766893	-0.316517	0.224016
N150	N	1.266893	0.183483	0.724016
C151	C	1.097074	-0.367547	0.954834
C152	C	1.597074	0.132453	1.454834
N153	N	1.137568	-0.320458	0.928149
N154	N	1.637568	0.179542	1.428149
C155	C	0.875889	-0.822483	0.242570
C156	C	1.375889	-0.322483	0.742570
N157	N	0.842001	-0.779878	0.205791
N158	N	1.342001	-0.279878	0.705791
C159	C	0.246474	-0.391900	0.277135
C160	C	0.746474	0.108100	0.777135
N161	N	0.219764	-0.340800	0.241140
N162	N	0.719764	0.159200	0.741140
C163	C	0.228116	-0.642720	0.453811
C164	C	0.728116	-0.142720	0.953811
N165	N	0.194161	-0.690574	0.487526
N166	N	0.694161	-0.190574	0.987526
C167	C	1.090576	-0.375085	1.108590
C168	C	1.590576	0.124915	1.608590
N169	N	1.128503	-0.330971	1.142565
N170	N	1.628503	0.169029	1.642565
C171	C	0.891783	-0.606204	1.090127
C172	C	1.391783	-0.106204	1.590127
N173	N	0.851283	-0.653281	1.116816
N174	N	1.351283	-0.153281	1.616816
C175	C	1.056104	-0.841487	0.438180
C176	C	1.556104	-0.341487	0.938180
N177	N	1.093313	-0.806386	0.478582
N178	N	1.593313	-0.306386	0.978582
H179	H	0.388513	-0.416623	0.294543
H180	H	0.888513	0.083377	0.794543
H181	H	0.588394	-0.373783	0.264367
H182	H	1.088394	0.126217	0.764367
H183	H	1.080169	-0.998803	0.464261
H184	H	1.580169	-0.498803	0.964261
H185	H	1.072894	-1.168953	0.456341
H186	H	1.572894	-0.668953	0.956341
H187	H	0.917210	-1.152562	0.287350
H188	H	1.417210	-0.652562	0.787350
C189	C	1.068722	-0.400565	0.622108
C190	C	1.568722	0.099435	1.122108
N191	N	1.109220	-0.353479	0.595425
N192	N	1.609220	0.146521	1.095425
C193	C	0.867526	-1.019458	0.233353
C194	C	1.367526	-0.519458	0.733353
N195	N	0.830370	-1.054570	0.192907
N196	N	1.330370	-0.554570	0.692907
