data_functionalizedCrystal
_audit_creation_method	'MofGen! by Chris Wilmer'
_symmetry_space_group_name_H-M	'P1'
_symmetry_Int_Tables_number	1
_symmetry_cell_setting	triclinic
loop_
_symmetry_equiv_pos_as_xyz
  x,y,z
_cell_length_a	21.295417
_cell_length_b	12.827893
_cell_length_c	12.827885
_cell_angle_alpha	89.980728
_cell_angle_beta	89.961900
_cell_angle_gamma	90.030477
loop_
_atom_site_label
_atom_site_type_symbol
_atom_site_fract_x
_atom_site_fract_y
_atom_site_fract_z
Zn1	Zn	-0.250579	1.597560	-0.590788
Zn2	Zn	0.249421	2.097560	-0.090788
Zn3	Zn	-0.355861	1.597408	-0.416023
Zn4	Zn	0.144139	2.097408	0.083977
Zn5	Zn	-0.250610	1.422801	-0.416062
Zn6	Zn	0.249390	1.922801	0.083938
Zn7	Zn	-0.355814	1.422740	-0.590723
Zn8	Zn	0.144186	1.922740	-0.090723
O9	O	-0.303216	1.510127	-0.503399
O10	O	0.196784	2.010127	-0.003399
O11	O	-0.264552	1.743776	-0.567616
O12	O	0.235448	2.243776	-0.067616
O13	O	-0.341932	1.574208	-0.269792
O14	O	0.158068	2.074208	0.230208
O15	O	-0.162516	1.446072	-0.439283
O16	O	0.337484	1.946072	0.060717
O17	O	-0.341902	1.743664	-0.439217
O18	O	0.158098	2.243664	0.060783
O19	O	-0.162494	1.574467	-0.567654
O20	O	0.337506	2.074467	-0.067654
O21	O	-0.264604	1.445925	-0.269821
O22	O	0.235396	1.945925	0.230179
O23	O	-0.264559	1.276557	-0.439220
O24	O	0.235441	1.776557	0.060780
O25	O	-0.341822	1.445969	-0.736968
O26	O	0.158178	1.945969	-0.236968
O27	O	-0.341852	1.276512	-0.567543
O28	O	0.158148	1.776512	-0.067543
O29	O	-0.264506	1.574408	-0.737016
O30	O	0.235494	2.074408	-0.237016
O31	O	-0.443944	1.574149	-0.439154
O32	O	0.056056	2.074149	0.060846
O33	O	-0.443910	1.445821	-0.567505
O34	O	0.056090	1.945821	-0.067505
C35	C	-0.303204	1.238617	-0.503379
C36	C	0.196796	1.738617	-0.003379
C37	C	-0.303214	1.122464	-0.503396
C38	C	0.196786	1.622464	-0.003396
C39	C	-0.341521	1.070685	-0.566796
C40	C	0.158479	1.570685	-0.066796
C41	C	-0.341532	0.950635	-0.566814
C42	C	0.158468	1.450635	-0.066814
C43	C	-0.466768	1.509990	-0.503341
C44	C	0.033232	2.009990	-0.003341
C45	C	-0.536736	1.510027	-0.503351
C46	C	-0.036736	2.010027	-0.003351
C47	C	-0.569600	1.576907	-0.436587
C48	C	-0.069600	2.076907	0.063413
C49	C	-0.635342	1.576956	-0.436611
C50	C	-0.135342	2.076956	0.063389
C51	C	-0.668218	1.510107	-0.503387
C52	C	-0.168218	2.010107	-0.003387
C53	C	-0.635347	1.443222	-0.570165
C54	C	-0.135347	1.943222	-0.070165
C55	C	-0.569606	1.443183	-0.570147
C56	C	-0.069606	1.943183	-0.070147
N57	N	-0.771484	1.418690	-0.511347
N58	N	-0.271484	1.918690	-0.011347
N59	N	-0.833935	1.418731	-0.511358
N60	N	-0.333935	1.918731	-0.011358
C61	C	-0.866293	1.510224	-0.503447
C62	C	-0.366293	2.010224	-0.003447
N63	N	-0.833840	1.601676	-0.495504
N64	N	-0.333840	2.101676	0.004496
N65	N	-0.771383	1.601635	-0.495488
N66	N	-0.271383	2.101635	0.004512
C67	C	-0.739504	1.510143	-0.503415
C68	C	-0.239504	2.010143	-0.003415
C69	C	-0.970442	1.577162	-0.436705
C70	C	-0.470442	2.077162	0.063295
C71	C	-1.036186	1.577213	-0.436736
C72	C	-0.536186	2.077213	0.063264
C73	C	-1.036189	1.443470	-0.570284
C74	C	-0.536189	1.943470	-0.070284
C75	C	-0.970447	1.443429	-0.570259
C76	C	-0.470447	1.943429	-0.070259
C77	C	-0.937577	1.510273	-0.503464
C78	C	-0.437577	2.010273	-0.003464
C79	C	-0.139026	1.510293	-0.503480
C80	C	0.360974	2.010293	-0.003480
C81	C	-0.069058	1.510364	-0.503515
C82	C	0.430942	2.010364	-0.003515
C83	C	-0.303156	1.510198	-0.775969
C84	C	0.196844	2.010198	-0.275969
C85	C	-0.303130	1.510229	-0.892123
C86	C	0.196870	2.010229	-0.392123
C87	C	-0.303229	1.782697	-0.503420
C88	C	0.196771	2.282697	-0.003420
C89	C	-0.303234	1.898851	-0.503428
C90	C	0.196766	2.398851	-0.003428
C91	C	-0.264864	1.573791	-0.943931
C92	C	0.235136	2.073791	-0.443931
C93	C	-0.264837	1.573824	-1.063982
C94	C	0.235163	2.073824	-0.563982
C95	C	-0.303231	1.510117	-0.231889
C96	C	0.196769	2.010117	0.268111
C97	C	-0.303079	1.510289	-0.115737
C98	C	0.196921	2.010289	0.384263
H99	H	-0.374330	0.906106	-0.621090
H100	H	0.125670	1.406106	-0.121090
H101	H	-0.374306	1.115232	-0.621065
H102	H	0.125694	1.615232	-0.121065
H103	H	-0.542839	1.631338	-0.382202
H104	H	-0.042839	2.131338	0.117798
H105	H	-0.662119	1.388795	-0.624536
H106	H	-0.162119	1.888795	-0.124536
H107	H	-0.270439	0.943373	-0.449143
H108	H	0.229561	1.443373	0.050857
H109	H	-0.270424	1.077918	-0.449134
H110	H	0.229576	1.577918	0.050866
H111	H	-0.232078	1.628246	-1.108535
H112	H	0.267922	2.128246	-0.608535
H113	H	-0.662105	1.631421	-0.382244
H114	H	-0.162105	2.131421	0.117756
H115	H	-1.062942	1.631680	-0.382371
H116	H	-0.562942	2.131680	0.117629
H117	H	-0.943679	1.631594	-0.382320
H118	H	-0.443679	2.131594	0.117680
H119	H	-0.335844	1.455871	-1.071189
H120	H	0.164156	1.955871	-0.571189
H121	H	-0.335866	1.455828	-0.936644
H122	H	0.164134	1.955828	-0.436644
H123	H	-0.542847	1.388721	-0.624515
H124	H	-0.042847	1.888721	-0.124515
H125	H	-1.062957	1.389045	-0.624660
H126	H	-0.562957	1.889045	-0.124660
H127	H	-0.943688	1.388965	-0.624620
H128	H	-0.443688	1.888965	-0.124620
H129	H	-0.232122	1.628182	-0.899409
H130	H	0.267878	2.128182	-0.399409
