data_functionalizedCrystal
_audit_creation_method	'MofGen! by Chris Wilmer'
_symmetry_space_group_name_H-M	'P1'
_symmetry_Int_Tables_number	1
_symmetry_cell_setting	triclinic
loop_
_symmetry_equiv_pos_as_xyz
  x,y,z
_cell_length_a	17.077404
_cell_length_b	17.640280
_cell_length_c	17.639477
_cell_angle_alpha	109.653959
_cell_angle_beta	78.807760
_cell_angle_gamma	78.800538
loop_
_atom_site_label
_atom_site_type_symbol
_atom_site_fract_x
_atom_site_fract_y
_atom_site_fract_z
Zn1	Zn	1.166803	-0.233837	0.399721
Zn2	Zn	1.233254	-0.399508	0.234086
Zn3	Zn	1.068803	-0.261727	0.261922
Zn4	Zn	1.068782	-0.371604	0.371860
O5	O	1.134411	-0.316669	0.316897
O6	O	1.285464	-0.255819	0.377760
O7	O	1.239258	-0.404581	0.122450
O8	O	1.054002	-0.142710	0.303511
O9	O	1.334285	-0.377537	0.256069
O10	O	1.126002	-0.122219	0.404751
O11	O	1.118436	-0.303354	0.142901
O12	O	0.958954	-0.276297	0.276495
O13	O	1.053966	-0.329979	0.490884
O14	O	0.958939	-0.357023	0.357266
O15	O	1.125982	-0.228762	0.511354
O16	O	1.239238	-0.511124	0.229053
O17	O	1.118401	-0.490623	0.330275
C18	C	0.930465	-0.316659	0.316878
C19	C	0.843216	-0.316670	0.316885
C20	C	0.802278	-0.358801	0.358842
C21	C	0.720294	-0.358800	0.358855
C22	C	0.679253	-0.316673	0.316905
C23	C	0.720196	-0.274537	0.274947
C24	C	0.802175	-0.274533	0.274940
C25	C	0.549325	-0.274549	0.274963
C26	C	0.467340	-0.274554	0.274969
C27	C	0.467444	-0.358816	0.358878
C28	C	0.549424	-0.358812	0.358871
C29	C	0.590361	-0.316677	0.316912
C30	C	1.186045	-0.530770	0.273638
C31	C	1.208199	-0.622358	0.255159
C32	C	0.966355	-0.870410	0.457581
C33	C	0.987181	-0.956476	0.440190
C34	C	1.113045	-0.977737	0.334895
C35	C	1.092232	-0.891670	0.352279
C36	C	1.018886	-0.838013	0.413622
C37	C	1.144763	-0.859274	0.308320
C38	C	1.123949	-0.773215	0.325700
C39	C	1.050605	-0.719553	0.387039
C40	C	0.998072	-0.751955	0.431002
C41	C	1.218106	-0.912933	0.246974
C42	C	1.270637	-0.880536	0.203015
C43	C	1.249826	-0.794475	0.220399
C44	C	1.176482	-0.740814	0.281737
C45	C	1.302359	-0.762074	0.176436
C46	C	1.281546	-0.676015	0.193816
C47	C	1.155669	-0.654755	0.299117
C48	C	1.339153	-0.316680	0.316918
C49	C	1.426402	-0.316684	0.316926
C50	C	1.082559	-0.273147	0.531859
C51	C	1.060463	-0.254600	0.623462
C52	C	1.082592	-0.101728	0.360344
C53	C	1.060510	-0.010133	0.378858
C54	C	1.186091	-0.359963	0.102785
C55	C	1.208283	-0.378277	0.011228
C56	C	1.302331	-0.457122	0.871473
C57	C	1.281557	-0.439685	0.957550
C58	C	1.155753	-0.334284	0.978843
C59	C	1.176515	-0.351715	0.892765
C60	C	1.249806	-0.413134	0.839086
C61	C	1.123990	-0.307727	0.860379
C62	C	1.144753	-0.325154	0.774309
C63	C	1.218041	-0.386568	0.720626
C64	C	1.270569	-0.430560	0.753017
C65	C	1.050703	-0.246304	0.914060
C66	C	0.998177	-0.202317	0.881674
C67	C	1.018937	-0.219747	0.795602
C68	C	1.092225	-0.281161	0.741918
C69	C	0.966409	-0.175755	0.763211
C70	C	0.987172	-0.193181	0.677141
C71	C	1.112988	-0.298588	0.655848
H72	H	0.582650	-0.240230	0.240804
C73	C	0.846677	-0.404552	0.404473
C74	C	0.793266	-0.441427	0.441240
C75	C	0.834130	-0.483569	0.483296
H76	H	0.894917	-0.446857	0.365720
H77	H	0.862377	-0.365811	0.446829
H78	H	0.777578	-0.480165	0.398889
H79	H	0.745025	-0.399140	0.480005
H80	H	0.849830	-0.444827	0.525652
H81	H	0.882369	-0.525870	0.444537
H82	H	0.797894	-0.508587	0.508253
H83	H	0.433921	-0.240239	0.240822
H84	H	0.434107	-0.393120	0.393046
H85	H	1.330255	-0.480566	0.709309
H86	H	1.235051	-0.983006	0.232827
C87	C	1.338704	-0.640990	0.146028
C88	C	1.407403	-0.706396	0.088602
C89	C	1.460078	-0.674163	0.044567
H90	H	1.309362	-0.614740	0.116792
H91	H	1.357191	-0.601014	0.184351
H92	H	1.388916	-0.746358	0.050283
H93	H	1.436767	-0.732653	0.117815
H94	H	1.478565	-0.634187	0.082891
H95	H	1.430728	-0.647913	0.015337
H96	H	1.506699	-0.718534	0.005605
C97	C	0.675651	-0.228953	0.229276
C98	C	0.652589	-0.286244	0.166954
C99	C	0.611564	-0.244284	0.124856
H100	H	0.627365	-0.186708	0.268018
H101	H	0.711763	-0.203881	0.204236
H102	H	0.616478	-0.311302	0.191992
H103	H	0.700860	-0.328489	0.128193
H104	H	0.647676	-0.219213	0.099817
H105	H	0.563281	-0.202041	0.163605
H106	H	0.595918	-0.283151	0.082561
H107	H	1.096081	-0.284275	1.022560
H108	H	1.362017	-0.507127	0.827765
H109	H	1.033803	-0.232114	0.984144
C110	C	0.846501	-0.228784	0.229295
C111	C	0.793023	-0.191913	0.192537
C112	C	0.833829	-0.149769	0.150474
H113	H	0.862229	-0.186477	0.268043
H114	H	0.894727	-0.267524	0.186934
H115	H	0.744812	-0.153176	0.234894
H116	H	0.777291	-0.234202	0.153777
H117	H	0.882055	-0.188509	0.108113
H118	H	0.849556	-0.107466	0.189227
H119	H	0.797553	-0.124754	0.125522
H120	H	1.095947	-0.611063	0.349075
H121	H	1.324336	-0.475508	0.983914
H122	H	1.172674	-0.348593	0.612141
H123	H	1.330354	-0.924235	0.153067
H124	H	1.362073	-0.805775	0.126485
C125	C	0.918623	-0.135696	0.940087
C126	C	0.911670	-0.129860	1.022394
C127	C	0.838388	-0.068507	1.076223
H128	H	0.920079	-0.083130	0.937279
H129	H	0.872166	-0.150612	0.923584
H130	H	0.958114	-0.114939	1.038892
H131	H	0.910200	-0.182410	1.025228
H132	H	0.791932	-0.083423	1.059719
H133	H	0.839851	-0.015946	1.073407
H134	H	0.833658	-0.064545	1.132072
H135	H	1.234947	-0.400753	0.650543
C136	C	0.886752	-0.109139	0.821382
C137	C	0.818461	-0.131306	0.796805
C138	C	0.745068	-0.069954	0.850365
H139	H	0.881790	-0.105003	0.877304
H140	H	0.888249	-0.056618	0.818451
H141	H	0.816964	-0.183812	0.799744
H142	H	0.823396	-0.135435	0.740891
H143	H	0.746565	-0.017433	0.847434
H144	H	0.740114	-0.065823	0.906284
H145	H	0.698724	-0.084981	0.833692
H146	H	0.944403	-0.157359	0.650773
H147	H	0.582840	-0.393121	0.393025
H148	H	0.686967	-0.393108	0.393019
C149	C	1.028041	-0.626152	0.405737
C150	C	1.020149	-0.613596	0.332995
C151	C	0.999374	-0.527568	0.350185
H152	H	0.976830	-0.598743	0.448523
H153	H	1.070528	-0.603722	0.423942
H154	H	0.977665	-0.636016	0.314801
H155	H	1.071351	-0.640985	0.290199
H156	H	1.041861	-0.505138	0.368390
H157	H	0.948164	-0.500167	0.392973
H158	H	0.994024	-0.519038	0.300831
H159	H	0.906634	-0.826718	0.507538
C160	C	0.918485	-0.693762	0.497726
C161	C	0.920898	-0.698166	0.575057
C162	C	0.847599	-0.644577	0.636539
H163	H	0.913541	-0.637836	0.501890
H164	H	0.872066	-0.710360	0.482814
H165	H	0.967304	-0.681563	0.589966
H166	H	0.925829	-0.754080	0.570920
H167	H	0.801181	-0.661175	0.621627
H168	H	0.842662	-0.588655	0.640695
H169	H	0.849224	-0.647564	0.689013
C170	C	0.930200	-0.991580	0.488071
C171	C	0.922503	-0.954121	0.573860
C172	C	0.870030	-0.986448	0.617989
H173	H	0.876943	-0.979990	0.478899
H174	H	0.953096	-1.050515	0.468989
H175	H	0.899604	-0.895200	0.592936
H176	H	0.975745	-0.965708	0.583057
H177	H	0.892926	-1.045382	0.598907
H178	H	0.816777	-0.974855	0.608810
H179	H	0.864807	-0.961042	0.676201
C180	C	1.192652	-1.036129	0.268344
C181	C	1.199643	-1.118429	0.262538
C182	C	1.272969	-1.172239	0.201244
H183	H	1.191232	-1.033356	0.215755
H184	H	1.239074	-1.019583	0.283304
H185	H	1.153233	-1.134970	0.247573
H186	H	1.201077	-1.121229	0.315111
H187	H	1.319392	-1.155694	0.216203
H188	H	1.271543	-1.169459	0.148660
H189	H	1.277727	-1.228085	0.197301
