data_functionalizedCrystal
_audit_creation_method	'MofGen! by Chris Wilmer'
_symmetry_space_group_name_H-M	'P1'
_symmetry_Int_Tables_number	1
_symmetry_cell_setting	triclinic
loop_
_symmetry_equiv_pos_as_xyz
  x,y,z
_cell_length_a	17.699083
_cell_length_b	17.699083
_cell_length_c	15.186229
_cell_angle_alpha	89.995368
_cell_angle_beta	90.002674
_cell_angle_gamma	83.283015
loop_
_atom_site_label
_atom_site_type_symbol
_atom_site_fract_x
_atom_site_fract_y
_atom_site_fract_z
O1	O	1.004075	0.095710	-0.073107
O2	O	1.504075	0.595710	0.426893
O3	O	0.783696	0.108163	-0.073136
O4	O	1.283696	0.608163	0.426864
O5	O	0.900112	-0.008253	-0.073113
O6	O	1.400112	0.491747	0.426887
O7	O	0.887659	0.212126	-0.073130
O8	O	1.387659	0.712126	0.426870
O9	O	0.900104	-0.008254	0.073344
O10	O	1.400104	0.491746	0.573344
O11	O	0.783689	0.108161	0.073321
O12	O	1.283689	0.608161	0.573321
O13	O	1.004067	0.095709	0.073350
O14	O	1.504067	0.595709	0.573350
Zn15	Zn	0.893876	0.101935	0.096589
Zn16	Zn	1.393876	0.601935	0.596589
Zn17	Zn	0.893887	0.101937	-0.096375
Zn18	Zn	1.393887	0.601937	0.403625
O19	O	0.887652	0.212124	0.073327
O20	O	1.387652	0.712124	0.573327
C21	C	0.755495	0.107716	0.000089
C22	C	1.255495	0.607716	0.500089
C23	C	0.671477	0.106377	0.000078
C24	C	1.171477	0.606377	0.500078
C25	C	0.622856	0.174710	0.000073
C26	C	1.122856	0.674710	0.500073
C27	C	0.543913	0.173448	0.000085
C28	C	1.043913	0.673448	0.500085
C29	C	0.513592	0.103852	0.000095
C30	C	1.013592	0.603852	0.500095
C31	C	0.562219	0.035513	0.000103
C32	C	1.062219	0.535513	0.500103
C33	C	0.641161	0.036776	0.000097
C34	C	1.141161	0.536776	0.500097
C35	C	0.243856	0.030418	0.000125
C36	C	0.743856	0.530418	0.500125
C37	C	0.164908	0.029160	0.000127
C38	C	0.664908	0.529160	0.500127
C39	C	0.146608	0.167090	0.000112
C40	C	0.646608	0.667090	0.500112
C41	C	0.225550	0.168353	0.000107
C42	C	0.725550	0.668353	0.500107
C43	C	0.274170	0.100015	0.000119
C44	C	0.774170	0.600015	0.500119
C45	C	0.359769	0.101384	0.000108
C46	C	0.859769	0.601384	0.500108
C47	C	0.427995	0.102481	0.000099
C48	C	0.927995	0.602481	0.500099
C49	C	0.899662	-0.036451	0.000116
C50	C	1.399662	0.463549	0.500116
C51	C	0.898323	-0.120469	0.000116
C52	C	1.398323	0.379531	0.500116
C53	C	0.966656	-0.169090	0.000126
C54	C	1.466656	0.330910	0.500126
C55	C	0.965394	-0.248033	0.000118
C56	C	1.465394	0.251967	0.500118
C57	C	0.895798	-0.278354	0.000106
C58	C	1.395798	0.221646	0.500106
C59	C	0.827459	-0.229727	0.000094
C60	C	1.327459	0.270273	0.500094
C61	C	0.828722	-0.150785	0.000095
C62	C	1.328722	0.349215	0.500095
C63	C	0.822364	-0.548090	0.000086
C64	C	1.322364	-0.048090	0.500086
C65	C	0.821106	-0.627038	0.000087
C66	C	1.321106	-0.127038	0.500087
C67	C	0.959036	-0.645338	0.000109
C68	C	1.459036	-0.145338	0.500109
C69	C	0.960299	-0.566396	0.000111
C70	C	1.460299	-0.066396	0.500111
C71	C	0.891961	-0.517776	0.000093
C72	C	1.391961	-0.017776	0.500093
C73	C	0.893330	-0.432177	0.000100
C74	C	1.393330	0.067823	0.500100
C75	C	0.894427	-0.363951	0.000106
C76	C	1.394427	0.136049	0.500106
C77	C	1.032268	0.096156	0.000123
C78	C	1.532268	0.596156	0.500123
C79	C	1.116286	0.097494	0.000129
C80	C	1.616286	0.597494	0.500129
C81	C	0.888102	0.240322	0.000097
C82	C	1.388102	0.740322	0.500097
C83	C	0.889440	0.324340	0.000091
C84	C	1.389440	0.824340	0.500091
N85	N	0.893875	0.101933	0.228282
N86	N	1.393875	0.601933	0.728282
N87	N	0.893894	0.101933	-0.228067
N88	N	1.393894	0.601933	0.271933
C89	C	0.945441	0.050401	0.454015
C90	C	1.445441	0.550401	0.954015
C91	C	0.945444	0.050399	0.546205
C92	C	1.445444	0.550399	1.046205
C93	C	0.842322	0.153467	0.546193
C94	C	1.342322	0.653467	1.046193
C95	C	0.842317	0.153464	0.454005
C96	C	1.342317	0.653464	0.954005
C97	C	0.893881	0.101932	0.407918
C98	C	1.393881	0.601932	0.907918
C99	C	0.893889	0.101933	0.592296
C100	C	1.393889	0.601933	1.092296
C101	C	0.893891	0.101931	0.692252
C102	C	1.393891	0.601931	1.192252
C103	C	0.893878	0.101933	0.307956
C104	C	1.393878	0.601933	0.807956
H105	H	0.107012	0.222734	0.000107
H106	H	0.607012	0.722734	0.500107
H107	H	0.800341	0.195424	0.583726
H108	H	1.300341	0.695424	1.083726
C109	C	0.991173	0.004581	0.312702
C110	C	1.491173	0.504581	0.812702
C111	C	1.002078	-0.006282	0.403354
C112	C	1.502078	0.493718	0.903354
H113	H	1.026131	-0.030423	0.281430
H114	H	1.526131	0.469577	0.781430
H115	H	0.940668	-0.003537	0.297624
H116	H	1.440668	0.496463	0.797624
H117	H	0.999339	0.055070	0.297572
H118	H	1.499339	0.555070	0.797572
H119	H	0.993907	-0.056770	0.418485
H120	H	1.493907	0.443230	0.918485
H121	H	1.052595	0.001830	0.418438
H122	H	1.552595	0.501830	0.918438
C123	C	0.190924	-0.107063	0.000163
C124	C	0.690924	0.392937	0.500163
C125	C	0.131579	-0.047346	0.000148
C126	C	0.631579	0.452654	0.500148
H127	H	0.170345	-0.154291	0.000180
H128	H	0.670345	0.345709	0.500180
H129	H	0.221330	-0.103710	-0.050908
H130	H	0.721330	0.396290	0.449092
H131	H	0.221337	-0.103694	0.051238
H132	H	0.721337	0.396306	0.551238
H133	H	0.101168	-0.050713	-0.050931
H134	H	0.601168	0.449287	0.449069
H135	H	0.101160	-0.050701	0.051224
H136	H	0.601160	0.449299	0.551224
H137	H	0.537526	-0.021154	0.000124
H138	H	1.037526	0.478846	0.500124
H139	H	0.770792	-0.254420	0.000078
H140	H	1.270792	0.245580	0.500078
C141	C	0.343236	-0.048185	-0.075163
C142	C	0.843236	0.451815	0.424837
C143	C	0.297292	-0.044699	0.000126
C144	C	0.797292	0.455301	0.500126
H145	H	0.376229	-0.094561	-0.075159
H146	H	0.876229	0.405439	0.424841
H147	H	0.312054	-0.045807	-0.126224
H148	H	0.812054	0.454193	0.373776
H149	H	0.372593	-0.006556	-0.075156
H150	H	0.872593	0.493444	0.424844
H151	H	0.267931	-0.086326	0.000116
H152	H	0.767931	0.413674	0.500116
H153	H	0.328477	-0.047085	0.051201
H154	H	0.828477	0.452915	0.551201
H155	H	0.773078	-0.111198	0.000087
H156	H	1.273078	0.388802	0.500087
H157	H	0.987428	0.008437	0.583734
H158	H	1.487428	0.508437	1.083734
H159	H	0.766718	-0.508512	0.000072
H160	H	1.266718	-0.008512	0.500072
C161	C	0.797630	0.284553	0.425595
C162	C	1.297630	0.784553	0.925595
C163	C	0.785640	0.210114	0.403329
C164	C	1.285640	0.710114	0.903329
H165	H	0.762643	0.319522	0.394305
H166	H	1.262643	0.819522	0.894305
H167	H	0.790251	0.291927	0.487087
H168	H	1.290251	0.791927	0.987087
H169	H	0.848127	0.292697	0.410480
H170	H	1.348127	0.792697	0.910480
H171	H	0.735144	0.201969	0.418450
H172	H	1.235144	0.701969	0.918450
H173	H	0.793013	0.202737	0.341823
H174	H	1.293013	0.702737	0.841823
C175	C	0.596829	0.310925	0.000067
C176	C	1.096829	0.810925	0.500067
C177	C	0.656181	0.251215	0.000064
C178	C	1.156181	0.751215	0.500064
H179	H	0.617402	0.358156	0.000069
H180	H	1.117402	0.858156	0.500069
H181	H	0.566418	0.307566	-0.051001
H182	H	1.066418	0.807566	0.448999
H183	H	0.566424	0.307555	0.051146
H184	H	1.066424	0.807555	0.551146
H185	H	0.686583	0.254581	-0.051018
H186	H	1.186583	0.754581	0.448982
H187	H	0.686605	0.254576	0.051137
H188	H	1.186605	0.754576	0.551137
H189	H	1.023330	-0.144409	0.000141
H190	H	1.523330	0.355591	0.500141
C191	C	0.414775	0.232760	0.000080
C192	C	0.914775	0.732760	0.500080
C193	C	0.490468	0.248562	0.000069
C194	C	0.990468	0.748562	0.500069
H195	H	0.381781	0.279135	0.000074
H196	H	0.881781	0.779135	0.500074
H197	H	0.405598	0.204215	-0.050981
H198	H	0.905598	0.704215	0.449019
H199	H	0.405608	0.204223	0.051165
H200	H	0.905608	0.704223	0.551165
H201	H	0.499636	0.277095	-0.051020
H202	H	0.999636	0.777095	0.448980
H203	H	0.499648	0.277119	0.051135
H204	H	0.999648	0.777119	0.551135
C205	C	0.199529	0.304569	0.000103
C206	C	0.699529	0.804569	0.500103
C207	C	0.258877	0.244855	0.000100
C208	C	0.758877	0.744855	0.500100
H209	H	0.220105	0.351798	0.000107
H210	H	0.720105	0.851798	0.500107
H211	H	0.169118	0.301212	-0.050966
H212	H	0.669118	0.801212	0.449034
H213	H	0.169122	0.301200	0.051181
H214	H	0.669122	0.801200	0.551181
H215	H	0.289281	0.248221	-0.050981
H216	H	0.789281	0.748221	0.449019
H217	H	0.289301	0.248214	0.051174
H218	H	0.789301	0.748214	0.551174
H219	H	1.021038	-0.287618	0.000129
H220	H	1.521038	0.212382	0.500129
C221	C	0.681070	-0.080400	-0.075189
C222	C	1.181070	0.419600	0.424811
C223	C	0.694611	-0.038336	0.000096
C224	C	1.194611	0.461664	0.500096
H225	H	0.714071	-0.126769	-0.075188
H226	H	1.214071	0.373231	0.424812
H227	H	0.629723	-0.091112	-0.075178
H228	H	1.129723	0.408888	0.424822
H229	H	0.690244	-0.051846	-0.126258
H230	H	1.190244	0.448154	0.373742
H231	H	0.685431	-0.066888	0.051166
H232	H	1.185431	0.433112	0.551166
H233	H	0.745970	-0.027626	0.000093
H234	H	1.245970	0.472374	0.500093
C235	C	1.096515	-0.592417	0.000121
C236	C	1.596515	-0.092417	0.500121
C237	C	1.036801	-0.533068	0.000119
C238	C	1.536801	-0.033068	0.500119
H239	H	1.143744	-0.571841	0.000119
H240	H	1.643744	-0.071841	0.500119
H241	H	1.093155	-0.622827	0.051191
H242	H	1.593155	-0.122827	0.551191
H243	H	1.093149	-0.622824	-0.050955
H244	H	1.593149	-0.122824	0.449045
H245	H	1.040164	-0.502664	0.051199
H246	H	1.540164	-0.002664	0.551199
H247	H	1.040163	-0.502645	-0.050956
H248	H	1.540163	-0.002645	0.449044
H249	H	1.014680	-0.684934	0.000119
H250	H	1.514680	-0.184934	0.500119
H251	H	0.764429	-0.651721	0.000079
H252	H	1.264429	-0.151721	0.500079
