data_functionalizedCrystal
_audit_creation_method	'MofGen! by Chris Wilmer'
_symmetry_space_group_name_H-M	'P1'
_symmetry_Int_Tables_number	1
_symmetry_cell_setting	triclinic
loop_
_symmetry_equiv_pos_as_xyz
  x,y,z
_cell_length_a	10.654550
_cell_length_b	17.699083
_cell_length_c	9.130313
_cell_angle_alpha	89.994594
_cell_angle_beta	89.999724
_cell_angle_gamma	83.883973
loop_
_atom_site_label
_atom_site_type_symbol
_atom_site_fract_x
_atom_site_fract_y
_atom_site_fract_z
O1	O	1.665979	0.106303	-0.121693
O2	O	1.300323	0.116430	-0.121721
O3	O	1.493481	0.001243	-0.121693
O4	O	1.472820	0.221490	-0.121721
O5	O	1.493468	0.001240	0.121906
O6	O	1.300310	0.116427	0.121878
O7	O	1.665966	0.106299	0.121906
Cu8	Cu	1.483136	0.111363	0.144134
Cu9	Cu	1.483152	0.111367	-0.143949
O10	O	1.472807	0.221487	0.121878
C11	C	1.253531	0.115685	0.000076
C12	C	1.114127	0.113460	0.000066
C13	C	1.492735	-0.026960	0.000106
C14	C	1.490514	-0.110993	0.000107
C15	C	1.033454	0.181281	0.000061
C16	C	0.902470	0.179186	0.000087
C17	C	0.932844	0.041444	0.000115
C18	C	1.063826	0.043539	0.000100
C19	C	1.603894	-0.158893	0.000117
C20	C	1.601799	-0.237849	0.000104
C21	C	1.486323	-0.268904	0.000091
C22	C	1.372935	-0.220998	0.000076
C23	C	1.375030	-0.142043	0.000079
C24	C	1.364481	-0.539415	0.000064
C25	C	1.362394	-0.618376	0.000065
C26	C	1.591249	-0.635221	0.000089
C27	C	1.593345	-0.556266	0.000092
C28	C	1.479957	-0.508367	0.000069
C29	C	1.482229	-0.422753	0.000080
C30	C	1.484050	-0.354516	0.000090
C31	C	1.712757	0.107045	0.000106
C32	C	1.852161	0.109269	0.000107
C33	C	1.473554	0.249690	0.000075
C34	C	1.475775	0.333722	0.000065
N35	N	1.483135	0.111360	0.346757
N36	N	1.483164	0.111364	-0.346572
C37	C	1.568694	0.060376	0.423421
C38	C	1.568706	0.060376	0.576758
C39	C	1.397596	0.162350	0.576753
C40	C	1.397579	0.162345	0.423419
H41	H	1.074405	0.238215	0.000044
H42	H	0.836791	0.234412	0.000087
H43	H	1.268354	-0.643657	0.000058
C44	C	1.228749	-0.034011	-0.125127
C45	C	1.152516	-0.031014	0.000101
H46	H	1.283506	-0.080032	-0.125115
H47	H	1.177015	-0.031971	-0.210055
H48	H	1.277444	0.007935	-0.125124
H49	H	1.103814	-0.072957	0.000093
H50	H	1.204256	-0.033060	0.085051
H51	H	1.638374	0.018860	0.639173
H52	H	0.891873	-0.015484	0.000152
C53	C	1.829904	-0.183483	0.000116
C54	C	1.730830	-0.124761	0.000121
H55	H	1.908270	-0.162412	0.000104
H56	H	1.824327	-0.213929	0.085061
H57	H	1.824314	-0.213925	-0.084837
H58	H	1.736415	-0.094322	0.085081
H59	H	1.736410	-0.094302	-0.084832
H60	H	1.272153	-0.500424	0.000046
H61	H	1.687377	-0.530986	0.000109
H62	H	1.327900	0.203862	0.360995
H63	H	1.694125	-0.276847	0.000116
C64	C	1.721694	-0.733774	-0.125141
C65	C	1.715893	-0.687874	0.000091
H66	H	1.798645	-0.766274	-0.125138
H67	H	1.652633	-0.763568	-0.125142
H68	H	1.717757	-0.702608	-0.210075
H69	H	1.719821	-0.719040	0.085026
H70	H	1.784973	-0.658077	0.000105
C71	C	1.268100	-0.334549	0.000078
C72	C	1.246000	-0.255132	0.000067
H73	H	1.189733	-0.355618	0.000086
H74	H	1.314768	-0.350943	-0.084862
H75	H	1.314773	-0.350945	0.085036
H76	H	1.199335	-0.238735	-0.084897
H77	H	1.199313	-0.238731	0.085016
C78	C	1.180070	0.205566	0.624002
C79	C	1.303561	0.218392	0.661032
H80	H	1.122019	0.240163	0.676039
H81	H	1.167820	0.212865	0.521723
H82	H	1.166618	0.154974	0.649154
H83	H	1.317016	0.268983	0.635869
H84	H	1.315816	0.211100	0.763333
H85	H	1.282705	-0.103043	0.000070
C86	C	1.737818	-0.040426	0.438833
C87	C	1.662724	0.004326	0.339153
H88	H	1.795861	-0.075033	0.386808
H89	H	1.782895	-0.008667	0.498616
H90	H	1.685623	-0.067938	0.498659
H91	H	1.714918	0.031843	0.279332
H92	H	1.617644	-0.027437	0.279344
