data_functionalizedCrystal
_audit_creation_method	'MofGen! by Chris Wilmer'
_symmetry_space_group_name_H-M	'P1'
_symmetry_Int_Tables_number	1
_symmetry_cell_setting	triclinic
loop_
_symmetry_equiv_pos_as_xyz
  x,y,z
_cell_length_a	18.050591
_cell_length_b	18.050589
_cell_length_c	18.050582
_cell_angle_alpha	90.018205
_cell_angle_beta	90.010544
_cell_angle_gamma	90.027061
loop_
_atom_site_label
_atom_site_type_symbol
_atom_site_fract_x
_atom_site_fract_y
_atom_site_fract_z
Zn1	Zn	1.135292	-0.295730	0.419848
Zn2	Zn	1.468626	0.037604	0.753182
Zn3	Zn	1.801959	0.370937	1.086515
Zn4	Zn	1.135203	-0.419913	0.295668
Zn5	Zn	1.468536	-0.086580	0.629001
Zn6	Zn	1.801870	0.246754	0.962334
Zn7	Zn	1.011112	-0.295739	0.295682
Zn8	Zn	1.344445	0.037595	0.629015
Zn9	Zn	1.677778	0.370928	0.962349
Zn10	Zn	1.011060	-0.419880	0.419826
Zn11	Zn	1.344393	-0.086546	0.753159
Zn12	Zn	1.677726	0.246787	1.086492
O13	O	1.073167	-0.357815	0.357756
O14	O	1.406500	-0.024482	0.691089
O15	O	1.739833	0.308851	1.024423
O16	O	1.239205	-0.312213	0.403379
O17	O	1.572539	0.021120	0.736712
O18	O	1.905872	0.354454	1.070046
O19	O	1.118727	-0.403459	0.191745
O20	O	1.452060	-0.070125	0.525078
O21	O	1.785393	0.263208	0.858412
O22	O	1.027644	-0.191813	0.312168
O23	O	1.360977	0.141520	0.645502
O24	O	1.694310	0.474854	0.978835
O25	O	1.239140	-0.403450	0.312144
O26	O	1.572473	-0.070116	0.645477
O27	O	1.905806	0.263217	0.978811
O28	O	1.118879	-0.191806	0.403393
O29	O	1.452212	0.141527	0.736726
O30	O	1.785545	0.474860	1.070059
O31	O	1.027557	-0.312228	0.191755
O32	O	1.360890	0.021105	0.525089
O33	O	1.694224	0.354438	0.858422
O34	O	0.907180	-0.312196	0.312146
O35	O	1.240514	0.021137	0.645480
O36	O	1.573847	0.354470	0.978813
O37	O	1.027555	-0.403393	0.523753
O38	O	1.360888	-0.070060	0.857087
O39	O	1.694222	0.263273	1.190420
O40	O	0.907142	-0.403402	0.403354
O41	O	1.240475	-0.070069	0.736688
O42	O	1.573809	0.263264	1.070021
O43	O	1.118828	-0.312181	0.523770
O44	O	1.452162	0.021153	0.857103
O45	O	1.785495	0.354486	1.190437
O46	O	1.118676	-0.523833	0.312122
O47	O	1.452009	-0.190500	0.645456
O48	O	1.785343	0.142834	0.978789
O49	O	1.027468	-0.523809	0.403341
O50	O	1.360802	-0.190475	0.736674
O51	O	1.694135	0.142858	1.070007
C52	C	0.880215	-0.357797	0.357750
C53	C	1.213548	-0.024464	0.691083
C54	C	1.546881	0.308869	1.024417
C55	C	0.797669	-0.357807	0.357765
C56	C	1.131002	-0.024474	0.691098
C57	C	1.464336	0.308859	1.024432
C58	C	0.548844	-0.407508	0.407296
C59	C	0.882177	-0.074174	0.740630
C60	C	1.215511	0.259159	1.073963
C61	C	0.598214	-0.425579	0.339512
C62	C	0.931547	-0.092245	0.672845
C63	C	1.264881	0.241088	1.006178
C64	C	0.500548	-0.357831	0.357764
C65	C	0.833882	-0.024497	0.691097
C66	C	1.167215	0.308836	1.024430
C67	C	0.598260	-0.339783	0.425545
C68	C	0.931593	-0.006450	0.758878
C69	C	1.264927	0.326884	1.092211
C70	C	0.646534	-0.357821	0.357768
C71	C	0.979867	-0.024488	0.691101
C72	C	1.313200	0.308846	1.024434
C73	C	0.548831	-0.375937	0.289943
C74	C	0.882164	-0.042603	0.623276
C75	C	1.215498	0.290730	0.956610
C76	C	0.548873	-0.290110	0.376022
C77	C	0.882206	0.043224	0.709355
C78	C	1.215540	0.376557	1.042689
C79	C	0.598221	-0.308155	0.308191
C80	C	0.931554	0.025178	0.641524
C81	C	1.264887	0.358512	0.974857
C82	C	0.416450	-0.357838	0.357762
C83	C	0.749783	-0.024505	0.691095
C84	C	1.083117	0.308829	1.024429
C85	C	0.730630	-0.357813	0.357762
C86	C	1.063963	-0.024480	0.691095
C87	C	1.397297	0.308853	1.024428
C88	C	1.073077	-0.550767	0.357744
C89	C	1.406410	-0.217434	0.691077
C90	C	1.739744	0.115899	1.024410
C91	C	1.073107	-0.633313	0.357763
C92	C	1.406440	-0.299980	0.691097
C93	C	1.739773	0.033353	1.024430
C94	C	1.023557	-0.832778	0.407350
C95	C	1.356890	-0.499444	0.740684
C96	C	1.690223	-0.166111	1.074017
C97	C	1.005459	-0.882211	0.339584
C98	C	1.338792	-0.548878	0.672918
C99	C	1.672125	-0.215545	1.006251
C100	C	1.073180	-0.784444	0.357773
C101	C	1.406513	-0.451110	0.691106
C102	C	1.739846	-0.117777	1.024440
C103	C	1.091314	-0.882092	0.425547
C104	C	1.424647	-0.548758	0.758880
C105	C	1.757981	-0.215425	1.092213
C106	C	1.073249	-0.930429	0.357788
C107	C	1.406582	-0.597095	0.691122
C108	C	1.739915	-0.263762	1.024455
C109	C	1.055046	-0.832790	0.289971
C110	C	1.388380	-0.499457	0.623304
C111	C	1.721713	-0.166123	0.956638
C112	C	1.140933	-0.832666	0.375979
C113	C	1.474266	-0.499333	0.709312
C114	C	1.807599	-0.165999	1.042646
C115	C	1.122861	-0.882077	0.308166
C116	C	1.456194	-0.548744	0.641500
C117	C	1.789527	-0.215411	0.974833
C118	C	1.073138	-0.700345	0.357765
C119	C	1.406471	-0.367012	0.691098
C120	C	1.739805	-0.033679	1.024432
C121	C	1.073291	-1.014525	0.357788
C122	C	1.406624	-0.681192	0.691122
C123	C	1.739957	-0.347858	1.024455
C124	C	1.266872	-0.357834	0.357763
C125	C	1.600206	-0.024501	0.691096
C126	C	1.933539	0.308833	1.024429
C127	C	1.349418	-0.357842	0.357765
C128	C	1.682751	-0.024509	0.691099
C129	C	2.016085	0.308825	1.024432
C130	C	1.073196	-0.357782	0.551462
C131	C	1.406529	-0.024449	0.884795
C132	C	1.739862	0.308884	1.218128
C133	C	1.073208	-0.357768	0.634007
C134	C	1.406542	-0.024435	0.967341
C135	C	1.739875	0.308898	1.300674
C136	C	1.073277	-0.164110	0.357785
C137	C	1.406610	0.169224	0.691118
C138	C	1.739944	0.502557	1.024451
C139	C	1.073324	-0.081564	0.357797
C140	C	1.406657	0.251769	0.691130
C141	C	1.739991	0.585103	1.024463
C142	C	1.073181	-0.357795	0.164804
C143	C	1.406514	-0.024461	0.498137
C144	C	1.739847	0.308872	0.831471
C145	C	1.073312	-0.357599	0.082258
C146	C	1.406645	-0.024266	0.415592
C147	C	1.739979	0.309067	0.748925
C148	C	1.023612	-0.407302	0.833449
C149	C	1.356945	-0.073969	1.166783
C150	C	1.690278	0.259365	1.500116
C151	C	1.091367	-0.425457	0.882837
C152	C	1.424700	-0.092124	1.216170
C153	C	1.758034	0.241210	1.549503
C154	C	1.073245	-0.357712	0.785138
C155	C	1.406578	-0.024378	1.118471
C156	C	1.739912	0.308955	1.451805
C157	C	1.005527	-0.339536	0.882832
C158	C	1.338860	-0.006203	1.216165
C159	C	1.672194	0.327130	1.549499
C160	C	1.073274	-0.357658	0.931123
C161	C	1.406608	-0.024325	1.264456
C162	C	1.739941	0.309008	1.597790
C163	C	1.141036	-0.375902	0.833438
C164	C	1.474369	-0.042569	1.166772
C165	C	1.807702	0.290765	1.500105
C166	C	1.055150	-0.289950	0.833429
C167	C	1.388483	0.043384	1.166763
C168	C	1.721816	0.376717	1.500096
C169	C	1.122952	-0.308079	0.882794
C170	C	1.456285	0.025254	1.216128
C171	C	1.789618	0.358588	1.549461
C172	C	1.073227	-0.357744	0.701040
C173	C	1.406560	-0.024411	1.034373
C174	C	1.739894	0.308922	1.367706
C175	C	1.073300	-0.357626	1.015220
C176	C	1.406633	-0.024292	1.348553
C177	C	1.739967	0.309041	1.681886
H178	H	0.527183	-0.232860	0.391488
H179	H	0.860516	0.100473	0.724821
H180	H	1.193849	0.433807	1.058155
F181	F	0.626547	-0.500428	0.319322
F182	F	0.959880	-0.167095	0.652655
F183	F	1.293213	0.166239	0.985989
H184	H	1.039807	-0.232684	0.811711
H185	H	1.373141	0.100649	1.145044
H186	H	1.706474	0.433982	1.478377
H187	H	1.198184	-0.810889	0.391396
H188	H	1.531517	-0.477556	0.724729
H189	H	1.864851	-0.144222	1.058063
F190	F	0.626641	-0.319836	0.500465
F191	F	0.959974	0.013498	0.833798
F192	F	1.293307	0.346831	1.167132
H193	H	1.106690	-0.482739	0.904539
H194	H	1.440023	-0.149406	1.237872
H195	H	1.773356	0.183928	1.571206
F196	F	1.215926	-0.396058	0.805201
F197	F	1.549260	-0.062724	1.138534
F198	F	1.882593	0.270609	1.471868
H199	H	1.106625	-0.903748	0.482856
H200	H	1.439958	-0.570414	0.816189
H201	H	1.773291	-0.237081	1.149523
F202	F	1.034949	-0.804604	0.215042
F203	F	1.368283	-0.471270	0.548375
F204	F	1.701616	-0.137937	0.881708
H205	H	0.527211	-0.391267	0.232607
H206	H	0.860544	-0.057933	0.565941
H207	H	1.193877	0.275400	0.899274
H208	H	0.619764	-0.266140	0.266256
H209	H	0.953097	0.067193	0.599589
H210	H	1.286431	0.400526	0.932922
H211	H	0.981530	-0.811130	0.449217
H212	H	1.314864	-0.477796	0.782550
H213	H	1.648197	-0.144463	1.115884
F214	F	1.177752	-0.910194	0.253314
F215	F	1.511085	-0.576860	0.586647
F216	F	1.844419	-0.243527	0.919980
F217	F	0.930607	-0.910655	0.319458
F218	F	1.263940	-0.577321	0.652791
F219	F	1.597273	-0.243988	0.986125
H220	H	0.981678	-0.449294	0.811783
H221	H	1.315011	-0.115960	1.145116
H222	H	1.648345	0.217373	1.478450
F223	F	0.520504	-0.462463	0.461977
F224	F	0.853838	-0.129130	0.795310
F225	F	1.187171	0.204204	1.128643
F226	F	1.177891	-0.253235	0.910940
F227	F	1.511225	0.080098	1.244273
F228	F	1.844558	0.413432	1.577606
H229	H	0.948246	-0.324186	0.904529
H230	H	1.281580	0.009148	1.237863
H231	H	1.614913	0.342481	1.571196
