data_functionalizedCrystal
_audit_creation_method	'MofGen! by Chris Wilmer'
_symmetry_space_group_name_H-M	'P1'
_symmetry_Int_Tables_number	1
_symmetry_cell_setting	triclinic
loop_
_symmetry_equiv_pos_as_xyz
  x,y,z
_cell_length_a	23.096457
_cell_length_b	23.096457
_cell_length_c	23.196401
_cell_angle_alpha	90.011648
_cell_angle_beta	60.008821
_cell_angle_gamma	60.000185
loop_
_atom_site_label
_atom_site_type_symbol
_atom_site_fract_x
_atom_site_fract_y
_atom_site_fract_z
Zr1	Zr	0.633740	0.557763	-0.075648
O2	O	0.754525	0.465295	-0.167691
O3	O	0.512954	0.586107	-0.047436
O4	O	0.633742	0.586081	-0.167701
O5	O	0.633736	0.465344	0.047445
O6	O	0.633743	0.681361	-0.167704
O7	O	0.633738	0.465321	-0.047426
O8	O	0.417676	0.681407	0.047428
O9	O	0.849803	0.465297	-0.167687
O10	O	0.562636	0.669304	-0.035401
O11	O	0.562634	0.598215	0.035403
O12	O	0.704846	0.598184	-0.106194
O13	O	0.704843	0.527095	-0.035390
Zr14	Zr	0.633740	0.709760	0.075655
Zr15	Zr	0.633742	0.709724	-0.075654
Zr16	Zr	0.633737	0.557799	0.075661
Zr17	Zr	0.785697	0.557766	-0.075642
Zr18	Zr	0.481783	0.709756	0.075649
O19	O	0.754526	0.681416	0.047443
O20	O	0.754529	0.681364	-0.167699
O21	O	0.754522	0.465347	0.047450
O22	O	0.512954	0.802228	0.167698
O23	O	0.512958	0.802176	-0.047443
O24	O	0.512951	0.586158	0.167706
O25	O	0.633743	0.802179	-0.047438
O26	O	0.633738	0.681442	0.167708
O27	O	0.633736	0.586161	0.167711
O28	O	0.633742	0.802202	0.047433
O29	O	0.849805	0.586086	-0.167692
O30	O	0.417674	0.681436	0.167699
O31	O	0.417676	0.802225	0.167694
O32	O	0.417678	0.802196	0.047424
O33	O	0.849802	0.465326	-0.047417
O34	O	0.849804	0.586115	-0.047421
O35	O	0.562634	0.669338	0.106201
O36	O	0.562636	0.740428	0.035397
O37	O	0.704846	0.669308	-0.035395
O38	O	0.704844	0.598218	0.035409
C39	C	0.443664	0.633757	-0.000004
C40	C	0.379154	0.633755	-0.000007
C41	C	0.348855	0.670858	-0.036969
C42	C	0.288232	0.670865	-0.036963
C43	C	0.257924	0.633755	-0.000005
C44	C	0.288228	0.596650	0.036965
C45	C	0.348843	0.596650	0.036964
N46	N	0.195527	0.573349	-0.005128
N47	N	0.137946	0.573351	-0.005130
C48	C	0.075292	0.633754	0.000001
N49	N	0.072401	0.694155	0.005123
N50	N	0.129989	0.694152	0.005122
C51	C	0.192196	0.633751	0.000000
C52	C	-0.020742	0.670868	-0.036956
C53	C	-0.081369	0.670877	-0.036945
C54	C	-0.081367	0.596655	0.036978
C55	C	-0.020747	0.596653	0.036972
C56	C	0.009564	0.633758	0.000001
C57	C	0.633737	0.443681	0.000010
C58	C	0.633736	0.379170	0.000013
C59	C	0.559506	0.385988	0.036959
C60	C	0.559505	0.325372	0.036962
C61	C	0.633737	0.257939	0.000005
C62	C	0.707977	0.251123	-0.036943
C63	C	0.707976	0.311738	-0.036939
N64	N	0.688993	0.135130	-0.060143
N65	N	0.688989	0.077551	-0.060146
C66	C	0.633745	0.075306	-0.000007
N67	N	0.578492	0.132823	0.060133
N68	N	0.578494	0.190409	0.060133
C69	C	0.633747	0.192208	-0.000003
C70	C	0.559509	0.016401	0.036946
C71	C	0.559511	-0.044217	0.036951
C72	C	0.707985	-0.118466	-0.036961
C73	C	0.707981	-0.057848	-0.036959
C74	C	0.633741	0.009583	-0.000008
C75	C	0.823815	0.633766	0.000012
C76	C	0.888325	0.633768	0.000014
C77	C	0.633743	0.633716	-0.189261
C78	C	0.633744	0.633700	-0.253495
C79	C	0.633743	0.823842	-0.000003
C80	C	0.633744	0.888353	-0.000006
C81	C	0.707973	0.596580	-0.320622
C82	C	0.707975	0.596598	-0.380977
C83	C	0.633742	0.633727	-0.374202
C84	C	0.559502	0.670855	-0.307063
C85	C	0.559503	0.670842	-0.246710
C86	C	0.576869	0.628453	-0.441521
C87	C	0.576871	0.628461	-0.501875
C88	C	0.633735	0.633772	-0.560349
C89	C	0.690612	0.639060	-0.558470
C90	C	0.690613	0.639047	-0.498117
C91	C	0.633732	0.633746	-0.439640
C92	C	0.707971	0.596669	-0.692922
C93	C	0.707970	0.596692	-0.753277
C94	C	0.559495	0.670945	-0.679362
C95	C	0.559499	0.670926	-0.619009
C96	C	0.633740	0.633785	-0.625794
C97	C	0.633737	0.633807	0.189268
C98	C	0.633736	0.633822	0.253503
C99	C	0.443668	0.823837	-0.000011
C100	C	0.379159	0.888347	-0.000016
C101	C	0.443661	0.633802	0.189260
C102	C	0.379151	0.633816	0.253492
C103	C	0.443665	0.823882	0.189253
C104	C	0.379155	0.888408	0.253483
C105	C	0.823815	0.443640	-0.189246
C106	C	0.888325	0.379115	-0.253475
C107	C	0.823812	0.443686	0.000018
C108	C	0.888321	0.379176	0.000024
C109	C	0.823818	0.633721	-0.189253
C110	C	0.888329	0.633707	-0.253485
C111	C	0.348865	0.881515	-0.036981
C112	C	0.288260	0.942123	-0.037000
C113	C	0.257947	1.009562	-0.000050
C114	C	0.288247	1.016392	0.036916
C115	C	0.348854	0.955785	0.036931
C116	C	0.348856	0.670948	0.320618
C117	C	0.288249	0.670958	0.380977
C118	C	0.257935	0.633840	0.374207
C119	C	0.288236	0.596703	0.307074
C120	C	0.348845	0.596689	0.246717
C121	C	0.348862	0.955824	0.246686
C122	C	0.288256	1.016458	0.307031
C123	C	0.257941	1.009674	0.374171
C124	C	0.288240	0.942251	0.380966
C125	C	0.348849	0.881618	0.320622
C126	C	0.918625	0.311699	-0.246679
C127	C	0.979250	0.251065	-0.307024
C128	C	1.009568	0.257848	-0.374164
C129	C	0.979265	0.325272	-0.380959
C130	C	0.918646	0.385904	-0.320615
C131	C	0.918621	0.386007	0.036982
C132	C	0.979243	0.325399	0.036984
C133	C	1.009558	0.257960	0.000032
C134	C	0.979255	0.251131	-0.036932
C135	C	0.918639	0.311738	-0.036938
C136	C	0.918624	0.670832	-0.246692
C137	C	0.979231	0.670833	-0.307039
C138	C	1.009546	0.633704	-0.374178
C139	C	0.979245	0.596577	-0.380969
C140	C	0.918635	0.596581	-0.320623
H141	H	0.373514	0.566434	0.067062
H142	H	1.058898	0.633707	-0.423310
H143	H	0.768419	0.566467	-0.807936
C144	C	0.382187	0.711682	-0.077630
N145	N	0.407291	0.742433	-0.108255
C146	C	1.012570	0.555767	-0.454828
N147	N	1.037666	0.525037	-0.510461
C148	C	0.477843	0.332870	0.077605
N149	N	0.416335	0.338519	0.108215
H150	H	0.373503	0.566454	0.192061
C151	C	0.254934	0.934595	-0.077660
N152	N	0.229833	0.928922	-0.108283
C153	C	0.382163	0.807462	0.328110
N154	N	0.407253	0.751608	0.333755
H155	H	0.768423	0.566426	-0.698448
H156	H	0.736922	0.643354	-0.496589
H157	H	0.893976	0.440796	-0.326157
H158	H	0.003936	0.701084	-0.067057
H159	H	-0.106044	0.701096	-0.067040
C160	C	1.012555	0.711673	-0.299553
N161	N	1.037654	0.742433	-0.293913
H162	H	0.893943	0.440914	0.067078
H163	H	0.263593	1.071351	0.301486
C164	C	0.382201	0.963303	0.172838
N165	N	0.407313	0.968942	0.117216
C166	C	0.885328	0.555726	-0.328106
N167	N	0.860246	0.524951	-0.333748
H168	H	0.263545	0.566482	0.301572
H169	H	0.003926	0.566437	0.067067
C170	C	0.254888	0.555827	0.077617
N171	N	0.229776	0.525080	0.108239
C172	C	0.254898	0.711681	-0.077627
N173	N	0.229793	0.742423	-0.108257
C174	C	0.885285	0.711685	-0.172845
N175	N	0.860174	0.742461	-0.117225
H176	H	1.003958	0.330786	-0.435632
C177	C	0.885306	0.304211	-0.077588
N178	N	0.860201	0.298537	-0.108207
H179	H	0.499053	0.701151	-0.564350
H180	H	1.058915	0.208616	0.000042
C181	C	-0.114704	0.555835	0.077633
N182	N	-0.139818	0.525088	0.108257
C183	C	1.012600	0.176941	-0.077566
N184	N	1.037710	0.121060	-0.108164
C185	C	0.254878	0.934801	0.454827
N186	N	0.229743	0.929192	0.510461
H187	H	0.373545	0.826609	-0.067080
C188	C	0.477843	0.090577	0.077602
N189	N	0.416332	0.146446	0.108226
C190	C	1.012571	0.176906	-0.299534
N191	N	1.037666	0.121051	-0.293890
C192	C	0.191271	1.076226	-0.000067
N193	N	0.141048	1.126434	-0.000080
C194	C	0.477839	0.460160	0.077613
N195	N	0.416326	0.516027	0.108236
C196	C	1.076244	0.191143	-0.440538
N197	N	1.126462	0.140898	-0.490528
C198	C	0.514310	0.622608	-0.377201
N199	N	0.467193	0.618205	-0.328758
C200	C	0.789633	0.176945	-0.077599
N201	N	0.851139	0.121073	-0.108221
C202	C	0.514309	0.622640	-0.503937
N203	N	0.467185	0.618255	-0.505489
C204	C	0.477846	0.711695	-0.299612
N205	N	0.416340	0.742458	-0.293998
H206	H	0.499055	0.701071	-0.192051
C207	C	0.789641	-0.065351	-0.077615
N208	N	0.851151	-0.071003	-0.108240
H209	H	0.768425	0.306181	-0.067024
H210	H	0.499061	-0.038659	0.067042
C211	C	0.789636	0.555761	-0.454827
N212	N	0.851144	0.525002	-0.510449
C213	C	1.012558	0.332928	0.077655
N214	N	1.037648	0.338601	0.108290
H215	H	0.736920	0.643381	-0.606083
H216	H	0.373531	0.701174	0.326144
H217	H	0.768427	-0.173371	-0.067053
C218	C	0.191255	0.633870	0.440609
N219	N	0.141027	0.633899	0.490626
C220	C	0.254922	0.711821	0.454817
N221	N	0.229819	0.742602	0.510432
C222	C	0.254887	1.090582	0.077565
N223	N	0.229754	1.146463	0.108186
H224	H	0.768426	0.566339	-0.326153
H225	H	0.499053	0.701177	-0.673844
H226	H	0.373512	0.961357	0.067036
H227	H	0.208590	1.059051	0.423301
H228	H	0.893944	0.306162	-0.192016
