data_functionalizedCrystal
_audit_creation_method	'MofGen! by Chris Wilmer'
_symmetry_space_group_name_H-M	'P1'
_symmetry_Int_Tables_number	1
_symmetry_cell_setting	triclinic
loop_
_symmetry_equiv_pos_as_xyz
  x,y,z
_cell_length_a	18.050591
_cell_length_b	12.827892
_cell_length_c	12.827885
_cell_angle_alpha	90.029786
_cell_angle_beta	89.972733
_cell_angle_gamma	89.988602
loop_
_atom_site_label
_atom_site_type_symbol
_atom_site_fract_x
_atom_site_fract_y
_atom_site_fract_z
Zn1	Zn	1.135405	0.416094	-0.591072
Zn2	Zn	1.135330	0.590871	-0.416332
Zn3	Zn	1.011211	0.416132	-0.416321
Zn4	Zn	1.011200	0.590781	-0.591007
O5	O	1.073287	0.503470	-0.503683
O6	O	1.239320	0.439300	-0.567923
O7	O	1.118838	0.567745	-0.270094
O8	O	1.027721	0.269891	-0.439524
O9	O	1.239265	0.567708	-0.439543
O10	O	1.118966	0.269863	-0.567913
O11	O	1.027648	0.439366	-0.270086
O12	O	0.907285	0.439279	-0.439462
O13	O	1.027703	0.567555	-0.737252
O14	O	0.907277	0.567592	-0.567803
O15	O	1.118956	0.439213	-0.737299
O16	O	1.118828	0.737095	-0.439481
O17	O	1.027630	0.737029	-0.567814
C18	C	0.880334	0.503431	-0.503625
C19	C	0.797789	0.503439	-0.503625
C20	C	1.073240	0.774980	-0.503664
C21	C	1.073288	0.891133	-0.503692
C22	C	1.073337	0.503369	-0.776253
C23	C	1.073359	0.503327	-0.892406
C24	C	0.598321	0.433581	-0.433994
C25	C	0.548914	0.528900	-0.408284
C26	C	0.646658	0.503471	-0.503672
C27	C	0.548983	0.408185	-0.529380
C28	C	0.500673	0.503493	-0.503716
C29	C	0.598339	0.598840	-0.477913
C30	C	0.598412	0.478061	-0.599053
C31	C	0.549028	0.573445	-0.573379
C32	C	0.730757	0.503457	-0.503645
C33	C	0.416577	0.503518	-0.503744
C34	C	1.266992	0.503509	-0.503742
C35	C	1.349538	0.503526	-0.503767
C36	C	1.073353	0.230899	-0.503724
C37	C	1.073382	0.114746	-0.503742
C38	C	1.118469	0.942915	-0.440259
C39	C	1.118520	1.062966	-0.440285
C40	C	1.118518	0.439806	-0.944215
C41	C	1.118542	0.439761	-1.064265
C42	C	1.073279	0.503494	-0.232173
C43	C	1.073401	0.503243	-0.116020
H44	H	0.619964	0.374542	-0.375005
H45	H	1.034739	0.557631	-1.071474
N46	N	1.024806	0.947018	-0.571833
N47	N	0.977565	1.008026	-0.534951
H48	H	0.943322	1.047495	-0.583077
N49	N	1.166942	0.887027	-0.372107
N50	N	1.140775	0.826173	-0.305525
H51	H	1.175010	0.786700	-0.257392
H52	H	0.527173	0.550409	-0.327641
H53	H	1.034708	0.557668	-0.936928
N54	N	1.167045	0.371518	-1.120131
N55	N	1.209480	0.311831	-1.071525
H56	H	1.243736	0.263630	-1.110982
N57	N	0.625428	0.699961	-0.450524
N58	N	0.665388	0.711150	-0.371756
H59	H	0.684522	0.782564	-0.352409
N60	N	0.522041	0.647697	-0.647307
N61	N	0.481630	0.721145	-0.617771
H62	H	0.462569	0.773589	-0.669977
N63	N	0.625702	0.451035	-0.700191
N64	N	0.609929	0.364558	-0.739255
H65	H	0.629203	0.345460	-0.810685
H66	H	1.157199	1.107498	-0.385975
N67	N	1.024853	1.058914	-0.571892
N68	N	0.982420	1.107543	-0.631555
H69	H	0.948146	1.068106	-0.679688
H70	H	1.157161	0.385454	-0.899692
H71	H	0.527264	0.327605	-0.551069
