data_functionalizedCrystal
_audit_creation_method	'MofGen! by Chris Wilmer'
_symmetry_space_group_name_H-M	'P1'
_symmetry_Int_Tables_number	1
_symmetry_cell_setting	triclinic
loop_
_symmetry_equiv_pos_as_xyz
  x,y,z
_cell_length_a	14.519731
_cell_length_b	14.044209
_cell_length_c	13.596369
_cell_angle_alpha	90.008322
_cell_angle_beta	90.006374
_cell_angle_gamma	91.561597
loop_
_atom_site_label
_atom_site_type_symbol
_atom_site_fract_x
_atom_site_fract_y
_atom_site_fract_z
O1	O	1.233871	-0.124370	-0.081800
O2	O	1.733871	0.375630	0.418200
O3	O	0.966576	-0.138983	-0.081803
O4	O	1.466576	0.361017	0.418197
O5	O	1.096212	0.006315	-0.081787
O6	O	1.596212	0.506315	0.418213
O7	O	1.104234	-0.269668	-0.081815
O8	O	1.604234	0.230332	0.418185
O9	O	1.096229	0.006323	0.081795
O10	O	1.596229	0.506323	0.581795
O11	O	0.966592	-0.138975	0.081780
O12	O	1.466592	0.361025	0.581780
O13	O	1.233888	-0.124362	0.081783
O14	O	1.733888	0.375638	0.581783
Zn15	Zn	1.100243	-0.131667	0.107754
Zn16	Zn	1.600243	0.368333	0.607754
Zn17	Zn	1.100221	-0.131678	-0.107774
Zn18	Zn	1.600221	0.368322	0.392226
O19	O	1.104251	-0.269661	0.081768
O20	O	1.604251	0.230339	0.581768
C21	C	0.932169	-0.138295	-0.000011
C22	C	1.432169	0.361705	0.499989
C23	C	0.829624	-0.136243	-0.000012
C24	C	1.329624	0.363757	0.499988
C25	C	0.746345	-0.134576	-0.000015
C26	C	1.246345	0.365424	0.499985
C27	C	0.641868	-0.132492	-0.000015
C28	C	1.141868	0.367508	0.499985
C29	C	0.558596	-0.130839	-0.000015
C30	C	1.058596	0.369161	0.499985
C31	C	0.454112	-0.128756	-0.000017
C32	C	0.954112	0.371244	0.499983
C33	C	1.092709	0.041640	0.000006
C34	C	1.592709	0.541640	0.500006
C35	C	1.082232	0.146884	0.000010
C36	C	1.582232	0.646884	0.500010
C37	C	1.063079	0.339580	0.000002
C38	C	1.563079	0.839580	0.500002
C39	C	1.137388	0.397081	0.000001
C40	C	1.637388	0.897081	0.500001
C41	C	1.126731	0.504304	-0.000004
C42	C	1.626731	1.004304	0.499996
C43	C	1.073735	0.232347	0.000006
C44	C	1.573735	0.732347	0.500006
C45	C	1.268294	-0.125051	-0.000011
C46	C	1.768294	0.374949	0.499989
C47	C	1.370840	-0.127102	-0.000017
C48	C	1.870840	0.372898	0.499983
C49	C	1.107757	0.695015	-0.000020
C50	C	1.607757	1.195015	0.499980
C51	C	1.118239	0.589771	-0.000007
C52	C	1.618239	1.089771	0.499993
N53	N	1.100206	-0.131678	-0.254866
N54	N	1.600206	0.368322	0.245134
C55	C	1.100209	-0.131679	-0.343863
C56	C	1.600209	0.368321	0.156137
C57	C	1.100222	-0.131677	-0.455515
C58	C	1.600222	0.368323	0.044485
C59	C	1.100237	-0.131670	-0.544505
C60	C	1.600237	0.368330	-0.044505
C61	C	1.100249	-0.131666	-0.656164
C62	C	1.600249	0.368334	-0.156164
N63	N	1.100265	-0.131660	0.254846
N64	N	1.600265	0.368340	0.754846
H65	H	1.209009	0.365783	-0.000066
H66	H	1.709009	0.865783	0.499934
H67	H	0.991464	0.370876	-0.000000
H68	H	1.491464	0.870876	0.500000
