data_functionalizedCrystal
_audit_creation_method	'MofGen! by Chris Wilmer'
_symmetry_space_group_name_H-M	'P1'
_symmetry_Int_Tables_number	1
_symmetry_cell_setting	triclinic
loop_
_symmetry_equiv_pos_as_xyz
  x,y,z
_cell_length_a	12.759401
_cell_length_b	12.645330
_cell_length_c	12.759393
_cell_angle_alpha	89.968891
_cell_angle_beta	89.977963
_cell_angle_gamma	90.012908
loop_
_atom_site_label
_atom_site_type_symbol
_atom_site_fract_x
_atom_site_fract_y
_atom_site_fract_z
Zn1	Zn	1.606281	-0.421981	-0.594046
Zn2	Zn	1.606179	-0.599281	-0.418365
Zn3	Zn	1.430580	-0.422033	-0.418378
Zn4	Zn	1.430578	-0.599203	-0.593999
O5	O	1.518405	-0.510625	-0.506197
O6	O	1.753289	-0.445511	-0.570756
O7	O	1.582843	-0.575824	-0.271345
O8	O	1.453931	-0.273679	-0.441707
O9	O	1.753213	-0.575773	-0.441684
O10	O	1.583018	-0.273640	-0.570769
O11	O	1.453831	-0.445600	-0.271355
O12	O	1.283559	-0.445524	-0.441660
O13	O	1.453928	-0.575640	-0.741026
O14	O	1.283557	-0.575691	-0.570688
O15	O	1.583016	-0.445435	-0.741061
O16	O	1.582841	-0.747618	-0.441637
O17	O	1.453828	-0.747561	-0.570675
C18	C	1.245437	-0.510606	-0.506171
C19	C	1.128661	-0.510623	-0.506185
C20	C	1.518352	-0.786054	-0.506172
C21	C	1.518426	-0.903884	-0.506197
C22	C	1.073755	-0.578342	-0.438890
C23	C	0.964031	-0.578360	-0.438918
C24	C	0.964127	-0.442931	-0.573537
C25	C	1.073849	-0.442919	-0.573514
C26	C	0.814044	-0.703354	-0.401195
C27	C	0.759135	-0.771064	-0.333884
C28	C	0.794683	-0.787212	-0.231334
C29	C	0.885138	-0.735634	-0.196074
C30	C	0.940042	-0.667916	-0.263380
C31	C	0.904495	-0.651789	-0.365944
C32	C	1.223838	-0.317923	-0.611226
C33	C	1.278744	-0.250199	-0.678527
C34	C	1.243198	-0.234041	-0.781078
C35	C	1.152739	-0.285600	-0.816334
C36	C	1.097834	-0.353324	-0.749034
C37	C	1.133388	-0.369484	-0.646483
C38	C	1.599457	-1.071440	-0.424854
C39	C	1.599721	-0.948880	-0.425054
C40	C	1.548455	-0.948258	-0.616942
C41	C	1.549098	-1.070856	-0.616510
C42	C	1.407332	-1.071214	-0.477885
C43	C	1.407865	-0.948610	-0.475401
C44	C	1.792438	-0.510644	-0.506224
C45	C	1.909215	-0.510653	-0.506235
C46	C	1.518483	-0.510523	-0.780230
C47	C	1.518517	-0.510479	-0.897007
C48	C	1.518486	-0.234119	-0.506245
C49	C	1.518521	-0.116289	-0.506265
C50	C	1.585738	-0.442671	-0.951889
C51	C	1.585756	-0.442625	-1.061613
C52	C	1.451328	-0.578206	-1.061564
C53	C	1.451306	-0.578245	-0.951842
C54	C	1.623363	-0.317551	-1.211594
C55	C	1.690601	-0.249752	-1.266479
C56	C	1.793113	-0.233499	-1.230890
C57	C	1.828409	-0.285060	-1.140417
C58	C	1.761177	-0.352867	-1.085537
C59	C	1.658650	-0.369100	-1.121124
C60	C	1.413709	-0.703320	-0.801860
C61	C	1.346481	-0.771134	-0.746978
C62	C	1.243967	-0.787398	-0.782565
C63	C	1.208676	-0.735856	-0.873041
C64	C	1.275903	-0.668043	-0.927923
C65	C	1.378416	-0.651776	-0.892329
C66	C	1.518387	-0.510649	-0.233230
C67	C	1.518557	-0.510394	-0.116453
H68	H	1.118380	-0.633474	-0.384068
C69	C	0.574399	-0.798221	-0.310127
C70	C	0.659714	-0.827764	-0.372642
H71	H	0.513020	-0.833219	-0.334055
H72	H	0.587710	-0.817523	-0.239423
H73	H	0.564597	-0.723885	-0.314519
H74	H	0.669521	-0.902100	-0.368243
H75	H	0.646400	-0.808469	-0.443364
H76	H	1.580932	-0.918883	-0.342938
H77	H	1.497182	-0.690075	-0.772870
H78	H	1.013686	-0.625920	-0.234671
H79	H	1.385222	-0.919619	-0.393902
H80	H	0.914068	-0.748778	-0.112563
C81	C	1.322654	-0.798346	-0.562249
C82	C	1.385274	-0.827788	-0.647520
H83	H	1.346600	-0.833324	-0.500850
H84	H	1.326911	-0.724015	-0.552457
H85	H	1.251983	-0.817750	-0.575605
H86	H	1.455943	-0.808377	-0.634167
H87	H	1.381027	-0.902135	-0.657312
C88	C	0.731633	-0.963411	-0.200465
C89	C	0.734335	-0.861645	-0.157345
H90	H	0.694381	-1.009365	-0.154787
H91	H	0.697516	-0.961169	-0.266578
H92	H	0.801174	-0.988720	-0.209257
H93	H	0.664794	-0.836333	-0.148560
H94	H	0.768450	-0.863883	-0.091213
H95	H	0.785100	-0.690224	-0.484703
C96	C	1.485922	-1.176758	-0.316918
C97	C	1.574420	-1.111342	-0.313671
H98	H	1.470466	-1.201396	-0.248275
H99	H	1.427917	-1.137879	-0.343204
H100	H	1.499376	-1.235375	-0.361464
H101	H	1.560963	-1.052720	-0.269131
H102	H	1.632438	-1.150223	-0.287371
H103	H	1.352395	-0.208210	-0.649809
H104	H	1.682075	-0.919470	-0.443825
C105	C	1.955102	-0.215514	-1.325060
C106	C	1.867032	-0.158979	-1.291215
H107	H	2.000730	-0.169507	-1.362308
H108	H	1.990776	-0.243884	-1.266086
H109	H	1.933527	-0.271482	-1.369757
H110	H	1.888607	-0.103015	-1.246511
H111	H	1.831352	-0.130593	-1.350198
C112	C	1.400097	-0.757695	-1.095299
C113	C	1.377460	-0.652700	-1.121840
H114	H	1.354489	-0.803685	-1.132506
H115	H	1.470678	-0.773202	-1.113294
H116	H	1.390459	-0.767408	-1.022095
H117	H	1.387105	-0.642985	-1.195043
H118	H	1.306862	-0.637188	-1.103852
H119	H	1.681369	-1.102169	-0.443416
C120	C	1.213341	-0.963660	-0.719511
C121	C	1.170070	-0.861945	-0.722239
H122	H	1.167720	-1.009675	-0.682266
H123	H	1.222197	-0.988942	-0.789036
H124	H	1.279445	-0.961344	-0.685363
H125	H	1.103969	-0.864260	-0.756394
H126	H	1.161201	-0.836657	-0.652702
H127	H	1.630372	-1.099367	-0.640550
H128	H	1.380025	-1.102229	-0.398536
H129	H	0.919487	-0.387807	-0.628353
C130	C	1.044432	-0.824128	-0.844886
C131	C	1.095988	-0.753728	-0.912166
H132	H	0.974862	-0.835159	-0.869038
H133	H	1.080830	-0.889633	-0.843829
H134	H	1.042626	-0.795325	-0.776164
H135	H	1.097801	-0.782534	-0.980887
H136	H	1.059581	-0.688210	-0.913233
C137	C	1.472801	-1.221642	-0.701637
C138	C	1.472978	-1.110911	-0.701187
H139	H	1.425806	-1.246364	-0.753911
H140	H	1.541419	-1.246700	-0.716328
H141	H	1.451039	-1.246955	-0.634980
H142	H	1.494747	-1.085597	-0.767842
H143	H	1.404345	-1.085842	-0.686504
C144	C	0.978803	-0.381541	-0.892021
C145	C	0.998410	-0.410016	-0.787791
H146	H	0.917428	-0.416549	-0.915948
H147	H	0.968983	-0.307215	-0.896381
H148	H	1.036695	-0.401565	-0.934423
H149	H	0.940520	-0.389985	-0.745387
H150	H	1.008222	-0.484359	-0.783424
H151	H	1.123791	-0.272435	-0.899837
C152	C	1.645393	-0.382526	-0.783715
C153	C	1.659603	-0.368173	-0.891613
H154	H	1.690998	-0.336533	-0.746507
H155	H	1.574811	-0.367015	-0.765730
H156	H	1.660752	-0.453762	-0.765731
H157	H	1.644237	-0.296939	-0.909598
H158	H	1.730202	-0.383677	-0.909604
H159	H	1.252797	-0.331086	-0.527723
H160	H	1.539887	-0.330771	-1.240574
C161	C	1.886085	-0.473352	-1.011062
C162	C	1.799961	-0.409537	-0.986091
H163	H	1.910032	-0.508327	-0.949662
H164	H	1.865846	-0.524361	-1.061787
H165	H	1.940794	-0.430638	-1.038656
H166	H	1.745250	-0.452251	-0.958504
H167	H	1.820198	-0.358521	-0.935348
C168	C	1.227131	-1.069837	-0.532036
C169	C	1.325916	-1.110370	-0.557921
H170	H	1.176878	-1.094010	-0.581454
H171	H	1.207965	-1.093246	-0.463927
H172	H	1.229553	-0.994762	-0.533190
H173	H	1.323496	-1.185446	-0.556759
H174	H	1.345086	-1.086967	-0.626048
H175	H	1.287905	-0.178882	-0.835869
C176	C	1.724923	-0.992145	-0.665708
C177	C	1.656937	-0.906710	-0.649943
H178	H	1.791894	-0.966495	-0.686083
H179	H	1.731246	-1.031342	-0.602505
H180	H	1.697743	-1.036530	-0.719244
H181	H	1.684113	-0.862329	-0.596402
H182	H	1.650617	-0.867496	-0.713154
H183	H	1.491300	-0.919108	-0.679225
H184	H	1.911888	-0.271828	-1.111453
H185	H	1.661854	-0.207771	-1.340143
C186	C	1.207303	-0.686594	-1.102152
C187	C	1.237111	-0.611379	-1.027376
H188	H	1.183351	-0.651610	-1.163545
H189	H	1.265737	-0.729869	-1.119075
H190	H	1.152594	-0.729300	-1.074550
H191	H	1.291826	-0.568678	-1.054974
H192	H	1.178671	-0.568086	-1.010452
H193	H	1.344307	-0.917992	-0.530349
