data_functionalizedCrystal
_audit_creation_method	'MofGen! by Chris Wilmer'
_symmetry_space_group_name_H-M	'P1'
_symmetry_Int_Tables_number	1
_symmetry_cell_setting	triclinic
loop_
_symmetry_equiv_pos_as_xyz
  x,y,z
_cell_length_a	10.654545
_cell_length_b	19.288865
_cell_length_c	9.730223
_cell_angle_alpha	90.010265
_cell_angle_beta	89.999987
_cell_angle_gamma	83.809663
loop_
_atom_site_label
_atom_site_type_symbol
_atom_site_fract_x
_atom_site_fract_y
_atom_site_fract_z
O1	O	1.665749	0.097541	0.114294
O2	O	1.300071	0.106838	0.114301
O3	O	1.493476	0.001128	0.114270
O4	O	1.472344	0.203251	0.114325
O5	O	1.493475	0.001123	-0.114310
O6	O	1.300069	0.106833	-0.114279
O7	O	1.665747	0.097536	-0.114286
Zn8	Zn	1.482908	0.102184	-0.150574
Zn9	Zn	1.482910	0.102190	0.150590
O10	O	1.472342	0.203246	-0.114255
C11	C	1.253287	0.106154	0.000012
C12	C	1.113887	0.104113	0.000014
C13	C	1.048402	0.103150	-0.124586
C14	C	0.917424	0.101221	-0.124587
C15	C	0.917426	0.101222	0.124623
C16	C	1.048403	0.103146	0.124623
C17	C	1.492796	-0.024755	-0.000024
C18	C	1.490754	-0.101872	-0.000036
C19	C	1.604236	-0.145826	-0.000045
C20	C	1.602318	-0.218286	-0.000023
C21	C	1.486913	-0.246788	-0.000020
C22	C	1.373416	-0.202824	-0.000003
C23	C	1.375337	-0.130366	-0.000011
C24	C	1.396190	-0.355670	-0.080085
C25	C	1.394274	-0.428127	-0.080085
C26	C	1.480983	-0.470272	0.000011
C27	C	1.569630	-0.439953	0.080090
C28	C	1.571551	-0.367495	0.080082
C29	C	1.484817	-0.325356	-0.000010
C30	C	1.592393	-0.592796	0.000027
C31	C	1.590471	-0.665257	0.000058
C32	C	1.361565	-0.649793	0.000064
C33	C	1.363491	-0.577334	0.000047
C34	C	1.478908	-0.548840	0.000023
C35	C	1.712532	0.098220	0.000006
C36	C	1.851932	0.100261	0.000014
C37	C	1.473023	0.229129	0.000042
C38	C	1.475064	0.306246	0.000063
N39	N	1.482912	0.102189	0.356126
N40	N	1.482916	0.102179	-0.356111
C41	C	1.568711	0.055474	0.428038
C42	C	1.568716	0.055470	0.571921
C43	C	1.397113	0.148900	0.571967
C44	C	1.397115	0.148906	0.428087
H45	H	1.101715	0.103938	-0.226051
H46	H	1.698218	-0.122632	-0.000060
Br47	Br	0.828556	0.099913	-0.293695
H48	H	0.864093	0.100435	0.226076
Br49	Br	1.685167	-0.007929	0.669514
H50	H	1.101723	0.103928	0.226093
H51	H	1.638574	0.017435	0.369451
Br52	Br	1.756340	-0.277950	-0.000029
H53	H	1.643728	-0.342812	0.145287
H54	H	1.640237	-0.474266	0.145312
H55	H	1.682885	-0.701044	0.000058
H56	H	1.327257	0.186935	0.630572
H57	H	1.279452	-0.226035	0.000002
H58	H	1.327247	0.186951	0.369532
H59	H	1.267600	-0.672999	0.000073
Br60	Br	1.749026	-0.554121	-0.000020
H61	H	1.271082	-0.541546	0.000047
H62	H	1.325577	-0.321361	-0.145316
Br63	Br	1.273977	-0.469269	-0.188771
H64	H	1.282924	-0.094578	-0.000004
