data_functionalizedCrystal
_audit_creation_method	'MofGen! by Chris Wilmer'
_symmetry_space_group_name_H-M	'P1'
_symmetry_Int_Tables_number	1
_symmetry_cell_setting	triclinic
loop_
_symmetry_equiv_pos_as_xyz
  x,y,z
_cell_length_a	12.594517
_cell_length_b	21.295416
_cell_length_c	12.594510
_cell_angle_alpha	89.960522
_cell_angle_beta	90.022787
_cell_angle_gamma	89.969869
loop_
_atom_site_label
_atom_site_type_symbol
_atom_site_fract_x
_atom_site_fract_y
_atom_site_fract_z
Zn1	Zn	1.627177	0.250558	0.601819
Zn2	Zn	2.127177	0.750558	1.101819
Zn3	Zn	1.627019	0.355847	0.423823
Zn4	Zn	2.127019	0.855847	0.923823
Zn5	Zn	1.449176	0.250596	0.423848
Zn6	Zn	1.949176	0.750596	0.923848
Zn7	Zn	1.449118	0.355793	0.601753
Zn8	Zn	1.949118	0.855793	1.101753
O9	O	1.538122	0.303199	0.512811
O10	O	2.038122	0.803199	1.012811
O11	O	1.776102	0.264532	0.578225
O12	O	2.276102	0.764532	1.078225
O13	O	1.603385	0.341924	0.274881
O14	O	2.103385	0.841924	0.774881
O15	O	1.472878	0.162501	0.447494
O16	O	1.972878	0.662501	0.947494
O17	O	1.775985	0.341888	0.447452
O18	O	2.275985	0.841888	0.947452
O19	O	1.603655	0.162474	0.578249
O20	O	2.103655	0.662474	1.078249
O21	O	1.472725	0.264596	0.274899
O22	O	1.972725	0.764596	0.774899
O23	O	1.300223	0.264543	0.447430
O24	O	1.800223	0.764543	0.947430
O25	O	1.472780	0.341795	0.750708
O26	O	1.972780	0.841795	1.250708
O27	O	1.300180	0.341831	0.578137
O28	O	1.800180	0.841831	1.078137
O29	O	1.603599	0.264479	0.750756
O30	O	2.103599	0.764479	1.250756
O31	O	1.603330	0.443930	0.447388
O32	O	2.103330	0.943930	0.947388
O33	O	1.472627	0.443890	0.578113
O34	O	1.972627	0.943890	1.078113
C35	C	1.261582	0.303186	0.512780
C36	C	1.761582	0.803186	1.012780
C37	C	1.143276	0.303196	0.512791
C38	C	1.643276	0.803196	1.012791
C39	C	1.074015	0.261101	0.441836
C40	C	1.574015	0.761101	0.941836
C41	C	1.003179	0.318523	0.415646
C42	C	1.503179	0.818523	0.915646
C43	C	1.003313	0.245802	0.538999
C44	C	1.503313	0.745802	1.038999
C45	C	1.073998	0.360647	0.486551
C46	C	1.573998	0.860647	0.986551
C47	C	1.074138	0.287888	0.609949
C48	C	1.574138	0.787888	1.109949
C49	C	1.003334	0.345349	0.583796
C50	C	1.503334	0.845349	1.083796
C51	C	1.537984	0.466750	0.512764
C52	C	2.037984	0.966750	1.012764
C53	C	1.538022	0.536718	0.512779
C54	C	2.038022	1.036718	1.012779
C55	C	1.606139	0.569585	0.444783
C56	C	2.106139	1.069585	0.944783
C57	C	1.606190	0.635327	0.444812
C58	C	2.106190	1.135327	0.944812
C59	C	1.538103	0.668201	0.512826
C60	C	2.038103	1.168201	1.012826
C61	C	1.469981	0.635326	0.580835
C62	C	1.969981	1.135326	1.080835
C63	C	1.469940	0.569585	0.580812
C64	C	1.969940	1.069585	1.080812
N65	N	1.444994	0.771465	0.520937
N66	N	1.944994	1.271465	1.020937
N67	N	1.445035	0.833917	0.520953
N68	N	1.945035	1.333917	1.020953
C69	C	1.538224	0.866275	0.512901
C70	C	2.038224	1.366275	1.012901
N71	N	1.631371	0.833823	0.504812
N72	N	2.131371	1.333823	1.004812
N73	N	1.631328	0.771366	0.504791
N74	N	2.131328	1.271366	1.004791
C75	C	1.538140	0.739486	0.512859
C76	C	2.038140	1.239486	1.012859
C77	C	1.606401	0.970427	0.444933
C78	C	2.106401	1.470427	0.944933
C79	C	1.606453	1.036171	0.444969
C80	C	2.106453	1.536171	0.944969
C81	C	1.470235	1.036169	0.580986
C82	C	1.970235	1.536169	1.080986
C83	C	1.470193	0.970426	0.580956
C84	C	1.970193	1.470426	1.080956
C85	C	1.538274	0.937560	0.512923
C86	C	2.038274	1.437560	1.012923
C87	C	1.815743	0.303212	0.512843
C88	C	2.315743	0.803212	1.012843
C89	C	1.934049	0.303217	0.512857
C90	C	2.434049	0.803217	1.012857
C91	C	1.538201	0.303127	0.790432
C92	C	2.038201	0.803127	1.290432
C93	C	1.538234	0.303097	0.908737
C94	C	2.038234	0.803097	1.408737
C95	C	1.538292	1.139008	0.512900
C96	C	2.038292	1.639008	1.012900
C97	C	1.538368	1.069040	0.512984
C98	C	2.038368	1.569040	1.012984
C99	C	1.538106	0.303224	0.236270
C100	C	2.038106	0.803224	0.736270
C101	C	1.538279	0.303077	0.117965
C102	C	2.038279	0.803077	0.617965
C103	C	1.609412	0.261032	1.048781
C104	C	2.109412	0.761032	1.548781
C105	C	1.635375	0.318471	0.977950
C106	C	2.135375	0.818471	1.477950
C107	C	1.512318	0.245664	0.977996
C108	C	2.012318	0.745664	1.477996
C109	C	1.564292	0.360547	1.048693
C110	C	2.064292	0.860547	1.548693
C111	C	1.441190	0.287701	1.048745
C112	C	1.941190	0.787701	1.548745
C113	C	1.467117	0.345180	0.977947
C114	C	1.967117	0.845180	1.477947
H115	H	1.661578	0.542826	0.389390
H116	H	2.161578	1.042826	0.889390
H117	H	1.104919	0.409208	0.464321
H118	H	1.604919	0.909208	0.964321
H119	H	0.972495	0.380997	0.643829
H120	H	1.472495	0.880997	1.143829
Br121	Br	1.126125	0.266259	0.746813
Br122	Br	1.626125	0.766259	1.246813
Br123	Br	1.601019	0.441511	1.100229
Br124	Br	2.101019	0.941511	1.600229
Br125	Br	1.709775	0.201828	1.100621
Br126	Br	2.209775	0.701828	1.600621
H127	H	1.414803	1.062934	0.636369
H128	H	1.914803	1.562934	1.136369
Br129	Br	1.377740	0.925819	0.673239
Br130	Br	1.877740	1.425819	1.173239
H131	H	1.406943	0.380785	0.947043
H132	H	1.906943	0.880785	1.447043
H133	H	0.972207	0.197262	0.561101
H134	H	1.472207	0.697262	1.061101
H135	H	1.717461	0.331488	0.946850
H136	H	2.217461	0.831488	1.446850
Br137	Br	1.475752	0.164727	0.926227
Br138	Br	1.975752	0.664727	1.426227
H139	H	1.661663	0.662092	0.389442
H140	H	2.161663	1.162092	0.889442
Br141	Br	0.951231	0.340128	0.278750
Br142	Br	1.451231	0.840128	0.778750
Br143	Br	1.125745	0.201825	0.341708
Br144	Br	1.625745	0.701825	0.841708
Br145	Br	1.304412	0.265975	1.100622
Br146	Br	1.804412	0.765975	1.600622
H147	H	1.414547	0.662096	0.636214
H148	H	1.914547	1.162096	1.136214
H149	H	1.661841	0.943666	0.389540
H150	H	2.161841	1.443666	0.889540
Br151	Br	1.377489	0.524977	0.673101
Br152	Br	1.877489	1.024977	1.173101
H153	H	1.661929	1.062930	0.389600
H154	H	2.161929	1.562930	0.889600
