data_functionalizedCrystal
_audit_creation_method	'MofGen! by Chris Wilmer'
_symmetry_space_group_name_H-M	'P1'
_symmetry_Int_Tables_number	1
_symmetry_cell_setting	triclinic
loop_
_symmetry_equiv_pos_as_xyz
  x,y,z
_cell_length_a	14.044220
_cell_length_b	11.792254
_cell_length_c	10.868271
_cell_angle_alpha	90.004454
_cell_angle_beta	89.994103
_cell_angle_gamma	88.693738
loop_
_atom_site_label
_atom_site_type_symbol
_atom_site_fract_x
_atom_site_fract_y
_atom_site_fract_z
O1	O	0.130045	1.519094	-0.102325
O2	O	0.380045	1.769094	0.147675
O3	O	0.630045	2.019094	0.397675
O4	O	0.880045	2.269094	0.647675
O5	O	0.143429	1.190011	-0.102328
O6	O	0.393429	1.440011	0.147672
O7	O	0.643429	1.690011	0.397672
O8	O	0.893429	1.940011	0.647672
O9	O	-0.001274	1.349613	-0.102314
O10	O	0.248726	1.599613	0.147686
O11	O	0.498726	1.849613	0.397686
O12	O	0.748726	2.099613	0.647686
O13	O	0.274747	1.359492	-0.102339
O14	O	0.524747	1.609492	0.147661
O15	O	0.774747	1.859492	0.397661
O16	O	1.024747	2.109492	0.647661
O17	O	-0.001279	1.349627	0.102330
O18	O	0.248721	1.599627	0.352330
O19	O	0.498721	1.849627	0.602330
O20	O	0.748721	2.099627	0.852330
O21	O	0.143423	1.190025	0.102317
O22	O	0.393423	1.440025	0.352317
O23	O	0.643423	1.690025	0.602317
O24	O	0.893423	1.940025	0.852317
O25	O	0.130039	1.519107	0.102320
O26	O	0.380039	1.769107	0.352320
O27	O	0.630039	2.019107	0.602320
O28	O	0.880039	2.269107	0.852320
Zn29	Zn	0.136730	1.354568	0.134810
Zn30	Zn	0.386730	1.604568	0.384810
Zn31	Zn	0.636730	1.854568	0.634810
Zn32	Zn	0.886730	2.104568	0.884810
Zn33	Zn	0.136738	1.354550	-0.134818
Zn34	Zn	0.386738	1.604550	0.115182
Zn35	Zn	0.636738	1.854550	0.365182
Zn36	Zn	0.886738	2.104550	0.615182
O37	O	0.274741	1.359506	0.102306
O38	O	0.524741	1.609506	0.352306
O39	O	0.774741	1.859506	0.602306
O40	O	1.024741	2.109506	0.852306
C41	C	0.142583	1.147648	-0.000006
C42	C	0.392583	1.397648	0.249994
C43	C	0.642583	1.647648	0.499994
C44	C	0.892583	1.897648	0.749994
C45	C	0.140059	1.021398	-0.000007
C46	C	0.390059	1.271398	0.249993
C47	C	0.640059	1.521398	0.499993
C48	C	0.890059	1.771398	0.749993
C49	C	0.138009	0.918869	-0.000012
C50	C	0.388009	1.168869	0.249988
C51	C	0.638009	1.418869	0.499988
C52	C	0.888009	1.668869	0.749988
C53	C	0.135445	0.790242	-0.000012
C54	C	0.385445	1.040242	0.249988
C55	C	0.635445	1.290242	0.499988
C56	C	0.885445	1.540242	0.749988
C57	C	-0.036613	1.345295	0.000008
C58	C	0.213387	1.595295	0.250008
C59	C	0.463387	1.845295	0.500008
C60	C	0.713387	2.095295	0.750008
C61	C	-0.141906	1.332396	0.000010
C62	C	0.108094	1.582396	0.250010
C63	C	0.358094	1.832396	0.500010
C64	C	0.608094	2.082396	0.750010
C65	C	-0.334689	1.308814	-0.000008
C66	C	-0.084689	1.558814	0.249992
C67	C	0.165311	1.808814	0.499992
C68	C	0.415311	2.058814	0.749992
C69	C	-0.391849	1.400299	-0.000011
C70	C	-0.141849	1.650299	0.249989
C71	C	0.108151	1.900299	0.499989
C72	C	0.358151	2.150299	0.749989
C73	C	-0.499120	1.387178	-0.000021
C74	C	-0.249120	1.637178	0.249979
C75	C	0.000880	1.887178	0.499979
C76	C	0.250880	2.137178	0.749979
C77	C	-0.227408	1.321934	0.000002
C78	C	0.022592	1.571934	0.250002
C79	C	0.272592	1.821934	0.500002
C80	C	0.522592	2.071934	0.750002
C81	C	0.310081	1.363823	-0.000019
C82	C	0.560081	1.613823	0.249981
C83	C	0.810081	1.863823	0.499981
C84	C	1.060081	2.113823	0.749981
C85	C	0.415373	1.376722	-0.000029
C86	C	0.665373	1.626722	0.249971
C87	C	0.915373	1.876722	0.499971
C88	C	1.165373	2.126722	0.749971
C89	C	0.130885	1.561470	-0.000005
C90	C	0.380885	1.811470	0.249995
C91	C	0.630885	2.061470	0.499995
C92	C	0.880885	2.311470	0.749995
C93	C	0.133408	1.687720	-0.000012
C94	C	0.383408	1.937720	0.249988
C95	C	0.633408	2.187720	0.499988
C96	C	0.883408	2.437720	0.749988
N97	N	0.136736	1.354538	-0.318832
N98	N	0.386736	1.604538	-0.068832
N99	N	0.636736	1.854538	0.181168
N100	N	0.886736	2.104538	0.431168
C101	C	0.136736	1.354546	-0.430170
C102	C	0.386736	1.604546	-0.180170
C103	C	0.636736	1.854546	0.069830
C104	C	0.886736	2.104546	0.319830
C105	C	0.136732	1.354566	-0.569848
C106	C	0.386732	1.604566	-0.319848
C107	C	0.636732	1.854566	-0.069848
C108	C	0.886732	2.104566	0.180152
N109	N	0.136724	1.354589	0.318824
N110	N	0.386724	1.604589	0.568824
N111	N	0.636724	1.854589	0.818824
N112	N	0.886724	2.104589	1.068824
H113	H	-0.360221	1.488476	-0.000093
H114	H	-0.110221	1.738476	0.249907
H115	H	0.139779	1.988476	0.499907
H116	H	0.389779	2.238476	0.749907
H117	H	-0.366315	1.220644	-0.000012
H118	H	-0.116315	1.470644	0.249988
H119	H	0.133685	1.720644	0.499988
H120	H	0.383685	1.970644	0.749988
