data_functionalizedCrystal
_audit_creation_method	'MofGen! by Chris Wilmer'
_symmetry_space_group_name_H-M	'P1'
_symmetry_Int_Tables_number	1
_symmetry_cell_setting	triclinic
loop_
_symmetry_equiv_pos_as_xyz
  x,y,z
_cell_length_a	10.654538
_cell_length_b	9.798715
_cell_length_c	10.723024
_cell_angle_alpha	89.997785
_cell_angle_beta	95.526057
_cell_angle_gamma	90.003994
loop_
_atom_site_label
_atom_site_type_symbol
_atom_site_fract_x
_atom_site_fract_y
_atom_site_fract_z
O1	O	-1.667822	-0.113505	0.175201
O2	O	-1.302339	-0.113503	0.191916
O3	O	-1.493511	-0.113499	0.001983
O4	O	-1.476650	-0.113509	0.365134
O5	O	-1.493498	0.113483	0.001982
O6	O	-1.302326	0.113479	0.191915
O7	O	-1.667809	0.113477	0.175200
Zn8	Zn	-1.485065	0.149516	0.183557
Zn9	Zn	-1.485083	-0.149543	0.183559
O10	O	-1.476637	0.113473	0.365133
C11	C	-1.255534	-0.000012	0.190691
C12	C	-1.116091	-0.000012	0.187029
C13	C	-0.919551	0.123722	0.181852
C14	C	-1.050572	0.123720	0.185305
C15	C	-1.050581	-0.123749	0.185313
C16	C	-0.919562	-0.123745	0.181870
C17	C	-0.854041	0.247462	0.180116
C18	C	-0.919542	0.371199	0.181834
C19	C	-1.050562	0.371197	0.185286
C20	C	-1.116082	0.247457	0.187020
C21	C	-1.492277	-0.000010	-0.044517
C22	C	-1.488606	-0.000015	-0.183072
N23	N	-1.485062	0.353616	0.183555
C24	C	-0.714612	-0.000012	0.176436
C25	C	-0.854051	-0.000005	0.180133
N26	N	-1.485095	-0.353642	0.183551
C27	C	-1.404810	0.421424	0.263651
C28	C	-1.404828	0.578587	0.263650
C29	C	-1.595576	-0.000017	-0.258043
C30	C	-1.591784	-0.000022	-0.401247
C31	C	-1.477870	-0.000020	0.411633
C32	C	-1.481541	-0.000024	0.550188
H33	H	-1.222766	0.247465	0.189846
C34	C	-0.892405	0.582134	0.073682
C35	C	-0.847531	0.507212	0.179932
H36	H	-0.847954	0.666107	0.072516
H37	H	-0.879881	0.531298	0.000488
H38	H	-0.979810	0.599826	0.075999
H39	H	-0.760128	0.489511	0.177610
H40	H	-0.860044	0.558059	0.253145
C41	C	-1.731866	-0.116695	-0.127545
C42	C	-1.723001	-0.000016	-0.201579
H43	H	-1.810532	-0.116687	-0.092683
H44	H	-1.725850	-0.195834	-0.177767
H45	H	-1.665236	-0.116679	-0.061960
H46	H	-1.789626	-0.000036	-0.267169
H47	H	-1.729029	0.079144	-0.151353
C48	C	-1.237841	0.435487	0.430298
C49	C	-1.312039	0.342739	0.356235
H50	H	-1.180573	0.386909	0.487462
H51	H	-1.192018	0.491224	0.378126
H52	H	-1.290614	0.491214	0.475551
H53	H	-1.259267	0.287019	0.310975
H54	H	-1.357865	0.286978	0.408414
H55	H	-1.394218	-0.000023	-0.224904
H56	H	-1.103888	0.471950	0.186697
H57	H	-1.103938	-0.224492	0.186724
H58	H	-0.747358	0.247477	0.177303
H59	H	-0.866229	-0.224495	0.180473
H60	H	-1.336116	0.636899	0.332220
C61	C	-1.687729	-0.000040	-0.613236
C62	C	-1.715415	-0.000031	-0.488206
H63	H	-1.764058	-0.000055	-0.666920
H64	H	-1.640189	0.079111	-0.628801
H65	H	-1.640180	-0.079197	-0.628783
H66	H	-1.762956	0.079131	-0.472656
H67	H	-1.762975	-0.079190	-0.472634
H68	H	-1.553801	0.588055	0.114969
C69	C	-1.510261	0.514476	0.014082
C70	C	-1.577834	0.432303	0.090972
H71	H	-1.567538	0.563044	-0.043081
H72	H	-1.459929	0.577375	0.064335
H73	H	-1.457505	0.458730	-0.031172
H74	H	-1.630583	0.488050	0.136234
H75	H	-1.628188	0.369396	0.040712
C76	C	-1.353012	-0.116708	-0.287161
C77	C	-1.357904	-0.000026	-0.362864
H78	H	-1.276679	-0.116711	-0.233483
H79	H	-1.422657	-0.116693	-0.238133
H80	H	-1.356360	-0.195854	-0.338533
H81	H	-1.354564	0.079120	-0.311492
H82	H	-1.288239	-0.000029	-0.411897
