data_functionalizedCrystal
_audit_creation_method	'MofGen! by Chris Wilmer'
_symmetry_space_group_name_H-M	'P1'
_symmetry_Int_Tables_number	1
_symmetry_cell_setting	triclinic
loop_
_symmetry_equiv_pos_as_xyz
  x,y,z
_cell_length_a	12.759400
_cell_length_b	18.215407
_cell_length_c	18.215384
_cell_angle_alpha	89.940064
_cell_angle_beta	89.907215
_cell_angle_gamma	90.012128
loop_
_atom_site_label
_atom_site_type_symbol
_atom_site_fract_x
_atom_site_fract_y
_atom_site_fract_z
Zn1	Zn	-0.417641	1.125433	-0.416086
Zn2	Zn	0.082359	1.625433	0.083914
Zn3	Zn	-0.593548	1.125272	-0.293027
Zn4	Zn	-0.093548	1.625272	0.206973
Zn5	Zn	-0.417876	1.002274	-0.293038
Zn6	Zn	0.082124	1.502274	0.206962
Zn7	Zn	-0.593271	1.002354	-0.416057
Zn8	Zn	-0.093271	1.502354	0.083943
O9	O	-0.505584	1.063833	-0.354552
O10	O	-0.005584	1.563833	0.145448
O11	O	-0.440993	1.228396	-0.399769
O12	O	0.059007	1.728396	0.100231
O13	O	-0.570459	1.108856	-0.190044
O14	O	-0.070459	1.608856	0.309956
O15	O	-0.270823	1.018646	-0.309378
O16	O	0.229177	1.518646	0.190622
O17	O	-0.570231	1.228278	-0.309358
O18	O	-0.070231	1.728278	0.190642
O19	O	-0.270651	1.109130	-0.399780
O20	O	0.229349	1.609130	0.100220
O21	O	-0.441393	1.018490	-0.190052
O22	O	0.058607	1.518490	0.309948
O23	O	-0.441124	0.899301	-0.309350
O24	O	0.058876	1.399301	0.190650
O25	O	-0.569759	1.018781	-0.519046
O26	O	-0.069759	1.518781	-0.019046
O27	O	-0.569987	0.899359	-0.399731
O28	O	-0.069987	1.399359	0.100269
O29	O	-0.440725	1.109207	-0.519067
O30	O	0.059275	1.609207	-0.019067
O31	O	-0.740532	1.108932	-0.309330
O32	O	-0.240532	1.608932	0.190670
O33	O	-0.740329	1.018625	-0.399720
O34	O	-0.240329	1.518625	0.100280
C35	C	-0.505552	0.872627	-0.354539
C36	C	-0.005552	1.372627	0.145461
C37	C	-0.505563	0.790828	-0.354551
C38	C	-0.005563	1.290828	0.145449
C39	C	-0.438407	0.602695	-0.401702
C40	C	0.061593	1.102695	0.098298
C41	C	-0.438416	0.525836	-0.401705
C42	C	0.061584	1.025836	0.098295
C43	C	-0.572790	0.525724	-0.307414
C44	C	-0.072790	1.025724	0.192586
C45	C	-0.572775	0.602581	-0.307409
C46	C	-0.072775	1.102581	0.192591
C47	C	-0.505585	0.641065	-0.354557
C48	C	-0.005585	1.141065	0.145443
C49	C	-0.505609	0.487349	-0.354565
C50	C	-0.005609	0.987349	0.145435
C51	C	-0.505619	0.404015	-0.354567
C52	C	-0.005619	0.904015	0.145433
C53	C	-0.505573	0.724404	-0.354554
C54	C	-0.005573	1.224404	0.145446
C55	C	-0.778551	1.063790	-0.354537
C56	C	-0.278551	1.563790	0.145463
C57	C	-0.895328	1.063838	-0.354555
C58	C	-0.395328	1.563838	0.145445
C59	C	-0.950261	1.110914	-0.307541
C60	C	-0.450261	1.610914	0.192459
C61	C	-1.059985	1.110959	-0.307563
C62	C	-0.559985	1.610959	0.192437
C63	C	-1.059833	1.016847	-0.401616
C64	C	-0.559833	1.516847	0.098384
C65	C	-0.950111	1.016806	-0.401597
C66	C	-0.450111	1.516806	0.098403
C67	C	-0.895478	1.157946	-0.260499
C68	C	-0.395478	1.657946	0.239501
C69	C	-0.950411	1.205025	-0.213480
C70	C	-0.450411	1.705025	0.286520
C71	C	-1.060135	1.205070	-0.213503
C72	C	-0.560135	1.705070	0.286497
C73	C	-1.114925	1.158037	-0.260544
C74	C	-0.614925	1.658037	0.239456
C75	C	-0.231551	1.063897	-0.354584
C76	C	0.268449	1.563897	0.145416
C77	C	-0.114774	1.063925	-0.354597
C78	C	0.385226	1.563925	0.145403
C79	C	-0.505185	1.064021	-0.546505
C80	C	-0.005185	1.564021	-0.046505
C81	C	-0.505015	1.064101	-0.628305
C82	C	-0.005015	1.564101	-0.128305
C83	C	-0.505617	1.255786	-0.354565
C84	C	-0.005617	1.755786	0.145435
C85	C	-0.505631	1.337585	-0.354571
C86	C	-0.005631	1.837585	0.145429
C87	C	-0.505905	1.063689	-0.163345
C88	C	-0.005905	1.563689	0.336655
C89	C	-0.505779	1.063752	-0.081547
C90	C	-0.005779	1.563752	0.418453
C91	C	-0.573127	1.017159	0.106860
C92	C	-0.073127	1.517159	0.606860
C93	C	-0.572996	1.017216	0.183719
C94	C	-0.072996	1.517216	0.683719
C95	C	-0.437660	1.110696	0.183283
C96	C	0.062340	1.610696	0.683283
C97	C	-0.437787	1.110634	0.106426
C98	C	0.062213	1.610634	0.606426
C99	C	-0.505526	1.063867	0.068217
C100	C	-0.005526	1.563867	0.568217
C101	C	-0.505269	1.063986	0.221932
C102	C	-0.005269	1.563986	0.721932
C103	C	-0.505126	1.064048	0.305266
C104	C	-0.005126	1.564048	0.805266
C105	C	-0.505667	1.063803	-0.015122
C106	C	-0.005667	1.563803	0.484878
H107	H	-0.383712	0.494599	-0.440094
H108	H	0.116288	0.994599	0.059906
H109	H	-0.383694	0.634026	-0.440091
H110	H	0.116306	1.134026	0.059909
O111	O	-0.638027	0.488226	-0.261691
O112	O	-0.138027	0.988226	0.238309
C113	C	-0.697564	0.369773	-0.219882
C114	C	-0.197564	0.869773	0.280118
C115	C	-0.623643	0.412146	-0.271712
C116	C	-0.123643	0.912146	0.228288
H117	H	-0.685945	0.308255	-0.227955
H118	H	-0.185945	0.808255	0.272045
H119	H	-0.782301	0.384841	-0.232706
H120	H	-0.282301	0.884841	0.267294
H121	H	-0.679118	0.384862	-0.160569
H122	H	-0.179118	0.884862	0.339431
H123	H	-0.641994	0.397079	-0.331043
H124	H	-0.141994	0.897079	0.168957
H125	H	-0.538928	0.397074	-0.258825
H126	H	-0.038928	0.897074	0.241175
H127	H	-1.104453	0.978554	-0.439914
H128	H	-0.604453	1.478554	0.060086
O129	O	-0.638816	0.971926	0.221224
O130	O	-0.138816	1.471926	0.721224
C131	C	-0.817847	0.937060	0.245119
C132	C	-0.317847	1.437060	0.745119
C133	C	-0.743424	0.988412	0.202612
C134	C	-0.243424	1.488412	0.702612
H135	H	-0.902437	0.950360	0.230074
H136	H	-0.402437	1.450360	0.730074
H137	H	-0.806214	0.945136	0.306623
H138	H	-0.306214	1.445136	0.806623
H139	H	-0.799975	0.877623	0.230088
H140	H	-0.299975	1.377623	0.730088
H141	H	-0.761250	1.047868	0.217581
H142	H	-0.261250	1.547868	0.717581
H143	H	-0.755072	0.980272	0.141118
H144	H	-0.255072	1.480272	0.641118
O145	O	-0.638136	0.639745	-0.261586
O146	O	-0.138136	1.139745	0.238414
C147	C	-0.771373	0.631529	-0.168031
C148	C	-0.271373	1.131529	0.331969
C149	C	-0.697432	0.589350	-0.219899
C150	C	-0.197432	1.089350	0.280101
H151	H	-0.819317	0.590803	-0.134303
H152	H	-0.319317	1.090803	0.365697
H153	H	-0.826373	0.667528	-0.201716
H154	H	-0.326373	1.167528	0.298284
H155	H	-0.723106	0.667490	-0.129638
H156	H	-0.223106	1.167490	0.370362
H157	H	-0.745614	0.553349	-0.258303
H158	H	-0.245614	1.053349	0.241697
H159	H	-0.642430	0.553398	-0.186168
H160	H	-0.142430	1.053398	0.313832
H161	H	-0.628282	0.979076	0.075752
H162	H	-0.128282	1.479076	0.575752
H163	H	-0.806135	1.157913	-0.260473
H164	H	-0.306135	1.657913	0.239527
H165	H	-0.382511	1.148773	0.214403
H166	H	0.117489	1.648773	0.714403
O167	O	-0.897030	1.250643	-0.167812
O168	O	-0.397030	1.750643	0.332188
C169	C	-0.728065	1.292317	-0.126125
C170	C	-0.228065	1.792317	0.373875
C171	C	-0.788384	1.240603	-0.177869
C172	C	-0.288384	1.740603	0.322131
H173	H	-0.640214	1.284229	-0.134249
H174	H	-0.140214	1.784229	0.365751
H175	H	-0.749737	1.279390	-0.066761
H176	H	-0.249737	1.779390	0.433239
H177	H	-0.749599	1.351662	-0.139096
H178	H	-0.249599	1.851662	0.360904
H179	H	-0.766882	1.181242	-0.164964
H180	H	-0.266882	1.681242	0.335036
H181	H	-0.766706	1.253594	-0.237218
H182	H	-0.266706	1.753594	0.262782
O183	O	-0.372082	1.156079	0.068996
O184	O	0.127918	1.656079	0.568996
C185	C	-0.237788	1.248772	0.076668
C186	C	0.262212	1.748772	0.576668
C187	C	-0.312161	1.197362	0.119149
C188	C	0.187839	1.697362	0.619149
H189	H	-0.189307	1.282152	0.117198
H190	H	0.310693	1.782152	0.617198
H191	H	-0.285640	1.287504	0.040725
H192	H	0.214360	1.787504	0.540725
H193	H	-0.183303	1.214676	0.040624
H194	H	0.316697	1.714676	0.540624
H195	H	-0.366660	1.231399	0.155233
H196	H	0.133340	1.731399	0.655233
H197	H	-0.264243	1.158628	0.155045
H198	H	0.235757	1.658628	0.655045
O199	O	-1.113336	1.250825	-0.167765
O200	O	-0.613336	1.750825	0.332235
C201	C	-1.101899	1.344195	-0.074505
C202	C	-0.601899	1.844195	0.425495
C203	C	-1.041522	1.292405	-0.126257
C204	C	-0.541522	1.792405	0.373743
H205	H	-1.043865	1.377837	-0.040943
H206	H	-0.543865	1.877837	0.459057
H207	H	-1.153382	1.310455	-0.035956
H208	H	-0.653382	1.810455	0.464044
H209	H	-1.153162	1.382673	-0.108345
H210	H	-0.653162	1.882673	0.391655
H211	H	-0.990202	1.253916	-0.092476
H212	H	-0.490202	1.753916	0.407524
H213	H	-0.990106	1.326191	-0.164807
H214	H	-0.490106	1.826191	0.335193
O215	O	-1.221512	1.158153	-0.260455
O216	O	-0.721512	1.658153	0.239545
C217	C	-1.379051	1.209893	-0.208919
C218	C	-0.879051	1.709893	0.291081
C219	C	-1.258347	1.209825	-0.208936
C220	C	-0.758347	1.709825	0.291064
H221	H	-1.408869	1.251676	-0.167282
H222	H	-0.908869	1.751676	0.332718
H223	H	-1.409007	1.152934	-0.193562
H224	H	-0.909007	1.652934	0.306438
H225	H	-1.408638	1.225153	-0.265949
H226	H	-0.908638	1.725153	0.234051
H227	H	-1.228671	1.194595	-0.151923
H228	H	-0.728671	1.694595	0.348077
H229	H	-1.228463	1.266790	-0.224334
H230	H	-0.728463	1.766790	0.275666
H231	H	-0.905384	0.978474	-0.439880
H232	H	-0.405384	1.478474	0.060120
