data_functionalizedCrystal
_audit_creation_method	'MofGen! by Chris Wilmer'
_symmetry_space_group_name_H-M	'P1'
_symmetry_Int_Tables_number	1
_symmetry_cell_setting	triclinic
loop_
_symmetry_equiv_pos_as_xyz
  x,y,z
_cell_length_a	19.188900
_cell_length_b	19.188930
_cell_length_c	13.101018
_cell_angle_alpha	93.366121
_cell_angle_beta	93.334242
_cell_angle_gamma	96.861366
loop_
_atom_site_label
_atom_site_type_symbol
_atom_site_fract_x
_atom_site_fract_y
_atom_site_fract_z
O1	O	-0.922290	0.090944	0.085425
O2	O	-0.718977	0.102699	0.085385
O3	O	-0.826502	-0.004836	0.085386
O4	O	-0.814766	0.198479	0.085424
O5	O	-0.834210	-0.012573	-0.085044
O6	O	-0.726686	0.094961	-0.085045
O7	O	-0.929998	0.083207	-0.085005
Zn8	Zn	-0.829566	0.087855	-0.112085
Zn9	Zn	-0.819410	0.098050	0.112465
O10	O	-0.822474	0.190741	-0.085006
C11	C	-0.696820	0.098452	0.000165
C12	C	-0.619316	0.097319	0.000149
C13	C	-0.578722	0.100993	0.093051
C14	C	-0.505898	0.099922	0.093062
C15	C	-0.473672	0.095163	0.000164
C16	C	-0.514275	0.091492	-0.092752
C17	C	-0.587096	0.092571	-0.092759
N18	N	-0.367779	0.050597	-0.068982
N19	N	-0.298601	0.049571	-0.068968
C20	C	-0.254264	0.091915	0.000181
N21	N	-0.281719	0.135315	0.069331
N22	N	-0.350903	0.136337	0.069321
C23	C	-0.394709	0.093993	0.000161
C24	C	-0.134705	0.094428	0.093101
C25	C	-0.061879	0.093361	0.093107
C26	C	-0.070259	0.084924	-0.092709
C27	C	-0.143082	0.085999	-0.092712
C28	C	-0.175302	0.090747	0.000195
C29	C	-0.829976	-0.034716	0.000168
C30	C	-0.828836	-0.112220	0.000159
C31	C	-0.891927	-0.157151	0.000167
C32	C	-0.890855	-0.229974	0.000183
C33	C	-0.826688	-0.257864	0.000171
C34	C	-0.763588	-0.212923	0.000169
C35	C	-0.764662	-0.140102	0.000163
N36	N	-0.780264	-0.368497	-0.057839
N37	N	-0.779248	-0.437676	-0.057836
C38	C	-0.823449	-0.477271	0.000191
N39	N	-0.868715	-0.445077	0.058202
N40	N	-0.869733	-0.375893	0.058194
C41	C	-0.825517	-0.336826	0.000178
C42	C	-0.885382	-0.601165	0.000218
C43	C	-0.884307	-0.673989	0.000240
C44	C	-0.757039	-0.656937	0.000216
C45	C	-0.758116	-0.584115	0.000204
C46	C	-0.822289	-0.556234	0.000200
C47	C	0.047845	0.087457	0.000210
C48	C	-0.029659	0.088603	0.000208
C49	C	-0.819000	0.220621	0.000214
C50	C	-0.820140	0.298126	0.000230
N51	N	-0.812479	0.105002	0.265714
N52	N	-0.836502	0.080898	-0.265333
C53	C	-0.845935	0.071442	0.525623
C54	C	-0.803049	0.114455	0.474750
C55	C	-0.808297	0.109194	0.358431
C56	C	-0.840687	0.076702	0.641953
H57	H	-0.044021	0.081053	-0.168348
Br58	Br	-0.642192	0.087586	-0.218852
Br59	Br	-0.672487	-0.523134	0.000193
H60	H	-0.160939	0.098302	0.168752
Br61	Br	-0.913695	0.003482	0.452620
H62	H	-0.604950	0.104860	0.168704
Br63	Br	-0.450794	0.104910	0.219153
H64	H	-0.713284	-0.103518	0.000157
Br65	Br	-0.470541	0.085041	-0.218829
Br66	Br	-0.735283	0.182417	0.547758
H67	H	-0.028828	0.096357	0.168763
H68	H	-0.937636	-0.578463	0.000219
Br69	Br	-0.969938	-0.734968	0.000261
H70	H	-0.711343	-0.235636	0.000162
H71	H	-0.944182	-0.134455	0.000167
Br72	Br	-0.198178	0.081010	-0.218802
H73	H	-0.942233	-0.266563	0.000193
H74	H	-0.704793	-0.679644	0.000212
