data_functionalizedCrystal
_audit_creation_method	'MofGen! by Chris Wilmer'
_symmetry_space_group_name_H-M	'P1'
_symmetry_Int_Tables_number	1
_symmetry_cell_setting	triclinic
loop_
_symmetry_equiv_pos_as_xyz
  x,y,z
_cell_length_a	11.792241
_cell_length_b	14.519731
_cell_length_c	10.868271
_cell_angle_alpha	89.993880
_cell_angle_beta	89.999893
_cell_angle_gamma	83.941135
loop_
_atom_site_label
_atom_site_type_symbol
_atom_site_fract_x
_atom_site_fract_y
_atom_site_fract_z
O1	O	1.506220	0.126403	-0.102206
O2	O	1.839553	0.459737	0.231128
O3	O	2.172886	0.793070	0.564461
O4	O	1.175807	0.139430	-0.102235
O5	O	1.509141	0.472764	0.231099
O6	O	1.842474	0.806097	0.564432
O7	O	1.349761	-0.001288	-0.102208
O8	O	1.683095	0.332045	0.231125
O9	O	2.016428	0.665378	0.564458
O10	O	1.332266	0.267122	-0.102232
O11	O	1.665599	0.600455	0.231101
O12	O	1.998932	0.933789	0.564434
O13	O	1.349747	-0.001294	0.102436
O14	O	1.683080	0.332039	0.435770
O15	O	2.016414	0.665373	0.769103
O16	O	1.175793	0.139425	0.102410
O17	O	1.509127	0.472758	0.435743
O18	O	1.842460	0.806091	0.769077
O19	O	1.506205	0.126398	0.102439
O20	O	1.839539	0.459731	0.435772
O21	O	2.172872	0.793064	0.769106
Zn22	Zn	1.340997	0.132910	0.134916
Zn23	Zn	1.674330	0.466244	0.468250
Zn24	Zn	2.007664	0.799577	0.801583
Zn25	Zn	1.341016	0.132918	-0.134712
Zn26	Zn	1.674349	0.466251	0.198621
Zn27	Zn	2.007682	0.799584	0.531955
O28	O	1.332251	0.267116	0.102412
O29	O	1.665585	0.600450	0.435746
O30	O	1.998918	0.933783	0.769079
C31	C	1.133514	0.138609	0.000084
C32	C	1.466847	0.471943	0.333417
C33	C	1.800181	0.805276	0.666751
C34	C	1.007513	0.136160	0.000073
C35	C	1.340847	0.469493	0.333407
C36	C	1.674180	0.802827	0.666740
C37	C	0.776826	0.131656	0.000109
C38	C	1.110159	0.464990	0.333442
C39	C	1.443493	0.798323	0.666776
C40	C	0.905197	0.134159	0.000089
C41	C	1.238531	0.467492	0.333423
C42	C	1.571864	0.800825	0.666756
C43	C	1.348934	-0.035654	0.000114
C44	C	1.682268	0.297680	0.333448
C45	C	2.015601	0.631013	0.666781
C46	C	1.346478	-0.138043	0.000115
C47	C	1.679811	0.195291	0.333448
C48	C	2.013145	0.528624	0.666781
C49	C	1.344482	-0.221194	0.000112
C50	C	1.677815	0.112139	0.333445
C51	C	2.011148	0.445472	0.666778
C52	C	1.341988	-0.325512	0.000102
C53	C	1.675321	0.007821	0.333435
C54	C	2.008654	0.341155	0.666769
C55	C	1.340008	-0.408658	0.000094
C56	C	1.673342	-0.075325	0.333427
C57	C	2.006675	0.258008	0.666761
C58	C	1.337514	-0.512983	0.000087
C59	C	1.670848	-0.179650	0.333420
C60	C	2.004181	0.153684	0.666753
C61	C	1.548499	0.127219	0.000117
C62	C	1.881832	0.460552	0.333451
C63	C	2.215166	0.793885	0.666784
C64	C	1.674499	0.129668	0.000120
C65	C	2.007833	0.463001	0.333453
C66	C	2.341166	0.796335	0.666787
C67	C	1.333078	0.301482	0.000087
C68	C	1.666412	0.634815	0.333421
C69	C	1.999745	0.968148	0.666754
C70	C	1.335535	0.403871	0.000079
C71	C	1.668868	0.737204	0.333412
C72	C	2.002202	1.070537	0.666745
N73	N	1.340992	0.132905	0.318930
N74	N	1.674326	0.466238	0.652264
N75	N	2.007659	0.799571	0.985597
N76	N	1.341029	0.132916	-0.318726
N77	N	1.674363	0.466249	0.014607
N78	N	2.007696	0.799583	0.347941
C79	C	1.341010	0.132916	0.569936
C80	C	1.674343	0.466249	0.903270
C81	C	2.007677	0.799582	1.236603
C82	C	1.340996	0.132912	0.430259
C83	C	1.674330	0.466246	0.763592
C84	C	2.007663	0.799579	1.096925
