data_functionalizedCrystal
_audit_creation_method	'MofGen! by Chris Wilmer'
_symmetry_space_group_name_H-M	'P1'
_symmetry_Int_Tables_number	1
_symmetry_cell_setting	triclinic
loop_
_symmetry_equiv_pos_as_xyz
  x,y,z
_cell_length_a	16.109301
_cell_length_b	16.109301
_cell_length_c	8.140239
_cell_angle_alpha	89.996472
_cell_angle_beta	89.999998
_cell_angle_gamma	83.461532
loop_
_atom_site_label
_atom_site_type_symbol
_atom_site_fract_x
_atom_site_fract_y
_atom_site_fract_z
O1	O	1.103130	0.106866	-0.136510
O2	O	0.861068	0.120165	-0.136536
O3	O	0.988749	-0.007515	-0.136511
O4	O	0.975449	0.234546	-0.136534
O5	O	0.988742	-0.007517	0.136716
O6	O	0.861061	0.120164	0.136691
O7	O	1.103123	0.106864	0.136717
Zn8	Zn	0.982091	0.113514	0.180085
Zn9	Zn	0.982100	0.113516	-0.179903
O10	O	0.975442	0.234545	0.136693
C11	C	0.830090	0.119626	0.000075
C12	C	0.737794	0.118011	0.000065
C13	C	0.515522	0.190018	0.000077
C14	C	0.428802	0.188494	0.000088
C15	C	0.448676	0.037006	0.000095
C16	C	0.535395	0.038530	0.000096
C17	C	0.568815	0.115039	0.000079
C18	C	0.395376	0.111990	0.000089
C19	C	0.301350	0.110337	0.000100
C20	C	0.662847	0.116693	0.000070
C21	C	0.988206	-0.038491	0.000102
C22	C	0.986591	-0.130786	0.000099
C23	C	1.057074	-0.439785	0.000079
C24	C	1.058600	-0.353064	0.000088
C25	C	0.907111	-0.333191	0.000094
C26	C	0.905586	-0.419910	0.000096
C27	C	0.980571	-0.473205	0.000080
C28	C	0.983620	-0.299766	0.000087
C29	C	0.985274	-0.205740	0.000098
C30	C	0.978917	-0.567237	0.000073
C31	C	1.134101	0.107404	0.000104
C32	C	1.226397	0.109019	0.000103
C33	C	0.975985	0.265521	0.000076
C34	C	0.977600	0.357816	0.000068
N35	N	0.982091	0.113512	0.425768
N36	N	0.982107	0.113511	-0.425586
H37	H	0.578788	-0.022530	0.000103
C38	C	0.362688	-0.052588	-0.140370
C39	C	0.411937	-0.047091	0.000092
H40	H	0.340013	-0.104509	-0.140378
H41	H	0.318540	-0.008157	-0.140360
H42	H	0.396116	-0.048840	-0.235636
H43	H	0.378508	-0.050832	0.095358
H44	H	0.456091	-0.091534	0.000097
H45	H	0.542730	0.252317	0.000075
C46	C	1.143242	-0.548844	0.140528
C47	C	1.139494	-0.498369	0.000076
H48	H	1.194124	-0.585013	0.140521
H49	H	1.140691	-0.514604	0.235791
H50	H	1.097457	-0.581157	0.140508
H51	H	1.185275	-0.466051	0.000102
H52	H	1.142053	-0.532613	-0.095211
C53	C	1.208184	-0.381424	0.000057
C54	C	1.142695	-0.316329	0.000075
H55	H	1.260102	-0.358744	0.000040
H56	H	1.204442	-0.414836	0.095331
H57	H	1.204427	-0.414831	-0.095231
H58	H	1.146448	-0.282926	0.095369
H59	H	1.146439	-0.282903	-0.095209
H60	H	0.843284	-0.447120	0.000104
C61	C	0.820942	-0.224141	-0.140375
C62	C	0.824691	-0.274607	0.000088
H63	H	0.770056	-0.187979	-0.140384
H64	H	0.866718	-0.191828	-0.140364
H65	H	0.823497	-0.258393	-0.235640
H66	H	0.822142	-0.240355	0.095354
H67	H	0.778903	-0.306923	0.000092
C68	C	0.417873	0.338385	0.000055
C69	C	0.370222	0.270914	0.000074
H70	H	0.381707	0.389269	0.000037
H71	H	0.452109	0.335829	0.095328
H72	H	0.452112	0.335821	-0.095233
H73	H	0.335987	0.273475	0.095369
H74	H	0.335972	0.273471	-0.095209
