data_functionalizedCrystal
_audit_creation_method	'MofGen! by Chris Wilmer'
_symmetry_space_group_name_H-M	'P1'
_symmetry_Int_Tables_number	1
_symmetry_cell_setting	triclinic
loop_
_symmetry_equiv_pos_as_xyz
  x,y,z
_cell_length_a	8.559649
_cell_length_b	12.837942
_cell_length_c	7.681481
_cell_angle_alpha	83.650030
_cell_angle_beta	94.913240
_cell_angle_gamma	82.303802
loop_
_atom_site_label
_atom_site_type_symbol
_atom_site_fract_x
_atom_site_fract_y
_atom_site_fract_z
O1	O	2.101390	-0.023863	-0.146400
O2	O	1.644239	0.029032	-0.146410
O3	O	1.862678	-0.147512	-0.146394
O4	O	1.882950	0.152681	-0.146416
O5	O	1.889558	-0.169285	0.146465
O6	O	1.671118	0.007259	0.146450
O7	O	2.128269	-0.045636	0.146459
Zn8	Zn	1.903962	-0.022646	0.192952
Zn9	Zn	1.868546	0.006042	-0.192903
O10	O	1.909830	0.130908	0.146444
C11	C	1.598759	0.022154	0.000019
C12	C	1.423195	0.034086	0.000015
C13	C	1.869269	-0.196474	0.000034
C14	C	1.848843	-0.309925	0.000031
C15	C	2.094400	-0.570430	-0.000001
C16	C	2.075215	-0.677028	-0.000004
C17	C	1.791288	-0.629721	0.000008
C18	C	1.810473	-0.523122	0.000012
C19	C	1.962034	-0.493482	0.000010
C20	C	1.981219	-0.386882	0.000026
C21	C	1.697292	-0.339576	0.000025
C22	C	1.678107	-0.446174	0.000022
C23	C	2.173749	-0.038758	0.000027
C24	C	2.349311	-0.050689	0.000019
C25	C	1.903238	0.179870	0.000011
C26	C	1.923664	0.293322	0.000003
N27	N	1.928143	-0.042226	0.456288
N28	N	1.844376	0.025613	-0.456239
H29	H	2.104628	-0.362752	0.000031
H30	H	2.013670	-0.111467	0.531500
O31	O	1.742335	0.108302	0.454329
C32	C	1.552357	0.262043	0.473405
C33	C	1.667890	0.168457	0.574920
H34	H	1.492112	0.310691	0.570859
H35	H	1.620477	0.314171	0.387125
H36	H	1.458863	0.230499	0.387059
H37	H	1.761409	0.199907	0.661361
H38	H	1.599661	0.116346	0.661089
H39	H	2.217808	-0.546298	0.000015
H40	H	1.352129	0.115800	0.000000
O41	O	1.433972	-0.148169	-0.000286
C42	C	1.478643	-0.302382	-0.151943
C43	C	1.382663	-0.191990	-0.151837
H44	H	1.437173	-0.337853	-0.274440
H45	H	1.609893	-0.295016	-0.152055
H46	H	1.459846	-0.356035	-0.029323
H47	H	1.401327	-0.138277	-0.274436
H48	H	1.251447	-0.199438	-0.151633
O49	O	1.644191	-0.658711	0.000083
C50	C	1.488810	-0.801967	-0.000041
C51	C	1.655489	-0.769284	-0.000087
H52	H	1.497885	-0.891363	-0.000216
H53	H	1.433795	-0.778544	0.122555
H54	H	1.411334	-0.760166	-0.122568
H55	H	1.733090	-0.811068	0.122357
H56	H	1.710378	-0.792686	-0.122764
H57	H	2.183001	-0.739677	-0.000018
H58	H	1.554709	-0.470323	0.000017
H59	H	1.589511	-0.276913	0.000048
