data_functionalizedCrystal
_audit_creation_method	'MofGen! by Chris Wilmer'
_symmetry_space_group_name_H-M	'P1'
_symmetry_Int_Tables_number	1
_symmetry_cell_setting	triclinic
loop_
_symmetry_equiv_pos_as_xyz
  x,y,z
_cell_length_a	19.851628
_cell_length_b	14.395555
_cell_length_c	14.395555
_cell_angle_alpha	89.999099
_cell_angle_beta	59.998974
_cell_angle_gamma	59.994388
loop_
_atom_site_label
_atom_site_type_symbol
_atom_site_fract_x
_atom_site_fract_y
_atom_site_fract_z
Zr1	Zr	0.737330	0.894840	-0.121849
O2	O	0.877880	0.746494	-0.270186
O3	O	0.596787	0.940327	-0.076377
O4	O	0.737333	0.940314	-0.270177
O5	O	0.737330	0.746504	0.076488
O6	O	0.737325	1.093190	-0.270168
O7	O	0.737335	0.746507	-0.076386
O8	O	0.485916	1.093213	0.076504
O9	O	0.988740	0.746481	-0.270185
O10	O	0.654586	1.073802	-0.056976
O11	O	0.654588	0.959711	0.057106
O12	O	0.820062	0.959696	-0.171069
O13	O	0.820063	0.845604	-0.056987
Zr14	Zr	0.737310	1.138654	0.121981
Zr15	Zr	0.737318	1.138659	-0.121836
Zr16	Zr	0.737322	0.894835	0.121967
Zr17	Zr	0.914138	0.894819	-0.121847
Zr18	Zr	0.560502	1.138675	0.121979
O19	O	0.877853	1.093167	0.076509
O20	O	0.877864	1.093173	-0.270167
O21	O	0.877869	0.746488	0.076489
O22	O	0.596760	1.287000	0.270318
O23	O	0.596771	1.287006	-0.076357
O24	O	0.596776	0.940321	0.270299
O25	O	0.737310	1.286990	-0.076356
O26	O	0.737308	1.093180	0.270309
O27	O	0.737315	0.940305	0.270300
O28	O	0.737305	1.286987	0.076518
O29	O	0.988731	0.940285	-0.270174
O30	O	0.485909	1.093209	0.270306
O31	O	0.485900	1.287013	0.270317
O32	O	0.485907	1.287016	0.076515
O33	O	0.988734	0.746478	-0.076384
O34	O	0.988724	0.940282	-0.076373
O35	O	0.654579	1.073798	0.171201
O36	O	0.654577	1.187890	0.057119
O37	O	0.820053	1.073783	-0.056974
O38	O	0.820054	0.959692	0.057108
C39	C	0.516160	1.016773	0.000063
C40	C	0.441101	1.016781	0.000063
C41	C	0.214859	1.078960	-0.062140
C42	C	0.315029	0.971689	-0.107242
C43	C	0.170952	1.016733	0.000066
C44	C	0.204538	1.124013	0.045112
C45	C	0.303684	1.016762	0.000063
C46	C	0.270179	0.909399	-0.045098
C47	C	0.159635	1.061801	0.107315
C48	C	0.259797	0.954465	0.062241
C49	C	0.094490	1.016718	0.000066
C50	C	0.380150	1.016766	0.000061
C51	C	0.737334	0.711767	0.000049
C52	C	0.737339	0.608259	0.000043
C53	C	0.827547	0.423556	-0.062143
C54	C	0.782464	0.516589	0.045117
C55	C	0.782446	0.516585	-0.107197
C56	C	0.692217	0.516906	0.107413
C57	C	0.692212	0.516887	-0.044979
C58	C	0.647063	0.609938	0.062345
C59	C	0.958480	1.016721	0.000068
C60	C	1.033540	1.016713	0.000069
C61	C	0.737330	1.016752	-0.304911
C62	C	0.737333	1.016754	-0.408418
C63	C	0.737306	1.321727	0.000083
C64	C	0.737301	1.425235	0.000089
C65	C	0.827558	0.954526	-0.531215
C66	C	0.782451	1.061801	-0.562049
C67	C	0.782437	0.909485	-0.562007
C68	C	0.692226	1.124093	-0.437888
C69	C	0.692225	0.971699	-0.437850
C70	C	0.647052	1.079038	-0.468610
C71	C	0.737310	1.016742	0.305043
C72	C	0.737307	1.016740	0.408550
C73	C	0.516146	1.321753	0.000081
C74	C	0.441082	1.425269	0.000086
C75	C	0.516150	1.016767	0.305041
C76	C	0.441087	1.016774	0.408546
C77	C	0.516136	1.321747	0.305058
C78	C	0.441068	1.425262	0.408569
C79	C	0.958504	0.711747	-0.304926
C80	C	1.033572	0.608232	-0.408438
C81	C	0.958494	0.711741	0.000051
C82	C	1.033559	0.608225	0.000046
C83	C	0.958490	1.016727	-0.304909
C84	C	1.033553	1.016720	-0.408415
C85	C	0.405835	1.414329	-0.059478
C86	C	0.335314	1.511584	-0.059497
C87	C	0.300035	1.619778	0.000057
C88	C	0.335289	1.630716	0.059623
C89	C	0.405814	1.533462	0.059633
C90	C	0.405832	1.076330	0.516720
C91	C	0.335312	1.076332	0.613984
C92	C	0.300044	1.016784	0.603072
C93	C	0.335306	0.957221	0.494886
C94	C	0.405829	0.957213	0.397625
C95	C	0.405815	1.533438	0.397630
C96	C	0.335290	1.630710	0.494881
C97	C	0.300016	1.619803	0.603070
C98	C	0.335276	1.511616	0.614007
C99	C	0.405804	1.414346	0.516757
C100	C	1.068834	0.500056	-0.397498
C101	C	1.139380	0.402784	-0.494749
C102	C	1.174659	0.413691	-0.602938
C103	C	1.139394	0.521878	-0.613875
C104	C	1.068853	0.619148	-0.516626
C105	C	1.068812	0.619165	0.059600
C106	C	1.139353	0.521910	0.059591
C107	C	1.174634	0.413716	0.000035
C108	C	1.139378	0.402778	-0.059527
C109	C	1.068843	0.500032	-0.059524
C110	C	1.068799	1.076279	-0.397466
C111	C	1.139319	1.076295	-0.494711
C112	C	1.174597	1.016744	-0.602904
C113	C	1.139344	0.957183	-0.613851
C114	C	1.068821	0.957175	-0.516607
H115	H	0.279420	0.901781	0.114832
N116	N	1.177405	0.286102	-0.482948
H117	H	1.206648	0.276996	-0.439967
H118	H	1.123548	0.277078	-0.440029
N119	N	0.297276	1.140599	0.730657
H120	H	0.247250	1.131573	0.790625
H121	H	0.351143	1.109336	0.739656
N122	N	0.223946	1.724721	0.707956
H123	H	0.206969	1.794901	0.684599
H124	H	0.165468	1.724680	0.754724
N125	N	1.030810	0.488219	-0.123741
H126	H	0.980770	0.566239	-0.114708
H127	H	1.084677	0.445203	-0.207026
H128	H	1.168015	1.124795	-0.485776
H129	H	0.306619	1.502656	-0.108002
H130	H	0.820590	0.818774	-0.615514
N131	N	1.030759	1.140512	-0.280780
H132	H	1.063794	1.178243	-0.288617
H133	H	0.959957	1.200386	-0.237833
N134	N	0.832993	0.517733	-0.227359
H135	H	0.799603	0.517255	-0.261870
H136	H	0.832095	0.588503	-0.226353
N137	N	0.223978	1.016800	0.707980
H138	H	0.206998	1.063571	0.778160
H139	H	0.165500	1.050678	0.707933
N140	N	1.177419	0.286080	-0.123738
H141	H	1.227442	0.226140	-0.114684
H142	H	1.123549	0.277088	-0.092446
N143	N	0.443860	1.140563	0.528507
H144	H	0.410820	1.178283	0.611800
H145	H	0.514662	1.085872	0.490742
N146	N	0.443875	1.297642	-0.123713
H147	H	0.410840	1.305486	-0.161448
H148	H	0.514677	1.254689	-0.183581
N149	N	0.223971	1.724669	0.000038
H150	H	0.206999	1.701310	-0.046734
H151	H	0.165489	1.771445	0.080725
N152	N	1.177448	0.533623	-0.730572
H153	H	1.123644	0.576579	-0.739693
H154	H	1.206723	0.576549	-0.739626
N155	N	0.641763	1.244309	-0.367234
H156	H	0.675583	1.278441	-0.413662
H157	H	0.573798	1.291356	-0.343409
N158	N	0.641736	0.515866	0.227630
H159	H	0.573774	0.585785	0.274752
H160	H	0.642128	0.445441	0.226807
N161	N	1.177399	0.892956	-0.730547
H162	H	1.227426	0.902002	-0.790480
H163	H	1.206622	0.809665	-0.739568
N164	N	1.250741	0.308773	-0.707824
H165	H	1.267718	0.238593	-0.684467
H166	H	1.226147	0.308823	-0.754593
N167	N	1.250653	1.016771	-0.707784
H168	H	1.267622	1.063543	-0.684420
H169	H	1.309140	0.936083	-0.754566
N170	N	1.030819	0.892917	-0.528418
H171	H	0.960019	0.947527	-0.490727
H172	H	1.063942	0.855194	-0.611735
H173	H	0.306580	0.908739	0.486018
H174	H	0.434525	0.908720	0.309549
N175	N	0.443822	1.545270	0.123886
H176	H	0.410765	1.628570	0.161609
H177	H	0.431539	1.507525	0.183764
N178	N	0.443840	1.545233	0.280955
H179	H	0.473102	1.588187	0.271848
H180	H	0.493831	1.467171	0.221060
H181	H	0.570696	1.131730	-0.442951
N182	N	0.545942	0.715473	0.132124
H183	H	0.534734	0.761832	0.082312
H184	H	0.500273	0.692755	0.164223
H185	H	1.040092	0.707254	0.108106
N186	N	0.641728	0.515631	-0.095478
H187	H	0.686977	0.444806	-0.164176
H188	H	0.585024	0.516190	-0.036895
N189	N	1.030820	0.735822	-0.528433
H190	H	1.063876	0.727960	-0.611729
H191	H	0.960023	0.778769	-0.490688
N192	N	0.403035	0.921215	-0.227383
H193	H	0.453669	0.920918	-0.226430
H194	H	0.427653	0.840673	-0.261836
N195	N	1.177370	0.533722	0.123836
H196	H	1.144305	0.617021	0.161572
H197	H	1.165102	0.495962	0.183704
H198	H	0.820604	0.517496	0.083220
H199	H	0.195199	1.131483	-0.114807
H200	H	0.306555	1.718821	0.108109
N201	N	0.306118	0.789179	-0.095702
H202	H	0.254875	0.789912	-0.095420
H203	H	0.364548	0.755093	-0.176463
H204	H	0.306588	1.718792	0.485955
H205	H	0.306545	1.502752	0.702108
H206	H	0.820581	1.099906	-0.615571
N207	N	0.071605	1.112309	0.227433
H208	H	0.046189	1.193380	0.261405
H209	H	0.021496	1.111146	0.226497
H210	H	1.232068	0.334535	0.000042
H211	H	0.654128	0.933566	-0.384335
N212	N	0.168793	1.244168	0.095584
H213	H	0.152511	1.291085	0.048529
H214	H	0.110051	1.278593	0.176147
H215	H	0.903830	0.343763	-0.114663
H216	H	0.903851	0.901995	-0.556660
H217	H	0.434498	1.326268	0.525680
H218	H	1.040115	0.491154	-0.309414
