data_functionalizedCrystal
_audit_creation_method	'MofGen! by Chris Wilmer'
_symmetry_space_group_name_H-M	'P1'
_symmetry_Int_Tables_number	1
_symmetry_cell_setting	triclinic
loop_
_symmetry_equiv_pos_as_xyz
  x,y,z
_cell_length_a	11.804365
_cell_length_b	10.654550
_cell_length_c	10.654550
_cell_angle_alpha	95.515069
_cell_angle_beta	78.052832
_cell_angle_gamma	78.038737
loop_
_atom_site_label
_atom_site_type_symbol
_atom_site_fract_x
_atom_site_fract_y
_atom_site_fract_z
O1	O	0.098936	-1.692970	0.151285
O2	O	0.098958	-1.327497	0.168085
O3	O	0.098939	-1.518635	-0.023052
O4	O	0.098955	-1.501833	0.342422
O5	O	-0.099112	-1.468315	0.027216
O6	O	-0.099093	-1.277177	0.218353
O7	O	-0.099115	-1.642650	0.201553
Cu8	Cu	-0.117187	-1.455319	0.214543
Cu9	Cu	0.117031	-1.514828	0.155095
O10	O	-0.099096	-1.451513	0.392690
C11	C	-0.000065	-1.255540	0.191984
C12	C	-0.000057	-1.116099	0.188290
N13	N	-0.281924	-1.413473	0.256354
C14	C	-0.000086	-1.492241	-0.044716
C15	C	-0.000084	-1.488549	-0.184160
C16	C	-0.655897	-1.657172	0.012844
C17	C	-0.531238	-1.688827	-0.018792
C18	C	-0.468903	-1.619991	0.049992
C19	C	-0.531240	-1.519495	0.150417
C20	C	-0.655910	-1.487843	0.182063
C21	C	-0.468917	-1.450662	0.219211
C22	C	-0.531253	-1.350167	0.319636
C23	C	-0.655912	-1.318520	0.351276
C24	C	-0.718246	-1.387356	0.282492
C25	C	-0.344246	-1.482314	0.187565
C26	C	-0.344260	-1.312986	0.356784
C27	C	-0.468919	-1.281331	0.388420
N28	N	0.281767	-1.556684	0.113273
C29	C	-0.000089	-1.714608	0.177653
C30	C	-0.000090	-1.854051	0.181345
C31	C	-0.000055	-1.036614	0.300832
C32	C	-0.000076	-0.905587	0.297360
C33	C	-0.000095	-0.933546	0.068796
C34	C	-0.000082	-1.064567	0.072270
C35	C	-0.000090	-1.601089	-0.263644
C36	C	-0.000075	-1.597617	-0.394669
C37	C	-0.000053	-1.369053	-0.366711
C38	C	-0.000059	-1.372529	-0.235691
C39	C	-0.000068	-1.477907	0.414354
C40	C	-0.000063	-1.481601	0.553795
H41	H	-0.293503	-1.564138	0.105799
Br42	Br	-0.299721	-1.662950	0.007056
Br43	Br	-0.000100	-1.172446	-0.080472
Br44	Br	-0.259672	-1.219568	0.450148
Br45	Br	-0.446640	-1.825209	-0.155072
Br46	Br	-0.000024	-1.106545	0.458287
H47	H	-0.000078	-1.689259	-0.459381
H48	H	-0.000077	-0.840874	0.389004
H49	H	-0.000123	-0.891571	-0.025662
H50	H	-0.000035	-1.274592	-0.408684
H51	H	-0.000107	-1.695561	-0.221693
H52	H	-0.706658	-1.713216	-0.043144
H53	H	-0.000050	-1.280881	-0.170973
H54	H	-0.706666	-1.236700	0.433057
Br55	Br	-0.887434	-1.344383	0.325422
Br56	Br	-0.553529	-1.144945	0.524706
