data_functionalizedCrystal
_audit_creation_method	'MofGen! by Chris Wilmer'
_symmetry_space_group_name_H-M	'P1'
_symmetry_Int_Tables_number	1
_symmetry_cell_setting	triclinic
loop_
_symmetry_equiv_pos_as_xyz
  x,y,z
_cell_length_a	12.759401
_cell_length_b	18.215399
_cell_length_c	12.759399
_cell_angle_alpha	90.025381
_cell_angle_beta	89.984458
_cell_angle_gamma	89.983863
loop_
_atom_site_label
_atom_site_type_symbol
_atom_site_fract_x
_atom_site_fract_y
_atom_site_fract_z
Zn1	Zn	1.606227	-0.416068	0.418261
Zn2	Zn	1.606127	-0.293008	0.593959
Zn3	Zn	1.430536	-0.293022	0.418296
Zn4	Zn	1.430516	-0.416040	0.593900
O5	O	1.518352	-0.354535	0.506104
O6	O	1.753234	-0.399750	0.441578
O7	O	1.582802	-0.190026	0.570697
O8	O	1.453892	-0.309362	0.271271
O9	O	1.753161	-0.309338	0.570663
O10	O	1.582971	-0.399763	0.271244
O11	O	1.453796	-0.190036	0.441638
O12	O	1.283512	-0.309335	0.441580
O13	O	1.453857	-0.519028	0.570561
O14	O	1.283498	-0.399716	0.570595
O15	O	1.582951	-0.519049	0.441520
O16	O	1.582782	-0.309311	0.740973
O17	O	1.453761	-0.399702	0.740929
C18	C	1.245384	-0.354524	0.506086
C19	C	1.128608	-0.354537	0.506104
C20	C	1.073784	-0.401687	0.439010
C21	C	0.964060	-0.401692	0.439021
C22	C	0.963992	-0.307395	0.573227
C23	C	1.073714	-0.307387	0.573210
C24	C	1.518413	-0.546488	0.506030
C25	C	1.518439	-0.628287	0.505998
C26	C	1.585697	-0.893356	0.438716
C27	C	1.585685	-0.816497	0.438744
C28	C	1.451267	-0.816466	0.573128
C29	C	1.451285	-0.893323	0.573104
C30	C	1.518499	-0.931766	0.505892
C31	C	1.518468	-0.778050	0.505944
C32	C	1.518454	-0.694716	0.505975
C33	C	1.518515	-1.015105	0.505862
C34	C	1.792385	-0.354546	0.506123
C35	C	1.909161	-0.354550	0.506131
C36	C	1.518287	-0.354518	0.779071
C37	C	1.518356	-0.354535	0.895848
C38	C	1.518351	-0.163328	0.506102
C39	C	1.518528	-0.081530	0.505838
C40	C	1.518445	-0.354568	0.232071
C41	C	1.518485	-0.354582	0.115294
C42	C	1.585614	-0.307522	0.950698
C43	C	1.585681	-0.307547	1.060422
C44	C	1.451224	-0.401600	1.060436
C45	C	1.451162	-0.401578	0.950714
H46	H	1.118353	-0.268988	0.627847
H47	H	1.118475	-0.440078	0.384364
H48	H	1.396563	-0.924597	0.627813
H49	H	1.640427	-0.924654	0.383987
N50	N	1.378746	-0.452327	1.119622
H51	H	1.303680	-0.440847	1.100597
H52	H	1.395097	-0.504896	1.100441
H53	H	1.396393	-0.439866	0.906053
N54	N	0.904928	-0.452538	0.366645
H55	H	0.956355	-0.482401	0.324130
H56	H	0.859408	-0.486547	0.409471
H57	H	0.919285	-0.269008	0.627864
H58	H	1.640406	-0.785227	0.384043
N59	N	1.378773	-0.775002	0.645616
H60	H	1.388954	-0.720484	0.635437
H61	H	1.303747	-0.788434	0.629259
N62	N	1.658212	-0.256835	1.119587
H63	H	1.706905	-0.286778	1.165037
H64	H	1.700696	-0.227040	1.068114
H65	H	1.640328	-0.269218	0.906028
