data_functionalizedCrystal
_audit_creation_method	'MofGen! by Chris Wilmer'
_symmetry_space_group_name_H-M	'P1'
_symmetry_Int_Tables_number	1
_symmetry_cell_setting	triclinic
loop_
_symmetry_equiv_pos_as_xyz
  x,y,z
_cell_length_a	21.295412
_cell_length_b	19.805407
_cell_length_c	19.805405
_cell_angle_alpha	90.026410
_cell_angle_beta	90.029645
_cell_angle_gamma	90.017371
loop_
_atom_site_label
_atom_site_type_symbol
_atom_site_fract_x
_atom_site_fract_y
_atom_site_fract_z
Zn1	Zn	-0.355934	-1.034721	0.269477
Zn2	Zn	-0.105934	-0.784721	0.519477
Zn3	Zn	0.144066	-0.534721	0.769477
Zn4	Zn	0.394066	-0.284721	1.019477
Zn5	Zn	-0.250662	-1.034640	0.382666
Zn6	Zn	-0.000662	-0.784640	0.632666
Zn7	Zn	0.249338	-0.534640	0.882666
Zn8	Zn	0.499338	-0.284640	1.132666
Zn9	Zn	-0.250677	-0.921540	0.269496
Zn10	Zn	-0.000677	-0.671540	0.519496
Zn11	Zn	0.249323	-0.421540	0.769496
Zn12	Zn	0.499323	-0.171540	1.019496
Zn13	Zn	-0.355892	-0.921499	0.382629
Zn14	Zn	-0.105892	-0.671499	0.632629
Zn15	Zn	0.144108	-0.421499	0.882629
Zn16	Zn	0.394108	-0.171499	1.132629
O17	O	-0.303291	-0.978100	0.326067
O18	O	-0.053291	-0.728100	0.576067
O19	O	0.196709	-0.478100	0.826067
O20	O	0.446709	-0.228100	1.076067
O21	O	-0.341980	-1.129427	0.284499
O22	O	-0.091980	-0.879427	0.534499
O23	O	0.158020	-0.629427	0.784499
O24	O	0.408020	-0.379427	1.034499
O25	O	-0.162575	-1.019620	0.367677
O26	O	0.087425	-0.769620	0.617677
O27	O	0.337425	-0.519620	0.867677
O28	O	0.587425	-0.269620	1.117677
O29	O	-0.264663	-0.936605	0.174777
O30	O	-0.014663	-0.686605	0.424777
O31	O	0.235337	-0.436605	0.674777
O32	O	0.485337	-0.186605	0.924777
O33	O	-0.264638	-1.129367	0.367658
O34	O	-0.014638	-0.879367	0.617658
O35	O	0.235362	-0.629367	0.867658
O36	O	0.485362	-0.379367	1.117658
O37	O	-0.341995	-1.019758	0.174763
O38	O	-0.091995	-0.769758	0.424763
O39	O	0.158005	-0.519758	0.674763
O40	O	0.408005	-0.269758	0.924763
O41	O	-0.162586	-0.936526	0.284532
O42	O	0.087414	-0.686526	0.534532
O43	O	0.337414	-0.436526	0.784532
O44	O	0.587414	-0.186526	1.034532
O45	O	-0.264623	-0.826818	0.284496
O46	O	-0.014623	-0.576818	0.534496
O47	O	0.235377	-0.326818	0.784496
O48	O	0.485377	-0.076818	1.034496
O49	O	-0.443987	-0.936535	0.367596
O50	O	-0.193987	-0.686535	0.617596
O51	O	0.056013	-0.436535	0.867596
O52	O	0.306013	-0.186535	1.117596
O53	O	-0.341924	-0.826788	0.367614
O54	O	-0.091924	-0.576788	0.617614
O55	O	0.158076	-0.326788	0.867614
O56	O	0.408076	-0.076788	1.117614
O57	O	-0.444018	-1.019719	0.284463
O58	O	-0.194018	-0.769719	0.534463
O59	O	0.055982	-0.519719	0.784463
O60	O	0.305982	-0.269719	1.034463
O61	O	-0.264597	-1.019581	0.477377
O62	O	-0.014597	-0.769581	0.727377
O63	O	0.235403	-0.519581	0.977377
O64	O	0.485403	-0.269581	1.227377
O65	O	-0.341909	-0.936457	0.477350
O66	O	-0.091909	-0.686457	0.727350
O67	O	0.158091	-0.436457	0.977350
O68	O	0.408091	-0.186457	1.227350
C69	C	-0.303271	-0.802244	0.326054
C70	C	-0.053271	-0.552244	0.576054
C71	C	0.196729	-0.302244	0.826054
C72	C	0.446729	-0.052244	1.076054
C73	C	-0.303277	-0.727012	0.326065
C74	C	-0.053277	-0.477012	0.576065
C75	C	0.196723	-0.227012	0.826065
C76	C	0.446723	0.022988	1.076065
C77	C	-0.303261	-0.978024	0.501923
C78	C	-0.053261	-0.728024	0.751923
C79	C	0.196739	-0.478024	1.001923
C80	C	0.446739	-0.228024	1.251923
C81	C	-0.303269	-0.978053	0.577155
C82	C	-0.053269	-0.728053	0.827155
C83	C	0.196731	-0.478053	1.077155
C84	C	0.446731	-0.228053	1.327155
C85	C	-0.467481	-0.978131	0.326023
C86	C	-0.217481	-0.728131	0.576023
C87	C	0.032519	-0.478131	0.826023
C88	C	0.282519	-0.228131	1.076023
C89	C	-0.537450	-0.978145	0.326004
C90	C	-0.287450	-0.728145	0.576004
C91	C	-0.037450	-0.478145	0.826004
C92	C	0.212550	-0.228145	1.076004
C93	C	-1.036925	-1.021522	0.282610
C94	C	-0.786925	-0.771522	0.532610
C95	C	-0.536925	-0.521522	0.782610
C96	C	-0.286925	-0.271522	1.032610
C97	C	-0.971182	-1.021517	0.282627
C98	C	-0.721182	-0.771517	0.532627
C99	C	-0.471182	-0.521517	0.782627
C100	C	-0.221182	-0.271517	1.032627
C101	C	-0.938289	-0.978203	0.325915
C102	C	-0.688289	-0.728203	0.575915
C103	C	-0.438289	-0.478203	0.825915
C104	C	-0.188289	-0.228203	1.075915
C105	C	-0.971144	-0.934904	0.369203
C106	C	-0.721144	-0.684904	0.619203
C107	C	-0.471144	-0.434904	0.869203
C108	C	-0.221144	-0.184904	1.119203
C109	C	-1.036886	-0.934915	0.369190
C110	C	-0.786886	-0.684915	0.619190
C111	C	-0.536886	-0.434915	0.869190
C112	C	-0.286886	-0.184915	1.119190
N113	N	-0.835060	-0.918935	0.331123
N114	N	-0.585060	-0.668935	0.581123
N115	N	-0.335060	-0.418935	0.831123
N116	N	-0.085060	-0.168935	1.081123
N117	N	-0.772608	-0.918927	0.331131
N118	N	-0.522608	-0.668927	0.581131
N119	N	-0.272608	-0.418927	0.831131
N120	N	-0.022608	-0.168927	1.081131
C121	C	-0.740214	-0.978168	0.325957
C122	C	-0.490214	-0.728168	0.575957
C123	C	-0.240214	-0.478168	0.825957
C124	C	0.009786	-0.228168	1.075957
N125	N	-0.772631	-1.037419	0.320762
N126	N	-0.522631	-0.787419	0.570762
N127	N	-0.272631	-0.537419	0.820762
N128	N	-0.022631	-0.287419	1.070762
N129	N	-0.835089	-1.037427	0.320750
N130	N	-0.585089	-0.787427	0.570750
N131	N	-0.335089	-0.537427	0.820750
N132	N	-0.085089	-0.287427	1.070750
C133	C	-0.867004	-0.978186	0.325934
C134	C	-0.617004	-0.728186	0.575934
C135	C	-0.367004	-0.478186	0.825934
C136	C	-0.117004	-0.228186	1.075934
C137	C	-0.636082	-1.021462	0.282694
C138	C	-0.386082	-0.771462	0.532694
C139	C	-0.136082	-0.521462	0.782694
C140	C	0.113918	-0.271462	1.032694
C141	C	-0.570338	-1.021458	0.282715
C142	C	-0.320338	-0.771458	0.532715
C143	C	-0.070338	-0.521458	0.782715
C144	C	0.179662	-0.271458	1.032715
C145	C	-0.570301	-0.934838	0.369287
C146	C	-0.320301	-0.684838	0.619287
C147	C	-0.070301	-0.434838	0.869287
C148	C	0.179699	-0.184838	1.119287
C149	C	-0.636044	-0.934849	0.369270
C150	C	-0.386044	-0.684849	0.619270
C151	C	-0.136044	-0.434849	0.869270
C152	C	0.113956	-0.184849	1.119270
C153	C	-0.668930	-0.978160	0.325969
C154	C	-0.418930	-0.728160	0.575969
C155	C	-0.168930	-0.478160	0.825969
C156	C	0.081070	-0.228160	1.075969
C157	C	-0.139740	-0.978108	0.326061
C158	C	0.110260	-0.728108	0.576061
C159	C	0.360260	-0.478108	0.826061
C160	C	0.610260	-0.228108	1.076061
C161	C	-0.069772	-0.978226	0.325889
C162	C	0.180228	-0.728226	0.575889
C163	C	0.430228	-0.478226	0.825889
C164	C	0.680228	-0.228226	1.075889
C165	C	-0.303312	-1.154643	0.326080
C166	C	-0.053312	-0.904643	0.576080
C167	C	0.196688	-0.654643	0.826080
C168	C	0.446688	-0.404643	1.076080
C169	C	-0.303321	-1.229875	0.326086
C170	C	-0.053321	-0.979875	0.576086
C171	C	0.196679	-0.729875	0.826086
C172	C	0.446679	-0.479875	1.076086
C173	C	-0.343462	-0.691670	0.369409
C174	C	-0.093462	-0.441670	0.619409
C175	C	0.156538	-0.191670	0.869409
C176	C	0.406538	0.058330	1.119409
C177	C	-0.343471	-0.620982	0.369411
C178	C	-0.093471	-0.370982	0.619411
C179	C	0.156529	-0.120982	0.869411
C180	C	0.406529	0.129018	1.119411
C181	C	-0.303291	-0.585636	0.326070
C182	C	-0.053291	-0.335636	0.576070
C183	C	0.196709	-0.085636	0.826070
C184	C	0.446709	0.164364	1.076070
C185	C	-0.263104	-0.620983	0.282720
C186	C	-0.013104	-0.370983	0.532720
C187	C	0.236896	-0.120983	0.782720
C188	C	0.486896	0.129017	1.032720
C189	C	-0.263099	-0.691671	0.282716
C190	C	-0.013099	-0.441671	0.532716
C191	C	0.236901	-0.191671	0.782716
C192	C	0.486901	0.058329	1.032716
C193	C	-0.263125	-0.335910	0.282735
C194	C	-0.013125	-0.085910	0.532735
C195	C	0.236875	0.164090	0.782735
C196	C	0.486875	0.414090	1.032735
C197	C	-0.263132	-0.265218	0.282744
C198	C	-0.013132	-0.015218	0.532744
C199	C	0.236868	0.234782	0.782744
C200	C	0.486868	0.484782	1.032744
C201	C	-0.343497	-0.265221	0.369430
C202	C	-0.093497	-0.015221	0.619430
C203	C	0.156503	0.234779	0.869430
C204	C	0.406503	0.484779	1.119430
C205	C	-0.343492	-0.335908	0.369426
C206	C	-0.093492	-0.085908	0.619426
C207	C	0.156508	0.164092	0.869426
C208	C	0.406508	0.414092	1.119426
C209	C	-0.303308	-0.371249	0.326074
C210	C	-0.053308	-0.121249	0.576074
C211	C	0.196692	0.128751	0.826074
C212	C	0.446692	0.378751	1.076074
C213	C	-0.303299	-0.447898	0.326072
C214	C	-0.053299	-0.197898	0.576072
C215	C	0.196701	0.052102	0.826072
C216	C	0.446701	0.302102	1.076072
C217	C	-0.303296	-0.508989	0.326074
C218	C	-0.053296	-0.258989	0.576074
C219	C	0.196704	-0.008989	0.826074
C220	C	0.446704	0.241011	1.076074
C221	C	-0.303336	-0.978195	0.149524
C222	C	-0.053336	-0.728195	0.399524
C223	C	0.196664	-0.478195	0.649524
C224	C	0.446664	-0.228195	0.899524
C225	C	-0.303354	-0.978235	0.074292
C226	C	-0.053354	-0.728235	0.324292
C227	C	0.196646	-0.478235	0.574292
C228	C	0.446646	-0.228235	0.824292
C229	C	-0.263055	-1.021378	0.612490
C230	C	-0.013055	-0.771378	0.862490
C231	C	0.236945	-0.521378	1.112490
C232	C	0.486945	-0.271378	1.362490
C233	C	-0.263068	-1.021407	0.683179
C234	C	-0.013068	-0.771407	0.933179
C235	C	0.236932	-0.521407	1.183179
C236	C	0.486932	-0.271407	1.433179
C237	C	-0.303294	-0.978107	0.718530
C238	C	-0.053294	-0.728107	0.968530
C239	C	0.196706	-0.478107	1.218530
C240	C	0.446706	-0.228107	1.468530
C241	C	-0.343513	-0.934780	0.683190
C242	C	-0.093513	-0.684780	0.933190
C243	C	0.156487	-0.434780	1.183190
C244	C	0.406487	-0.184780	1.433190
C245	C	-0.343501	-0.934755	0.612503
C246	C	-0.093501	-0.684755	0.862503
C247	C	0.156499	-0.434755	1.112503
C248	C	0.406499	-0.184755	1.362503
C249	C	-0.343559	-0.934880	0.968263
C250	C	-0.093559	-0.684880	1.218263
C251	C	0.156441	-0.434880	1.468263
C252	C	0.406441	-0.184880	1.718263
C253	C	-0.343566	-0.934907	1.038955
C254	C	-0.093566	-0.684907	1.288955
C255	C	0.156434	-0.434907	1.538955
C256	C	0.406434	-0.184907	1.788955
C257	C	-0.263126	-1.021531	1.038939
C258	C	-0.013126	-0.771531	1.288939
C259	C	0.236874	-0.521531	1.538939
C260	C	0.486874	-0.271531	1.788939
C261	C	-0.263115	-1.021507	0.968252
C262	C	-0.013115	-0.771507	1.218252
C263	C	0.236885	-0.521507	1.468252
C264	C	0.486885	-0.271507	1.718252
C265	C	-0.303336	-0.978183	0.932918
C266	C	-0.053336	-0.728183	1.182918
C267	C	0.196664	-0.478183	1.432918
C268	C	0.446664	-0.228183	1.682918
C269	C	-0.303321	-0.978153	0.856269
C270	C	-0.053321	-0.728153	1.106269
C271	C	0.196679	-0.478153	1.356269
C272	C	0.446679	-0.228153	1.606269
C273	C	-0.303306	-0.978133	0.795177
C274	C	-0.053306	-0.728133	1.045177
C275	C	0.196694	-0.478133	1.295177
C276	C	0.446694	-0.228133	1.545177
H277	H	-1.063697	-1.056793	0.247354
H278	H	-0.813697	-0.806793	0.497354
H279	H	-0.563697	-0.556793	0.747354
H280	H	-0.313697	-0.306793	0.997354
Br281	Br	-0.680717	-1.080225	0.223916
Br282	Br	-0.430717	-0.830225	0.473916
Br283	Br	-0.180717	-0.580225	0.723916
Br284	Br	0.069283	-0.330225	0.973916
H285	H	-0.230358	-1.056763	0.939471
H286	H	0.019642	-0.806763	1.189471
H287	H	0.269642	-0.556763	1.439471
H288	H	0.519642	-0.306763	1.689471
Br289	Br	-0.398034	-0.217255	0.428267
Br290	Br	-0.148034	0.032745	0.678267
Br291	Br	0.101966	0.282745	0.928267
Br292	Br	0.351966	0.532745	1.178267
Br293	Br	-0.398145	-0.876083	0.920318
Br294	Br	-0.148145	-0.626083	1.170318
Br295	Br	0.101855	-0.376083	1.420318
Br296	Br	0.351855	-0.126083	1.670318
H297	H	-0.230391	-0.592200	0.247428
H298	H	0.019609	-0.342200	0.497428
H299	H	0.269609	-0.092200	0.747428
H300	H	0.519609	0.157800	0.997428
Br301	Br	-1.081467	-0.876152	0.427932
Br302	Br	-0.831467	-0.626152	0.677932
Br303	Br	-0.581467	-0.376152	0.927932
Br304	Br	-0.331467	-0.126152	1.177932
Br305	Br	-0.208542	-1.080332	1.086897
Br306	Br	0.041458	-0.830332	1.336897
Br307	Br	0.291458	-0.580332	1.586897
Br308	Br	0.541458	-0.330332	1.836897
Br309	Br	-0.208597	-0.217250	0.223921
Br310	Br	0.041403	0.032750	0.473921
Br311	Br	0.291403	0.282750	0.723921
Br312	Br	0.541403	0.532750	0.973921
Br313	Br	-0.208454	-1.080139	0.564520
Br314	Br	0.041546	-0.830139	0.814520
Br315	Br	0.291546	-0.580139	1.064520
Br316	Br	0.541546	-0.330139	1.314520
Br317	Br	-0.398110	-0.876021	0.731166
Br318	Br	-0.148110	-0.626021	0.981166
Br319	Br	0.101890	-0.376021	1.231166
Br320	Br	0.351890	-0.126021	1.481166
H321	H	-0.376180	-0.720443	0.404705
H322	H	-0.126180	-0.470443	0.654705
H323	H	0.123820	-0.220443	0.904705
H324	H	0.373820	0.029557	1.154705
Br325	Br	-0.208592	-0.383864	0.223897
Br326	Br	0.041408	-0.133864	0.473897
Br327	Br	0.291408	0.116136	0.723897
Br328	Br	0.541408	0.366136	0.973897
Br329	Br	-0.680625	-0.876086	0.428010
Br330	Br	-0.430625	-0.626086	0.678010
Br331	Br	-0.180625	-0.376086	0.928010
Br332	Br	0.069375	-0.126086	1.178010
H333	H	-0.230379	-0.720445	0.247417
H334	H	0.019621	-0.470445	0.497417
H335	H	0.269621	-0.220445	0.747417
H336	H	0.519621	0.029555	0.997417
H337	H	-0.543595	-1.056720	0.247473
H338	H	-0.293595	-0.806720	0.497473
H339	H	-0.043595	-0.556720	0.747473
H340	H	0.206405	-0.306720	0.997473
Br341	Br	-0.208493	-1.080211	0.731132
Br342	Br	0.041507	-0.830211	0.981132
Br343	Br	0.291507	-0.580211	1.231132
Br344	Br	0.541507	-0.330211	1.481132
H345	H	-0.376249	-0.899477	0.583733
H346	H	-0.126249	-0.649477	0.833733
H347	H	0.123751	-0.399477	1.083733
H348	H	0.373751	-0.149477	1.333733
H349	H	-0.376327	-0.899647	1.067736
H350	H	-0.126327	-0.649647	1.317736
H351	H	0.123673	-0.399647	1.567736
H352	H	0.373673	-0.149647	1.817736
H353	H	-0.944433	-1.056774	0.247381
H354	H	-0.694433	-0.806774	0.497381
H355	H	-0.444433	-0.556774	0.747381
H356	H	-0.194433	-0.306774	0.997381
H357	H	-0.543521	-0.899574	0.404536
H358	H	-0.293521	-0.649574	0.654536
H359	H	-0.043521	-0.399574	0.904536
H360	H	0.206479	-0.149574	1.154536
Br361	Br	-0.398013	-0.573020	0.428237
Br362	Br	-0.148013	-0.323020	0.678237
Br363	Br	0.101987	-0.073020	0.928237
Br364	Br	0.351987	0.176980	1.178237
Br365	Br	-0.926506	-0.876124	0.427956
Br366	Br	-0.676506	-0.626124	0.677956
Br367	Br	-0.426506	-0.376124	0.927956
Br368	Br	-0.176506	-0.126124	1.177956
H369	H	-0.376209	-0.364683	0.404720
H370	H	-0.126209	-0.114683	0.654720
H371	H	0.123791	0.135317	0.904720
H372	H	0.373791	0.385317	1.154720
