data_functionalizedCrystal
_audit_creation_method	'MofGen! by Chris Wilmer'
_symmetry_space_group_name_H-M	'P1'
_symmetry_Int_Tables_number	1
_symmetry_cell_setting	triclinic
loop_
_symmetry_equiv_pos_as_xyz
  x,y,z
_cell_length_a	16.625548
_cell_length_b	18.101397
_cell_length_c	16.625539
_cell_angle_alpha	89.970010
_cell_angle_beta	89.982945
_cell_angle_gamma	90.021534
loop_
_atom_site_label
_atom_site_type_symbol
_atom_site_fract_x
_atom_site_fract_y
_atom_site_fract_z
Zn1	Zn	1.232664	-0.294821	-0.455889
Zn2	Zn	1.732664	0.205179	0.044111
Zn3	Zn	1.232580	-0.418666	-0.321048
Zn4	Zn	1.732580	0.081334	0.178952
Zn5	Zn	1.097834	-0.294845	-0.321070
Zn6	Zn	1.597834	0.205155	0.178930
Zn7	Zn	1.097801	-0.418627	-0.455838
Zn8	Zn	1.597801	0.081373	0.044162
O9	O	1.165220	-0.356740	-0.388461
O10	O	1.665220	0.143260	0.111539
O11	O	1.345485	-0.311255	-0.438015
O12	O	1.845485	0.188745	0.061985
O13	O	1.214684	-0.402267	-0.208219
O14	O	1.714684	0.097733	0.291781
O15	O	1.115768	-0.191209	-0.338985
O16	O	1.615768	0.308791	0.161015
O17	O	1.345423	-0.402243	-0.338948
O18	O	1.845423	0.097757	0.161052
O19	O	1.214827	-0.191191	-0.438036
O20	O	1.714827	0.308809	0.061964
O21	O	1.115687	-0.311296	-0.208235
O22	O	1.615687	0.188704	0.291765
O23	O	0.984997	-0.311259	-0.338935
O24	O	1.484997	0.188741	0.161065
O25	O	1.115712	-0.402178	-0.568677
O26	O	1.615712	0.097822	-0.068677
O27	O	0.984973	-0.402201	-0.437949
O28	O	1.484973	0.097799	0.062051
O29	O	1.214795	-0.311218	-0.568715
O30	O	1.714795	0.188782	-0.068715
O31	O	1.214652	-0.522294	-0.338898
O32	O	1.714652	-0.022294	0.161102
O33	O	1.115630	-0.522265	-0.437928
O34	O	1.615630	-0.022265	0.062072
C35	C	0.955729	-0.356729	-0.388439
C36	C	1.455729	0.143271	0.111561
C37	C	0.866108	-0.356742	-0.388448
C38	C	1.366108	0.143258	0.111552
C39	C	1.165151	-0.549150	-0.388422
C40	C	1.665151	-0.049150	0.111578
C41	C	1.165195	-0.631464	-0.388433
C42	C	1.665195	-0.131464	0.111567
C43	C	0.537932	-0.356747	-0.388483
C44	C	1.037932	0.143253	0.111517
C45	C	0.629240	-0.356744	-0.388471
C46	C	1.129240	0.143256	0.111529
C47	C	0.702017	-0.356745	-0.388465
C48	C	1.202017	0.143255	0.111535
C49	C	0.793331	-0.356741	-0.388454
C50	C	1.293331	0.143259	0.111546
C51	C	1.165298	-0.930555	-0.388506
C52	C	1.665298	-0.430555	0.111494
C53	C	1.227426	-0.899217	-0.326033
C54	C	1.727426	-0.399217	0.173967
C55	C	1.227641	-0.813598	-0.326194
C56	C	1.727641	-0.313598	0.173806
C57	C	1.165247	-0.782173	-0.388469
C58	C	1.665247	-0.282173	0.111531
C59	C	1.188278	-0.813180	-0.473459
C60	C	1.688278	-0.313180	0.026541
C61	C	1.188759	-0.898825	-0.473119
C62	C	1.688759	-0.398825	0.026881
C63	C	1.079973	-0.899065	-0.366725
C64	C	1.579973	-0.399065	0.133275
C65	C	1.080394	-0.813416	-0.364828
C66	C	1.580394	-0.313416	0.135172
C67	C	1.165216	-0.698313	-0.388453
C68	C	1.665216	-0.198313	0.111547
C69	C	1.165330	-1.014415	-0.388528
C70	C	1.665330	-0.514415	0.111472
C71	C	1.375528	-0.356751	-0.388485
C72	C	1.875528	0.143249	0.111515
C73	C	1.465149	-0.356756	-0.388494
C74	C	1.965149	0.143244	0.111506
C75	C	1.165259	-0.356691	-0.598770
C76	C	1.665259	0.143309	-0.098770
C77	C	1.165276	-0.356670	-0.688392
C78	C	1.665276	0.143330	-0.188392
C79	C	1.165311	-0.163578	-0.388518
C80	C	1.665311	0.336422	0.111482
C81	C	1.165350	-0.081264	-0.388543
C82	C	1.665350	0.418736	0.111457
C83	C	1.165289	-0.356654	-0.761174
C84	C	1.665289	0.143346	-0.261174
C85	C	1.165308	-0.356626	-0.852483
C86	C	1.665308	0.143374	-0.352483
C87	C	1.165327	-0.356600	-0.925259
C88	C	1.665327	0.143400	-0.425259
C89	C	1.165347	-0.356573	-1.016574
C90	C	1.665347	0.143427	-0.516574
C91	C	1.165227	-0.356735	-0.178971
C92	C	1.665227	0.143265	0.321029
C93	C	1.165366	-0.356547	-0.089350
C94	C	1.665366	0.143453	0.410650
H95	H	1.213233	-0.792637	-0.263176
H96	H	1.713233	-0.292637	0.236824
H97	H	1.290284	-0.920684	-0.340278
H98	H	1.790284	-0.420684	0.159722
C99	C	1.313021	-0.785836	-0.345674
C100	C	1.813021	-0.285836	0.154326
C101	C	1.381220	-0.841597	-0.361136
C102	C	1.881220	-0.341597	0.138864
C103	C	1.466603	-0.813835	-0.380621
C104	C	1.966603	-0.313835	0.119379
C105	C	1.483788	-0.730313	-0.384645
C106	C	1.983788	-0.230313	0.115355
C107	C	1.415587	-0.674548	-0.369183
C108	C	1.915587	-0.174548	0.130817
C109	C	1.330204	-0.702309	-0.349697
C110	C	1.830204	-0.202309	0.150303
H111	H	1.368500	-0.903429	-0.358157
H112	H	1.868500	-0.403429	0.141843
H113	H	1.517089	-0.855117	-0.392067
H114	H	2.017089	-0.355117	0.107933
H115	H	1.546994	-0.709763	-0.399069
H116	H	2.046994	-0.209763	0.100931
H117	H	1.428307	-0.612715	-0.372161
H118	H	1.928307	-0.112715	0.127839
H119	H	1.279718	-0.661028	-0.338251
H120	H	1.779718	-0.161028	0.161749
H121	H	1.031615	-0.792032	-0.406999
H122	H	1.531615	-0.292032	0.093001
C123	C	1.273014	-0.925740	-0.498035
C124	C	1.773014	-0.425740	0.001965
C125	C	1.339393	-0.869305	-0.518104
C126	C	1.839393	-0.369305	-0.018104
C127	C	1.423652	-0.896215	-0.543019
C128	C	1.923652	-0.396215	-0.043019
C129	C	1.441531	-0.979560	-0.547866
C130	C	1.941531	-0.479560	-0.047866
C131	C	1.375150	-1.036001	-0.527796
C132	C	1.875150	-0.536001	-0.027796
C133	C	1.290892	-1.009091	-0.502881
C134	C	1.790892	-0.509091	-0.002881
H135	H	1.326160	-0.807603	-0.514517
H136	H	1.826160	-0.307603	-0.014517
H137	H	1.472791	-0.854433	-0.557876
H138	H	1.972791	-0.354433	-0.057876
H139	H	1.503904	-0.999481	-0.566309
H140	H	2.003904	-0.499481	-0.066309
H141	H	1.388384	-1.097703	-0.531383
H142	H	1.888384	-0.597703	-0.031383
H143	H	1.241753	-1.050872	-0.488024
H144	H	1.741753	-0.550872	0.011976
C145	C	1.208215	-0.927116	-0.240642
C146	C	1.708215	-0.427116	0.259358
C147	C	1.135879	-0.978697	-0.226590
C148	C	1.635879	-0.478697	0.273410
C149	C	1.116668	-1.006603	-0.141197
C150	C	1.616668	-0.506603	0.358803
C151	C	1.169792	-0.982928	-0.069856
C152	C	1.669792	-0.482928	0.430144
C153	C	1.242131	-0.931344	-0.083906
C154	C	1.742131	-0.431344	0.416094
C155	C	1.261343	-0.903438	-0.169298
C156	C	1.761343	-0.403438	0.330702
H157	H	1.096550	-0.996225	-0.279403
H158	H	1.596550	-0.496225	0.220597
H159	H	1.063117	-1.044789	-0.130797
H160	H	1.563117	-0.544789	0.369203
H161	H	1.155570	-1.003586	-0.006643
H162	H	1.655570	-0.503586	0.493357
H163	H	1.281461	-0.913816	-0.031093
H164	H	1.781461	-0.413816	0.468907
H165	H	1.314894	-0.865252	-0.179698
H166	H	1.814894	-0.365252	0.320302
C167	C	1.130288	-0.926834	-0.538149
C168	C	1.630288	-0.426834	-0.038149
C169	C	1.083310	-0.871269	-0.590226
C170	C	1.583310	-0.371269	-0.090226
C171	C	1.024845	-0.899274	-0.655259
C172	C	1.524845	-0.399274	-0.155259
C173	C	1.013359	-0.982844	-0.668215
C174	C	1.513359	-0.482844	-0.168215
C175	C	1.060339	-1.038415	-0.616136
C176	C	1.560339	-0.538415	-0.116136
C177	C	1.118803	-1.010410	-0.551103
C178	C	1.618803	-0.510410	-0.051103
H179	H	1.091811	-0.809400	-0.580637
H180	H	1.591811	-0.309400	-0.080637
H181	H	0.990068	-0.858136	-0.693811
H182	H	1.490068	-0.358136	-0.193811
H183	H	0.970080	-1.003575	-0.716356
H184	H	1.470080	-0.503575	-0.216356
H185	H	1.051837	-1.100283	-0.625725
H186	H	1.551837	-0.600283	-0.125725
H187	H	1.153581	-1.051547	-0.512551
H188	H	1.653581	-0.551547	-0.012551
H189	H	1.144410	-0.792822	-0.521259
H190	H	1.644410	-0.292822	-0.021259
C191	C	1.051665	-0.928316	-0.284449
C192	C	1.551665	-0.428316	0.215551
C193	C	1.101452	-0.912131	-0.208377
C194	C	1.601452	-0.412131	0.291623
C195	C	1.073155	-0.941382	-0.126097
C196	C	1.573155	-0.441382	0.373903
C197	C	0.995071	-0.986817	-0.119891
C198	C	1.495071	-0.486817	0.380109
C199	C	0.945279	-1.003004	-0.195966
C200	C	1.445279	-0.503004	0.304034
C201	C	0.973576	-0.973754	-0.278245
C202	C	1.473576	-0.473754	0.221755
H203	H	1.159259	-0.878495	-0.212969
H204	H	1.659259	-0.378495	0.287031
H205	H	1.110014	-0.929398	-0.069781
H206	H	1.610014	-0.429398	0.430219
H207	H	0.974123	-1.008470	-0.058983
H208	H	1.474123	-0.508470	0.441017
H209	H	0.887472	-1.036640	-0.191374
H210	H	1.387472	-0.536640	0.308626
H211	H	0.936717	-0.985737	-0.334561
H212	H	1.436717	-0.485737	0.165439
C213	C	1.056929	-0.786054	-0.280331
C214	C	1.556929	-0.286054	0.219669
C215	C	1.114518	-0.735578	-0.232997
C216	C	1.614518	-0.235578	0.267003
C217	C	1.091057	-0.708215	-0.148498
C218	C	1.591057	-0.208215	0.351502
C219	C	1.010007	-0.731327	-0.111334
C220	C	1.510007	-0.231327	0.388666
C221	C	0.952412	-0.781806	-0.158669
C222	C	1.452412	-0.281806	0.341331
C223	C	0.975873	-0.809169	-0.243167
C224	C	1.475873	-0.309169	0.256833
H225	H	1.174521	-0.718466	-0.260508
H226	H	1.674521	-0.218466	0.239492
H227	H	1.133693	-0.670847	-0.113458
H228	H	1.633693	-0.170847	0.386542
H229	H	0.992639	-0.711071	-0.048783
H230	H	1.492639	-0.211071	0.451217
H231	H	0.892409	-0.798917	-0.131158
H232	H	1.392409	-0.298917	0.368842
H233	H	0.933237	-0.846537	-0.278208
H234	H	1.433237	-0.346537	0.221792
H235	H	1.249948	-0.791672	-0.492221
H236	H	1.749948	-0.291672	0.007779
C237	C	1.017431	-0.926448	-0.428186
C238	C	1.517431	-0.426448	0.071814
C239	C	1.002549	-1.009850	-0.438770
C240	C	1.502549	-0.509850	0.061230
C241	C	0.940015	-1.037237	-0.500232
C242	C	1.440015	-0.537237	-0.000232
C243	C	0.892364	-0.981221	-0.551112
C244	C	1.392364	-0.481221	-0.051112
C245	C	0.907245	-0.897814	-0.540530
C246	C	1.407245	-0.397814	-0.040530
C247	C	0.969779	-0.870427	-0.479067
C248	C	1.469779	-0.370427	0.020933
H249	H	1.037824	-1.051321	-0.401104
H250	H	1.537824	-0.551321	0.098896
H251	H	0.928999	-1.098981	-0.508065
H252	H	1.428999	-0.598981	-0.008065
H253	H	0.846072	-1.001494	-0.596610
H254	H	1.346072	-0.501494	-0.096610
H255	H	0.871970	-0.856343	-0.578195
H256	H	1.371970	-0.356343	-0.078195
H257	H	0.980795	-0.808683	-0.471234
H258	H	1.480795	-0.308683	0.028766
