data_functionalizedCrystal
_audit_creation_method	'MofGen! by Chris Wilmer'
_symmetry_space_group_name_H-M	'P1'
_symmetry_Int_Tables_number	1
_symmetry_cell_setting	triclinic
loop_
_symmetry_equiv_pos_as_xyz
  x,y,z
_cell_length_a	17.699083
_cell_length_b	15.072220
_cell_length_c	17.699083
_cell_angle_alpha	90.002035
_cell_angle_beta	83.283015
_cell_angle_gamma	90.006459
loop_
_atom_site_label
_atom_site_type_symbol
_atom_site_fract_x
_atom_site_fract_y
_atom_site_fract_z
O1	O	1.004085	0.073660	0.095706
O2	O	0.783707	0.073689	0.108159
O3	O	0.900122	0.073666	-0.008257
O4	O	0.887670	0.073683	0.212122
O5	O	0.900093	-0.073899	-0.008250
O6	O	0.783678	-0.073876	0.108165
O7	O	1.004056	-0.073905	0.095713
Zn8	Zn	0.893863	-0.097320	0.101940
Zn9	Zn	0.893901	0.097104	0.101931
O10	O	0.887641	-0.073882	0.212128
C11	C	0.755495	-0.000090	0.107716
C12	C	0.671477	-0.000079	0.106377
N13	N	0.893842	-0.230009	0.101945
C14	C	0.622856	-0.000074	0.174710
C15	C	0.543913	-0.000085	0.173448
C16	C	0.513592	-0.000096	0.103852
C17	C	0.562219	-0.000103	0.035513
C18	C	0.641161	-0.000098	0.036776
C19	C	0.243856	-0.000126	0.030418
C20	C	0.164908	-0.000128	0.029160
C21	C	0.146608	-0.000113	0.167090
C22	C	0.225550	-0.000108	0.168353
C23	C	0.274170	-0.000120	0.100015
C24	C	0.359769	-0.000109	0.101384
C25	C	0.427995	-0.000100	0.102481
C26	C	0.893899	-0.589210	0.101928
C27	C	0.831399	-0.551591	0.164012
C28	C	0.831542	-0.448765	0.164238
C29	C	0.893870	-0.411006	0.101937
C30	C	0.972810	-0.448306	0.119040
C31	C	0.972460	-0.551164	0.119481
C32	C	0.878163	-0.551314	0.022557
C33	C	0.876350	-0.448450	0.023090
C34	C	0.893859	-0.310293	0.101940
C35	C	0.893915	-0.689923	0.101927
C36	C	1.032268	-0.000124	0.096156
C37	C	1.116286	-0.000130	0.097494
C38	C	0.899662	-0.000117	-0.036451
C39	C	0.898323	-0.000117	-0.120469
N40	N	0.893927	0.229792	0.101920
C41	C	0.966656	-0.000127	-0.169090
C42	C	0.965394	-0.000119	-0.248033
C43	C	0.895798	-0.000107	-0.278354
C44	C	0.827459	-0.000094	-0.229727
C45	C	0.828722	-0.000096	-0.150785
C46	C	0.822364	-0.000086	-0.548090
C47	C	0.821106	-0.000087	-0.627038
C48	C	0.959036	-0.000110	-0.645338
C49	C	0.960299	-0.000111	-0.566396
C50	C	0.891961	-0.000094	-0.517776
C51	C	0.893330	-0.000101	-0.432177
C52	C	0.894427	-0.000107	-0.363951
C53	C	0.888102	-0.000097	0.240322
C54	C	0.889440	-0.000091	0.324340
H55	H	0.647537	-0.000065	0.231384
C56	C	0.845110	-0.415499	0.243804
H57	H	0.845241	-0.352468	0.244215
H58	H	0.892760	-0.436804	0.255886
H59	H	0.805692	-0.436690	0.280398
C60	C	0.694644	-0.000095	-0.038390
H61	H	0.665282	-0.000092	-0.080021
H62	H	0.725819	-0.051551	-0.040765
H63	H	0.725820	0.051374	-0.040764
C64	C	1.036854	-0.000121	-0.533047
H65	H	1.077372	-0.000117	-0.573311
H66	H	1.040207	-0.051579	-0.502631
H67	H	1.040220	0.051346	-0.502634
C68	C	0.753558	-0.000084	-0.097298
H69	H	0.764277	-0.000077	-0.045941
H70	H	0.724999	-0.051537	-0.106473
H71	H	0.725028	0.051388	-0.106477
C72	C	0.744548	-0.000067	-0.660393
H73	H	0.753587	-0.000078	-0.714371
H74	H	0.716431	0.051399	-0.643698
H75	H	0.716404	-0.051526	-0.643696
C76	C	0.802087	-0.586380	0.000300
H77	H	0.793680	-0.562717	-0.047761
H78	H	0.761860	-0.568767	0.037554
H79	H	0.803791	-0.649297	-0.002632
H80	H	1.021038	-0.000130	-0.287618
C81	C	0.992033	-0.413499	0.196338
H82	H	1.039911	-0.436439	0.206178
H83	H	0.953861	-0.432051	0.235356
H84	H	0.994196	-0.350529	0.195161
H85	H	1.020413	-0.576048	0.076038
C86	C	0.131557	-0.000148	-0.047400
H87	H	0.171819	-0.000164	-0.087919
H88	H	0.101146	0.051308	-0.050765
H89	H	0.101138	-0.051617	-0.050748
C90	C	0.747195	-0.000083	-0.494618
H91	H	0.705567	-0.000087	-0.523984
H92	H	0.744823	0.051375	-0.463438
H93	H	0.744814	-0.051550	-0.463446
C94	C	0.297328	-0.000133	-0.044751
H95	H	0.267962	-0.000131	-0.086379
H96	H	0.328500	-0.051592	-0.047126
H97	H	0.328507	0.051333	-0.047130
C98	C	0.528869	-0.000113	-0.041041
H99	H	0.474890	-0.000106	-0.032008
H100	H	0.545562	-0.051573	-0.069171
H101	H	0.545571	0.051352	-0.069171
H102	H	0.818282	-0.424072	0.010107
H103	H	0.986348	-0.575143	0.177362
C104	C	0.933871	-0.413746	-0.042233
H105	H	0.969485	-0.375801	-0.022184
H106	H	0.907673	-0.381634	-0.077322
H107	H	0.959958	-0.462402	-0.067484
C108	C	0.490433	-0.000077	0.248615
H109	H	0.519797	-0.000059	0.290244
H110	H	0.459255	-0.051538	0.250996
H111	H	0.459260	0.051386	0.250984
C112	C	1.034208	-0.000115	-0.698822
H113	H	1.023492	-0.000101	-0.750180
H114	H	1.062742	-0.051578	-0.689648
H115	H	1.062759	0.051347	-0.689639
H116	H	0.250232	-0.000095	0.225025
H117	H	0.107012	-0.000107	0.222734
C118	C	0.939730	-0.584184	-0.039856
H119	H	0.974858	-0.620825	-0.017693
H120	H	0.965792	-0.534723	-0.063803
H121	H	0.916520	-0.617303	-0.076568
H122	H	0.772859	-0.423547	0.154069
C123	C	0.751867	-0.585040	0.150515
H124	H	0.756062	-0.622253	0.106901
H125	H	0.720165	-0.535840	0.142664
H126	H	0.730310	-0.617686	0.193656
H127	H	0.841293	-0.577426	0.222584
C128	C	1.037136	-0.415260	0.059579
H129	H	1.016371	-0.378330	0.023711
H130	H	1.061791	-0.464639	0.034053
H131	H	1.072925	-0.382406	0.084293
H132	H	0.770792	-0.000079	-0.254420
C133	C	1.043214	-0.000140	-0.135744
H134	H	1.083729	-0.000137	-0.176010
H135	H	1.046566	-0.051600	-0.105330
H136	H	1.046583	0.051325	-0.105329
