data_functionalizedCrystal
_audit_creation_method	'MofGen! by Chris Wilmer'
_symmetry_space_group_name_H-M	'P1'
_symmetry_Int_Tables_number	1
_symmetry_cell_setting	triclinic
loop_
_symmetry_equiv_pos_as_xyz
  x,y,z
_cell_length_a	18.215407
_cell_length_b	16.625546
_cell_length_c	18.215399
_cell_angle_alpha	89.970824
_cell_angle_beta	89.980167
_cell_angle_gamma	90.022916
loop_
_atom_site_label
_atom_site_type_symbol
_atom_site_fract_x
_atom_site_fract_y
_atom_site_fract_z
Zn1	Zn	1.125084	-0.321000	-0.416110
Zn2	Zn	1.458418	0.012333	-0.082776
Zn3	Zn	1.791751	0.345666	0.250557
Zn4	Zn	1.124998	-0.455841	-0.293041
Zn5	Zn	1.458331	-0.122507	0.040293
Zn6	Zn	1.791665	0.210826	0.373626
Zn7	Zn	1.002017	-0.321027	-0.293057
Zn8	Zn	1.335350	0.012307	0.040276
Zn9	Zn	1.668684	0.345640	0.373610
Zn10	Zn	1.001988	-0.455796	-0.416066
Zn11	Zn	1.335321	-0.122462	-0.082732
Zn12	Zn	1.668655	0.210871	0.250601
O13	O	1.063522	-0.388416	-0.354568
O14	O	1.396855	-0.055082	-0.021235
O15	O	1.730188	0.278251	0.312098
O16	O	1.228057	-0.338895	-0.399796
O17	O	1.561390	-0.005562	-0.066463
O18	O	1.894724	0.327772	0.266871
O19	O	1.108660	-0.437987	-0.190059
O20	O	1.441993	-0.104654	0.143275
O21	O	1.775327	0.228680	0.476608
O22	O	1.018390	-0.208191	-0.309405
O23	O	1.351724	0.125143	0.023928
O24	O	1.685057	0.458476	0.357261
O25	O	1.227994	-0.437961	-0.309378
O26	O	1.561327	-0.104628	0.023956
O27	O	1.894660	0.228705	0.357289
O28	O	1.108807	-0.208171	-0.399812
O29	O	1.442141	0.125162	-0.066478
O30	O	1.775474	0.458495	0.266855
O31	O	1.018307	-0.338940	-0.190070
O32	O	1.351640	-0.005606	0.143263
O33	O	1.684973	0.327727	0.476596
O34	O	0.899029	-0.338896	-0.309363
O35	O	1.232362	-0.005563	0.023971
O36	O	1.565695	0.327770	0.357304
O37	O	1.018341	-0.437885	-0.519056
O38	O	1.351674	-0.104552	-0.185722
O39	O	1.685008	0.228782	0.147611
O40	O	0.899008	-0.437910	-0.399737
O41	O	1.232341	-0.104577	-0.066403
O42	O	1.565674	0.228756	0.266930
O43	O	1.108779	-0.338851	-0.519088
O44	O	1.442113	-0.005518	-0.185755
O45	O	1.775446	0.327815	0.147579
O46	O	1.108632	-0.568667	-0.309335
O47	O	1.441965	-0.235334	0.023998
O48	O	1.775299	0.098000	0.357332
O49	O	1.018257	-0.568634	-0.399721
O50	O	1.351591	-0.235301	-0.066387
O51	O	1.684924	0.098033	0.266946
C52	C	0.872315	-0.388402	-0.354547
C53	C	1.205649	-0.055069	-0.021214
C54	C	1.538982	0.278265	0.312120
C55	C	0.790517	-0.388415	-0.354556
C56	C	1.123850	-0.055082	-0.021222
C57	C	1.457183	0.278251	0.312111
C58	C	0.602331	-0.440053	-0.401554
C59	C	0.935664	-0.106720	-0.068221
C60	C	1.268998	0.226613	0.265113
C61	C	0.525472	-0.440056	-0.401563
C62	C	0.858805	-0.106722	-0.068230
C63	C	1.192139	0.226611	0.265103
C64	C	0.525465	-0.336793	-0.307598
C65	C	0.858798	-0.003460	0.025735
C66	C	1.192131	0.329874	0.359068
C67	C	0.602322	-0.336787	-0.307593
C68	C	0.935655	-0.003454	0.025740
C69	C	1.268989	0.329880	0.359073
C70	C	0.640753	-0.388422	-0.354570
C71	C	0.974086	-0.055088	-0.021237
C72	C	1.307420	0.278245	0.312096
C73	C	0.487037	-0.388430	-0.354584
C74	C	0.820370	-0.055097	-0.021251
C75	C	1.153704	0.278237	0.312082
C76	C	0.403703	-0.388433	-0.354594
C77	C	0.737037	-0.055099	-0.021261
C78	C	1.070370	0.278234	0.312073
C79	C	0.724092	-0.388418	-0.354562
C80	C	1.057425	-0.055085	-0.021228
C81	C	1.390759	0.278248	0.312105
C82	C	1.063452	-0.597907	-0.354537
C83	C	1.396785	-0.264573	-0.021204
C84	C	1.730119	0.068760	0.312129
C85	C	1.063490	-0.687528	-0.354549
C86	C	1.396823	-0.354194	-0.021215
C87	C	1.730156	-0.020861	0.312118
C88	C	1.063618	-1.015703	-0.354625
C89	C	1.396951	-0.682370	-0.021292
C90	C	1.730285	-0.349037	0.312041
C91	C	1.063580	-0.924395	-0.354606
C92	C	1.396913	-0.591062	-0.021273
C93	C	1.730247	-0.257728	0.312060
C94	C	1.063553	-0.851618	-0.354587
C95	C	1.396887	-0.518285	-0.021253
C96	C	1.730220	-0.184952	0.312080
C97	C	1.063516	-0.760304	-0.354568
C98	C	1.396850	-0.426971	-0.021235
C99	C	1.730183	-0.093637	0.312098
C100	C	1.255475	-0.388430	-0.354590
C101	C	1.588808	-0.055097	-0.021256
C102	C	1.922141	0.278236	0.312077
C103	C	1.337274	-0.388436	-0.354599
C104	C	1.670607	-0.055103	-0.021266
C105	C	2.003940	0.278230	0.312068
C106	C	1.063567	-0.388360	-0.546521
C107	C	1.396900	-0.055027	-0.213188
C108	C	1.730233	0.278306	0.120145
C109	C	1.063586	-0.388336	-0.628320
C110	C	1.396919	-0.055003	-0.294987
C111	C	1.730252	0.278330	0.038347
C112	C	1.063612	-0.178107	-0.354615
C113	C	1.396945	0.155227	-0.021282
C114	C	1.730278	0.488560	0.312051
C115	C	1.063650	-0.088486	-0.354635
C116	C	1.396983	0.244848	-0.021302
C117	C	1.730317	0.578181	0.312031
C118	C	1.110694	-0.336721	-0.816532
C119	C	1.444027	-0.003388	-0.483199
C120	C	1.777361	0.329945	-0.149866
C121	C	1.110703	-0.336698	-0.893391
C122	C	1.444036	-0.003365	-0.560058
C123	C	1.777369	0.329969	-0.226724
C124	C	1.016530	-0.439827	-0.893346
C125	C	1.349863	-0.106493	-0.560013
C126	C	1.683196	0.226840	-0.226679
C127	C	1.016518	-0.439846	-0.816489
C128	C	1.349851	-0.106512	-0.483155
C129	C	1.683184	0.226821	-0.149822
C130	C	1.063604	-0.388294	-0.778084
C131	C	1.396937	-0.054961	-0.444750
C132	C	1.730271	0.278373	-0.111417
C133	C	1.063625	-0.388252	-0.931800
C134	C	1.396958	-0.054918	-0.598467
C135	C	1.730291	0.278415	-0.265133
C136	C	1.063634	-0.388227	-1.015134
C137	C	1.396967	-0.054893	-0.681800
C138	C	1.730301	0.278440	-0.348467
C139	C	1.063594	-0.388318	-0.694745
C140	C	1.396927	-0.054985	-0.361411
C141	C	1.730261	0.278349	-0.028078
C142	C	1.063519	-0.388413	-0.163362
C143	C	1.396853	-0.055080	0.169971
C144	C	1.730186	0.278254	0.503305
C145	C	1.063643	-0.388209	-0.081563
C146	C	1.396976	-0.054876	0.251770
C147	C	1.730310	0.278457	0.585103
H148	H	0.494192	-0.482098	-0.439823
H149	H	0.827525	-0.148765	-0.106490
H150	H	1.160859	0.184568	0.226843
O151	O	1.156517	-0.286576	-0.930626
O152	O	1.489850	0.046757	-0.597292
O153	O	1.823184	0.380090	-0.263959
C154	C	1.198057	-0.241068	-0.880244
C155	C	1.531390	0.092265	-0.546911
C156	C	1.864723	0.425599	-0.213578
H157	H	1.200583	-0.274111	-0.825451
H158	H	1.533916	0.059223	-0.492118
H159	H	1.867250	0.392556	-0.158784
H160	H	1.256047	-0.232464	-0.902465
H161	H	1.589380	0.100869	-0.569131
H162	H	1.922714	0.434202	-0.235798
H163	H	1.171132	-0.179831	-0.872078
H164	H	1.504465	0.153503	-0.538745
H165	H	1.837799	0.486836	-0.205411
H166	H	0.978166	-0.481842	-0.785183
H167	H	1.311499	-0.148508	-0.451850
H168	H	1.644833	0.184825	-0.118516
O169	O	0.639550	-0.490229	-0.447260
O170	O	0.972883	-0.156895	-0.113927
O171	O	1.306216	0.176438	0.219406
C172	C	0.589152	-0.535813	-0.488719
C173	C	0.922485	-0.202479	-0.155386
C174	C	1.255819	0.130854	0.177948
H175	H	0.534377	-0.502794	-0.491321
H176	H	0.867710	-0.169460	-0.157987
H177	H	1.201043	0.163873	0.175346
H178	H	0.611378	-0.544488	-0.546688
H179	H	0.944711	-0.211155	-0.213355
H180	H	1.278045	0.122179	0.119978
H181	H	0.580948	-0.597016	-0.461675
H182	H	0.914282	-0.263682	-0.128341
H183	H	1.247615	0.069651	0.204992
O184	O	0.488017	-0.286715	-0.261990
O185	O	0.821351	0.046618	0.071344
O186	O	1.154684	0.379952	0.404677
C187	C	0.411942	-0.297776	-0.272081
C188	C	0.745275	0.035558	0.061252
C189	C	1.078608	0.368891	0.394586
H190	H	0.401435	-0.360036	-0.296080
H191	H	0.734768	-0.026703	0.037253
H192	H	1.068101	0.306630	0.370586
H193	H	0.382710	-0.292228	-0.216968
H194	H	0.716043	0.041105	0.116365
H195	H	1.049377	0.374438	0.449699
H196	H	0.390163	-0.250007	-0.311353
H197	H	0.723496	0.083326	0.021980
H198	H	1.056829	0.416660	0.355314
O199	O	0.639536	-0.286604	-0.261880
O200	O	0.972870	0.046729	0.071453
O201	O	1.306203	0.380063	0.404787
C202	C	0.589137	-0.241022	-0.220427
C203	C	0.922471	0.092311	0.112907
C204	C	1.255804	0.425645	0.446240
H205	H	0.534339	-0.274047	-0.217825
H206	H	0.867672	0.059287	0.115508
H207	H	1.201005	0.392620	0.448841
H208	H	0.611326	-0.232339	-0.162457
H209	H	0.944660	0.100994	0.170876
H210	H	1.277993	0.434327	0.504210
H211	H	0.580993	-0.179822	-0.247476
H212	H	0.914326	0.153511	0.085858
H213	H	1.247660	0.486845	0.419191
O214	O	1.156323	-0.286599	-0.779146
O215	O	1.489656	0.046735	-0.445812
O216	O	1.822989	0.380068	-0.112479
C217	C	1.114433	-0.234519	-0.734710
C218	C	1.447766	0.098815	-0.401376
C219	C	1.781100	0.432148	-0.068043
H220	H	1.058651	-0.262962	-0.723174
H221	H	1.391985	0.070371	-0.389841
H222	H	1.725318	0.403704	-0.056508
H223	H	1.144405	-0.223720	-0.680673
H224	H	1.477739	0.109613	-0.347340
H225	H	1.811072	0.442946	-0.014006
H226	H	1.106369	-0.174761	-0.764347
H227	H	1.439703	0.158572	-0.431014
H228	H	1.773036	0.491906	-0.097680
H229	H	0.978195	-0.481800	-0.924625
H230	H	1.311528	-0.148467	-0.591291
H231	H	1.644862	0.184867	-0.257958
