data_functionalizedCrystal
_audit_creation_method	'MofGen! by Chris Wilmer'
_symmetry_space_group_name_H-M	'P1'
_symmetry_Int_Tables_number	1
_symmetry_cell_setting	triclinic
loop_
_symmetry_equiv_pos_as_xyz
  x,y,z
_cell_length_a	11.026607
_cell_length_b	14.519731
_cell_length_c	10.065875
_cell_angle_alpha	98.805316
_cell_angle_beta	79.302338
_cell_angle_gamma	96.137435
loop_
_atom_site_label
_atom_site_type_symbol
_atom_site_fract_x
_atom_site_fract_y
_atom_site_fract_z
O1	O	1.628775	0.375711	-0.113512
O2	O	1.275369	0.331720	-0.113512
O3	O	1.461426	0.221021	-0.113499
O4	O	1.442717	0.486410	-0.113524
O5	O	1.425948	0.242238	0.113487
O6	O	1.239890	0.352937	0.113475
O7	O	1.593296	0.396928	0.113474
Zn8	Zn	1.410960	0.378301	0.149514
Zn9	Zn	1.457705	0.350347	-0.149551
O10	O	1.407239	0.507627	0.113462
C11	C	1.212400	0.334213	-0.000018
C12	C	1.077631	0.310021	-0.000018
C13	C	1.442810	0.197126	-0.000006
C14	C	1.440183	0.094313	-0.000005
C15	C	1.003978	0.376820	-0.000025
C16	C	0.864687	0.351817	-0.000024
C17	C	1.438048	0.010817	-0.000008
C18	C	1.435382	-0.093933	-0.000019
C19	C	1.433266	-0.177421	-0.000027
C20	C	1.430600	-0.282177	-0.000035
C21	C	1.656265	0.394435	-0.000022
C22	C	1.791036	0.418627	-0.000031
C23	C	1.425855	0.531522	-0.000034
C24	C	1.428484	0.634334	-0.000044
N25	N	1.379067	0.397381	0.353617
N26	N	1.489607	0.331262	-0.353654
C27	C	1.446600	0.356978	0.421400
C28	C	1.422064	0.371671	0.578566
H29	H	1.044041	0.452520	-0.000024
H30	H	1.522579	0.311506	0.363081
O31	O	1.288332	0.451619	0.422971
C32	C	1.230325	0.486352	0.329431
H33	H	1.244554	0.438820	0.227538
H34	H	1.127004	0.488344	0.370843
H35	H	1.272509	0.559977	0.314274
H36	H	1.037572	0.234318	-0.000046
O37	O	1.331335	0.425796	0.648277
C38	C	1.243278	0.371743	0.730925
H39	H	1.287914	0.309453	0.752184
H40	H	1.208684	0.416450	0.831467
H41	H	1.162031	0.345616	0.675960
H42	H	0.824634	0.276110	-0.000052
H43	H	0.831091	0.494332	-0.000029
O44	O	1.579983	0.276763	0.576778
C45	C	1.527209	0.201450	0.494372
H46	H	1.435838	0.220771	0.472987
H47	H	1.593400	0.185565	0.393878
H48	H	1.509716	0.137113	0.549613
