data_functionalizedCrystal
_audit_creation_method	'MofGen! by Chris Wilmer'
_symmetry_space_group_name_H-M	'P1'
_symmetry_Int_Tables_number	1
_symmetry_cell_setting	triclinic
loop_
_symmetry_equiv_pos_as_xyz
  x,y,z
_cell_length_a	13.897449
_cell_length_b	13.897448
_cell_length_c	13.897441
_cell_angle_alpha	89.969401
_cell_angle_beta	89.976606
_cell_angle_gamma	90.018519
loop_
_atom_site_label
_atom_site_type_symbol
_atom_site_fract_x
_atom_site_fract_y
_atom_site_fract_z
Zn1	Zn	1.474703	-0.383963	-0.545450
Zn2	Zn	1.724703	-0.133963	-0.295450
Zn3	Zn	1.974703	0.116037	-0.045450
Zn4	Zn	2.224703	0.366037	0.204550
Zn5	Zn	1.474597	-0.545285	-0.384151
Zn6	Zn	1.724597	-0.295285	-0.134151
Zn7	Zn	1.974597	-0.045285	0.115849
Zn8	Zn	2.224597	0.204715	0.365849
Zn9	Zn	1.313392	-0.384007	-0.384161
Zn10	Zn	1.563392	-0.134007	-0.134161
Zn11	Zn	1.813392	0.115993	0.115839
Zn12	Zn	2.063392	0.365993	0.365839
Zn13	Zn	1.313373	-0.545220	-0.545396
Zn14	Zn	1.563373	-0.295220	-0.295396
Zn15	Zn	1.813373	-0.045220	-0.045396
Zn16	Zn	2.063373	0.204780	0.204604
O17	O	1.394016	-0.464619	-0.464789
O18	O	1.644016	-0.214619	-0.214789
O19	O	1.894016	0.035381	0.035211
O20	O	2.144016	0.285381	0.285211
O21	O	1.609670	-0.405371	-0.524071
O22	O	1.859670	-0.155371	-0.274071
O23	O	2.109670	0.094629	-0.024071
O24	O	2.359670	0.344629	0.225929
O25	O	1.453176	-0.523937	-0.249171
O26	O	1.703176	-0.273937	0.000829
O27	O	1.953176	-0.023937	0.250829
O28	O	2.203176	0.226063	0.500829
O29	O	1.334842	-0.249020	-0.405582
O30	O	1.584842	0.000980	-0.155582
O31	O	1.834842	0.250980	0.094418
O32	O	2.084842	0.500980	0.344418
O33	O	1.609592	-0.523893	-0.405566
O34	O	1.859592	-0.273893	-0.155566
O35	O	2.109592	-0.023893	0.094434
O36	O	2.359592	0.226107	0.344434
O37	O	1.453356	-0.248987	-0.524081
O38	O	1.703356	0.001013	-0.274081
O39	O	1.953356	0.251013	-0.024081
O40	O	2.203356	0.501013	0.225919
O41	O	1.334739	-0.405447	-0.249178
O42	O	1.584739	-0.155447	0.000822
O43	O	1.834739	0.094553	0.250822
O44	O	2.084739	0.344553	0.500822
O45	O	1.178408	-0.405384	-0.405530
O46	O	1.428408	-0.155384	-0.155530
O47	O	1.678408	0.094616	0.094470
O48	O	1.928408	0.344616	0.344470
O49	O	1.334811	-0.523783	-0.680385
O50	O	1.584811	-0.273783	-0.430385
O51	O	1.834811	-0.023783	-0.180385
O52	O	2.084811	0.226217	0.069615
O53	O	1.178394	-0.523826	-0.523990
O54	O	1.428394	-0.273826	-0.273990
O55	O	1.678394	-0.023826	-0.023990
O56	O	1.928394	0.226174	0.226010
O57	O	1.453339	-0.405308	-0.680424
O58	O	1.703339	-0.155308	-0.430424
O59	O	1.953339	0.094692	-0.180424
O60	O	2.203339	0.344692	0.069576
O61	O	1.453158	-0.680258	-0.405514
O62	O	1.703158	-0.430258	-0.155514
O63	O	1.953158	-0.180258	0.094486
O64	O	2.203158	0.069742	0.344486
O65	O	1.334708	-0.680210	-0.523980
O66	O	1.584708	-0.430210	-0.273980
O67	O	1.834708	-0.180210	-0.023980
O68	O	2.084708	0.069790	0.226020
C69	C	1.143402	-0.464604	-0.464756
C70	C	1.393402	-0.214604	-0.214756
C71	C	1.643402	0.035396	0.035244
C72	C	1.893402	0.285396	0.285244
C73	C	1.036188	-0.464621	-0.464764
C74	C	1.286188	-0.214621	-0.214764
C75	C	1.536188	0.035379	0.035236
C76	C	1.786188	0.285379	0.285236
C77	C	0.949118	-0.464624	-0.464780
C78	C	1.199118	-0.214624	-0.214780
C79	C	1.449118	0.035376	0.035220
C80	C	1.699118	0.285376	0.285220
C81	C	0.839886	-0.464631	-0.464810
C82	C	1.089886	-0.214631	-0.214810
C83	C	1.339886	0.035369	0.035190
C84	C	1.589886	0.285369	0.285190
C85	C	1.393946	-0.715233	-0.464761
C86	C	1.643946	-0.465233	-0.214761
C87	C	1.893946	-0.215233	0.035239
C88	C	2.143946	0.034767	0.285239
C89	C	1.394004	-0.822447	-0.464782
C90	C	1.644004	-0.572447	-0.214782
C91	C	1.894004	-0.322447	0.035218
C92	C	2.144004	-0.072447	0.285218
C93	C	1.394105	-1.018742	-0.464842
C94	C	1.644105	-0.768742	-0.214842
C95	C	1.894105	-0.518742	0.035158
C96	C	2.144105	-0.268742	0.285158
C97	C	1.394046	-0.909510	-0.464812
C98	C	1.644046	-0.659510	-0.214812
C99	C	1.894046	-0.409510	0.035188
C100	C	2.144046	-0.159510	0.285188
C101	C	1.645609	-0.464634	-0.464824
C102	C	1.895609	-0.214634	-0.214824
C103	C	2.145609	0.035366	0.035176
C104	C	2.395609	0.285366	0.285176
C105	C	1.752823	-0.464641	-0.464838
C106	C	2.002823	-0.214641	-0.214838
C107	C	2.252823	0.035359	0.035162
C108	C	2.502823	0.285359	0.285162
C109	C	1.394085	-0.464533	-0.716382
C110	C	1.644085	-0.214533	-0.466382
C111	C	1.894085	0.035467	-0.216382
C112	C	2.144085	0.285467	0.033618
C113	C	1.394114	-0.464497	-0.823596
C114	C	1.644114	-0.214497	-0.573596
C115	C	1.894114	0.035503	-0.323596
C116	C	2.144114	0.285503	-0.073596
C117	C	1.394113	-0.213026	-0.464839
C118	C	1.644113	0.036974	-0.214839
C119	C	1.894113	0.286974	0.035161
C120	C	2.144113	0.536974	0.285161
C121	C	1.394154	-0.105812	-0.464859
C122	C	1.644154	0.144188	-0.214859
C123	C	1.894154	0.394188	0.035141
C124	C	2.144154	0.644188	0.285141
C125	C	1.394140	-0.464432	-1.019892
C126	C	1.644140	-0.214432	-0.769892
C127	C	1.894140	0.035568	-0.519892
C128	C	2.144140	0.285568	-0.269892
C129	C	1.394122	-0.464471	-0.910659
C130	C	1.644122	-0.214471	-0.660659
C131	C	1.894122	0.035529	-0.410659
C132	C	2.144122	0.285529	-0.160659
C133	C	1.394003	-0.464634	-0.214175
C134	C	1.644003	-0.214634	0.035825
C135	C	1.894003	0.035366	0.285825
C136	C	2.144003	0.285366	0.535825
C137	C	1.394161	-0.464399	-0.106962
C138	C	1.644161	-0.214399	0.143038
C139	C	1.894161	0.035601	0.393038
C140	C	2.144161	0.285601	0.643038
