data_functionalizedCrystal
_audit_creation_method	'MofGen! by Chris Wilmer'
_symmetry_space_group_name_H-M	'P1'
_symmetry_Int_Tables_number	1
_symmetry_cell_setting	triclinic
loop_
_symmetry_equiv_pos_as_xyz
  x,y,z
_cell_length_a	13.897449
_cell_length_b	25.639239
_cell_length_c	13.897441
_cell_angle_alpha	89.966666
_cell_angle_beta	89.981404
_cell_angle_gamma	90.039966
loop_
_atom_site_label
_atom_site_type_symbol
_atom_site_fract_x
_atom_site_fract_y
_atom_site_fract_z
Zn1	Zn	1.474542	-0.208121	-0.545356
Zn2	Zn	1.974542	0.291879	-0.045356
Zn3	Zn	1.474382	-0.295562	-0.384047
Zn4	Zn	1.974382	0.204438	0.115953
Zn5	Zn	1.313237	-0.208145	-0.384075
Zn6	Zn	1.813237	0.291855	0.115925
Zn7	Zn	1.313153	-0.295529	-0.545300
Zn8	Zn	1.813153	0.204471	-0.045300
O9	O	1.393829	-0.251839	-0.464694
O10	O	1.893829	0.248161	0.035306
O11	O	1.609502	-0.219725	-0.523970
O12	O	2.109502	0.280275	-0.023970
O13	O	1.452974	-0.283990	-0.249069
O14	O	1.952974	0.216010	0.250931
O15	O	1.334736	-0.134976	-0.405504
O16	O	1.834736	0.365024	0.094496
O17	O	1.609385	-0.283967	-0.405457
O18	O	2.109385	0.216033	0.094543
O19	O	1.453246	-0.134959	-0.523997
O20	O	1.953246	0.365041	-0.023997
O21	O	1.334581	-0.219764	-0.249089
O22	O	1.834581	0.280236	0.250911
O23	O	1.178244	-0.219733	-0.405449
O24	O	1.678244	0.280267	0.094551
O25	O	1.334594	-0.283911	-0.680289
O26	O	1.834594	0.216089	-0.180289
O27	O	1.178183	-0.283934	-0.523901
O28	O	1.678183	0.216066	-0.023901
O29	O	1.453165	-0.219693	-0.680331
O30	O	1.953165	0.280307	-0.180331
O31	O	1.452894	-0.368723	-0.405403
O32	O	1.952894	0.131277	0.094597
O33	O	1.334439	-0.368699	-0.523874
O34	O	1.834439	0.131301	-0.023874
C35	C	1.143214	-0.251832	-0.464673
C36	C	1.643214	0.248168	0.035327
C37	C	1.036000	-0.251842	-0.464686
C38	C	1.536000	0.248158	0.035314
C39	C	0.839705	-0.251844	-0.464711
C40	C	1.339705	0.248156	0.035289
C41	C	0.948938	-0.251841	-0.464695
C42	C	1.448938	0.248159	0.035305
C43	C	1.393666	-0.387682	-0.464650
C44	C	1.893666	0.112318	0.035350
C45	C	1.393685	-0.445796	-0.464664
C46	C	1.893685	0.054204	0.035336
C47	C	1.455669	-0.806159	-0.403111
C48	C	1.955669	-0.306159	0.096889
C49	C	1.455706	-0.860763	-0.403124
C50	C	1.955706	-0.360763	0.096876
O51	O	1.508238	-0.889000	-0.350742
O52	O	2.008238	-0.389000	0.149258
N53	N	1.393998	-0.888078	-0.464758
N54	N	1.893998	-0.388078	0.035242
C55	C	1.332256	-0.860786	-0.526391
C56	C	1.832256	-0.360786	-0.026391
O57	O	1.279772	-0.889034	-0.578817
O58	O	1.779772	-0.389034	-0.078817
C59	C	1.332224	-0.806183	-0.526382
C60	C	1.832224	-0.306183	-0.026382
C61	C	1.393929	-0.778871	-0.464737
C62	C	1.893929	-0.278871	0.035263
C63	C	1.517369	-0.778847	-0.341472
C64	C	2.017369	-0.278847	0.158528
C65	C	1.517331	-0.724246	-0.341458
C66	C	2.017331	-0.224246	0.158542
C67	C	1.455591	-0.696958	-0.403084
C68	C	1.955591	-0.196958	0.096916
C69	C	1.393890	-0.724270	-0.464723
C70	C	1.893890	-0.224270	0.035277
C71	C	1.270487	-0.778892	-0.588018
C72	C	1.770487	-0.278892	-0.088018
C73	C	1.270461	-0.724285	-0.588004
C74	C	1.770461	-0.224285	-0.088004
C75	C	1.332166	-0.696973	-0.526359
C76	C	1.832166	-0.196973	-0.026359
C77	C	1.332111	-0.642382	-0.526334
C78	C	1.832111	-0.142382	-0.026334
N79	N	1.393819	-0.615066	-0.464700
N80	N	1.893819	-0.115066	0.035300
C81	C	1.455559	-0.642355	-0.403075
C82	C	1.955559	-0.142355	0.096925
C83	C	1.332328	-0.975457	-0.526405
C84	C	1.832328	-0.475457	-0.026405
C85	C	1.332354	-1.030059	-0.526410
C86	C	1.832354	-0.530059	-0.026410
C87	C	1.455806	-1.030033	-0.403145
C88	C	1.955806	-0.530033	0.096855
C89	C	1.455775	-0.975429	-0.403136
C90	C	1.955775	-0.475429	0.096864
C91	C	1.394036	-0.948142	-0.464771
C92	C	1.894036	-0.448142	0.035229
C93	C	1.455472	-0.527690	-0.403050
C94	C	1.955472	-0.027690	0.096950
C95	C	1.455425	-0.473084	-0.403038
C96	C	1.955425	0.026916	0.096962
C97	C	1.331977	-0.473116	-0.526307
C98	C	1.831977	0.026884	-0.026307
C99	C	1.332020	-0.527716	-0.526315
C100	C	1.832020	-0.027716	-0.026315
C101	C	1.393776	-0.555002	-0.464683
C102	C	1.893776	-0.055002	0.035317
O103	O	1.279609	-0.614110	-0.578693
O104	O	1.779609	-0.114110	-0.078693
O105	O	1.508043	-0.614100	-0.350666
O106	O	2.008043	-0.114100	0.149334
C107	C	1.645421	-0.251847	-0.464717
C108	C	2.145421	0.248153	0.035283
C109	C	1.752635	-0.251850	-0.464727
C110	C	2.252635	0.248150	0.035273
C111	C	1.393888	-0.251796	-0.716288
C112	C	1.893888	0.248204	-0.216288
C113	C	1.393913	-0.251777	-0.823502
C114	C	1.893913	0.248223	-0.323502
C115	C	1.394018	-0.115466	-0.464760
C116	C	1.894018	0.384534	0.035240
C117	C	1.394098	-0.057352	-0.464788
C118	C	1.894098	0.442648	0.035212
C119	C	1.393933	-0.251762	-0.910571
C120	C	1.893933	0.248238	-0.410571
C121	C	1.393960	-0.251739	-1.019804
C122	C	1.893960	0.248261	-0.519804
C123	C	1.393825	-0.251845	-0.214080
C124	C	1.893825	0.248155	0.285920
C125	C	1.393987	-0.251717	-0.106867
C126	C	1.893987	0.248283	0.393133
H127	H	1.505672	-0.450848	-0.352836
H128	H	2.005672	0.049152	0.147164
C129	C	1.264400	-0.945446	-0.594197
C130	C	1.764400	-0.445446	-0.094197
H131	H	1.227652	-0.969537	-0.630895
H132	H	1.727652	-0.469537	-0.130895
H133	H	1.301253	-0.924108	-0.636260
H134	H	1.801253	-0.424108	-0.136260
H135	H	1.222374	-0.924184	-0.557251
H136	H	1.722374	-0.424184	-0.057251
C137	C	1.264473	-1.060097	-0.594213
C138	C	1.764473	-0.560097	-0.094213
H139	H	1.227706	-1.036020	-0.630915
H140	H	1.727706	-0.536020	-0.130915
H141	H	1.222478	-1.081438	-0.557289
H142	H	1.722478	-0.581438	-0.057289
H143	H	1.301367	-1.081358	-0.636288
H144	H	1.801367	-0.581358	-0.136288
H145	H	1.567651	-0.801059	-0.291289
H146	H	2.067651	-0.301059	0.208711
C147	C	1.202624	-0.808926	-0.655839
C148	C	1.702624	-0.308926	-0.155839
H149	H	1.211473	-0.845356	-0.647028
H150	H	1.711473	-0.345356	-0.147028
H151	H	1.216713	-0.799938	-0.720652
H152	H	1.716713	-0.299938	-0.220652
H153	H	1.137810	-0.800019	-0.641667
H154	H	1.637810	-0.300019	-0.141667
C155	C	1.523394	-0.557696	-0.335249
C156	C	2.023394	-0.057696	0.164751
H157	H	1.560123	-0.533603	-0.298535
H158	H	2.060123	-0.033603	0.201465
H159	H	1.565423	-0.578960	-0.372178
H160	H	2.065423	-0.078960	0.127822
H161	H	1.486527	-0.579032	-0.293187
H162	H	1.986527	-0.079032	0.206813
H163	H	1.220187	-0.702070	-0.638198
H164	H	1.720187	-0.202070	-0.138198
C165	C	1.264145	-0.557761	-0.594121
C166	C	1.764145	-0.057761	-0.094121
H167	H	1.227374	-0.533687	-0.630823
H168	H	1.727374	-0.033687	-0.130823
H169	H	1.222154	-0.579105	-0.557199
H170	H	1.722154	-0.079105	-0.057199
H171	H	1.301047	-0.579019	-0.636193
H172	H	1.801047	-0.079019	-0.136193
H173	H	1.281706	-0.450889	-0.576479
H174	H	1.781706	0.049111	-0.076479
C175	C	1.585219	-0.694210	-0.273660
C176	C	2.085219	-0.194210	0.226340
H177	H	1.621996	-0.718288	-0.236973
H178	H	2.121996	-0.218288	0.263027
H179	H	1.548345	-0.672943	-0.231587
H180	H	2.048345	-0.172943	0.268413
H181	H	1.627218	-0.672875	-0.310601
H182	H	2.127218	-0.172875	0.189399
C183	C	1.523717	-1.060057	-0.335355
C184	C	2.023717	-0.560057	0.164645
H185	H	1.514898	-1.096487	-0.344198
H186	H	2.014898	-0.596487	0.155802
H187	H	1.509631	-1.051141	-0.270530
H188	H	2.009631	-0.551141	0.229470
H189	H	1.588520	-1.051070	-0.349529
H190	H	2.088520	-0.551070	0.150471
C191	C	1.523657	-0.945391	-0.335335
C192	C	2.023657	-0.445391	0.164665
H193	H	1.560432	-0.969468	-0.298642
H194	H	2.060432	-0.469468	0.201358
H195	H	1.486778	-0.924123	-0.293268
H196	H	1.986778	-0.424123	0.206732
H197	H	1.565659	-0.924056	-0.372274
H198	H	2.065659	-0.424056	0.127726
