data_functionalizedCrystal
_audit_creation_method	'MofGen! by Chris Wilmer'
_symmetry_space_group_name_H-M	'P1'
_symmetry_Int_Tables_number	1
_symmetry_cell_setting	triclinic
loop_
_symmetry_equiv_pos_as_xyz
  x,y,z
_cell_length_a	6.817900
_cell_length_b	10.865348
_cell_length_c	9.582860
_cell_angle_alpha	88.640767
_cell_angle_beta	111.206767
_cell_angle_gamma	72.410449
loop_
_atom_site_label
_atom_site_type_symbol
_atom_site_fract_x
_atom_site_fract_y
_atom_site_fract_z
V1	V	-4.113281	0.402311	-0.206975
O2	O	-4.058077	0.394896	0.010029
O3	O	-4.103707	0.399325	-0.410476
O4	O	-4.084594	0.577879	-0.203755
O5	O	-4.077323	0.215106	-0.198124
V6	V	-4.589324	0.379948	-0.181023
O7	O	-4.390948	0.451365	-0.263903
O8	O	-4.761854	0.330893	-0.124096
O9	O	-4.375692	0.382933	0.022478
O10	O	-4.761926	0.387363	-0.398027
O11	O	-4.742680	0.567153	-0.189874
O12	O	-4.394805	0.204379	-0.184243
C13	C	-3.957516	0.392918	-0.460087
C14	C	-4.031106	0.391647	-0.626452
C15	C	-4.209609	0.161572	-0.191612
C16	C	-4.130760	0.018044	-0.192891
C17	C	-4.262581	-0.072829	-0.185826
C18	C	-4.206193	-0.138752	-0.314437
C19	C	-4.046642	-0.171772	-0.066567
C20	C	-4.075476	-0.045974	-0.321588
C21	C	-3.915883	-0.079002	-0.073605
C22	C	-3.859405	-0.144877	-0.202252
C23	C	-3.933133	0.620680	-0.196391
C24	C	-3.991218	0.764206	-0.195105
C25	C	-4.185227	0.389337	0.072081
C26	C	-4.090876	0.390616	0.238444
H27	H	-4.433858	-0.040957	-0.179020
H28	H	-3.794030	-0.052303	0.028241
H29	H	-4.033731	-0.226368	0.041190
H30	H	-4.088460	0.008474	-0.429460
H31	H	-4.328123	-0.165426	-0.416274
C32	C	-3.628191	-0.187601	-0.211706
N33	N	-3.454048	-0.219785	-0.218836
