data_functionalizedCrystal
_audit_creation_method	'MofGen! by Chris Wilmer'
_symmetry_space_group_name_H-M	'P1'
_symmetry_Int_Tables_number	1
_symmetry_cell_setting	triclinic
loop_
_symmetry_equiv_pos_as_xyz
  x,y,z
_cell_length_a	12.503572
_cell_length_b	11.792241
_cell_length_c	11.792241
_cell_angle_alpha	95.806584
_cell_angle_beta	86.452757
_cell_angle_gamma	86.461724
loop_
_atom_site_label
_atom_site_type_symbol
_atom_site_fract_x
_atom_site_fract_y
_atom_site_fract_z
O1	O	0.089216	-1.513406	0.149050
O2	O	0.089241	-1.183067	0.165081
O3	O	0.089221	-1.356252	-0.008105
O4	O	0.089237	-1.340220	0.322235
O5	O	-0.089420	-1.343228	0.004941
O6	O	-0.089399	-1.170042	0.178127
O7	O	-0.089424	-1.500381	0.162096
Cu8	Cu	-0.105723	-1.334023	0.171303
Cu9	Cu	0.105540	-1.349425	0.155874
O10	O	-0.089403	-1.327196	0.335281
C11	C	-0.000076	-1.134264	0.170596
C12	C	-0.000066	-1.008251	0.167581
N13	N	-0.254314	-1.323197	0.182154
C14	C	-0.000099	-1.348733	-0.043873
C15	C	-0.000098	-1.345718	-0.169886
C16	C	-0.473427	-1.307273	0.198126
C17	C	-0.526763	-1.376180	0.129046
C18	C	-0.648685	-1.367320	0.137933
C19	C	-0.351494	-1.316132	0.189240
N20	N	0.254131	-1.360260	0.145014
C21	C	-0.000105	-1.549185	0.156580
C22	C	-0.000107	-1.675198	0.159594
C23	C	-0.000097	-0.777536	0.162041
C24	C	-0.000080	-0.905923	0.165119
C25	C	-0.000079	-1.340177	-0.400600
C26	C	-0.000089	-1.343256	-0.272214
C27	C	-0.000081	-1.334715	0.371049
C28	C	-0.000076	-1.337730	0.497062
H29	H	-0.480857	-1.441829	0.063231
N30	N	-0.534229	-1.220322	0.285301
H31	H	-0.580884	-1.260766	0.339106
H32	H	-0.481586	-1.175588	0.330092
