data_functionalizedCrystal
_audit_creation_method	'MofGen! by Chris Wilmer'
_symmetry_space_group_name_H-M	'P1'
_symmetry_Int_Tables_number	1
_symmetry_cell_setting	triclinic
loop_
_symmetry_equiv_pos_as_xyz
  x,y,z
_cell_length_a	16.120530
_cell_length_b	16.625546
_cell_length_c	16.625539
_cell_angle_alpha	90.030397
_cell_angle_beta	87.082392
_cell_angle_gamma	92.882099
loop_
_atom_site_label
_atom_site_type_symbol
_atom_site_fract_x
_atom_site_fract_y
_atom_site_fract_z
Zn1	Zn	1.274562	0.383590	-0.518326
Zn2	Zn	1.274462	0.518428	-0.383484
Zn3	Zn	1.135142	0.376772	-0.376678
Zn4	Zn	1.135112	0.511536	-0.511448
O5	O	1.204819	0.447581	-0.447484
O6	O	1.391215	0.407214	-0.506166
O7	O	1.255952	0.499668	-0.269747
O8	O	1.153691	0.264846	-0.395498
O9	O	1.391141	0.506279	-0.407098
O10	O	1.256122	0.269856	-0.499567
O11	O	1.153594	0.395593	-0.264747
O12	O	1.018472	0.388911	-0.388829
O13	O	1.153639	0.494533	-0.625194
O14	O	1.018450	0.487922	-0.487844
O15	O	1.256093	0.400531	-0.630248
O16	O	1.255922	0.630344	-0.400428
O17	O	1.153542	0.625280	-0.494443
C18	C	1.204741	0.657068	-0.447446
C19	C	1.204783	0.746692	-0.447461
C20	C	0.988211	0.436929	-0.436852
C21	C	0.895545	0.432391	-0.432323
C22	C	1.204874	0.447524	-0.657796
C23	C	1.204897	0.447500	-0.747418
C24	C	0.725883	0.424088	-0.424060
C25	C	0.684596	0.471135	-0.470967
C26	C	0.590191	0.466514	-0.466370
C27	C	0.820297	0.428707	-0.428656
C28	C	1.422274	0.458276	-0.458158
C29	C	1.514940	0.462833	-0.462707
C30	C	1.204921	0.237278	-0.447541
C31	C	1.204965	0.147659	-0.447565
C32	C	1.204929	1.074874	-0.447552
C33	C	1.204885	0.983564	-0.447529
C34	C	1.204855	0.910786	-0.447506
C35	C	1.204813	0.819470	-0.447484
C36	C	1.204935	0.447411	-1.075596
C37	C	1.204922	0.447438	-0.984287
C38	C	1.204916	0.447456	-0.911510
C39	C	1.204903	0.447482	-0.820195
C40	C	1.204813	0.447583	-0.237993
C41	C	1.204952	0.447388	-0.148379
H42	H	0.720151	0.514881	-0.514579
H43	H	0.690331	0.380344	-0.380452
