data_functionalizedCrystal
_audit_creation_method	'MofGen! by Chris Wilmer'
_symmetry_space_group_name_H-M	'P1'
_symmetry_Int_Tables_number	1
_symmetry_cell_setting	triclinic
loop_
_symmetry_equiv_pos_as_xyz
  x,y,z
_cell_length_a	18.101395
_cell_length_b	13.032951
_cell_length_c	13.032268
_cell_angle_alpha	89.114265
_cell_angle_beta	97.146252
_cell_angle_gamma	97.166904
loop_
_atom_site_label
_atom_site_type_symbol
_atom_site_fract_x
_atom_site_fract_y
_atom_site_fract_z
Zn1	Zn	-0.500170	-1.498315	-0.780838
Zn2	Zn	-0.000170	-0.998315	-0.280838
Zn3	Zn	-0.610505	-1.520022	-0.608850
Zn4	Zn	-0.110505	-1.020022	-0.108850
Zn5	Zn	-0.469228	-1.348184	-0.587077
Zn6	Zn	0.030772	-0.848184	-0.087077
Zn7	Zn	-0.606494	-1.326272	-0.758970
Zn8	Zn	-0.106494	-0.826272	-0.258970
O9	O	-0.546599	-1.423198	-0.683934
O10	O	-0.046599	-0.923198	-0.183934
O11	O	-0.529433	-1.645110	-0.776287
O12	O	-0.029433	-1.145110	-0.276287
O13	O	-0.580494	-1.515482	-0.462047
O14	O	-0.080494	-1.015482	0.037953
O15	O	-0.369711	-1.368185	-0.612820
O16	O	0.130289	-0.868185	-0.112820
O17	O	-0.610496	-1.661058	-0.649928
O18	O	-0.110496	-1.161058	-0.149928
O19	O	-0.392443	-1.478485	-0.755175
O20	O	0.107557	-0.978485	-0.255175
O21	O	-0.476699	-1.389233	-0.446050
O22	O	0.023301	-0.889233	0.053950
O23	O	-0.472810	-1.201362	-0.591615
O24	O	0.027190	-0.701362	-0.091615
O25	O	-0.603660	-1.330840	-0.905786
O26	O	-0.103660	-0.830840	-0.405786
O27	O	-0.573658	-1.185263	-0.717904
O28	O	-0.073658	-0.685263	-0.217904
O29	O	-0.525544	-1.457239	-0.921853
O30	O	-0.025544	-0.957239	-0.421853
O31	O	-0.713594	-1.494235	-0.628724
O32	O	-0.213594	-0.994235	-0.128724
O33	O	-0.710647	-1.351888	-0.739017
O34	O	-0.210647	-0.851888	-0.239017
C35	C	-0.519442	-1.155997	-0.650025
C36	C	-0.019442	-0.655997	-0.150025
C37	C	-0.507843	-1.041684	-0.635543
C38	C	-0.007843	-0.541684	-0.135543
C39	C	-0.552635	-0.982794	-0.691478
C40	C	-0.052635	-0.482794	-0.191478
C41	C	-0.540648	-0.864645	-0.676512
C42	C	-0.040648	-0.364645	-0.176512
C43	C	-0.738993	-1.423065	-0.683886
C44	C	-0.238993	-0.923065	-0.183886
C45	C	-0.821313	-1.423097	-0.683912
C46	C	-0.321313	-0.923097	-0.183912
C47	C	-1.120431	-1.423316	-0.683996
C48	C	-0.620431	-0.923316	-0.183996
C49	C	-1.087317	-1.333914	-0.753610
C50	C	-0.587317	-0.833914	-0.253610
C51	C	-1.001641	-1.333569	-0.753313
C52	C	-0.501641	-0.833569	-0.253313
C53	C	-0.972035	-1.423207	-0.683955
C54	C	-0.472035	-0.923207	-0.183955
C55	C	-0.991698	-1.407637	-0.571850
C56	C	-0.491698	-0.907637	-0.071850
C57	C	-1.077329	-1.407065	-0.572262
C58	C	-0.577329	-0.907065	-0.072262
C59	C	-1.102005	-1.528583	-0.725555
C60	C	-0.602005	-1.028583	-0.225555
C61	C	-1.016475	-1.527641	-0.727851
C62	C	-0.516475	-1.027641	-0.227851
C63	C	-0.888167	-1.423148	-0.683926
C64	C	-0.388167	-0.923148	-0.183926
C65	C	-1.204297	-1.423373	-0.684018
C66	C	-0.704297	-0.923373	-0.184018
C67	C	-0.353458	-1.423358	-0.684008
C68	C	0.146542	-0.923358	-0.184008
C69	C	-0.271153	-1.423426	-0.684039
C70	C	0.228847	-0.923426	-0.184039
C71	C	-0.567606	-1.389174	-0.952179
C72	C	-0.067606	-0.889174	-0.452179
C73	C	-0.576558	-1.374674	-1.066488
C74	C	-0.076558	-0.874674	-0.566488
C75	C	-0.573854	-0.691444	-0.717969
C76	C	-0.073854	-0.191444	-0.217969
C77	C	-0.585446	-0.805757	-0.732455
C78	C	-0.085446	-0.305757	-0.232455
C79	C	-0.541899	-1.430750	-1.125401
C80	C	-0.041899	-0.930750	-0.625401
C81	C	-0.551150	-1.415765	-1.243546
C82	C	-0.051150	-0.915765	-0.743546
C83	C	-0.525626	-1.457150	-0.416740
C84	C	-0.025626	-0.957150	0.083260
C85	C	-0.516486	-1.471849	-0.302456
C86	C	-0.016486	-0.971849	0.197544
H87	H	-0.493421	-0.827598	-0.617544
H88	H	0.006579	-0.327598	-0.117544
H89	H	-0.505374	-1.489848	-1.088370
H90	H	-0.005374	-0.989848	-0.588370
H91	H	-1.116039	-1.341845	-0.836541
H92	H	-0.616039	-0.841845	-0.336541
H93	H	-1.004621	-1.539633	-0.810422
H94	H	-0.504621	-1.039633	-0.310422
Br95	Br	-0.984273	-1.642698	-0.651343
Br96	Br	-0.484273	-1.142698	-0.151343
Br97	Br	-0.612021	-1.317241	-1.305247
Br98	Br	-0.112021	-0.817241	-0.805247
H99	H	-0.632668	-0.842801	-0.791434
H100	H	-0.132668	-0.342801	-0.291434
H101	H	-1.132368	-1.545463	-0.806634
H102	H	-0.632368	-1.045463	-0.306634
Br103	Br	-1.138181	-1.639321	-0.641346
Br104	Br	-0.638181	-1.139321	-0.141346
H105	H	-0.599854	-1.019844	-0.750450
H106	H	-0.099854	-0.519844	-0.250450
Br107	Br	-0.429128	-0.979940	-0.537263
Br108	Br	0.070872	-0.479940	-0.037263
H109	H	-0.988750	-1.341715	-0.836007
H110	H	-0.488750	-0.841715	-0.336007
H111	H	-1.099336	-1.256070	-0.725287
H112	H	-0.599336	-0.756070	-0.225287
H113	H	-1.098839	-1.470103	-0.517885
H114	H	-0.598839	-0.970103	-0.017885
H115	H	-0.479957	-1.530949	-1.265432
H116	H	0.020043	-1.030949	-0.765432
H117	H	-0.971583	-1.255264	-0.724697
H118	H	-0.471583	-0.755264	-0.224697
Br119	Br	-0.939607	-1.281557	-0.515314
Br120	Br	-0.439607	-0.781557	-0.015314
Br121	Br	-1.094199	-1.279495	-0.516254
Br122	Br	-0.594199	-0.779495	-0.016254
Br123	Br	-0.637426	-1.276154	-1.128194
Br124	Br	-0.137426	-0.776154	-0.628194
H125	H	-0.972222	-1.471311	-0.517966
H126	H	-0.472222	-0.971311	-0.017966
