data_functionalizedCrystal
_audit_creation_method	'MofGen! by Chris Wilmer'
_symmetry_space_group_name_H-M	'P1'
_symmetry_Int_Tables_number	1
_symmetry_cell_setting	triclinic
loop_
_symmetry_equiv_pos_as_xyz
  x,y,z
_cell_length_a	13.262390
_cell_length_b	13.339070
_cell_length_c	16.776229
_cell_angle_alpha	89.996888
_cell_angle_beta	74.075576
_cell_angle_gamma	99.429367
loop_
_atom_site_label
_atom_site_type_symbol
_atom_site_fract_x
_atom_site_fract_y
_atom_site_fract_z
O1	O	1.432459	0.136443	-0.376853
O2	O	1.131184	0.151274	-0.311535
O3	O	1.247245	-0.003551	-0.336695
O4	O	1.316398	0.291268	-0.351693
O5	O	1.247221	-0.003560	-0.204114
O6	O	1.131160	0.151264	-0.178954
O7	O	1.432435	0.136434	-0.244271
Zn8	Zn	1.281794	0.143847	-0.190562
Zn9	Zn	1.281826	0.143860	-0.365244
O10	O	1.316374	0.291258	-0.219111
C11	C	1.091825	0.150437	-0.236714
C12	C	0.974578	0.147947	-0.211295
C13	C	0.644136	0.140934	-0.428734
C14	C	0.754294	0.143269	-0.452618
C15	C	0.809370	0.144439	-0.392289
C16	C	0.754277	0.143273	-0.308072
C17	C	0.644107	0.140930	-0.284186
C18	C	0.809342	0.144435	-0.247741
C19	C	0.754249	0.143269	-0.163524
C20	C	0.644089	0.140926	-0.139642
C21	C	0.589013	0.139756	-0.199971
C22	C	0.919512	0.146778	-0.271628
C23	C	0.919484	0.146774	-0.127079
C24	C	0.809325	0.144439	-0.103195
C25	C	1.235552	-0.041294	-0.267873
C26	C	1.200732	-0.153743	-0.260327
C27	C	1.471469	-0.517393	-0.319023
C28	C	1.504186	-0.411742	-0.326109
C29	C	1.428326	-0.347238	-0.309665
C30	C	1.319742	-0.388393	-0.286132
C31	C	1.287021	-0.494055	-0.279040
C32	C	1.243878	-0.323899	-0.269681
C33	C	1.135294	-0.365055	-0.246149
C34	C	1.102578	-0.470706	-0.239058
C35	C	1.178439	-0.535211	-0.255502
C36	C	1.276599	-0.218238	-0.276774
C37	C	1.092151	-0.194899	-0.236790
C38	C	1.059433	-0.300550	-0.229704
C39	C	1.471795	0.137270	-0.319094
C40	C	1.589041	0.139761	-0.344519
C41	C	1.328068	0.329002	-0.287935
C42	C	1.362887	0.441451	-0.295486
N43	N	1.281779	0.143838	-0.071348
N44	N	1.281846	0.143861	-0.484460
C45	C	1.333201	0.075310	-0.040778
C46	C	1.333207	0.075309	0.042673
C47	C	1.281796	0.143842	0.095551
C48	C	1.230368	0.212374	0.064977
C49	C	1.230357	0.212369	-0.018471
C50	C	1.230412	0.212394	0.401515
C51	C	1.230430	0.212395	0.484968
C52	C	1.333262	0.075334	0.462659
C53	C	1.333250	0.075329	0.379211
C54	C	1.281818	0.143857	0.348645
C55	C	1.281811	0.143855	0.258158
C56	C	1.281809	0.143849	0.186035
H57	H	0.799142	0.144213	-0.521187
H58	H	1.592595	-0.378241	-0.345268
H59	H	1.375118	0.019527	0.336158
H60	H	0.599281	0.139971	-0.477844
H61	H	1.365008	-0.184739	-0.295933
H62	H	1.454971	-0.261212	-0.315435
H63	H	0.899067	0.146341	-0.411741
H64	H	1.188536	0.268193	0.376635
F65	F	1.011408	-0.126253	-0.219283
F66	F	0.471769	0.137278	-0.174555
H67	H	1.533222	-0.569922	-0.332403
H68	H	0.964326	0.147725	-0.077954
F69	F	0.585457	0.139680	-0.050010
H70	H	0.764453	0.143489	-0.034625
H71	H	1.188482	0.268170	-0.043359
F72	F	1.143622	-0.647659	-0.248037
H73	H	1.014162	-0.504211	-0.219891
F74	F	1.175708	0.285340	0.541245
F75	F	1.175646	0.285308	0.121257
H76	H	0.971022	-0.334074	-0.210544
F77	F	1.387927	0.002371	-0.097050
F78	F	1.387934	0.002373	0.075208
H79	H	0.964359	0.147729	-0.340197
H80	H	1.375137	0.019532	0.487555
