data_functionalizedCrystal
_audit_creation_method	'MofGen! by Chris Wilmer'
_symmetry_space_group_name_H-M	'P1'
_symmetry_Int_Tables_number	1
_symmetry_cell_setting	triclinic
loop_
_symmetry_equiv_pos_as_xyz
  x,y,z
_cell_length_a	23.532407
_cell_length_b	23.532355
_cell_length_c	22.610064
_cell_angle_alpha	90.004126
_cell_angle_beta	90.005928
_cell_angle_gamma	82.838088
loop_
_atom_site_label
_atom_site_type_symbol
_atom_site_fract_x
_atom_site_fract_y
_atom_site_fract_z
O1	O	0.068982	0.755278	-0.049110
O2	O	0.568982	1.255278	0.450890
O3	O	0.079016	0.589410	-0.049130
O4	O	0.579016	1.089410	0.450870
O5	O	-0.008934	0.677346	-0.049108
O6	O	0.491066	1.177346	0.450892
O7	O	0.156931	0.667342	-0.049131
O8	O	0.656931	1.167342	0.450869
O9	O	-0.008912	0.677340	0.049261
O10	O	0.491088	1.177340	0.549261
O11	O	0.079038	0.589404	0.049239
O12	O	0.579038	1.089404	0.549239
O13	O	0.069004	0.755272	0.049259
O14	O	0.569004	1.255272	0.549259
Zn15	Zn	0.074025	0.672337	0.064868
Zn16	Zn	0.574025	1.172337	0.564868
Zn17	Zn	0.073995	0.672345	-0.064738
Zn18	Zn	0.573995	1.172345	0.435262
O19	O	0.156954	0.667336	0.049238
O20	O	0.656954	1.167336	0.549238
C21	C	0.078776	0.568191	0.000052
C22	C	0.578776	1.068191	0.500052
C23	C	0.078022	0.504972	0.000045
C24	C	0.578022	1.004972	0.500045
C25	C	-0.030139	0.677088	0.000078
C26	C	0.469861	1.177088	0.500078
C27	C	-0.093356	0.676322	0.000082
C28	C	0.406644	1.176322	0.500082
C29	C	0.073296	0.112955	0.053692
C30	C	0.573296	0.612955	0.553692
C31	C	0.072579	0.053556	0.053694
C32	C	0.572579	0.553556	0.553694
O33	O	0.072199	0.022834	0.099296
O34	O	0.572199	0.522834	0.599296
N35	N	0.072211	0.023850	0.000074
N36	N	0.572211	0.523850	0.500074
C37	C	0.072554	0.053549	-0.053553
C38	C	0.572554	0.553549	0.446447
O39	O	0.072175	0.022828	-0.099162
O40	O	0.572175	0.522828	0.400838
C41	C	0.073268	0.112947	-0.053555
C42	C	0.573268	0.612947	0.446445
C43	C	0.073641	0.142649	0.000069
C44	C	0.573641	0.642649	0.500069
C45	C	0.073669	0.142656	0.107312
C46	C	0.573669	0.642656	0.607312
C47	C	0.074388	0.202052	0.107309
C48	C	0.574388	0.702052	0.607309
C49	C	0.074733	0.231745	0.053687
C50	C	0.574733	0.731745	0.553687
C51	C	0.074360	0.202044	0.000067
C52	C	0.574360	0.702044	0.500067
C53	C	0.073607	0.142645	-0.107181
C54	C	0.573607	0.642645	0.392819
C55	C	0.074320	0.202048	-0.107178
C56	C	0.574320	0.702048	0.392822
C57	C	0.074694	0.231749	-0.053554
C58	C	0.574694	0.731749	0.446446
C59	C	0.075424	0.291133	-0.053558
C60	C	0.575424	0.791133	0.446442
N61	N	0.075792	0.320838	0.000062
N62	N	0.575792	0.820838	0.500062
C63	C	0.075446	0.291144	0.053685
C64	C	0.575446	0.791144	0.553685
C65	C	0.071055	-0.071193	-0.053545
C66	C	0.571055	0.428807	0.446455
C67	C	0.070346	-0.130591	-0.053544
C68	C	0.570346	0.369409	0.446456
C69	C	0.070369	-0.130580	0.053703
C70	C	0.570369	0.369420	0.553703
C71	C	0.071083	-0.071181	0.053702
C72	C	0.571083	0.428819	0.553702
C73	C	0.071423	-0.041488	0.000075
C74	C	0.571423	0.458512	0.500075
C75	C	0.076956	0.415878	0.053675
C76	C	0.576956	0.915878	0.553675
C77	C	0.077677	0.475278	0.053668
C78	C	0.577677	0.975278	0.553668
C79	C	0.077650	0.475262	-0.053579
C80	C	0.577650	0.975262	0.446421
C81	C	0.076933	0.415867	-0.053572
C82	C	0.576933	0.915867	0.446428
C83	C	0.076583	0.386177	0.000060
C84	C	0.576583	0.886177	0.500060
O85	O	0.075802	0.321892	-0.099137
O86	O	0.575802	0.821892	0.400863
O87	O	0.075818	0.321873	0.099286
O88	O	0.575818	0.821873	0.599286
C89	C	-0.492468	0.723557	0.000055
C90	C	0.007532	1.223557	0.500055
C91	C	-0.551868	0.722845	0.000051
C92	C	-0.051868	1.222845	0.500051
O93	O	-0.588620	0.766632	0.000034
O94	O	-0.088620	1.266632	0.500034
N95	N	-0.574484	0.670568	0.000045
N96	N	-0.074484	1.170568	0.500045
C97	C	-0.537697	0.618998	0.000038
C98	C	-0.037697	1.118998	0.500038
O99	O	-0.562388	0.574467	0.000032
O100	O	-0.062388	1.074467	0.500032
C101	C	-0.478298	0.619710	0.000038
C102	C	0.021702	1.119710	0.500038
C103	C	-0.455685	0.671991	0.000050
C104	C	0.044315	1.171991	0.500050
C105	C	-0.469854	0.775834	0.000066
C106	C	0.030146	1.275834	0.500066
C107	C	-0.410458	0.776545	0.000072
C108	C	0.089542	1.276545	0.500072
C109	C	-0.373675	0.724979	0.000067
C110	C	0.126325	1.224979	0.500067
C111	C	-0.396289	0.672703	0.000055
C112	C	0.103711	1.172703	0.500055
C113	C	-0.441512	0.568141	0.000027
C114	C	0.058488	1.068141	0.500027
C115	C	-0.382110	0.568858	0.000026
C116	C	0.117890	1.068858	0.500026
C117	C	-0.359497	0.621139	0.000038
C118	C	0.140503	1.121139	0.500038
C119	C	-0.300110	0.621848	0.000056
C120	C	0.199890	1.121848	0.500056
N121	N	-0.277494	0.674126	0.000061
N122	N	0.222506	1.174126	0.500061
C123	C	-0.314277	0.725691	0.000067
C124	C	0.185723	1.225691	0.500067
C125	C	-0.662439	0.617507	0.000036
C126	C	-0.162439	1.117507	0.500036
C127	C	-0.721837	0.616794	0.000040
C128	C	-0.221837	1.116794	0.500040
C129	C	-0.736004	0.720642	0.000052
C130	C	-0.236004	1.220642	0.500052
C131	C	-0.676605	0.721354	0.000052
C132	C	-0.176605	1.221354	0.500052
C133	C	-0.639823	0.669784	0.000042
C134	C	-0.139823	1.169784	0.500042
C135	C	-0.189540	0.727181	0.000079
C136	C	0.310460	1.227181	0.500079
C137	C	-0.130138	0.727888	0.000087
C138	C	0.369862	1.227888	0.500087
C139	C	-0.115977	0.624041	0.000072
C140	C	0.384023	1.124041	0.500072
C141	C	-0.175373	0.623334	0.000067
C142	C	0.324627	1.123334	0.500067
C143	C	-0.212154	0.674909	0.000069
C144	C	0.287846	1.174909	0.500069
O145	O	-0.263323	0.578084	0.000070
O146	O	0.236677	1.078084	0.500070
O147	O	-0.289577	0.770216	0.000065
O148	O	0.210423	1.270216	0.500065
C149	C	0.178158	0.667594	0.000050
C150	C	0.678158	1.167594	0.500050
C151	C	0.241375	0.668360	0.000042
C152	C	0.741375	1.168360	0.500042
C153	C	0.069244	0.776492	0.000076
C154	C	0.569244	1.276492	0.500076
C155	C	0.069998	0.839710	0.000079
C156	C	0.569998	1.339710	0.500079
N157	N	0.074044	0.672336	0.153320
N158	N	0.574044	1.172336	0.653320
N159	N	0.073971	0.672351	-0.153191
N160	N	0.573971	1.172351	0.346809
C161	C	0.112941	0.633385	0.438159
C162	C	0.612941	1.133385	0.938159
C163	C	0.112947	0.633384	0.376239
C164	C	0.612947	1.133384	0.876239
O165	O	0.146044	0.600249	0.344212
O166	O	0.646044	1.100249	0.844212
N167	N	0.074022	0.672332	0.345272
N168	N	0.574022	1.172332	0.845272
C169	C	0.035084	0.711280	0.376229
C170	C	0.535084	1.211280	0.876229
O171	O	0.001975	0.744408	0.344204
O172	O	0.501975	1.244408	0.844204
C173	C	0.035077	0.711278	0.438148
C174	C	0.535077	1.211278	0.938148
C175	C	0.074008	0.672332	0.469111
C176	C	0.574008	1.172332	0.969111
C177	C	0.151870	0.594441	0.469122
C178	C	0.651870	1.094441	0.969122
C179	C	0.151865	0.594444	0.531038
C180	C	0.651865	1.094444	1.031038
C181	C	0.112932	0.633390	0.561990
C182	C	0.612932	1.133390	1.061990
C183	C	0.074003	0.672334	0.531027
C184	C	0.574003	1.172334	1.031027
C185	C	-0.003863	0.750224	0.469103
C186	C	0.496137	1.250224	0.969103
C187	C	-0.003868	0.750218	0.531026
C188	C	0.496132	1.250218	1.031026
C189	C	0.035064	0.711272	0.561989
C190	C	0.535064	1.211272	1.061989
C191	C	0.035065	0.711283	0.623895
C192	C	0.535065	1.211283	1.123895
N193	N	0.073991	0.672335	0.654861
N194	N	0.573991	1.172335	1.154861
C195	C	0.112924	0.633389	0.623909
C196	C	0.612924	1.133389	1.123909
C197	C	0.035103	0.711280	0.246195
C198	C	0.535103	1.211280	0.746195
C199	C	0.035113	0.711285	0.184278
C200	C	0.535113	1.211285	0.684278
C201	C	0.112975	0.633387	0.184292
C202	C	0.612975	1.133387	0.684292
C203	C	0.112967	0.633386	0.246211
C204	C	0.612967	1.133386	0.746211
C205	C	0.074028	0.672332	0.277162
C206	C	0.574028	1.172332	0.777162
C207	C	0.112911	0.633397	0.753936
C208	C	0.612911	1.133397	1.253936
C209	C	0.112904	0.633405	0.815857
C210	C	0.612904	1.133405	1.315857
C211	C	0.035040	0.711299	0.815838
C212	C	0.535040	1.211299	1.315838
C213	C	0.035049	0.711294	0.753922
C214	C	0.535049	1.211294	1.253922
C215	C	0.073986	0.672338	0.722973
C216	C	0.573986	1.172338	1.222973
O217	O	0.001984	0.744399	0.655961
O218	O	0.501984	1.244399	1.155961
O219	O	0.146022	0.600261	0.655941
O220	O	0.646022	1.100261	1.155941
H221	H	0.076677	0.391711	0.097348
H222	H	0.576677	0.891711	0.597348
O223	O	0.073315	0.113857	-0.159311
O224	O	0.573315	0.613857	0.340689
C225	C	0.122815	0.121628	-0.191941
C226	C	0.622815	0.621628	0.308059
H227	H	0.139792	0.162505	-0.176689
H228	H	0.639792	0.662505	0.323311
H229	H	0.111725	0.125186	-0.240991
H230	H	0.611725	0.625186	0.259009
H231	H	0.156956	0.083478	-0.184527
H232	H	0.656956	0.583478	0.315473
O233	O	-0.771821	0.770682	0.000024
O234	O	-0.271821	1.270682	0.500024
C235	C	-0.829095	0.758837	0.000032
C236	C	-0.329095	1.258837	0.500032
H237	H	-0.831113	0.714114	-0.018593
H238	H	-0.331113	1.214114	0.481407
H239	H	-0.856199	0.791722	-0.028530
H240	H	-0.356199	1.291722	0.471470
H241	H	-0.846288	0.761096	0.047223
H242	H	-0.346288	1.261096	0.547223
O243	O	-0.002806	0.749179	0.845819
O244	O	0.497194	1.249179	1.345819
C245	C	-0.037182	0.783543	0.805218
C246	C	0.462818	1.283543	1.305218
H247	H	-0.013832	0.784068	0.761085
H248	H	0.486168	1.284068	1.261085
H249	H	-0.046125	0.829069	0.823119
H250	H	0.453875	1.329069	1.323119
H251	H	-0.079386	0.765281	0.798618
H252	H	0.420614	1.265281	1.298618
O253	O	-0.743705	0.565958	0.000009
O254	O	-0.243705	1.065958	0.500009
C255	C	-0.698495	0.520602	0.000021
C256	C	-0.198495	1.020602	0.500021
H257	H	-0.658233	0.536338	-0.018596
H258	H	-0.158233	1.036338	0.481404
H259	H	-0.710698	0.484082	-0.028544
H260	H	-0.210698	0.984082	0.471456
H261	H	-0.689997	0.504711	0.047213
H262	H	-0.189997	1.004711	0.547213
H263	H	0.183574	0.562724	0.443926
H264	H	0.683574	1.062724	0.943926
H265	H	-0.111731	0.770463	0.000099
H266	H	0.388269	1.270463	0.500099
O267	O	0.078011	0.504045	0.105814
O268	O	0.578011	1.004045	0.605814
C269	C	0.077564	0.465093	0.153141
C270	C	0.577564	0.965093	0.653141
H271	H	0.059016	0.425214	0.137422
H272	H	0.559016	0.925214	0.637422
H273	H	0.050126	0.486032	0.190649
H274	H	0.550126	0.986032	0.690649
H275	H	0.123188	0.452536	0.169623
H276	H	0.623188	0.952536	0.669623
H277	H	0.074689	0.226230	0.150976
H278	H	0.574689	0.726230	0.650976
O279	O	0.076655	0.387060	-0.105698
O280	O	0.576655	0.887060	0.394302
C281	C	0.126164	0.394820	-0.138318
C282	C	0.626164	0.894820	0.361682
H283	H	0.143136	0.435702	-0.123075
H284	H	0.643136	0.935702	0.376925
H285	H	0.115085	0.398362	-0.187373
H286	H	0.615085	0.898362	0.312627
H287	H	0.160302	0.356672	-0.130885
H288	H	0.660302	0.856672	0.369115
H289	H	0.003417	0.743004	0.159072
H290	H	0.503417	1.243004	0.659072
H291	H	0.073387	0.118486	0.150980
H292	H	0.573387	0.618486	0.650980
O293	O	-0.002642	0.749144	0.276324
O294	O	0.497358	1.249144	0.776324
C295	C	0.027668	0.784115	0.312139
C296	C	0.527668	1.284115	0.812139
H297	H	0.072350	0.761177	0.321430
H298	H	0.572350	1.261177	0.821430
H299	H	0.003839	0.793267	0.355672
H300	H	0.503839	1.293267	0.855672
H301	H	0.031325	0.826180	0.288276
H302	H	0.531325	1.326180	0.788276
H303	H	-0.352164	0.526863	0.000017
H304	H	0.147836	1.026863	0.500017
H305	H	0.144676	0.601674	0.159079
H306	H	0.644676	1.101674	0.659079
H307	H	0.071388	-0.047002	0.097367
H308	H	0.571388	0.452998	0.597367
H309	H	0.070087	-0.154767	0.097366
H310	H	0.570087	0.345233	0.597366
O311	O	-0.197248	0.572499	0.000032
O312	O	0.302752	1.072499	0.500032
C313	C	-0.152043	0.527139	0.000046
C314	C	0.347957	1.027139	0.500046
H315	H	-0.111777	0.542873	-0.018565
H316	H	0.388223	1.042873	0.481435
H317	H	-0.164246	0.490623	-0.028525
H318	H	0.335754	0.990623	0.471475
H319	H	-0.143551	0.511243	0.047236
H320	H	0.356449	1.011243	0.547236
H321	H	-0.219481	0.769178	0.000078
H322	H	0.280519	1.269178	0.500078
O323	O	0.150803	0.595494	0.276194
O324	O	0.650803	1.095494	0.776194
C325	C	0.185175	0.561133	0.235589
C326	C	0.685175	1.061133	0.735589
H327	H	0.161832	0.560631	0.191446
H328	H	0.661832	1.060631	0.691446
H329	H	0.194099	0.515600	0.253470
H330	H	0.694099	1.015600	0.753470
H331	H	0.227389	0.579382	0.229018
H332	H	0.727389	1.079382	0.729018
O333	O	0.069966	-0.159349	-0.105688
O334	O	0.569966	0.340651	0.394312
C335	C	0.070441	-0.120398	-0.153013
C336	C	0.570441	0.379602	0.346987
H337	H	0.052923	-0.075595	-0.137286
H338	H	0.552923	0.424405	0.362714
H339	H	0.042572	-0.133783	-0.190514
H340	H	0.542572	0.366217	0.309486
H341	H	0.116210	-0.120321	-0.169505
H342	H	0.616210	0.379679	0.330495
H343	H	0.071338	-0.047021	-0.097217
H344	H	0.571338	0.452979	0.402783
H345	H	-0.035565	0.781937	0.443901
H346	H	0.464435	1.281937	0.943901
H347	H	0.144617	0.601675	0.728744
H348	H	0.644617	1.101675	1.228744
O349	O	0.074731	0.230944	-0.159235
O350	O	0.574731	0.730944	0.340765
C351	C	0.124483	0.258553	-0.162462
C352	C	0.624483	0.758553	0.337538
H353	H	0.141050	0.265211	-0.115909
H354	H	0.641050	0.765211	0.384091
H355	H	0.113888	0.301835	-0.185159
H356	H	0.613888	0.801835	0.314841
H357	H	0.158743	0.230941	-0.188928
H358	H	0.658743	0.730941	0.311072
O359	O	-0.041718	0.788105	0.561000
O360	O	0.458282	1.288105	1.061000
C361	C	-0.076086	0.822465	0.520388
C362	C	0.423914	1.322465	1.020388
H363	H	-0.052732	0.822976	0.476256
H364	H	0.447268	1.322976	0.976256
H365	H	-0.085023	0.867996	0.538278
H366	H	0.414977	1.367996	1.038278
H367	H	-0.118293	0.804208	0.513789
H368	H	0.381707	1.304208	1.013789
H369	H	-0.392053	0.819117	0.000079
H370	H	0.107947	1.319117	0.500079
H371	H	0.003352	0.743014	0.728711
H372	H	0.503352	1.243014	1.228711
O373	O	0.078062	0.504167	-0.105627
O374	O	0.578062	1.004167	0.394373
C375	C	0.127812	0.531780	-0.108850
C376	C	0.627812	1.031780	0.391150
H377	H	0.144381	0.538428	-0.062296
H378	H	0.644381	1.038428	0.437704
H379	H	0.117212	0.575067	-0.131535
H380	H	0.617212	1.075067	0.368465
H381	H	0.162071	0.504177	-0.135325
H382	H	0.662071	1.004177	0.364675
H383	H	-0.499797	0.817827	0.000069
H384	H	0.000203	1.317827	0.500069
O385	O	-0.654736	0.772189	0.000031
O386	O	-0.154736	1.272189	0.500031
C387	C	-0.699945	0.817545	0.000053
C388	C	-0.199945	1.317545	0.500053
H389	H	-0.740210	0.801811	-0.018569
H390	H	-0.240210	1.301811	0.481431
H391	H	-0.687747	0.854068	-0.028504
H392	H	-0.187747	1.354068	0.471496
H393	H	-0.708435	0.833432	0.047247
H394	H	-0.208435	1.333432	0.547247
H395	H	-0.632494	0.575510	0.000033
H396	H	-0.132494	1.075510	0.500033
H397	H	-0.459912	0.525569	0.000013
H398	H	0.040088	1.025569	0.500013
H399	H	-0.086018	0.582057	0.000070
H400	H	0.413982	1.082057	0.500070
O401	O	0.150744	0.595513	0.845842
O402	O	0.650744	1.095513	1.345842
C403	C	0.185115	0.561147	0.805240
C404	C	0.685115	1.061147	1.305240
H405	H	0.161770	0.560639	0.761099
H406	H	0.661770	1.060639	1.261099
H407	H	0.194040	0.515616	0.823127
H408	H	0.694040	1.015616	1.323127
H409	H	0.227328	0.579395	0.798663
H410	H	0.727328	1.079395	1.298663
H411	H	0.183565	0.562729	0.556244
H412	H	0.683565	1.062729	1.056244
