data_functionalizedCrystal
_audit_creation_method	'MofGen! by Chris Wilmer'
_symmetry_space_group_name_H-M	'P1'
_symmetry_Int_Tables_number	1
_symmetry_cell_setting	triclinic
loop_
_symmetry_equiv_pos_as_xyz
  x,y,z
_cell_length_a	11.169417
_cell_length_b	17.640280
_cell_length_c	17.639477
_cell_angle_alpha	70.346041
_cell_angle_beta	101.195556
_cell_angle_gamma	78.801822
loop_
_atom_site_label
_atom_site_type_symbol
_atom_site_fract_x
_atom_site_fract_y
_atom_site_fract_z
Zn1	Zn	1.783997	-0.233837	-0.399655
Zn2	Zn	1.885598	-0.399508	-0.234016
Zn3	Zn	1.634158	-0.261727	-0.261861
Zn4	Zn	1.634125	-0.371604	-0.371799
O5	O	1.734469	-0.316669	-0.316833
O6	O	1.965424	-0.255819	-0.377687
O7	O	1.894777	-0.404581	-0.122380
O8	O	1.611527	-0.142710	-0.303450
O9	O	2.040070	-0.377537	-0.255993
O10	O	1.721613	-0.122219	-0.404687
O11	O	1.710045	-0.303354	-0.142837
O12	O	1.466203	-0.276297	-0.276440
O13	O	1.611472	-0.329979	-0.490824
O14	O	1.466180	-0.357023	-0.357211
O15	O	1.721582	-0.228762	-0.511290
O16	O	1.894746	-0.511124	-0.228982
O17	O	1.709991	-0.490623	-0.330211
C18	C	1.422644	-0.316659	-0.316825
C19	C	1.289244	-0.316670	-0.316837
C20	C	1.813416	-0.530770	-0.273570
C21	C	1.847289	-0.622358	-0.255090
C22	C	1.477519	-0.870410	-0.457525
C23	C	1.509361	-0.956476	-0.440134
C24	C	1.701802	-0.977737	-0.334831
C25	C	1.669980	-0.891670	-0.352217
C26	C	1.557837	-0.838013	-0.413564
C27	C	1.750298	-0.859274	-0.308255
C28	C	1.718474	-0.773215	-0.325636
C29	C	1.606334	-0.719553	-0.386979
C30	C	1.526013	-0.751955	-0.430945
C31	C	1.862436	-0.912933	-0.246904
C32	C	1.942754	-0.880536	-0.202942
C33	C	1.910935	-0.794475	-0.220327
C34	C	1.798795	-0.740814	-0.281670
C35	C	1.991256	-0.762074	-0.176361
C36	C	1.959433	-0.676015	-0.193742
C37	C	1.766972	-0.654755	-0.299051
C38	C	2.047512	-0.316680	-0.316841
C39	C	2.180913	-0.316685	-0.316845
C40	C	1.655190	-0.273147	-0.531797
C41	C	1.621406	-0.254600	-0.623402
C42	C	1.655241	-0.101728	-0.360282
C43	C	1.621478	-0.010133	-0.378798
C44	C	1.991214	-0.457122	-0.871398
C45	C	1.959450	-0.439685	-0.957477
C46	C	1.767101	-0.334284	-0.978777
C47	C	1.798846	-0.351715	-0.892698
C48	C	1.910904	-0.413134	-0.839015
C49	C	1.718537	-0.307727	-0.860315
C50	C	1.750282	-0.325154	-0.774244
C51	C	1.862338	-0.386568	-0.720556
C52	C	1.942650	-0.430560	-0.752944
C53	C	1.606483	-0.246305	-0.914000
C54	C	1.526174	-0.202317	-0.881617
C55	C	1.557915	-0.219747	-0.795544
C56	C	1.669970	-0.281161	-0.741856
C57	C	1.477602	-0.175755	-0.763155
C58	C	1.509348	-0.193181	-0.677084
C59	C	1.701716	-0.298588	-0.655785
C60	C	1.813487	-0.359963	-0.102717
C61	C	1.847418	-0.378277	-0.011159
H62	H	1.675660	-0.611064	-0.349013
C63	C	2.047803	-0.488083	-0.993093
N64	N	2.114350	-0.524535	-1.019920
H65	H	1.675865	-0.284275	-1.022497
H66	H	1.434701	-0.708263	-0.480906
C67	C	2.114601	-0.821109	-0.108873
N68	N	2.207504	-0.865575	-0.058038
H69	H	2.024835	-0.649639	-0.157943
H70	H	1.580644	-0.232114	-0.984085
H71	H	1.434938	-0.152307	-0.925337
H72	H	1.888345	-0.983006	-0.232757
H73	H	1.386371	-0.125742	-0.806878
C74	C	2.066105	-0.939569	-0.135459
N75	N	2.159016	-0.984031	-0.084630
C76	C	1.354143	-0.811384	-0.525000
N77	N	1.261213	-0.766928	-0.575813
H78	H	1.443959	-0.982847	-0.475947
C79	C	1.824970	-0.366167	-0.596725
N80	N	1.917797	-0.417069	-0.552241
C81	C	1.421001	-0.144795	-0.641460
N82	N	1.354456	-0.108348	-0.614629
H83	H	1.580420	-0.649481	-0.401124
C84	C	2.065904	-0.498140	-0.693884
N85	N	2.158732	-0.549041	-0.649400
C86	C	1.825153	-1.036769	-0.267348
N87	N	1.918064	-1.081232	-0.216519
H88	H	1.888185	-0.400753	-0.650472
C89	C	2.114468	-0.524701	-0.812339
N90	N	2.207295	-0.575603	-0.767855
