data_functionalizedCrystal
_audit_creation_method	'MofGen! by Chris Wilmer'
_symmetry_space_group_name_H-M	'P1'
_symmetry_Int_Tables_number	1
_symmetry_cell_setting	triclinic
loop_
_symmetry_equiv_pos_as_xyz
  x,y,z
_cell_length_a	21.606444
_cell_length_b	21.606444
_cell_length_c	21.606444
_cell_angle_alpha	60.001331
_cell_angle_beta	90.000833
_cell_angle_gamma	59.999875
loop_
_atom_site_label
_atom_site_type_symbol
_atom_site_fract_x
_atom_site_fract_y
_atom_site_fract_z
Zr1	Zr	0.596210	0.677477	-0.081222
O2	O	0.497381	0.806595	-0.180041
O3	O	0.626507	0.548358	-0.050932
O4	O	0.626499	0.677482	-0.180050
O5	O	0.497394	0.677467	0.050931
O6	O	0.728349	0.677487	-0.180054
O7	O	0.497389	0.677471	-0.050923
O8	O	0.728363	0.446508	0.050915
O9	O	0.497380	0.908446	-0.180038
O10	O	0.715437	0.601470	-0.038013
O11	O	0.639431	0.601463	0.038003
O12	O	0.639422	0.753490	-0.114018
O13	O	0.563417	0.753484	-0.038002
Zr14	Zr	0.758657	0.677477	0.081217
Zr15	Zr	0.758648	0.677484	-0.081228
Zr16	Zr	0.596218	0.677470	0.081223
Zr17	Zr	0.596208	0.839917	-0.081217
Zr18	Zr	0.758658	0.515036	0.081212
O19	O	0.728359	0.806595	0.050927
O20	O	0.728348	0.806605	-0.180050
O21	O	0.497393	0.806585	0.050935
O22	O	0.857486	0.548358	0.180036
O23	O	0.857474	0.548368	-0.050940
O24	O	0.626519	0.548348	0.180045
O25	O	0.857473	0.677487	-0.050936
O26	O	0.728367	0.677471	0.180045
O27	O	0.626518	0.677467	0.180049
O28	O	0.857478	0.677482	0.050918
O29	O	0.626497	0.908451	-0.180043
O30	O	0.728370	0.446502	0.180038
O31	O	0.857487	0.446508	0.180033
O32	O	0.857480	0.446513	0.050910
O33	O	0.497386	0.908440	-0.050916
O34	O	0.626503	0.908446	-0.050920
O35	O	0.715445	0.601463	0.114012
O36	O	0.791450	0.601470	0.037997
O37	O	0.715435	0.753490	-0.038008
O38	O	0.639430	0.753484	0.038008
C39	C	0.677435	0.474289	-0.000009
C40	C	0.677436	0.405329	-0.000011
C41	C	0.717109	0.372934	-0.039692
C42	C	0.717111	0.308134	-0.039687
C43	C	0.677437	0.275734	-0.000005
C44	C	0.637763	0.308131	0.039680
C45	C	0.637765	0.372925	0.039679
C46	C	0.637754	0.046822	0.039686
C47	C	0.637753	-0.017975	0.039683
C48	C	0.717100	-0.017969	-0.039679
C49	C	0.717102	0.046825	-0.039680
C50	C	0.677432	0.079213	0.000008
C51	C	0.677431	0.149475	0.000003
C52	C	0.677433	0.205477	-0.000004
C53	C	0.474247	0.677468	0.000005
C54	C	0.405288	0.677465	0.000007
C55	C	0.412568	0.598113	0.039678
C56	C	0.347770	0.598115	0.039679
C57	C	0.275694	0.677471	0.000004
C58	C	0.268416	0.756829	-0.039668
C59	C	0.333212	0.756826	-0.039664
C60	C	0.007098	0.756844	-0.039685
C61	C	-0.057700	0.756842	-0.039688
C62	C	0.021656	0.598134	0.039658
C63	C	0.086452	0.598130	0.039662
C64	C	0.079169	0.677488	-0.000007
C65	C	0.149430	0.677485	-0.000006
C66	C	0.205434	0.677475	-0.000002
C67	C	0.880619	0.677485	-0.000010
C68	C	0.949579	0.677488	-0.000012
C69	C	0.677423	0.677485	-0.203197
C70	C	0.677419	0.677488	-0.272160
C71	C	0.677431	0.880665	0.000004
C72	C	0.677430	0.949625	0.000006
C73	C	0.637740	0.756841	-0.344232
C74	C	0.637747	0.756838	-0.409027
C75	C	0.677429	0.677483	-0.401748
C76	C	0.717113	0.598124	-0.329668
C77	C	0.717110	0.598127	-0.264874
C78	C	0.717125	0.598109	-0.590971
C79	C	0.717122	0.598112	-0.655771
C80	C	0.637761	0.756820	-0.735123
C81	C	0.637759	0.756823	-0.670330
C82	C	0.677446	0.677465	-0.598256
C83	C	0.677440	0.677469	-0.527998
C84	C	0.677431	0.677478	-0.472004
C85	C	0.677444	0.677468	0.203192
C86	C	0.677447	0.677465	0.272154
C87	C	0.880621	0.474297	-0.000017
C88	C	0.949581	0.405340	-0.000021
C89	C	0.677446	0.474280	0.203185
C90	C	0.677450	0.405317	0.272146
C91	C	0.880632	0.474289	0.203178
C92	C	0.949595	0.405329	0.272136
C93	C	0.474235	0.880665	-0.203183
C94	C	0.405271	0.949625	-0.272141
C95	C	0.474245	0.880656	0.000011
C96	C	0.405285	0.949613	0.000016
C97	C	0.677421	0.880673	-0.203191
C98	C	0.677417	0.949637	-0.272151
C99	C	0.942288	0.372957	-0.039707
C100	C	1.007077	0.308174	-0.039726
C101	C	1.079159	0.275770	-0.000056
C102	C	1.086451	0.308159	0.039631
C103	C	1.021663	0.372946	0.039646
C104	C	0.717130	0.372931	0.344213
C105	C	0.717131	0.308142	0.409015
C106	C	0.677456	0.275735	0.401747
C107	C	0.637771	0.308128	0.329672
C108	C	0.637766	0.372920	0.264872
C109	C	1.021662	0.372948	0.264840
C110	C	1.086467	0.308161	0.329627
C111	C	1.079203	0.275753	0.401709
C112	C	1.007129	0.308140	0.409003
C113	C	0.942326	0.372930	0.344217
C114	C	0.333204	0.982014	-0.264845
C115	C	0.268399	1.046820	-0.329632
C116	C	0.275663	1.079232	-0.401714
C117	C	0.347738	1.046841	-0.409008
C118	C	0.412541	0.982040	-0.344222
C119	C	0.412579	0.982003	0.039695
C120	C	0.347790	1.046804	0.039696
C121	C	0.275707	1.079211	0.000024
C122	C	0.268415	1.046818	-0.039660
C123	C	0.333204	0.982022	-0.039666
C124	C	0.717099	0.982023	-0.264859
C125	C	0.717110	1.046812	-0.329648
C126	C	0.677433	1.079219	-0.401728
C127	C	0.637749	1.046827	-0.409019
C128	C	0.637744	0.982034	-0.344230
H129	H	0.605458	0.399302	0.071989
H130	H	0.605444	-0.044354	0.071999
H131	H	1.145149	0.281766	0.071929
Cl132	Cl	0.587860	0.856600	-0.499632
Cl133	Cl	0.503174	0.498345	0.089555
H134	H	0.209717	1.073213	-0.071961
Cl135	Cl	0.851730	0.413624	0.353403
H136	H	0.327254	0.955652	-0.071975
Cl137	Cl	1.160679	0.194300	0.483148
H138	H	1.001125	0.281810	-0.072044
H139	H	0.605426	0.955672	-0.350178
Cl140	Cl	0.587898	0.267387	0.089578
H141	H	0.222959	1.131972	0.000034
H142	H	0.677444	1.131978	-0.454477
Cl143	Cl	0.851678	0.413683	-0.089588
Cl144	Cl	0.356856	1.087593	-0.499632
Cl145	Cl	0.356974	1.087509	0.089592
H146	H	0.749416	0.281759	-0.071997
Cl147	Cl	0.998010	0.267387	0.499627
Cl148	Cl	0.766997	1.087526	-0.320465
H149	H	0.209726	0.821442	-0.071968
H150	H	1.131908	0.223015	-0.000073
Cl151	Cl	0.587865	1.087584	-0.499640
Cl152	Cl	0.766986	0.941295	-0.174251
Cl153	Cl	0.177061	0.498365	0.089539
Cl154	Cl	0.766984	0.413664	-0.089584
H155	H	0.209720	1.073182	-0.323678
H156	H	1.027591	0.399325	0.206153
Cl157	Cl	1.030845	0.413642	0.089547
Cl158	Cl	0.766975	-0.058693	-0.089571
H159	H	0.749406	0.073206	-0.071996
Cl160	Cl	0.503189	0.941282	0.089571
H161	H	0.605455	0.073181	0.072006
Cl162	Cl	0.587860	0.856588	-0.679486
Cl163	Cl	0.356927	0.498353	0.089562
Cl164	Cl	-0.148314	0.856611	-0.089568
Cl165	Cl	0.030809	0.498367	0.089532
Cl166	Cl	0.587899	0.267376	0.320548
H167	H	0.327276	0.955627	-0.206158
H168	H	0.327280	0.821443	-0.071959
Cl169	Cl	-0.002067	0.856609	-0.089558
Cl170	Cl	0.587882	0.413620	0.174275
H171	H	0.605421	0.821462	-0.350168
Cl172	Cl	0.587870	0.856586	-0.825735
H173	H	0.749439	0.533487	-0.649836
H174	H	0.749441	0.533491	-0.532293
H175	H	0.749427	0.533511	-0.323745
H176	H	0.749421	0.533511	-0.206190
Cl177	Cl	0.677472	0.194279	0.483219
H178	H	0.749438	0.399309	0.350145
Cl179	Cl	0.767028	0.267431	0.499614
Cl180	Cl	1.177065	0.267455	0.320439
Cl181	Cl	0.503137	0.941324	-0.353408
H182	H	0.222890	1.131997	-0.454461
