data_functionalizedCrystal
_audit_creation_method	'MofGen! by Chris Wilmer'
_symmetry_space_group_name_H-M	'P1'
_symmetry_Int_Tables_number	1
_symmetry_cell_setting	triclinic
loop_
_symmetry_equiv_pos_as_xyz
  x,y,z
_cell_length_a	21.295418
_cell_length_b	25.639239
_cell_length_c	21.295420
_cell_angle_alpha	90.013058
_cell_angle_beta	90.026872
_cell_angle_gamma	90.054499
loop_
_atom_site_label
_atom_site_type_symbol
_atom_site_fract_x
_atom_site_fract_y
_atom_site_fract_z
Zn1	Zn	0.962215	-0.208023	0.356243
Zn2	Zn	1.462215	0.291977	0.856243
Zn3	Zn	0.962134	-0.295433	0.250972
Zn4	Zn	1.462134	0.204567	0.750972
Zn5	Zn	0.856969	-0.208038	0.250952
Zn6	Zn	1.356969	0.291962	0.750952
Zn7	Zn	0.856893	-0.295454	0.356168
Zn8	Zn	1.356893	0.204546	0.856168
O9	O	0.909553	-0.251737	0.303584
O10	O	1.409553	0.248263	0.803584
O11	O	1.050294	-0.219604	0.342317
O12	O	1.550294	0.280396	0.842317
O13	O	0.948181	-0.283838	0.162880
O14	O	1.448181	0.216162	0.662880
O15	O	0.870997	-0.134871	0.264942
O16	O	1.370997	0.365129	0.764942
O17	O	1.050234	-0.283824	0.264976
O18	O	1.550234	0.216176	0.764976
O19	O	0.948320	-0.134860	0.342299
O20	O	1.448320	0.365140	0.842299
O21	O	0.870917	-0.219629	0.162866
O22	O	1.370917	0.280371	0.662866
O23	O	0.768870	-0.219648	0.264870
O24	O	1.268870	0.280352	0.764870
O25	O	0.870866	-0.283858	0.444268
O26	O	1.370866	0.216142	0.944268
O27	O	0.768813	-0.283872	0.342172
O28	O	1.268813	0.216128	0.842172
O29	O	0.948246	-0.219623	0.444322
O30	O	1.448246	0.280377	0.944322
O31	O	0.948107	-0.368601	0.264904
O32	O	1.448107	0.131399	0.764904
O33	O	0.870787	-0.368616	0.342191
O34	O	1.370787	0.131384	0.842191
C35	C	0.746001	-0.251764	0.303511
C36	C	1.246001	0.248236	0.803511
C37	C	0.676033	-0.251789	0.303495
C38	C	1.176033	0.248211	0.803495
C39	C	0.643153	-0.285274	0.343686
C40	C	1.143153	0.214726	0.843686
C41	C	0.577411	-0.285262	0.343714
C42	C	1.077411	0.214738	0.843714
C43	C	0.544550	-0.251769	0.303541
C44	C	1.044550	0.248231	0.803541
C45	C	0.577438	-0.218276	0.263347
C46	C	1.077438	0.281724	0.763347
C47	C	0.643179	-0.218286	0.263324
C48	C	1.143179	0.281714	0.763324
N49	N	0.441291	-0.247671	0.248483
N50	N	0.941291	0.252329	0.748483
N51	N	0.378840	-0.247664	0.248506
N52	N	0.878840	0.252336	0.748506
C53	C	0.346476	-0.251735	0.303607
C54	C	0.846476	0.248265	0.803607
N55	N	0.378922	-0.255823	0.358686
N56	N	0.878922	0.244177	0.858686
N57	N	0.441379	-0.255832	0.358662
N58	N	0.941379	0.244168	0.858662
C59	C	0.473265	-0.251754	0.303561
C60	C	0.973265	0.248246	0.803561
C61	C	0.242311	-0.285209	0.343832
C62	C	0.742311	0.214791	0.843832
C63	C	0.176567	-0.285192	0.343862
C64	C	0.676567	0.214808	0.843862
C65	C	0.176595	-0.218210	0.263489
C66	C	0.676595	0.281790	0.763489
C67	C	0.242338	-0.218223	0.263465
C68	C	0.742338	0.281777	0.763465
C69	C	0.275191	-0.251726	0.303636
C70	C	0.775191	0.248274	0.803636
C71	C	0.909447	-0.387580	0.303555
C72	C	1.409447	0.112420	0.803555
C73	C	0.909459	-0.445694	0.303564
C74	C	1.409459	0.054306	0.803564
C75	C	0.949918	-0.806036	0.263409
C76	C	1.449918	-0.306036	0.763409
C77	C	0.949943	-0.860641	0.263417
C78	C	1.449943	-0.360641	0.763417
O79	O	0.984233	-0.888860	0.229245
O80	O	1.484233	-0.388860	0.729245
N81	N	0.909663	-0.887976	0.303626
N82	N	1.409663	-0.387976	0.803626
C83	C	0.869361	-0.860704	0.343833
C84	C	1.369361	-0.360704	0.843833
O85	O	0.835103	-0.888969	0.378034
O86	O	1.335103	-0.388969	0.878034
C87	C	0.869341	-0.806101	0.343827
C88	C	1.369341	-0.306101	0.843827
C89	C	0.909618	-0.778768	0.303611
C90	C	1.409618	-0.278768	0.803611
C91	C	0.990193	-0.778704	0.223197
C92	C	1.490193	-0.278704	0.723197
C93	C	0.990167	-0.724103	0.223188
C94	C	1.490167	-0.224103	0.723188
C95	C	0.949867	-0.696835	0.263391
C96	C	1.449867	-0.196835	0.763391
C97	C	0.909593	-0.724168	0.303602
C98	C	1.409593	-0.224168	0.803602
C99	C	0.829043	-0.778830	0.384036
C100	C	1.329043	-0.278830	0.884036
C101	C	0.829026	-0.724223	0.384028
C102	C	1.329026	-0.224223	0.884028
C103	C	0.869303	-0.696891	0.343812
C104	C	1.369303	-0.196891	0.843812
C105	C	0.869267	-0.642299	0.343796
C106	C	1.369267	-0.142299	0.843796
N107	N	0.909547	-0.614964	0.303588
N108	N	1.409547	-0.114964	0.803588
C109	C	0.949847	-0.642232	0.263385
C110	C	1.449847	-0.142232	0.763385
C111	C	0.869409	-0.975375	0.343842
C112	C	1.369409	-0.475375	0.843842
C113	C	0.869426	-1.029977	0.343845
C114	C	1.369426	-0.529977	0.843845
C115	C	0.950008	-1.029910	0.263431
C116	C	1.450008	-0.529910	0.763431
C117	C	0.949987	-0.975306	0.263425
C118	C	1.449987	-0.475306	0.763425
C119	C	0.909688	-0.948039	0.303634
C120	C	1.409688	-0.448039	0.803634
C121	C	0.949790	-0.527567	0.263369
C122	C	1.449790	-0.027567	0.763369
C123	C	0.949759	-0.472961	0.263361
C124	C	1.449759	0.027039	0.763361
C125	C	0.869180	-0.473034	0.343778
C126	C	1.369180	0.026966	0.843778
C127	C	0.869208	-0.527634	0.343783
C128	C	1.369208	-0.027634	0.843783
C129	C	0.909518	-0.554900	0.303576
C130	C	1.409518	-0.054900	0.803576
O131	O	0.834997	-0.614045	0.377953
O132	O	1.334997	-0.114045	0.877953
O133	O	0.984105	-0.613960	0.229195
O134	O	1.484105	-0.113960	0.729195
C135	C	1.073743	-0.251710	0.303657
C136	C	1.573743	0.248290	0.803657
C137	C	1.143711	-0.251698	0.303688
C138	C	1.643711	0.248302	0.803688
C139	C	0.909557	-0.251741	0.467774
C140	C	1.409557	0.248259	0.967774
C141	C	0.909558	-0.251743	0.537742
C142	C	1.409558	0.248257	1.037742
C143	C	0.909676	-0.115364	0.303627
C144	C	1.409676	0.384636	0.803627
C145	C	0.909729	-0.057250	0.303645
C146	C	1.409729	0.442750	0.803645
C147	C	0.949783	-0.285167	1.037208
C148	C	1.449783	0.214833	1.537208
C149	C	0.949782	-0.285170	0.971466
C150	C	1.449782	0.214830	1.471466
C151	C	0.909556	-0.251740	0.938582
C152	C	1.409556	0.248260	1.438582
C153	C	0.869318	-0.218314	0.971446
C154	C	1.369318	0.281686	1.471446
C155	C	0.869316	-0.218315	1.037187
C156	C	1.369316	0.281685	1.537187
N157	N	0.904772	-0.205973	0.835373
N158	N	1.404772	0.294027	1.335373
N159	N	0.904777	-0.205974	0.772921
N160	N	1.404777	0.294026	1.272921
C161	C	0.909559	-0.251737	0.740507
C162	C	1.409559	0.248263	1.240507
N163	N	0.914347	-0.297500	0.772903
N164	N	1.414347	0.202500	1.272903
N165	N	0.914345	-0.297498	0.835360
N166	N	1.414345	0.202502	1.335360
C167	C	0.909554	-0.251736	0.867296
C168	C	1.409554	0.248264	1.367296
C169	C	0.949791	-0.285168	0.636365
C170	C	1.449791	0.214832	1.136365
C171	C	0.949785	-0.285173	0.570622
C172	C	1.449785	0.214827	1.070622
C173	C	0.869324	-0.218311	0.570603
C174	C	1.369324	0.281689	1.070603
C175	C	0.869326	-0.218311	0.636345
C176	C	1.369326	0.281689	1.136345
C177	C	0.909563	-0.251739	0.669223
C178	C	1.409563	0.248261	1.169223
C179	C	0.909547	-0.251744	1.140032
C180	C	1.409547	0.248256	1.640032
C181	C	0.909552	-0.251742	1.070064
C182	C	1.409552	0.248258	1.570064
H183	H	0.982558	-0.450709	0.230611
H184	H	1.482558	0.049291	0.730611
O185	O	0.675149	-0.185704	0.224368
O186	O	1.175149	0.314296	0.724368
C187	C	0.713268	-0.151998	0.260264
C188	C	1.213268	0.348002	0.760264
H189	H	0.693503	-0.148829	0.309858
H190	H	1.193503	0.351171	0.809858
H191	H	0.714054	-0.111732	0.237584
H192	H	1.214054	0.388268	0.737584
H193	H	0.763071	-0.168178	0.262379
H194	H	1.263071	0.331822	0.762379
H195	H	0.149798	-0.312459	0.376594
H196	H	0.649798	0.187541	0.876594
H197	H	0.982543	-0.312396	0.543871
H198	H	1.482543	0.187604	1.043871
H199	H	0.982785	-0.953055	0.230679
H200	H	1.482785	-0.453055	0.730679
O201	O	0.830306	-0.185855	0.538570
O202	O	1.330306	0.314145	1.038570
C203	C	0.838919	-0.193033	0.473499
C204	C	1.338919	0.306967	0.973499
H205	H	0.887485	-0.210145	0.464537
H206	H	1.387485	0.289855	0.964537
H207	H	0.834680	-0.153871	0.448521
H208	H	1.334680	0.346129	0.948521
H209	H	0.801558	-0.220885	0.454819
H210	H	1.301558	0.279115	0.954819
O211	O	0.545529	-0.317763	0.382845
O212	O	1.045529	0.182237	0.882845
C213	C	0.561644	-0.306416	0.445606
C214	C	1.061644	0.193584	0.945606
H215	H	0.609408	-0.286331	0.446944
H216	H	1.109408	0.213669	0.946944
H217	H	0.563856	-0.344188	0.473749
H218	H	1.063856	0.155812	0.973749
H219	H	0.524700	-0.279554	0.466877
H220	H	1.024700	0.220446	0.966877
H221	H	0.550679	-0.191005	0.230638
H222	H	1.050679	0.308995	0.730638
H223	H	1.023013	-0.800899	0.190459
H224	H	1.523013	-0.300899	0.690459
O225	O	0.830071	-0.446595	0.382920
O226	O	1.330071	0.053405	0.882920
C227	C	0.843805	-0.459894	0.445678
C228	C	1.343805	0.040106	0.945678
H229	H	0.868010	-0.499517	0.447017
H230	H	1.368010	0.000483	0.947017
H231	H	0.798359	-0.461793	0.473858
H232	H	1.298359	0.038207	0.973858
H233	H	0.876152	-0.429125	0.466906
H234	H	1.376152	0.070875	0.966906
O235	O	0.830336	-0.185817	0.668338
O236	O	1.330336	0.314183	1.168338
C237	C	0.866200	-0.152032	0.706384
C238	C	1.366200	0.347968	1.206384
H239	H	0.913892	-0.170459	0.716248
H240	H	1.413892	0.329541	1.216248
H241	H	0.840564	-0.145037	0.752605
H242	H	1.340564	0.354963	1.252605
H243	H	0.873144	-0.113281	0.681068
H244	H	1.373144	0.386719	1.181068
H245	H	0.269062	-0.312486	0.376545
H246	H	0.769062	0.187514	0.876545
O247	O	0.675134	-0.317740	0.382746
O248	O	1.175134	0.182260	0.882746
C249	C	0.713219	-0.288030	0.423468
C250	C	1.213219	0.211970	0.923468
H251	H	0.723107	-0.248381	0.401348
H252	H	1.223107	0.251619	0.901348
H253	H	0.759425	-0.309345	0.431848
H254	H	1.259425	0.190655	0.931848
H255	H	0.687923	-0.282340	0.470135
H256	H	1.187923	0.217660	0.970135
H257	H	0.269108	-0.190958	0.230734
H258	H	0.769108	0.309042	0.730734
O259	O	0.144585	-0.185736	0.224468
O260	O	0.644585	0.314264	0.724468
C261	C	0.079509	-0.192902	0.233110
C262	C	0.579509	0.307098	0.733110
H263	H	0.070496	-0.233271	0.253663
H264	H	0.570496	0.266729	0.753663
H265	H	0.054498	-0.189312	0.185968
H266	H	0.554498	0.310688	0.685968
H267	H	0.060911	-0.161921	0.266686
H268	H	0.560911	0.338079	0.766686
O269	O	0.989036	-0.553985	0.224341
O270	O	1.489036	-0.053985	0.724341
C271	C	1.051756	-0.540569	0.238189
C272	C	1.551756	-0.040569	0.738189
H273	H	1.053012	-0.500919	0.262394
H274	H	1.553012	-0.000919	0.762394
H275	H	1.080016	-0.538669	0.192793
H276	H	1.580016	-0.038669	0.692793
H277	H	1.072955	-0.571269	0.270575
H278	H	1.572955	-0.071269	0.770575
O279	O	1.029359	-0.697637	0.184109
O280	O	1.529359	-0.197637	0.684109
C281	C	1.064921	-0.733422	0.148624
C282	C	1.564921	-0.233422	0.648624
H283	H	1.067084	-0.772335	0.174419
H284	H	1.567084	-0.272335	0.674419
H285	H	1.114521	-0.717602	0.141974
H286	H	1.614521	-0.217602	0.641974
H287	H	1.041914	-0.739267	0.100784
H288	H	1.541914	-0.239267	0.600784
H289	H	0.836565	-0.191095	0.944667
H290	H	1.336565	0.308905	1.444667
O291	O	0.989182	-1.056484	0.224482
O292	O	1.489182	-0.556484	0.724482
C293	C	0.980573	-1.110538	0.233128
C294	C	1.480573	-0.610538	0.733128
H295	H	0.959860	-1.117986	0.281661
H296	H	1.459860	-0.617986	0.781661
H297	H	1.027753	-1.131226	0.229000
H298	H	1.527753	-0.631226	0.729000
H299	H	0.947145	-1.126112	0.195717
H300	H	1.447145	-0.626112	0.695717
O301	O	0.830317	-1.056606	0.382848
O302	O	1.330317	-0.556606	0.882848
C303	C	0.838986	-1.110649	0.374254
C304	C	1.338986	-0.610649	0.874254
H305	H	0.859642	-1.118104	0.325701
H306	H	1.359642	-0.618104	0.825701
H307	H	0.791839	-1.131448	0.378472
H308	H	1.291839	-0.631448	0.878472
H309	H	0.872486	-1.126094	0.411638
H310	H	1.372486	-0.626094	0.911638
H311	H	0.836587	-0.953177	0.376583
H312	H	1.336587	-0.453177	0.876583
O313	O	0.789899	-0.805292	0.423164
O314	O	1.289899	-0.305292	0.923164
C315	C	0.754322	-0.769505	0.458632
C316	C	1.254322	-0.269505	0.958632
H317	H	0.780094	-0.730555	0.460828
H318	H	1.280094	-0.230555	0.960828
H319	H	0.747578	-0.785266	0.508227
H320	H	1.247578	-0.285266	1.008227
H321	H	0.706527	-0.763754	0.435524
H322	H	1.206527	-0.263754	0.935524
H323	H	0.796210	-0.702025	0.416773
H324	H	1.296210	-0.202025	0.916773
O325	O	0.830167	-0.554247	0.382873
O326	O	1.330167	-0.054247	0.882873
C327	C	0.865992	-0.585766	0.423594
C328	C	1.365992	-0.085766	0.923594
H329	H	0.913719	-0.593899	0.401454
H330	H	1.413719	-0.093899	0.901454
H331	H	0.840366	-0.624190	0.432006
H332	H	1.340366	-0.124190	0.932006
H333	H	0.872860	-0.564698	0.470247
H334	H	1.372860	-0.064698	0.970247
H335	H	0.982545	-0.312387	1.063973
H336	H	1.482545	0.187613	1.563973
O337	O	0.830166	-0.185918	1.069133
O338	O	1.330166	0.314082	1.569133
C339	C	0.789495	-0.215695	1.107144
C340	C	1.289495	0.284305	1.607144
H341	H	0.785576	-0.256875	1.087320
H342	H	1.285576	0.243125	1.587320
H343	H	0.741065	-0.196798	1.107871
H344	H	1.241065	0.303202	1.607871
H345	H	0.808956	-0.217490	1.156977
H346	H	1.308956	0.282510	1.656977
H347	H	0.982552	-0.312383	0.944709
H348	H	1.482552	0.187617	1.444709
O349	O	0.988890	-0.317691	0.668210
O350	O	1.488890	0.182309	1.168210
C351	C	1.024406	-0.347189	0.625109
C352	C	1.524406	0.152811	1.125109
H353	H	0.998620	-0.349005	0.578234
H354	H	1.498620	0.150995	1.078234
H355	H	1.031085	-0.388381	0.644097
H356	H	1.531085	0.111619	1.144097
H357	H	1.072232	-0.328034	0.618143
H358	H	1.572232	0.171966	1.118143
