data_functionalizedCrystal
_audit_creation_method	'MofGen! by Chris Wilmer'
_symmetry_space_group_name_H-M	'P1'
_symmetry_Int_Tables_number	1
_symmetry_cell_setting	triclinic
loop_
_symmetry_equiv_pos_as_xyz
  x,y,z
_cell_length_a	10.654550
_cell_length_b	17.699083
_cell_length_c	9.730223
_cell_angle_alpha	89.994713
_cell_angle_beta	89.999957
_cell_angle_gamma	83.883973
loop_
_atom_site_label
_atom_site_type_symbol
_atom_site_fract_x
_atom_site_fract_y
_atom_site_fract_z
O1	O	1.665978	0.106302	-0.114190
O2	O	1.300323	0.116430	-0.114216
O3	O	1.493481	0.001243	-0.114190
O4	O	1.472820	0.221490	-0.114216
O5	O	1.493469	0.001240	0.114390
O6	O	1.300310	0.116427	0.114364
O7	O	1.665966	0.106299	0.114390
Zn8	Zn	1.483136	0.111363	0.150669
Zn9	Zn	1.483152	0.111367	-0.150495
O10	O	1.472807	0.221487	0.114364
C11	C	1.253531	0.115685	0.000071
C12	C	1.114127	0.113460	0.000061
C13	C	1.492735	-0.026960	0.000100
C14	C	1.490514	-0.110993	0.000100
C15	C	1.033454	0.181281	0.000058
C16	C	0.902470	0.179186	0.000082
C17	C	0.932844	0.041444	0.000108
C18	C	1.063826	0.043539	0.000094
C19	C	1.603894	-0.158893	0.000110
C20	C	1.601799	-0.237849	0.000098
C21	C	1.486323	-0.268904	0.000085
C22	C	1.372935	-0.220998	0.000071
C23	C	1.375030	-0.142043	0.000074
C24	C	1.364481	-0.539415	0.000060
C25	C	1.362394	-0.618376	0.000061
C26	C	1.591249	-0.635221	0.000083
C27	C	1.593345	-0.556266	0.000086
C28	C	1.479957	-0.508367	0.000065
C29	C	1.482229	-0.422753	0.000075
C30	C	1.484050	-0.354516	0.000085
C31	C	1.712757	0.107045	0.000100
C32	C	1.852161	0.109269	0.000100
C33	C	1.473554	0.249690	0.000071
C34	C	1.475775	0.333722	0.000061
N35	N	1.483134	0.111359	0.356205
N36	N	1.483164	0.111364	-0.356032
C37	C	1.568694	0.060376	0.428142
C38	C	1.568706	0.060376	0.572025
C39	C	1.397596	0.162350	0.572021
C40	C	1.397578	0.162345	0.428141
H41	H	0.836791	0.234412	0.000081
O42	O	1.142022	-0.022417	0.000035
C43	C	1.069541	-0.084580	0.000089
H44	H	0.971717	-0.065888	-0.043182
H45	H	1.118008	-0.132141	-0.066267
H46	H	1.060290	-0.105978	0.109756
H47	H	1.694125	-0.276847	0.000109
H48	H	1.282705	-0.103043	0.000066
O49	O	0.883770	-0.026409	0.000067
C50	C	0.750863	-0.013718	0.000110
H51	H	0.719918	0.045184	-0.043173
H52	H	0.710778	-0.058498	-0.066242
H53	H	0.714420	-0.017577	0.109775
H54	H	1.278912	-0.246289	0.000053
O55	O	1.705440	-0.526012	-0.000089
C56	C	1.713514	-0.480855	-0.118490
H57	H	1.614475	-0.461711	-0.157961
H58	H	1.763416	-0.428900	-0.091865
H59	H	1.769178	-0.515437	-0.201385
O60	O	1.716179	-0.128855	0.000058
C61	C	1.815800	-0.188068	0.000093
H62	H	1.780757	-0.241877	-0.043182
H63	H	1.896438	-0.171146	-0.066269
H64	H	1.850761	-0.199061	0.109755
O65	O	1.082168	0.249245	-0.000145
C66	C	1.040933	0.290624	-0.118547
H67	H	0.950148	0.269517	-0.158002
H68	H	1.022556	0.353555	-0.091928
H69	H	1.116749	0.282259	-0.201451
H70	H	1.683575	-0.674231	0.000094
O71	O	1.250292	-0.648633	-0.000146
C72	C	1.242245	-0.693781	-0.118548
H73	H	1.341292	-0.712918	-0.157994
H74	H	1.192344	-0.745740	-0.091932
H75	H	1.186593	-0.659194	-0.201457
O76	O	1.254224	-0.493001	0.000118
C77	C	1.151859	-0.537345	0.000083
H78	H	1.183920	-0.596099	0.043355
H79	H	1.072431	-0.508648	0.066448
H80	H	1.116450	-0.543146	-0.109578
H81	H	1.638357	0.018859	0.369576
H82	H	1.327940	0.203863	0.630605
O83	O	1.651942	0.010825	0.641692
C84	C	1.727424	-0.034188	0.547340
H85	H	1.728730	-0.003149	0.444771
H86	H	1.827749	-0.045169	0.588901
H87	H	1.686831	-0.090643	0.532055
H88	H	1.327900	0.203862	0.369565
