data_functionalizedCrystal
_audit_creation_method	'MofGen! by Chris Wilmer'
_symmetry_space_group_name_H-M	'P1'
_symmetry_Int_Tables_number	1
_symmetry_cell_setting	triclinic
loop_
_symmetry_equiv_pos_as_xyz
  x,y,z
_cell_length_a	15.995350
_cell_length_b	14.472311
_cell_length_c	15.995350
_cell_angle_alpha	89.992572
_cell_angle_beta	96.507625
_cell_angle_gamma	90.000483
loop_
_atom_site_label
_atom_site_type_symbol
_atom_site_fract_x
_atom_site_fract_y
_atom_site_fract_z
O1	O	1.110984	0.076758	-0.107933
O2	O	1.610984	0.576758	0.392067
O3	O	0.867209	0.076776	-0.121260
O4	O	1.367209	0.576776	0.378740
O5	O	0.995761	0.076766	0.007291
O6	O	1.495761	0.576766	0.507291
O7	O	0.982433	0.076769	-0.236484
O8	O	1.482433	0.576769	0.263516
O9	O	0.995752	-0.076916	0.007307
O10	O	1.495752	0.423084	0.507307
O11	O	0.867200	-0.076906	-0.121244
O12	O	1.367200	0.423094	0.378756
O13	O	1.110976	-0.076924	-0.107917
O14	O	1.610976	0.423076	0.392083
Cu15	Cu	0.989087	-0.090947	-0.114579
Cu16	Cu	1.489087	0.409053	0.385421
Cu17	Cu	0.989098	0.090800	-0.114598
Cu18	Cu	1.489098	0.590800	0.385402
O19	O	0.982424	-0.076913	-0.236468
O20	O	1.482424	0.423087	0.263532
C21	C	0.836010	-0.000062	-0.120701
C22	C	1.336010	0.499938	0.379299
C23	C	0.743060	-0.000055	-0.119049
C24	C	1.243060	0.499945	0.380951
N25	N	0.989086	-0.218778	-0.114565
N26	N	1.489086	0.281222	0.385435
C27	C	0.405312	-0.000074	-0.113117
C28	C	0.905312	0.499926	0.386883
C29	C	0.452746	-0.000418	-0.021565
C30	C	0.952746	0.499582	0.478435
C31	C	0.549436	-0.000065	-0.023217
C32	C	1.049436	0.499935	0.476783
C33	C	0.572873	-0.000065	-0.116060
C34	C	1.072873	0.499935	0.383940
C35	C	0.531791	0.087692	-0.161225
C36	C	1.031791	0.587692	0.338775
C37	C	0.435155	0.087759	-0.158925
C38	C	0.935155	0.587759	0.341075
C39	C	0.434806	-0.087007	-0.160799
C40	C	0.934806	0.412993	0.339201
C41	C	0.531751	-0.088160	-0.160777
C42	C	1.031751	0.411840	0.339223
C43	C	0.667570	-0.000057	-0.117727
C44	C	1.167570	0.499943	0.382273
C45	C	0.310614	-0.000076	-0.111452
C46	C	0.810614	0.499924	0.388548
C47	C	0.989098	-0.592869	-0.114592
C48	C	1.489098	-0.092869	0.385408
C49	C	1.058107	-0.553680	-0.046036
C50	C	1.558107	-0.053680	0.453964
C51	C	1.057927	-0.446592	-0.045784
C52	C	1.557927	0.053408	0.454216
C53	C	0.989093	-0.407278	-0.114578
C54	C	1.489093	0.092722	0.385422
C55	C	0.901736	-0.446163	-0.095498
C56	C	1.401736	0.053837	0.404502
C57	C	0.902144	-0.553284	-0.095013
C58	C	1.402144	-0.053284	0.404987
C59	C	1.006660	-0.553375	-0.202430
C60	C	1.506660	-0.053375	0.297570
C61	C	1.008643	-0.446246	-0.201842
C62	C	1.508643	0.053754	0.298158
C63	C	0.989084	-0.302390	-0.114572
C64	C	1.489084	0.197610	0.385428
C65	C	0.989101	-0.697757	-0.114596
C66	C	1.489101	-0.197757	0.385404
C67	C	1.142175	-0.000083	-0.108476
C68	C	1.642175	0.499917	0.391524
C69	C	1.235125	-0.000084	-0.110127
C70	C	1.735125	0.499916	0.389873
C71	C	0.995205	-0.000073	0.038494
C72	C	1.495205	0.499927	0.538494
C73	C	0.993553	-0.000068	0.131444
C74	C	1.493553	0.499932	0.631444
N75	N	0.989105	0.218631	-0.114605
N76	N	1.489105	0.718631	0.385395
C77	C	0.982980	-0.000072	-0.267671
C78	C	1.482980	0.499928	0.232329
C79	C	0.984631	-0.000071	-0.360621
C80	C	1.484631	0.499929	0.139379
C81	C	0.987621	-0.000071	0.469192
C82	C	1.487621	0.499929	0.969192
C83	C	0.896069	0.000281	0.421758
C84	C	1.396069	0.500281	0.921758
C85	C	0.897721	-0.000066	0.325068
C86	C	1.397721	0.499934	0.825068
C87	C	0.990564	-0.000069	0.301631
C88	C	1.490564	0.499931	0.801631
C89	C	1.035715	-0.087831	0.342718
C90	C	1.535715	0.412169	0.842718
C91	C	1.033415	-0.087904	0.439354
C92	C	1.533415	0.412096	0.939354
C93	C	1.035317	0.086861	0.439694
C94	C	1.535317	0.586861	0.939694
C95	C	1.035295	0.088021	0.342748
C96	C	1.535295	0.588021	0.842748
C97	C	0.992231	-0.000071	0.206934
C98	C	1.492231	0.499929	0.706934
C99	C	0.985956	-0.000075	0.563890
C100	C	1.485956	0.499925	1.063890
H101	H	0.577862	-0.062973	0.012285
H102	H	1.077862	0.437027	0.512285
H103	H	0.859480	0.063217	0.440283
H104	H	1.359480	0.563217	0.940283
H105	H	1.100631	-0.091888	0.471602
H106	H	1.600631	0.408112	0.971602
Cl107	Cl	1.158705	-0.593443	-0.063295
Cl108	Cl	1.658705	-0.093443	0.436705
H109	H	0.433156	0.062168	0.014855
H110	H	0.933156	0.562168	0.514855
Cl111	Cl	0.592427	0.097395	0.031703
Cl112	Cl	1.092427	0.597395	0.531703
H113	H	1.072906	-0.420833	-0.216321
H114	H	1.572906	0.079167	0.283679
Cl115	Cl	0.936070	-0.404930	-0.284299
Cl116	Cl	1.436070	0.095070	0.215701
H117	H	1.047050	-0.580610	0.018780
H118	H	1.547050	-0.080610	0.518780
H119	H	1.004348	-0.153137	0.314343
H120	H	1.504348	0.346863	0.814343
H121	H	1.068999	-0.580388	-0.220769
H122	H	1.568999	-0.080388	0.279231
H123	H	1.046707	-0.420975	0.019402
H124	H	1.546707	0.079025	0.519402
H125	H	0.416850	0.153359	-0.126002
H126	H	0.916850	0.653359	0.373998
Cl127	Cl	1.158180	-0.405997	-0.063338
Cl128	Cl	1.658180	0.094003	0.436662
Cl129	Cl	0.878249	-0.591878	0.003891
Cl130	Cl	1.378249	-0.091878	0.503891
H131	H	0.849250	-0.579209	-0.143047
H132	H	1.349250	-0.079209	0.356953
H133	H	0.885878	-0.419343	-0.032167
H134	H	1.385878	0.080657	0.467833
H135	H	0.956338	-0.578722	-0.253448
H136	H	1.456338	-0.078722	0.246552
Cl137	Cl	0.820538	-0.406848	-0.170533
Cl138	Cl	1.320538	0.093152	0.329467
H139	H	1.103000	0.093317	0.327386
H140	H	1.603000	0.593317	0.827386
Cl141	Cl	0.842922	0.097064	0.281172
Cl142	Cl	1.342922	0.597064	0.781172
H143	H	0.859636	-0.062299	0.441358
H144	H	1.359636	0.437701	0.941358
H145	H	0.861983	-0.063079	0.297210
H146	H	1.361983	0.436921	0.797210
Cl147	Cl	0.424139	-0.097584	0.034948
Cl148	Cl	0.924139	0.402416	0.534948
Cl149	Cl	0.982566	-0.189183	0.467624
Cl150	Cl	1.482566	0.310817	0.967624
Cl151	Cl	1.141025	-0.092879	0.320912
Cl152	Cl	1.641025	0.407121	0.820912
H153	H	1.005388	0.153379	0.460226
H154	H	1.505388	0.653379	0.960226
H155	H	0.402907	0.091741	-0.226142
H156	H	0.902907	0.591741	0.273858
H157	H	1.102817	0.087449	0.471454
H158	H	1.602817	0.587449	0.971454
H159	H	0.545916	0.090955	-0.229435
H160	H	1.045916	0.590955	0.270565
Cl161	Cl	0.984746	0.188275	0.300178
Cl162	Cl	1.484746	0.688275	0.800178
Cl163	Cl	0.575599	0.188529	-0.112814
Cl164	Cl	1.075599	0.688529	0.387186
H165	H	0.414267	-0.153524	-0.130861
H166	H	0.914267	0.346476	0.369139
H167	H	0.559064	-0.153082	-0.127806
H168	H	1.059064	0.346918	0.372194
Cl169	Cl	0.385770	-0.087924	-0.265013
Cl170	Cl	0.885770	0.412076	0.234987
Cl171	Cl	0.555465	-0.096343	-0.265310
Cl172	Cl	1.055465	0.403657	0.234690
