data_functionalizedCrystal
_audit_creation_method	'MofGen! by Chris Wilmer'
_symmetry_space_group_name_H-M	'P1'
_symmetry_Int_Tables_number	1
_symmetry_cell_setting	triclinic
loop_
_symmetry_equiv_pos_as_xyz
  x,y,z
_cell_length_a	15.944551
_cell_length_b	9.130313
_cell_length_c	10.654550
_cell_angle_alpha	89.995631
_cell_angle_beta	83.991834
_cell_angle_gamma	90.000967
loop_
_atom_site_label
_atom_site_type_symbol
_atom_site_fract_x
_atom_site_fract_y
_atom_site_fract_z
O1	O	1.115460	-0.121646	0.161966
O2	O	0.871026	-0.121682	0.181935
O3	O	0.998863	-0.121654	-0.010862
O4	O	0.987623	-0.121674	0.354762
O5	O	0.998855	0.121945	-0.010867
O6	O	0.871018	0.121916	0.181929
O7	O	1.115452	0.121953	0.161961
Cu8	Cu	0.993234	0.144177	0.171944
Cu9	Cu	0.993244	-0.143907	0.171951
O10	O	0.987615	0.121925	0.354757
C11	C	0.839723	0.000112	0.181103
C12	C	0.746463	0.000099	0.178618
N13	N	0.993233	0.346800	0.171939
N14	N	0.993252	-0.346529	0.171946
C15	C	0.530880	0.000134	0.053173
C16	C	0.470201	-0.119976	0.111428
C17	C	0.575711	0.000116	0.174122
C18	C	0.470215	0.120193	0.111451
C19	C	0.410773	0.000140	0.169770
C20	C	0.516261	-0.120093	0.232410
C21	C	0.516281	0.120184	0.232416
C22	C	0.455620	0.000044	0.290759
C23	C	0.670728	0.000102	0.176625
C24	C	0.315757	0.000144	0.167276
C25	C	1.146755	0.000155	0.162792
C26	C	1.240015	0.000159	0.165278
C27	C	0.998034	0.000144	-0.057652
C28	C	0.995565	0.000142	-0.197063
C29	C	1.049858	0.423464	0.086604
C30	C	1.049866	0.576801	0.086605
C31	C	0.936620	0.576796	0.257285
C32	C	0.936609	0.423461	0.257278
C33	C	1.070833	0.000152	-0.277522
C34	C	1.068508	0.000134	-0.408513
C35	C	0.915639	0.000101	-0.378572
C36	C	0.917965	0.000108	-0.247584
C37	C	0.988444	0.000123	0.401547
C38	C	0.990913	0.000116	0.540958
H39	H	0.449799	-0.221516	0.060274
C40	C	0.835165	0.000098	-0.159066
C41	C	0.815740	0.126589	-0.064903
C42	C	0.732945	0.126572	0.023615
C43	C	0.669574	0.000064	0.017971
C44	C	0.688998	-0.126436	-0.076195
C45	C	0.771793	-0.126419	-0.164714
H46	H	0.862652	0.220246	-0.060722
H47	H	0.718567	0.220216	0.093323
H48	H	0.608284	0.000052	0.083498
H49	H	0.642086	-0.220093	-0.080377
H50	H	0.786171	-0.220063	-0.234422
H51	H	1.134019	0.000176	-0.236393
C52	C	0.874318	0.339117	0.351153
C53	C	0.812070	0.423432	0.445077
C54	C	0.749780	0.339086	0.538943
C55	C	0.749737	0.170425	0.538883
C56	C	0.811988	0.086100	0.444955
C57	C	0.874278	0.170446	0.351090
H58	H	0.812099	0.548294	0.445124
H59	H	0.703698	0.401510	0.608475
H60	H	0.703626	0.107987	0.608368
H61	H	0.811958	-0.038762	0.444908
H62	H	0.920359	0.108022	0.281558
C63	C	0.442675	0.257375	0.042322
C64	C	0.509144	0.368726	-0.012805
C65	C	0.481607	0.505900	-0.081943
C66	C	0.387601	0.531722	-0.095956
C67	C	0.321126	0.420368	-0.040827
C68	C	0.348662	0.283194	0.028311
H69	H	0.578739	0.349614	-0.002433
H70	H	0.530817	0.588331	-0.122753
H71	H	0.367217	0.633266	-0.147136
H72	H	0.251531	0.439480	-0.051199
H73	H	0.299452	0.200762	0.069121
H74	H	1.129799	0.000140	-0.474019
H75	H	0.536548	-0.221748	0.283530
H76	H	0.536704	0.221728	0.283528
C77	C	0.411592	-0.000057	0.426490
C78	C	0.426523	-0.127223	0.516466
C79	C	0.382489	-0.127337	0.652192
C80	C	0.323523	-0.000285	0.697941
C81	C	0.308589	0.126891	0.607964
C82	C	0.352624	0.127005	0.472238
H83	H	0.470176	-0.221283	0.482601
H84	H	0.393544	-0.221482	0.718798
H85	H	0.290926	-0.000370	0.798413
H86	H	0.264937	0.220951	0.641829
H87	H	0.341568	0.221150	0.405631
C88	C	1.112157	0.661134	-0.007261
C89	C	1.174452	0.576805	-0.101107
C90	C	1.236745	0.661138	-0.194978
C91	C	1.236743	0.829799	-0.195003
C92	C	1.174447	0.914137	-0.101153
C93	C	1.112154	0.829804	-0.007282
H94	H	1.174455	0.451943	-0.101092
H95	H	1.282861	0.598705	-0.264452
H96	H	1.282857	0.892228	-0.264492
H97	H	1.174444	1.038999	-0.101168
H98	H	1.066038	0.892238	0.062192
H99	H	0.852460	0.000077	-0.419723
H100	H	0.890520	0.639229	0.326768
C101	C	0.575099	-0.000012	-0.082445
C102	C	0.560336	-0.127251	-0.172419
C103	C	0.604556	-0.127405	-0.308033
C104	C	0.663539	-0.000321	-0.353672
C105	C	0.678304	0.126927	-0.263697
C106	C	0.634084	0.127081	-0.128083
H107	H	0.516671	-0.221335	-0.138636
H108	H	0.593626	-0.221603	-0.374639
H109	H	0.696273	-0.000435	-0.454062
H110	H	0.721969	0.221011	-0.297480
H111	H	0.645015	0.221279	-0.061477
C112	C	1.112136	0.339135	-0.007275
C113	C	1.109898	0.360243	-0.150284
C114	C	1.172176	0.275920	-0.244170
C115	C	1.236691	0.170489	-0.195047
C116	C	1.238932	0.149376	-0.052031
C117	C	1.176654	0.233699	0.041855
H118	H	1.062138	0.438294	-0.186654
H119	H	1.170517	0.291549	-0.350040
H120	H	1.282793	0.108067	-0.264547
H121	H	1.286692	0.071325	-0.015661
H122	H	1.178313	0.218070	0.147725
