data_functionalizedCrystal
_audit_creation_method	'MofGen! by Chris Wilmer'
_symmetry_space_group_name_H-M	'P1'
_symmetry_Int_Tables_number	1
_symmetry_cell_setting	triclinic
loop_
_symmetry_equiv_pos_as_xyz
  x,y,z
_cell_length_a	23.532407
_cell_length_b	23.532407
_cell_length_c	9.616153
_cell_angle_alpha	89.993077
_cell_angle_beta	89.995831
_cell_angle_gamma	82.848712
loop_
_atom_site_label
_atom_site_type_symbol
_atom_site_fract_x
_atom_site_fract_y
_atom_site_fract_z
O1	O	0.755262	0.069133	-0.115572
O2	O	0.589398	0.079136	-0.115596
O3	O	0.677332	-0.008797	-0.115558
O4	O	0.667328	0.157066	-0.115610
O5	O	0.677320	-0.008795	0.115734
O6	O	0.589386	0.079138	0.115696
O7	O	0.755250	0.069135	0.115720
Zn8	Zn	0.672316	0.074137	0.152430
Zn9	Zn	0.672332	0.074134	-0.152306
O10	O	0.667316	0.157068	0.115681
C11	C	0.568176	0.078882	0.000047
C12	C	0.504959	0.078116	0.000039
C13	C	0.238792	0.022921	0.000094
C14	C	0.298192	0.023632	0.000094
O15	O	0.334937	-0.020153	0.000156
N16	N	0.320818	0.075909	0.000068
C17	C	0.284041	0.127477	0.000057
O18	O	0.308740	0.172007	0.000036
C19	C	0.224642	0.126765	0.000067
C20	C	0.202019	0.074485	0.000079
C21	C	0.216168	-0.029354	0.000108
C22	C	0.156772	-0.030066	0.000106
C23	C	0.119999	0.021499	0.000090
C24	C	0.142623	0.073774	0.000077
C25	C	0.187865	0.178333	0.000066
C26	C	0.128463	0.177616	0.000077
C27	C	0.105840	0.125336	0.000089
C28	C	0.046454	0.124627	0.000060
N29	N	0.023828	0.072351	0.000086
C30	C	0.060600	0.020787	0.000101
C31	C	0.408783	0.128968	0.000037
C32	C	0.468181	0.129681	0.000016
C33	C	0.482328	0.025836	0.000056
C34	C	0.422929	0.025124	0.000067
C35	C	0.386157	0.076692	0.000063
C36	C	-0.064136	0.019297	0.000096
C37	C	-0.123538	0.018590	0.000088
C38	C	-0.137680	0.122435	0.000055
C39	C	-0.078284	0.123142	0.000056
C40	C	-0.041512	0.071568	0.000081
O41	O	0.009675	0.168390	0.000003
O42	O	0.035892	-0.023737	0.000140
C43	C	0.677071	-0.030012	0.000092
C44	C	0.676305	-0.093229	0.000102
C45	C	0.723538	-0.492332	0.000033
C46	C	0.722827	-0.551733	0.000022
O47	O	0.766613	-0.588477	-0.000023
N48	N	0.670551	-0.574359	0.000016
C49	C	0.618982	-0.537581	0.000006
O50	O	0.574452	-0.562281	-0.000002
C51	C	0.619695	-0.478182	0.000006
C52	C	0.671974	-0.455559	0.000027
C53	C	0.775814	-0.469709	0.000052
C54	C	0.776525	-0.410313	0.000065
C55	C	0.724961	-0.373540	0.000059
C56	C	0.672685	-0.396163	0.000040
C57	C	0.568127	-0.441406	-0.000014
C58	C	0.568843	-0.382003	-0.000014
C59	C	0.621123	-0.359381	0.000007
C60	C	0.621832	-0.299994	0.000048
N61	N	0.674109	-0.277368	0.000054
C62	C	0.725673	-0.314141	0.000060
C63	C	0.617491	-0.662324	0.000002
C64	C	0.616778	-0.721722	0.000011
C65	C	0.720623	-0.735869	0.000025
C66	C	0.721335	-0.676470	0.000025
C67	C	0.669767	-0.639698	0.000008
C68	C	0.727163	-0.189404	0.000089
C69	C	0.727869	-0.130002	0.000108
C70	C	0.624025	-0.115860	0.000087
C71	C	0.623318	-0.175257	0.000075
C72	C	0.674891	-0.212028	0.000071
O73	O	0.578069	-0.263215	0.000087
O74	O	0.770196	-0.289433	0.000050
C75	C	0.776472	0.069389	0.000073
C76	C	0.839689	0.070155	0.000072
C77	C	0.667577	0.178283	0.000029
C78	C	0.668343	0.241500	0.000009
N79	N	0.672309	0.074138	0.360405
N80	N	0.672343	0.074128	-0.360281
C81	C	0.625132	0.121023	0.580754
C82	C	0.625232	0.121195	0.419587
C83	C	0.731662	0.086782	0.418858
C84	C	0.731404	0.087113	0.580075
C85	C	0.660730	0.014449	0.580333
C86	C	0.659357	0.014857	0.419106
H87	H	0.138359	-0.072637	0.000121
H88	H	0.741689	0.130626	0.617651
H89	H	0.525555	-0.459814	-0.000039
O90	O	-0.147938	-0.037800	0.000103
H91	H	-0.174669	-0.040604	0.094370
H92	H	0.632409	0.165068	0.621240
O93	O	0.369126	0.184594	0.000012
H94	H	0.341728	0.186763	0.094292
H95	H	-0.034204	-0.022699	0.000115
H96	H	0.819097	-0.391900	0.000076
H97	H	0.098525	0.219610	0.000081
O98	O	0.566488	0.111286	0.632153
H99	H	0.547419	0.149305	0.691894
H100	H	0.695163	-0.020445	0.618464
O101	O	-0.177351	0.178047	0.000062
H102	H	-0.204757	0.180206	-0.094195
H103	H	0.769159	-0.219337	0.000081
O104	O	0.779289	0.042729	0.368075
H105	H	0.801024	0.020225	0.458578
O106	O	0.212257	0.234720	0.000088
H107	H	0.176699	0.270450	0.000108
O108	O	0.492575	0.186070	-0.000016
H109	H	0.540057	0.177909	-0.000024
O110	O	-0.053877	0.179527	0.000038
H111	H	-0.089430	0.215262	0.000033
H112	H	0.246104	-0.071347	0.000125
H113	H	0.817806	-0.499644	0.000051
O114	O	0.398529	-0.031262	0.000103
H115	H	0.434085	-0.066995	0.000123
H116	H	0.615699	0.005254	0.380903
O117	O	0.784258	-0.105601	0.000109
H118	H	0.819993	-0.141154	0.000090
H119	H	0.742198	0.129799	0.378455
O120	O	0.777721	-0.652070	0.000022
H121	H	0.813454	-0.687625	0.000014
H122	H	0.512280	-0.016150	0.000069
H123	H	0.581103	0.113711	0.380068
H124	H	0.618412	0.002207	0.621068
O125	O	0.568413	-0.076189	0.000083
H126	H	0.531937	-0.101895	0.000079
O127	O	0.560389	-0.746115	0.000007
H128	H	0.557572	-0.772840	0.094280
H129	H	0.762610	-0.765821	0.000024
O130	O	0.561868	-0.622662	0.000020
H131	H	0.525402	-0.648380	0.000033
O132	O	0.635007	0.179866	0.368445
H133	H	0.639687	0.208225	0.458866
O134	O	0.779317	0.043575	0.631754
H135	H	0.772717	0.000440	0.593105
H136	H	0.526850	-0.352065	-0.000030
H137	H	0.580747	-0.193677	0.000097
O138	O	0.701983	-0.033502	0.365792
H139	H	0.733207	-0.015961	0.296317
