data_functionalizedCrystal
_audit_creation_method	'MofGen! by Chris Wilmer'
_symmetry_space_group_name_H-M	'P1'
_symmetry_Int_Tables_number	1
_symmetry_cell_setting	triclinic
loop_
_symmetry_equiv_pos_as_xyz
  x,y,z
_cell_length_a	16.974800
_cell_length_b	17.699083
_cell_length_c	16.176319
_cell_angle_alpha	89.994467
_cell_angle_beta	86.346913
_cell_angle_gamma	83.336669
loop_
_atom_site_label
_atom_site_type_symbol
_atom_site_fract_x
_atom_site_fract_y
_atom_site_fract_z
O1	O	-1.048963	-0.096411	0.001457
O2	O	-0.715630	0.236922	0.334791
O3	O	-0.382297	0.570255	0.668124
O4	O	-0.818733	-0.108707	-0.013953
O5	O	-0.485400	0.224626	0.319380
O6	O	-0.152066	0.557959	0.652713
O7	O	-0.940353	0.007625	-0.005805
O8	O	-0.607019	0.340959	0.327528
O9	O	-0.273686	0.674292	0.660861
O10	O	-0.927343	-0.212744	-0.006691
O11	O	-0.594010	0.120589	0.326643
O12	O	-0.260677	0.453922	0.659976
O13	O	-0.940341	0.007604	0.131687
O14	O	-0.607008	0.340938	0.465020
O15	O	-0.273674	0.674271	0.798354
O16	O	-0.818721	-0.108729	0.123539
O17	O	-0.485388	0.224605	0.456872
O18	O	-0.152055	0.557938	0.790206
O19	O	-1.048951	-0.096432	0.138950
O20	O	-0.715618	0.236901	0.472283
O21	O	-0.382285	0.570234	0.805617
Cu22	Cu	-0.933835	-0.102582	0.143799
Cu23	Cu	-0.600502	0.230751	0.477132
Cu24	Cu	-0.267169	0.564084	0.810465
Cu25	Cu	-0.933849	-0.102558	-0.018802
Cu26	Cu	-0.600516	0.230776	0.314531
Cu27	Cu	-0.267182	0.564109	0.647865
O28	O	-0.927332	-0.212765	0.130802
O29	O	-0.593998	0.120568	0.464135
O30	O	-0.260665	0.453901	0.797468
C31	C	-0.789270	-0.108252	0.052821
C32	C	-0.455936	0.225082	0.386154
C33	C	-0.122603	0.558415	0.719488
C34	C	-0.701495	-0.106854	0.046946
C35	C	-0.368162	0.226480	0.380279
C36	C	-0.034829	0.559813	0.713613
C37	C	-0.939881	0.035812	0.062910
C38	C	-0.606547	0.369145	0.396243
C39	C	-0.273214	0.702479	0.729576
C40	C	-0.938482	0.119831	0.062817
C41	C	-0.605149	0.453164	0.396150
C42	C	-0.271816	0.786498	0.729483
C43	C	-1.078415	-0.096888	0.072174
C44	C	-0.745082	0.236445	0.405507
C45	C	-0.411748	0.569779	0.738840
C46	C	-1.166189	-0.098286	0.078043
C47	C	-0.832856	0.235047	0.411377
C48	C	-0.499522	0.568380	0.744710
C49	C	-0.660257	-0.106206	0.119135
C50	C	-0.326924	0.227127	0.452468
C51	C	0.006409	0.560460	0.785802
C52	C	-0.577786	-0.104880	0.113617
C53	C	-0.244453	0.228453	0.446950
C54	C	0.088881	0.561786	0.780284
C55	C	-0.536553	-0.104207	0.035909
C56	C	-0.203220	0.229126	0.369243
C57	C	0.130113	0.562459	0.702576
C58	C	-0.577798	-0.104852	-0.036285
C59	C	-0.244464	0.228481	0.297048
C60	C	0.088869	0.561814	0.630382
C61	C	-0.660268	-0.106173	-0.030766
C62	C	-0.326935	0.227161	0.302567
C63	C	0.006399	0.560494	0.635901
C64	C	-0.289904	-0.100252	0.011368
C65	C	0.043430	0.233081	0.344701
C66	C	0.376763	0.566415	0.678034
C67	C	-0.207427	-0.098934	0.005854
C68	C	0.125906	0.234400	0.339188
C69	C	0.459240	0.567733	0.672521
C70	C	-0.207421	-0.098960	0.155757
C71	C	0.125912	0.234373	0.489090
C72	C	0.459245	0.567706	0.822424
C73	C	-0.289893	-0.100285	0.161269
C74	C	0.043440	0.233048	0.494602
C75	C	0.376774	0.566381	0.827935
C76	C	-0.331130	-0.100926	0.089074
C77	C	0.002203	0.232407	0.422408
C78	C	0.335536	0.565740	0.755741
N79	N	-0.452254	-0.102854	0.030267
N80	N	-0.118921	0.230479	0.363601
N81	N	0.214413	0.563812	0.696934
N82	N	-0.415429	-0.102274	0.094717
N83	N	-0.082096	0.231060	0.428051
N84	N	0.251238	0.564393	0.761384
C85	C	-0.927804	-0.240952	0.062085
C86	C	-0.594470	0.092381	0.395418
C87	C	-0.261137	0.425715	0.728751
C88	C	-0.929202	-0.324971	0.062173
C89	C	-0.595869	0.008362	0.395506
C90	C	-0.262536	0.341696	0.728839
N91	N	-0.933831	-0.102599	0.258164
N92	N	-0.600498	0.230734	0.591497
N93	N	-0.267165	0.564067	0.924830
C94	C	-1.009870	0.168404	0.067596
C95	C	-0.676537	0.501737	0.400930
C96	C	-0.343204	0.835070	0.734263
C97	C	-1.008552	0.247348	0.067501
C98	C	-0.675218	0.580681	0.400834
C99	C	-0.341885	0.914015	0.734167
C100	C	-0.935844	0.277718	0.062631
C101	C	-0.602511	0.611051	0.395965
C102	C	-0.269177	0.944385	0.729298
C103	C	-0.864450	0.229139	0.057849
C104	C	-0.531117	0.562473	0.391182
C105	C	-0.197784	0.895806	0.724515
C106	C	-0.865770	0.150197	0.057938
C107	C	-0.532436	0.483530	0.391272
C108	C	-0.199103	0.816863	0.724605
C109	C	-0.859127	0.547506	0.057486
C110	C	-0.525794	0.880839	0.390819
C111	C	-0.192461	1.214173	0.724152
C112	C	-0.857813	0.626455	0.057399
C113	C	-0.524480	0.959788	0.390732
C114	C	-0.191146	1.293122	0.724066
C115	C	-1.001909	0.644657	0.067048
C116	C	-0.668576	0.977991	0.400381
C117	C	-0.335242	1.311324	0.733715
C118	C	-1.003229	0.565715	0.067138
C119	C	-0.669895	0.899048	0.400471
C120	C	-0.336562	1.232381	0.733804
C121	C	-0.931835	0.517143	0.062351
C122	C	-0.598502	0.850476	0.395684
C123	C	-0.265169	1.183809	0.729017
C124	C	-0.933266	0.431543	0.062453
C125	C	-0.599933	0.764876	0.395786
C126	C	-0.266599	1.098209	0.729120
C127	C	-0.934412	0.363317	0.062535
C128	C	-0.601079	0.696650	0.395868
C129	C	-0.267746	1.029983	0.729202
N130	N	-0.933859	-0.102534	-0.133167
N131	N	-0.600526	0.230799	0.200167
N132	N	-0.267193	0.564132	0.533500
C133	C	-0.885993	-0.056661	0.820355
C134	C	-0.552660	0.276672	1.153688
C135	C	-0.219327	0.610006	1.487021
C136	C	-0.885992	-0.056667	0.733807
C137	C	-0.552658	0.276666	1.067141
C138	C	-0.219325	0.610000	1.400474
C139	C	-0.933852	-0.102551	0.693740
C140	C	-0.600519	0.230782	1.027074
C141	C	-0.267186	0.564116	1.360407
C142	C	-0.981724	-0.148426	0.740226
C143	C	-0.648391	0.184907	1.073559
C144	C	-0.315057	0.518240	1.406892
C145	C	-0.981729	-0.148416	0.826771
C146	C	-0.648396	0.184918	1.160105
C147	C	-0.315063	0.518251	1.493438
C148	C	-0.981704	-0.148469	0.391196
C149	C	-0.648371	0.184864	0.724529
C150	C	-0.315038	0.518198	1.057863
C151	C	-0.981694	-0.148478	0.304644
C152	C	-0.648360	0.184856	0.637977
C153	C	-0.315027	0.518189	0.971310
C154	C	-0.885967	-0.056720	0.298232
C155	C	-0.552634	0.276613	0.631565
C156	C	-0.219300	0.609947	0.964899
C157	C	-0.885972	-0.056710	0.384778
C158	C	-0.552639	0.276624	0.718111
C159	C	-0.219306	0.609957	1.051444
C160	C	-0.933846	-0.102582	0.431256
C161	C	-0.600513	0.230752	0.764589
C162	C	-0.267180	0.564085	1.097922
C163	C	-0.933849	-0.102573	0.525100
C164	C	-0.600515	0.230760	0.858433
C165	C	-0.267182	0.564093	1.191767
C166	C	-0.933846	-0.102564	0.599897
C167	C	-0.600513	0.230770	0.933231
C168	C	-0.267180	0.564103	1.266564
H169	H	-0.693822	-0.106761	0.182413
H170	H	-0.360489	0.226573	0.515746
H171	H	-0.027156	0.559906	0.849079
Cl172	Cl	-1.041910	-0.206084	0.885203
Cl173	Cl	-0.708576	0.127249	1.218536
Cl174	Cl	-0.375243	0.460582	1.551869
H175	H	-0.798602	0.651179	0.053435
H176	H	-0.465269	0.984512	0.386768
H177	H	-0.131936	1.317845	0.720102
H178	H	-0.544215	-0.104341	0.172401
H179	H	-0.210882	0.228993	0.505734
H180	H	0.122451	0.562326	0.839068
H181	H	-1.069077	0.143683	0.071566
H182	H	-0.735744	0.477016	0.404900
H183	H	-0.402411	0.810350	0.738233
Cl184	Cl	-1.094636	0.527540	0.073257
Cl185	Cl	-0.761303	0.860873	0.406590
Cl186	Cl	-0.427969	1.194206	0.739923
Cl187	Cl	-0.341722	-0.101137	0.258962
Cl188	Cl	-0.008388	0.232197	0.592296
Cl189	Cl	0.324945	0.565530	0.925629
H190	H	-0.173857	-0.098388	-0.057428
H191	H	0.159476	0.234946	0.275906
H192	H	0.492809	0.568279	0.609239
Cl193	Cl	-0.155576	-0.098151	0.246509
Cl194	Cl	0.177757	0.235183	0.579843
Cl195	Cl	0.511091	0.568516	0.913176
Cl196	Cl	-1.091662	0.705724	0.073062
Cl197	Cl	-0.758329	1.039057	0.406396
Cl198	Cl	-0.424996	1.372390	0.739729
Cl199	Cl	-0.341734	-0.101059	-0.079392
Cl200	Cl	-0.008401	0.232274	0.253941
Cl201	Cl	0.324933	0.565608	0.587275
H202	H	-0.800994	0.507968	0.053588
H203	H	-0.467661	0.841301	0.386922
H204	H	-0.134328	1.174634	0.720255
H205	H	-1.020670	-0.185844	0.272024
H206	H	-0.687337	0.147489	0.605357
H207	H	-0.354003	0.480823	0.938691
H208	H	-0.544220	-0.104299	-0.099556
H209	H	-0.210887	0.229034	0.233777
H210	H	0.122447	0.562368	0.567111
H211	H	-0.805250	0.253873	0.053879
H212	H	-0.471917	0.587206	0.387212
H213	H	-0.138584	0.920540	0.720545
H214	H	-0.807638	0.110649	0.054046
H215	H	-0.474305	0.443982	0.387380
H216	H	-0.140971	0.777316	0.720713
H217	H	-0.693843	-0.106701	-0.089550
H218	H	-0.360510	0.226632	0.243783
H219	H	-0.027176	0.559965	0.577116
H220	H	-0.847015	-0.019301	0.852970
H221	H	-0.513682	0.314032	1.186304
H222	H	-0.180349	0.647366	1.519637
H223	H	-1.066683	0.286893	0.071395
H224	H	-0.733350	0.620226	0.404728
H225	H	-0.400017	0.953560	0.738061
Cl226	Cl	-0.825789	0.000981	0.675379
Cl227	Cl	-0.492456	0.334315	1.008712
Cl228	Cl	-0.159123	0.667648	1.342045
Cl229	Cl	-0.825799	0.000972	0.435143
Cl230	Cl	-0.492465	0.334306	0.768476
Cl231	Cl	-0.159132	0.667639	1.101809
Cl232	Cl	-0.825784	0.000952	0.239797
Cl233	Cl	-0.492451	0.334285	0.573131
Cl234	Cl	-0.159118	0.667619	0.906464
H235	H	-1.020686	-0.185821	0.429028
H236	H	-0.687353	0.147512	0.762361
H237	H	-0.354019	0.480845	1.095695
Cl238	Cl	-1.041896	-0.206106	0.689856
Cl239	Cl	-0.708563	0.127228	1.023189
Cl240	Cl	-0.375229	0.460561	1.356522
