data_functionalizedCrystal
_audit_creation_method	'MofGen! by Chris Wilmer'
_symmetry_space_group_name_H-M	'P1'
_symmetry_Int_Tables_number	1
_symmetry_cell_setting	triclinic
loop_
_symmetry_equiv_pos_as_xyz
  x,y,z
_cell_length_a	27.731994
_cell_length_b	27.731996
_cell_length_c	12.996460
_cell_angle_alpha	89.987889
_cell_angle_beta	90.000496
_cell_angle_gamma	82.620961
loop_
_atom_site_label
_atom_site_type_symbol
_atom_site_fract_x
_atom_site_fract_y
_atom_site_fract_z
O1	O	0.640934	0.057395	-0.085433
O2	O	0.500135	0.066168	-0.085469
O3	O	0.574921	-0.008618	-0.085428
O4	O	0.566149	0.132181	-0.085475
O5	O	0.574913	-0.008622	0.085706
O6	O	0.500128	0.066164	0.085664
O7	O	0.640927	0.057391	0.085701
Cu8	Cu	0.570526	0.061777	0.101308
Cu9	Cu	0.570536	0.061782	-0.101077
O10	O	0.566141	0.132177	0.085659
C11	C	0.482124	0.065986	0.000093
C12	C	0.428468	0.065443	0.000080
C13	C	0.095746	0.062025	0.093406
C14	C	-0.105912	0.059964	0.093419
O15	O	-0.131988	0.059674	0.172754
N16	N	-0.131122	0.059710	0.000134
C17	C	-0.105915	0.059968	-0.093161
O18	O	-0.131985	0.059700	-0.172505
C19	C	0.095742	0.062026	-0.093172
C20	C	0.120950	0.062285	0.000119
C21	C	0.120953	0.062283	0.186690
C22	C	0.171364	0.062801	0.186686
C23	C	0.196568	0.063061	0.093398
C24	C	0.171361	0.062803	0.000115
C25	C	0.120949	0.062281	-0.186466
C26	C	0.171367	0.062795	-0.186460
C27	C	0.196574	0.063053	-0.093169
C28	C	0.246975	0.063581	-0.093177
N29	N	0.272186	0.063835	0.000108
C30	C	0.246982	0.063575	0.093396
C31	C	-0.211788	0.058889	-0.093148
C32	C	-0.262202	0.058375	-0.093146
C33	C	-0.262196	0.058369	0.093434
C34	C	-0.211781	0.058887	0.093431
C35	C	-0.186578	0.059142	0.000137
C36	C	0.352849	0.064663	0.093380
C37	C	0.403264	0.065183	0.093368
C38	C	0.403253	0.065186	-0.093211
C39	C	0.352842	0.064669	-0.093200
C40	C	0.327642	0.064406	0.000104
O41	O	0.273083	0.063865	-0.172470
O42	O	0.273062	0.063833	0.172728
C43	C	0.045335	0.061507	0.093410
C44	C	0.020128	0.061249	0.000127
C45	C	0.045331	0.061509	-0.093160
C46	C	-0.030287	0.060735	0.000130
C47	C	-0.055490	0.060475	0.093417
C48	C	-0.030280	0.060729	0.186702
C49	C	0.020131	0.061247	0.186698
C50	C	0.020121	0.061255	-0.186445
C51	C	-0.030291	0.060738	-0.186434
C52	C	-0.055494	0.060478	-0.093146
C53	C	0.574737	-0.026628	0.000142
C54	C	0.574194	-0.080284	0.000153
C55	C	0.570783	-0.412997	-0.093183
C56	C	0.568722	-0.614655	-0.093202
O57	O	0.568439	-0.640724	-0.172538
N58	N	0.568462	-0.639874	0.000082
C59	C	0.568714	-0.614676	0.093377
O60	O	0.568440	-0.640753	0.172721
C61	C	0.570772	-0.413018	0.093395
C62	C	0.571037	-0.387802	0.000105
C63	C	0.571048	-0.387781	-0.186466
C64	C	0.571566	-0.337370	-0.186460
C65	C	0.571819	-0.312175	-0.093172
C66	C	0.571555	-0.337391	0.000110
C67	C	0.571020	-0.387820	0.186689
C68	C	0.571533	-0.337402	0.186685
C69	C	0.571798	-0.312186	0.093395
C70	C	0.572326	-0.261785	0.093404
N71	N	0.572586	-0.236566	0.000120
C72	C	0.572333	-0.261761	-0.093168
C73	C	0.567635	-0.720549	0.093362
C74	C	0.567121	-0.770963	0.093358
C75	C	0.567129	-0.770939	-0.093222
C76	C	0.567646	-0.720524	-0.093217
C77	C	0.567895	-0.695329	0.000078
C78	C	0.573421	-0.155894	-0.093149
C79	C	0.573941	-0.105479	-0.093135
C80	C	0.573931	-0.105507	0.093444
C81	C	0.573413	-0.155918	0.093431
C82	C	0.573157	-0.181110	0.000126
O83	O	0.572604	-0.235685	0.172699
O84	O	0.572596	-0.235674	-0.172500
C85	C	0.570266	-0.463408	-0.093189
C86	C	0.570001	-0.488624	0.000094
C87	C	0.570254	-0.463429	0.093382
C88	C	0.569487	-0.539039	0.000089
C89	C	0.569234	-0.564234	-0.093199
C90	C	0.569494	-0.539014	-0.186483
C91	C	0.570012	-0.488603	-0.186477
C92	C	0.569994	-0.488649	0.186666
C93	C	0.569477	-0.539060	0.186653
C94	C	0.569223	-0.564255	0.093364
C95	C	0.658938	0.057573	0.000136
C96	C	0.712594	0.058115	0.000142
C97	C	0.566325	0.150186	0.000086
C98	C	0.566868	0.203842	0.000069
N99	N	0.570524	0.061773	0.243655
N100	N	0.570542	0.061781	-0.243424
C101	C	0.570535	0.061782	0.663470
C102	C	0.570530	0.061781	0.546665
C103	C	0.570529	0.061778	0.453566
C104	C	0.570524	0.061776	0.336754
H105	H	0.191885	0.063003	-0.262433
H106	H	-0.050811	0.060531	-0.262408
C107	C	0.567811	-0.693162	0.194632
C108	C	0.526497	-0.658468	0.200108
C109	C	0.526642	-0.633238	0.293390
H110	H	0.596179	-0.677357	0.198624
H111	H	0.567558	-0.715388	0.250208
H112	H	0.526754	-0.636244	0.144548
H113	H	0.498122	-0.674260	0.196134
H114	H	0.526389	-0.655465	0.348965
H115	H	0.555012	-0.617436	0.297373
H116	H	0.498609	-0.609698	0.297122
C117	C	0.570851	-0.415203	-0.287685
C118	C	0.612155	-0.449911	-0.293120
C119	C	0.611991	-0.475181	-0.386348
H120	H	0.571106	-0.393017	-0.343317
H121	H	0.542466	-0.430996	-0.291597
H122	H	0.640533	-0.434118	-0.289218
H123	H	0.611909	-0.472107	-0.237510
H124	H	0.583606	-0.490974	-0.390260
H125	H	0.612245	-0.452992	-0.441973
H126	H	0.640013	-0.498736	-0.390044
C127	C	0.569280	-0.566476	0.287912
C128	C	0.610587	-0.601180	0.293411
C129	C	0.610417	-0.626439	0.386675
H130	H	0.540907	-0.582275	0.291862
H131	H	0.569528	-0.544268	0.343503
H132	H	0.610335	-0.623385	0.237835
H133	H	0.638967	-0.585394	0.289479
H134	H	0.610665	-0.604231	0.442266
H135	H	0.582042	-0.642235	0.390617
H136	H	0.638445	-0.649986	0.390423
H137	H	0.332316	0.064466	-0.169165
C138	C	0.569193	-0.566458	-0.287662
C139	C	0.568670	-0.616003	-0.267684
C140	C	0.568383	-0.641300	-0.360858
H141	H	0.597470	-0.562159	-0.326067
H142	H	0.541066	-0.554315	-0.326007
H143	H	0.596794	-0.628143	-0.229356
H144	H	0.540395	-0.620317	-0.229294
H145	H	0.540257	-0.629156	-0.399203
H146	H	0.596660	-0.636996	-0.399257
H147	H	0.568024	-0.674918	-0.347317
C148	C	-0.289619	0.058024	-0.194358
C149	C	-0.312812	0.016131	-0.199788
C150	C	-0.338075	0.015792	-0.293006
H151	H	-0.267436	0.058226	-0.249999
H152	H	-0.313216	0.086009	-0.198259
H153	H	-0.289218	-0.011846	-0.195897
H154	H	-0.335002	0.015920	-0.144169
H155	H	-0.361672	0.043776	-0.296907
H156	H	-0.315889	0.015995	-0.348639
H157	H	-0.353818	-0.012630	-0.296698
H158	H	0.332336	0.064453	0.169357
H159	H	0.040636	0.061465	-0.262413
H160	H	0.100438	0.062071	0.262660
C161	C	0.574101	-0.078102	0.194687
C162	C	0.532784	-0.043409	0.200106
C163	C	0.532915	-0.018155	0.293360
H164	H	0.602467	-0.062294	0.198675
H165	H	0.573842	-0.100314	0.250287
H166	H	0.533047	-0.021199	0.144522
H167	H	0.504411	-0.059204	0.196137
H168	H	0.532656	-0.040367	0.348960
H169	H	0.561283	-0.002350	0.297340
H170	H	0.504880	0.005384	0.297053
C171	C	-0.289491	0.058008	0.194798
C172	C	-0.271458	0.016530	0.251092
C173	C	-0.296587	0.016179	0.344473
H174	H	-0.323129	0.057639	0.181579
H175	H	-0.285123	0.086274	0.233186
H176	H	-0.275831	-0.011729	0.212712
H177	H	-0.237823	0.016890	0.264338
H178	H	-0.292219	0.044445	0.382862
H179	H	-0.330225	0.015811	0.331244
H180	H	-0.284353	-0.011961	0.382684
C181	C	0.570299	-0.461390	0.288065
C182	C	0.569974	-0.494274	0.369747
C183	C	0.570266	-0.469185	0.463177
H184	H	0.542311	-0.437815	0.292101
H185	H	0.598714	-0.445646	0.292006
H186	H	0.541562	-0.510010	0.365809
H187	H	0.597961	-0.517849	0.365746
H188	H	0.598682	-0.453440	0.467118
H189	H	0.542278	-0.445611	0.467202
H190	H	0.570051	-0.491493	0.518610
H191	H	0.573209	-0.176399	-0.169127
H192	H	0.423786	0.065396	0.169340
H193	H	0.423783	0.065400	-0.169164
H194	H	0.040651	0.061458	0.262665
H195	H	-0.050810	0.060520	0.262660
H196	H	0.191884	0.063009	0.262653
C197	C	-0.184342	0.059087	0.194642
C198	C	-0.149633	0.017783	0.200100
C199	C	-0.124346	0.017953	0.293318
H200	H	-0.206518	0.058835	0.250283
H201	H	-0.168548	0.087472	0.198524
H202	H	-0.165427	-0.010595	0.196228
H203	H	-0.127447	0.018026	0.144481
H204	H	-0.108552	0.046338	0.297200
H205	H	-0.146526	0.017703	0.348952
H206	H	-0.100791	-0.010069	0.297030
H207	H	0.571780	-0.316843	-0.262427
C208	C	0.571822	-0.310139	0.288089
C209	C	0.571489	-0.343018	0.369777
C210	C	0.571759	-0.317922	0.463202
H211	H	0.543829	-0.286568	0.292098
H212	H	0.600233	-0.294388	0.292049
H213	H	0.543081	-0.358760	0.365819
H214	H	0.599479	-0.366589	0.365802
H215	H	0.600170	-0.302171	0.467162
H216	H	0.543766	-0.294352	0.467201
H217	H	0.571537	-0.340227	0.518639
H218	H	-0.191272	0.059097	-0.169124
H219	H	0.574158	-0.084950	-0.169107
H220	H	0.100434	0.062070	-0.262433
C221	C	0.566749	-0.798310	-0.194477
C222	C	0.524842	-0.821481	-0.199929
C223	C	0.524469	-0.846696	-0.293189
H224	H	0.594714	-0.821917	-0.198452
H225	H	0.566949	-0.776087	-0.250072
H226	H	0.524647	-0.843703	-0.144350
H227	H	0.496871	-0.797885	-0.195972
H228	H	0.524669	-0.824472	-0.348784
H229	H	0.552435	-0.870301	-0.297156
H230	H	0.496034	-0.862417	-0.296905
C231	C	0.566815	-0.798247	0.194753
C232	C	0.567134	-0.765384	0.276444
C233	C	0.566842	-0.790497	0.369867
H234	H	0.594807	-0.821820	0.198791
H235	H	0.538403	-0.813997	0.198680
H236	H	0.595543	-0.749642	0.272519
H237	H	0.539145	-0.741811	0.272441
H238	H	0.538430	-0.806247	0.373795
H239	H	0.594834	-0.814069	0.373894
H240	H	0.567054	-0.768203	0.425306
H241	H	0.570805	-0.408342	0.262656
H242	H	0.567861	-0.699996	-0.169182
H243	H	0.573202	-0.176451	0.169395
H244	H	0.570228	-0.468077	-0.262444
