data_functionalizedCrystal
_audit_creation_method	'MofGen! by Chris Wilmer'
_symmetry_space_group_name_H-M	'P1'
_symmetry_Int_Tables_number	1
_symmetry_cell_setting	triclinic
loop_
_symmetry_equiv_pos_as_xyz
  x,y,z
_cell_length_a	23.096457
_cell_length_b	23.096457
_cell_length_c	15.698487
_cell_angle_alpha	89.999579
_cell_angle_beta	60.001570
_cell_angle_gamma	60.000185
loop_
_atom_site_label
_atom_site_type_symbol
_atom_site_fract_x
_atom_site_fract_y
_atom_site_fract_z
Zr1	Zr	0.633740	0.557778	-0.111780
O2	O	0.754527	0.465330	-0.247785
O3	O	0.512954	0.586117	-0.070092
O4	O	0.633743	0.586116	-0.247799
O5	O	0.633736	0.465334	0.070107
O6	O	0.633745	0.681396	-0.247804
O7	O	0.633738	0.465331	-0.070078
O8	O	0.417676	0.681398	0.070081
O9	O	0.849805	0.465332	-0.247779
O10	O	0.562636	0.669312	-0.052310
O11	O	0.562634	0.598207	0.052312
O12	O	0.704847	0.598206	-0.156916
O13	O	0.704844	0.527102	-0.052294
Zr14	Zr	0.633739	0.709744	0.111790
Zr15	Zr	0.633743	0.709739	-0.111788
Zr16	Zr	0.633737	0.557783	0.111798
Zr17	Zr	0.785698	0.557782	-0.111770
Zr18	Zr	0.481782	0.709741	0.111781
O19	O	0.754525	0.681406	0.070102
O20	O	0.754531	0.681399	-0.247797
O21	O	0.754522	0.465337	0.070114
O22	O	0.512953	0.802193	0.247796
O23	O	0.512958	0.802186	-0.070104
O24	O	0.512949	0.586124	0.247807
O25	O	0.633744	0.802189	-0.070096
O26	O	0.633737	0.681407	0.247810
O27	O	0.633735	0.586127	0.247815
O28	O	0.633742	0.802192	0.070088
O29	O	0.849807	0.586121	-0.247786
O30	O	0.417673	0.681402	0.247796
O31	O	0.417675	0.802190	0.247790
O32	O	0.417678	0.802186	0.070075
O33	O	0.849802	0.465336	-0.070065
O34	O	0.849804	0.586125	-0.070071
O35	O	0.562633	0.669316	0.156926
O36	O	0.562636	0.740421	0.052304
O37	O	0.704846	0.669315	-0.052301
O38	O	0.704843	0.598211	0.052321
C39	C	0.443664	0.633757	-0.000007
C40	C	0.379154	0.633755	-0.000011
C41	C	0.348855	0.670866	-0.054626
C42	C	0.288233	0.670873	-0.054617
C43	C	0.257924	0.633755	-0.000008
C44	C	0.288227	0.596642	0.054620
C45	C	0.348843	0.596642	0.054618
N46	N	0.195527	0.573351	-0.007577
N47	N	0.137946	0.573352	-0.007581
C48	C	0.075292	0.633754	0.000002
N49	N	0.072401	0.694154	0.007569
N50	N	0.129989	0.694151	0.007568
C51	C	0.192196	0.633751	0.000001
C52	C	-0.020742	0.670876	-0.054607
C53	C	-0.081369	0.670885	-0.054591
C54	C	-0.081368	0.596648	0.054639
C55	C	-0.020747	0.596646	0.054630
C56	C	0.009564	0.633758	0.000002
C57	C	0.633737	0.443681	0.000015
C58	C	0.633736	0.379170	0.000019
C59	C	0.559505	0.385980	0.054612
C60	C	0.559504	0.325365	0.054616
C61	C	0.633737	0.257939	0.000008
C62	C	0.707977	0.251131	-0.054588
C63	C	0.707976	0.311746	-0.054582
N64	N	0.688994	0.135143	-0.088870
N65	N	0.688990	0.077563	-0.088873
C66	C	0.633745	0.075306	-0.000011
N67	N	0.578492	0.132810	0.088853
N68	N	0.578493	0.190396	0.088855
C69	C	0.633747	0.192208	-0.000004
C70	C	0.559508	0.016393	0.054592
C71	C	0.559510	-0.044225	0.054599
C72	C	0.707985	-0.118459	-0.054615
C73	C	0.707981	-0.057841	-0.054612
C74	C	0.633741	0.009583	-0.000011
C75	C	0.823815	0.633766	0.000017
C76	C	0.888325	0.633768	0.000021
C77	C	0.633744	0.633755	-0.279657
C78	C	0.633746	0.633753	-0.374572
C79	C	0.633743	0.823842	-0.000005
C80	C	0.633744	0.888353	-0.000008
C81	C	0.633732	0.633769	-0.548336
C82	C	0.633736	0.633762	-0.451639
C83	C	0.633735	0.633768	0.279667
C84	C	0.633734	0.633770	0.374582
C85	C	0.443668	0.823837	-0.000017
C86	C	0.379159	0.888347	-0.000024
C87	C	0.443660	0.633763	0.279655
C88	C	0.379148	0.633763	0.374566
C89	C	0.443663	0.823843	0.279645
C90	C	0.379153	0.888355	0.374553
C91	C	0.823817	0.443680	-0.279635
C92	C	0.888327	0.379168	-0.374542
C93	C	0.823812	0.443686	0.000027
C94	C	0.888321	0.379176	0.000035
C95	C	0.823820	0.633760	-0.279645
C96	C	0.888331	0.633759	-0.374556
C97	C	0.348865	0.881523	-0.054645
C98	C	0.288261	0.942131	-0.054673
C99	C	0.257947	1.009562	-0.000073
C100	C	0.288247	1.016384	0.054549
C101	C	0.348854	0.955777	0.054570
C102	C	0.348853	0.670882	0.473754
C103	C	0.288246	0.670879	0.562942
C104	C	0.257932	0.633762	0.552939
C105	C	0.288233	0.596640	0.453740
C106	C	0.348843	0.596638	0.364555
C107	C	0.348859	0.955773	0.364510
C108	C	0.288254	1.016394	0.453677
C109	C	0.257938	1.009597	0.552885
C110	C	0.288237	0.942172	0.562925
C111	C	0.348846	0.881552	0.473760
C112	C	0.918628	0.311750	-0.364500
C113	C	0.979252	0.251128	-0.453667
C114	C	1.009571	0.257926	-0.552875
C115	C	0.979268	0.325351	-0.562915
C116	C	0.918649	0.385971	-0.473749
C117	C	0.918621	0.386000	0.054646
C118	C	0.979242	0.325392	0.054649
C119	C	1.009558	0.257960	0.000047
C120	C	0.979255	0.251138	-0.054571
C121	C	0.918640	0.311746	-0.054580
C122	C	0.918626	0.670884	-0.364519
C123	C	0.979234	0.670897	-0.453689
C124	C	1.009549	0.633782	-0.552895
C125	C	0.979248	0.596656	-0.562930
C126	C	0.918637	0.596648	-0.473760
H127	H	0.263558	0.701094	-0.099093
H128	H	0.893978	0.440863	-0.481938
C129	C	0.319129	1.098301	0.387961
C130	C	0.254961	1.090498	0.442611
H131	H	0.298578	1.144046	0.381119
H132	H	0.342763	1.092998	0.425021
H133	H	0.359557	1.063157	0.320671
H134	H	0.214535	1.125639	0.509903
H135	H	0.231314	1.095808	0.405552
H136	H	0.263582	0.701112	0.643704
H137	H	0.893978	0.566414	-0.481947
C138	C	0.825716	0.371669	-0.103083
C139	C	0.885326	0.304239	-0.114598
H140	H	0.805157	0.367029	-0.140143
H141	H	0.782209	0.396851	-0.031248
H142	H	0.849363	0.396854	-0.130066
H143	H	0.861679	0.279056	-0.087608
H144	H	0.928841	0.279047	-0.186447
H145	H	0.373511	0.961343	0.099054
C146	C	0.121625	1.076155	0.042999
C147	C	0.191318	1.076179	-0.000092
H148	H	0.080490	1.117282	0.042992
H149	H	0.135353	1.035021	0.002661
H150	H	0.101762	1.076159	0.112576
H151	H	0.211186	1.076171	-0.069673
H152	H	0.177590	1.117325	0.040245
H153	H	0.263556	1.071295	0.099001
H154	H	-0.106045	0.566426	0.099104
H155	H	0.373502	0.566414	0.283795
H156	H	0.373531	0.701087	-0.099105
H157	H	0.893945	0.306202	-0.283728
C158	C	1.096884	0.300334	0.045230
C159	C	1.012534	0.332900	0.114702
H160	H	1.117432	0.304975	0.082308
H161	H	1.123616	0.251506	0.012715
H162	H	1.106807	0.322445	-0.006439
H163	H	1.002611	0.310785	0.166367
H164	H	0.985794	0.381737	0.147234
H165	H	1.003948	0.196228	-0.099027
H166	H	0.893942	0.440900	0.099117
H167	H	1.003915	0.196234	-0.445472
C168	C	0.195318	0.563671	0.103106
C169	C	0.254917	0.555839	0.114644
H170	H	0.174757	0.538478	0.140163
H171	H	0.151809	0.612498	0.130071
H172	H	0.218973	0.545338	0.031259
H173	H	0.231259	0.574177	0.186491
H174	H	0.298432	0.507003	0.087685
H175	H	1.058902	0.633794	-0.625494
H176	H	-0.106043	0.701109	-0.099061
C177	C	1.145902	0.150936	-0.102491
C178	C	1.076191	0.191347	0.000063
H179	H	1.187040	0.109817	-0.102474
H180	H	1.132200	0.137212	-0.142822
H181	H	1.165751	0.178372	-0.131721
H182	H	1.056339	0.163913	0.029291
H183	H	1.089894	0.205070	0.040409
C184	C	0.794113	-0.032747	-0.045128
C185	C	0.789580	-0.065328	-0.114631
H186	H	0.844494	-0.037376	-0.082182
H187	H	0.749909	0.016078	-0.012619
H188	H	0.791023	-0.054858	0.006542
H189	H	0.792665	-0.043214	-0.166298
H190	H	0.833796	-0.114162	-0.147157
C191	C	1.096417	0.211483	-0.740089
C192	C	1.076199	0.191287	-0.650883
H193	H	1.137551	0.170340	-0.800591
H194	H	1.049133	0.238895	-0.740093
H195	H	1.116292	0.238900	-0.740089
H196	H	1.056318	0.163874	-0.650879
H197	H	1.123492	0.163862	-0.650879
H198	H	0.499055	0.330910	0.099073
H199	H	1.003940	0.566438	-0.643715
H200	H	0.003925	0.566423	0.099100
H201	H	0.373513	0.566420	0.099093
H202	H	0.263598	0.936562	-0.099152
C203	C	-0.026840	0.744266	-0.162560
C204	C	0.012570	0.711680	-0.114636
H205	H	-0.006279	0.769460	-0.199612
H206	H	-0.016905	0.709146	-0.209691
H207	H	-0.084064	0.776300	-0.110873
H208	H	0.069794	0.679641	-0.166324
H209	H	0.002642	0.746804	-0.067501
H210	H	0.893953	0.701107	-0.283749
H211	H	0.373528	0.701107	0.481919
C212	C	0.441776	0.755640	-0.103127
C213	C	0.382181	0.807407	-0.114670
H214	H	0.462338	0.709886	-0.140185
H215	H	0.485284	0.760959	-0.130086
H216	H	0.418117	0.760962	-0.031279
H217	H	0.405842	0.802088	-0.186518
H218	H	0.338665	0.802086	-0.087716
C219	C	0.171115	0.674199	0.740148
C220	C	0.191302	0.633774	0.650980
H221	H	0.129976	0.674212	0.800675
H222	H	0.218407	0.654322	0.740133
H223	H	0.151256	0.721484	0.740115
H224	H	0.211166	0.586488	0.651008
H225	H	0.144000	0.653649	0.650995
C226	C	0.973141	0.744259	-0.336734
C227	C	1.012542	0.711698	-0.442643
H228	H	0.993708	0.769442	-0.329915
H229	H	0.915923	0.776293	-0.304227
H230	H	0.983083	0.709119	-0.304239
H231	H	1.002595	0.746838	-0.475136
H232	H	1.069773	0.679661	-0.475163
H233	H	0.499053	0.440875	0.099066
C234	C	0.948363	0.369847	-0.683454
C235	C	1.012555	0.332763	-0.672002
H236	H	0.968901	0.374409	-0.750809
H237	H	0.924697	0.344667	-0.675484
H238	H	0.907964	0.415621	-0.631841
H239	H	1.052952	0.286987	-0.723610
H240	H	1.036234	0.357943	-0.679983
C241	C	0.269520	0.504097	0.490724
C242	C	0.254886	0.555859	0.442767
H243	H	0.248920	0.478931	0.483959
H244	H	0.326740	0.472046	0.458188
H245	H	0.242812	0.526213	0.562557
H246	H	0.281600	0.533742	0.370932
H247	H	0.197655	0.587914	0.475300
C248	C	0.773902	0.125251	-0.103103
C249	C	0.789576	0.177018	-0.114619
H250	H	0.824281	0.079497	-0.140168
H251	H	0.743406	0.130564	-0.031269
H252	H	0.743401	0.130577	-0.130078
H253	H	0.820073	0.171694	-0.087637
H254	H	0.820086	0.171702	-0.186468
H255	H	0.499057	0.071293	0.099073
C256	C	0.854736	0.232280	-0.162536
C257	C	0.789576	0.304261	-0.114604
H258	H	0.905112	0.227662	-0.199597
H259	H	0.851649	0.210183	-0.110862
H260	H	0.851644	0.210183	-0.209670
H261	H	0.792665	0.326357	-0.067464
H262	H	0.792664	0.326367	-0.166285
H263	H	0.373534	0.961321	0.283738
H264	H	0.499061	-0.038673	0.099063
C265	C	0.220621	1.116647	0.650855
C266	C	0.191311	1.076239	0.650888
H267	H	0.179485	1.157793	0.711351
H268	H	0.267897	1.089230	0.650875
H269	H	0.234346	1.130330	0.590320
H270	H	0.177592	1.062551	0.711419
H271	H	0.144021	1.103661	0.650877
C272	C	0.773913	-0.244335	-0.103122
C273	C	0.789585	-0.192568	-0.114645
H274	H	0.824292	-0.290089	-0.140187
H275	H	0.743417	-0.239020	-0.031287
H276	H	0.743410	-0.239011	-0.130095
H277	H	0.820083	-0.197889	-0.087664
H278	H	0.820094	-0.197885	-0.186494
H279	H	0.263545	0.936648	0.643712
C280	C	0.342712	0.814292	0.590720
C281	C	0.382130	0.807447	0.484809
H282	H	0.363256	0.768542	0.597544
H283	H	0.352660	0.839472	0.623219
H284	H	0.285486	0.839494	0.623219
H285	H	0.439356	0.782249	0.452311
H286	H	0.372189	0.782255	0.452297
