data_functionalizedCrystal
_audit_creation_method	'MofGen! by Chris Wilmer'
_symmetry_space_group_name_H-M	'P1'
_symmetry_Int_Tables_number	1
_symmetry_cell_setting	triclinic
loop_
_symmetry_equiv_pos_as_xyz
  x,y,z
_cell_length_a	23.096457
_cell_length_b	20.919309
_cell_length_c	20.919350
_cell_angle_alpha	120.799152
_cell_angle_beta	86.848967
_cell_angle_gamma	62.591463
loop_
_atom_site_label
_atom_site_type_symbol
_atom_site_fract_x
_atom_site_fract_y
_atom_site_fract_z
Zr1	Zr	0.576921	0.700777	0.111346
O2	O	0.483829	0.834340	0.218773
O3	O	0.602373	0.567214	0.074805
O4	O	0.600168	0.700779	0.213573
O5	O	0.491282	0.700773	-0.025353
O6	O	0.695449	0.700781	0.213577
O7	O	0.486034	0.700775	0.080005
O8	O	0.699393	0.461858	-0.034654
O9	O	0.487338	0.939696	0.222879
O10	O	0.688063	0.622152	0.063584
O11	O	0.620873	0.622149	-0.015046
O12	O	0.618277	0.779405	0.148336
O13	O	0.551088	0.779402	0.069706
Zr14	Zr	0.737253	0.700777	-0.056680
Zr15	Zr	0.728882	0.700780	0.111353
Zr16	Zr	0.585292	0.700774	-0.056687
Zr17	Zr	0.582518	0.868808	0.117894
Zr18	Zr	0.731656	0.532746	-0.063228
O19	O	0.711800	0.834340	-0.020139
O20	O	0.699898	0.834344	0.218782
O21	O	0.495731	0.834336	-0.020148
O22	O	0.830345	0.567215	-0.164107
O23	O	0.818442	0.567218	0.074814
O24	O	0.614276	0.567211	-0.164116
O25	O	0.822891	0.700781	0.080019
O26	O	0.714005	0.700775	-0.158908
O27	O	0.618725	0.700773	-0.158912
O28	O	0.828140	0.700779	-0.025339
O29	O	0.608127	0.939698	0.222883
O30	O	0.706047	0.461856	-0.168218
O31	O	0.826836	0.461858	-0.168213
O32	O	0.820182	0.461860	-0.034649
O33	O	0.493992	0.939694	0.089315
O34	O	0.614781	0.939696	0.089320
O35	O	0.695897	0.622149	-0.093670
O36	O	0.763086	0.622152	-0.015040
O37	O	0.693301	0.779405	0.069712
O38	O	0.626111	0.779402	-0.008918
C39	C	0.650086	0.490595	0.019143
C40	C	0.647710	0.419262	0.016363
C41	C	0.681664	0.385750	0.056101
C42	C	0.679433	0.318720	0.053482
C43	C	0.643244	0.285207	0.011129
C44	C	0.609289	0.318721	-0.028615
C45	C	0.611524	0.385745	-0.026000
C46	C	0.634745	0.082831	0.001175
C47	C	0.632510	0.015804	-0.001435
C48	C	0.702656	0.015806	0.080660
C49	C	0.704884	0.082836	0.083276
C50	C	0.670932	0.116341	0.043529
C51	C	0.640961	0.216693	0.008452
C52	C	0.673220	0.184849	0.046201
C53	C	0.467007	0.700774	0.027325
C54	C	0.402495	0.700772	0.027322
C55	C	0.408617	0.618691	-0.016910
C56	C	0.348001	0.618689	-0.016913
C57	C	0.281264	0.700774	0.027331
C58	C	0.275146	0.782867	0.071565
C59	C	0.335761	0.782866	0.071561
N60	N	0.157176	0.761875	0.096511
N61	N	0.099596	0.761871	0.096514
C62	C	0.098631	0.700783	0.027345
N63	N	0.157427	0.639685	-0.041825
N64	N	0.215013	0.639687	-0.041826
C65	C	0.215533	0.700785	0.027340
C66	C	0.039029	0.618694	-0.016894
C67	C	-0.021589	0.618696	-0.016900
C68	C	-0.094444	0.782876	0.071586
C69	C	-0.033826	0.782872	0.071584
C70	C	0.032908	0.700778	0.027345
C71	C	0.847167	0.700781	0.027341
C72	C	0.911678	0.700782	0.027343
C73	C	0.646616	0.700780	0.237517
C74	C	0.643062	0.700782	0.308851
C75	C	0.664088	0.910959	0.035523
C76	C	0.666464	0.982293	0.038303
C77	C	0.620296	0.700775	0.712297
C78	C	0.623644	0.700771	0.645269
C79	C	0.677807	0.700777	0.611767
C80	C	0.728629	0.700778	0.645292
C81	C	0.725284	0.700775	0.712315
C82	C	0.690538	0.700779	0.409398
C83	C	0.693879	0.700785	0.342372
C84	C	0.588894	0.700777	0.342353
C85	C	0.585551	0.700780	0.409380
C86	C	0.636375	0.700775	0.442896
C87	C	0.681230	0.700776	0.543256
C88	C	0.632955	0.700770	0.511403
C89	C	0.667558	0.700775	0.817150
C90	C	0.671113	0.700778	0.745818
C91	C	0.840166	0.490599	0.019151
C92	C	0.902301	0.419266	0.016374
C93	C	0.660557	0.490592	-0.191041
C94	C	0.661735	0.419257	-0.265155
C95	C	0.850637	0.490595	-0.191033
C96	C	0.916326	0.419262	-0.265144
C97	C	0.463537	0.910959	0.245699
C98	C	0.397848	0.982292	0.319810
C99	C	0.474008	0.910955	0.035515
C100	C	0.411873	0.982288	0.038292
C101	C	0.653617	0.910962	0.245707
C102	C	0.652439	0.982297	0.319821
C103	C	0.892319	0.385768	0.056117
C104	C	0.950695	0.318753	0.053524
C105	C	1.019053	0.285232	0.011182
C106	C	1.029035	0.318738	-0.028563
C107	C	0.970659	0.385756	-0.025965
C108	C	0.701450	0.385758	-0.341008
C109	C	0.702554	0.318740	-0.410652
C110	C	0.663947	0.285219	-0.404442
C111	C	0.624227	0.318725	-0.328581
C112	C	0.623119	0.385746	-0.258938
C113	C	0.982253	0.385764	-0.258904
C114	C	1.043981	0.318748	-0.328533
C115	C	1.039780	0.285226	-0.404401
C116	C	0.973846	0.318730	-0.410640
C117	C	0.912120	0.385750	-0.341012
C118	C	0.331921	1.015798	0.313570
C119	C	0.270194	1.082835	0.383200
C120	C	0.274395	1.116361	0.459068
C121	C	0.340329	1.082852	0.465307
C122	C	0.402055	1.015821	0.395678
C123	C	0.421855	1.015793	-0.001444
C124	C	0.363478	1.082827	0.001168
C125	C	0.295120	1.116350	0.043513
C126	C	0.285139	1.082841	0.083255
C127	C	0.343515	1.015813	0.080646
C128	C	0.691054	1.015797	0.313585
C129	C	0.689961	1.082815	0.383216
C130	C	0.650250	1.116336	0.459083
C131	C	0.611633	1.082830	0.465317
C132	C	0.612731	1.015808	0.395687
H133	H	0.707082	0.291435	0.085839
H134	H	0.942554	0.291481	0.085890
H135	H	0.836662	0.413059	0.090607
H136	H	0.978797	0.413022	-0.058334
H137	H	0.216514	1.110107	0.378104
N138	N	0.469390	0.981608	0.402074
N139	N	0.473123	1.011554	0.469822
H140	H	0.520677	0.987396	0.474345
N141	N	0.582558	0.419935	-0.181465
N142	N	0.595565	0.367542	-0.163535
H143	H	0.566917	0.391684	-0.108821
H144	H	0.229473	1.110145	0.117731
N145	N	0.491682	0.981547	-0.044700
N146	N	0.533742	0.899264	-0.101951
H147	H	0.583057	0.875083	-0.132500
H148	H	-0.148782	0.849711	0.107611
N149	N	0.333298	0.981588	0.121228
N150	N	0.301285	0.944204	0.102357
H151	H	0.294064	0.920035	0.131021
H152	H	0.576188	0.700776	0.739573
H153	H	0.592795	0.291422	-0.323536
H154	H	0.721406	1.110089	0.378124
H155	H	-0.038814	0.849712	0.107608
H156	H	0.730298	-0.011480	0.113019
H157	H	0.371619	1.110098	-0.031198
N158	N	0.571734	0.700759	0.611033
N159	N	0.523378	0.700754	0.640953
H160	H	0.486715	0.700742	0.616773
H161	H	0.581283	0.988540	0.400775
H162	H	-0.016598	0.551852	-0.052925
N163	N	0.344628	1.117091	0.542801
N164	N	0.376499	1.154492	0.564270
H165	H	0.379536	1.178669	0.619001
N166	N	0.986567	0.419983	-0.181418
N167	N	1.045443	0.390057	-0.175872
H168	H	1.048496	0.414222	-0.121150
H169	H	0.611496	0.189399	-0.026032
N170	N	0.211334	1.184834	0.530181
N171	N	0.152477	1.214735	0.524589
H172	H	0.107936	1.263093	0.574809
N173	N	0.577623	0.700771	0.545615
N174	N	0.532248	0.700773	0.515684
H175	H	0.493168	0.700776	0.539852
H176	H	0.734352	0.110121	0.117763
H177	H	1.097661	0.291475	-0.323439
H178	H	0.970436	0.291427	-0.472422
H179	H	0.649362	1.170909	0.515774
H180	H	0.328487	0.988505	0.251800
N181	N	0.731625	0.981574	0.236101
N182	N	0.766101	1.011499	0.230558
H183	H	0.794760	0.987330	0.175837
H184	H	0.858442	0.413015	-0.346104
H185	H	0.541447	0.700775	0.436656
H186	H	0.547516	0.700779	0.315057
N187	N	0.235501	1.184820	0.046168
N188	N	0.244432	1.214722	0.010681
H189	H	0.202329	1.263078	0.012551
H190	H	0.579301	1.110133	0.527097
N191	N	0.718620	0.420000	0.099368
N192	N	0.686358	0.502285	0.156617
H193	H	0.712459	0.526474	0.187174
H194	H	0.734901	0.291467	-0.472414
H195	H	0.603037	-0.011479	-0.035924
N196	N	1.102841	0.216754	-0.475513
N197	N	1.144550	0.141965	-0.489998
H198	H	1.189090	0.093603	-0.540219
N199	N	0.600053	0.117094	-0.039391
N200	N	0.634787	0.109639	-0.093714
H201	H	0.610279	0.133854	-0.122354
N202	N	0.665102	0.216747	-0.475593
N203	N	0.722185	0.141958	-0.526743
H204	H	0.723006	0.093596	-0.576997
N205	N	0.107193	0.534834	-0.062082
N206	N	0.112647	0.461549	-0.101577
H207	H	0.160786	0.402321	-0.133490
H208	H	0.579827	0.291424	-0.063104
H209	H	0.702688	0.212134	0.080682
N210	N	0.476776	0.534829	-0.062104
N211	N	0.482228	0.461545	-0.101596
H212	H	0.530367	0.402316	-0.133517
N213	N	0.206977	0.866715	0.116775
N214	N	0.187126	0.921676	0.191282
H215	H	0.138981	0.980896	0.223213
H216	H	0.352986	0.551846	-0.052933
N217	N	0.749327	0.700534	0.308021
N218	N	0.794778	0.700356	0.337859
H219	H	0.833979	0.700082	0.313547
H220	H	0.583873	0.413032	-0.058356
H221	H	0.330772	0.849709	0.107578
H222	H	0.731920	0.700778	0.436683
H223	H	0.772733	0.700777	0.618008
N224	N	0.777201	0.700770	0.746544
N225	N	0.825559	0.700773	0.716625
H226	H	0.862231	0.700765	0.740796
H227	H	0.725329	0.700783	0.515974
N228	N	1.078673	0.216698	0.008461
N229	N	1.069743	0.186748	0.043898
H230	H	1.111847	0.138315	0.041947
N231	N	0.740874	0.420006	-0.347364
N232	N	0.709892	0.502292	-0.315915
H233	H	0.737734	0.526482	-0.320410
N234	N	1.098868	0.284482	-0.071810
N235	N	1.150977	0.224639	-0.074123
H236	H	1.200299	0.200439	-0.104671
