data_functionalizedCrystal
_audit_creation_method	'MofGen! by Chris Wilmer'
_symmetry_space_group_name_H-M	'P1'
_symmetry_Int_Tables_number	1
_symmetry_cell_setting	triclinic
loop_
_symmetry_equiv_pos_as_xyz
  x,y,z
_cell_length_a	20.919309
_cell_length_b	14.560438
_cell_length_c	14.560438
_cell_angle_alpha	60.000905
_cell_angle_beta	89.999924
_cell_angle_gamma	57.440967
loop_
_atom_site_label
_atom_site_type_symbol
_atom_site_fract_x
_atom_site_fract_y
_atom_site_fract_z
Zr1	Zr	0.641764	0.933518	-0.084645
O2	O	0.535390	1.137015	-0.237234
O3	O	0.674373	0.738270	-0.037871
O4	O	0.674370	0.929874	-0.229471
O5	O	0.535396	0.945408	0.105508
O6	O	0.784000	0.917616	-0.223345
O7	O	0.535393	0.945411	-0.045633
O8	O	0.784005	0.574871	0.119394
O9	O	0.535390	1.288153	-0.237231
O10	O	0.770096	0.806374	-0.013347
O11	O	0.688283	0.815520	0.094876
O12	O	0.688279	1.041110	-0.130709
O13	O	0.606466	1.050256	-0.022486
Zr14	Zr	0.816615	0.913962	0.166178
Zr15	Zr	0.816611	0.913967	-0.074874
Zr16	Zr	0.641768	0.933513	0.156408
Zr17	Zr	0.641764	1.174565	-0.084640
Zr18	Zr	0.816615	0.672915	0.166174
O19	O	0.784006	1.109210	0.119404
O20	O	0.784000	1.109217	-0.223342
O21	O	0.535397	1.137008	0.105511
O22	O	0.922989	0.710465	0.318767
O23	O	0.922983	0.710471	-0.023978
O24	O	0.674379	0.738263	0.304875
O25	O	0.922983	0.902072	-0.023974
O26	O	0.784009	0.917606	0.311005
O27	O	0.674380	0.929864	0.304879
O28	O	0.922986	0.902069	0.127167
O29	O	0.674370	1.272613	-0.229465
O30	O	0.784009	0.574867	0.310998
O31	O	0.922989	0.559327	0.318765
O32	O	0.922985	0.559331	0.127160
O33	O	0.535394	1.288149	-0.045627
O34	O	0.674374	1.272609	-0.037860
O35	O	0.770100	0.806370	0.212243
O36	O	0.851914	0.797224	0.104020
O37	O	0.770096	1.031959	-0.013343
O38	O	0.688283	1.041106	0.094880
C39	C	0.729189	0.622226	0.040761
C40	C	0.729189	0.519895	0.040759
C41	C	0.771893	0.467045	-0.015732
C42	C	0.771896	0.370885	-0.015722
C43	C	0.686485	0.380439	0.097273
C44	C	0.686487	0.476590	0.097268
C45	C	0.510483	0.948195	0.028545
C46	C	0.436256	0.956495	0.024397
C47	C	0.444089	0.837867	0.083705
C48	C	0.374342	0.845674	0.079805
C49	C	0.296763	0.972109	0.016590
C50	C	0.288931	1.090745	-0.042719
C51	C	0.358677	1.082937	-0.038812
C52	C	0.084038	1.001814	0.001734
C53	C	0.014290	1.009612	-0.002171
C54	C	0.099707	0.764541	0.120355
C55	C	0.169450	0.756744	0.124251
C56	C	0.161612	0.875380	0.064947
C57	C	0.225469	0.980091	0.012599
C58	C	0.232905	0.867396	0.068945
C59	C	0.947896	0.899285	0.052988
C60	C	1.022123	0.890985	0.057136
C61	C	0.729184	0.923746	-0.260753
C62	C	0.729182	0.923748	-0.363086
C63	C	0.729190	1.225254	0.040772
C64	C	0.729190	1.327585	0.040774
C65	C	0.686475	1.046275	-0.472424
C66	C	0.686485	1.046268	-0.568573
C67	C	0.771909	0.801195	-0.446031
C68	C	0.771904	0.801203	-0.349885
C69	C	0.729195	0.923734	0.342286
C70	C	0.729197	0.923732	0.444620
C71	C	0.947896	0.597771	0.052983
C72	C	1.022123	0.487141	0.057128
C73	C	0.729195	0.622221	0.342281
C74	C	0.729197	0.519888	0.444612
C75	C	0.947901	0.597766	0.354502
C76	C	1.022130	0.487133	0.460981
C77	C	0.510478	1.249714	-0.272969
C78	C	0.436249	1.360347	-0.379448
C79	C	0.510483	1.249709	0.028551
C80	C	0.436256	1.360339	0.024405
C81	C	0.729184	1.225259	-0.260747
C82	C	0.729183	1.327592	-0.363079
C83	C	1.014273	0.439964	-0.002199
C84	C	1.084010	0.336028	0.001674
C85	C	1.161597	0.279265	0.064881
C86	C	1.169445	0.326452	0.124210
C87	C	1.099709	0.430392	0.120330
C88	C	1.099702	0.430404	0.454494
C89	C	1.169454	0.326465	0.554534
C90	C	1.161633	0.279251	0.661059
C91	C	1.084054	0.335991	0.667544
C92	C	1.014303	0.439934	0.567505
C93	C	0.358677	1.417088	-0.372961
C94	C	0.288925	1.521056	-0.473000
C95	C	0.296746	1.568275	-0.579526
C96	C	0.374326	1.511529	-0.586010
C97	C	0.444076	1.407569	-0.485972
C98	C	0.444107	1.407526	0.083722
C99	C	0.374369	1.511488	0.079823
C100	C	0.296783	1.568255	0.016612
C101	C	0.288934	1.521063	-0.042712
C102	C	0.358671	1.417110	-0.038819
C103	C	0.771904	0.467033	0.553951
C104	C	0.771897	0.370890	0.650098
C105	C	0.686472	0.380462	0.527552
C106	C	0.686476	0.476610	0.431407
H107	H	0.651712	0.519620	0.143276
N108	N	0.527782	1.346332	0.151889
H109	H	0.570778	1.273315	0.145363
H110	H	0.534246	1.305797	0.234589
H111	H	0.380776	1.549893	0.128137
N112	N	0.930597	0.501168	-0.070374
H113	H	0.899751	0.601137	-0.131341
H114	H	0.899828	0.487773	-0.018013
H115	H	0.240005	1.652899	0.013452
N116	N	1.236811	0.167147	0.069074
H117	H	1.270383	0.196848	0.037440
H118	H	1.219994	0.145923	0.021914
N119	N	0.817950	0.513749	-0.076678
H120	H	0.877696	0.433712	-0.042456
H121	H	0.811407	0.582710	-0.068099
N122	N	0.221513	1.680388	-0.687423
H123	H	0.221470	1.760188	-0.733709
H124	H	0.171228	1.709046	-0.667049
N125	N	1.253134	0.265212	0.192380
H126	H	1.283965	0.165245	0.253338
H127	H	1.247470	0.310958	0.229309
H128	H	0.296073	0.764453	0.120419
N129	N	0.817971	0.313871	0.768028
H130	H	0.811487	0.246396	0.826935
H131	H	0.795554	0.389806	0.775686
H132	H	0.507237	1.361372	-0.491267
H133	H	0.651692	0.345211	0.516815
N134	N	0.108159	0.636590	0.184310
H135	H	0.052205	0.660715	0.172244
H136	H	0.138999	0.581710	0.268374
N137	N	0.930639	0.501087	0.574515
H138	H	0.887631	0.574097	0.494984
H139	H	0.924177	0.541625	0.616678
H140	H	0.225753	1.567298	-0.094177
N141	N	0.640417	0.333747	0.158199
H142	H	0.613365	0.381819	0.193987
H143	H	0.679629	0.232842	0.219583
N144	N	0.350230	1.366167	-0.258074
H145	H	0.290500	1.417904	-0.269162
H146	H	0.377312	1.379862	-0.214097
N147	N	0.817952	0.313899	-0.076663
H148	H	0.778780	0.335007	-0.138095
H149	H	0.860934	0.212591	-0.020189
N150	N	0.527763	0.701497	0.151876
H151	H	0.522139	0.627533	0.188856
H152	H	0.558563	0.692914	0.212794
H153	H	1.077698	0.297534	0.754290
H154	H	0.380728	0.749075	0.128101
H155	H	0.806685	0.701421	-0.260850
N156	N	0.350198	1.366220	-0.102800
H157	H	0.290463	1.417961	-0.143429
H158	H	0.377266	1.266676	-0.047229
H159	H	0.651693	0.519648	0.342372
H160	H	0.077645	1.098415	-0.046576
H161	H	0.232616	0.653787	0.175705
H162	H	-0.048881	1.112576	-0.053653
H163	H	0.225763	1.567242	-0.467698
H164	H	0.380684	1.549989	-0.672755
N165	N	0.817980	0.513713	0.568188
H166	H	0.845033	0.465638	0.652047
H167	H	0.778771	0.614618	0.528671
H168	H	0.352294	1.179536	-0.087092
N169	N	0.205258	1.227117	-0.110890
H170	H	0.162262	1.214065	-0.104368
H171	H	0.198800	1.279268	-0.193588
H172	H	0.162296	1.083035	-0.038870
H173	H	1.218436	0.194613	0.742508
N174	N	1.075539	0.285128	-0.062303
H175	H	1.102557	0.298850	-0.120059
H176	H	1.015791	0.336874	-0.102849
H177	H	1.106112	0.468790	0.168649
H178	H	0.651689	1.146058	-0.483180
H179	H	0.806691	0.701425	-0.435296
N180	N	0.640445	1.178419	-0.686501
H181	H	0.613390	1.256044	-0.680268
H182	H	0.597511	1.188371	-0.731387
H183	H	1.232617	0.280278	0.549234
N184	N	1.108149	0.481303	0.339607
H185	H	1.167880	0.429582	0.350695
H186	H	1.081069	0.580853	0.295630
