data_functionalizedCrystal
_audit_creation_method	'MofGen! by Chris Wilmer'
_symmetry_space_group_name_H-M	'P1'
_symmetry_Int_Tables_number	1
_symmetry_cell_setting	triclinic
loop_
_symmetry_equiv_pos_as_xyz
  x,y,z
_cell_length_a	16.109301
_cell_length_b	10.540539
_cell_length_c	15.186229
_cell_angle_alpha	89.998389
_cell_angle_beta	89.999006
_cell_angle_gamma	83.993537
loop_
_atom_site_label
_atom_site_type_symbol
_atom_site_fract_x
_atom_site_fract_y
_atom_site_fract_z
O1	O	1.104128	0.163160	-0.073176
O2	O	0.862190	0.183465	-0.073188
O3	O	0.988679	-0.011473	-0.073181
O4	O	0.977640	0.358098	-0.073183
O5	O	0.988670	-0.011475	0.073277
O6	O	0.862182	0.183462	0.073269
O7	O	1.104120	0.163158	0.073281
Zn8	Zn	0.983149	0.173309	0.096529
Zn9	Zn	0.983161	0.173313	-0.096435
O10	O	0.977631	0.358095	0.073274
C11	C	0.831206	0.182641	0.000039
C12	C	0.738896	0.180175	0.000035
C13	C	0.430556	0.287786	0.000049
C14	C	0.517290	0.290115	0.000044
C15	C	0.535749	0.058828	0.000034
C16	C	0.449016	0.056500	0.000033
C17	C	0.396421	0.170983	0.000045
C18	C	0.569889	0.175639	0.000041
C19	C	0.663930	0.178164	0.000035
C20	C	0.302374	0.168459	0.000049
C21	C	0.987847	-0.058765	0.000046
C22	C	0.985370	-0.199678	0.000042
C23	C	0.890460	-0.381752	-0.000292
C24	C	0.892971	-0.235170	0.000038
C25	C	1.029832	-0.261971	0.083678
C26	C	1.026678	-0.408471	0.083748
C27	C	1.028567	-0.409012	-0.082801
C28	C	1.029418	-0.262043	-0.083907
C29	C	1.135104	0.163981	0.000052
C30	C	1.227414	0.166447	0.000051
C31	C	0.978463	0.405388	0.000045
C32	C	0.980940	0.546300	0.000044
N33	N	0.983148	0.173306	0.228221
N34	N	0.983169	0.173306	-0.228128
C35	C	1.039176	0.087017	0.453947
C36	C	1.039179	0.087014	0.546137
C37	C	0.927134	0.259600	0.546140
C38	C	0.927128	0.259595	0.453952
C39	C	0.983154	0.173306	0.407858
C40	C	0.983163	0.173307	0.592236
C41	C	0.983165	0.173304	0.692192
C42	C	0.983151	0.173306	0.307895
H43	H	0.545078	0.385227	0.000047
H44	H	1.084795	0.016753	0.416420
H45	H	1.097687	-0.240584	0.086791
H46	H	0.421225	-0.038620	0.000026
H47	H	0.881504	0.329863	0.416423
H48	H	0.881520	0.329857	0.583678
N49	N	1.118656	-0.231249	-0.090595
H50	H	1.126459	-0.183948	-0.147341
H51	H	1.131796	-0.176233	-0.039031
N52	N	0.592476	-0.064645	0.000027
H53	H	0.652601	-0.045449	0.000032
H54	H	0.581341	-0.115553	0.054319
N55	N	0.988928	-0.204954	0.166122
H56	H	0.941605	-0.138790	0.149486
H57	H	0.966443	-0.274472	0.201971
N58	N	1.099614	-0.006037	0.595849
H59	H	1.135107	-0.060691	0.552657
H60	H	1.136651	0.042600	0.634087
N61	N	1.114696	-0.473278	0.088785
H62	H	1.155370	-0.406640	0.090954
H63	H	1.121021	-0.527683	0.143603
N64	N	1.116973	-0.472812	-0.083549
H65	H	1.116113	-0.568429	-0.085835
H66	H	1.147210	-0.443632	-0.136917
N67	N	0.988961	-0.450234	-0.166771
H68	H	1.020487	-0.420577	-0.219089
H69	H	0.990887	-0.546301	-0.167861
N70	N	0.846629	-0.178061	-0.079374
H71	H	0.824382	-0.248101	-0.114909
H72	H	0.798654	-0.115345	-0.059332
H73	H	0.387735	0.381005	0.000058
H74	H	0.853964	-0.409831	-0.060269
H75	H	0.854105	-0.411442	0.059346
H76	H	0.857734	-0.192912	0.060089
N77	N	0.983142	-0.445207	0.166557
H78	H	0.924587	-0.400394	0.167966
H79	H	0.980720	-0.540558	0.167384
H80	H	0.996886	-0.220719	-0.145779
