data_functionalizedCrystal
_audit_creation_method	'MofGen! by Chris Wilmer'
_symmetry_space_group_name_H-M	'P1'
_symmetry_Int_Tables_number	1
_symmetry_cell_setting	triclinic
loop_
_symmetry_equiv_pos_as_xyz
  x,y,z
_cell_length_a	13.897449
_cell_length_b	16.120444
_cell_length_c	13.897441
_cell_angle_alpha	87.133622
_cell_angle_beta	90.023394
_cell_angle_gamma	92.927498
loop_
_atom_site_label
_atom_site_type_symbol
_atom_site_fract_x
_atom_site_fract_y
_atom_site_fract_z
Zn1	Zn	1.455175	-0.331863	0.564897
Zn2	Zn	1.788508	0.001470	0.898230
Zn3	Zn	2.121841	0.334804	1.231563
Zn4	Zn	1.446864	-0.471295	0.411769
Zn5	Zn	1.780197	-0.137962	0.745102
Zn6	Zn	2.113531	0.195372	1.078435
Zn7	Zn	1.293861	-0.331902	0.403610
Zn8	Zn	1.627195	0.001432	0.736943
Zn9	Zn	1.960528	0.334765	1.070277
Zn10	Zn	1.285644	-0.471239	0.573011
Zn11	Zn	1.618977	-0.137906	0.906344
Zn12	Zn	1.952311	0.195427	1.239677
O13	O	1.370386	-0.401575	0.488322
O14	O	1.703719	-0.068241	0.821655
O15	O	2.037053	0.265092	1.154988
O16	O	1.589053	-0.350366	0.544603
O17	O	1.922387	-0.017033	0.877936
O18	O	2.255720	0.316300	1.211270
O19	O	1.426529	-0.452844	0.275707
O20	O	1.759862	-0.119510	0.609040
O21	O	2.093195	0.213823	0.942374
O22	O	1.322177	-0.215231	0.418195
O23	O	1.655510	0.118103	0.751528
O24	O	1.988844	0.451436	1.084861
O25	O	1.582947	-0.452806	0.432100
O26	O	1.916281	-0.119473	0.765434
O27	O	2.249614	0.213860	1.098767
O28	O	1.440693	-0.215202	0.536691
O29	O	1.774026	0.118131	0.870025
O30	O	2.107360	0.451464	1.203358
O31	O	1.314119	-0.350432	0.269713
O32	O	1.647452	-0.017099	0.603046
O33	O	1.980785	0.316235	0.936379
O34	O	1.157790	-0.350378	0.426062
O35	O	1.491124	-0.017045	0.759396
O36	O	1.824457	0.316289	1.092729
O37	O	1.308172	-0.452711	0.706914
O38	O	1.641505	-0.119378	1.040247
O39	O	1.974838	0.213955	1.373580
O40	O	1.151753	-0.452749	0.550520
O41	O	1.485086	-0.119415	0.883854
O42	O	1.818420	0.213918	1.217187
O43	O	1.432725	-0.350312	0.700952
O44	O	1.766058	-0.016979	1.034286
O45	O	2.099392	0.316355	1.367619
O46	O	1.418561	-0.587954	0.439968
O47	O	1.751894	-0.254620	0.773301
O48	O	2.085227	0.078713	1.106635
O49	O	1.300113	-0.587913	0.558432
O50	O	1.633446	-0.254579	0.891765
O51	O	1.966780	0.078754	1.225098
C52	C	1.119772	-0.401562	0.488287
C53	C	1.453106	-0.068229	0.821620
C54	C	1.786439	0.265105	1.154954
C55	C	1.012558	-0.401577	0.488296
C56	C	1.345891	-0.068243	0.821630
C57	C	1.679224	0.265090	1.154963
C58	C	0.925488	-0.401579	0.488313
C59	C	1.258821	-0.068246	0.821646
C60	C	1.592154	0.265087	1.154979
C61	C	0.816255	-0.401585	0.488342
C62	C	1.149588	-0.068252	0.821676
C63	C	1.482922	0.265081	1.155009
C64	C	1.357570	-0.618183	0.500987
C65	C	1.690903	-0.284850	0.834320
C66	C	2.024236	0.048483	1.167653
C67	C	1.352175	-0.710850	0.506437
C68	C	1.685508	-0.377516	0.839771
C69	C	2.018842	-0.044183	1.173104
C70	C	1.398607	-0.921792	0.460254
C71	C	1.731941	-0.588459	0.793588
C72	C	2.065274	-0.255126	1.126921
C73	C	1.342343	-0.880506	0.516399
C74	C	1.675677	-0.547173	0.849732
C75	C	2.009010	-0.213839	1.183065
C76	C	1.347815	-0.786100	0.510855
C77	C	1.681149	-0.452767	0.844188
C78	C	2.014482	-0.119434	1.177521
C79	C	1.393137	-1.016206	0.465797
C80	C	1.726470	-0.682873	0.799131
C81	C	2.059803	-0.349540	1.132464
C82	C	1.621978	-0.401588	0.488357
C83	C	1.955311	-0.068255	0.821690
C84	C	2.288645	0.265078	1.155023
C85	C	1.729192	-0.401594	0.488372
C86	C	2.062525	-0.068261	0.821705
C87	C	2.395858	0.265073	1.155038
C88	C	1.370459	-0.401501	0.739910
C89	C	1.703792	-0.068168	1.073244
C90	C	2.037125	0.265166	1.406577
C91	C	1.370490	-0.401470	0.847122
C92	C	1.703823	-0.068136	1.180456
C93	C	2.037156	0.265197	1.513789
C94	C	1.383279	-0.184120	0.475628
C95	C	1.716612	0.149213	0.808961
C96	C	2.049945	0.482546	1.142295
C97	C	1.388773	-0.091454	0.470219
C98	C	1.722106	0.241879	0.803552
C99	C	2.055440	0.575212	1.136885
C100	C	1.370373	-0.401588	0.237708
C101	C	1.703706	-0.068255	0.571041
C102	C	2.037039	0.265079	0.904375
C103	C	1.370542	-0.401385	0.130483
C104	C	1.703876	-0.068051	0.463816
C105	C	2.037209	0.265282	0.797149
C106	C	1.370519	-0.401413	1.043414
C107	C	1.703853	-0.068080	1.376748
C108	C	2.037186	0.265253	1.710081
C109	C	1.370500	-0.401447	0.934184
C110	C	1.703833	-0.068114	1.267517
C111	C	2.037166	0.265220	1.600851
H112	H	1.290064	-0.916061	0.568629
H113	H	1.623398	-0.582728	0.901963
H114	H	1.956731	-0.249394	1.235296
F115	F	1.466934	-0.875322	0.391988
F116	F	1.800267	-0.541989	0.725321
F117	F	2.133600	-0.208656	1.058654
