data_functionalizedCrystal
_audit_creation_method	'MofGen! by Chris Wilmer'
_symmetry_space_group_name_H-M	'P1'
_symmetry_Int_Tables_number	1
_symmetry_cell_setting	triclinic
loop_
_symmetry_equiv_pos_as_xyz
  x,y,z
_cell_length_a	16.992695
_cell_length_b	14.971486
_cell_length_c	14.048226
_cell_angle_alpha	89.998499
_cell_angle_beta	89.993436
_cell_angle_gamma	87.141176
loop_
_atom_site_label
_atom_site_type_symbol
_atom_site_fract_x
_atom_site_fract_y
_atom_site_fract_z
O1	O	0.102190	1.194127	-0.079052
O2	O	0.602190	1.694127	0.420948
O3	O	0.114427	0.934587	-0.079078
O4	O	0.614427	1.434587	0.420922
O5	O	-0.005835	1.063316	-0.079057
O6	O	0.494165	1.563316	0.420943
O7	O	0.222452	1.065397	-0.079072
O8	O	0.722452	1.565397	0.420928
O9	O	-0.005842	1.063299	0.079264
O10	O	0.494158	1.563299	0.579264
O11	O	0.114420	0.934570	0.079244
O12	O	0.614420	1.434570	0.579244
O13	O	0.102183	1.194110	0.079270
O14	O	0.602183	1.694110	0.579270
Zn15	Zn	0.108300	1.064337	0.104394
Zn16	Zn	0.608300	1.564337	0.604394
Zn17	Zn	0.108310	1.064359	-0.104201
Zn18	Zn	0.608310	1.564359	0.395799
O19	O	0.222445	1.065380	0.079249
O20	O	0.722445	1.565380	0.579249
C21	C	0.113876	0.901215	0.000080
C22	C	0.613876	1.401215	0.500080
C23	C	0.112236	0.801803	0.000070
C24	C	0.612236	1.301803	0.500070
C25	C	0.182887	0.749541	0.000067
C26	C	0.682887	1.249541	0.500067
C27	C	0.181341	0.656133	0.000081
C28	C	0.681341	1.156133	0.500081
C29	C	0.109144	0.614988	0.000092
C30	C	0.609144	1.114988	0.500092
C31	C	0.038488	0.667257	0.000098
C32	C	0.538488	1.167257	0.500098
C33	C	0.040034	0.760663	0.000091
C34	C	0.540034	1.260663	0.500091
C35	C	0.035269	0.472568	0.000111
C36	C	0.535269	0.972568	0.500111
C37	C	0.033723	0.379155	0.000117
C38	C	0.533723	0.879155	0.500117
C39	C	0.176577	0.368038	0.000102
C40	C	0.676577	0.868038	0.500102
C41	C	0.178123	0.461445	0.000094
C42	C	0.678123	0.961445	0.500094
C43	C	0.107466	0.513707	0.000099
C44	C	0.607466	1.013707	0.500099
C45	C	-0.035054	1.060631	0.000103
C46	C	0.464946	1.560631	0.500103
C47	C	-0.122105	1.052644	0.000102
C48	C	0.377895	1.552644	0.500102
C49	C	-0.172274	1.129708	0.000111
C50	C	0.327726	1.629708	0.500111
C51	C	-0.254067	1.122198	0.000101
C52	C	0.245933	1.622198	0.500101
C53	C	-0.285691	1.037623	0.000089
C54	C	0.214309	1.537623	0.500089
C55	C	-0.235517	0.960553	0.000078
C56	C	0.264483	1.460553	0.500078
C57	C	-0.153724	0.968064	0.000081
C58	C	0.346276	1.468064	0.500081
C59	C	-0.529318	1.006493	0.000073
C60	C	-0.029318	1.506493	0.500073
C61	C	-0.611117	0.998988	0.000073
C62	C	-0.111117	1.498988	0.500073
C63	C	-0.629662	1.160634	0.000094
C64	C	-0.129662	1.660634	0.500094
C65	C	-0.547867	1.168138	0.000103
C66	C	-0.047867	1.668138	0.500103
C67	C	-0.497700	1.091068	0.000087
C68	C	0.002300	1.591068	0.500087
N69	N	-0.369297	1.029945	0.000082
N70	N	0.130703	1.529945	0.500082
N71	N	-0.414095	1.098747	0.000087
N72	N	0.085905	1.598747	0.500087
C73	C	0.251664	1.068066	0.000087
C74	C	0.751664	1.568066	0.500087
C75	C	0.338715	1.076053	0.000082
C76	C	0.838715	1.576053	0.500082
C77	C	0.102733	1.227482	0.000110
C78	C	0.602733	1.727482	0.500110
C79	C	0.104373	1.326894	0.000114
C80	C	0.604373	1.826894	0.500114
N81	N	0.108293	1.064328	0.246754
N82	N	0.608293	1.564328	0.746754
N83	N	0.108310	1.064375	-0.246562
N84	N	0.608310	1.564375	0.253438
C85	C	0.055063	1.121350	0.296581
C86	C	0.555063	1.621350	0.796581
C87	C	0.055063	1.121356	0.396239
C88	C	0.555063	1.621356	0.896239
C89	C	0.108297	1.064344	0.446068
C90	C	0.608297	1.564344	0.946068
C91	C	0.161529	1.007316	0.396234
C92	C	0.661529	1.507316	0.896234
C93	C	0.161526	1.007306	0.296578
C94	C	0.661526	1.507306	0.796578
C95	C	0.161535	1.007342	0.603948
C96	C	0.661535	1.507342	1.103948
C97	C	0.161540	1.007353	0.703611
C98	C	0.661540	1.507353	1.203611
C99	C	0.055072	1.121393	0.703609
C100	C	0.555072	1.621393	1.203609
C101	C	0.055068	1.121383	0.603953
C102	C	0.555068	1.621383	1.103953
C103	C	0.108302	1.064355	0.554126
C104	C	0.608302	1.564355	1.054126
H105	H	-0.020297	0.633749	0.000120
H106	H	0.479703	1.133749	0.500120
H107	H	-0.522126	1.237008	0.000113
H108	H	-0.022126	1.737008	0.500113
N109	N	-0.002334	1.182868	0.449993
N110	N	0.497666	1.682868	0.949993
H111	H	0.027708	1.224603	0.491326
H112	H	0.527708	1.724603	0.991326
H113	H	-0.037091	1.146153	0.491301
H114	H	0.462909	1.646153	0.991301
H115	H	-0.146533	1.198578	0.000126
H116	H	0.353467	1.698578	0.500126
H117	H	0.238873	0.613586	0.000077
H118	H	0.738873	1.113586	0.500077
N119	N	0.218944	0.945808	0.242834
N120	N	0.718944	1.445808	0.742834
H121	H	0.210862	0.954450	0.172142
H122	H	0.710862	1.454450	0.672142
H123	H	0.209792	0.881707	0.260267
H124	H	0.709792	1.381707	0.760267
H125	H	-0.112878	0.905310	0.000073
H126	H	0.387122	1.405310	0.500073
H127	H	-0.022267	0.515117	0.000116
H128	H	0.477733	1.015117	0.500116
N129	N	-0.002330	1.182918	0.757348
N130	N	0.497670	1.682918	1.257348
H131	H	-0.036044	1.219046	0.710659
H132	H	0.463956	1.719046	1.210659
H133	H	0.027774	1.224599	0.798671
H134	H	0.527774	1.724599	1.298671
N135	N	-0.036167	0.817035	0.000101
N136	N	0.463833	1.317035	0.500101
H137	H	-0.082139	0.776798	0.000109
H138	H	0.417861	1.276798	0.500109
H139	H	-0.038638	0.856033	-0.058591
H140	H	0.461362	1.356033	0.441409
H141	H	-0.294912	1.184952	0.000110
H142	H	0.205088	1.684952	0.500110
N143	N	0.252804	0.311707	0.000168
N144	N	0.752804	0.811707	0.500168
H145	H	0.284326	0.325519	-0.058508
H146	H	0.784326	0.825519	0.441492
H147	H	0.240837	0.246304	0.000237
H148	H	0.740837	0.746304	0.500237
N149	N	-0.683776	1.243751	0.000111
N150	N	-0.183776	1.743751	0.500111
H151	H	-0.718118	1.244246	-0.058580
H152	H	-0.218118	1.744246	0.441420
H153	H	-0.651278	1.298423	0.000155
H154	H	-0.151278	1.798423	0.500155
H155	H	-0.488481	0.943737	0.000060
H156	H	0.011519	1.443737	0.500060
N157	N	0.260758	0.793916	0.000044
N158	N	0.760758	1.293916	0.500044
H159	H	0.305280	0.746631	0.000045
H160	H	0.805280	1.246631	0.500045
H161	H	0.264511	0.832433	0.058731
H162	H	0.764511	1.332433	0.558731
N163	N	-0.269620	0.869331	0.000059
N164	N	0.230380	1.369331	0.500059
H165	H	-0.329048	0.876265	0.000062
H166	H	0.170952	1.376265	0.500062
H167	H	-0.251277	0.835344	0.058747
H168	H	0.248723	1.335344	0.558747
H169	H	0.011725	1.167811	0.563383
H170	H	0.511725	1.667811	1.063383
N171	N	-0.002350	1.182848	0.242841
N172	N	0.497650	1.682848	0.742841
H173	H	-0.036071	1.218971	0.289532
H174	H	0.463929	1.718971	0.789532
H175	H	-0.037068	1.146125	0.201504
H176	H	0.462932	1.646125	0.701504
N177	N	0.218962	0.945872	0.757358
N178	N	0.718962	1.445872	1.257358
H179	H	0.252684	0.909742	0.710673
H180	H	0.752684	1.409742	1.210673
H181	H	0.188888	0.904192	0.798727
H182	H	0.688888	1.404192	1.298727
N183	N	0.218947	0.945831	0.550203
N184	N	0.718947	1.445831	1.050203
H185	H	0.252673	0.909717	0.596889
H186	H	0.752673	1.409717	1.096889
H187	H	0.253661	0.982548	0.508842
H188	H	0.753661	1.482548	1.008842
N189	N	0.218945	0.945828	0.449982
N190	N	0.718945	1.445828	0.949982
H191	H	0.274614	0.960101	0.432623
H192	H	0.774614	1.460101	0.932623
H193	H	0.209753	0.881718	0.432633
H194	H	0.709753	1.381718	0.932633
H195	H	0.236912	0.494942	0.000077
H196	H	0.736912	0.994942	0.500077
H197	H	-0.025067	0.345658	0.000127
H198	H	0.474933	0.845658	0.500127
H199	H	-0.636861	0.930114	0.000079
H200	H	-0.136861	1.430114	0.500079
