data_functionalizedCrystal
_audit_creation_method	'MofGen! by Chris Wilmer'
_symmetry_space_group_name_H-M	'P1'
_symmetry_Int_Tables_number	1
_symmetry_cell_setting	triclinic
loop_
_symmetry_equiv_pos_as_xyz
  x,y,z
_cell_length_a	19.805407
_cell_length_b	29.839131
_cell_length_c	19.805399
_cell_angle_alpha	89.970435
_cell_angle_beta	89.980427
_cell_angle_gamma	90.041420
loop_
_atom_site_label
_atom_site_type_symbol
_atom_site_fract_x
_atom_site_fract_y
_atom_site_fract_z
Zn1	Zn	1.034665	-0.178864	-0.382710
Zn2	Zn	1.534665	0.321136	0.117290
Zn3	Zn	1.034550	-0.253991	-0.269518
Zn4	Zn	1.534550	0.246009	0.230482
Zn5	Zn	0.921480	-0.178876	-0.269535
Zn6	Zn	1.421480	0.321124	0.230465
Zn7	Zn	0.921414	-0.253967	-0.382665
Zn8	Zn	1.421414	0.246033	0.117335
O9	O	0.978027	-0.216425	-0.326107
O10	O	1.478027	0.283575	0.173893
O11	O	1.129366	-0.188834	-0.367707
O12	O	1.629366	0.311166	0.132293
O13	O	1.019531	-0.244042	-0.174804
O14	O	1.519531	0.255958	0.325196
O15	O	0.936570	-0.116007	-0.284574
O16	O	1.436570	0.383993	0.215426
O17	O	1.129282	-0.244030	-0.284545
O18	O	1.629282	0.255970	0.215455
O19	O	1.019727	-0.115998	-0.367723
O20	O	1.519727	0.384002	0.132277
O21	O	0.936458	-0.188856	-0.174816
O22	O	1.436458	0.311144	0.325184
O23	O	0.826754	-0.188832	-0.284530
O24	O	1.326754	0.311168	0.215470
O25	O	0.936457	-0.243990	-0.477388
O26	O	1.436457	0.256010	0.022612
O27	O	0.826706	-0.244002	-0.367646
O28	O	1.326706	0.255998	0.132354
O29	O	1.019662	-0.188811	-0.477421
O30	O	1.519662	0.311189	0.022579
O31	O	1.019467	-0.316855	-0.284501
O32	O	1.519467	0.183145	0.215499
O33	O	0.936346	-0.316838	-0.367630
O34	O	1.436346	0.183162	0.132370
C35	C	0.802171	-0.216416	-0.326085
C36	C	1.302171	0.283584	0.173915
C37	C	0.726939	-0.216423	-0.326092
C38	C	1.226939	0.283577	0.173908
C39	C	0.977905	-0.333147	-0.326073
C40	C	1.477905	0.166853	0.173927
C41	C	0.977915	-0.383082	-0.326082
C42	C	1.477915	0.116918	0.173918
C43	C	0.691587	-0.245193	-0.369300
C44	C	1.191587	0.254807	0.130700
C45	C	0.620899	-0.245194	-0.369310
C46	C	1.120899	0.254806	0.130690
C47	C	0.585564	-0.216427	-0.326107
C48	C	1.085564	0.283573	0.173893
C49	C	0.620920	-0.187654	-0.282897
C50	C	1.120920	0.312346	0.217103
C51	C	0.691607	-0.187651	-0.282891
C52	C	1.191607	0.312349	0.217109
C53	C	0.335847	-0.187664	-0.282919
C54	C	0.835847	0.312336	0.217081
C55	C	0.265155	-0.187669	-0.282927
C56	C	0.765155	0.312331	0.217073
C57	C	0.265139	-0.245207	-0.369338
C58	C	0.765139	0.254793	0.130662
C59	C	0.335826	-0.245204	-0.369332
C60	C	0.835826	0.254796	0.130668
C61	C	0.371176	-0.216429	-0.326125
C62	C	0.871176	0.283571	0.173875
C63	C	0.447825	-0.216428	-0.326116
C64	C	0.947825	0.283572	0.173884
C65	C	0.508916	-0.216430	-0.326112
C66	C	1.008916	0.283570	0.173888
C67	C	1.021387	-0.692722	-0.282885
C68	C	1.521387	-0.192722	0.217115
C69	C	1.021471	-0.880395	-0.282912
C70	C	1.521471	-0.380395	0.217088
O71	O	1.058335	-0.904656	-0.246159
O72	O	1.558335	-0.404656	0.253841
N73	N	0.978168	-0.903867	-0.326158
N74	N	1.478168	-0.403867	0.173842
C75	C	0.934844	-0.880418	-0.369404
C76	C	1.434844	-0.380418	0.130596
O77	O	0.898019	-0.904688	-0.406194
O78	O	1.398019	-0.404688	0.093806
C79	C	0.934764	-0.692746	-0.369381
C80	C	1.434764	-0.192746	0.130619
C81	C	0.978065	-0.669276	-0.326127
C82	C	1.478065	-0.169276	0.173873
C83	C	1.064685	-0.669252	-0.239635
C84	C	1.564685	-0.169252	0.260365
C85	C	1.064661	-0.622336	-0.239626
C86	C	1.564661	-0.122336	0.260374
C87	C	1.021339	-0.598891	-0.282868
C88	C	1.521339	-0.098891	0.217132
C89	C	0.978041	-0.622360	-0.326118
C90	C	1.478041	-0.122360	0.173882
C91	C	0.891444	-0.669297	-0.412630
C92	C	1.391444	-0.169297	0.087370
C93	C	0.891429	-0.622376	-0.412621
C94	C	1.391429	-0.122376	0.087379
C95	C	0.934730	-0.598907	-0.369367
C96	C	1.434730	-0.098907	0.130633
C97	C	0.934695	-0.551999	-0.369351
C98	C	1.434695	-0.051999	0.130649
N99	N	0.977998	-0.528527	-0.326104
N100	N	1.477998	-0.028527	0.173896
C101	C	1.021320	-0.551973	-0.282863
C102	C	1.521320	-0.051973	0.217137
C103	C	0.934888	-0.978948	-0.369412
C104	C	1.434888	-0.478948	0.130588
C105	C	0.934907	-1.025866	-0.369418
C106	C	1.434907	-0.525866	0.130582
C107	C	1.021534	-1.025840	-0.282926
C108	C	1.521534	-0.525840	0.217074
C109	C	1.021512	-0.978921	-0.282918
C110	C	1.521512	-0.478921	0.217082
C111	C	0.978191	-0.955476	-0.326166
C112	C	1.478191	-0.455476	0.173834
C113	C	1.021266	-0.453447	-0.282847
C114	C	1.521266	0.046553	0.217153
C115	C	1.021237	-0.406527	-0.282840
C116	C	1.521237	0.093473	0.217160
C117	C	0.934611	-0.406558	-0.369334
C118	C	1.434611	0.093442	0.130666
C119	C	0.934638	-0.453473	-0.369339
C120	C	1.434638	0.046527	0.130661
C121	C	0.977971	-0.476917	-0.326093
C122	C	1.477971	0.023083	0.173907
O123	O	0.897855	-0.527708	-0.406090
O124	O	1.397855	-0.027708	0.093910
O125	O	1.058150	-0.527694	-0.246090
O126	O	1.558150	-0.027694	0.253910
C127	C	1.021411	-0.739637	-0.282894
C128	C	1.521411	-0.239637	0.217106
C129	C	0.978113	-0.763107	-0.326144
C130	C	1.478113	-0.263107	0.173856
C131	C	0.934791	-0.739661	-0.369386
C132	C	1.434791	-0.239661	0.130614
C133	C	0.978132	-0.810025	-0.326149
C134	C	1.478132	-0.310025	0.173851
C135	C	1.021454	-0.833470	-0.282908
C136	C	1.521454	-0.333470	0.217092
C137	C	1.064757	-0.809998	-0.239661
C138	C	1.564757	-0.309998	0.260339
C139	C	1.064733	-0.763083	-0.239653
C140	C	1.564733	-0.263083	0.260347
C141	C	0.891488	-0.763133	-0.412632
C142	C	1.391488	-0.263133	0.087368
C143	C	0.891515	-0.810049	-0.412637
C144	C	1.391515	-0.310049	0.087363
C145	C	0.934837	-0.833494	-0.369395
C146	C	1.434837	-0.333494	0.130605
C147	C	1.154570	-0.216434	-0.326129
C148	C	1.654570	0.283566	0.173871
C149	C	1.229802	-0.216437	-0.326139
C150	C	1.729802	0.283563	0.173861
C151	C	0.978065	-0.216396	-0.502650
C152	C	1.478065	0.283604	-0.002650
C153	C	0.978081	-0.216384	-0.577882
C154	C	1.478081	0.283616	-0.077882
C155	C	0.978168	-0.099246	-0.326156
C156	C	1.478168	0.400754	0.173844
C157	C	0.978228	-0.049312	-0.326176
C158	C	1.478228	0.450688	0.173824
C159	C	1.021407	-0.187652	-0.613244
C160	C	1.521407	0.312348	-0.113244
C161	C	1.021414	-0.187638	-0.683933
C162	C	1.521414	0.312362	-0.183933
C163	C	0.978098	-0.216361	-0.719258
C164	C	1.478098	0.283639	-0.219258
C165	C	0.934767	-0.245095	-0.683890
C166	C	1.434767	0.254905	-0.183890
C167	C	0.934757	-0.245105	-0.613203
C168	C	1.434757	0.254895	-0.113203
C169	C	0.934806	-0.245053	-0.968963
C170	C	1.434806	0.254947	-0.468963
C171	C	0.934820	-0.245041	-1.039656
C172	C	1.434820	0.254959	-0.539656
C173	C	1.021462	-0.187586	-1.039694
C174	C	1.521462	0.312414	-0.539694
C175	C	1.021453	-0.187597	-0.969006
C176	C	1.521453	0.312403	-0.469006
C177	C	0.978120	-0.216329	-0.933645
C178	C	1.478120	0.283671	-0.433645
C179	C	0.978112	-0.216342	-0.856997
C180	C	1.478112	0.283658	-0.356997
C181	C	0.978109	-0.216350	-0.795905
C182	C	1.478109	0.283650	-0.295905
C183	C	0.978028	-0.216420	-0.150251
C184	C	1.478028	0.283580	0.349749
C185	C	0.978143	-0.216306	-0.075019
C186	C	1.478143	0.283694	0.424981
H187	H	0.720352	-0.268620	-0.404479
H188	H	1.220352	0.231380	0.095521
O189	O	0.892667	-0.476325	-0.411383
O190	O	1.392667	0.023675	0.088617
C191	C	0.883541	-0.529241	-0.502799
C192	C	1.383541	-0.029241	-0.002799
C193	C	0.931143	-0.503401	-0.455211
C194	C	1.431143	-0.003401	0.044789
H195	H	0.914630	-0.551130	-0.538255
H196	H	1.414630	-0.051130	-0.038255
H197	H	0.848192	-0.551277	-0.471734
H198	H	1.348192	-0.051277	0.028266
H199	H	0.852555	-0.504415	-0.533670
H200	H	1.352555	-0.004415	-0.033670
H201	H	0.962173	-0.528194	-0.424329
H202	H	1.462173	-0.028194	0.075671
H203	H	0.966448	-0.481357	-0.486315
H204	H	1.466448	0.018643	0.013685
H205	H	1.099993	-0.743977	-0.204431
H206	H	1.599993	-0.243977	0.295569
H207	H	0.899496	-0.268480	-0.712657
H208	H	1.399496	0.231520	-0.212657
H209	H	1.056696	-0.164242	-0.712722
H210	H	1.556696	0.335758	-0.212722
H211	H	0.899640	-1.044971	-0.404633
H212	H	1.399640	-0.544971	0.095367
O213	O	0.892658	-0.273065	-0.578954
O214	O	1.392658	0.226935	-0.078954
C215	C	0.806706	-0.330045	-0.586372
C216	C	1.306706	0.169955	-0.086372
C217	C	0.854359	-0.298410	-0.625241
C218	C	1.354359	0.201590	-0.125241
H219	H	0.775719	-0.350538	-0.623778
H220	H	1.275719	0.149462	-0.123778
H221	H	0.837723	-0.353570	-0.553296
H222	H	1.337723	0.146430	-0.053296
H223	H	0.771360	-0.309420	-0.553257
H224	H	1.271360	0.190580	-0.053257
H225	H	0.889714	-0.318998	-0.658393
H226	H	1.389714	0.181002	-0.158393
H227	H	0.823299	-0.274883	-0.658274
H228	H	1.323299	0.225117	-0.158274
H229	H	0.364621	-0.164237	-0.247732
H230	H	0.864621	0.335763	0.252268
H231	H	0.592119	-0.268622	-0.404494
H232	H	1.092119	0.231378	0.095506
O233	O	0.370223	-0.273085	-0.411335
O234	O	0.870223	0.226915	0.088665
C235	C	0.450030	-0.279198	-0.502725
C236	C	0.950030	0.220802	-0.002725
C237	C	0.411131	-0.247574	-0.455185
C238	C	0.911131	0.252426	0.044815
H239	H	0.483103	-0.258584	-0.538199
H240	H	0.983103	0.241416	-0.038199
H241	H	0.483135	-0.302654	-0.471623
H242	H	0.983135	0.197346	0.028377
H243	H	0.412606	-0.299770	-0.533580
H244	H	0.912606	0.200230	-0.033580
H245	H	0.448506	-0.226973	-0.424320
H246	H	0.948506	0.273027	0.075680
H247	H	0.378016	-0.224147	-0.486325
H248	H	0.878016	0.275853	0.013675
O249	O	1.063455	-0.159623	-1.074075
O250	O	1.563455	0.340377	-0.574075
C251	C	1.072650	-0.098971	-1.153935
C252	C	1.572650	0.401029	-0.653935
C253	C	1.025017	-0.130602	-1.115032
C254	C	1.525017	0.369398	-0.615032
H255	H	1.041593	-0.075506	-1.187068
H256	H	1.541593	0.424494	-0.687068
H257	H	1.103597	-0.078413	-1.116574
H258	H	1.603597	0.421587	-0.616574
H259	H	1.108035	-0.119602	-1.186999
H260	H	1.608035	0.380398	-0.686999
H261	H	0.989592	-0.110006	-1.081967
H262	H	1.489592	0.389994	-0.581967
H263	H	0.994118	-0.151161	-1.152429
H264	H	1.494118	0.348839	-0.652429
H265	H	0.236348	-0.268634	-0.404522
H266	H	0.736348	0.231366	0.095478
O267	O	0.230934	-0.159679	-0.240939
O268	O	0.730934	0.340321	0.259061
C269	C	0.238405	-0.102621	-0.155205
C270	C	0.738405	0.397379	0.344795
C271	C	0.277245	-0.134287	-0.202730
C272	C	0.777245	0.365713	0.297270
H273	H	0.275831	-0.082090	-0.124291
H274	H	0.775831	0.417910	0.375709
H275	H	0.205364	-0.079132	-0.186320
H276	H	0.705364	0.420868	0.313680
H277	H	0.205259	-0.123224	-0.119786
H278	H	0.705259	0.376776	0.380214
H279	H	0.310428	-0.113720	-0.238158
H280	H	0.810428	0.386280	0.261842
H281	H	0.310243	-0.157777	-0.171573
H282	H	0.810243	0.342223	0.328427
H283	H	0.899531	-0.268455	-0.940181
H284	H	1.399531	0.231545	-0.440181
H285	H	0.592145	-0.164229	-0.247723
H286	H	1.092145	0.335771	0.252277
O287	O	0.725846	-0.159692	-0.240850
O288	O	1.225846	0.340308	0.259150
C289	C	0.718406	-0.102606	-0.155163
C290	C	1.218406	0.397394	0.344837
C291	C	0.679549	-0.134255	-0.202728
C292	C	1.179549	0.365745	0.297272
H293	H	0.680993	-0.082025	-0.124339
H294	H	1.180993	0.417975	0.375661
H295	H	0.751446	-0.123179	-0.119668
H296	H	1.251446	0.376821	0.380332
H297	H	0.751556	-0.079160	-0.186309
H298	H	1.251556	0.420840	0.313691
H299	H	0.646363	-0.157708	-0.171636
H300	H	1.146363	0.342292	0.328364
H301	H	0.646553	-0.113654	-0.238225
H302	H	1.146553	0.386346	0.261775
H303	H	1.056683	-0.164264	-0.584488
H304	H	1.556683	0.335736	-0.084488
O305	O	0.892803	-0.272929	-1.074076
O306	O	1.392803	0.227071	-0.574076
C307	C	0.854401	-0.298357	-1.182959
C308	C	1.354401	0.201643	-0.682959
C309	C	0.902024	-0.266761	-1.144062
C310	C	1.402024	0.233239	-0.644062
H311	H	0.861829	-0.293375	-1.239549
H312	H	1.361829	0.206625	-0.739549
H313	H	0.866238	-0.334596	-1.169096
H314	H	1.366238	0.165404	-0.669096
H315	H	0.799837	-0.290471	-1.169018
H316	H	1.299837	0.209529	-0.669018
H317	H	0.956604	-0.274606	-1.157982
H318	H	1.456604	0.225394	-0.657982
H319	H	0.890128	-0.230532	-1.157928
H320	H	1.390128	0.269468	-0.657928
O321	O	1.063366	-0.383799	-0.240801
O322	O	1.563366	0.116201	0.259199
C323	C	1.149261	-0.388733	-0.154984
C324	C	1.649261	0.111267	0.345016
C325	C	1.101597	-0.414526	-0.202568
C326	C	1.601597	0.085474	0.297432
H327	H	1.180173	-0.413565	-0.124050
H328	H	1.680173	0.086435	0.375950
H329	H	1.184670	-0.366742	-0.186054
H330	H	1.684670	0.133258	0.313946
H331	H	1.118187	-0.366792	-0.119587
H332	H	1.618187	0.133208	0.380413
H333	H	1.132617	-0.436492	-0.237975
H334	H	1.632617	0.063508	0.262025
H335	H	1.066186	-0.436490	-0.171455
H336	H	1.566186	0.063510	0.328545
H337	H	1.056554	-0.472529	-0.247634
H338	H	1.556554	0.027471	0.252366
O339	O	1.106698	-0.599592	-0.197521
O340	O	1.606698	-0.099592	0.302479
C341	C	1.139608	-0.585253	-0.082416
C342	C	1.639608	-0.085253	0.417584
C343	C	1.091963	-0.611042	-0.130024
C344	C	1.591963	-0.111042	0.369976
H345	H	1.127703	-0.594493	-0.027835
H346	H	1.627703	-0.094493	0.472165
H347	H	1.194190	-0.594451	-0.094308
H348	H	1.694190	-0.094451	0.405692
H349	H	1.132174	-0.547692	-0.089866
H350	H	1.632174	-0.047692	0.410134
H351	H	1.099337	-0.648608	-0.122601
H352	H	1.599337	-0.148608	0.377399
H353	H	1.037400	-0.601806	-0.118121
H354	H	1.537400	-0.101806	0.381879
O355	O	1.106882	-0.692028	-0.197744
O356	O	1.606882	-0.192028	0.302256
C357	C	1.198342	-0.744907	-0.188778
C358	C	1.698342	-0.244907	0.311222
C359	C	1.150583	-0.719148	-0.236291
C360	C	1.650583	-0.219148	0.263709
H361	H	1.233677	-0.766847	-0.219923
H362	H	1.733677	-0.266847	0.280077
H363	H	1.229328	-0.720069	-0.157911
H364	H	1.729328	-0.220069	0.342089
H365	H	1.167340	-0.766900	-0.153314
H366	H	1.667340	-0.266900	0.346686
H367	H	1.181533	-0.697155	-0.271796
H368	H	1.681533	-0.197155	0.228204
H369	H	1.119595	-0.744010	-0.267110
H370	H	1.619595	-0.244010	0.232890
O371	O	1.063640	-0.956194	-0.240882
O372	O	1.563640	-0.456194	0.259118
C373	C	1.149530	-0.961133	-0.155061
C374	C	1.649530	-0.461133	0.344939
C375	C	1.101864	-0.986923	-0.202645
C376	C	1.601864	-0.486923	0.297355
H377	H	1.180437	-0.985966	-0.124125
H378	H	1.680437	-0.485966	0.375875
H379	H	1.184944	-0.939145	-0.186131
H380	H	1.684944	-0.439145	0.313869
H381	H	1.118458	-0.939188	-0.119667
H382	H	1.618458	-0.439188	0.380333
H383	H	1.132881	-1.008892	-0.238050
H384	H	1.632881	-0.508892	0.261950
H385	H	1.066448	-1.008883	-0.171533
H386	H	1.566448	-0.508883	0.328467
O387	O	0.892733	-0.956247	-0.411443
O388	O	1.392733	-0.456247	0.088557
C389	C	0.806834	-0.961237	-0.497251
C390	C	1.306834	-0.461237	0.002749
C391	C	0.854532	-0.986999	-0.449679
C392	C	1.354532	-0.486999	0.050321
H393	H	0.775945	-0.986089	-0.528187
H394	H	1.275945	-0.486089	-0.028187
H395	H	0.771405	-0.939321	-0.466172
H396	H	1.271405	-0.439321	0.033828
H397	H	0.837881	-0.939223	-0.532647
H398	H	1.337881	-0.439223	-0.032647
H399	H	0.823539	-1.009037	-0.414274
H400	H	1.323539	-0.509037	0.085726
H401	H	0.889962	-1.008887	-0.480800
H402	H	1.389962	-0.508887	0.019200
H403	H	1.056809	-1.044937	-0.247717
H404	H	1.556809	-0.544937	0.252283
H405	H	0.856153	-0.603290	-0.447842
H406	H	1.356153	-0.103290	0.052158
O407	O	0.849362	-0.692019	-0.454714
O408	O	1.349362	-0.192019	0.045286
C409	C	0.763421	-0.687073	-0.540483
C410	C	1.263421	-0.187073	-0.040483
C411	C	0.811058	-0.661286	-0.492865
C412	C	1.311058	-0.161286	0.007135
H413	H	0.732430	-0.662237	-0.571330
H414	H	1.232430	-0.162237	-0.071330
H415	H	0.794453	-0.708989	-0.575955
H416	H	1.294453	-0.208989	-0.075955
H417	H	0.728079	-0.709088	-0.509378
H418	H	1.228079	-0.209088	-0.009378
H419	H	0.846409	-0.639247	-0.523916
H420	H	1.346409	-0.139247	-0.023916
H421	H	0.779984	-0.639398	-0.457391
H422	H	1.279984	-0.139398	0.042609
H423	H	0.899337	-0.387461	-0.404539
H424	H	1.399337	0.112539	0.095461
H425	H	1.100029	-0.829096	-0.204451
H426	H	1.600029	-0.329096	0.295549
H427	H	0.856248	-0.829154	-0.447859
H428	H	1.356248	-0.329154	0.052141
O429	O	1.063551	-0.159653	-0.934798
O430	O	1.563551	0.340347	-0.434798
C431	C	1.149517	-0.102678	-0.942298
C432	C	1.649517	0.397322	-0.442298
C433	C	1.101866	-0.134296	-0.981121
C434	C	1.601866	0.365704	-0.481121
H435	H	1.180517	-0.082175	-0.979734
H436	H	1.680517	0.417825	-0.479734
H437	H	1.118496	-0.079161	-0.909227
H438	H	1.618496	0.420839	-0.409227
H439	H	1.184850	-0.123318	-0.909182
H440	H	1.684850	0.376682	-0.409182
H441	H	1.066524	-0.113693	-1.014273
H442	H	1.566524	0.386307	-0.514273
H443	H	1.132929	-0.157814	-1.014149
H444	H	1.632929	0.342186	-0.514149
H445	H	0.856211	-0.744047	-0.447845
H446	H	1.356211	-0.244047	0.052155
