data_functionalizedCrystal
_audit_creation_method	'MofGen! by Chris Wilmer'
_symmetry_space_group_name_H-M	'P1'
_symmetry_Int_Tables_number	1
_symmetry_cell_setting	triclinic
loop_
_symmetry_equiv_pos_as_xyz
  x,y,z
_cell_length_a	23.532361
_cell_length_b	23.532407
_cell_length_c	22.010155
_cell_angle_alpha	90.000423
_cell_angle_beta	90.004127
_cell_angle_gamma	82.839173
loop_
_atom_site_label
_atom_site_type_symbol
_atom_site_fract_x
_atom_site_fract_y
_atom_site_fract_z
O1	O	0.755281	0.069001	0.050470
O2	O	1.255281	0.569001	0.550470
O3	O	0.589414	0.079032	0.050486
O4	O	1.089414	0.579032	0.550486
O5	O	0.677349	-0.008916	0.050466
O6	O	1.177349	0.491084	0.550466
O7	O	0.667346	0.156949	0.050490
O8	O	1.167346	0.656949	0.550490
O9	O	0.677333	-0.008903	-0.050584
O10	O	1.177333	0.491097	0.449416
O11	O	0.589398	0.079045	-0.050565
O12	O	1.089398	0.579045	0.449435
O13	O	0.755265	0.069014	-0.050580
O14	O	1.255265	0.569014	0.449420
Cu15	Cu	0.672330	0.074030	-0.059799
Cu16	Cu	1.172330	0.574030	0.440201
Cu17	Cu	0.672349	0.074015	0.059705
Cu18	Cu	1.172349	0.574015	0.559705
O19	O	0.667330	0.156962	-0.050561
O20	O	1.167330	0.656962	0.449439
C21	C	0.568189	0.078787	-0.000038
C22	C	1.068189	0.578787	0.499962
C23	C	0.504971	0.078032	-0.000032
C24	C	1.004971	0.578032	0.499968
C25	C	0.231736	0.074721	0.055046
C26	C	0.731736	0.574721	0.555046
C27	C	0.291136	0.075436	0.055048
C28	C	0.791136	0.575436	0.555048
O29	O	0.321869	0.075780	0.101892
O30	O	0.821869	0.575780	0.601892
N31	N	0.320832	0.075804	-0.000035
N32	N	0.820832	0.575804	0.499965
C33	C	0.291127	0.075452	-0.055123
C34	C	0.791127	0.575452	0.444877
O35	O	0.321841	0.075830	-0.101975
O36	O	0.821841	0.575830	0.398025
C37	C	0.231729	0.074733	-0.055124
C38	C	0.731729	0.574733	0.444876
C39	C	0.202035	0.074370	-0.000037
C40	C	0.702035	0.574370	0.499963
C41	C	0.202041	0.074358	0.110128
C42	C	0.702041	0.574358	0.610128
C43	C	0.142645	0.073644	0.110126
C44	C	0.642645	0.573644	0.610126
C45	C	0.112944	0.073293	0.055043
C46	C	0.612944	0.573293	0.555043
C47	C	0.142639	0.073657	-0.000039
C48	C	0.642639	0.573657	0.499961
C49	C	0.202026	0.074376	-0.110211
C50	C	0.702026	0.574376	0.389789
C51	C	0.142624	0.073657	-0.110207
C52	C	0.642624	0.573657	0.389793
C53	C	0.112929	0.073294	-0.055121
C54	C	0.612929	0.573294	0.444879
C55	C	0.053542	0.072592	-0.055125
C56	C	0.553542	0.572592	0.444875
N57	N	0.023845	0.072224	-0.000042
N58	N	0.523845	0.572224	0.499958
C59	C	0.053546	0.072574	0.055042
C60	C	0.553546	0.572574	0.555042
C61	C	0.415868	0.076961	-0.055117
C62	C	0.915868	0.576961	0.444883
C63	C	0.475264	0.077684	-0.055116
C64	C	0.975264	0.577684	0.444884
C65	C	0.475268	0.077667	0.055055
C66	C	0.975268	0.577667	0.555055
C67	C	0.415870	0.076948	0.055054
C68	C	0.915870	0.576948	0.555054
C69	C	0.386171	0.076593	-0.000034
C70	C	0.886171	0.576593	0.499966
C71	C	-0.071190	0.071076	0.055034
C72	C	0.428810	0.571076	0.555034
C73	C	-0.130591	0.070364	0.055027
C74	C	0.369409	0.570364	0.555027
C75	C	-0.130589	0.070378	-0.055144
C76	C	0.369411	0.570378	0.444856
C77	C	-0.071194	0.071093	-0.055137
C78	C	0.428806	0.571093	0.444863
C79	C	-0.041495	0.071440	-0.000044
C80	C	0.458505	0.571440	0.499956
O81	O	0.022771	0.072245	-0.101945
O82	O	0.522771	0.572245	0.398055
O83	O	0.022826	0.072188	0.101886
O84	O	0.522826	0.572188	0.601886
C85	C	0.677086	-0.030126	-0.000060
C86	C	1.177086	0.469874	0.499940
C87	C	0.676320	-0.093343	-0.000065
C88	C	1.176320	0.406657	0.499935
C89	C	0.723555	-0.492454	-0.000036
C90	C	1.223555	0.007546	0.499964
C91	C	0.722844	-0.551854	-0.000031
C92	C	1.222844	-0.051854	0.499969
O93	O	0.766630	-0.588606	-0.000013
O94	O	1.266630	-0.088606	0.499987
N95	N	0.670566	-0.574471	-0.000027
N96	N	1.170566	-0.074471	0.499973
C97	C	0.618997	-0.537685	-0.000021
C98	C	1.118997	-0.037685	0.499979
O99	O	0.574465	-0.562377	-0.000016
O100	O	1.074465	-0.062377	0.499984
C101	C	0.619709	-0.478286	-0.000021
C102	C	1.119709	0.021714	0.499979
C103	C	0.671990	-0.455672	-0.000032
C104	C	1.171990	0.044328	0.499968
C105	C	0.775832	-0.469839	-0.000046
C106	C	1.275832	0.030161	0.499954
C107	C	0.776543	-0.410443	-0.000052
C108	C	1.276543	0.089557	0.499948
C109	C	0.724977	-0.373662	-0.000048
C110	C	1.224977	0.126338	0.499952
C111	C	0.672701	-0.396276	-0.000038
C112	C	1.172701	0.103724	0.499962
C113	C	0.568140	-0.441501	-0.000011
C114	C	1.068140	0.058499	0.499989
C115	C	0.568857	-0.382099	-0.000011
C116	C	1.068857	0.117901	0.499989
C117	C	0.621137	-0.359485	-0.000021
C118	C	1.121137	0.140515	0.499979
C119	C	0.621847	-0.300099	-0.000039
C120	C	1.121847	0.199901	0.499961
N121	N	0.674124	-0.277481	-0.000044
N122	N	1.174124	0.222519	0.499956
C123	C	0.725690	-0.314263	-0.000048
C124	C	1.225690	0.185737	0.499952
C125	C	0.617505	-0.662427	-0.000019
C126	C	1.117505	-0.162427	0.499981
C127	C	0.616793	-0.721825	-0.000023
C128	C	1.116793	-0.221825	0.499977
C129	C	0.720640	-0.735990	-0.000032
C130	C	1.220640	-0.235990	0.499968
C131	C	0.721352	-0.676591	-0.000033
C132	C	1.221352	-0.176591	0.499967
C133	C	0.669783	-0.639810	-0.000024
C134	C	1.169783	-0.139810	0.499976
C135	C	0.727179	-0.189526	-0.000061
C136	C	1.227179	0.310474	0.499939
C137	C	0.727886	-0.130124	-0.000069
C138	C	1.227886	0.369876	0.499931
C139	C	0.624039	-0.115965	-0.000057
C140	C	1.124039	0.384035	0.499943
C141	C	0.623332	-0.175361	-0.000051
C142	C	1.123332	0.324639	0.499949
C143	C	0.674907	-0.212141	-0.000051
C144	C	1.174907	0.287859	0.499949
O145	O	0.578083	-0.263312	-0.000055
O146	O	1.078083	0.236688	0.499945
O147	O	0.770214	-0.289562	-0.000045
O148	O	1.270214	0.210438	0.499955
C149	C	0.776489	0.069258	-0.000055
C150	C	1.276489	0.569258	0.499945
C151	C	0.839708	0.070014	-0.000057
C152	C	1.339708	0.570014	0.499943
C153	C	0.667592	0.178171	-0.000033
C154	C	1.167592	0.678171	0.499967
C155	C	0.668358	0.241388	-0.000024
C156	C	1.168358	0.741388	0.499976
N157	N	0.672321	0.074041	-0.143851
N158	N	1.172321	0.574041	0.356149
C159	C	0.711289	0.035077	-0.563639
C160	C	1.211289	0.535077	-0.063639
C161	C	0.711291	0.035073	-0.627247
C162	C	1.211291	0.535073	-0.127247
O163	O	0.744400	0.001952	-0.660146
O164	O	1.244400	0.501952	-0.160146
N165	N	0.672349	0.074003	-0.659059
N166	N	1.172349	0.574003	-0.159059
C167	C	0.633397	0.112935	-0.627259
C168	C	1.133397	0.612935	-0.127259
O169	O	0.600272	0.146048	-0.660158
O170	O	1.100272	0.646048	-0.160158
C171	C	0.633392	0.112936	-0.563653
C172	C	1.133392	0.612936	-0.063653
C173	C	0.672341	0.074008	-0.531845
C174	C	1.172341	0.574008	-0.031845
C175	C	0.750235	-0.003849	-0.531831
C176	C	1.250235	0.496151	-0.031831
C177	C	0.750232	-0.003844	-0.468228
C178	C	1.250232	0.496156	0.031772
C179	C	0.711285	0.035087	-0.436433
C180	C	1.211285	0.535087	0.063567
C181	C	0.672339	0.074012	-0.468241
C182	C	1.172339	0.574012	0.031759
C183	C	0.594437	0.151866	-0.531855
C184	C	1.094437	0.651866	-0.031855
C185	C	0.594436	0.151863	-0.468244
C186	C	1.094436	0.651863	0.031756
C187	C	0.633385	0.112934	-0.436436
C188	C	1.133385	0.612934	0.063564
C189	C	0.633389	0.112948	-0.372843
C190	C	1.133389	0.612948	0.127157
N191	N	0.672332	0.074018	-0.341032
N192	N	1.172332	0.574018	0.158968
C193	C	0.711280	0.035087	-0.372827
C194	C	1.211280	0.535087	0.127173
C195	C	0.633409	0.112930	-0.760837
C196	C	1.133409	0.612930	-0.260837
C197	C	0.633416	0.112933	-0.824442
C198	C	1.133416	0.612933	-0.324442
C199	C	0.711311	0.035069	-0.824426
C200	C	1.211311	0.535069	-0.324426
C201	C	0.711306	0.035070	-0.760819
C202	C	1.211306	0.535070	-0.260819
C203	C	0.672352	0.074000	-0.729025
C204	C	1.172352	0.574000	-0.229025
C205	C	0.711273	0.035101	-0.239255
C206	C	1.211273	0.535101	0.260745
C207	C	0.711269	0.035110	-0.175646
C208	C	1.211269	0.535110	0.324354
C209	C	0.633373	0.112971	-0.175669
C210	C	1.133373	0.612971	0.324331
C211	C	0.633378	0.112964	-0.239272
C212	C	1.133378	0.612964	0.260728
C213	C	0.672331	0.074024	-0.271064
C214	C	1.172331	0.574024	0.228936
O215	O	0.600295	0.146051	-0.339904
O216	O	1.100295	0.646051	0.160096
O217	O	0.744393	0.001976	-0.339920
O218	O	1.244393	0.501976	0.160080
N219	N	0.672362	0.074000	0.143757
N220	N	1.172362	0.574000	0.643757
H221	H	0.499435	0.077988	-0.099973
H222	H	0.999435	0.577988	0.400027
H223	H	0.562721	0.183564	-0.557744
H224	H	1.062721	0.683564	-0.057744
H225	H	-0.154766	0.070071	0.099887
H226	H	0.345234	0.570071	0.599887
F227	F	0.832188	-0.386384	-0.000050
F228	F	1.332188	0.113616	0.499950
H229	H	0.580761	-0.193774	-0.000060
H230	H	1.080761	0.306226	0.499940
F231	F	0.752727	-0.006323	-0.141797
F232	F	1.252727	0.493677	0.358203
H233	H	0.601690	0.144637	-0.734954
H234	H	1.101690	0.644637	-0.234954
F235	F	0.562614	-0.623286	-0.000015
F236	F	1.062614	-0.123286	0.499985
H237	H	0.769176	-0.219466	-0.000058
H238	H	1.269176	0.280534	0.499942
H239	H	-0.154783	0.070095	-0.099991
H240	H	0.345217	0.570095	0.400009
H241	H	0.562713	0.183564	-0.442360
H242	H	1.062713	0.683564	0.057640
H243	H	0.601663	0.144670	-0.149771
H244	H	1.101663	0.644670	0.350229
H245	H	0.118445	0.073372	-0.155067
H246	H	0.618445	0.573372	0.344933
H247	H	0.743021	0.003371	-0.734925
H248	H	1.243021	0.503371	-0.234925
F249	F	0.512495	-0.465555	0.000003
F250	F	1.012495	0.034445	0.500003
H251	H	0.743023	0.003369	-0.850325
H252	H	1.243023	0.503369	-0.350325
F253	F	0.830720	-0.508977	-0.000050
F254	F	1.330720	-0.008977	0.499950
H255	H	0.499462	0.077952	0.099907
H256	H	0.999462	0.577952	0.599907
H257	H	0.226218	0.074642	0.154986
H258	H	0.726218	0.574642	0.654986
F259	F	0.591968	0.154373	-0.858289
F260	F	1.091968	0.654373	-0.358289
F261	F	-0.039590	0.071486	-0.113766
F262	F	0.460410	0.571486	0.386234
H263	H	0.118474	0.073346	0.154983
H264	H	0.618474	0.573346	0.654983
H265	H	0.601668	0.144669	-0.265171
H266	H	1.101668	0.644669	0.234829
F267	F	-0.039590	0.071445	0.113670
F268	F	0.460410	0.571445	0.613670
F269	F	0.776995	-0.652529	-0.000044
F270	F	1.276995	-0.152529	0.499956
F271	F	0.233616	0.074762	-0.168843
F272	F	0.733616	0.574762	0.331157
F273	F	0.384272	0.076561	0.113683
F274	F	0.884272	0.576561	0.613683
H275	H	0.781951	-0.035553	-0.557713
H276	H	1.281951	0.464447	-0.057713
F277	F	0.384263	0.076589	-0.113752
F278	F	0.884263	0.576589	0.386248
F279	F	0.783533	-0.106061	-0.000080
F280	F	1.283533	0.393939	0.499920
F281	F	0.775521	-0.775146	-0.000034
F282	F	1.275521	-0.275146	0.499966
H283	H	0.574220	-0.740232	-0.000025
H284	H	1.074220	-0.240232	0.499975
H285	H	0.526862	-0.352154	-0.000003
H286	H	1.026862	0.147846	0.499997
F287	F	0.752730	-0.006344	-0.273081
F288	F	1.252730	0.493656	0.226919
F289	F	0.569162	-0.076809	-0.000052
F290	F	1.069162	0.423191	0.499948
F291	F	0.791685	-0.045279	-0.434381
F292	F	1.291685	0.454721	0.065619
