data_functionalizedCrystal
_audit_creation_method	'MofGen! by Chris Wilmer'
_symmetry_space_group_name_H-M	'P1'
_symmetry_Int_Tables_number	1
_symmetry_cell_setting	triclinic
loop_
_symmetry_equiv_pos_as_xyz
  x,y,z
_cell_length_a	15.538191
_cell_length_b	15.625950
_cell_length_c	9.798715
_cell_angle_alpha	108.069955
_cell_angle_beta	89.999848
_cell_angle_gamma	66.741480
loop_
_atom_site_label
_atom_site_type_symbol
_atom_site_fract_x
_atom_site_fract_y
_atom_site_fract_z
O1	O	0.123018	1.155820	0.458342
O2	O	0.137643	0.888590	0.326134
O3	O	-0.006727	1.074224	0.417967
O4	O	0.267388	0.970186	0.366509
O5	O	-0.006728	1.074214	0.644944
O6	O	0.137642	0.888580	0.553111
O7	O	0.123017	1.155811	0.685319
Zn8	Zn	0.130329	1.022194	0.655253
Zn9	Zn	0.130330	1.022206	0.356200
O10	O	0.267387	0.970177	0.593486
C11	C	0.136976	0.855219	0.423115
C12	C	0.134980	0.755803	0.373930
C13	C	0.128466	0.428700	0.830617
C14	C	0.126609	0.335275	0.784333
C15	C	0.126611	0.335332	0.536914
C16	C	0.128472	0.428757	0.583177
C17	C	0.129398	0.475434	0.730030
C18	C	0.129405	0.475490	0.482589
C19	C	0.131261	0.568909	0.528850
C20	C	0.132185	0.615594	0.675697
C21	C	0.131255	0.568853	0.776290
C22	C	0.128472	0.428814	0.335738
C23	C	0.129405	0.475548	0.235151
C24	C	0.131268	0.568965	0.281409
C25	C	0.132191	0.615650	0.428257
C26	C	0.132198	0.615707	0.180816
C27	C	0.134054	0.709126	0.227076
C28	C	0.134048	0.709069	0.474517
C29	C	-0.041808	1.085104	0.536836
C30	C	-0.146337	1.117527	0.552863
C31	C	-0.434573	0.795414	0.393532
C32	C	-0.532797	0.825903	0.408619
C33	C	-0.555002	0.997396	0.493462
C34	C	-0.456779	0.966921	0.478376
C35	C	-0.396571	0.865929	0.428412
C36	C	-0.418777	1.037437	0.513255
C37	C	-0.320562	1.006964	0.498177
C38	C	-0.260348	0.905976	0.448219
C39	C	-0.298356	0.835456	0.413333
C40	C	-0.478986	1.138429	0.563229
C41	C	-0.440985	1.208944	0.598108
C42	C	-0.342768	1.178472	0.583020
C43	C	-0.282554	1.077484	0.533062
C44	C	-0.304760	1.248992	0.617906
C45	C	-0.206545	1.218519	0.602828
C46	C	-0.184339	1.047011	0.517984
C47	C	0.302468	0.959297	0.474614
C48	C	0.406997	0.926874	0.458578
C49	C	0.123683	1.189181	0.588335
C50	C	0.125679	1.288597	0.637511
N51	N	0.130328	1.022193	0.859352
N52	N	0.130325	1.022217	0.152106
C53	C	0.069579	1.100322	1.122934
C54	C	0.069580	1.100309	0.965765
H55	H	0.133695	0.691662	0.713360
F56	F	0.135044	0.758747	0.630814
F57	F	0.125600	0.285656	0.380633
H58	H	-0.135314	0.964773	0.477288
F59	F	0.001597	1.187711	0.932786
F60	F	0.198304	0.934781	0.892318
H61	H	0.128646	0.437532	0.115583
F62	F	0.126473	0.329399	0.286512
H63	H	-0.175604	1.275940	0.631232
H64	H	-0.385548	0.713175	0.352836
F65	F	0.198309	0.934803	1.032671
H66	H	0.132023	0.606854	0.895870
F67	F	-0.619089	1.104876	0.546646
H68	H	0.131434	0.577692	0.061250
H69	H	0.134819	0.747175	0.145167
H70	H	-0.249331	0.753218	0.372637
F71	F	0.125603	0.285547	0.891407
F72	F	-0.155817	0.873544	0.432182
F73	F	0.129462	0.478378	0.986914
H74	H	-0.563732	0.768473	0.380232
H75	H	0.017575	1.167203	1.214314
H76	H	-0.558959	1.163236	0.575491
H77	H	-0.490018	1.291172	0.638794
F78	F	-0.368848	1.356471	0.671102
