data_functionalizedCrystal
_audit_creation_method	'MofGen! by Chris Wilmer'
_symmetry_space_group_name_H-M	'P1'
_symmetry_Int_Tables_number	1
_symmetry_cell_setting	triclinic
loop_
_symmetry_equiv_pos_as_xyz
  x,y,z
_cell_length_a	17.699083
_cell_length_b	9.730217
_cell_length_c	17.699083
_cell_angle_alpha	90.005994
_cell_angle_beta	83.283015
_cell_angle_gamma	89.997695
loop_
_atom_site_label
_atom_site_type_symbol
_atom_site_fract_x
_atom_site_fract_y
_atom_site_fract_z
O1	O	1.004075	0.114100	0.095712
O2	O	0.783697	0.114145	0.108164
O3	O	0.900112	0.114109	-0.008251
O4	O	0.887659	0.114136	0.212127
O5	O	0.900104	-0.114471	-0.008256
O6	O	0.783688	-0.114435	0.108160
O7	O	1.004067	-0.114480	0.095707
Zn8	Zn	0.893876	-0.150749	0.101933
Zn9	Zn	0.893887	0.150415	0.101939
O10	O	0.887651	-0.114444	0.212123
C11	C	0.755495	-0.000139	0.107716
C12	C	0.671477	-0.000122	0.106377
N13	N	0.893874	-0.356286	0.101928
C14	C	0.622856	-0.000114	0.174710
C15	C	0.543913	-0.000132	0.173448
C16	C	0.513592	-0.000148	0.103852
C17	C	0.562219	-0.000160	0.035513
C18	C	0.641161	-0.000152	0.036776
C19	C	0.243856	-0.000195	0.030418
C20	C	0.164908	-0.000199	0.029160
C21	C	0.146608	-0.000175	0.167090
C22	C	0.225550	-0.000167	0.168353
C23	C	0.274170	-0.000186	0.100015
C24	C	0.359769	-0.000169	0.101384
C25	C	0.427995	-0.000155	0.102481
C26	C	0.802251	-0.356334	0.010225
C27	C	0.756448	-0.428298	-0.035628
C28	C	0.756459	-0.572177	-0.035628
C29	C	0.802277	-0.644097	0.010231
C30	C	0.848080	-0.572133	0.056084
C31	C	0.848066	-0.428250	0.056078
C32	C	0.939698	-0.572085	0.147790
C33	C	0.939692	-0.428205	0.147788
C34	C	0.985516	-0.644004	0.193650
C35	C	1.031324	-0.572040	0.239500
C36	C	1.031312	-0.428152	0.239498
C37	C	0.985495	-0.356241	0.193641
C38	C	1.032268	-0.000193	0.096156
C39	C	1.116286	-0.000201	0.097494
C40	C	0.899662	-0.000181	-0.036451
C41	C	0.898323	-0.000181	-0.120469
N42	N	0.893895	0.355951	0.101937
C43	C	0.966656	-0.000197	-0.169090
C44	C	0.965394	-0.000185	-0.248033
C45	C	0.895798	-0.000166	-0.278354
C46	C	0.827459	-0.000146	-0.229727
C47	C	0.828722	-0.000149	-0.150785
C48	C	0.822364	-0.000134	-0.548090
C49	C	0.821106	-0.000135	-0.627038
C50	C	0.959036	-0.000170	-0.645338
C51	C	0.960299	-0.000173	-0.566396
C52	C	0.891961	-0.000145	-0.517776
C53	C	0.893330	-0.000156	-0.432177
C54	C	0.894427	-0.000165	-0.363951
C55	C	0.888102	-0.000151	0.240322
C56	C	0.889440	-0.000142	0.324340
H57	H	0.647537	-0.000100	0.231384
N58	N	0.094155	-0.000197	0.240793
H59	H	0.103902	-0.084930	0.271157
H60	H	0.103900	0.084596	0.271113
N61	N	1.035366	-0.000201	-0.533698
H62	H	1.065300	0.084529	-0.551432
H63	H	1.025735	-0.000255	-0.476316
H64	H	0.802243	-0.239179	0.010215
H65	H	0.802275	-0.761251	0.010234
H66	H	0.985483	-0.239087	0.193632
N67	N	0.746034	-0.000118	-0.659736
H68	H	0.716108	0.084628	-0.641996
H69	H	0.755666	-0.000181	-0.717118
H70	H	0.770792	-0.000122	-0.254420
H71	H	1.068621	-0.630608	0.276839
N72	N	1.032745	-0.000173	-0.697781
H73	H	1.077024	-0.000191	-0.666593
H74	H	1.035222	-0.084908	-0.730940
N75	N	1.041722	-0.000230	-0.136389
H76	H	1.084819	-0.000236	-0.179172
H77	H	1.045255	0.084504	-0.104028
H78	H	0.766718	-0.000112	-0.508512
N79	N	0.755020	-0.000123	-0.098340
H80	H	0.710739	-0.000112	-0.129525
H81	H	0.752534	-0.084858	-0.065190
N82	N	0.132203	-0.000218	-0.045908
H83	H	0.174981	-0.000233	-0.089009
H84	H	0.099849	-0.084957	-0.049430
N85	N	0.985866	-0.799184	0.193318
H86	H	0.950013	-0.833862	0.157198
H87	H	1.039059	-0.833051	0.176194
H88	H	1.021038	-0.000201	-0.287618
H89	H	0.719143	-0.369725	-0.072965
H90	H	0.504328	-0.000124	0.229092
H91	H	0.250232	-0.000147	0.225025
H92	H	0.283434	-0.000212	-0.025228
N93	N	0.529512	-0.000193	-0.039549
H94	H	0.497163	0.084537	-0.043148
H95	H	0.572333	-0.000255	-0.082606
N96	N	0.693606	-0.000171	-0.036926
H97	H	0.662421	-0.000181	-0.081207
H98	H	0.726757	0.084566	-0.039408
N99	N	0.707057	-0.649806	-0.085080
H100	H	0.678029	-0.582420	-0.114131
H101	H	0.740138	-0.709502	-0.122116
N102	N	1.080711	-0.350537	0.288958
H103	H	1.109734	-0.417934	0.318007
H104	H	1.117772	-0.290844	0.255914
