data_functionalizedCrystal
_audit_creation_method	'MofGen! by Chris Wilmer'
_symmetry_space_group_name_H-M	'P1'
_symmetry_Int_Tables_number	1
_symmetry_cell_setting	triclinic
loop_
_symmetry_equiv_pos_as_xyz
  x,y,z
_cell_length_a	12.827893
_cell_length_b	25.639240
_cell_length_c	12.827885
_cell_angle_alpha	90.043165
_cell_angle_beta	90.019272
_cell_angle_gamma	90.032728
loop_
_atom_site_label
_atom_site_type_symbol
_atom_site_fract_x
_atom_site_fract_y
_atom_site_fract_z
Zn1	Zn	1.597543	-0.208126	0.590751
Zn2	Zn	2.097543	0.291874	1.090751
Zn3	Zn	1.597385	-0.295571	0.415971
Zn4	Zn	2.097385	0.204429	0.915971
Zn5	Zn	1.422785	-0.208151	0.416025
Zn6	Zn	1.922785	0.291849	0.916025
Zn7	Zn	1.422717	-0.295532	0.590671
Zn8	Zn	1.922717	0.204468	1.090671
O9	O	1.510108	-0.251845	0.503355
O10	O	2.010108	0.248155	1.003355
O11	O	1.743758	-0.219731	0.567578
O12	O	2.243758	0.280269	1.067578
O13	O	1.574185	-0.284002	0.269742
O14	O	2.074185	0.215998	0.769742
O15	O	1.446062	-0.134983	0.439259
O16	O	1.946062	0.365017	0.939259
O17	O	1.743642	-0.283977	0.439167
O18	O	2.243642	0.216023	0.939167
O19	O	1.574456	-0.134964	0.567630
O20	O	2.074456	0.365036	1.067630
O21	O	1.445908	-0.219775	0.269782
O22	O	1.945908	0.280225	0.769782
O23	O	1.276540	-0.219737	0.439181
O24	O	1.776540	0.280263	0.939181
O25	O	1.445946	-0.283911	0.736918
O26	O	1.945946	0.216089	1.236918
O27	O	1.276490	-0.283935	0.567493
O28	O	1.776490	0.216065	1.067493
O29	O	1.574391	-0.219694	0.736977
O30	O	2.074391	0.280306	1.236977
O31	O	1.574120	-0.368731	0.439089
O32	O	2.074120	0.131269	0.939089
O33	O	1.445792	-0.368702	0.567440
O34	O	1.945792	0.131298	1.067440
C35	C	1.238598	-0.251835	0.503335
C36	C	1.738598	0.248165	1.003335
C37	C	1.122445	-0.251843	0.503351
C38	C	1.622445	0.248157	1.003351
C39	C	1.070663	-0.283660	0.566746
C40	C	1.570663	0.216340	1.066746
C41	C	0.950612	-0.283670	0.566764
C42	C	1.450612	0.216330	1.066764
C43	C	1.509960	-0.387688	0.503273
C44	C	2.009960	0.112312	1.003273
C45	C	1.509992	-0.445802	0.503273
C46	C	2.009992	0.054198	1.003273
C47	C	1.576996	-0.806117	0.570318
C48	C	2.076996	-0.306117	1.070318
C49	C	1.577027	-0.860721	0.570339
C50	C	2.077027	-0.360721	1.070339
O51	O	1.633820	-0.888917	0.627259
O52	O	2.133820	-0.388917	1.127259
N53	N	1.510253	-0.888084	0.503456
N54	N	2.010253	-0.388084	1.003456
C55	C	1.443436	-0.860840	0.436554
C56	C	1.943436	-0.360840	0.936554
O57	O	1.386642	-0.889129	0.379667
O58	O	1.886642	-0.389129	0.879667
C59	C	1.443401	-0.806237	0.436539
C60	C	1.943401	-0.306237	0.936539
C61	C	1.510186	-0.778876	0.503419
C62	C	2.010186	-0.278876	1.003419
C63	C	1.643775	-0.778756	0.637194
C64	C	2.143775	-0.278756	1.137194
C65	C	1.643746	-0.724155	0.637171
C66	C	2.143746	-0.224155	1.137171
C67	C	1.576936	-0.696915	0.570272
C68	C	2.076936	-0.196915	1.070272
C69	C	1.510157	-0.724276	0.503396
C70	C	2.010157	-0.224276	1.003396
C71	C	1.376579	-0.778994	0.369643
C72	C	1.876579	-0.278994	0.869643
C73	C	1.376549	-0.724387	0.369634
C74	C	1.876549	-0.224387	0.869634
C75	C	1.443335	-0.697027	0.436515
C76	C	1.943335	-0.197027	0.936515
C77	C	1.443318	-0.642435	0.436475
C78	C	1.943318	-0.142435	0.936475
N79	N	1.510092	-0.615072	0.503358
N80	N	2.010092	-0.115072	1.003358
C81	C	1.576901	-0.642312	0.570257
C82	C	2.076901	-0.142312	1.070257
C83	C	1.443514	-0.975511	0.436592
C84	C	1.943514	-0.475511	0.936592
C85	C	1.443554	-1.030113	0.436601
C86	C	1.943554	-0.530113	0.936601
C87	C	1.577143	-1.029990	0.570388
C88	C	2.077143	-0.529990	1.070388
C89	C	1.577108	-0.975387	0.570373
C90	C	2.077108	-0.475387	1.070373
C91	C	1.510288	-0.948148	0.503476
C92	C	2.010288	-0.448148	1.003476
C93	C	1.576834	-0.527647	0.570203
C94	C	2.076834	-0.027647	1.070203
C95	C	1.576802	-0.473042	0.570171
C96	C	2.076802	0.026958	1.070171
C97	C	1.443209	-0.473170	0.436389
C98	C	1.943209	0.026830	0.936389
C99	C	1.443245	-0.527770	0.436416
C100	C	1.943245	-0.027770	0.936416
C101	C	1.510061	-0.555008	0.503332
C102	C	2.010061	-0.055008	1.003332
O103	O	1.386551	-0.614205	0.379587
O104	O	1.886551	-0.114205	0.879587
O105	O	1.633676	-0.614017	0.627144
O106	O	2.133676	-0.114017	1.127144
C107	C	1.782678	-0.251856	0.503375
C108	C	2.282678	0.248144	1.003375
C109	C	1.898831	-0.251860	0.503384
C110	C	2.398831	0.248140	1.003384
C111	C	1.510179	-0.251795	0.775925
C112	C	2.010179	0.248205	1.275925
C113	C	1.510209	-0.251773	0.892078
C114	C	2.010209	0.248227	1.392078
C115	C	1.510284	-0.115472	0.503460
C116	C	2.010284	0.384528	1.003460
C117	C	1.510360	-0.057358	0.503504
C118	C	2.010360	0.442642	1.003504
C119	C	1.510097	-0.251857	0.231845
C120	C	2.010097	0.248143	0.731845
C121	C	1.510269	-0.251731	0.115692
C122	C	2.010269	0.248269	0.615692
C123	C	1.573774	-0.219991	0.943892
C124	C	2.073774	0.280009	1.443892
C125	C	1.573807	-0.219968	1.063943
C126	C	2.073807	0.280032	1.563943
H127	H	1.631190	-0.450766	0.624633
H128	H	2.131190	0.049234	1.124633
Br129	Br	1.048212	-0.206446	0.412915
Br130	Br	1.548212	0.293554	0.912915
H131	H	1.115207	-0.310891	0.621010
H132	H	1.615207	0.189109	1.121010
Br133	Br	1.667749	-0.938260	0.661142
Br134	Br	2.167749	-0.438260	1.161142
H135	H	1.388870	-0.550048	0.381949
H136	H	1.888870	-0.050048	0.881949
Br137	Br	1.664412	-0.174648	0.869706
Br138	Br	2.164412	0.325352	1.369706
H139	H	1.322133	-0.702212	0.315160
H140	H	1.822133	-0.202212	0.815160
Br141	Br	1.667515	-0.564604	0.661016
Br142	Br	2.167515	-0.064604	1.161016
Br143	Br	0.876399	-0.329078	0.657222
Br144	Br	1.376399	0.170922	1.157222
Br145	Br	1.419565	-0.297093	1.041439
Br146	Br	1.919565	0.202907	1.541439
H147	H	0.943355	-0.224621	0.449103
H148	H	1.443355	0.275379	0.949103
Br149	Br	1.734381	-0.687032	0.727949
Br150	Br	2.234381	-0.187032	1.227949
Br151	Br	1.664526	-0.174617	1.138203
Br152	Br	2.164526	0.325383	1.638203
H153	H	1.389104	-0.953335	0.382108
H154	H	1.889104	-0.453335	0.882108
Br155	Br	1.667815	-1.066969	0.661180
Br156	Br	2.167815	-0.566969	1.161180
Br157	Br	1.734452	-0.815714	0.728003
Br158	Br	2.234452	-0.315714	1.228003
Br159	Br	1.285933	-0.816112	0.278873
Br160	Br	1.785933	-0.316112	0.778873
Br161	Br	1.352930	-1.067238	0.345814
Br162	Br	1.852930	-0.567238	0.845814
Br163	Br	1.352545	-0.436191	0.345601
Br164	Br	1.852545	0.063809	0.845601
H165	H	1.455806	-0.278964	0.936595
H166	H	1.955806	0.221036	1.436595
