data_functionalizedCrystal
_audit_creation_method	'MofGen! by Chris Wilmer'
_symmetry_space_group_name_H-M	'P1'
_symmetry_Int_Tables_number	1
_symmetry_cell_setting	triclinic
loop_
_symmetry_equiv_pos_as_xyz
  x,y,z
_cell_length_a	18.215407
_cell_length_b	18.215406
_cell_length_c	18.215399
_cell_angle_alpha	89.984834
_cell_angle_beta	90.018561
_cell_angle_gamma	90.007464
loop_
_atom_site_label
_atom_site_type_symbol
_atom_site_fract_x
_atom_site_fract_y
_atom_site_fract_z
Zn1	Zn	-1.125195	-0.293154	-0.416156
Zn2	Zn	-0.625195	0.206846	0.083844
Zn3	Zn	-1.125155	-0.416225	-0.293117
Zn4	Zn	-0.625155	0.083775	0.206883
Zn5	Zn	-1.002128	-0.293159	-0.293106
Zn6	Zn	-0.502128	0.206841	0.206894
Zn7	Zn	-1.002145	-0.416166	-0.416145
Zn8	Zn	-0.502145	0.083834	0.083855
O9	O	-1.063656	-0.354676	-0.354631
O10	O	-0.563656	0.145324	0.145369
O11	O	-1.228174	-0.309502	-0.399844
O12	O	-0.728174	0.190498	0.100156
O13	O	-1.108811	-0.399928	-0.190132
O14	O	-0.608811	0.100072	0.309868
O15	O	-1.018462	-0.190174	-0.309429
O16	O	-0.518462	0.309826	0.190571
O17	O	-1.228145	-0.399922	-0.309448
O18	O	-0.728145	0.100078	0.190552
O19	O	-1.108879	-0.190171	-0.399833
O20	O	-0.608879	0.309829	0.100167
O21	O	-1.018424	-0.309512	-0.190124
O22	O	-0.518424	0.190488	0.309876
O23	O	-0.899146	-0.309454	-0.309418
O24	O	-0.399146	0.190546	0.190582
O25	O	-1.018492	-0.399821	-0.519131
O26	O	-0.518492	0.100179	-0.019131
O27	O	-0.899159	-0.399826	-0.399814
O28	O	-0.399159	0.100174	0.100186
O29	O	-1.108896	-0.309445	-0.519139
O30	O	-0.608896	0.190555	-0.019139
O31	O	-1.108828	-0.519202	-0.309437
O32	O	-0.608828	-0.019202	0.190563
O33	O	-1.018454	-0.519158	-0.399825
O34	O	-0.518454	-0.019158	0.100175
C35	C	-0.872450	-0.354634	-0.354614
C36	C	-0.372450	0.145366	0.145386
C37	C	-0.790651	-0.354634	-0.354625
C38	C	-0.290651	0.145366	0.145375
C39	C	-0.525603	-0.307659	-0.401769
C40	C	-0.025603	0.192341	0.098231
C41	C	-0.602462	-0.307651	-0.401767
C42	C	-0.102462	0.192349	0.098233
C43	C	-0.602450	-0.401669	-0.307497
C44	C	-0.102450	0.098331	0.192503
C45	C	-0.525593	-0.401680	-0.307503
C46	C	-0.025593	0.098320	0.192497
C47	C	-0.487171	-0.354671	-0.354637
C48	C	0.012829	0.145329	0.145363
C49	C	-0.640887	-0.354651	-0.354630
C50	C	-0.140887	0.145349	0.145370
C51	C	-0.724221	-0.354643	-0.354629
C52	C	-0.224221	0.145357	0.145371
C53	C	-0.403832	-0.354680	-0.354640
C54	C	0.096168	0.145320	0.145360
C55	C	-1.063659	-0.545882	-0.354647
C56	C	-0.563659	-0.045882	0.145353
C57	C	-1.063727	-0.627681	-0.354679
C58	C	-0.563727	-0.127681	0.145321
C59	C	-1.063701	-0.354625	-0.546584
C60	C	-0.563701	0.145375	-0.046584
C61	C	-1.063720	-0.354604	-0.628383
C62	C	-0.563720	0.145396	-0.128383
C63	C	-0.255609	-0.354706	-0.354645
C64	C	0.244391	0.145294	0.145355
C65	C	-0.337408	-0.354688	-0.354643
C66	C	0.162592	0.145312	0.145357
C67	C	-1.063673	-0.162723	-0.354631
C68	C	-0.563673	0.337277	0.145369
C69	C	-1.063681	-0.080924	-0.354631
C70	C	-0.563681	0.419076	0.145369
C71	C	-1.016624	0.107269	-0.307584
C72	C	-0.516624	0.607269	0.192416
C73	C	-1.016630	0.184128	-0.307593
C74	C	-0.516630	0.684128	0.192407
C75	C	-1.110786	0.184120	-0.401731
C76	C	-0.610786	0.684120	0.098269
C77	C	-1.110776	0.107263	-0.401725
C78	C	-0.610776	0.607263	0.098275
C79	C	-1.063696	0.068839	-0.354648
C80	C	-0.563696	0.568839	0.145352
C81	C	-1.063712	0.222555	-0.354662
C82	C	-0.563712	0.722555	0.145338
C83	C	-1.063719	0.305889	-0.354672
C84	C	-0.563719	0.805889	0.145328
C85	C	-1.063688	-0.014500	-0.354638
C86	C	-0.563688	0.485500	0.145362
C87	C	-1.110810	-0.307501	-0.816583
C88	C	-0.610810	0.192499	-0.316583
C89	C	-1.110819	-0.307479	-0.893441
C90	C	-0.610819	0.192521	-0.393441
C91	C	-1.016681	-0.401593	-0.893422
C92	C	-0.516681	0.098407	-0.393422
C93	C	-1.016669	-0.401610	-0.816564
C94	C	-0.516669	0.098390	-0.316564
C95	C	-1.063738	-0.354565	-0.778147
C96	C	-0.563738	0.145435	-0.278147
C97	C	-1.063759	-0.354526	-0.931863
C98	C	-0.563759	0.145474	-0.431863
C99	C	-1.063768	-0.354504	-1.015197
C100	C	-0.563768	0.145496	-0.515197
C101	C	-1.063728	-0.354587	-0.694808
C102	C	-0.563728	0.145413	-0.194808
C103	C	-1.063654	-0.354674	-0.163425
C104	C	-0.563654	0.145326	0.336575
C105	C	-1.063777	-0.354488	-0.081627
C106	C	-0.563777	0.145512	0.418373
H107	H	-0.633749	-0.269370	-0.440147
H108	H	-0.133749	0.230630	0.059853
H109	H	-0.978332	-0.439935	-0.785269
H110	H	-0.478332	0.060065	-0.285269
H111	H	-0.978286	0.075986	-0.269253
H112	H	-0.478286	0.575986	0.230747
O113	O	-1.156616	-0.261740	-0.930664
O114	O	-0.656616	0.238260	-0.430664
C115	C	-1.198140	-0.220209	-0.880272
C116	C	-0.698140	0.279791	-0.380272
H117	H	-1.200678	-0.250368	-0.825486
H118	H	-0.700678	0.249632	-0.325486
H119	H	-1.171194	-0.164313	-0.872092
H120	H	-0.671194	0.335687	-0.372092
C121	C	-1.273353	-0.172569	-0.977570
C122	C	-0.773353	0.327431	-0.477570
C123	C	-1.276476	-0.209614	-0.910283
C124	C	-0.776476	0.290386	-0.410283
H125	H	-1.321674	-0.166030	-0.996083
H126	H	-0.821674	0.333970	-0.496083
H127	H	-1.245377	-0.200547	-1.011522
H128	H	-0.745377	0.299453	-0.511522
H129	H	-1.250895	-0.125993	-0.970745
H130	H	-0.750895	0.374007	-0.470745
H131	H	-1.298925	-0.256193	-0.917111
H132	H	-0.798925	0.243807	-0.417111
H133	H	-1.304458	-0.181645	-0.876334
H134	H	-0.804458	0.318355	-0.376334
H135	H	-0.978362	-0.439897	-0.924711
H136	H	-0.478362	0.060103	-0.424711
H137	H	-1.149118	0.215413	-0.440059
H138	H	-0.649118	0.715413	0.059941
O139	O	-0.488198	-0.262105	-0.447594
O140	O	0.011802	0.237895	0.052406
C141	C	-0.443785	-0.304071	-0.495078
C142	C	0.056215	0.195929	0.004922
H143	H	-0.432276	-0.359811	-0.469038
H144	H	0.067724	0.140189	0.030962
H145	H	-0.473430	-0.312222	-0.549601
H146	H	0.026570	0.187778	-0.049601
C147	C	-0.384910	-0.195146	-0.540455
C148	C	0.115090	0.304854	-0.040455
C149	C	-0.370768	-0.263605	-0.508469
C150	C	0.129232	0.236395	-0.008469
H151	H	-0.339871	-0.170184	-0.548719
H152	H	0.160129	0.329816	-0.048719
H153	H	-0.414833	-0.166872	-0.508467
H154	H	0.085167	0.333128	-0.008467
H155	H	-0.409616	-0.201949	-0.585887
H156	H	0.090384	0.298051	-0.085887
H157	H	-0.346071	-0.256801	-0.463034
H158	H	0.153929	0.243199	0.036966
H159	H	-0.340839	-0.291877	-0.540450
H160	H	0.159161	0.208123	-0.040450
H161	H	-1.149107	0.075973	-0.440055
H162	H	-0.649107	0.575973	0.059945
O163	O	-0.488142	-0.447327	-0.261786
O164	O	0.011858	0.052673	0.238214
C165	C	-0.412067	-0.437245	-0.271890
C166	C	0.087933	0.062755	0.228110
H167	H	-0.401590	-0.413210	-0.328720
H168	H	0.098410	0.086790	0.171280
H169	H	-0.390226	-0.398007	-0.228297
H170	H	0.109774	0.101993	0.271703
C171	C	-0.385492	-0.541224	-0.195246
C172	C	0.114508	-0.041224	0.304754
C173	C	-0.372624	-0.511710	-0.265048
C174	C	0.127376	-0.011710	0.234952
H175	H	-0.361160	-0.587157	-0.191022
H176	H	0.138840	-0.087157	0.308978
H177	H	-0.436745	-0.548016	-0.188436
H178	H	0.063255	-0.048016	0.311564
H179	H	-0.367291	-0.508519	-0.158926
H180	H	0.132709	-0.008519	0.341074
H181	H	-0.390833	-0.544411	-0.301365
H182	H	0.109167	-0.044411	0.198635
H183	H	-0.321373	-0.504926	-0.271864
H184	H	0.178627	-0.004926	0.228136
H185	H	-0.633743	-0.439940	-0.269120
H186	H	-0.133743	0.060060	0.230880
H187	H	-0.978299	0.215415	-0.269271
H188	H	-0.478299	0.715415	0.230729
H189	H	-1.149134	-0.269192	-0.785305
H190	H	-0.649134	0.230808	-0.285305
