data_functionalizedCrystal
_audit_creation_method	'MofGen! by Chris Wilmer'
_symmetry_space_group_name_H-M	'P1'
_symmetry_Int_Tables_number	1
_symmetry_cell_setting	triclinic
loop_
_symmetry_equiv_pos_as_xyz
  x,y,z
_cell_length_a	10.489716
_cell_length_b	16.109301
_cell_length_c	15.186229
_cell_angle_alpha	89.994833
_cell_angle_beta	89.997012
_cell_angle_gamma	83.995308
loop_
_atom_site_label
_atom_site_type_symbol
_atom_site_fract_x
_atom_site_fract_y
_atom_site_fract_z
O1	O	1.692370	0.117201	-0.073225
O2	O	1.321010	0.128232	-0.073228
O3	O	1.516891	0.001748	-0.073217
O4	O	1.496488	0.243685	-0.073236
O5	O	1.516878	0.001746	0.073240
O6	O	1.320997	0.128230	0.073229
O7	O	1.692356	0.117199	0.073233
Zn8	Zn	1.506675	0.122714	0.096484
Zn9	Zn	1.506692	0.122717	-0.096480
O10	O	1.496475	0.243683	0.073222
C11	C	1.273483	0.127402	0.000000
C12	C	1.131888	0.124923	-0.000001
C13	C	1.516058	-0.029233	0.000012
C14	C	1.513580	-0.121544	0.000013
C15	C	1.624051	-0.343141	0.000000
C16	C	1.621713	-0.429876	-0.000007
C17	C	1.389306	-0.411421	-0.000006
C18	C	1.391646	-0.324688	-0.000005
C19	C	1.509022	-0.290551	0.000002
C20	C	1.504344	-0.464018	-0.000006
C21	C	1.501808	-0.558060	-0.000014
C22	C	1.511559	-0.196503	0.000009
C23	C	1.033089	0.202487	-0.000009
C24	C	0.956331	0.161499	0.072209
C25	C	0.956351	0.161483	-0.072186
C26	C	1.056995	0.083968	0.072277
C27	C	1.057020	0.083962	-0.072184
C28	C	0.980312	0.042918	0.000052
C29	C	1.739883	0.118028	0.000002
C30	C	1.881478	0.120508	-0.000002
C31	C	1.497308	0.274664	-0.000009
C32	C	1.499786	0.366974	-0.000016
N33	N	1.506672	0.122712	0.228177
N34	N	1.506704	0.122712	-0.228172
C35	C	1.593438	0.066724	0.453904
C36	C	1.593442	0.066722	0.546094
C37	C	1.419929	0.178703	0.546094
C38	C	1.419920	0.178700	0.453906
C39	C	1.506682	0.122712	0.407813
C40	C	1.506695	0.122713	0.592191
C41	C	1.506698	0.122711	0.692147
C42	C	1.506677	0.122712	0.307851
H43	H	1.715382	-0.472693	-0.000011
C44	C	1.190503	-0.422397	-0.075298
C45	C	1.260293	-0.448951	-0.000009
H46	H	1.110858	-0.445571	-0.075300
H47	H	1.175433	-0.363223	-0.075292
H48	H	1.237883	-0.440404	-0.126365
H49	H	1.212917	-0.430939	0.051058
H50	H	1.275359	-0.508138	-0.000008
C51	C	1.621187	-0.046258	0.649769
C52	C	1.688809	0.005178	0.596756
H53	H	1.680067	-0.084257	0.681040
H54	H	1.569536	-0.012915	0.690412
H55	H	1.568112	-0.076496	0.613801
H56	H	1.741877	0.035421	0.632724
H57	H	1.740482	-0.028168	0.556108
H58	H	1.349267	0.224293	0.416376
C59	C	1.014007	0.333996	0.075792
C60	C	1.065099	0.293561	0.000077
H61	H	1.033779	0.390217	0.075849
H62	H	0.923630	0.333026	0.076312
H63	H	1.049981	0.306172	0.126565
H64	H	1.029117	0.321381	-0.050696
H65	H	1.155493	0.294536	-0.000451
H66	H	1.719626	-0.315350	0.000004
H67	H	1.297969	-0.281866	-0.000006
C68	C	0.764143	0.202210	0.154123
C69	C	0.896961	0.205701	0.154615
H70	H	0.727494	0.229500	0.204996
H71	H	0.728361	0.229199	0.102845
H72	H	0.746502	0.145560	0.154211
H73	H	0.914602	0.262352	0.154521
H74	H	0.932755	0.178715	0.205907
C75	C	1.249058	0.042584	0.154059
C76	C	1.116091	0.039798	0.154787
H77	H	1.285538	0.015322	0.205000
H78	H	1.284393	0.015232	0.102850
H79	H	1.267417	0.099091	0.153846
H80	H	1.097731	-0.016709	0.154993
H81	H	1.080744	0.067148	0.206010
H82	H	0.956862	-0.024601	0.000099
H83	H	1.100996	0.051245	-0.133236
C84	C	0.923112	0.289186	-0.154472
C85	C	0.897046	0.205695	-0.154611
H86	H	0.886513	0.316480	-0.205361
H87	H	0.887279	0.316171	-0.103209
H88	H	1.013224	0.291526	-0.154768
H89	H	0.806934	0.203355	-0.154309
H90	H	0.932874	0.178703	-0.205888
C91	C	1.764936	-0.043971	0.463168
C92	C	1.688792	0.005174	0.403239
H93	H	1.823797	-0.081974	0.431889
H94	H	1.810803	-0.009075	0.499113
H95	H	1.711843	-0.074205	0.499136
H96	H	1.741884	0.035413	0.367276
H97	H	1.642922	-0.029726	0.367279
H98	H	1.349292	0.224289	0.583631
