data_functionalizedCrystal
_audit_creation_method	'MofGen! by Chris Wilmer'
_symmetry_space_group_name_H-M	'P1'
_symmetry_Int_Tables_number	1
_symmetry_cell_setting	triclinic
loop_
_symmetry_equiv_pos_as_xyz
  x,y,z
_cell_length_a	19.902436
_cell_length_b	14.446369
_cell_length_c	14.446369
_cell_angle_alpha	90.002030
_cell_angle_beta	60.001138
_cell_angle_gamma	59.993895
loop_
_atom_site_label
_atom_site_type_symbol
_atom_site_fract_x
_atom_site_fract_y
_atom_site_fract_z
Zr1	Zr	0.735455	-0.121545	0.891786
O2	O	0.875646	-0.269379	0.743972
O3	O	0.595271	-0.076214	0.937095
O4	O	0.735459	-0.269353	0.937089
O5	O	0.735453	0.076098	0.743987
O6	O	0.735453	-0.269348	1.089426
O7	O	0.735459	-0.076239	0.743979
O8	O	0.484682	0.076144	1.089437
O9	O	0.986223	-0.269394	0.743975
O10	O	0.652923	-0.056892	1.070110
O11	O	0.652923	0.056792	0.956429
O12	O	0.817976	-0.170605	0.956422
O13	O	0.817976	-0.056922	0.842740
Zr14	Zr	0.735435	0.121424	1.134759
Zr15	Zr	0.735445	-0.121536	1.134746
Zr16	Zr	0.735445	0.121415	0.891799
Zr17	Zr	0.911811	-0.121569	0.891791
Zr18	Zr	0.559079	0.121447	1.134754
O19	O	0.875619	0.076092	1.089449
O20	O	0.875633	-0.269366	1.089430
O21	O	0.875633	0.076079	0.743991
O22	O	0.595243	0.269257	1.282572
O23	O	0.595257	-0.076201	1.282553
O24	O	0.595257	0.269244	0.937114
O25	O	0.735437	-0.076220	1.282557
O26	O	0.735431	0.269231	1.089455
O27	O	0.735437	0.269226	0.937118
O28	O	0.735431	0.076118	1.282566
O29	O	0.986215	-0.269387	0.937096
O30	O	0.484675	0.269265	1.089448
O31	O	0.484667	0.269272	1.282569
O32	O	0.484675	0.076151	1.282558
O33	O	0.986215	-0.076273	0.743986
O34	O	0.986208	-0.076266	0.937107
O35	O	0.652914	0.170483	1.070123
O36	O	0.652914	0.056800	1.183804
O37	O	0.817967	-0.056914	1.070115
O38	O	0.817967	0.056770	0.956434
C39	C	0.514850	-0.000031	1.013266
C40	C	0.439982	-0.000021	1.013264
C41	C	0.735457	-0.000072	0.709366
C42	C	0.735461	-0.000076	0.606223
C43	C	0.735433	0.303845	1.013288
C44	C	0.735429	0.406988	1.013294
C45	C	0.167971	-0.000075	1.013275
C46	C	0.196210	0.071986	0.941910
C47	C	0.274329	0.071689	0.941523
C48	C	0.302918	-0.000047	1.013269
C49	C	0.338489	-0.123594	0.960960
C50	C	0.260651	-0.123214	0.960423
C51	C	0.133449	0.050421	1.136985
C52	C	0.210502	0.052936	1.136805
C53	C	0.379187	-0.000039	1.013267
C54	C	0.091707	-0.000091	1.013273
C55	C	0.956040	-0.000090	1.013278
C56	C	1.030908	-0.000100	1.013281
C57	C	0.735457	-0.303967	1.013256
C58	C	0.735461	-0.407110	1.013250
C59	C	0.631341	0.625374	1.084625
C60	C	0.631270	0.518142	1.085034
C61	C	0.787132	0.410315	1.065593
C62	C	0.786471	0.518084	1.066108
C63	C	0.788622	0.516697	0.889548
C64	C	0.786660	0.410729	0.889751
C65	C	0.839549	-0.071434	0.387853
C66	C	0.839619	-0.071835	0.495085
C67	C	0.683758	-0.052370	0.602895
C68	C	0.684419	-0.052893	0.495126
C69	C	0.682268	0.123667	0.496499
C70	C	0.684230	0.123472	0.602469
C71	C	0.735433	-0.000050	1.317178
C72	C	0.735429	-0.000046	1.420321
C73	C	0.514837	-0.000020	1.317172
C74	C	0.439965	-0.000006	1.420313
C75	C	0.514837	0.303875	1.013282
C76	C	0.439965	0.407028	1.013285
C77	C	0.514825	0.303886	1.317188
C78	C	0.439949	0.407043	1.420334
C79	C	0.956065	-0.304008	0.709356
C80	C	1.030941	-0.407164	0.606210
C81	C	0.956052	-0.000101	0.709372
C82	C	1.030925	-0.000115	0.606232
C83	C	0.956052	-0.303996	1.013262
C84	C	1.030925	-0.407149	1.013259
C85	C	0.404809	-0.059356	1.409402
C86	C	0.334469	-0.059366	1.506304
C87	C	0.299281	-0.000019	1.614116
C88	C	0.334444	0.059333	1.625025
C89	C	0.404788	0.059335	1.528124
C90	C	0.404800	0.514825	1.072634
C91	C	0.334459	0.611758	1.072633
C92	C	0.299281	0.600890	1.013289
C93	C	0.334453	0.493081	0.953933
C94	C	0.404797	0.396151	0.953928
C95	C	0.404786	0.396145	1.528124
C96	C	0.334442	0.493062	1.625050
C97	C	0.299257	0.600876	1.614184
C98	C	0.334426	0.611772	1.506384
C99	C	0.404774	0.514856	1.409460
C100	C	1.066112	-0.396266	0.498421
C101	C	1.136478	-0.493184	0.401494
C102	C	1.171667	-0.600998	0.412360
C103	C	1.136493	-0.611894	0.520161
C104	C	1.066133	-0.514977	0.617084
C105	C	1.066088	0.059224	0.617142
C106	C	1.136448	0.059207	0.520240
C107	C	1.171639	-0.000143	0.412428
C108	C	1.136472	-0.059490	0.401519
C109	C	1.066118	-0.059479	0.498421
C110	C	1.066081	-0.396245	1.072614
C111	C	1.136422	-0.493159	1.072633
C112	C	1.171610	-0.600976	1.013290
C113	C	1.136447	-0.611878	0.953933
C114	C	1.066102	-0.514965	0.953921
H115	H	0.247678	0.162664	0.976611
C116	C	1.249023	-0.000143	0.305847
H117	H	1.264914	0.043709	0.327796
H118	H	1.303919	-0.075755	0.261996
H119	H	1.225965	0.031645	0.262005
C120	C	0.732264	-0.174180	0.605784
H121	H	0.700457	-0.205100	0.603748
H122	H	0.796777	-0.219423	0.541999
H123	H	0.729467	-0.173157	0.673409
H124	H	0.608240	0.181136	0.681628
C125	C	1.249049	-0.707596	0.305737
H126	H	1.264942	-0.685654	0.239989
H127	H	1.303945	-0.751460	0.305710
H128	H	1.225983	-0.751426	0.305724
C129	C	0.295718	0.124631	1.743619
H130	H	0.326727	0.159983	1.736250
H131	H	0.229300	0.180784	1.783870
H132	H	0.307248	0.073408	1.783896
C133	C	1.175121	0.124489	0.532254
H134	H	1.222072	0.115975	0.459107
H135	H	1.124614	0.202571	0.572520
H136	H	1.202555	0.095173	0.572533
C137	C	0.576119	0.521460	1.208308
H138	H	0.575879	0.455865	1.208980
H139	H	0.605846	0.523223	1.242517
H140	H	0.512594	0.587339	1.249478
C141	C	0.576466	0.520316	1.037658
H142	H	0.576351	0.454632	1.037843
H143	H	0.512901	0.586143	1.083617
H144	H	0.606346	0.521500	0.962274
H145	H	1.037486	-0.523859	0.905582
C146	C	0.295792	-0.124641	1.494285
H147	H	0.326815	-0.159964	1.416196
H148	H	0.307326	-0.180814	1.529602
H149	H	0.229371	-0.073401	1.529625
H150	H	0.748959	0.411250	0.850682
C151	C	1.027417	-0.277681	0.486452
H152	H	0.980469	-0.221510	0.559608
H153	H	1.077920	-0.269189	0.446194
H154	H	0.999978	-0.269180	0.446177
C155	C	1.175215	-0.730477	0.888579
H156	H	1.144220	-0.723103	0.853205
H157	H	1.241630	-0.770689	0.832445
H158	H	1.163715	-0.770802	0.939755
C159	C	0.892245	0.479577	0.817376
H160	H	0.903097	0.510340	0.862350
H161	H	0.934021	0.399179	0.790540
H162	H	0.903539	0.506331	0.754727
C163	C	1.175182	-0.124761	0.282923
H164	H	1.222109	-0.116250	0.226784
H165	H	1.202633	-0.202843	0.274396
H166	H	1.124678	-0.095432	0.274416
H167	H	0.433434	0.523696	1.120959
C168	C	0.300557	-0.177807	0.837447
H169	H	0.364092	-0.200003	0.788286
H170	H	0.299501	-0.242522	0.831847
H171	H	0.262706	-0.124560	0.816331
H172	H	0.242001	-0.000029	1.693010
H173	H	0.433403	0.107671	1.537023
H174	H	1.165044	-0.484260	1.120967
H175	H	0.305768	0.699567	1.497553
H176	H	0.305830	0.699531	1.120971
C177	C	0.443484	0.277559	1.540092
H178	H	0.490413	0.221389	1.466936
H179	H	0.470929	0.269058	1.580354
H180	H	0.392977	0.269068	1.580363
H181	H	0.244704	-0.179822	1.009045
C182	C	1.027434	-0.124740	0.486405
H183	H	1.058466	-0.160074	0.408315
H184	H	1.038953	-0.180904	0.521735
H185	H	0.961015	-0.073494	0.521731
H186	H	0.222175	0.037272	0.851195
C187	C	0.366723	-0.199274	1.027795
H188	H	0.357050	-0.156094	1.088335
H189	H	0.328738	-0.227345	1.057491
H190	H	0.431814	-0.261066	0.978787
H191	H	0.131699	0.163190	0.976812
C192	C	1.027415	-0.526973	0.735649
H193	H	0.980466	-0.453819	0.791826
H194	H	0.999988	-0.567245	0.744095
H195	H	1.077905	-0.567249	0.744177
C196	C	0.429029	-0.178597	0.839173
H197	H	0.445279	-0.126462	0.820019
H198	H	0.479720	-0.244846	0.834330
H199	H	0.417941	-0.198399	0.788033
C200	C	1.175149	-0.481178	0.282929
H201	H	1.144098	-0.403086	0.290348
H202	H	1.241563	-0.516507	0.242648
H203	H	1.163621	-0.516520	0.242651
C204	C	1.175195	-0.730490	0.532104
H205	H	1.144178	-0.723112	0.610180
H206	H	1.163668	-0.770749	0.496747
H207	H	1.241615	-0.770771	0.496765
H208	H	0.305814	0.484170	1.712817
H209	H	0.338792	0.036679	0.850271
C210	C	0.221898	0.707519	1.013310
H211	H	0.205991	0.773273	1.057168
H212	H	0.244949	0.707534	0.937709
H213	H	0.167001	0.707544	1.045096
H214	H	0.749722	0.568442	1.157137
H215	H	1.037441	0.107562	0.704920
C216	C	0.443509	-0.124650	1.290821
H217	H	0.412497	-0.160004	1.298218
H218	H	0.431978	-0.073435	1.250544
H219	H	0.509931	-0.180820	1.250553
C220	C	0.041554	0.171461	1.196000
H221	H	0.023381	0.192334	1.145736
H222	H	-0.007631	0.173956	1.262175
H223	H	0.052231	0.222775	1.216470
C224	C	0.735148	0.176260	0.601774
H225	H	0.703828	0.250988	0.599492
H226	H	0.733799	0.178811	0.668426
H227	H	0.799234	0.131548	0.536957
C228	C	0.171647	0.175900	1.189593
H229	H	0.211577	0.194878	1.136581
H230	H	0.109149	0.225767	1.208740
H231	H	0.170261	0.182912	1.256015
H232	H	0.433395	0.523745	1.321697
C233	C	0.443467	0.277577	0.888654
H234	H	0.490404	0.221396	0.897138
H235	H	0.392954	0.269105	0.917965
H236	H	0.470916	0.269073	0.810575
C237	C	0.894486	-0.193981	0.313593
H238	H	0.854243	-0.201829	0.302291
H239	H	0.948312	-0.210855	0.242365
H240	H	0.914777	-0.244864	0.350328
C241	C	0.107972	-0.020136	1.209162
H242	H	0.087171	0.010779	1.283817
H243	H	0.058637	-0.018449	1.211985
H244	H	0.162405	-0.096273	1.176209
C245	C	0.295740	0.481141	0.888676
H246	H	0.248801	0.554313	0.897199
H247	H	0.346230	0.440866	0.810596
H248	H	0.268281	0.440893	0.917999
C249	C	0.576134	0.698266	1.037478
H250	H	0.616083	0.709553	0.973847
H251	H	0.556198	0.660651	1.015018
H252	H	0.522066	0.769583	1.094480
H253	H	0.590675	0.680366	1.175328
H254	H	0.241975	0.679783	1.693115
C255	C	1.248994	-0.707570	1.013301
H256	H	1.264895	-0.685624	1.057144
H257	H	1.225949	-0.751417	1.045070
H258	H	1.303894	-0.751418	0.937689
H259	H	0.226107	0.005908	1.194458
H260	H	0.862863	0.491418	1.017477
H261	H	0.863716	0.332036	1.016113
H262	H	0.755306	0.566716	0.845856
C263	C	0.738610	0.407464	1.187406
H264	H	0.686851	0.404252	1.206575
H265	H	0.783158	0.342492	1.192297
H266	H	0.715864	0.473913	1.238505
C267	C	0.889321	0.303786	0.811870
H268	H	0.902342	0.255243	0.853869
H269	H	0.896732	0.265158	0.750656
H270	H	0.932231	0.324985	0.783054
C271	C	0.727271	0.182687	0.428941
H272	H	0.694144	0.257217	0.476461
H273	H	0.792027	0.140774	0.402715
H274	H	0.723396	0.186491	0.365968
C275	C	0.894760	-0.024306	0.314950
H276	H	0.854812	0.039325	0.303651
H277	H	0.914702	-0.001844	0.352556
H278	H	0.948825	-0.081326	0.243646
C279	C	0.734070	-0.175872	0.427100
H280	H	0.753652	-0.225042	0.465456
H281	H	0.691159	-0.181459	0.420037
H282	H	0.788050	-0.196994	0.353840
H283	H	0.880392	-0.037031	0.493328
H284	H	0.607174	-0.002877	0.681164
H285	H	0.605568	0.177108	0.523939
H286	H	1.037441	-0.308464	1.120938
H287	H	0.880439	-0.163094	0.492635
H288	H	0.608027	-0.004259	0.521780
