data_functionalizedCrystal
_audit_creation_method	'MofGen! by Chris Wilmer'
_symmetry_space_group_name_H-M	'P1'
_symmetry_Int_Tables_number	1
_symmetry_cell_setting	triclinic
loop_
_symmetry_equiv_pos_as_xyz
  x,y,z
_cell_length_a	10.654558
_cell_length_b	10.654562
_cell_length_c	13.596369
_cell_angle_alpha	89.991875
_cell_angle_beta	89.989948
_cell_angle_gamma	84.489162
loop_
_atom_site_label
_atom_site_type_symbol
_atom_site_fract_x
_atom_site_fract_y
_atom_site_fract_z
O1	O	-0.176476	-1.667838	0.081866
O2	O	-0.193266	-1.302362	0.081855
O3	O	-0.002133	-1.493498	0.081844
O4	O	-0.367609	-1.476703	0.081877
O5	O	-0.002122	-1.493479	-0.081739
O6	O	-0.193255	-1.302343	-0.081728
O7	O	-0.176466	-1.667819	-0.081717
Zn8	Zn	-0.184859	-1.485078	-0.107695
Zn9	Zn	-0.184873	-1.485103	0.107833
O10	O	-0.367599	-1.476683	-0.081706
C11	C	0.044670	-1.492253	0.000050
C12	C	0.184113	-1.488557	0.000044
C13	C	-0.192024	-1.255555	0.000062
C14	C	-0.188326	-1.116112	0.000057
C15	C	-0.177707	-1.714626	0.000078
C16	C	-0.181405	-1.854069	0.000090
C17	C	0.366680	-1.369069	0.000055
C18	C	0.235659	-1.372541	0.000047
C19	C	0.263597	-1.601109	0.000058
C20	C	0.394616	-1.597636	0.000072
C21	C	0.350549	-1.237107	0.000044
C22	C	0.219528	-1.240579	0.000037
C23	C	0.585598	-1.477925	0.000081
C24	C	0.446154	-1.481612	0.000066
C25	C	-0.186595	-1.050571	-0.089105
C26	C	-0.183131	-0.919549	-0.089089
C27	C	-0.183132	-0.919620	0.089258
C28	C	-0.186588	-1.050641	0.089241
C29	C	-0.186600	-1.050528	-0.192072
C30	C	-0.183135	-0.919506	-0.192056
N31	N	-0.184849	-1.485070	-0.254787
C32	C	-0.184874	-1.485102	-0.656078
C33	C	-0.184871	-1.485089	-0.544426
C34	C	-0.184862	-1.485086	-0.455436
C35	C	-0.184858	-1.485073	-0.343777
N36	N	-0.184873	-1.485121	0.254925
H37	H	0.221619	-1.695571	0.000080
C38	C	-0.188469	-1.122735	0.187323
C39	C	-0.081968	-1.226102	0.211814
C40	C	-0.083843	-1.298194	0.309901
C41	C	-0.192218	-1.266920	0.383496
C42	C	-0.298727	-1.163548	0.359007
C43	C	-0.296852	-1.091456	0.260920
H44	H	-0.001735	-1.249257	0.157333
H45	H	-0.004998	-1.374716	0.328030
H46	H	-0.193606	-1.320287	0.456106
H47	H	-0.378960	-1.140393	0.413488
H48	H	-0.375698	-1.014933	0.242791
H49	H	0.386209	-1.195066	-0.070580
H50	H	0.177803	-1.190855	-0.068429
C51	C	-0.059400	-0.879516	-0.235230
C52	C	-0.022106	-0.914364	-0.341915
C53	C	0.101630	-0.874373	-0.385082
C54	C	0.188072	-0.799536	-0.321564
C55	C	0.150780	-0.764684	-0.214872
C56	C	0.027045	-0.804674	-0.171705
H57	H	-0.086097	-0.969766	-0.388941
H58	H	0.129235	-0.900173	-0.464062
H59	H	0.279668	-0.769933	-0.353519
H60	H	0.214772	-0.709281	-0.167847
H61	H	-0.000561	-0.778874	-0.092725
H62	H	-0.181718	-0.866297	0.161869
H63	H	0.459320	-1.689279	0.000093
H64	H	0.173860	-1.200713	0.070664
C65	C	-0.069346	-1.113026	-0.245493
C66	C	-0.084853	-1.194215	-0.337591
C67	C	0.032398	-1.256712	-0.391009
C68	C	0.165157	-1.238020	-0.352330
C69	C	0.180670	-1.156828	-0.260228
C70	C	0.063419	-1.094330	-0.206809
H71	H	-0.183134	-1.208055	-0.366227
H72	H	0.020914	-1.316817	-0.459189
H73	H	0.251954	-1.284285	-0.391873
H74	H	0.278951	-1.142987	-0.231591
H75	H	0.074903	-1.034226	-0.138629
C76	C	0.390193	-1.167405	0.092526
C77	C	0.361408	-1.217924	0.195397
C78	C	0.401052	-1.148225	0.287876
C79	C	0.469482	-1.028009	0.277485
C80	C	0.498271	-0.977484	0.174610
C81	C	0.458627	-1.047183	0.082131
H82	H	0.310749	-1.306921	0.203092
H83	H	0.379741	-1.185628	0.364031
H84	H	0.498829	-0.976414	0.345944
H85	H	0.548930	-0.888487	0.166915
H86	H	0.479938	-1.009780	0.005976
C87	C	-0.310327	-1.090495	-0.235228
C88	C	-0.412788	-0.989752	-0.272188
C89	C	-0.536517	-1.029720	-0.315340
C90	C	-0.557786	-1.170431	-0.321532
C91	C	-0.455322	-1.271184	-0.284570
C92	C	-0.331593	-1.231216	-0.241418
H93	H	-0.397046	-0.885581	-0.267606
H94	H	-0.612367	-0.955136	-0.342701
H95	H	-0.649377	-1.200018	-0.353475
H96	H	-0.471064	-1.375355	-0.289153
H97	H	-0.255743	-1.305800	-0.214057
H98	H	-0.269929	-0.873218	-0.231578
