data_functionalizedCrystal
_audit_creation_method	'MofGen! by Chris Wilmer'
_symmetry_space_group_name_H-M	'P1'
_symmetry_Int_Tables_number	1
_symmetry_cell_setting	triclinic
loop_
_symmetry_equiv_pos_as_xyz
  x,y,z
_cell_length_a	10.654550
_cell_length_b	14.421503
_cell_length_c	10.654551
_cell_angle_alpha	89.993900
_cell_angle_beta	84.485180
_cell_angle_gamma	90.004464
loop_
_atom_site_label
_atom_site_type_symbol
_atom_site_fract_x
_atom_site_fract_y
_atom_site_fract_z
O1	O	1.667849	0.077039	0.176382
O2	O	2.167849	0.577039	0.676382
O3	O	1.302371	0.077055	0.193188
O4	O	1.802371	0.577055	0.693188
O5	O	1.493513	0.077044	0.002046
O6	O	1.993513	0.577044	0.502046
O7	O	1.476708	0.077049	0.367524
O8	O	1.976708	0.577049	0.867524
O9	O	1.493481	-0.077179	0.002074
O10	O	1.993481	0.422821	0.502074
O11	O	1.302339	-0.077168	0.193216
O12	O	1.802339	0.422832	0.693216
O13	O	1.667818	-0.077185	0.176410
O14	O	2.167818	0.422815	0.676410
Cu15	Cu	1.485076	-0.091258	0.184816
Cu16	Cu	1.985076	0.408742	0.684816
Cu17	Cu	1.485113	0.091129	0.184782
Cu18	Cu	1.985113	0.591129	0.684782
O19	O	1.476676	-0.077174	0.367552
O20	O	1.976676	0.422826	0.867552
C21	C	1.255557	-0.000054	0.191968
C22	C	1.755557	0.499946	0.691968
C23	C	1.116114	-0.000048	0.188276
C24	C	1.616114	0.499952	0.688276
N25	N	1.485058	-0.219540	0.184839
N26	N	1.985058	0.280460	0.684839
C27	C	1.036629	-0.000049	0.300818
C28	C	1.536629	0.499951	0.800818
C29	C	0.905608	-0.000065	0.297341
C30	C	1.405608	0.499935	0.797341
C31	C	0.933570	-0.000075	0.068772
C32	C	1.433570	0.499925	0.568772
C33	C	1.064588	-0.000066	0.072249
C34	C	1.564588	0.499934	0.572249
C35	C	1.396659	-0.469188	0.273183
C36	C	1.896659	0.030812	0.773183
C37	C	1.510356	-0.530996	0.298547
C38	C	2.010356	-0.030996	0.798547
C39	C	1.485089	-0.408701	0.184809
C40	C	1.985089	0.091299	0.684809
C41	C	1.371421	-0.530987	0.159474
C42	C	1.871421	-0.030987	0.659474
C43	C	1.485108	-0.591422	0.184783
C44	C	1.985108	-0.091422	0.684783
C45	C	1.598844	-0.469148	0.210231
C46	C	2.098844	0.030852	0.710231
C47	C	1.459834	-0.469134	0.071107
C48	C	1.959834	0.030866	0.571107
C49	C	1.573613	-0.530914	0.096424
C50	C	2.073613	-0.030914	0.596424
C51	C	1.485076	-0.303440	0.184827
C52	C	1.985076	0.196560	0.684827
C53	C	1.485134	-0.696681	0.184764
C54	C	1.985134	-0.196681	0.684764
C55	C	1.714632	-0.000073	0.177630
C56	C	2.214632	0.499927	0.677630
C57	C	1.854075	-0.000074	0.181322
C58	C	2.354075	0.499926	0.681322
C59	C	1.492262	-0.000066	-0.044738
C60	C	1.992262	0.499934	0.455262
C61	C	1.488570	-0.000061	-0.184181
C62	C	1.988570	0.499939	0.315819
N63	N	1.485140	0.219410	0.184749
N64	N	1.985140	0.719410	0.684749
C65	C	1.486854	0.084007	-0.249701
C66	C	1.986854	0.584007	0.250299
C67	C	1.483374	0.084008	-0.380721
C68	C	1.983374	0.584008	0.119279
C69	C	1.483331	-0.084135	-0.380692
C70	C	1.983331	0.415865	0.119308
C71	C	1.486802	-0.084135	-0.249673
C72	C	1.986802	0.415865	0.250327
C73	C	1.477926	-0.000062	0.414336
C74	C	1.977926	0.499938	0.914336
C75	C	1.481619	-0.000060	0.553779
C76	C	1.981619	0.499940	1.053779
H77	H	1.078576	-0.000042	0.395294
H78	H	1.578576	0.499958	0.895294
H79	H	1.438420	-0.441940	-0.025006
H80	H	1.938420	0.058060	0.474994
Cl81	Cl	1.222999	-0.572928	0.126404
Cl82	Cl	1.722999	-0.072928	0.626404
H83	H	1.531734	-0.558168	0.394691
H84	H	2.031734	-0.058168	0.894691
H85	H	1.488290	0.152465	-0.196381
H86	H	1.988290	0.652465	0.303619
H87	H	1.481894	-0.152585	-0.434031
H88	H	1.981894	0.347415	0.065969
H89	H	0.840896	-0.000068	0.388984
H90	H	1.340896	0.499932	0.888984
H91	H	1.488192	-0.152598	-0.196325
H92	H	1.988192	0.347402	0.303675
H93	H	1.481974	0.152465	-0.434061
H94	H	1.981974	0.652465	0.065939
H95	H	0.891602	-0.000095	-0.025693
H96	H	1.391602	0.499905	0.474307
Cl97	Cl	1.164521	-0.000072	-0.069243
Cl98	Cl	1.664521	0.499928	0.430757
Cl99	Cl	1.281321	-0.427338	0.388656
Cl100	Cl	1.781321	0.072662	0.888656
H101	H	1.648486	-0.557846	0.021675
H102	H	2.148486	-0.057846	0.521675
Cl103	Cl	1.747305	-0.427392	0.243472
Cl104	Cl	2.247305	0.072608	0.743472
