data_functionalizedCrystal
_audit_creation_method	'MofGen! by Chris Wilmer'
_symmetry_space_group_name_H-M	'P1'
_symmetry_Int_Tables_number	1
_symmetry_cell_setting	triclinic
loop_
_symmetry_equiv_pos_as_xyz
  x,y,z
_cell_length_a	15.297476
_cell_length_b	12.645330
_cell_length_c	15.296720
_cell_angle_alpha	80.351902
_cell_angle_beta	88.383492
_cell_angle_gamma	80.316255
loop_
_atom_site_label
_atom_site_type_symbol
_atom_site_fract_x
_atom_site_fract_y
_atom_site_fract_z
Zn1	Zn	1.253511	-0.825064	0.726644
Zn2	Zn	1.278794	-0.977717	0.580166
Zn3	Zn	1.132381	-0.765509	0.554881
Zn4	Zn	1.107019	-0.967298	0.701293
O5	O	1.192926	-0.883897	0.640746
O6	O	1.379446	-0.874598	0.728405
O7	O	1.280567	-0.929004	0.454237
O8	O	1.148482	-0.625074	0.577694
O9	O	1.398022	-0.986752	0.620789
O10	O	1.237475	-0.668829	0.703887
O11	O	1.172998	-0.773096	0.435660
O12	O	1.006435	-0.762993	0.553112
O13	O	1.105257	-0.968994	0.827231
O14	O	0.987802	-0.911246	0.660680
O15	O	1.212883	-0.864495	0.845857
O16	O	1.255975	-1.124670	0.596206
O17	O	1.129773	-1.117015	0.685197
C18	C	0.965334	-0.829527	0.601401
C19	C	0.867965	-0.806296	0.584590
C20	C	0.831886	-0.718092	0.520773
C21	C	0.740404	-0.696263	0.504976
C22	C	0.684991	-0.762630	0.553000
C23	C	0.721070	-0.850831	0.616823
C24	C	0.812562	-0.872668	0.632617
C25	C	0.665667	-0.917206	0.664844
C26	C	0.701746	-1.005407	0.728668
C27	C	0.793229	-1.027239	0.744459
C28	C	0.848642	-0.960872	0.696435
C29	C	0.574175	-0.895369	0.649051
C30	C	0.554852	-1.049944	0.760895
C31	C	0.646334	-1.071774	0.776692
C32	C	1.192886	-1.159313	0.640718
C33	C	1.192944	-1.277161	0.640749
C34	C	1.272253	-1.449448	0.584608
C35	C	1.272444	-1.326968	0.584813
C36	C	1.201990	-1.343038	0.737402
C37	C	1.202589	-1.465704	0.737134
C38	C	1.104404	-1.418404	0.601142
C39	C	1.105207	-1.295557	0.599148
C40	C	1.421407	-0.938481	0.680245
C41	C	1.518772	-0.961741	0.697077
C42	C	1.153421	-0.922226	0.869215
C43	C	1.136586	-0.938559	0.966575
C44	C	1.192987	-0.607415	0.640798
C45	C	1.193013	-0.489595	0.640820
C46	C	1.232328	-0.845653	0.413175
C47	C	1.249333	-0.829062	0.315845
C48	C	1.313280	-0.766983	1.279806
C49	C	1.329103	-0.751640	1.188333
C50	C	1.280975	-0.798368	1.132889
C51	C	1.217022	-0.860442	1.168927
C52	C	1.201202	-0.875794	1.260410
C53	C	1.168897	-0.907179	1.113493
C54	C	1.104944	-0.969253	1.149531
C55	C	1.089127	-0.984601	1.241005
C56	C	1.137255	-0.937873	1.296449
C57	C	1.184716	-0.891827	1.022010
C58	C	1.072638	-1.000638	1.002614
C59	C	1.056816	-1.015981	1.094087
H60	H	1.268675	-1.463767	0.513276
O61	O	1.089428	-1.437535	0.508300
H62	H	1.026561	-1.386421	0.481804
H63	H	1.098096	-1.250634	0.527942
O64	O	0.832149	-1.122368	0.813294
H65	H	0.778250	-1.164844	0.844043
H66	H	1.293862	-0.785872	1.058408
H67	H	0.675722	-1.143588	0.828657
O68	O	1.287750	-1.529383	0.779184
H69	H	1.345050	-1.502866	0.740632
O70	O	1.253689	-0.824880	0.983141
H71	H	1.235647	-0.741041	0.998114
H72	H	1.337869	-1.499087	0.611883
H73	H	1.004744	-1.066522	1.123442
H74	H	1.146529	-1.492940	0.781325
O75	O	0.891650	-0.646526	0.468972
H76	H	0.871489	-0.561703	0.481076
H77	H	1.338398	-1.316586	0.612326
H78	H	1.268636	-1.281719	0.513647
H79	H	1.145341	-1.311240	0.781092
O80	O	1.024493	-1.248441	0.647689
H81	H	1.045746	-1.211017	0.702473
O82	O	1.286067	-1.328007	0.779731
H83	H	1.321526	-1.273690	0.732110
H84	H	0.544809	-0.823553	0.597087
O85	O	1.020156	-1.051563	1.279874
H86	H	1.017248	-1.054395	1.352799
H87	H	0.610503	-0.744851	0.540135
H88	H	1.352464	-0.728951	1.324957
H89	H	1.045561	-1.443713	0.641888
H90	H	0.923135	-0.978639	0.709294
H91	H	1.381176	-0.701102	1.158998
H92	H	1.033450	-1.038691	0.957471
O93	O	0.701487	-0.601134	0.436149
H94	H	0.755385	-0.558646	0.405415
O95	O	0.495098	-1.121532	0.812704
H96	H	0.425419	-1.091523	0.791008
O97	O	1.120184	-0.954423	1.395113
H98	H	1.164395	-0.911500	1.427607
