data_functionalizedCrystal
_audit_creation_method	'MofGen! by Chris Wilmer'
_symmetry_space_group_name_H-M	'P1'
_symmetry_Int_Tables_number	1
_symmetry_cell_setting	triclinic
loop_
_symmetry_equiv_pos_as_xyz
  x,y,z
_cell_length_a	21.395362
_cell_length_b	21.295417
_cell_length_c	21.395355
_cell_angle_alpha	89.979596
_cell_angle_beta	89.956060
_cell_angle_gamma	90.045579
loop_
_atom_site_label
_atom_site_type_symbol
_atom_site_fract_x
_atom_site_fract_y
_atom_site_fract_z
Zn1	Zn	0.957864	-0.250415	-0.354577
Zn2	Zn	1.457864	0.249585	0.145423
Zn3	Zn	0.957768	-0.355667	-0.249796
Zn4	Zn	1.457768	0.144333	0.250204
Zn5	Zn	0.853079	-0.250445	-0.249779
Zn6	Zn	1.353079	0.249555	0.250221
Zn7	Zn	0.853050	-0.355680	-0.354501
Zn8	Zn	1.353050	0.144320	0.145499
O9	O	0.905440	-0.303052	-0.302163
O10	O	1.405440	0.196948	0.197837
O11	O	1.045529	-0.264359	-0.340717
O12	O	1.545529	0.235641	0.159283
O13	O	0.943853	-0.341716	-0.162116
O14	O	1.443853	0.158284	0.337884
O15	O	0.867031	-0.162351	-0.263705
O16	O	1.367031	0.337649	0.236295
O17	O	1.045459	-0.341687	-0.263735
O18	O	1.545459	0.158313	0.236265
O19	O	0.944016	-0.162330	-0.340700
O20	O	1.444016	0.337670	0.159300
O21	O	0.866938	-0.264409	-0.162103
O22	O	1.366938	0.235591	0.337897
O23	O	0.765397	-0.264422	-0.263631
O24	O	1.265397	0.235578	0.236369
O25	O	0.866982	-0.341709	-0.442189
O26	O	1.366982	0.158291	0.057811
O27	O	0.765376	-0.341738	-0.340570
O28	O	1.265376	0.158262	0.159430
O29	O	0.943988	-0.264372	-0.442245
O30	O	1.443988	0.235628	0.057755
O31	O	0.943825	-0.443758	-0.263661
O32	O	1.443825	0.056242	0.236339
O33	O	0.866889	-0.443767	-0.340587
O34	O	1.366889	0.056233	0.159413
C35	C	0.742652	-0.303085	-0.302091
C36	C	1.242652	0.196915	0.197909
C37	C	0.673011	-0.303114	-0.302074
C38	C	1.173011	0.196886	0.197926
C39	C	0.640303	-0.343426	-0.342077
C40	C	1.140303	0.156574	0.157923
C41	C	0.574868	-0.343411	-0.342105
C42	C	1.074868	0.156589	0.157895
C43	C	0.542143	-0.303090	-0.302119
C44	C	1.042143	0.196910	0.197881
C45	C	0.574859	-0.262771	-0.262114
C46	C	1.074859	0.237229	0.237886
C47	C	0.640293	-0.262783	-0.262092
C48	C	1.140293	0.237217	0.237908
C49	C	0.438418	-0.298019	-0.245714
C50	C	0.938418	0.201981	0.254286
C51	C	0.372985	-0.298011	-0.245735
C52	C	0.872985	0.201989	0.254265
C53	C	0.340322	-0.303049	-0.302188
C54	C	0.840322	0.196951	0.197812
C55	C	0.373100	-0.308108	-0.358622
C56	C	0.873100	0.191892	0.141378
C57	C	0.438534	-0.308120	-0.358599
C58	C	0.938534	0.191880	0.141401
C59	C	0.471191	-0.303072	-0.302139
C60	C	0.971191	0.196928	0.197861
C61	C	0.236662	-0.343346	-0.342224
C62	C	0.736662	0.156654	0.157776
C63	C	0.171225	-0.343326	-0.342253
C64	C	0.671225	0.156674	0.157747
C65	C	0.171217	-0.262690	-0.262257
C66	C	0.671217	0.237310	0.237743
C67	C	0.236653	-0.262706	-0.262234
C68	C	0.736653	0.237294	0.237766
C69	C	0.269371	-0.303038	-0.302216
C70	C	0.769371	0.196962	0.197784
C71	C	0.905360	-0.466603	-0.302132
C72	C	1.405360	0.033397	0.197868
C73	C	0.905383	-0.536571	-0.302139
C74	C	1.405383	-0.036571	0.197861
C75	C	0.945447	-0.569370	-0.342259
C76	C	1.445447	-0.069370	0.157741
C77	C	0.945469	-0.635112	-0.342275
C78	C	1.445469	-0.135112	0.157725
C79	C	0.905434	-0.668054	-0.302159
C80	C	1.405434	-0.168054	0.197841
C81	C	0.865363	-0.635248	-0.262036
C82	C	1.365363	-0.135248	0.237964
C83	C	0.865338	-0.569506	-0.262026
C84	C	1.365338	-0.069506	0.237974
N85	N	0.900697	-0.771307	-0.247324
N86	N	1.400697	-0.271307	0.252676
N87	N	0.900725	-0.833759	-0.247335
N88	N	1.400725	-0.333759	0.252665
C89	C	0.905507	-0.866129	-0.302187
C90	C	1.405507	-0.366129	0.197813
N91	N	0.910273	-0.833688	-0.357029
N92	N	1.410273	-0.333688	0.142971
N93	N	0.910249	-0.771230	-0.357017
N94	N	1.410249	-0.271230	0.142983
C95	C	0.905457	-0.739339	-0.302165
C96	C	1.405457	-0.239339	0.197835
C97	C	0.945597	-0.970212	-0.342327
C98	C	1.445597	-0.470212	0.157673
C99	C	0.945615	-1.035956	-0.342344
C100	C	1.445615	-0.535956	0.157656
C101	C	0.865512	-1.036090	-0.262100
C102	C	1.365512	-0.536090	0.237900
C103	C	0.865491	-0.970348	-0.262089
C104	C	1.365491	-0.470348	0.237911
C105	C	0.905537	-0.937413	-0.302202
C106	C	1.405537	-0.437413	0.197798
C107	C	1.068864	-0.303019	-0.302237
C108	C	1.568864	0.196981	0.197763
C109	C	1.138505	-0.303005	-0.302268
C110	C	1.638505	0.196995	0.197732
C111	C	0.905492	-0.303039	-0.465587
C112	C	1.405492	0.196961	0.034413
C113	C	0.905514	-0.303033	-0.535228
C114	C	1.405514	0.196967	-0.035228
C115	C	0.905537	-0.138861	-0.302209
C116	C	1.405537	0.361139	0.197791
C117	C	0.905579	-0.068893	-0.302228
C118	C	1.405579	0.431107	0.197772
C119	C	0.945610	-0.262762	-0.567971
C120	C	1.445610	0.237238	-0.067971
C121	C	0.945609	-0.262735	-0.633407
C122	C	1.445609	0.237265	-0.133407
C123	C	0.905519	-0.302991	-0.666096
C124	C	1.405519	0.197009	-0.166096
C125	C	0.865416	-0.343265	-0.633345
C126	C	1.365416	0.156735	-0.133345
C127	C	0.865413	-0.343286	-0.567911
C128	C	1.365413	0.156714	-0.067911
C129	C	0.900544	-0.359672	-0.769758
C130	C	1.400544	0.140328	-0.269758
C131	C	0.900551	-0.359652	-0.835191
C132	C	1.400551	0.140348	-0.335191
C133	C	0.905523	-0.302924	-0.867917
C134	C	1.405523	0.197076	-0.367917
C135	C	0.910501	-0.246215	-0.835202
C136	C	1.410501	0.253785	-0.335202
C137	C	0.910499	-0.246237	-0.769768
C138	C	1.410499	0.253763	-0.269768
C139	C	0.905517	-0.302971	-0.737049
C140	C	1.405517	0.197029	-0.237049
C141	C	0.945620	-0.262620	-0.971613
C142	C	1.445620	0.237380	-0.471613
C143	C	0.945615	-0.262592	-1.037050
C144	C	1.445615	0.237408	-0.537050
C145	C	0.865425	-0.343127	-1.036987
C146	C	1.365425	0.156873	-0.536987
C147	C	0.865427	-0.343150	-0.971552
C148	C	1.365427	0.156850	-0.471552
C149	C	0.905528	-0.302897	-0.938869
C150	C	1.405528	0.197103	-0.438869
C151	C	0.905424	-0.303019	-0.139376
C152	C	1.405424	0.196981	0.360624
C153	C	0.905524	-0.302847	-0.069735
C154	C	1.405524	0.197153	0.430265
H155	H	0.144573	-0.229857	-0.229703
H156	H	0.644573	0.270143	0.270297
O157	O	0.341220	-0.293179	-0.190870
O158	O	0.841220	0.206821	0.309130
C159	C	0.357111	-0.343995	-0.151739
C160	C	0.857111	0.156005	0.348261
H161	H	0.404617	-0.363400	-0.166178
H162	H	0.904617	0.136600	0.333822
H163	H	0.359315	-0.327256	-0.101183
H164	H	0.859315	0.172744	0.398817
H165	H	0.320253	-0.382417	-0.156214
H166	H	0.820253	0.117583	0.343786
O167	O	0.470215	-0.293214	-0.190905
O168	O	0.970215	0.206786	0.309095
C169	C	0.507991	-0.346806	-0.182722
C170	C	1.007991	0.153194	0.317278
H171	H	0.517820	-0.369150	-0.230128
H172	H	1.017820	0.130850	0.269872
H173	H	0.553995	-0.332564	-0.159898
H174	H	1.053995	0.167436	0.340102
H175	H	0.482705	-0.382040	-0.151522
H176	H	0.982705	0.117960	0.348478
H177	H	0.548210	-0.229940	-0.229559
H178	H	1.048210	0.270060	0.270441
O179	O	0.826508	-0.537574	-0.223018
O180	O	1.326508	-0.037574	0.276982
C181	C	0.862187	-0.499539	-0.182578
C182	C	1.362187	0.000461	0.317422
H183	H	0.909656	-0.489625	-0.204733
H184	H	1.409656	0.010375	0.295267
H185	H	0.836655	-0.453343	-0.174142
H186	H	1.336655	0.046657	0.325858
H187	H	0.869101	-0.524892	-0.136159
H188	H	1.369101	-0.024892	0.363841
H189	H	0.832760	-0.376079	-0.541252
H190	H	1.332760	0.123921	-0.041252
O191	O	0.984556	-0.938189	-0.381208
O192	O	1.484556	-0.438189	0.118792
C193	C	1.025022	-0.900122	-0.345586
C194	C	1.525022	-0.400122	0.154414
H195	H	1.028926	-0.919953	-0.296247
H196	H	1.528926	-0.419953	0.203753
H197	H	1.073227	-0.899310	-0.368311
H198	H	1.573227	-0.399310	0.131689
H199	H	1.005635	-0.850320	-0.343395
H200	H	1.505635	-0.350320	0.156605
O201	O	0.984595	-1.067721	-0.381337
O202	O	1.484595	-0.567721	0.118663
C203	C	1.019923	-1.024551	-0.416746
C204	C	1.519923	-0.524551	0.083254
H205	H	1.022083	-0.977699	-0.391077
H206	H	1.522083	-0.477699	0.108923
H207	H	1.069293	-1.043484	-0.423487
H208	H	1.569293	-0.543484	0.076513
H209	H	0.996960	-1.017561	-0.464305
H210	H	1.496960	-0.517561	0.035695
O211	O	0.826443	-0.667313	-0.223154
O212	O	1.326443	-0.167313	0.276846
C213	C	0.785964	-0.705360	-0.258781
C214	C	1.285964	-0.205360	0.241219
H215	H	0.808044	-0.715159	-0.306292
H216	H	1.308044	-0.215159	0.193708
H217	H	0.777598	-0.751612	-0.233256
H218	H	1.277598	-0.251612	0.266744
H219	H	0.739519	-0.680077	-0.265605
H220	H	1.239519	-0.180077	0.234395
O221	O	0.915438	-0.191100	-0.866960
O222	O	1.415438	0.308900	-0.366960
C223	C	0.972087	-0.161293	-0.851010
C224	C	1.472087	0.338707	-0.351010
H225	H	1.006666	-0.197770	-0.833047
H226	H	1.506666	0.302230	-0.333047
H227	H	0.992340	-0.137134	-0.894062
H228	H	1.492340	0.362866	-0.394062
H229	H	0.963064	-0.124874	-0.813025
H230	H	1.463064	0.375126	-0.313025
O231	O	0.671988	-0.382619	-0.380978
O232	O	1.171988	0.117381	0.119022
C233	C	0.629082	-0.418207	-0.416280
C234	C	1.129082	0.081793	0.083720
H235	H	0.582466	-0.392418	-0.418511
H236	H	1.082466	0.107582	0.081489
H237	H	0.648034	-0.425001	-0.465627
H238	H	1.148034	0.074999	0.034373
H239	H	0.622051	-0.465980	-0.393249
H240	H	1.122051	0.034020	0.106751
O241	O	0.984578	-0.223598	-0.536321
O242	O	1.484578	0.276402	-0.036321
C243	C	1.019978	-0.188058	-0.579259
C244	C	1.519978	0.311942	-0.079259
H245	H	0.994318	-0.185871	-0.625884
H246	H	1.494318	0.314129	-0.125884
H247	H	1.026691	-0.138465	-0.560361
H248	H	1.526691	0.361535	-0.060361
H249	H	1.067550	-0.211099	-0.586250
H250	H	1.567550	0.288901	-0.086250
H251	H	0.978258	-0.229938	-0.660072
H252	H	1.478258	0.270062	-0.160072
O253	O	0.826587	-1.068149	-0.223220
O254	O	1.326587	-0.568149	0.276780
C255	C	0.786105	-1.106190	-0.258851
C256	C	1.286105	-0.606190	0.241149
H257	H	0.808187	-1.115990	-0.306361
H258	H	1.308187	-0.615990	0.193639
H259	H	0.777732	-1.152442	-0.233328
H260	H	1.277732	-0.652442	0.266672
H261	H	0.739664	-1.080900	-0.265676
H262	H	1.239664	-0.580900	0.234324
H263	H	0.978053	-0.542556	-0.374923
H264	H	1.478053	-0.042556	0.125077
H265	H	0.978264	-0.229795	-1.063708
H266	H	1.478264	0.270205	-0.563708
H267	H	0.832777	-0.375897	-1.063602
H268	H	1.332777	0.124103	-0.563602
O269	O	0.984586	-0.223456	-0.939957
O270	O	1.484586	0.276544	-0.439957
C271	C	1.019983	-0.187911	-0.982893
C272	C	1.519983	0.312089	-0.482893
H273	H	0.994321	-0.185720	-1.029517
H274	H	1.494321	0.314280	-0.529517
H275	H	1.026694	-0.138319	-0.963991
H276	H	1.526694	0.361681	-0.463991
H277	H	1.067556	-0.210949	-0.989889
H278	H	1.567556	0.289051	-0.489889
H279	H	0.832871	-0.943642	-0.229417
H280	H	1.332871	-0.443642	0.270583
O281	O	0.268457	-0.223486	-0.223459
O282	O	0.768457	0.276514	0.276541
C283	C	0.306400	-0.182899	-0.259190
C284	C	0.806400	0.317101	0.240810
H285	H	0.286739	-0.179078	-0.308550
H286	H	0.786739	0.320922	0.191450
H287	H	0.307166	-0.134422	-0.236615
H288	H	0.807166	0.365578	0.263385
H289	H	0.355974	-0.202377	-0.261296
H290	H	0.855974	0.297623	0.238704
H291	H	0.978088	-0.661822	-0.374952
H292	H	1.478088	-0.161822	0.125048
O293	O	0.672096	-0.223558	-0.223318
O294	O	1.172096	0.276442	0.276682
C295	C	0.710041	-0.182973	-0.259048
C296	C	1.210041	0.317027	0.240952
H297	H	0.690383	-0.179152	-0.308409
H298	H	1.190383	0.320848	0.191591
H299	H	0.710809	-0.134496	-0.236474
H300	H	1.210809	0.365504	0.263526
H301	H	0.759615	-0.202453	-0.261152
H302	H	1.259615	0.297547	0.238848
O303	O	0.826461	-0.382332	-0.939838
O304	O	1.326461	0.117668	-0.439838
C305	C	0.791063	-0.417846	-0.982719
C306	C	1.291063	0.082154	-0.482719
H307	H	0.816727	-0.420007	-1.029382
H308	H	1.316727	0.079993	-0.529382
H309	H	0.784346	-0.467450	-0.963806
H310	H	1.284346	0.032550	-0.463806
H311	H	0.743492	-0.394799	-0.989645
H312	H	1.243492	0.105201	-0.489645
O313	O	0.915219	-0.191128	-0.738017
O314	O	1.415219	0.308872	-0.238017
C315	C	0.864621	-0.151910	-0.753983
C316	C	1.364621	0.348090	-0.253983
H317	H	0.824229	-0.181803	-0.771944
H318	H	1.324229	0.318197	-0.271944
H319	H	0.848869	-0.124621	-0.710939
H320	H	1.348869	0.375379	-0.210939
H321	H	0.879848	-0.117593	-0.791974
H322	H	1.379848	0.382407	-0.291974
H323	H	0.346508	-0.312209	-0.404591
H324	H	0.846508	0.187791	0.095409
O325	O	0.268352	-0.382536	-0.381127
O326	O	0.768352	0.117464	0.118873
C327	C	0.225448	-0.418120	-0.416435
C328	C	0.725448	0.081880	0.083565
H329	H	0.178832	-0.392329	-0.418667
H330	H	0.678832	0.107671	0.081333
H331	H	0.244403	-0.424908	-0.465782
H332	H	0.744403	0.075092	0.034218
H333	H	0.218415	-0.465895	-0.393410
H334	H	0.718415	0.034105	0.106590
O335	O	0.543021	-0.382605	-0.380877
O336	O	1.043021	0.117395	0.119123
C337	C	0.505105	-0.423210	-0.345139
C338	C	1.005105	0.076790	0.154861
H339	H	0.495271	-0.400932	-0.297703
H340	H	0.995271	0.099068	0.202297
H341	H	0.459112	-0.431680	-0.370660
H342	H	0.959112	0.068320	0.129340
H343	H	0.530271	-0.469853	-0.338157
H344	H	1.030271	0.030147	0.161843
H345	H	0.896501	-0.405828	-0.861823
H346	H	1.396501	0.094172	-0.361823
O347	O	0.895584	-0.414797	-0.738018
O348	O	1.395584	0.085203	-0.238018
C349	C	0.838901	-0.444541	-0.753960
C350	C	1.338901	0.055459	-0.253960
H351	H	0.822477	-0.426849	-0.801479
H352	H	1.322477	0.073151	-0.301479
H353	H	0.846364	-0.497494	-0.756161
H354	H	1.346364	0.002506	-0.256161
H355	H	0.802027	-0.433335	-0.717132
H356	H	1.302027	0.066665	-0.217132
O357	O	0.470278	-0.313004	-0.413473
O358	O	0.970278	0.186996	0.086527
C359	C	0.427425	-0.317466	-0.463307
C360	C	0.927425	0.182534	0.036693
H361	H	0.380783	-0.296285	-0.448530
H362	H	0.880783	0.203715	0.051470
H363	H	0.446406	-0.290793	-0.505459
H364	H	0.946406	0.209207	-0.005459
H365	H	0.420433	-0.368925	-0.476229
H366	H	0.920433	0.131075	0.023771
O367	O	0.139424	-0.382398	-0.381181
O368	O	0.639424	0.117602	0.118819
C369	C	0.101645	-0.346616	-0.421723
C370	C	0.601645	0.153384	0.078277
H371	H	0.121418	-0.297047	-0.425681
H372	H	0.621418	0.202953	0.074319
H373	H	0.100937	-0.369460	-0.469897
H374	H	0.600937	0.130540	0.030103
H375	H	0.052034	-0.344407	-0.402375
H376	H	0.552034	0.155593	0.097625
H377	H	0.832773	-0.376039	-0.659965
H378	H	1.332773	0.123961	-0.159965
