data_functionalizedCrystal
_audit_creation_method	'MofGen! by Chris Wilmer'
_symmetry_space_group_name_H-M	'P1'
_symmetry_Int_Tables_number	1
_symmetry_cell_setting	triclinic
loop_
_symmetry_equiv_pos_as_xyz
  x,y,z
_cell_length_a	16.109301
_cell_length_b	22.010155
_cell_length_c	16.109301
_cell_angle_alpha	89.994083
_cell_angle_beta	96.538519
_cell_angle_gamma	90.012987
loop_
_atom_site_label
_atom_site_type_symbol
_atom_site_fract_x
_atom_site_fract_y
_atom_site_fract_z
O1	O	1.103146	0.050489	-0.106865
O2	O	1.603146	0.550489	0.393135
O3	O	0.861084	0.050499	-0.120165
O4	O	1.361084	0.550499	0.379835
O5	O	0.988764	0.050487	0.007516
O6	O	1.488764	0.550487	0.507516
O7	O	0.975465	0.050500	-0.234546
O8	O	1.475465	0.550500	0.265454
O9	O	0.988726	-0.050563	0.007516
O10	O	1.488726	0.449437	0.507516
O11	O	0.861045	-0.050552	-0.120164
O12	O	1.361045	0.449448	0.379836
O13	O	1.103107	-0.050562	-0.106865
O14	O	1.603107	0.449438	0.393135
Cu15	Cu	0.982073	-0.059783	-0.113515
Cu16	Cu	1.482073	0.440217	0.386485
Cu17	Cu	0.982118	0.059720	-0.113515
Cu18	Cu	1.482118	0.559720	0.386485
O19	O	0.975426	-0.050550	-0.234546
O20	O	1.475426	0.449450	0.265454
C21	C	0.830090	-0.000025	-0.119626
C22	C	1.330090	0.499975	0.380374
C23	C	0.737794	-0.000022	-0.118011
C24	C	1.237794	0.499978	0.381989
C25	C	0.515522	-0.000025	-0.190018
C26	C	1.015522	0.499975	0.309982
C27	C	0.428801	-0.000029	-0.188494
C28	C	0.928801	0.499971	0.311506
C29	C	0.448676	-0.000035	-0.037006
C30	C	0.948676	0.499965	0.462994
C31	C	0.535394	-0.000035	-0.038530
C32	C	1.035394	0.499965	0.461470
C33	C	0.568815	-0.000027	-0.115039
C34	C	1.068815	0.499973	0.384961
C35	C	0.395376	-0.000031	-0.111990
C36	C	0.895376	0.499969	0.388010
C37	C	0.301350	-0.000035	-0.110337
C38	C	0.801350	0.499965	0.389663
C39	C	0.662847	-0.000024	-0.116693
C40	C	1.162847	0.499976	0.383307
N41	N	0.982047	-0.143836	-0.113514
N42	N	1.482047	0.356164	0.386486
C43	C	1.032529	-0.563615	-0.163947
C44	C	1.532529	-0.063615	0.336053
C45	C	1.032538	-0.627222	-0.163945
C46	C	1.532538	-0.127222	0.336055
O47	O	1.075430	-0.660113	-0.206820
O48	O	1.575430	-0.160113	0.293180
N49	N	0.982134	-0.659043	-0.113505
N50	N	1.482134	-0.159043	0.386495
C51	C	0.931724	-0.627253	-0.063058
C52	C	1.431724	-0.127253	0.436942
O53	O	0.888852	-0.660159	-0.020155
O54	O	1.388852	-0.160159	0.479845
C55	C	0.931719	-0.563646	-0.063056
C56	C	1.431719	-0.063646	0.436944
C57	C	0.982120	-0.531829	-0.113506
C58	C	1.482120	-0.031829	0.386494
C59	C	1.082926	-0.531797	-0.214392
C60	C	1.582926	-0.031797	0.285608
C61	C	1.082915	-0.468194	-0.214395
C62	C	1.582915	0.031806	0.285605
C63	C	1.032506	-0.436408	-0.163953
C64	C	1.532506	0.063592	0.336047
C65	C	0.982109	-0.468226	-0.113509
C66	C	1.482109	0.031774	0.386491
C67	C	0.881313	-0.531857	-0.012605
C68	C	1.381313	-0.031857	0.487395
C69	C	0.881313	-0.468247	-0.012607
C70	C	1.381313	0.031753	0.487393
C71	C	0.931714	-0.436429	-0.063057
C72	C	1.431714	0.063571	0.436943
C73	C	0.931689	-0.372837	-0.063070
C74	C	1.431689	0.127163	0.436930
N75	N	0.982093	-0.341016	-0.113510
N76	N	1.482093	0.158984	0.386490
C77	C	1.032502	-0.372802	-0.163951
C78	C	1.532502	0.127198	0.336049
C79	C	0.931738	-0.760831	-0.063065
C80	C	1.431738	-0.260831	0.436935
C81	C	0.931738	-0.824436	-0.063070
C82	C	1.431738	-0.324436	0.436930
C83	C	1.032554	-0.824401	-0.163956
C84	C	1.532554	-0.324401	0.336044
C85	C	1.032550	-0.760795	-0.163955
C86	C	1.532550	-0.260795	0.336045
C87	C	0.982143	-0.729010	-0.113504
C88	C	1.482143	-0.229010	0.386496
C89	C	1.032474	-0.239231	-0.163954
C90	C	1.532474	0.260769	0.336046
C91	C	1.032456	-0.175622	-0.163955
C92	C	1.532456	0.324378	0.336045
C93	C	0.931643	-0.175662	-0.063067
C94	C	1.431643	0.324338	0.436933
C95	C	0.931657	-0.239265	-0.063068
C96	C	1.431657	0.260735	0.436932
C97	C	0.982080	-0.271048	-0.113515
C98	C	1.482080	0.228952	0.386485
O99	O	0.888821	-0.339905	-0.020215
O100	O	1.388821	0.160095	0.479785
O101	O	1.075374	-0.339887	-0.206840
O102	O	1.575374	0.160113	0.293160
C103	C	1.134101	-0.000036	-0.107404
C104	C	1.634101	0.499964	0.392596
C105	C	1.226397	-0.000036	-0.109019
C106	C	1.726397	0.499964	0.390981
C107	C	0.988206	-0.000038	0.038491
C108	C	1.488206	0.499962	0.538491
C109	C	0.986591	-0.000039	0.130786
C110	C	1.486591	0.499961	0.630786
N111	N	0.982151	0.143773	-0.113509
N112	N	1.482151	0.643773	0.386491
C113	C	0.975984	-0.000023	-0.265521
C114	C	1.475984	0.499977	0.234479
C115	C	0.977600	-0.000019	-0.357816
C116	C	1.477600	0.499981	0.142184
C117	C	1.058599	-0.000032	0.353059
C118	C	1.558599	0.499968	0.853059
C119	C	1.057075	-0.000027	0.439779
C120	C	1.557075	0.499973	0.939779
C121	C	0.905586	-0.000024	0.419905
C122	C	1.405586	0.499976	0.919905
C123	C	0.907111	-0.000024	0.333186
C124	C	1.407111	0.499976	0.833186
C125	C	0.983620	-0.000032	0.299766
C126	C	1.483620	0.499968	0.799766
C127	C	0.980571	-0.000026	0.473205
C128	C	1.480571	0.499974	0.973205
C129	C	0.978918	-0.000021	0.567231
C130	C	1.478918	0.499979	1.067231
C131	C	0.985273	-0.000036	0.205734
C132	C	1.485273	0.499964	0.705734
H133	H	1.073498	-0.149719	-0.205041
H134	H	1.573498	0.350281	0.294959
H135	H	0.843295	-0.000019	0.447127
H136	H	1.343295	0.499981	0.947127
H137	H	0.890599	-0.149771	-0.022001
H138	H	1.390599	0.350229	0.477999
C139	C	0.824630	-0.000025	0.274560
C140	C	1.324630	0.499975	0.774560
H141	H	0.778846	-0.000030	0.306882
H142	H	1.278846	0.499970	0.806882
H143	H	0.822089	0.035213	0.240313
H144	H	1.322089	0.535213	0.740313
H145	H	0.822068	-0.035269	0.240323
H146	H	1.322068	0.464731	0.740323
C147	C	1.087929	-0.274183	-0.219451
C148	C	1.587929	0.225817	0.280549
H149	H	1.117932	-0.246116	-0.249497
H150	H	1.617932	0.253884	0.250503
H151	H	1.126211	-0.298991	-0.185403
H152	H	1.626211	0.201009	0.314597
H153	H	1.053844	-0.298998	-0.257709
H154	H	1.553844	0.201002	0.242291
C155	C	1.142754	-0.000034	0.316298
C156	C	1.642754	0.499966	0.816298
H157	H	1.187190	-0.000028	0.360461
H158	H	1.687190	0.499972	0.860461
H159	H	1.146490	-0.035272	0.282886
H160	H	1.646490	0.464728	0.782886
H161	H	1.146507	0.035209	0.282880
H162	H	1.646507	0.535209	0.782880
C163	C	1.138365	-0.433203	-0.269881
C164	C	1.638365	0.066797	0.230119
H165	H	1.168390	-0.461251	-0.299911
H166	H	1.668390	0.038749	0.200089
H167	H	1.104291	-0.408393	-0.308139
H168	H	1.604291	0.091607	0.191861
H169	H	1.176641	-0.408387	-0.235816
H170	H	1.676641	0.091613	0.264184
H171	H	1.073590	-0.734893	-0.205035
H172	H	1.573590	-0.234893	0.294965
C173	C	0.552282	-0.000023	-0.274174
C174	C	1.052282	0.499977	0.225826
H175	H	0.508119	-0.000028	-0.318610
H176	H	1.008119	0.499972	0.181390
H177	H	0.585709	0.035215	-0.277923
H178	H	1.085709	0.535215	0.222077
H179	H	0.585686	-0.035266	-0.277914
H180	H	1.085686	0.464734	0.222086
C181	C	0.370179	-0.000024	-0.270969
C182	C	0.870179	0.499976	0.229031
H183	H	0.313745	-0.000031	-0.259107
H184	H	0.813745	0.499969	0.240893
H185	H	0.380318	0.035217	-0.302341
H186	H	0.880318	0.535217	0.197659
H187	H	0.380300	-0.035265	-0.302339
H188	H	0.880300	0.464735	0.197661
C189	C	0.411910	-0.000035	0.047147
C190	C	0.911910	0.499965	0.547147
H191	H	0.352630	-0.000028	0.037318
H192	H	0.852630	0.499972	0.537318
H193	H	0.430192	-0.035274	0.078024
H194	H	0.930192	0.464726	0.578024
H195	H	0.430217	0.035208	0.078013
H196	H	0.930217	0.535208	0.578013
C197	C	0.594024	-0.000037	0.043948
C198	C	1.094024	0.499963	0.543948
H199	H	0.650457	-0.000042	0.032080
H200	H	1.150457	0.499958	0.532080
H201	H	0.583910	0.035200	0.075321
H202	H	1.083910	0.535200	0.575321
H203	H	0.583885	-0.035281	0.075319
H204	H	1.083885	0.464719	0.575319
C205	C	1.138376	-0.566752	-0.269887
C206	C	1.638376	-0.066752	0.230113
H207	H	1.168380	-0.538684	-0.299930
H208	H	1.668380	-0.038684	0.200070
H209	H	1.176657	-0.591563	-0.235842
H210	H	1.676657	-0.091563	0.264158
H211	H	1.104290	-0.591564	-0.308148
H212	H	1.604290	-0.091564	0.191852
H213	H	1.073599	-0.850293	-0.205030
H214	H	1.573599	-0.350293	0.294970
C215	C	0.876289	-0.859428	-0.007585
C216	C	1.376289	-0.359428	0.492415
H217	H	0.846272	-0.831382	0.022457
H218	H	1.346272	-0.331382	0.522457
H219	H	0.838019	-0.884249	-0.041639
H220	H	1.338019	-0.384249	0.458361
H221	H	0.910376	-0.884234	0.030677
H222	H	1.410376	-0.384234	0.530677
C223	C	0.876275	-0.725873	-0.007579
C224	C	1.376275	-0.225873	0.492421
H225	H	0.846254	-0.753938	0.022451
H226	H	1.346254	-0.253938	0.522451
H227	H	0.910344	-0.701054	0.030680
H228	H	1.410344	-0.201054	0.530680
H229	H	0.837994	-0.701068	-0.041643
H230	H	1.337994	-0.201068	0.458357
H231	H	0.840272	-0.557752	0.028477
H232	H	1.340272	-0.057752	0.528477
H233	H	0.840265	-0.442371	0.028477
H234	H	1.340265	0.057629	0.528477
C235	C	0.876194	-0.274266	-0.007601
C236	C	1.376194	0.225734	0.492399
H237	H	0.846167	-0.246223	0.022435
H238	H	1.346167	0.253777	0.522435
H239	H	0.837932	-0.299083	-0.041670
H240	H	1.337932	0.200917	0.458330
H241	H	0.910269	-0.299075	0.030665
H242	H	1.410269	0.200925	0.530665
C243	C	1.139552	-0.000032	0.498398
C244	C	1.639552	0.499968	0.998398
H245	H	1.185333	-0.000041	0.466071
H246	H	1.685333	0.499959	0.966071
H247	H	1.142123	0.035207	0.532636
H248	H	1.642123	0.535207	1.032636
H249	H	1.142091	-0.035275	0.532644
H250	H	1.642091	0.464725	1.032644
