data_functionalizedCrystal
_audit_creation_method	'MofGen! by Chris Wilmer'
_symmetry_space_group_name_H-M	'P1'
_symmetry_Int_Tables_number	1
_symmetry_cell_setting	triclinic
loop_
_symmetry_equiv_pos_as_xyz
  x,y,z
_cell_length_a	13.897449
_cell_length_b	16.120484
_cell_length_c	13.897441
_cell_angle_alpha	92.865635
_cell_angle_beta	89.979267
_cell_angle_gamma	92.926780
loop_
_atom_site_label
_atom_site_type_symbol
_atom_site_fract_x
_atom_site_fract_y
_atom_site_fract_z
Zn1	Zn	1.455182	-0.331852	-0.564824
Zn2	Zn	1.446874	-0.471283	-0.411694
Zn3	Zn	1.293869	-0.331892	-0.403544
Zn4	Zn	1.285654	-0.471229	-0.572943
O5	O	1.370395	-0.401564	-0.488251
O6	O	1.589061	-0.350354	-0.544523
O7	O	1.426539	-0.452832	-0.275633
O8	O	1.322182	-0.215221	-0.418130
O9	O	1.582958	-0.452794	-0.432019
O10	O	1.440698	-0.215191	-0.536621
O11	O	1.314126	-0.350422	-0.269646
O12	O	1.157798	-0.350369	-0.426003
O13	O	1.308182	-0.452700	-0.706846
O14	O	1.151763	-0.452739	-0.550460
O15	O	1.432733	-0.350301	-0.700880
O16	O	1.418574	-0.587942	-0.439893
O17	O	1.300126	-0.587901	-0.558362
C18	C	1.119781	-0.401553	-0.488229
C19	C	1.012566	-0.401568	-0.488243
C20	C	0.816271	-0.401571	-0.488268
C21	C	0.925504	-0.401567	-0.488251
C22	C	1.357583	-0.618172	-0.500914
C23	C	1.352190	-0.710837	-0.506363
C24	C	1.342350	-0.880499	-0.516332
C25	C	1.398613	-0.921788	-0.460186
C26	C	1.393137	-1.016194	-0.465733
C27	C	1.347824	-0.786085	-0.510787
C28	C	1.621987	-0.401576	-0.488275
C29	C	1.729201	-0.401581	-0.488285
C30	C	1.370468	-0.401490	-0.739840
C31	C	1.370499	-0.401459	-0.847052
C32	C	1.383283	-0.184110	-0.475560
C33	C	1.388775	-0.091444	-0.470152
C34	C	1.370528	-0.401402	-1.043344
C35	C	1.370509	-0.401436	-0.934114
C36	C	1.370382	-0.401577	-0.237638
C37	C	1.370551	-0.401374	-0.130412
H38	H	1.450891	-0.886236	-0.407952
O39	O	1.279956	-0.922775	-0.578723
C40	C	1.228693	-0.865797	-0.629823
H41	H	1.271728	-0.803662	-0.629629
H42	H	1.216923	-0.890999	-0.707260
H43	H	1.155975	-0.856657	-0.593900
