data_functionalizedCrystal
_audit_creation_method	'MofGen! by Chris Wilmer'
_symmetry_space_group_name_H-M	'P1'
_symmetry_Int_Tables_number	1
_symmetry_cell_setting	triclinic
loop_
_symmetry_equiv_pos_as_xyz
  x,y,z
_cell_length_a	8.559649
_cell_length_b	11.792241
_cell_length_c	7.681481
_cell_angle_alpha	84.218353
_cell_angle_beta	94.913240
_cell_angle_gamma	76.986040
loop_
_atom_site_label
_atom_site_type_symbol
_atom_site_fract_x
_atom_site_fract_y
_atom_site_fract_z
O1	O	2.104794	-0.026424	-0.146400
O2	O	2.604794	0.473576	0.353600
O3	O	1.640097	0.032148	-0.146410
O4	O	2.140097	0.532148	0.353590
O5	O	1.883724	-0.163342	-0.146392
O6	O	2.383724	0.336658	0.353608
O7	O	1.861167	0.169066	-0.146418
O8	O	2.361167	0.669066	0.353582
O9	O	1.913710	-0.187452	0.146467
O10	O	2.413710	0.312548	0.646467
O11	O	1.670083	0.008038	0.146450
O12	O	2.170083	0.508038	0.646450
O13	O	2.134780	-0.050534	0.146460
O14	O	2.634780	0.449466	0.646460
Zn15	Zn	1.907192	-0.025076	0.192953
Zn16	Zn	2.407192	0.474924	0.692953
Zn17	Zn	1.867684	0.006690	-0.192903
Zn18	Zn	2.367684	0.506690	0.307097
O19	O	1.891153	0.144956	0.146442
O20	O	2.391153	0.644956	0.646442
C21	C	1.595598	0.024531	0.000018
C22	C	2.095598	0.524531	0.500018
C23	C	1.418332	0.037744	0.000015
C24	C	1.918332	0.537744	0.500015
C25	C	1.897300	-0.217558	0.000037
C26	C	2.397300	0.282442	0.500037
C27	C	1.893059	-0.343183	0.000035
C28	C	2.393059	0.156817	0.500035
C29	C	1.885259	-0.573179	0.000005
C30	C	2.385259	-0.073179	0.500005
C31	C	1.889593	-0.445192	0.000022
C32	C	2.389593	0.054808	0.500022
C33	C	2.179278	-0.042917	0.000027
C34	C	2.679278	0.457083	0.500027
C35	C	2.356543	-0.056128	0.000019
C36	C	2.856543	0.443872	0.500019
C37	C	1.877577	0.199172	0.000009
C38	C	2.377577	0.699172	0.500009
C39	C	1.881816	0.324799	-0.000001
C40	C	2.381816	0.824799	0.499999
N41	N	1.934167	-0.046757	0.456289
N42	N	2.434167	0.453243	0.956289
N43	N	1.840722	0.028361	-0.456239
N44	N	2.340722	0.528361	0.043761
H45	H	1.335608	0.128227	-0.000001
H46	H	1.835608	0.628227	0.499999
O47	O	1.455348	-0.163990	-0.000206
O48	O	1.955348	0.336010	0.499794
C49	C	1.537210	-0.164887	-0.151901
C50	C	2.037210	0.335113	0.348099
H51	H	1.541074	-0.071404	-0.202476
H52	H	2.041074	0.428596	0.297524
H53	H	1.665562	-0.220752	-0.117784
H54	H	2.165562	0.279248	0.382216
H55	H	1.471196	-0.203229	-0.258106
H56	H	1.971196	0.296771	0.241894
H57	H	1.745334	0.105035	0.468557
H58	H	2.245334	0.605035	0.968557
O59	O	2.047890	-0.138368	0.545812
O60	O	2.547890	0.361632	1.045812
C61	C	2.016148	-0.244655	0.500940
C62	C	2.516148	0.255345	1.000940
H63	H	1.940983	-0.228180	0.367048
H64	H	2.440983	0.271820	0.867048
H65	H	2.134958	-0.310525	0.494804
H66	H	2.634958	0.189475	0.994804
H67	H	1.946840	-0.281208	0.604679
H68	H	2.446840	0.218792	1.104679
