data_functionalizedCrystal
_audit_creation_method	'MofGen! by Chris Wilmer'
_symmetry_space_group_name_H-M	'P1'
_symmetry_Int_Tables_number	1
_symmetry_cell_setting	triclinic
loop_
_symmetry_equiv_pos_as_xyz
  x,y,z
_cell_length_a	13.185407
_cell_length_b	13.101018
_cell_length_c	13.262975
_cell_angle_alpha	70.747204
_cell_angle_beta	68.869614
_cell_angle_gamma	92.211659
loop_
_atom_site_label
_atom_site_type_symbol
_atom_site_fract_x
_atom_site_fract_y
_atom_site_fract_z
O1	O	1.457303	0.165311	-0.287559
O2	O	1.138166	0.134974	-0.178655
O3	O	1.308807	0.194416	-0.392019
O4	O	1.286662	0.105869	-0.074195
O5	O	1.296549	0.019717	-0.376696
O6	O	1.125909	-0.039725	-0.163332
O7	O	1.445046	-0.009388	-0.272236
Zn8	Zn	1.283531	-0.052294	-0.215351
Zn9	Zn	1.299681	0.177880	-0.235540
O10	O	1.274405	-0.068831	-0.058872
C11	C	1.091242	0.044549	-0.159952
C12	C	0.969687	0.035389	-0.127068
C13	C	0.685158	0.122823	-0.440910
C14	C	0.799365	0.131424	-0.471809
C15	C	0.841952	0.107416	-0.385627
C16	C	0.770319	0.074806	-0.268539
C17	C	0.656100	0.066196	-0.237635
C18	C	0.812893	0.050789	-0.182353
C19	C	0.741260	0.018179	-0.065265
C20	C	0.627053	0.009572	-0.034367
C21	C	0.584467	0.033579	-0.120549
C22	C	0.927112	0.059399	-0.213256
C23	C	0.898054	0.002772	-0.009982
C24	C	0.783847	-0.005829	0.020918
N25	N	1.272517	-0.209381	-0.201576
C26	C	1.325682	-0.450765	-0.268070
C27	C	1.257542	-0.423638	-0.182836
C28	C	1.265877	-0.304414	-0.193266
C29	C	1.317349	-0.570000	-0.257643
C30	C	1.491969	0.081039	-0.290939
C31	C	1.613525	0.090206	-0.323824
C32	C	1.302560	0.118163	-0.424178
C33	C	1.302196	0.151227	-0.542828
N34	N	1.310703	0.334970	-0.249326
C35	C	1.308721	0.261998	-0.606902
C36	C	1.308393	0.293088	-0.718387
C37	C	1.301549	0.213411	-0.765812
C38	C	1.295032	0.102638	-0.701741
C39	C	1.295351	0.071544	-0.590241
C40	C	1.288180	0.022957	-0.749151
C41	C	1.281663	-0.087816	-0.685080
C42	C	1.281983	-0.118905	-0.573592
C43	C	1.288826	-0.039228	-0.526167
C44	C	1.287861	0.054051	-0.860650
C45	C	1.274491	-0.136403	-0.843989
C46	C	1.274819	-0.167493	-0.732505
C47	C	1.280652	0.007425	-0.026713
C48	C	1.281016	-0.025632	0.091936
H49	H	0.985425	0.085952	-0.308590
H50	H	0.568731	-0.016993	0.060975
F51	F	0.462914	0.024440	-0.087670
H52	H	1.390274	-0.384455	-0.348869
F53	F	1.294797	0.171940	-0.928827
H54	H	0.934945	0.114421	-0.410793
H55	H	0.857681	0.157971	-0.567142
H56	H	1.314286	0.326858	-0.568275
F57	F	0.943370	-0.022788	0.081747
F58	F	1.289181	-0.072311	-0.407513
F59	F	1.301202	0.246503	-0.884465
H60	H	1.313702	0.383279	-0.770547
H61	H	1.276671	-0.209104	-0.521426
F62	F	0.707598	-0.040533	0.145528
F63	F	1.267882	-0.285383	-0.664303
H64	H	1.268914	-0.201284	-0.882600
H65	H	0.650471	0.142337	-0.511064
H66	H	1.192947	-0.489955	-0.102031
