data_functionalizedCrystal
_audit_creation_method	'MofGen! by Chris Wilmer'
_symmetry_space_group_name_H-M	'P1'
_symmetry_Int_Tables_number	1
_symmetry_cell_setting	triclinic
loop_
_symmetry_equiv_pos_as_xyz
  x,y,z
_cell_length_a	10.654550
_cell_length_b	11.295483
_cell_length_c	10.654550
_cell_angle_alpha	85.865008
_cell_angle_beta	84.484931
_cell_angle_gamma	94.141852
loop_
_atom_site_label
_atom_site_type_symbol
_atom_site_fract_x
_atom_site_fract_y
_atom_site_fract_z
O1	O	1.676220	0.098935	0.168022
O2	O	1.310743	0.098957	0.184827
O3	O	1.501884	0.098938	-0.006314
O4	O	1.485079	0.098954	0.359163
O5	O	1.485095	-0.099111	0.010448
O6	O	1.293954	-0.099092	0.201589
O7	O	1.659431	-0.099114	0.184785
Cu8	Cu	1.475160	-0.117186	0.194717
Cu9	Cu	1.495014	0.117030	0.174894
O10	O	1.468290	-0.099095	0.375925
C11	C	1.255551	-0.000065	0.191974
C12	C	1.116108	-0.000057	0.188281
N13	N	1.461204	-0.281921	0.208659
C14	C	1.036623	-0.000055	0.300822
C15	C	0.905600	-0.000076	0.297348
C16	C	0.933562	-0.000095	0.068780
C17	C	1.064581	-0.000082	0.072257
C18	C	1.609437	-0.531225	0.060510
C19	C	1.598900	-0.655888	0.071055
C20	C	1.429588	-0.655911	0.240287
C21	C	1.440125	-0.531249	0.229742
C22	C	1.530054	-0.468910	0.139852
C23	C	1.540596	-0.344245	0.129314
C24	C	1.371279	-0.344271	0.298539
C25	C	1.360741	-0.468934	0.309084
C26	C	1.714623	-0.000089	0.177638
C27	C	1.854066	-0.000090	0.181330
C28	C	1.492255	-0.000086	-0.044731
C29	C	1.488564	-0.000084	-0.184174
N30	N	1.508979	0.281765	0.160942
C31	C	1.601105	-0.000090	-0.263659
C32	C	1.597629	-0.000075	-0.394682
C33	C	1.369062	-0.000053	-0.366720
C34	C	1.372539	-0.000059	-0.235701
C35	C	1.477919	-0.000068	0.414342
C36	C	1.481611	-0.000063	0.553785
H37	H	1.078571	-0.000043	0.395297
H38	H	1.663540	-0.706622	0.006446
O39	O	1.342170	-0.716616	0.327430
C40	C	1.258001	-0.788708	0.265530
H41	H	1.305593	-0.807357	0.169290
H42	H	1.231183	-0.876384	0.325165
H43	H	1.169166	-0.740681	0.252083
H44	H	1.613824	-0.293490	0.056124
O45	O	0.828574	-0.000018	0.406784
C46	C	0.902152	-0.000024	0.509930
H47	H	1.002816	0.037480	0.475726
H48	H	0.859383	0.057478	0.583984
H49	H	0.903754	-0.095033	0.553487
O50	O	0.883303	-0.000058	-0.043818
C51	C	0.750614	-0.000095	-0.022755
H52	H	0.723877	0.037405	0.071811
H53	H	0.714615	0.057396	-0.101931
H54	H	0.706055	-0.095112	-0.021115
O55	O	1.273327	-0.529628	0.396237
C56	C	1.189144	-0.601727	0.334360
H57	H	1.236724	-0.620392	0.238120
H58	H	1.162328	-0.689394	0.394010
H59	H	1.100311	-0.553697	0.320915
H60	H	1.306643	-0.293520	0.363148
H61	H	1.129302	-0.000087	-0.019394
O62	O	1.696824	-0.470847	-0.026903
C63	C	1.764661	-0.552582	-0.094645
H64	H	1.705650	-0.641455	-0.089030
H65	H	1.786000	-0.516559	-0.197813
H66	H	1.857186	-0.565824	-0.051874
O67	O	1.706937	0.000128	-0.471961
C68	C	1.720453	0.102691	-0.557271
H69	H	1.662728	0.174386	-0.515914
H70	H	1.824410	0.137110	-0.574026
H71	H	1.685153	0.079515	-0.650855
O72	O	1.256464	-0.000093	-0.416979
C73	C	1.277526	-0.000063	-0.549667
H74	H	1.372088	-0.037564	-0.576406
H75	H	1.198344	-0.057557	-0.585669
H76	H	1.279176	0.094952	-0.594221
O77	O	1.263087	-0.000107	-0.158656
C78	C	1.159937	-0.000064	-0.232228
H79	H	1.187775	-0.037560	-0.326552
H80	H	1.076139	-0.057554	-0.179728
H81	H	1.132487	0.094955	-0.249897
H82	H	1.695579	-0.000107	-0.221711
