data_functionalizedCrystal
_audit_creation_method	'MofGen! by Chris Wilmer'
_symmetry_space_group_name_H-M	'P1'
_symmetry_Int_Tables_number	1
_symmetry_cell_setting	triclinic
loop_
_symmetry_equiv_pos_as_xyz
  x,y,z
_cell_length_a	18.050591
_cell_length_b	18.050590
_cell_length_c	18.101389
_cell_angle_alpha	89.980851
_cell_angle_beta	89.985365
_cell_angle_gamma	90.017393
loop_
_atom_site_label
_atom_site_type_symbol
_atom_site_fract_x
_atom_site_fract_y
_atom_site_fract_z
Zn1	Zn	1.135372	-0.295760	-0.418643
Zn2	Zn	1.135295	-0.419935	-0.294800
Zn3	Zn	1.011183	-0.295760	-0.294826
Zn4	Zn	1.011160	-0.419910	-0.418610
O5	O	1.073253	-0.357841	-0.356720
O6	O	1.239287	-0.312242	-0.402219
O7	O	1.118808	-0.403473	-0.191171
O8	O	1.027698	-0.191836	-0.311275
O9	O	1.239230	-0.403473	-0.311232
O10	O	1.118940	-0.191836	-0.402243
O11	O	1.027623	-0.312242	-0.191189
O12	O	0.907255	-0.312219	-0.311242
O13	O	1.027660	-0.403432	-0.522247
O14	O	0.907239	-0.403432	-0.402186
O15	O	1.118918	-0.312219	-0.522272
O16	O	1.118787	-0.523856	-0.311199
O17	O	1.027586	-0.523838	-0.402162
C18	C	0.880301	-0.357823	-0.356714
C19	C	0.797755	-0.357833	-0.356729
C20	C	0.548942	-0.407537	-0.406117
C21	C	0.598310	-0.425603	-0.338521
C22	C	0.500634	-0.357857	-0.356727
C23	C	0.598348	-0.339814	-0.424320
C24	C	0.646619	-0.357847	-0.356732
C25	C	0.548915	-0.375958	-0.289096
C26	C	0.548949	-0.290137	-0.374941
C27	C	0.598295	-0.308177	-0.307298
C28	C	0.416536	-0.357864	-0.356726
C29	C	0.730716	-0.357840	-0.356725
C30	C	1.073196	-0.550794	-0.356690
C31	C	1.073239	-0.633339	-0.356702
C32	C	1.122937	-0.832773	-0.307306
C33	C	1.141078	-0.882116	-0.374895
C34	C	1.073281	-0.784470	-0.356732
C35	C	1.055217	-0.882207	-0.289174
C36	C	1.073323	-0.930455	-0.356755
C37	C	1.091456	-0.832726	-0.424356
C38	C	1.005564	-0.832813	-0.338590
C39	C	1.023678	-0.882134	-0.406225
C40	C	1.073259	-0.700371	-0.356718
C41	C	1.073346	-1.014551	-0.356776
C42	C	1.266958	-0.357860	-0.356726
C43	C	1.349504	-0.357868	-0.356729
C44	C	1.073296	-0.357823	-0.549882
C45	C	1.073314	-0.357815	-0.632196
C46	C	1.073330	-0.164136	-0.356766
C47	C	1.073363	-0.081590	-0.356785
C48	C	1.073357	-0.357675	-0.931287
C49	C	1.015742	-0.414881	-0.899946
C50	C	1.015898	-0.415147	-0.814328
C51	C	1.073335	-0.357745	-0.782904
C52	C	1.151585	-0.378990	-0.813997
C53	C	1.151264	-0.379365	-0.899642
C54	C	1.053402	-0.279097	-0.899716
C55	C	1.051662	-0.279551	-0.814065
C56	C	1.073327	-0.357782	-0.699045
C57	C	1.073370	-0.357639	-1.015147
C58	C	1.073253	-0.357807	-0.164309
C59	C	1.073378	-0.357605	-0.081996
H60	H	0.527293	-0.391284	-0.231920
H61	H	0.619992	-0.482868	-0.323112
F62	F	1.209244	-0.327236	-0.926744
F63	F	0.520584	-0.215309	-0.395106
H64	H	1.198363	-0.903775	-0.390254
F65	F	1.033154	-0.491269	-0.787549
H66	H	1.195666	-0.338633	-0.793644
H67	H	0.948295	-0.811138	-0.323210
H68	H	0.620061	-0.324558	-0.481480
F69	F	1.032757	-0.490539	-0.928121
H70	H	0.957873	-0.401852	-0.793305
F71	F	0.968814	-0.910288	-0.460931
F72	F	1.177841	-0.804441	-0.252729
H73	H	0.997334	-0.259741	-0.921311
F74	F	1.111545	-0.804441	-0.499065
F75	F	1.035222	-0.910617	-0.214486
H76	H	0.619828	-0.266160	-0.265485
H77	H	0.957543	-0.401723	-0.920542
H78	H	1.095366	-0.236476	-0.919985
F79	F	1.173371	-0.454446	-0.925759
F80	F	0.976390	-0.258612	-0.787511
F81	F	1.174077	-0.453273	-0.785967
H82	H	0.527272	-0.449587	-0.447829
H83	H	1.090562	-0.234667	-0.792675
