data_functionalizedCrystal
_audit_creation_method	'MofGen! by Chris Wilmer'
_symmetry_space_group_name_H-M	'P1'
_symmetry_Int_Tables_number	1
_symmetry_cell_setting	triclinic
loop_
_symmetry_equiv_pos_as_xyz
  x,y,z
_cell_length_a	17.699104
_cell_length_b	17.699092
_cell_length_c	9.130313
_cell_angle_alpha	89.997169
_cell_angle_beta	89.995591
_cell_angle_gamma	83.288943
loop_
_atom_site_label
_atom_site_type_symbol
_atom_site_fract_x
_atom_site_fract_y
_atom_site_fract_z
O1	O	1.004068	0.095786	-0.121823
O2	O	1.504068	0.595786	0.378177
O3	O	0.783692	0.108222	-0.121819
O4	O	1.283692	0.608222	0.378181
O5	O	0.900103	-0.008185	-0.121818
O6	O	1.400103	0.491815	0.378182
O7	O	0.887657	0.212192	-0.121825
O8	O	1.387657	0.712192	0.378175
O9	O	0.900095	-0.008188	0.121781
O10	O	1.400095	0.491812	0.621781
O11	O	0.783684	0.108218	0.121780
O12	O	1.283684	0.608218	0.621780
O13	O	1.004060	0.095782	0.121775
O14	O	1.504060	0.595782	0.621775
Cu15	Cu	0.893871	0.102000	0.144020
Cu16	Cu	1.393871	0.602000	0.644020
Cu17	Cu	0.893880	0.102004	-0.144064
Cu18	Cu	1.393880	0.602004	0.355936
O19	O	0.887649	0.212189	0.121774
O20	O	1.387649	0.712189	0.621774
C21	C	0.755491	0.107772	-0.000019
C22	C	1.255491	0.607772	0.499981
C23	C	0.671474	0.106427	-0.000018
C24	C	1.171474	0.606427	0.499982
C25	C	0.146605	0.167170	-0.000035
C26	C	0.646605	0.667170	0.499965
C27	C	0.225548	0.168430	-0.000039
C28	C	0.725548	0.668430	0.499961
C29	C	0.274164	0.100095	-0.000037
C30	C	0.774164	0.600095	0.499963
C31	C	0.243832	0.030496	-0.000045
C32	C	0.743832	0.530496	0.499955
C33	C	0.164890	0.029238	-0.000051
C34	C	0.664890	0.529238	0.499949
C35	C	0.562198	0.035569	-0.000022
C36	C	1.062198	0.535569	0.499978
C37	C	0.641145	0.036833	-0.000011
C38	C	1.141145	0.536833	0.499989
C39	C	0.622857	0.174761	-0.000010
C40	C	1.122857	0.674761	0.499990
C41	C	0.543915	0.173503	-0.000016
C42	C	1.043915	0.673503	0.499984
C43	C	0.513590	0.103905	-0.000032
C44	C	1.013590	0.603905	0.499968
C45	C	0.427990	0.102540	-0.000030
C46	C	0.927990	0.602540	0.499970
C47	C	0.359762	0.101458	-0.000028
C48	C	0.859762	0.601458	0.499972
C49	C	0.899652	-0.036383	-0.000021
C50	C	1.399652	0.463617	0.499979
C51	C	0.898311	-0.120401	-0.000028
C52	C	1.398311	0.379599	0.499972
C53	C	0.897687	-0.159867	-0.132815
C54	C	1.397687	0.340133	0.367185
C55	C	0.896422	-0.238810	-0.132817
C56	C	1.396422	0.261190	0.367183
C57	C	0.895786	-0.278286	-0.000030
C58	C	1.395786	0.221714	0.499970
C59	C	0.896408	-0.238815	0.132768
C60	C	1.396408	0.261185	0.632768
C61	C	0.897667	-0.159873	0.132768
C62	C	1.397667	0.340127	0.632768
C63	C	0.891328	-0.557180	0.132770
C64	C	1.391328	-0.057180	0.632770
C65	C	0.890070	-0.636128	0.132760
C66	C	1.390070	-0.136128	0.632760
C67	C	0.890082	-0.636118	-0.132815
C68	C	1.390082	-0.136118	0.367185
C69	C	0.891341	-0.557175	-0.132815
C70	C	1.391341	-0.057175	0.367185
C71	C	0.891959	-0.517710	-0.000018
C72	C	1.391959	-0.017710	0.499982
C73	C	0.893329	-0.432111	-0.000018
C74	C	1.393329	0.067889	0.499982
C75	C	0.894421	-0.363885	-0.000028
C76	C	1.394421	0.136115	0.499972
C77	C	1.032260	0.096232	-0.000028
C78	C	1.532260	0.596232	0.499972
C79	C	1.116278	0.097577	-0.000039
C80	C	1.616278	0.597577	0.499961
C81	C	0.888100	0.240387	-0.000026
C82	C	1.388100	0.740387	0.499974
C83	C	0.889441	0.324405	-0.000029
C84	C	1.389441	0.824405	0.499971
N85	N	0.893870	0.101997	0.346643
N86	N	1.393870	0.601997	0.846643
N87	N	0.893887	0.102001	-0.346687
N88	N	1.393887	0.602001	0.153313
C89	C	0.945434	0.050474	0.423295
C90	C	1.445434	0.550474	0.923295
C91	C	0.945441	0.050474	0.576632
C92	C	1.445441	0.550474	1.076632
C93	C	0.842318	0.153527	0.576650
C94	C	1.342318	0.653527	1.076650
C95	C	0.842308	0.153523	0.423316
C96	C	1.342308	0.653523	0.923316
H97	H	0.647557	0.231431	-0.000003
H98	H	1.147557	0.731431	0.499997
O99	O	0.889393	-0.678681	-0.276053
O100	O	1.389393	-0.178681	0.223947
H101	H	0.941203	-0.670371	-0.339732
H102	H	1.441203	-0.170371	0.160268
O103	O	0.786719	0.209108	0.659358
O104	O	1.286719	0.709108	1.159358
H105	H	0.750859	0.244933	0.580292
H106	H	1.250859	0.744933	1.080292
H107	H	0.987428	0.008518	0.639038
H108	H	1.487428	0.508518	1.139038
H109	H	0.891846	-0.525059	0.240902
H110	H	1.391846	-0.025059	0.740902
O111	O	0.693583	-0.036876	-0.000006
O112	O	1.193583	0.463124	0.499994
H113	H	0.730001	-0.039592	-0.099279
H114	H	1.230001	0.460408	0.400721
H115	H	0.889551	-0.668268	0.240898
H116	H	1.389551	-0.168268	0.740898
O117	O	0.786693	0.209099	0.340624
O118	O	1.286693	0.709099	0.840624
H119	H	0.750848	0.244937	0.419697
H120	H	1.250848	0.744937	0.919697
H121	H	0.107027	0.222817	-0.000026
H122	H	0.607027	0.722817	0.499974
H123	H	0.891862	-0.525038	-0.240944
H124	H	1.391862	-0.025038	0.259056
O125	O	0.895737	-0.281389	0.275995
O126	O	1.395737	0.218611	0.775995
H127	H	0.894770	-0.342916	0.253690
H128	H	1.394770	0.157084	0.753690
H129	H	0.898165	-0.127739	0.240897
H130	H	1.398165	0.372261	0.740897
O131	O	0.132174	-0.045823	-0.000040
O132	O	0.632174	0.454177	0.499960
H133	H	0.179240	-0.093130	-0.000021
H134	H	0.679240	0.406870	0.499979
O135	O	0.258255	0.243494	-0.000036
O136	O	0.758255	0.743494	0.499964
H137	H	0.321315	0.232891	-0.000052
H138	H	0.821315	0.732891	0.499948
H139	H	0.537518	-0.021102	-0.000031
H140	H	1.037518	0.478898	0.499969
O141	O	1.001033	-0.005118	0.340612
O142	O	1.501033	0.494882	0.840612
H143	H	0.969228	-0.041863	0.270783
H144	H	1.469228	0.458137	0.770783
O145	O	0.491477	0.247205	-0.000019
O146	O	0.991477	0.747205	0.499981
H147	H	0.525829	0.295811	-0.000031
H148	H	1.025829	0.795811	0.499969
H149	H	0.898208	-0.127731	-0.240946
H150	H	1.398208	0.372269	0.259054
O151	O	0.296262	-0.043212	-0.000029
O152	O	0.796262	0.456788	0.499971
H153	H	0.356251	-0.030647	-0.000003
H154	H	0.856251	0.469353	0.499997
H155	H	0.895917	-0.270940	-0.240946
H156	H	1.395917	0.229060	0.259054
