data_functionalizedCrystal
_audit_creation_method	'MofGen! by Chris Wilmer'
_symmetry_space_group_name_H-M	'P1'
_symmetry_Int_Tables_number	1
_symmetry_cell_setting	triclinic
loop_
_symmetry_equiv_pos_as_xyz
  x,y,z
_cell_length_a	17.699083
_cell_length_b	16.053802
_cell_length_c	17.699083
_cell_angle_alpha	87.440590
_cell_angle_beta	83.283015
_cell_angle_gamma	92.569971
loop_
_atom_site_label
_atom_site_type_symbol
_atom_site_fract_x
_atom_site_fract_y
_atom_site_fract_z
O1	O	1.007269	0.069313	0.092524
O2	O	1.507269	0.569313	0.592524
O3	O	0.786892	0.069341	0.104975
O4	O	1.286892	0.569341	0.604975
O5	O	0.903307	0.069319	-0.011439
O6	O	1.403307	0.569319	0.488561
O7	O	0.890855	0.069335	0.208938
O8	O	1.390855	0.569335	0.708938
O9	O	0.896899	-0.069539	-0.005058
O10	O	1.396899	0.430461	0.494942
O11	O	0.780484	-0.069517	0.111357
O12	O	1.280484	0.430483	0.611357
O13	O	1.000862	-0.069544	0.098905
O14	O	1.500862	0.430456	0.598905
Zn15	Zn	0.889656	-0.091577	0.106144
Zn16	Zn	1.389656	0.408423	0.606144
Zn17	Zn	0.898098	0.091374	0.097736
Zn18	Zn	1.398098	0.591374	0.597736
O19	O	0.884447	-0.069522	0.215320
O20	O	1.384447	0.430478	0.715320
C21	C	0.755492	-0.000084	0.107720
C22	C	1.255492	0.499916	0.607720
C23	C	0.671474	-0.000074	0.106380
C24	C	1.171474	0.499926	0.606380
N25	N	0.883899	-0.216436	0.111882
N26	N	1.383899	0.283564	0.611882
C27	C	0.622853	-0.000069	0.174714
C28	C	1.122853	0.499931	0.674714
C29	C	0.543909	-0.000080	0.173452
C30	C	1.043909	0.499920	0.673452
C31	C	0.513588	-0.000090	0.103856
C32	C	1.013588	0.499910	0.603856
C33	C	0.562215	-0.000097	0.035518
C34	C	1.062215	0.499903	0.535518
C35	C	0.641157	-0.000092	0.036780
C36	C	1.141157	0.499908	0.536780
C37	C	0.243851	-0.000118	0.030423
C38	C	0.743851	0.499882	0.530423
C39	C	0.164903	-0.000121	0.029166
C40	C	0.664903	0.499879	0.529166
C41	C	0.146603	-0.000106	0.167095
C42	C	0.646603	0.499894	0.667095
C43	C	0.225545	-0.000101	0.168358
C44	C	0.725545	0.499899	0.668358
C45	C	0.274165	-0.000113	0.100020
C46	C	0.774165	0.499887	0.600020
C47	C	0.359765	-0.000103	0.101389
C48	C	0.859765	0.499897	0.601389
C49	C	0.427990	-0.000094	0.102486
C50	C	0.927990	0.499906	0.602486
C51	C	0.933452	-0.260140	0.062365
C52	C	1.433452	0.239860	0.562365
C53	C	0.929432	-0.347546	0.066386
C54	C	1.429432	0.152454	0.566386
C55	C	0.875864	-0.391247	0.119927
C56	C	1.375864	0.108753	0.619927
C57	C	0.826306	-0.347537	0.169447
C58	C	1.326306	0.152463	0.669447
C59	C	0.830322	-0.260133	0.165422
C60	C	1.330322	0.239867	0.665422
C61	C	0.858319	-0.652653	0.137487
C62	C	1.358319	-0.152653	0.637487
C63	C	0.854308	-0.740064	0.141510
C64	C	1.354308	-0.240064	0.641510
C65	C	0.957434	-0.740066	0.038447
C66	C	1.457434	-0.240066	0.538447
C67	C	0.961449	-0.652660	0.034430
C68	C	1.461449	-0.152660	0.534430
C69	C	0.911888	-0.608958	0.083947
C70	C	1.411888	-0.108958	0.583947
N71	N	0.871755	-0.480590	0.124040
N72	N	1.371755	0.019410	0.624040
N73	N	0.915994	-0.519617	0.079830
N74	N	1.415994	-0.019617	0.579830
C75	C	1.032262	-0.000117	0.096161
C76	C	1.532262	0.499883	0.596161
C77	C	1.116280	-0.000122	0.097500
C78	C	1.616280	0.499878	0.597500
C79	C	0.899657	-0.000110	-0.036445
C80	C	1.399657	0.499890	0.463555
C81	C	0.898318	-0.000110	-0.120464
C82	C	1.398318	0.499890	0.379536
N83	N	0.903860	0.216233	0.091993
N84	N	1.403860	0.716233	0.591993
C85	C	0.966651	-0.000120	-0.169084
C86	C	1.466651	0.499880	0.330916
C87	C	0.965389	-0.000112	-0.248028
C88	C	1.465389	0.499888	0.251972
C89	C	0.895793	-0.000101	-0.278349
C90	C	1.395793	0.499899	0.221651
C91	C	0.827455	-0.000089	-0.229722
C92	C	1.327455	0.499911	0.270278
C93	C	0.828718	-0.000090	-0.150781
C94	C	1.328718	0.499910	0.349219
C95	C	0.822360	-0.000081	-0.548086
C96	C	1.322360	0.499919	-0.048086
C97	C	0.821102	-0.000082	-0.627034
C98	C	1.321102	0.499918	-0.127034
C99	C	0.959031	-0.000103	-0.645333
C100	C	1.459031	0.499897	-0.145333
C101	C	0.960294	-0.000105	-0.566391
C102	C	1.460294	0.499895	-0.066391
C103	C	0.891957	-0.000088	-0.517772
C104	C	1.391957	0.499912	-0.017772
C105	C	0.893326	-0.000095	-0.432172
C106	C	1.393326	0.499905	0.067828
C107	C	0.894423	-0.000100	-0.363947
C108	C	1.394423	0.499900	0.136053
C109	C	0.888097	-0.000092	0.240326
C110	C	1.388097	0.499908	0.740326
C111	C	0.889436	-0.000086	0.324344
C112	C	1.389436	0.499914	0.824344
H113	H	0.647534	-0.000061	0.231387
H114	H	1.147534	0.499939	0.731387
H115	H	0.770789	-0.000074	-0.254416
H116	H	1.270789	0.499926	0.245584
F117	F	0.769289	-0.394048	0.226427
F118	F	1.269289	0.105952	0.726427
H119	H	1.014675	-0.000113	-0.684929
H120	H	1.514675	0.499887	-0.184929
F121	F	0.747025	-0.000069	-0.659301
F122	F	1.247025	0.499931	-0.159301
H123	H	0.969781	-0.383128	0.026065
H124	H	1.469781	0.116872	0.526065
H125	H	0.537521	-0.000117	-0.021148
H126	H	1.037521	0.499883	0.478852
F127	F	0.492167	-0.000071	0.246182
F128	F	0.992167	0.499929	0.746182
F129	F	0.990472	-0.213638	0.005381
F130	F	1.490472	0.286362	0.505381
H131	H	1.005069	-0.617080	-0.009168
H132	H	1.505069	-0.117080	0.490832
F133	F	0.777579	-0.213622	0.218123
F134	F	1.277579	0.286378	0.718123
F135	F	1.040725	-0.000140	-0.136821
F136	F	1.540725	0.499860	0.363179
F137	F	1.010175	-0.786582	-0.014250
F138	F	1.510175	-0.286582	0.485750
H139	H	0.250228	-0.000090	0.225030
H140	H	0.750228	0.499910	0.725030
F141	F	0.755989	-0.000077	-0.099035
F142	F	1.255989	0.499923	0.400965
F143	F	1.038118	-0.000124	-0.299770
F144	F	1.538118	0.499876	0.200230
H145	H	0.680744	-0.000096	-0.018864
H146	H	1.180744	0.499904	0.481136
F147	F	1.034367	-0.000116	-0.534126
F148	F	1.534367	0.499884	-0.034126
F149	F	0.749629	-0.000061	-0.496351
F150	F	1.249629	0.499939	0.003649
F151	F	0.094852	-0.000097	0.239827
F152	F	0.594852	0.499903	0.739827
H153	H	0.140219	-0.000130	-0.027511
H154	H	0.640219	0.499870	0.472489
F155	F	0.797290	-0.786568	0.198501
F156	F	1.297290	-0.286568	0.698501
F157	F	0.805576	-0.606149	0.190188
F158	F	1.305576	-0.106149	0.690188
F159	F	0.295586	-0.000131	-0.042308
F160	F	0.795586	0.499869	0.457692
