data_functionalizedCrystal
_audit_creation_method	'MofGen! by Chris Wilmer'
_symmetry_space_group_name_H-M	'P1'
_symmetry_Int_Tables_number	1
_symmetry_cell_setting	triclinic
loop_
_symmetry_equiv_pos_as_xyz
  x,y,z
_cell_length_a	12.594517
_cell_length_b	19.121063
_cell_length_c	12.594509
_cell_angle_alpha	92.405810
_cell_angle_beta	89.978673
_cell_angle_gamma	92.468805
loop_
_atom_site_label
_atom_site_type_symbol
_atom_site_fract_x
_atom_site_fract_y
_atom_site_fract_z
Zn1	Zn	1.609106	-0.279596	-0.619881
Zn2	Zn	2.109106	0.220404	-0.119881
Zn3	Zn	1.601367	-0.397059	-0.449473
Zn4	Zn	2.101367	0.102941	0.050527
Zn5	Zn	1.431108	-0.279626	-0.441911
Zn6	Zn	1.931108	0.220374	0.058089
Zn7	Zn	1.423466	-0.397010	-0.627400
Zn8	Zn	1.923466	0.102990	-0.127400
O9	O	1.516262	-0.338323	-0.534666
O10	O	2.016262	0.161677	-0.034666
O11	O	1.757025	-0.295185	-0.597293
O12	O	2.257025	0.204815	-0.097293
O13	O	1.578742	-0.381514	-0.299526
O14	O	2.078742	0.118486	0.200474
O15	O	1.461157	-0.181338	-0.459208
O16	O	1.961157	0.318662	0.040792
O17	O	1.751339	-0.381485	-0.472096
O18	O	2.251339	0.118515	0.027904
O19	O	1.591931	-0.181315	-0.589961
O20	O	2.091931	0.318685	-0.089961
O21	O	1.453653	-0.295237	-0.293971
O22	O	1.953653	0.204763	0.206029
O23	O	1.281149	-0.295189	-0.466499
O24	O	1.781149	0.204811	0.033501
O25	O	1.448132	-0.381402	-0.775346
O26	O	1.948132	0.118598	-0.275346
O27	O	1.275534	-0.381431	-0.602777
O28	O	1.775534	0.118569	-0.102777
O29	O	1.584521	-0.295138	-0.769822
O30	O	2.084521	0.204862	-0.269822
O31	O	1.571331	-0.495337	-0.479386
O32	O	2.071331	0.004663	0.020614
O33	O	1.440628	-0.495301	-0.610109
O34	O	1.940628	0.004699	-0.110109
C35	C	1.239722	-0.338309	-0.534634
C36	C	1.739722	0.161691	-0.034634
C37	C	1.121416	-0.338319	-0.534646
C38	C	1.621416	0.161681	-0.034646
C39	C	1.055190	-0.291349	-0.460657
C40	C	1.555190	0.208651	0.039343
C41	C	0.980217	-0.355414	-0.438606
C42	C	1.480217	0.144586	0.061394
C43	C	0.985587	-0.274285	-0.556717
C44	C	1.485587	0.225715	-0.056717
C45	C	1.047999	-0.402419	-0.512547
C46	C	1.547999	0.097581	-0.012547
C47	C	1.053378	-0.321246	-0.630701
C48	C	1.553378	0.178754	-0.130701
C49	C	0.978435	-0.385356	-0.608690
C50	C	1.478435	0.114644	-0.108690
C51	C	1.504339	-0.520803	-0.546407
C52	C	2.004339	-0.020803	-0.046407
C53	C	1.499336	-0.598868	-0.551466
C54	C	1.999336	-0.098868	-0.051466
C55	C	1.565089	-0.635539	-0.485838
C56	C	2.065089	-0.135539	0.014162
C57	C	1.560390	-0.708890	-0.490602
C58	C	2.060390	-0.208890	0.009398
C59	C	1.489932	-0.745569	-0.560988
C60	C	1.989932	-0.245569	-0.060988
C61	C	1.424176	-0.708893	-0.626623
C62	C	1.924176	-0.208893	-0.126623
C63	C	1.428881	-0.635544	-0.621864
C64	C	1.928881	-0.135544	-0.121864
C65	C	1.472323	-0.967038	-0.578765
C66	C	1.972323	-0.467038	-0.078765
C67	C	1.467620	-1.040393	-0.583517
C68	C	1.967620	-0.540393	-0.083517
C69	C	1.603835	-1.040385	-0.447497
C70	C	2.103835	-0.540385	0.052503
C71	C	1.608530	-0.967034	-0.442740
C72	C	2.108530	-0.467034	0.057260
C73	C	1.542779	-0.930365	-0.508378
C74	C	2.042779	-0.430365	-0.008378
C75	C	1.485124	-0.820546	-0.565857
C76	C	1.985124	-0.320546	-0.065857
C77	C	1.547592	-0.855389	-0.503514
C78	C	2.047592	-0.355389	-0.003514
C79	C	1.793882	-0.338337	-0.534699
C80	C	2.293882	0.161663	-0.034699
C81	C	1.912187	-0.338343	-0.534713
C82	C	2.412187	0.161657	-0.034713
C83	C	1.516337	-0.338261	-0.812283
C84	C	2.016337	0.161739	-0.312283
C85	C	1.516369	-0.338235	-0.930587
C86	C	2.016369	0.161765	-0.430587
C87	C	1.528260	-0.155130	-0.522903
C88	C	2.028260	0.344870	-0.022903
C89	C	1.533373	-0.077064	-0.517890
C90	C	2.033373	0.422936	-0.017890
C91	C	1.442211	-0.385127	-1.002843
C92	C	1.942211	0.114873	-0.502843
C93	C	1.538217	-0.402288	-1.074740
C94	C	2.038217	0.097712	-0.574740
C95	C	1.420442	-0.321032	-1.069487
C96	C	1.920442	0.178968	-0.569487
C97	C	1.612424	-0.355429	-1.000927
C98	C	2.112424	0.144571	-0.500927
C99	C	1.494585	-0.274143	-0.995667
C100	C	1.994585	0.225857	-0.495667
C101	C	1.590659	-0.291280	-1.067530
C102	C	2.090659	0.208720	-0.567530
C103	C	1.516251	-0.338333	-0.258126
C104	C	2.016251	0.161667	0.241874
C105	C	1.516438	-0.338162	-0.139810
C106	C	2.016438	0.161838	0.360190
H107	H	0.957978	-0.220129	-0.575322
H108	H	1.457978	0.279871	-0.075322
Cl109	Cl	1.737747	-0.377951	-0.954588
Cl110	Cl	2.237747	0.122049	-0.454588
Cl111	Cl	1.687632	-0.230008	-1.111239
Cl112	Cl	2.187632	0.269992	-0.611239
Cl113	Cl	1.466034	-0.190533	-0.942213
Cl114	Cl	1.966034	0.309467	-0.442213
H115	H	1.379541	-0.424844	-0.974345
H116	H	1.879541	0.075156	-0.474345
H117	H	1.622458	-0.605680	-0.428518
H118	H	2.122458	-0.105680	0.071482
H119	H	0.945025	-0.425134	-0.671292
H120	H	1.445025	0.074866	-0.171292
H121	H	1.556680	-0.456457	-1.109336
H122	H	2.056680	0.043543	-0.609336
H123	H	1.613932	-0.738745	-0.437161
H124	H	2.113932	-0.238745	0.062839
Cl125	Cl	1.295149	-0.298612	-1.116043
Cl126	Cl	1.795149	0.201388	-0.616043
Cl127	Cl	1.686496	-1.086488	-0.364993
Cl128	Cl	2.186496	-0.586488	0.135007
H129	H	1.088788	-0.251666	-0.398014
H130	H	1.588788	0.248334	0.101986
Cl131	Cl	0.930657	-0.377733	-0.313238
Cl132	Cl	1.430657	0.122267	0.186762
H133	H	1.075422	-0.456598	-0.493817
H134	H	1.575422	0.043402	0.006183
H135	H	1.085502	-0.306771	-0.711878
H136	H	1.585502	0.193229	-0.211878
H137	H	1.665902	-0.937172	-0.385426
H138	H	2.165902	-0.437172	0.114574
H139	H	1.410257	-1.070255	-0.640852
H140	H	1.910257	-0.570255	-0.140852
H141	H	1.366812	-0.738763	-0.683937
H142	H	1.866812	-0.238763	-0.183937
Cl143	Cl	1.389661	-0.920949	-0.661280
Cl144	Cl	1.889661	-0.420949	-0.161280
H145	H	1.604963	-0.825523	-0.446209
H146	H	2.104963	-0.325523	0.053791
Cl147	Cl	1.346221	-0.589443	-0.704374
Cl148	Cl	1.846221	-0.089443	-0.204374
H149	H	1.427755	-0.850418	-0.623164
H150	H	1.927755	-0.350418	-0.123164
