data_functionalizedCrystal
_audit_creation_method	'MofGen! by Chris Wilmer'
_symmetry_space_group_name_H-M	'P1'
_symmetry_Int_Tables_number	1
_symmetry_cell_setting	triclinic
loop_
_symmetry_equiv_pos_as_xyz
  x,y,z
_cell_length_a	23.532407
_cell_length_b	19.288859
_cell_length_c	17.766277
_cell_angle_alpha	89.989768
_cell_angle_beta	89.988964
_cell_angle_gamma	82.991201
loop_
_atom_site_label
_atom_site_type_symbol
_atom_site_fract_x
_atom_site_fract_y
_atom_site_fract_z
O1	O	0.071029	0.921137	-0.062617
O2	O	0.571029	1.421137	0.437383
O3	O	0.080616	0.718846	-0.062616
O4	O	0.580616	1.218846	0.437384
O5	O	-0.007097	0.826091	-0.062603
O6	O	0.492903	1.326091	0.437397
O7	O	0.158741	0.813891	-0.062630
O8	O	0.658741	1.313891	0.437370
O9	O	-0.007101	0.826073	0.062586
O10	O	0.492899	1.326073	0.562586
O11	O	0.080612	0.718827	0.062573
O12	O	0.580612	1.218827	0.562573
O13	O	0.071024	0.921118	0.062572
O14	O	0.571024	1.421118	0.562572
Cu15	Cu	0.075817	0.819971	0.074003
Cu16	Cu	0.575817	1.319971	0.574003
Cu17	Cu	0.075823	0.819993	-0.074047
Cu18	Cu	0.575823	1.319993	0.425953
O19	O	0.158737	0.813873	0.062558
O20	O	0.658737	1.313873	0.562558
C21	C	0.080306	0.692961	-0.000021
C22	C	0.580306	1.192961	0.499979
C23	C	0.079382	0.615860	-0.000020
C24	C	0.579382	1.115860	0.499980
C25	C	-0.028316	0.825771	-0.000006
C26	C	0.471684	1.325771	0.499994
C27	C	-0.091535	0.824837	-0.000001
C28	C	0.408465	1.324837	0.499999
C29	C	0.124595	0.051680	-0.000029
C30	C	0.624595	0.551680	0.499971
C31	C	0.125468	0.124124	-0.000033
C32	C	0.625468	0.624124	0.499967
C33	C	0.074002	0.168989	-0.000023
C34	C	0.574002	0.668989	0.499977
C35	C	0.021659	0.141406	-0.000029
C36	C	0.521659	0.641406	0.499971
C37	C	0.020787	0.068963	-0.000032
C38	C	0.520787	0.568963	0.499968
C39	C	0.035618	0.290371	0.043845
C40	C	0.535618	0.790371	0.543845
C41	C	0.036492	0.362812	0.043853
C42	C	0.536492	0.862812	0.543853
C43	C	0.076690	0.392427	-0.000016
C44	C	0.576690	0.892427	0.499984
C45	C	0.116023	0.349590	-0.043883
C46	C	0.616023	0.849590	0.456117
C47	C	0.115151	0.277147	-0.043887
C48	C	0.615151	0.777147	0.456113
C49	C	0.074942	0.247542	-0.000020
C50	C	0.574942	0.747542	0.499980
C51	C	0.129977	0.498554	-0.000020
C52	C	0.629977	0.998554	0.499980
C53	C	0.130848	0.570999	-0.000029
C54	C	0.630848	1.070999	0.499971
C55	C	0.027037	0.588280	-0.000017
C56	C	0.527037	1.088280	0.499983
C57	C	0.026168	0.515836	-0.000016
C58	C	0.526168	1.015836	0.499984
C59	C	0.077639	0.470977	-0.000014
C60	C	0.577639	0.970977	0.499986
C61	C	-0.490519	0.882444	-0.000042
C62	C	0.009481	1.382444	0.499958
C63	C	-0.549921	0.881577	-0.000048
C64	C	-0.049921	1.381577	0.499952
O65	O	-0.586556	0.934979	-0.000076
O66	O	-0.086556	1.434979	0.499924
N67	N	-0.572679	0.817819	-0.000047
N68	N	-0.072679	1.317819	0.499953
C69	C	-0.536030	0.754925	-0.000048
C70	C	-0.036030	1.254925	0.499952
O71	O	-0.560842	0.700615	-0.000049
O72	O	-0.060842	1.200615	0.499951
C73	C	-0.476629	0.755794	-0.000048
C74	C	0.023371	1.255794	0.499952
C75	C	-0.453876	0.819555	-0.000041
C76	C	0.046124	1.319555	0.499959
C77	C	-0.467765	0.946201	-0.000036
C78	C	0.032235	1.446201	0.499964
C79	C	-0.408367	0.947068	-0.000029
C80	C	0.091633	1.447068	0.499971
C81	C	-0.371724	0.884179	-0.000028
C82	C	0.128276	1.384179	0.499972
C83	C	-0.394478	0.820423	-0.000034
C84	C	0.105522	1.320423	0.499966
C85	C	-0.439982	0.692901	-0.000054
C86	C	0.060018	1.192901	0.499946
C87	C	-0.380578	0.693775	-0.000055
C88	C	0.119422	1.193775	0.499945
C89	C	-0.357824	0.757536	-0.000048
C90	C	0.142176	1.257536	0.499952
C91	C	-0.298436	0.758401	-0.000026
C92	C	0.201564	1.258401	0.499974
N93	N	-0.275679	0.822159	-0.000026
N94	N	0.224321	1.322159	0.499974
C95	C	-0.312323	0.885048	-0.000027
C96	C	0.187677	1.385048	0.499973
C97	C	-0.660777	0.753106	-0.000050
C98	C	-0.160777	1.253106	0.499950
C99	C	-0.720176	0.752237	-0.000045
C100	C	-0.220176	1.252237	0.499955
C101	C	-0.734063	0.878889	-0.000046
C102	C	-0.234063	1.378889	0.499954
C103	C	-0.674662	0.879757	-0.000046
C104	C	-0.174662	1.379757	0.499954
C105	C	-0.638019	0.816864	-0.000051
C106	C	-0.138019	1.316864	0.499949
C107	C	-0.187582	0.886864	-0.000012
C108	C	0.312418	1.386864	0.499988
C109	C	-0.128178	0.887726	-0.000002
C110	C	0.371822	1.387726	0.499998
C111	C	-0.114297	0.761075	-0.000005
C112	C	0.385703	1.261075	0.499995
C113	C	-0.173695	0.760213	-0.000011
C114	C	0.326305	1.260213	0.499989
C115	C	-0.210337	0.823113	-0.000017
C116	C	0.289663	1.323113	0.499983
O117	O	-0.261767	0.705027	-0.000001
O118	O	0.238233	1.205027	0.499999
O119	O	-0.287503	0.939349	-0.000037
O120	O	0.212497	1.439349	0.499963
C121	C	0.179956	0.814193	-0.000039
C122	C	0.679956	1.314193	0.499961
C123	C	0.243175	0.815127	-0.000050
C124	C	0.743175	1.315127	0.499950
C125	C	0.071334	0.947003	-0.000024
C126	C	0.571334	1.447003	0.499976
C127	C	0.072259	1.024104	-0.000030
C128	C	0.572259	1.524104	0.499970
N129	N	0.075813	0.819960	0.178133
N130	N	0.575813	1.319960	0.678133
N131	N	0.075822	0.820009	-0.178177
N132	N	0.575822	1.320009	0.321823
C133	C	0.036993	0.867464	0.217526
C134	C	0.536993	1.367464	0.717526
C135	C	0.036990	0.867468	0.296328
C136	C	0.536990	1.367468	0.796328
C137	C	0.075818	0.819975	0.335734
C138	C	0.575818	1.319975	0.835734
C139	C	0.114641	0.772463	0.296331
C140	C	0.614641	1.272463	0.796331
C141	C	0.114639	0.772455	0.217531
C142	C	0.614639	1.272455	0.717531
C143	C	0.127709	0.810516	0.460563
C144	C	0.627709	1.310516	0.960563
C145	C	0.127712	0.810528	0.539362
C146	C	0.627712	1.310528	1.039362
C147	C	0.075825	0.819994	0.578780
C148	C	0.575825	1.319994	1.078780
C149	C	0.023932	0.829461	0.539390
C150	C	0.523932	1.329461	1.039390
C151	C	0.023930	0.829454	0.460589
C152	C	0.523930	1.329454	0.960589
C153	C	0.075824	0.819977	0.421180
C154	C	0.575824	1.319977	0.921180
C155	C	0.036998	0.867504	0.703619
C156	C	0.536998	1.367504	1.203619
C157	C	0.036995	0.867503	0.782422
C158	C	0.536995	1.367503	1.282422
C159	C	0.114651	0.772501	0.782424
C160	C	0.614651	1.272501	1.282424
C161	C	0.114649	0.772499	0.703623
C162	C	0.614649	1.272499	1.203623
C163	C	0.075824	0.820004	0.664225
C164	C	0.575824	1.320004	1.164225
H165	H	0.168088	0.146581	-0.000025
H166	H	0.668088	0.646581	0.499975
N167	N	-0.029072	0.839110	0.579649
N168	N	0.470928	1.339110	1.079649
N169	N	-0.041756	0.792793	0.623627
N170	N	0.458244	1.292793	1.123627
H171	H	-0.079189	0.799604	0.652061
H172	H	0.420811	1.299604	1.152061
H173	H	0.004467	0.397684	0.079577
H174	H	0.504467	0.897684	0.579577
H175	H	0.148757	0.373700	-0.079604
H176	H	0.648757	0.873700	0.420396
H177	H	-0.109656	0.939651	0.000006
H178	H	0.390344	1.439651	0.500006
H179	H	-0.192222	0.708293	0.000004
H180	H	0.307778	1.208293	0.500004
N181	N	0.154320	0.723998	0.822668
N182	N	0.654320	1.223998	1.322668
N183	N	0.206959	0.724585	0.813853
N184	N	0.706959	1.224585	1.313853
H185	H	0.234977	0.690328	0.842279
H186	H	0.734977	1.190328	1.342279
N187	N	-0.224997	0.951121	-0.000020
N188	N	0.275003	1.451121	0.499980
N189	N	-0.204663	1.008037	-0.000015
N190	N	0.295337	1.508037	0.499985
H191	H	-0.231087	1.053419	-0.000017
H192	H	0.268913	1.553419	0.499983
N193	N	-0.002707	0.915935	0.663329
N194	N	0.497293	1.415935	1.163329
N195	N	-0.055335	0.915248	0.672147
N196	N	0.444665	1.415248	1.172147
H197	H	-0.083392	0.949420	0.643675
H198	H	0.416608	1.449420	1.143675
N199	N	-0.385139	1.012206	-0.000025
N200	N	0.114861	1.512206	0.499975
N201	N	-0.417873	1.068346	-0.000029
N202	N	0.082127	1.568346	0.499971
H203	H	-0.401472	1.114354	-0.000029
H204	H	0.098528	1.614354	0.499971
H205	H	-0.014867	0.624809	-0.000015
H206	H	0.485133	1.124809	0.499985
N207	N	-0.343147	0.629529	-0.000075
N208	N	0.156853	1.129529	0.499925
N209	N	-0.345124	0.587047	-0.052853
N210	N	0.154876	1.087047	0.447147
H211	H	-0.318689	0.541674	-0.052869
H212	H	0.181311	1.041674	0.447131
N213	N	-0.505182	1.010453	-0.000042
N214	N	-0.005182	1.510453	0.499958
N215	N	-0.484846	1.067367	-0.000039
N216	N	0.015154	1.567367	0.499961
H217	H	-0.511269	1.112750	-0.000040
H218	H	-0.011269	1.612750	0.499960
N219	N	-0.076858	0.696840	-0.000026
N220	N	0.423142	1.196840	0.499974
N221	N	-0.078830	0.654361	-0.052808
N222	N	0.421170	1.154361	0.447192
H223	H	-0.052387	0.608995	-0.052831
H224	H	0.447613	1.108995	0.447169
H225	H	0.146252	0.733771	0.185457
H226	H	0.646252	1.233771	0.685457
H227	H	0.005377	0.906152	0.328408
H228	H	0.505377	1.406152	0.828408
H229	H	0.005380	0.906184	0.814496
H230	H	0.505380	1.406184	1.314496
H231	H	0.005378	0.906144	0.185451
H232	H	0.505378	1.406144	0.685451
H233	H	-0.018323	0.837161	0.428521
H234	H	0.481677	1.337161	0.928521
H235	H	-0.630944	0.701888	-0.000048
H236	H	-0.130944	1.201888	0.499952
N237	N	0.154308	0.723970	0.663391
N238	N	0.654308	1.223970	1.163391
N239	N	0.188971	0.681566	0.698580
N240	N	0.688971	1.181566	1.198580
H241	H	0.216981	0.647287	0.670167
H242	H	0.716981	1.147287	1.170167
N243	N	0.180721	0.800867	0.579583
N244	N	0.680721	1.300867	1.079583
N245	N	0.227045	0.792409	0.544382
N246	N	0.727045	1.292409	1.044382
H247	H	0.264485	0.785586	0.572786
H248	H	0.764485	1.285586	1.072786
H249	H	0.169965	0.802796	0.428476
H250	H	0.669965	1.302796	0.928476
H251	H	0.173468	0.593449	-0.000035
H252	H	0.673468	1.093449	0.499965
H253	H	-0.738697	0.700316	-0.000038
H254	H	-0.238697	1.200316	0.499962
N255	N	0.154295	0.723950	0.336591
N256	N	0.654295	1.223950	0.836591
N257	N	0.154293	0.723963	0.406948
N258	N	0.654293	1.223963	0.906948
H259	H	0.182298	0.689697	0.435382
H260	H	0.682298	1.189697	0.935382
N261	N	-0.771492	0.943137	-0.000063
N262	N	-0.271492	1.443137	0.499937
N263	N	-0.751175	1.000063	-0.000067
N264	N	-0.251175	1.500063	0.499933
H265	H	-0.777609	1.045436	-0.000080
H266	H	-0.277609	1.545436	0.499920
N267	N	-0.005452	0.260137	0.088660
N268	N	0.494548	0.760137	0.588660
N269	N	-0.040562	0.298388	0.127828
N270	N	0.459438	0.798388	0.627828
H271	H	-0.069568	0.277036	0.159478
H272	H	0.430432	0.777036	0.659478
H273	H	0.147177	0.242272	-0.079607
H274	H	0.647177	0.742272	0.420393
N275	N	0.182556	0.452737	-0.000019
N276	N	0.682556	0.952737	0.499981
N277	N	0.229283	0.477371	-0.000024
N278	N	0.729283	0.977371	0.499976
H279	H	0.266418	0.445015	-0.000022
H280	H	0.766418	0.945015	0.499978
N281	N	0.177172	0.005864	-0.000016
N282	N	0.677172	0.505864	0.499984
N283	N	0.212014	0.008166	0.052756
N284	N	0.712014	0.508166	0.552756
H285	H	0.249148	-0.024191	0.052766
H286	H	0.749148	0.475809	0.552766
H287	H	-0.020245	0.177940	-0.000023
H288	H	0.479755	0.677940	0.499977
N289	N	-0.027299	0.487675	-0.000016
N290	N	0.472701	0.987675	0.499984
N291	N	-0.073248	0.527738	-0.000011
N292	N	0.426752	1.027738	0.499989
H293	H	-0.111011	0.507851	-0.000014
H294	H	0.388989	1.007851	0.499986
N295	N	-0.032681	0.040803	-0.000036
N296	N	0.467319	0.540803	0.499964
N297	N	-0.078630	0.080865	-0.000034
N298	N	0.421370	0.580865	0.499966
H299	H	-0.116394	0.060977	-0.000036
H300	H	0.383606	0.560977	0.499964
H301	H	-0.656141	0.931677	-0.000041
H302	H	-0.156141	1.431677	0.499959
H303	H	-0.458497	0.640979	-0.000064
H304	H	0.041503	1.140979	0.499936
