data_functionalizedCrystal
_audit_creation_method	'MofGen! by Chris Wilmer'
_symmetry_space_group_name_H-M	'P1'
_symmetry_Int_Tables_number	1
_symmetry_cell_setting	triclinic
loop_
_symmetry_equiv_pos_as_xyz
  x,y,z
_cell_length_a	12.827893
_cell_length_b	12.827892
_cell_length_c	11.169409
_cell_angle_alpha	90.033276
_cell_angle_beta	90.021188
_cell_angle_gamma	90.015362
loop_
_atom_site_label
_atom_site_type_symbol
_atom_site_fract_x
_atom_site_fract_y
_atom_site_fract_z
Zn1	Zn	1.597689	-0.415949	0.678579
Zn2	Zn	1.597578	-0.590737	0.477892
Zn3	Zn	1.422925	-0.416010	0.477908
Zn4	Zn	1.422916	-0.590649	0.678532
O5	O	1.510277	-0.503336	0.578228
O6	O	1.743911	-0.439146	0.651970
O7	O	1.574367	-0.567621	0.309944
O8	O	1.446158	-0.269766	0.504554
O9	O	1.743828	-0.567562	0.504526
O10	O	1.574557	-0.269721	0.651985
O11	O	1.446050	-0.439250	0.309956
O12	O	1.276688	-0.439165	0.504509
O13	O	1.446143	-0.567412	0.846488
O14	O	1.276681	-0.567471	0.651906
O15	O	1.574548	-0.439061	0.846522
O16	O	1.574358	-0.736961	0.504481
O17	O	1.446035	-0.736897	0.651891
C18	C	1.238767	-0.503316	0.578205
C19	C	1.122614	-0.503333	0.578224
C20	C	0.950761	-0.439777	0.505437
C21	C	1.070811	-0.439758	0.505416
C22	C	1.510212	-0.774846	0.578206
C23	C	1.510279	-0.890999	0.578236
C24	C	1.573787	-0.942678	0.651256
C25	C	1.573858	-1.062729	0.651289
C26	C	1.782847	-0.503357	0.578251
C27	C	1.899000	-0.503366	0.578262
C28	C	1.510357	-0.503220	0.891270
C29	C	1.510391	-0.503171	1.024670
C30	C	1.510371	-0.230766	0.578276
C31	C	1.510411	-0.114613	0.578297
C32	C	1.510257	-0.503376	0.266403
C33	C	1.510425	-0.503131	0.133004
H34	H	1.115324	-0.385321	0.443064
O35	O	0.952268	-0.568155	0.652688
C36	C	1.015423	-0.508665	0.730266
H37	H	1.031657	-0.429412	0.688073
H38	H	1.092222	-0.551164	0.746176
H39	H	0.973462	-0.497316	0.819280
O40	O	1.445394	-1.061722	0.503771
C41	C	1.341220	-1.088367	0.529897
H42	H	1.339009	-1.167611	0.575971
H43	H	1.294397	-1.092092	0.443230
H44	H	1.306016	-1.026947	0.591614
H45	H	0.906198	-0.385346	0.443109
O46	O	1.445376	-0.944074	0.503643
C47	C	1.386332	-0.872714	0.435720
H48	H	1.382575	-0.794849	0.484771
H49	H	1.304050	-0.904411	0.422874
H50	H	1.424626	-0.861178	0.344593
H51	H	1.078108	-0.557780	0.640571
O52	O	1.638558	-0.889281	0.725697
C53	C	1.624054	-0.781304	0.709106
H54	H	1.589848	-0.766598	0.616430
H55	H	1.702263	-0.739675	0.717271
H56	H	1.568326	-0.750327	0.780198
H57	H	1.628233	-1.107172	0.713799
