data_functionalizedCrystal
_audit_creation_method	'MofGen! by Chris Wilmer'
_symmetry_space_group_name_H-M	'P1'
_symmetry_Int_Tables_number	1
_symmetry_cell_setting	triclinic
loop_
_symmetry_equiv_pos_as_xyz
  x,y,z
_cell_length_a	12.759401
_cell_length_b	15.299816
_cell_length_c	12.759393
_cell_angle_alpha	99.650122
_cell_angle_beta	89.981504
_cell_angle_gamma	80.350473
loop_
_atom_site_label
_atom_site_type_symbol
_atom_site_fract_x
_atom_site_fract_y
_atom_site_fract_z
Zn1	Zn	1.678544	-0.358997	-0.666396
Zn2	Zn	1.708812	-0.509841	-0.521143
Zn3	Zn	1.502855	-0.359045	-0.490745
Zn4	Zn	1.533194	-0.509771	-0.696771
O5	O	1.605851	-0.434413	-0.593764
O6	O	1.829582	-0.379016	-0.647138
O7	O	1.681462	-0.489886	-0.370100
O8	O	1.500796	-0.232830	-0.488612
O9	O	1.851820	-0.489840	-0.540421
O10	O	1.629874	-0.232796	-0.617662
O11	O	1.530146	-0.379097	-0.347766
O12	O	1.359857	-0.379030	-0.518065
O13	O	1.552505	-0.489722	-0.839753
O14	O	1.382147	-0.489768	-0.669431
O15	O	1.659292	-0.378949	-0.817437
O16	O	1.710881	-0.636039	-0.569874
O17	O	1.581855	-0.635988	-0.698907
C18	C	1.332881	-0.434397	-0.593746
C19	C	1.216107	-0.434411	-0.593768
C20	C	1.172898	-0.492165	-0.672492
C21	C	1.063176	-0.492177	-0.672506
C22	C	1.039882	-0.376678	-0.515062
C23	C	1.149601	-0.376663	-0.515054
C24	C	1.186346	-0.558850	-0.763388
C25	C	1.076624	-0.558862	-0.763402
C26	C	1.652973	-0.668738	-0.641008
C27	C	1.673228	-0.768983	-0.661255
C28	C	1.461775	-1.051929	-0.449415
C29	C	1.442739	-0.957743	-0.430395
C30	C	1.500360	-0.910549	-0.488108
C31	C	1.577019	-0.957549	-0.564845
C32	C	1.596051	-1.051743	-0.583873
C33	C	1.634636	-0.910363	-0.622566
C34	C	1.711296	-0.957363	-0.699303
C35	C	1.730325	-1.051548	-0.718327
C36	C	1.672704	-1.098743	-0.660614
C37	C	1.615604	-0.816169	-0.603538
C38	C	1.749881	-0.815983	-0.737996
C39	C	1.768917	-0.910169	-0.757016
C40	C	1.879888	-0.434431	-0.593782
C41	C	1.996666	-0.434438	-0.593790
C42	C	1.605907	-0.434322	-0.867779
C43	C	1.605930	-0.434284	-0.984548
C44	C	1.558574	-0.199174	-0.546358
C45	C	1.538428	-0.098928	-0.526156
C46	C	1.661543	-0.376599	-1.027790
C47	C	1.661561	-0.376566	-1.137508
C48	C	1.550353	-0.491911	-1.160732
C49	C	1.550329	-0.491939	-1.051016
C50	C	1.725751	-0.310008	-1.014383
C51	C	1.725770	-0.309975	-1.124101
C52	C	1.605844	-0.434439	-0.320802
C53	C	1.605973	-0.434224	-0.203982
H54	H	1.233713	-0.625166	-0.747480
H55	H	1.796799	-0.777558	-0.784993
H56	H	1.184776	-0.329628	-0.450955
H57	H	1.037606	-0.533929	-0.835725
O58	O	1.481776	-0.819058	-0.469465
C59	C	1.380744	-0.683997	-0.368431
C60	C	1.401701	-0.787613	-0.389429
H61	H	1.315988	-0.658542	-0.303737
H62	H	1.456899	-0.658333	-0.341447
H63	H	1.353782	-0.658405	-0.444630
H64	H	1.428633	-0.813282	-0.313269
H65	H	1.325524	-0.813215	-0.416459
O66	O	1.058028	-0.642208	-0.753984
C67	C	1.134386	-0.794087	-0.736957
C68	C	1.155596	-0.699740	-0.747591
H69	H	1.213256	-0.840633	-0.731808
H70	H	1.083836	-0.789518	-0.661916
H71	H	1.090353	-0.821974	-0.809358
H72	H	1.199661	-0.671798	-0.675247
H73	H	1.206101	-0.704366	-0.822675
H74	H	1.414864	-1.090363	-0.402439
O75	O	1.843306	-0.955968	-0.831555
C76	C	1.932172	-1.100994	-0.920400
C77	C	1.847880	-1.049238	-0.835973
H78	H	1.935914	-1.176411	-0.923984
H79	H	1.909942	-1.082502	-1.001391
H80	H	2.013125	-1.082373	-0.898274
H81	H	1.766897	-1.067831	-0.858000
H82	H	1.870202	-1.067734	-0.755006
H83	H	1.553187	-0.777910	-0.541058
H84	H	1.688203	-1.175436	-0.676092
O85	O	0.975260	-0.320719	-0.438509
C86	C	0.848817	-0.308458	-0.294258
C87	C	0.921969	-0.371933	-0.380898
H88	H	0.805695	-0.349838	-0.247671
H89	H	0.898510	-0.267197	-0.237916
H90	H	0.788030	-0.261334	-0.333104
H91	H	0.982769	-0.419112	-0.342145
H92	H	0.872207	-0.413131	-0.437231
O93	O	1.217254	-0.536572	-0.856055
C94	C	1.163360	-0.496115	-1.024967
C95	C	1.128208	-0.521312	-0.920064
H96	H	1.091389	-0.483788	-1.076758
H97	H	1.200146	-0.432463	-1.007013
H98	H	1.224596	-0.553508	-1.068823
H99	H	1.066940	-0.463978	-0.876156
H100	H	1.091484	-0.584992	-0.938090
O101	O	1.827391	-0.332352	-1.163973
C102	C	2.012541	-0.373038	-1.126367
C103	C	1.897511	-0.347728	-1.081076
H104	H	2.069267	-0.385458	-1.059363
H105	H	2.020090	-0.436662	-1.188782
H106	H	2.033427	-0.315661	-1.164483
H107	H	1.876549	-0.405045	-1.042904
H108	H	1.890022	-0.284076	-1.018712
O109	O	1.368281	-0.912230	-0.355781
C110	C	1.237072	-0.922360	-0.224461
C111	C	1.321383	-0.974016	-0.308922
H112	H	1.199116	-0.972291	-0.186567
H113	H	1.276387	-0.878291	-0.160596
H114	H	1.173241	-0.878244	-0.263751
H115	H	1.385239	-1.018181	-0.269726
H116	H	1.281992	-1.018028	-0.372778
O117	O	1.804645	-1.097242	-0.792992
C118	C	1.840191	-1.203515	-0.956278
C119	C	1.755911	-1.151812	-0.871811
H120	H	1.800826	-1.247661	-1.020012
H121	H	1.878094	-1.153645	-0.994340
H122	H	1.904073	-1.247564	-0.916964
H123	H	1.691966	-1.107761	-0.911044
H124	H	1.718092	-1.201730	-0.833755
H125	H	1.505040	-0.538908	-1.015812
H126	H	1.505082	-0.538850	-1.214863
H127	H	1.689918	-0.240162	-0.970539
H128	H	1.808065	-0.335047	-0.985398
O129	O	1.675115	-0.230731	-1.148572
C130	C	1.579772	-0.081903	-1.082174
C131	C	1.637131	-0.171587	-1.054307
H132	H	1.549026	-0.034067	-1.005980
H133	H	1.637668	-0.050504	-1.126106
H134	H	1.510086	-0.094771	-1.135086
H135	H	1.706813	-0.158797	-1.001364
H136	H	1.579164	-0.202959	-1.010430
