data_functionalizedCrystal
_audit_creation_method	'MofGen! by Chris Wilmer'
_symmetry_space_group_name_H-M	'P1'
_symmetry_Int_Tables_number	1
_symmetry_cell_setting	triclinic
loop_
_symmetry_equiv_pos_as_xyz
  x,y,z
_cell_length_a	17.699104
_cell_length_b	14.421503
_cell_length_c	17.699083
_cell_angle_alpha	90.000692
_cell_angle_beta	96.712734
_cell_angle_gamma	89.993796
loop_
_atom_site_label
_atom_site_type_symbol
_atom_site_fract_x
_atom_site_fract_y
_atom_site_fract_z
O1	O	1.004054	0.077132	-0.095781
O2	O	1.254054	0.327132	0.154219
O3	O	1.504054	0.577132	0.404219
O4	O	1.754054	0.827132	0.654219
O5	O	0.783678	0.077130	-0.108217
O6	O	1.033678	0.327130	0.141783
O7	O	1.283678	0.577130	0.391783
O8	O	1.533678	0.827130	0.641783
O9	O	0.900092	0.077123	0.008190
O10	O	1.150092	0.327123	0.258190
O11	O	1.400092	0.577123	0.508190
O12	O	1.650092	0.827123	0.758190
O13	O	0.887640	0.077139	-0.212187
O14	O	1.137640	0.327139	0.037813
O15	O	1.387640	0.577139	0.287813
O16	O	1.637640	0.827139	0.537813
O17	O	0.900106	-0.077100	0.008183
O18	O	1.150106	0.172900	0.258183
O19	O	1.400106	0.422900	0.508183
O20	O	1.650106	0.672900	0.758183
O21	O	0.783692	-0.077093	-0.108224
O22	O	1.033692	0.172907	0.141776
O23	O	1.283692	0.422907	0.391776
O24	O	1.533692	0.672907	0.641776
O25	O	1.004068	-0.077091	-0.095788
O26	O	1.254068	0.172909	0.154212
O27	O	1.504068	0.422909	0.404212
O28	O	1.754068	0.672909	0.654212
Cu29	Cu	0.893881	-0.091174	-0.102007
Cu30	Cu	1.143881	0.158826	0.147993
Cu31	Cu	1.393881	0.408826	0.397993
Cu32	Cu	1.643881	0.658826	0.647993
Cu33	Cu	0.893864	0.091213	-0.101998
Cu34	Cu	1.143864	0.341213	0.148002
Cu35	Cu	1.393864	0.591213	0.398002
Cu36	Cu	1.643864	0.841213	0.648002
O37	O	0.887654	-0.077084	-0.212195
O38	O	1.137654	0.172916	0.037805
O39	O	1.387654	0.422916	0.287805
O40	O	1.637654	0.672916	0.537805
C41	C	0.755488	0.000018	-0.107772
C42	C	1.005488	0.250018	0.142228
C43	C	1.255488	0.500018	0.392228
C44	C	1.505488	0.750018	0.642228
C45	C	0.671471	0.000017	-0.106427
C46	C	0.921471	0.250017	0.143573
C47	C	1.171471	0.500017	0.393573
C48	C	1.421471	0.750017	0.643573
N49	N	0.893898	-0.219455	-0.102013
N50	N	1.143898	0.030545	0.147987
N51	N	1.393898	0.280545	0.397987
N52	N	1.643898	0.530545	0.647987
C53	C	0.146600	0.000031	-0.167171
C54	C	0.396600	0.250031	0.082829
C55	C	0.646600	0.500031	0.332829
C56	C	0.896600	0.750031	0.582829
C57	C	0.225543	0.000034	-0.168430
C58	C	0.475543	0.250034	0.081570
C59	C	0.725543	0.500034	0.331570
C60	C	0.975543	0.750034	0.581570
C61	C	0.274161	0.000029	-0.100095
C62	C	0.524161	0.250029	0.149905
C63	C	0.774161	0.500029	0.399905
C64	C	1.024161	0.750029	0.649905
C65	C	0.243831	0.000030	-0.030496
C66	C	0.493831	0.250030	0.219504
C67	C	0.743831	0.500030	0.469504
C68	C	0.993831	0.750030	0.719504
C69	C	0.164889	0.000034	-0.029238
C70	C	0.414889	0.250034	0.220762
C71	C	0.664889	0.500034	0.470762
C72	C	0.914889	0.750034	0.720762
C73	C	0.562197	0.000016	-0.035569
C74	C	0.812197	0.250016	0.214431
C75	C	1.062197	0.500016	0.464431
C76	C	1.312197	0.750016	0.714431
C77	C	0.641144	0.000009	-0.036833
C78	C	0.891144	0.250009	0.213167
C79	C	1.141144	0.500009	0.463167
C80	C	1.391144	0.750009	0.713167
C81	C	0.622852	0.000016	-0.174762
C82	C	0.872852	0.250016	0.075238
C83	C	1.122852	0.500016	0.325238
C84	C	1.372852	0.750016	0.575238
C85	C	0.543909	0.000020	-0.173503
C86	C	0.793909	0.250020	0.076497
C87	C	1.043909	0.500020	0.326497
C88	C	1.293909	0.750020	0.576497
C89	C	0.513587	0.000026	-0.103905
C90	C	0.763587	0.250026	0.146095
C91	C	1.013587	0.500026	0.396095
C92	C	1.263587	0.750026	0.646095
C93	C	0.427987	0.000025	-0.102541
C94	C	0.677987	0.250025	0.147459
C95	C	0.927987	0.500025	0.397459
C96	C	1.177987	0.750025	0.647459
C97	C	0.359759	0.000023	-0.101459
C98	C	0.609759	0.250023	0.148541
C99	C	0.859759	0.500023	0.398541
C100	C	1.109759	0.750023	0.648541
C101	C	0.947740	-0.469087	-0.048174
C102	C	1.197740	-0.219087	0.201826
C103	C	1.447740	0.030913	0.451826
C104	C	1.697740	0.280913	0.701826
C105	C	0.879378	-0.530886	-0.033596
C106	C	1.129378	-0.280886	0.216404
C107	C	1.379378	-0.030886	0.466404
C108	C	1.629378	0.219114	0.716404
C109	C	0.893881	-0.408617	-0.102004
C110	C	1.143881	-0.158617	0.147996
C111	C	1.393881	0.091383	0.397996
C112	C	1.643881	0.341383	0.647996
C113	C	0.962227	-0.530912	-0.116538
C114	C	1.212227	-0.280912	0.133462
C115	C	1.462227	-0.030912	0.383462
C116	C	1.712227	0.219088	0.633462
C117	C	0.893871	-0.591338	-0.101993
C118	C	1.143871	-0.341338	0.148007
C119	C	1.393871	-0.091338	0.398007
C120	C	1.643871	0.158662	0.648007
C121	C	0.825485	-0.469055	-0.087391
C122	C	1.075485	-0.219055	0.162609
C123	C	1.325485	0.030945	0.412609
C124	C	1.575485	0.280945	0.662609
C125	C	0.908379	-0.469075	-0.170363
C126	C	1.158379	-0.219075	0.079637
C127	C	1.408379	0.030925	0.329637
C128	C	1.658379	0.280925	0.579637
C129	C	0.839968	-0.530846	-0.155813
C130	C	1.089968	-0.280846	0.094187
C131	C	1.339968	-0.030846	0.344187
C132	C	1.589968	0.219154	0.594187
C133	C	0.893888	-0.303356	-0.102008
C134	C	1.143888	-0.053356	0.147992
C135	C	1.393888	0.196644	0.397992
C136	C	1.643888	0.446644	0.647992
C137	C	0.893857	-0.696597	-0.101989
C138	C	1.143857	-0.446597	0.148011
C139	C	1.393857	-0.196597	0.398011
C140	C	1.643857	0.053403	0.648011
C141	C	1.032258	0.000023	-0.096233
C142	C	1.282258	0.250023	0.153767
C143	C	1.532258	0.500023	0.403767
C144	C	1.782258	0.750023	0.653767
C145	C	1.116275	0.000030	-0.097578
C146	C	1.366275	0.250030	0.152422
C147	C	1.616275	0.500030	0.402422
C148	C	1.866275	0.750030	0.652422
C149	C	0.899653	0.000011	0.036383
C150	C	1.149653	0.250011	0.286383
C151	C	1.399653	0.500011	0.536383
C152	C	1.649653	0.750011	0.786383
C153	C	0.898314	0.000011	0.120402
C154	C	1.148314	0.250011	0.370402
C155	C	1.398314	0.500011	0.620402
C156	C	1.648314	0.750011	0.870402
N157	N	0.893853	0.219494	-0.101986
N158	N	1.143853	0.469494	0.148014
N159	N	1.393853	0.719494	0.398014
N160	N	1.643853	0.969494	0.648014
C161	C	0.888093	0.000030	-0.240388
C162	C	1.138093	0.250030	0.009612
C163	C	1.388093	0.500030	0.259612
C164	C	1.638093	0.750030	0.509612
C165	C	0.889431	0.000036	-0.324406
C166	C	1.139431	0.250036	-0.074406
C167	C	1.389431	0.500036	0.175594
C168	C	1.639431	0.750036	0.425594
C169	C	0.966647	0.000010	0.169017
C170	C	1.216647	0.250010	0.419017
C171	C	1.466647	0.500010	0.669017
C172	C	1.716647	0.750010	0.919017
C173	C	0.965385	0.000018	0.247961
C174	C	1.215385	0.250018	0.497961
C175	C	1.465385	0.500018	0.747961
C176	C	1.715385	0.750018	0.997961
C177	C	0.895789	0.000021	0.278287
C178	C	1.145789	0.250021	0.528287
C179	C	1.395789	0.500021	0.778287
C180	C	1.645789	0.750021	1.028287
C181	C	0.827451	0.000024	0.229665
C182	C	1.077451	0.250024	0.479665
C183	C	1.327451	0.500024	0.729665
C184	C	1.577451	0.750024	0.979665
C185	C	0.828714	0.000023	0.150723
C186	C	1.078714	0.250023	0.400723
C187	C	1.328714	0.500023	0.650723
C188	C	1.578714	0.750023	0.900723
C189	C	0.822356	0.000032	0.548028
C190	C	1.072356	0.250032	0.798028
C191	C	1.322356	0.500032	1.048028
C192	C	1.572356	0.750032	1.298028
C193	C	0.821098	0.000030	0.626976
C194	C	1.071098	0.250030	0.876976
C195	C	1.321098	0.500030	1.126976
C196	C	1.571098	0.750030	1.376976
C197	C	0.959026	0.000027	0.645266
C198	C	1.209026	0.250027	0.895266
C199	C	1.459026	0.500027	1.145266
C200	C	1.709026	0.750027	1.395266
C201	C	0.960289	0.000026	0.566324
C202	C	1.210289	0.250026	0.816324
C203	C	1.460289	0.500026	1.066324
C204	C	1.710289	0.750026	1.316324
C205	C	0.891952	0.000034	0.517709
C206	C	1.141952	0.250034	0.767709
C207	C	1.391952	0.500034	1.017709
C208	C	1.641952	0.750034	1.267709
C209	C	0.893321	0.000027	0.432110
C210	C	1.143321	0.250027	0.682110
C211	C	1.393321	0.500027	0.932110
C212	C	1.643321	0.750027	1.182110
C213	C	0.894419	0.000021	0.363885
C214	C	1.144419	0.250021	0.613885
C215	C	1.394419	0.500021	0.863885
C216	C	1.644419	0.750021	1.113885
H217	H	0.107020	0.000029	-0.222818
H218	H	0.357020	0.250029	0.027182
H219	H	0.607020	0.500029	0.277182
H220	H	0.857020	0.750029	0.527182
Cl221	Cl	0.742806	0.000027	0.089605
Cl222	Cl	0.992806	0.250027	0.339605
Cl223	Cl	1.242806	0.500027	0.589605
Cl224	Cl	1.492806	0.750027	0.839605
Cl225	Cl	0.736445	0.000044	0.486922
Cl226	Cl	0.986445	0.250044	0.736922
Cl227	Cl	1.236445	0.500044	0.986922
Cl228	Cl	1.486445	0.750044	1.236922
Cl229	Cl	0.263662	0.000041	-0.255923
Cl230	Cl	0.513662	0.250041	-0.005923
Cl231	Cl	0.763662	0.500041	0.244077
Cl232	Cl	1.013662	0.750041	0.494077
Cl233	Cl	0.860423	-0.572798	0.055664
Cl234	Cl	1.110423	-0.322798	0.305664
Cl235	Cl	1.360423	-0.072798	0.555664
Cl236	Cl	1.610423	0.177202	0.805664
Cl237	Cl	0.736221	-0.427287	-0.068300
Cl238	Cl	0.986221	-0.177287	0.181700
Cl239	Cl	1.236221	0.072713	0.431700
Cl240	Cl	1.486221	0.322713	0.681700
H241	H	0.504328	0.000019	-0.229149
H242	H	0.754328	0.250019	0.020851
H243	H	1.004328	0.500019	0.270851
H244	H	1.254328	0.750019	0.520851
Cl245	Cl	1.017987	-0.427216	0.022143
Cl246	Cl	1.267987	-0.177216	0.272143
Cl247	Cl	1.517987	0.072784	0.522143
Cl248	Cl	1.767987	0.322784	0.772143
Cl249	Cl	1.047784	0.000026	0.528205
Cl250	Cl	1.297784	0.250026	0.778205
Cl251	Cl	1.547784	0.500026	1.028205
Cl252	Cl	1.797784	0.750026	1.278205
Cl253	Cl	0.733599	0.000035	0.665099
Cl254	Cl	0.983599	0.250035	0.915099
Cl255	Cl	1.233599	0.500035	1.165099
Cl256	Cl	1.483599	0.750035	1.415099
Cl257	Cl	0.304951	0.000026	0.055412
Cl258	Cl	0.554951	0.250026	0.305412
Cl259	Cl	0.804951	0.500026	0.555412
Cl260	Cl	1.054951	0.750026	0.805412
Cl261	Cl	0.126766	0.000032	0.058255
Cl262	Cl	0.376766	0.250032	0.308255
Cl263	Cl	0.626766	0.500032	0.558255
Cl264	Cl	0.876766	0.750032	0.808255
Cl265	Cl	0.927362	-0.427116	-0.259595
Cl266	Cl	1.177362	-0.177116	-0.009595
Cl267	Cl	1.427362	0.072884	0.240405
Cl268	Cl	1.677362	0.322884	0.490405
H269	H	0.794368	-0.557791	-0.201334
H270	H	1.044368	-0.307791	0.048666
H271	H	1.294368	-0.057791	0.298666
H272	H	1.544368	0.192209	0.548666
H273	H	1.020031	-0.558083	-0.128836
H274	H	1.270031	-0.308083	0.121164
H275	H	1.520031	-0.058083	0.371164
H276	H	1.770031	0.191917	0.621164
Cl277	Cl	1.054144	-0.000002	0.130902
Cl278	Cl	1.304144	0.249998	0.380902
Cl279	Cl	1.554144	0.499998	0.630902
Cl280	Cl	1.804144	0.749998	0.880902
H281	H	0.537518	0.000018	0.021102
H282	H	0.787518	0.250018	0.271102
H283	H	1.037518	0.500018	0.521102
H284	H	1.287518	0.750018	0.771102
H285	H	1.021028	0.000016	0.287541
H286	H	1.271028	0.250016	0.537541
H287	H	1.521028	0.500016	0.787541
H288	H	1.771028	0.750016	1.037541
H289	H	0.647550	0.000015	-0.231432
H290	H	0.897550	0.250015	0.018568
H291	H	1.147550	0.500015	0.268568
H292	H	1.397550	0.750015	0.518568
H293	H	0.770785	0.000032	0.254362
H294	H	1.020785	0.250032	0.504362
H295	H	1.270785	0.500032	0.754362
H296	H	1.520785	0.750032	1.004362
Cl297	Cl	1.044938	0.000021	0.706387
Cl298	Cl	1.294938	0.250021	0.956387
Cl299	Cl	1.544938	0.500021	1.206387
Cl300	Cl	1.794938	0.750021	1.456387
H301	H	0.680728	0.000007	0.018817
H302	H	0.930728	0.250007	0.268817
H303	H	1.180728	0.500007	0.518817
H304	H	1.430728	0.750007	0.768817
