data_functionalizedCrystal
_audit_creation_method	'MofGen! by Chris Wilmer'
_symmetry_space_group_name_H-M	'P1'
_symmetry_Int_Tables_number	1
_symmetry_cell_setting	triclinic
loop_
_symmetry_equiv_pos_as_xyz
  x,y,z
_cell_length_a	6.817900
_cell_length_b	11.102183
_cell_length_c	16.015572
_cell_angle_alpha	76.743797
_cell_angle_beta	104.485554
_cell_angle_gamma	108.603876
loop_
_atom_site_label
_atom_site_type_symbol
_atom_site_fract_x
_atom_site_fract_y
_atom_site_fract_z
V1	V	-3.999217	-0.051261	-0.269393
O2	O	-3.960399	0.130656	-0.264266
O3	O	-3.976752	-0.224934	-0.267549
O4	O	-3.927020	0.005776	-0.386885
O5	O	-4.010476	-0.101651	-0.144104
V6	V	-4.482568	-0.036148	-0.254407
O7	O	-4.260853	-0.084413	-0.302264
O8	O	-4.671130	-0.002996	-0.221536
O9	O	-4.281827	0.137524	-0.256251
O10	O	-4.638784	-0.218066	-0.259534
O11	O	-4.588707	0.014242	-0.379696
O12	O	-4.331560	-0.093186	-0.136915
C13	C	-3.828833	-0.269029	-0.263298
C14	C	-3.891593	-0.410646	-0.262574
C15	C	-3.837209	-0.447552	-0.104320
C16	C	-3.839497	-0.532534	-0.024855
C17	C	-3.898472	-0.665595	-0.024179
C18	C	-3.955169	-0.713674	-0.102976
C19	C	-3.952881	-0.628691	-0.182441
C20	C	-3.893895	-0.495630	-0.183108
C21	C	-4.007279	-0.591787	-0.340693
C22	C	-3.948290	-0.458725	-0.341371
C23	C	-4.063976	-0.639866	-0.419490
C24	C	-4.061673	-0.554883	-0.498956
C25	C	-4.002691	-0.421815	-0.499629
C26	C	-3.946001	-0.373743	-0.420835
C27	C	-3.765392	0.025266	-0.415522
C28	C	-3.787818	0.070751	-0.511573
C29	C	-4.136742	-0.332976	-0.889202
C30	C	-4.157812	-0.290194	-0.979452
C31	C	-4.047771	-0.068856	-0.954747
C32	C	-4.026681	-0.111619	-0.864493
C33	C	-4.071172	-0.243680	-0.831728
C34	C	-3.961111	-0.022324	-0.807019
C35	C	-3.940034	-0.065084	-0.716773
C36	C	-3.984526	-0.197140	-0.684001
C37	C	-4.050095	-0.286441	-0.741482
C38	C	-3.916635	0.109736	-0.839786
C39	C	-3.851066	0.199031	-0.782312
C40	C	-3.829973	0.156272	-0.692064
C41	C	-3.874465	0.024216	-0.659292
C42	C	-3.764404	0.245573	-0.634583
C43	C	-3.743326	0.202812	-0.544337
C44	C	-3.853387	-0.018544	-0.569047
C45	C	-4.093090	0.181612	-0.260499
C46	C	-4.009567	0.323231	-0.261229
C47	C	-4.156531	-0.112681	-0.108273
C48	C	-4.113343	-0.158160	-0.012222
H49	H	-3.967367	-0.231953	-0.610517
H50	H	-3.793335	-0.493373	0.039299
H51	H	-4.011559	0.038668	-0.981437
O52	O	-3.882383	-0.230228	-0.421561
H53	H	-3.742323	-0.183837	-0.452675
H54	H	-3.814854	0.306556	-0.809002
H55	H	-3.728205	0.353097	-0.661275
H56	H	-4.086297	-0.393977	-0.714803
O57	O	-3.939439	0.155830	-0.937128
H58	H	-4.057506	0.211627	-0.958862
O59	O	-4.122838	-0.606746	-0.583934
H60	H	-4.111347	-0.525302	-0.639306
H61	H	-3.789126	-0.339207	-0.104861
O62	O	-4.018785	-0.857191	-0.102242
H63	H	-4.182326	-0.887657	-0.139436
O64	O	-4.228519	-0.386510	-1.041446
H65	H	-4.255896	-0.485519	-1.003497
O66	O	-3.672587	0.299115	-0.482337
H67	H	-3.645165	0.398129	-0.520281
H68	H	-3.900340	-0.734789	0.040527
O69	O	-4.000406	-0.330104	-0.585319
H70	H	-3.838659	-0.265176	-0.586234
H71	H	-3.889589	-0.126081	-0.542367
O72	O	-4.184719	-0.475414	-0.853850
H73	H	-4.233862	-0.530330	-0.908975
H74	H	-4.112008	-0.748213	-0.418935
