data_functionalizedCrystal
_audit_creation_method	'MofGen! by Chris Wilmer'
_symmetry_space_group_name_H-M	'P1'
_symmetry_Int_Tables_number	1
_symmetry_cell_setting	triclinic
loop_
_symmetry_equiv_pos_as_xyz
  x,y,z
_cell_length_a	10.654541
_cell_length_b	12.837942
_cell_length_c	11.295483
_cell_angle_alpha	85.469583
_cell_angle_beta	85.856296
_cell_angle_gamma	90.343566
loop_
_atom_site_label
_atom_site_type_symbol
_atom_site_fract_x
_atom_site_fract_y
_atom_site_fract_z
O1	O	1.691372	-0.138787	-0.098987
O2	O	1.327409	-0.152673	-0.098998
O3	O	1.501319	0.005230	-0.098985
O4	O	1.517461	-0.296690	-0.099000
O5	O	1.486042	-0.008617	0.099064
O6	O	1.312131	-0.166520	0.099052
O7	O	1.676094	-0.152635	0.099062
Cu8	Cu	1.492718	-0.160842	0.117141
Cu9	Cu	1.510785	-0.144466	-0.117076
O10	O	1.502184	-0.310538	0.099050
C11	C	1.272861	-0.158577	0.000026
C12	C	1.133085	-0.155528	0.000022
C13	C	1.488228	0.036966	0.000039
C14	C	1.471966	0.152160	0.000036
N15	N	1.480019	-0.172359	0.281876
C16	C	1.125721	-0.344343	-0.000002
C17	C	1.056373	-0.437314	-0.000018
C18	C	0.925042	-0.434443	-0.000019
C19	C	0.863055	-0.338591	-0.000000
C20	C	0.932403	-0.245620	0.000017
C21	C	1.063737	-0.248502	0.000014
C22	C	0.939766	-0.056808	0.000049
C23	C	1.071098	-0.059676	0.000041
C24	C	0.877780	0.039044	0.000068
C25	C	0.947128	0.132017	0.000076
C26	C	1.078467	0.129142	0.000076
C27	C	1.140446	0.033294	0.000058
C28	C	1.730642	-0.146730	0.000036
C29	C	1.870419	-0.149779	0.000032
C30	C	1.515275	-0.342274	0.000023
C31	C	1.531538	-0.457467	0.000018
C32	C	1.667472	0.391716	0.000017
C33	C	1.652198	0.499952	0.000014
C34	C	1.426145	0.476870	0.000020
C35	C	1.441419	0.368634	0.000023
C36	C	1.562086	0.326061	0.000023
C37	C	1.577358	0.217823	0.000034
C38	C	1.351308	0.194744	0.000031
C39	C	1.336034	0.302980	0.000029
N40	N	1.523493	-0.132940	-0.281811
C41	C	1.614897	-0.049972	0.531175
C42	C	1.605311	-0.058684	0.655838
C43	C	1.451254	-0.198488	0.655867
C44	C	1.460840	-0.189776	0.531204
C45	C	1.542666	-0.115517	0.468863
C46	C	1.552259	-0.106812	0.344197
C47	C	1.398196	-0.246610	0.344229
C48	C	1.388609	-0.255321	0.468892
H49	H	1.232659	-0.346689	-0.000027
H50	H	1.237791	0.337659	0.000024
O51	O	0.887110	0.225203	0.000145
C52	C	0.908267	0.412189	0.000090
C53	C	0.976399	0.306725	0.000043
H54	H	0.980428	0.478129	-0.000018
H55	H	0.840615	0.412523	0.082998
H56	H	0.853311	0.423992	-0.082770
H57	H	1.031425	0.294854	0.082846
H58	H	1.043977	0.306439	-0.082920
O59	O	1.631759	-0.034592	0.283820
C60	C	1.783597	0.103119	0.296955
C61	C	1.693594	0.021387	0.365475
H62	H	1.833634	0.148385	0.362943
H63	H	1.727668	0.159508	0.238634
H64	H	1.856190	0.061912	0.238546
H65	H	1.620983	0.062505	0.423948
H66	H	1.749607	-0.034997	0.423720
H67	H	1.681532	0.010485	0.480416
O68	O	1.675606	0.005038	0.716184
C69	C	1.829355	0.144674	0.702995
C70	C	1.749842	0.072552	0.634505
H71	H	1.889375	0.199292	0.636987
H72	H	1.893105	0.095384	0.761315
H73	H	1.764372	0.192788	0.761401
H74	H	1.814730	0.024424	0.576034
H75	H	1.686079	0.121902	0.576260
O76	O	1.371582	-0.270497	0.716390
C77	C	1.157367	-0.332300	0.754537
C78	C	1.247455	-0.250677	0.685938
H79	H	1.056995	-0.316317	0.729923
H80	H	1.162815	-0.327251	0.854352
H81	H	1.185621	-0.413814	0.730058
H82	H	1.219262	-0.169125	0.710317
H83	H	1.241994	-0.255818	0.586140
H84	H	1.339384	-0.299984	0.293480
H85	H	1.321984	-0.315779	0.519665
H86	H	1.106857	-0.515355	-0.000031
H87	H	0.868578	-0.510148	-0.000024
H88	H	1.265495	0.141275	0.000046
H89	H	1.765722	0.357052	0.000029
H90	H	0.770842	0.041374	0.000074
H91	H	0.756117	-0.336263	0.000013
H92	H	1.327905	0.511553	0.000008
H93	H	1.134922	0.204850	0.000094
H94	H	1.247383	0.030945	0.000044
H95	H	1.675611	0.183162	0.000038
H96	H	1.738014	0.553405	0.000006
