data_functionalizedCrystal
_audit_creation_method	'MofGen! by Chris Wilmer'
_symmetry_space_group_name_H-M	'P1'
_symmetry_Int_Tables_number	1
_symmetry_cell_setting	triclinic
loop_
_symmetry_equiv_pos_as_xyz
  x,y,z
_cell_length_a	14.519709
_cell_length_b	12.837942
_cell_length_c	11.892295
_cell_angle_alpha	85.692371
_cell_angle_beta	93.902079
_cell_angle_gamma	89.254543
loop_
_atom_site_label
_atom_site_type_symbol
_atom_site_fract_x
_atom_site_fract_y
_atom_site_fract_z
O1	O	-1.230306	-0.142510	0.093853
O2	O	-0.963210	-0.158518	0.093887
O3	O	-1.090836	0.000400	0.093864
O4	O	-1.102680	-0.301428	0.093876
O5	O	-1.101451	0.013630	-0.094140
O6	O	-0.973826	-0.145288	-0.094117
O7	O	-1.240921	-0.129281	-0.094151
Zn8	Zn	-1.109059	-0.135184	-0.123984
Zn9	Zn	-1.095073	-0.152615	0.123720
O10	O	-1.113296	-0.288198	-0.094128
C11	C	-0.934093	-0.151157	-0.000110
C12	C	-0.831518	-0.148923	-0.000097
C13	C	-1.092142	0.045643	-0.000137
C14	C	-1.080208	0.160742	-0.000134
C15	C	-1.270038	-0.136641	-0.000151
C16	C	-1.372613	-0.138876	-0.000157
C17	C	-0.455914	-0.140691	-0.000149
C18	C	-0.560419	-0.142977	-0.000134
C19	C	-0.643713	-0.144807	-0.000122
C20	C	-0.748224	-0.147093	-0.000110
C21	C	-1.111989	-0.333442	-0.000124
C22	C	-1.123923	-0.448541	-0.000120
N23	N	-1.118611	-0.123287	-0.293035
C24	C	-1.223678	0.401434	-0.000129
C25	C	-1.212469	0.509580	-0.000125
C26	C	-1.046581	0.485182	-0.000116
C27	C	-1.057790	0.377036	-0.000119
C28	C	-1.146341	0.335166	-0.000127
C29	C	-1.157550	0.227018	-0.000139
C30	C	-0.991662	0.202622	-0.000121
C31	C	-0.980453	0.310768	-0.000118
C32	C	-1.018958	-0.247340	-0.529715
C33	C	-1.025655	-0.239014	-0.648055
C34	C	-1.138708	-0.098315	-0.648056
C35	C	-1.132010	-0.106641	-0.529716
C36	C	-1.072132	-0.181155	-0.470550
C37	C	-1.065430	-0.189475	-0.352208
C38	C	-1.178487	-0.048782	-0.352211
C39	C	-1.185185	-0.040456	-0.470551
N40	N	-1.085528	-0.164503	0.292771
H41	H	-1.229653	0.192930	-0.000149
O42	O	-0.960608	0.525981	0.000048
C43	C	-0.846171	0.627021	0.097506
C44	C	-0.943560	0.580893	0.097447
H45	H	-0.832349	0.671409	0.176256
H46	H	-0.841203	0.682655	0.018886
H47	H	-0.792833	0.561073	0.097450
H48	H	-0.996955	0.646771	0.097542
H49	H	-0.948450	0.525232	0.176059
H50	H	-1.295781	0.367344	-0.000146
O51	O	-0.894410	0.351384	0.000090
C52	C	-0.743674	0.356713	0.097459
C53	C	-0.841091	0.310658	0.097381
H54	H	-0.700532	0.323789	0.176098
H55	H	-0.748888	0.445390	0.097537
H56	H	-0.709463	0.335000	0.018743
H57	H	-0.875357	0.332293	0.176084
H58	H	-0.835815	0.221990	0.097244
H59	H	-0.982357	-0.292910	-0.696224
H60	H	-1.275445	0.563532	-0.000123
H61	H	-0.928690	0.148655	-0.000129
H62	H	-1.233939	0.020209	-0.518737
H63	H	-1.016672	-0.250145	-0.304036
O64	O	-0.960777	-0.319802	-0.472410
C65	C	-0.849300	-0.458427	-0.484894
C66	C	-0.915169	-0.376425	-0.549930
H67	H	-0.812394	-0.504214	-0.547540
H68	H	-0.890497	-0.514290	-0.429515
H69	H	-0.796195	-0.417425	-0.429465
H70	H	-0.968288	-0.417338	-0.605420
H71	H	-0.873911	-0.320568	-0.605238
H72	H	-1.187466	-0.037655	-0.696244
H73	H	-1.221783	0.005114	-0.304025
