data_functionalizedCrystal
_audit_creation_method	'MofGen! by Chris Wilmer'
_symmetry_space_group_name_H-M	'P1'
_symmetry_Int_Tables_number	1
_symmetry_cell_setting	triclinic
loop_
_symmetry_equiv_pos_as_xyz
  x,y,z
_cell_length_a	6.394989
_cell_length_b	10.968094
_cell_length_c	10.065875
_cell_angle_alpha	93.118877
_cell_angle_beta	99.048558
_cell_angle_gamma	85.582609
loop_
_atom_site_label
_atom_site_type_symbol
_atom_site_fract_x
_atom_site_fract_y
_atom_site_fract_z
O1	O	0.364614	1.618389	0.267104
O2	O	0.370599	1.268441	0.184807
O3	O	0.063929	1.448382	0.227123
O4	O	0.671284	1.438447	0.224789
O5	O	0.122652	1.414074	0.446043
O6	O	0.429322	1.234132	0.403728
O7	O	0.423337	1.584080	0.486025
Zn8	Zn	0.435653	1.403659	0.479635
Zn9	Zn	0.358283	1.448862	0.191197
O10	O	0.730007	1.404139	0.443709
C11	C	0.395090	1.206420	0.283716
C12	C	0.380555	1.072731	0.252276
C13	C	0.389447	0.857176	0.319163
C14	C	0.404489	0.995347	0.351671
C15	C	0.778618	1.423258	0.334705
C16	C	1.015320	1.429262	0.336113
C17	C	0.398845	1.646102	0.387113
C18	C	0.413378	1.779791	0.418545
N19	N	0.488456	1.372818	0.676488
N20	N	0.305464	1.479713	-0.005653
C21	C	0.376641	1.438124	0.759624
C22	C	0.417296	1.414397	0.911212
H23	H	0.250804	1.511596	0.718578
H24	H	0.357811	0.821137	0.210013
O25	O	0.441929	1.038486	0.481849
C26	C	0.314425	1.169616	0.656154
C27	C	0.271786	1.120880	0.508699
H28	H	0.176872	1.236220	0.677917
H29	H	0.467718	1.218790	0.673847
H30	H	0.330198	1.089836	0.725896
H31	H	0.255910	1.200589	0.438863
H32	H	0.118534	1.071669	0.491117
H33	H	0.348931	1.036699	0.143118
H34	H	0.543124	1.340911	0.952251
H35	H	0.444992	0.815832	0.527695
O36	O	0.155085	1.567140	0.945132
C37	C	-0.023261	1.670092	0.749077
C38	C	0.147396	1.571215	0.804673
H39	H	-0.029564	1.673402	0.635506
H40	H	0.017693	1.762972	0.798607
H41	H	-0.184374	1.647041	0.771962
H42	H	0.308573	1.594150	0.781804
H43	H	0.106260	1.478365	0.755143
H44	H	0.614276	1.299337	0.717534
