data_functionalizedCrystal
_audit_creation_method	'MofGen! by Chris Wilmer'
_symmetry_space_group_name_H-M	'P1'
_symmetry_Int_Tables_number	1
_symmetry_cell_setting	triclinic
loop_
_symmetry_equiv_pos_as_xyz
  x,y,z
_cell_length_a	10.654550
_cell_length_b	10.654550
_cell_length_c	9.130313
_cell_angle_alpha	89.996647
_cell_angle_beta	89.999724
_cell_angle_gamma	84.484917
loop_
_atom_site_label
_atom_site_type_symbol
_atom_site_fract_x
_atom_site_fract_y
_atom_site_fract_z
O1	O	1.667839	0.176399	-0.121686
O2	O	1.302361	0.193205	-0.121712
O3	O	1.493503	0.002063	-0.121693
O4	O	1.476697	0.367541	-0.121705
O5	O	1.493490	0.002057	0.121906
O6	O	1.302348	0.193199	0.121886
O7	O	1.667826	0.176393	0.121913
Cu8	Cu	1.485086	0.184796	0.144142
Cu9	Cu	1.485101	0.184802	-0.143942
O10	O	1.476684	0.367535	0.121894
C11	C	1.255556	0.191968	0.000084
C12	C	1.116113	0.188276	0.000073
C13	C	1.036627	0.300818	0.000074
C14	C	0.905607	0.297341	0.000100
C15	C	0.933570	0.068772	0.000118
C16	C	1.064588	0.072250	0.000103
C17	C	1.492263	-0.044738	0.000104
C18	C	1.488571	-0.184181	0.000099
C19	C	1.601112	-0.263667	0.000112
C20	C	1.597636	-0.394688	0.000101
C21	C	1.369066	-0.366725	0.000072
C22	C	1.372544	-0.235706	0.000072
C23	C	1.717139	-0.212142	0.000139
C24	C	1.829690	-0.291629	0.000153
C25	C	1.826213	-0.422650	0.000143
C26	C	1.710186	-0.474184	0.000118
C27	C	1.714631	0.177630	0.000114
C28	C	1.854074	0.181322	0.000114
C29	C	1.477924	0.414336	0.000093
C30	C	1.481616	0.553779	0.000089
N31	N	1.485084	0.184790	0.346765
N32	N	1.485113	0.184798	-0.346564
C33	C	1.569751	0.100188	0.423425
C34	C	1.569763	0.100189	0.576762
C35	C	1.400437	0.269404	0.576765
C36	C	1.400420	0.269396	0.423431
H37	H	0.891602	-0.025693	0.000151
O38	O	1.652131	0.017963	0.651002
C39	C	1.726825	-0.056732	0.550448
H40	H	1.728675	-0.005226	0.441142
H41	H	1.685244	-0.150413	0.534155
C42	C	1.859814	-0.144611	0.744526
C43	C	1.862095	-0.081346	0.610277
H44	H	1.943253	-0.159801	0.781433
H45	H	1.809489	-0.094292	0.812273
H46	H	1.825157	-0.222672	0.730930
H47	H	1.896736	-0.003281	0.623879
H48	H	1.912429	-0.131653	0.542534
H49	H	1.707364	-0.580871	0.000094
H50	H	1.719983	-0.105460	0.000152
O51	O	1.318255	0.351763	0.651075
C52	C	1.339755	0.476281	0.613609
H53	H	1.388154	0.476571	0.502273
H54	H	1.402608	0.515712	0.699893
C55	C	1.153515	0.558284	0.743270
C56	C	1.212950	0.558641	0.606519
H57	H	1.075298	0.609091	0.738903
H58	H	1.139032	0.474395	0.768517
H59	H	1.205905	0.591141	0.815159
H60	H	1.160567	0.525771	0.534637
H61	H	1.227421	0.642527	0.581260
H62	H	1.129309	-0.019401	0.000107
O63	O	1.318345	0.351643	0.348794
C64	C	1.386265	0.429766	0.260105
H65	H	1.484102	0.380657	0.237129
H66	H	1.395605	0.522672	0.319182
C67	C	1.195513	0.516258	0.142677
C68	C	1.315674	0.455936	0.114448
H69	H	1.151968	0.532407	0.052832
H70	H	1.149753	0.463629	0.202433
H71	H	1.203314	0.593673	0.191912
H72	H	1.307872	0.378516	0.065231
H73	H	1.361432	0.508554	0.054681
H74	H	1.638687	0.031295	0.361008
H75	H	1.274602	-0.408695	0.000054
H76	H	1.078574	0.395294	0.000061
H77	H	0.840894	0.388984	0.000103
H78	H	1.924155	-0.249661	0.000137
H79	H	1.917857	-0.487366	0.000139
H80	H	1.280903	-0.170986	0.000063
