data_functionalizedCrystal
_audit_creation_method	'MofGen! by Chris Wilmer'
_symmetry_space_group_name_H-M	'P1'
_symmetry_Int_Tables_number	1
_symmetry_cell_setting	triclinic
loop_
_symmetry_equiv_pos_as_xyz
  x,y,z
_cell_length_a	21.295419
_cell_length_b	29.839131
_cell_length_c	21.295412
_cell_angle_alpha	89.962957
_cell_angle_beta	89.976510
_cell_angle_gamma	90.050029
loop_
_atom_site_label
_atom_site_type_symbol
_atom_site_fract_x
_atom_site_fract_y
_atom_site_fract_z
Zn1	Zn	0.962328	-0.178687	-0.355883
Zn2	Zn	1.462328	0.321313	0.144117
Zn3	Zn	0.962224	-0.253814	-0.250597
Zn4	Zn	1.462224	0.246186	0.249403
Zn5	Zn	0.857054	-0.178719	-0.250628
Zn6	Zn	1.357054	0.321281	0.249372
Zn7	Zn	0.857012	-0.253810	-0.355829
Zn8	Zn	1.357012	0.246190	0.144171
O9	O	0.909655	-0.216258	-0.303234
O10	O	1.409655	0.283742	0.196766
O11	O	1.050404	-0.188641	-0.341927
O12	O	1.550404	0.311359	0.158073
O13	O	0.948247	-0.243868	-0.162512
O14	O	1.448247	0.256132	0.337488
O15	O	0.871079	-0.115847	-0.264627
O16	O	1.371079	0.384153	0.235373
O17	O	1.050327	-0.243837	-0.264573
O18	O	1.550327	0.256163	0.235427
O19	O	0.948424	-0.115824	-0.341957
O20	O	1.448424	0.384176	0.158043
O21	O	0.870978	-0.188695	-0.162535
O22	O	1.370978	0.311305	0.337465
O23	O	0.768959	-0.188691	-0.264574
O24	O	1.268959	0.311309	0.235426
O25	O	0.871009	-0.243830	-0.443925
O26	O	1.371009	0.256170	0.056075
O27	O	0.768928	-0.243861	-0.341864
O28	O	1.268928	0.256139	0.158136
O29	O	0.948384	-0.188637	-0.443965
O30	O	1.448384	0.311363	0.056035
O31	O	0.948207	-0.316681	-0.264520
O32	O	1.448207	0.183319	0.235480
O33	O	0.870908	-0.316678	-0.341834
O34	O	1.370908	0.183322	0.158166
C35	C	0.746103	-0.216279	-0.303217
C36	C	1.246103	0.283721	0.196783
C37	C	0.676135	-0.216299	-0.303224
C38	C	1.176135	0.283701	0.196776
C39	C	0.643331	-0.187606	-0.343564
C40	C	1.143331	0.312394	0.156436
C41	C	0.577588	-0.187594	-0.343567
C42	C	1.077588	0.312406	0.156433
C43	C	0.544652	-0.216283	-0.303236
C44	C	1.044652	0.283717	0.196764
C45	C	0.577465	-0.244979	-0.262888
C46	C	1.077465	0.255021	0.237112
C47	C	0.643206	-0.244987	-0.262882
C48	C	1.143206	0.255013	0.237118
N49	N	0.441372	-0.255591	-0.298310
N50	N	0.941372	0.244409	0.201690
N51	N	0.378921	-0.255582	-0.298319
N52	N	0.878921	0.244418	0.201681
C53	C	0.346578	-0.216260	-0.303249
C54	C	0.846578	0.283740	0.196751
N55	N	0.379045	-0.176946	-0.308183
N56	N	0.879045	0.323054	0.191817
N57	N	0.441502	-0.176956	-0.308177
N58	N	0.941502	0.323044	0.191823
C59	C	0.473367	-0.216277	-0.303237
C60	C	0.973367	0.283723	0.196763
C61	C	0.242488	-0.187551	-0.343594
C62	C	0.742488	0.312449	0.156406
C63	C	0.176744	-0.187538	-0.343592
C64	C	0.676744	0.312462	0.156408
C65	C	0.176622	-0.244927	-0.262917
C66	C	0.676622	0.255073	0.237083
C67	C	0.242364	-0.244936	-0.262915
C68	C	0.742364	0.255064	0.237085
C69	C	0.275293	-0.216248	-0.303258
C70	C	0.775293	0.283752	0.196742
C71	C	0.909559	-0.332980	-0.303181
C72	C	1.409559	0.167020	0.196819
C73	C	0.909575	-0.382915	-0.303180
C74	C	1.409575	0.117085	0.196820
C75	C	0.949919	-0.692511	-0.343558
C76	C	1.449919	-0.192511	0.156442
C77	C	0.949988	-0.880184	-0.343595
C78	C	1.449988	-0.380184	0.156405
O79	O	0.984196	-0.904409	-0.377887
O80	O	1.484196	-0.404409	0.122113
N81	N	0.909761	-0.903700	-0.303304
N82	N	1.409761	-0.403700	0.196696
C83	C	0.869512	-0.880294	-0.263003
C84	C	1.369512	-0.380294	0.236997
O85	O	0.835295	-0.904602	-0.228739
O86	O	1.335295	-0.404602	0.271261
C87	C	0.869441	-0.692622	-0.262969
C88	C	1.369441	-0.192622	0.237031
C89	C	0.909675	-0.669109	-0.303259
C90	C	1.409675	-0.169109	0.196741
C91	C	0.990149	-0.668998	-0.383844
C92	C	1.490149	-0.168998	0.116156
C93	C	0.990134	-0.622082	-0.383832
C94	C	1.490134	-0.122082	0.116168
C95	C	0.949889	-0.598680	-0.343533
C96	C	1.449889	-0.098680	0.156467
C97	C	0.909660	-0.622193	-0.303246
C98	C	1.409660	-0.122193	0.196754
C99	C	0.829190	-0.669217	-0.222672
C100	C	1.329190	-0.169217	0.277328
C101	C	0.829174	-0.622296	-0.222668
C102	C	1.329174	-0.122296	0.277332
C103	C	0.869408	-0.598783	-0.262958
C104	C	1.369408	-0.098783	0.237042
C105	C	0.869400	-0.551876	-0.262935
C106	C	1.369400	-0.051876	0.237065
N107	N	0.909626	-0.528360	-0.303227
N108	N	1.409626	-0.028360	0.196773
C109	C	0.949871	-0.551762	-0.343525
C110	C	1.449871	-0.051762	0.156475
C111	C	0.869553	-0.978825	-0.263023
C112	C	1.369553	-0.478825	0.236977
C113	C	0.869572	-1.025743	-0.263031
C114	C	1.369572	-0.525743	0.236969
C115	C	0.950046	-1.025629	-0.343624
C116	C	1.450046	-0.525629	0.156376
C117	C	0.950031	-0.978711	-0.343613
C118	C	1.450031	-0.478711	0.156387
C119	C	0.909780	-0.955309	-0.303315
C120	C	1.409780	-0.455309	0.196685
C121	C	0.949836	-0.453236	-0.343496
C122	C	1.449836	0.046764	0.156504
C123	C	0.949820	-0.406317	-0.343478
C124	C	1.449820	0.093683	0.156522
C125	C	0.869343	-0.406434	-0.262888
C126	C	1.369343	0.093566	0.237112
C127	C	0.869362	-0.453350	-0.262903
C128	C	1.369362	0.046650	0.237097
C129	C	0.909611	-0.476750	-0.303212
C130	C	1.409611	0.023250	0.196788
O131	O	0.835205	-0.527622	-0.228667
O132	O	1.335205	-0.027622	0.271333
O133	O	0.984074	-0.527447	-0.377795
O134	O	1.484074	-0.027447	0.122205
C135	C	0.949934	-0.739426	-0.343570
C136	C	1.449934	-0.239426	0.156430
C137	C	0.909705	-0.762940	-0.303283
C138	C	1.409705	-0.262940	0.196717
C139	C	0.869460	-0.739537	-0.262984
C140	C	1.369460	-0.239537	0.237016
C141	C	0.909723	-0.809857	-0.303291
C142	C	1.409723	-0.309857	0.196709
C143	C	0.949968	-0.833260	-0.343590
C144	C	1.449968	-0.333260	0.156410
C145	C	0.990194	-0.809744	-0.383881
C146	C	1.490194	-0.309744	0.116119
C147	C	0.990179	-0.762829	-0.383869
C148	C	1.490179	-0.262829	0.116131
C149	C	0.829234	-0.763053	-0.222693
C150	C	1.329234	-0.263053	0.277307
C151	C	0.829253	-0.809968	-0.222708
C152	C	1.329253	-0.309968	0.277292
C153	C	0.869498	-0.833371	-0.263007
C154	C	1.369498	-0.333371	0.236993
C155	C	1.073845	-0.216236	-0.303252
C156	C	1.573845	0.283764	0.196748
C157	C	1.143813	-0.216227	-0.303260
C158	C	1.643813	0.283773	0.196740
C159	C	0.909704	-0.216230	-0.467425
C160	C	1.409704	0.283770	0.032575
C161	C	0.909725	-0.216218	-0.537393
C162	C	1.409725	0.283782	-0.037393
C163	C	0.909768	-0.099079	-0.303301
C164	C	1.409768	0.400921	0.196699
C165	C	0.909816	-0.049145	-0.303330
C166	C	1.409816	0.450855	0.196670
C167	C	0.869502	-0.187486	-0.570262
C168	C	1.369502	0.312514	-0.070262
C169	C	0.869500	-0.187478	-0.636004
C170	C	1.369500	0.312522	-0.136004
C171	C	0.909732	-0.216196	-0.668875
C172	C	1.409732	0.283804	-0.168875
C173	C	0.949957	-0.244934	-0.635999
C174	C	1.449957	0.255066	-0.135999
C175	C	0.949954	-0.244944	-0.570257
C176	C	1.449954	0.255056	-0.070257
N177	N	0.964836	-0.219617	-0.772113
N178	N	1.464836	0.280383	-0.272113
N179	N	0.964837	-0.219604	-0.834565
N180	N	1.464837	0.280396	-0.334565
C181	C	0.909743	-0.216166	-0.866950
C182	C	1.409743	0.283834	-0.366950
N183	N	0.854647	-0.212733	-0.834525
N184	N	1.354647	0.287267	-0.334525
N185	N	0.854646	-0.212743	-0.772068
N186	N	1.354646	0.287257	-0.272068
C187	C	0.909739	-0.216188	-0.740161
C188	C	1.409739	0.283812	-0.240161
C189	C	0.869514	-0.187424	-0.971105
C190	C	1.369514	0.312576	-0.471105
C191	C	0.869511	-0.187419	-1.036848
C192	C	1.369511	0.312581	-0.536848
C193	C	0.949974	-0.244872	-1.036842
C194	C	1.449974	0.255128	-0.536842
C195	C	0.949972	-0.244880	-0.971099
C196	C	1.449972	0.255120	-0.471099
C197	C	0.909743	-0.216153	-0.938235
C198	C	1.409743	0.283847	-0.438235
C199	C	0.909642	-0.216253	-0.139683
C200	C	1.409642	0.283747	0.360317
C201	C	0.909743	-0.216138	-0.069715
C202	C	1.409743	0.283862	0.430285
H203	H	0.269074	-0.268303	-0.230068
H204	H	0.769074	0.231697	0.269932
H205	H	0.982711	-0.268340	-0.543496
H206	H	1.482711	0.231660	-0.043496
H207	H	0.550874	-0.164226	-0.376415
H208	H	1.050874	0.335774	0.123585
H209	H	0.836817	-1.044883	-0.230217
H210	H	1.336817	-0.544883	0.269783
H211	H	0.982585	-0.387174	-0.376287
H212	H	1.482585	0.112826	0.123713
H213	H	0.269300	-0.164189	-0.376439
H214	H	0.769300	0.335811	0.123561
H215	H	0.836606	-0.472495	-0.230091
H216	H	1.336606	0.027505	0.269909
H217	H	0.836752	-0.164024	-1.063609
H218	H	1.336752	0.335976	-0.563609
H219	H	1.022893	-0.602941	-0.416641
H220	H	1.522893	-0.102941	0.083359
N221	N	0.678844	-0.156654	-0.387059
N222	N	1.178844	0.343346	0.112941
H223	H	0.725470	-0.161010	-0.380933
H224	H	1.225470	0.338990	0.119067
H225	H	0.667370	-0.163682	-0.432001
H226	H	1.167370	0.336318	0.067999
N227	N	0.826105	-0.156494	-0.671464
N228	N	1.326105	0.343506	-0.171464
H229	H	0.832208	-0.160849	-0.718098
H230	H	1.332208	0.339151	-0.218098
H231	H	0.781143	-0.163500	-0.659947
H232	H	1.281143	0.336500	-0.159947
H233	H	0.836775	-0.959774	-0.230206
H234	H	1.336775	-0.459774	0.269794
N235	N	0.541946	-0.275919	-0.219382
N236	N	1.041946	0.224081	0.280618
H237	H	0.495321	-0.271561	-0.225507
H238	H	0.995321	0.228439	0.274493
H239	H	0.553395	-0.308016	-0.229086
H240	H	1.053395	0.191984	0.270914
H241	H	0.982607	-0.472283	-0.376324
H242	H	1.482607	0.027717	0.123676
H243	H	0.982733	-0.268255	-1.063605
H244	H	1.482733	0.231745	-0.563605
N245	N	1.033543	-0.694234	-0.427329
N246	N	1.533543	-0.194234	0.072671
H247	H	1.059016	-0.672213	-0.452850
H248	H	1.559016	-0.172213	0.047150
H249	H	1.062704	-0.713695	-0.401752
H250	H	1.562704	-0.213695	0.098248
H251	H	1.022965	-0.828806	-0.416692
H252	H	1.522965	-0.328806	0.083308
N253	N	0.993366	-0.275865	-0.935647
N254	N	1.493366	0.224135	-0.435647
H255	H	1.022552	-0.257606	-0.908393
H256	H	1.522552	0.242394	-0.408393
H257	H	0.967720	-0.296686	-0.908384
H258	H	1.467720	0.203314	-0.408384
H259	H	0.982792	-0.959569	-0.376420
H260	H	1.482792	-0.459569	0.123580
N261	N	0.993455	-1.050874	-0.387089
N262	N	1.493455	-0.550874	0.112911
H263	H	0.987358	-1.084164	-0.380977
H264	H	1.487358	-0.584164	0.119023
H265	H	0.983626	-1.042659	-0.432036
H266	H	1.483626	-0.542659	0.067964
N267	N	0.785827	-0.737816	-0.179224
N268	N	1.285827	-0.237816	0.320776
H269	H	0.760351	-0.759836	-0.153704
H270	H	1.260351	-0.259836	0.346296
H271	H	0.811462	-0.718348	-0.150110
H272	H	1.311462	-0.218348	0.349890
N273	N	0.825942	-0.381189	-0.219421
N274	N	1.325942	0.118811	0.280579
H275	H	0.832039	-0.347899	-0.225532
H276	H	1.332039	0.152101	0.274468
H277	H	0.780981	-0.389418	-0.229180
H278	H	1.280981	0.110582	0.270820
N279	N	0.826125	-0.156445	-0.935652
N280	N	1.326125	0.343555	-0.435652
H281	H	0.800639	-0.138244	-0.966453
H282	H	1.300639	0.361756	-0.466453
H283	H	0.796977	-0.174740	-0.908352
H284	H	1.296977	0.325260	-0.408352
N285	N	0.993345	-0.275910	-0.671454
N286	N	1.493345	0.224090	-0.171454
H287	H	1.022537	-0.257645	-0.698751
H288	H	1.522537	0.242355	-0.198751
H289	H	1.018785	-0.294110	-0.640616
H290	H	1.518785	0.205890	-0.140616
H291	H	0.150036	-0.164170	-0.376441
H292	H	0.650036	0.335830	0.123559
H293	H	0.669915	-0.268353	-0.230031
H294	H	1.169915	0.231647	0.269969
N295	N	0.785796	-0.694570	-0.179216
N296	N	1.285796	-0.194570	0.320784
H297	H	0.760300	-0.672619	-0.153692
H298	H	1.260300	-0.172619	0.346308
H299	H	0.756656	-0.714045	-0.204816
H300	H	1.256656	-0.214045	0.295184
H301	H	0.149806	-0.268286	-0.230078
H302	H	0.649806	0.231714	0.269922
H303	H	0.796395	-0.603245	-0.189854
H304	H	1.296395	-0.103245	0.310146
N305	N	1.033573	-0.737471	-0.427325
N306	N	1.533573	-0.237471	0.072675
H307	H	1.059065	-0.759422	-0.452853
H308	H	1.559065	-0.259422	0.047147
H309	H	1.007929	-0.718010	-0.456431
H310	H	1.507929	-0.218010	0.043569
N311	N	0.785860	-0.835327	-0.179246
N312	N	1.285860	-0.335327	0.320754
H313	H	0.760365	-0.813378	-0.153718
H314	H	1.260365	-0.313378	0.346282
H315	H	0.756720	-0.854800	-0.204848
H316	H	1.256720	-0.354800	0.295152
N317	N	0.826121	-0.156499	-0.534815
N318	N	1.326121	0.343501	-0.034815
H319	H	0.800642	-0.138294	-0.565617
H320	H	1.300642	0.361706	-0.065617
H321	H	0.796965	-0.174787	-0.507513
H322	H	1.296965	0.325213	-0.007513
