data_functionalizedCrystal
_audit_creation_method	'MofGen! by Chris Wilmer'
_symmetry_space_group_name_H-M	'P1'
_symmetry_Int_Tables_number	1
_symmetry_cell_setting	triclinic
loop_
_symmetry_equiv_pos_as_xyz
  x,y,z
_cell_length_a	12.759401
_cell_length_b	16.994747
_cell_length_c	12.759393
_cell_angle_alpha	90.011549
_cell_angle_beta	90.018496
_cell_angle_gamma	90.011218
loop_
_atom_site_label
_atom_site_type_symbol
_atom_site_fract_x
_atom_site_fract_y
_atom_site_fract_z
Zn1	Zn	1.606282	-0.313978	0.594127
Zn2	Zn	1.606188	-0.445905	0.418509
Zn3	Zn	1.430584	-0.314019	0.418467
Zn4	Zn	1.430584	-0.445844	0.594150
O5	O	1.518409	-0.379937	0.506313
O6	O	1.753290	-0.331487	0.570839
O7	O	1.582854	-0.428453	0.271482
O8	O	1.453930	-0.203633	0.441741
O9	O	1.753221	-0.428413	0.441813
O10	O	1.583015	-0.203602	0.570798
O11	O	1.453839	-0.331557	0.271451
O12	O	1.283563	-0.331498	0.441764
O13	O	1.453930	-0.428309	0.741168
O14	O	1.283563	-0.428349	0.570838
O15	O	1.583015	-0.331428	0.741152
O16	O	1.582854	-0.556278	0.441835
O17	O	1.453838	-0.556234	0.570878
C18	C	1.245442	-0.379922	0.506299
C19	C	1.128665	-0.379935	0.506318
C20	C	1.518349	-0.584877	0.506361
C21	C	1.518356	-0.674199	0.506358
Zn22	Zn	1.430614	-0.945106	0.418437
Zn23	Zn	1.606329	-0.945043	0.594081
Zn24	Zn	1.430620	-0.813237	0.594133
Zn25	Zn	1.606207	-0.813160	0.418475
O26	O	1.518442	-0.879136	0.506282
O27	O	1.453972	-1.055479	0.441700
O28	O	1.583074	-0.927564	0.741109
O29	O	1.283598	-0.830788	0.570832
O30	O	1.583069	-1.055433	0.570744
O31	O	1.283594	-0.927672	0.441750
O32	O	1.453981	-0.830727	0.741147
O33	O	1.453863	-0.702845	0.570869
O34	O	1.582861	-0.830657	0.271449
O35	O	1.582866	-0.702789	0.441813
O36	O	1.453853	-0.927597	0.271421
O37	O	1.753334	-0.927490	0.570781
O38	O	1.753244	-0.830597	0.441763
C39	C	1.073831	-0.430446	0.573416
C40	C	0.964107	-0.430456	0.573427
C41	C	0.964061	-0.329442	0.439234
C42	C	1.073784	-0.329428	0.439229
C43	C	1.128713	-0.480953	0.640505
C44	C	1.073878	-0.531469	0.707607
C45	C	0.964154	-0.531479	0.707619
C46	C	0.909264	-0.480973	0.640528
C47	C	1.792443	-0.379952	0.506328
C48	C	1.909219	-0.379958	0.506335
C49	C	1.518483	-0.379857	0.780347
C50	C	1.518514	-0.379823	0.897124
C51	C	1.518476	-0.174197	0.506260
C52	C	1.518508	-0.084875	0.506238
C53	C	1.518397	-0.379959	0.233346
C54	C	1.518569	-0.379771	0.116570
C55	C	1.585738	-0.329372	0.951979
C56	C	1.585763	-0.329344	1.061703
C57	C	1.451338	-0.430224	1.061707
C58	C	1.451308	-0.430248	0.951985
C59	C	1.652944	-0.278947	0.897117
C60	C	1.720174	-0.228493	0.951972
C61	C	1.720199	-0.228464	1.061696
C62	C	1.652994	-0.278890	1.116565
C63	C	1.791410	-0.879030	0.506273
C64	C	1.908186	-0.879008	0.506300
C65	C	1.518343	-0.879126	0.232248
C66	C	1.518300	-0.879121	0.115471
C67	C	1.244409	-0.879245	0.506293
C68	C	1.127632	-0.879291	0.506297
C69	C	1.518467	-0.879192	0.779249
C70	C	1.518216	-0.879347	0.896025
C71	C	1.963060	-0.929486	0.573425
C72	C	2.072784	-0.929472	0.573430
C73	C	2.072751	-0.828497	0.439185
C74	C	1.963029	-0.828515	0.439175
C75	C	1.908218	-0.979979	0.640550
C76	C	1.963092	-1.030460	0.707681
C77	C	2.072816	-1.030447	0.707687
C78	C	2.127666	-0.979952	0.640562
C79	C	1.451115	-0.929587	0.060593
C80	C	1.451068	-0.929571	-0.049131
C81	C	1.585400	-0.828620	-0.049089
C82	C	1.585441	-0.828633	0.060633
C83	C	1.383975	-0.980075	0.115432
C84	C	1.316785	-1.030546	0.060554
C85	C	1.316738	-1.030530	-0.049170
C86	C	1.383880	-0.980043	-0.104016
H87	H	1.118576	-0.572584	0.762237
H88	H	1.818875	-0.979993	0.640555
H89	H	1.384007	-0.980096	0.204775
H90	H	1.918426	-1.071575	0.762325
C91	C	1.793239	-0.173811	1.121393
C92	C	1.860556	-0.218460	1.184422
C93	C	1.927848	-0.168140	1.239438
H94	H	1.833357	-0.143764	1.073125
H95	H	1.753098	-0.139441	1.164244
H96	H	1.900693	-0.252816	1.141574
H97	H	1.820467	-0.248505	1.232709
H98	H	1.887707	-0.133771	1.282290
H99	H	1.967959	-0.138096	1.191163
H100	H	1.973524	-0.198427	1.282217
H101	H	1.218055	-0.480952	0.640501
C102	C	0.904807	-0.586405	0.780512
C103	C	0.976359	-0.630644	0.839243
C104	C	0.921729	-0.681262	0.906391
H105	H	0.862021	-0.556367	0.826444
H106	H	0.862008	-0.620784	0.740284
H107	H	1.019140	-0.596270	0.879468
H108	H	1.019147	-0.660698	0.793338
H109	H	0.878930	-0.715640	0.866163
H110	H	0.878946	-0.651217	0.952316
H111	H	0.970269	-0.711289	0.946241
H112	H	1.653008	-0.278854	1.205910
C113	C	2.132206	-1.085284	0.780679
C114	C	2.060688	-1.129491	0.839476
C115	C	2.115357	-1.180006	0.906743
H116	H	2.175002	-1.119694	0.740565
H117	H	2.174998	-1.055149	0.826556
H118	H	2.017914	-1.159624	0.793605
H119	H	2.017890	-1.095102	0.879611
H120	H	2.158149	-1.149871	0.952620
H121	H	2.158151	-1.214411	0.866621
H122	H	2.066841	-1.210001	0.946652
H123	H	1.383834	-0.980031	-0.193361
C124	C	1.378501	-0.484946	1.121466
C125	C	1.392937	-0.474143	1.229297
C126	C	1.325871	-0.524551	1.284377
H127	H	1.307865	-0.473455	1.103610
H128	H	1.393866	-0.537966	1.103550
H129	H	1.377565	-0.421136	1.247205
H130	H	1.463559	-0.485640	1.247184
H131	H	1.341236	-0.577570	1.266461
H132	H	1.255240	-0.513055	1.266512
H133	H	1.335664	-0.517233	1.357545
H134	H	1.262112	-1.071645	0.105216
C135	C	1.658257	-0.773898	-0.108823
C136	C	1.643860	-0.784703	-0.216659
C137	C	1.710971	-0.734315	-0.271716
H138	H	1.642930	-0.720876	-0.090943
H139	H	1.728884	-0.785422	-0.090912
H140	H	1.573250	-0.773174	-0.234562
H141	H	1.659196	-0.837715	-0.234570
H142	H	1.781597	-0.745839	-0.253805
H143	H	1.695637	-0.681296	-0.253827
H144	H	1.701218	-0.741644	-0.344888
H145	H	1.262020	-1.071619	-0.093849
C146	C	1.658500	-0.773813	0.120034
C147	C	1.717316	-0.729614	0.048527
C148	C	1.784636	-0.679110	0.103209
H149	H	1.618424	-0.739398	0.162858
H150	H	1.704363	-0.803956	0.162798
H151	H	1.671460	-0.699474	0.005780
H152	H	1.757414	-0.764008	0.005700
H153	H	1.830498	-0.709252	0.145973
H154	H	1.744551	-0.644700	0.146031
H155	H	1.824557	-0.649120	0.054700
C156	C	2.132489	-0.773702	0.366433
C157	C	2.240324	-0.784475	0.380831
C158	C	2.295385	-0.734002	0.313842
H159	H	2.114621	-0.785152	0.295781
H160	H	2.114569	-0.720700	0.381894
H161	H	2.258236	-0.837466	0.365363
H162	H	2.258223	-0.773020	0.451469
H163	H	2.277465	-0.680999	0.329303
H164	H	2.277509	-0.745456	0.243194
H165	H	2.368556	-0.741299	0.323608
C166	C	0.790134	-0.481099	0.640694
C167	C	0.753856	-0.536143	0.713818
C168	C	0.644122	-0.536279	0.714004
H169	H	0.765232	-0.430253	0.659006
H170	H	0.765207	-0.494713	0.572902
H171	H	0.778772	-0.522525	0.781596
H172	H	0.778729	-0.586996	0.695524
H173	H	0.619196	-0.549893	0.646212
H174	H	0.619230	-0.485431	0.732314
H175	H	0.619493	-0.573631	0.763610
H176	H	1.396552	-0.471318	0.907321
C177	C	2.246796	-0.980034	0.640747
C178	C	2.283117	-1.035041	0.713910
C179	C	2.392851	-1.035132	0.714119
H180	H	2.271721	-0.993658	0.572991
H181	H	2.271672	-0.929156	0.659038
H182	H	2.258253	-1.085908	0.695613
H183	H	2.258221	-1.021430	0.781677
H184	H	2.417726	-0.984254	0.732410
H185	H	2.417766	-1.048754	0.646359
H186	H	2.417509	-1.072448	0.763765
H187	H	1.918349	-0.787407	0.384522
H188	H	1.118431	-0.288292	0.384600
C189	C	1.793089	-0.173828	0.892216
C190	C	1.778700	-0.184662	0.784384
C191	C	1.845859	-0.134323	0.729308
H192	H	1.777801	-0.120792	0.910062
H193	H	1.863703	-0.185378	0.910145
H194	H	1.708101	-0.173107	0.766463
H195	H	1.793995	-0.237687	0.766507
H196	H	1.916473	-0.145873	0.747236
H197	H	1.830566	-0.081291	0.747162
H198	H	1.836112	-0.141672	0.656139
H199	H	0.919362	-0.288323	0.384611
H200	H	1.652934	-0.278967	0.807774
