data_functionalizedCrystal
_audit_creation_method	'MofGen! by Chris Wilmer'
_symmetry_space_group_name_H-M	'P1'
_symmetry_Int_Tables_number	1
_symmetry_cell_setting	triclinic
loop_
_symmetry_equiv_pos_as_xyz
  x,y,z
_cell_length_a	12.827893
_cell_length_b	21.295417
_cell_length_c	12.827885
_cell_angle_alpha	90.037053
_cell_angle_beta	90.019272
_cell_angle_gamma	90.029863
loop_
_atom_site_label
_atom_site_type_symbol
_atom_site_fract_x
_atom_site_fract_y
_atom_site_fract_z
Zn1	Zn	1.597566	-0.250576	0.590796
Zn2	Zn	2.097566	0.249424	1.090796
Zn3	Zn	1.597416	-0.355858	0.416034
Zn4	Zn	2.097416	0.144142	0.916034
Zn5	Zn	1.422807	-0.250607	0.416070
Zn6	Zn	1.922807	0.249393	0.916070
Zn7	Zn	1.422749	-0.355812	0.590734
Zn8	Zn	1.922749	0.144188	1.090734
O9	O	1.510134	-0.303213	0.503408
O10	O	2.010134	0.196787	1.003408
O11	O	1.743782	-0.264548	0.567624
O12	O	2.243782	0.235452	1.067624
O13	O	1.574216	-0.341929	0.269803
O14	O	2.074216	0.158071	0.769803
O15	O	1.446076	-0.162514	0.439288
O16	O	1.946076	0.337486	0.939288
O17	O	1.743672	-0.341899	0.439228
O18	O	2.243672	0.158101	0.939228
O19	O	1.574471	-0.162491	0.567659
O20	O	2.074471	0.337509	1.067659
O21	O	1.445931	-0.264601	0.269829
O22	O	1.945931	0.235399	0.769829
O23	O	1.276563	-0.264556	0.439228
O24	O	1.776563	0.235444	0.939228
O25	O	1.445977	-0.341819	0.736978
O26	O	1.945977	0.158181	1.236978
O27	O	1.276520	-0.341850	0.567553
O28	O	1.776520	0.158150	1.067553
O29	O	1.574414	-0.264503	0.737024
O30	O	2.074414	0.235497	1.237024
O31	O	1.574159	-0.443941	0.439168
O32	O	2.074159	0.056059	0.939168
O33	O	1.445832	-0.443907	0.567519
O34	O	1.945832	0.056093	1.067519
C35	C	1.238625	-0.303202	0.503388
C36	C	1.738625	0.196798	1.003388
C37	C	1.122471	-0.303212	0.503405
C38	C	1.622471	0.196788	1.003405
C39	C	1.070741	-0.265004	0.567039
C40	C	1.570741	0.234996	1.067039
C41	C	0.950690	-0.265014	0.567057
C42	C	1.450690	0.234986	1.067057
C43	C	1.510001	-0.466765	0.503355
C44	C	2.010001	0.033235	1.003355
C45	C	1.510040	-0.536733	0.503368
C46	C	2.010040	-0.036733	1.003368
C47	C	1.576857	-0.569531	0.570258
C48	C	2.076857	-0.069531	1.070258
C49	C	1.576893	-0.635273	0.570284
C50	C	2.076893	-0.135273	1.070284
C51	C	1.510125	-0.668215	0.503401
C52	C	2.010125	-0.168215	1.003401
C53	C	1.443295	-0.635410	0.436506
C54	C	1.943295	-0.135410	0.936506
C55	C	1.443253	-0.569669	0.436489
C56	C	1.943253	-0.069669	0.936489
N57	N	1.502229	-0.771484	0.411945
N58	N	2.002229	-0.271484	0.911945
N59	N	1.502275	-0.833935	0.411964
N60	N	2.002275	-0.333935	0.911964
C61	C	1.510247	-0.866290	0.503448
C62	C	2.010247	-0.366290	1.003448
N63	N	1.518191	-0.833834	0.594915
N64	N	2.018191	-0.333834	1.094915
N65	N	1.518150	-0.771377	0.594895
N66	N	2.018150	-0.271377	1.094895
C67	C	1.510163	-0.739501	0.503412
C68	C	2.010163	-0.239501	1.003412
C69	C	1.577107	-0.970373	0.570372
C70	C	2.077107	-0.470373	1.070372
C71	C	1.577136	-1.036117	0.570399
C72	C	2.077136	-0.536117	1.070399
C73	C	1.443543	-1.036252	0.436612
C74	C	1.943543	-0.536252	0.936612
C75	C	1.443508	-0.970510	0.436594
C76	C	1.943508	-0.470510	0.936594
C77	C	1.510296	-0.937574	0.503472
C78	C	2.010296	-0.437574	1.003472
C79	C	1.782704	-0.303225	0.503429
C80	C	2.282704	0.196775	1.003429
C81	C	1.898858	-0.303230	0.503438
C82	C	2.398858	0.196770	1.003438
C83	C	1.510206	-0.303153	0.775979
C84	C	2.010206	0.196847	1.275979
C85	C	1.510236	-0.303127	0.892132
C86	C	2.010236	0.196873	1.392132
C87	C	1.510297	-0.139023	0.503484
C88	C	2.010297	0.360977	1.003484
C89	C	1.510366	-0.069055	0.503517
C90	C	2.010366	0.430945	1.003517
C91	C	1.510124	-0.303228	0.231898
C92	C	2.010124	0.196772	0.731898
C93	C	1.510296	-0.303076	0.115746
C94	C	2.010296	0.196924	0.615746
C95	C	1.573798	-0.264861	0.943939
C96	C	2.073798	0.235139	1.443939
C97	C	1.573830	-0.264834	1.063990
C98	C	2.073830	0.235166	1.563990
H99	H	0.906203	-0.232305	0.621539
H100	H	1.406203	0.267695	1.121539
H101	H	1.388841	-0.542964	0.382018
H102	H	1.888841	-0.042964	0.882018
H103	H	1.631546	-1.062820	0.624874
H104	H	2.131546	-0.562820	1.124874
H105	H	1.455879	-0.335841	1.071200
H106	H	1.955879	0.164159	1.571200
O107	O	1.371534	-1.071776	0.364466
O108	O	1.871534	-0.571776	0.864466
H109	H	1.318364	-1.101739	0.411196
H110	H	1.818364	-0.601739	0.911196
H111	H	1.631236	-0.542716	0.624717
H112	H	2.131236	-0.042716	1.124717
H113	H	1.455836	-0.335863	0.936655
H114	H	1.955836	0.164137	1.436655
O115	O	1.129796	-0.221663	0.639187
O116	O	1.629796	0.278337	1.139187
H117	H	1.108935	-0.172236	0.621428
H118	H	1.608935	0.327764	1.121428
O119	O	1.645907	-0.221435	1.123009
O120	O	2.145907	0.278565	1.623009
H121	H	1.727930	-0.232228	1.102135
H122	H	2.227930	0.267772	1.602135
H123	H	1.077883	-0.335928	0.448937
H124	H	1.577883	0.164072	0.948937
O125	O	0.957769	-0.346560	0.431258
O126	O	1.457769	0.153440	0.931258
H127	H	1.007507	-0.378587	0.477965
H128	H	1.507507	0.121413	0.977965
O129	O	1.371458	-0.935134	0.364424
O130	O	1.871458	-0.435134	0.864424
H131	H	1.289438	-0.947790	0.382263
H132	H	1.789438	-0.447790	0.882263
O133	O	1.648970	-0.670660	0.642424
O134	O	2.148970	-0.170660	1.142424
H135	H	1.695409	-0.636713	0.688920
H136	H	2.195409	-0.136713	1.188920
H137	H	1.388929	-0.662236	0.382051
H138	H	1.888929	-0.162236	0.882051
H139	H	1.628187	-0.232118	0.899416
H140	H	2.128187	0.267882	1.399416
O141	O	1.649128	-0.934842	0.642508
O142	O	2.149128	-0.434842	1.142508
H143	H	1.695586	-0.968696	0.689040
H144	H	2.195586	-0.468696	1.189040
