data_functionalizedCrystal
_audit_creation_method	'MofGen! by Chris Wilmer'
_symmetry_space_group_name_H-M	'P1'
_symmetry_Int_Tables_number	1
_symmetry_cell_setting	triclinic
loop_
_symmetry_equiv_pos_as_xyz
  x,y,z
_cell_length_a	27.435584
_cell_length_b	27.434948
_cell_length_c	27.431174
_cell_angle_alpha	60.005483
_cell_angle_beta	60.011353
_cell_angle_gamma	59.993028
loop_
_atom_site_label
_atom_site_type_symbol
_atom_site_fract_x
_atom_site_fract_y
_atom_site_fract_z
O1	O	0.067437	-0.712144	0.595551
O2	O	0.025356	-0.554453	0.479848
O3	O	0.125206	-0.654236	0.479781
O4	O	-0.032412	-0.612361	0.595618
O5	O	0.158328	-0.621117	0.512835
O6	O	0.058479	-0.521333	0.512902
O7	O	0.100560	-0.679025	0.628605
Zn8	Zn	0.084778	-0.594921	0.576001
Zn9	Zn	0.041138	-0.638557	0.532452
O10	O	0.000710	-0.579241	0.628672
N11	N	0.114563	-0.565144	0.605726
N12	N	0.011358	-0.668338	0.502727
C13	C	0.156385	-0.523520	0.904506
C14	C	0.413419	-0.523497	0.647322
C15	C	0.156253	-0.523488	0.647384
C16	C	0.156238	-0.266354	0.647407
C17	C	0.197637	-0.390463	0.688753
C18	C	0.197646	-0.482126	0.688741
C19	C	0.220575	-0.459215	0.711654
C20	C	0.320555	-0.441991	0.659023
C21	C	0.383051	-0.462825	0.638179
C22	C	0.383069	-0.563942	0.676737
C23	C	0.320575	-0.543107	0.697583
C24	C	0.212704	-0.359206	0.627313
C25	C	0.191849	-0.296705	0.606496
C26	C	0.140866	-0.296722	0.708562
C27	C	0.161721	-0.359223	0.729379
C28	C	0.136200	-0.467030	0.703858
C29	C	0.115361	-0.487857	0.683021
C30	C	0.217408	-0.538877	0.631968
C31	C	0.238249	-0.518050	0.652796
C32	C	0.136259	-0.467047	0.811668
C33	C	0.115461	-0.487892	0.874167
C34	C	0.217537	-0.538923	0.874131
C35	C	0.238333	-0.518080	0.811631
C36	C	0.197693	-0.482140	0.780401
C37	C	0.289320	-0.482131	0.688723
C38	C	0.132699	-0.546027	0.973247
C39	C	0.482158	-0.545613	0.624075
C40	C	0.132521	-0.546006	0.624886
C41	C	0.132917	-0.197607	0.625310
C42	C	-0.098217	-0.686189	0.484419
C43	C	-0.006438	-0.686322	0.392891
C44	C	-0.006621	-0.777944	0.484592
C45	C	-0.006606	-0.686315	0.484649
C46	C	-0.029470	-0.709193	0.461638
N47	N	0.538410	-0.565162	0.605628
O48	O	0.742647	-0.575135	0.458625
O49	O	0.742821	-0.691181	0.616169
O50	O	0.742757	-0.690917	0.516248
O51	O	0.742711	-0.575399	0.558546
O52	O	0.643472	-0.657878	0.549405
O53	O	0.643536	-0.658142	0.649326
O54	O	0.643362	-0.542096	0.491782
Zn55	Zn	0.627685	-0.594873	0.575818
Zn56	Zn	0.758498	-0.638404	0.532133
O57	O	0.643426	-0.542360	0.591702
N58	N	0.847774	-0.668115	0.502317
N59	N	0.114542	-0.141354	0.605766
O60	O	-0.032397	0.062987	0.595660
O61	O	0.125155	0.062987	0.479633
O62	O	0.025219	0.062974	0.479910
O63	O	0.067539	0.063001	0.595383
O64	O	0.058343	-0.036320	0.513009
O65	O	0.158279	-0.036306	0.512732
O66	O	0.000728	-0.036306	0.628759
Zn67	Zn	0.084763	-0.052071	0.576000
Zn68	Zn	0.041120	0.078752	0.532392
O69	O	0.100664	-0.036292	0.628482
N70	N	0.011333	0.168036	0.502628
N71	N	0.114782	-0.565197	1.029501
O72	O	0.104681	-0.712124	1.233827
O73	O	-0.011334	-0.554523	1.233839
O74	O	-0.011066	-0.654443	1.233797
O75	O	0.104414	-0.612204	1.233869
O76	O	0.022028	-0.621336	1.134509
O77	O	0.021760	-0.521417	1.134551
O78	O	0.137775	-0.679018	1.134539
Zn79	Zn	0.085022	-0.594961	1.118780
Zn80	Zn	0.041420	-0.638580	1.249597
O81	O	0.137508	-0.579098	1.134580
N82	N	0.011658	-0.668350	1.338876
C83	C	0.037974	-0.518023	0.480435
C84	C	0.161625	-0.641592	0.480351
C85	C	0.087941	-0.715455	0.628017
C86	C	-0.035710	-0.591885	0.628101
C87	C	0.693199	-0.690642	0.652596
C88	C	0.693122	-0.690315	0.528855
C89	C	0.692981	-0.542634	0.455356
C90	C	0.693062	-0.542961	0.579095
C91	C	0.161524	0.013463	0.480164
C92	C	0.037807	0.013324	0.480547
C93	C	-0.035683	0.013341	0.628188
C94	C	0.088076	0.013357	0.627845
C95	C	-0.010764	-0.518114	1.184196
C96	C	-0.010426	-0.641846	1.184125
C97	C	0.137205	-0.715426	1.184182
C98	C	0.136875	-0.591687	1.184231
H99	H	0.103160	-0.437777	0.786243
C100	C	0.100310	0.013364	0.676857
C101	C	0.116783	0.064928	0.665812
C102	C	0.129018	0.064935	0.714823
C103	C	0.124779	0.013378	0.774879
C104	C	0.108305	-0.038190	0.785927
C105	C	0.096071	-0.038197	0.736915
H106	H	0.119922	0.103097	0.621352
H107	H	0.141213	0.103109	0.706645
H108	H	0.133835	0.013383	0.811160
H109	H	0.105166	-0.076359	0.830386
H110	H	0.083875	-0.076372	0.745094
H111	H	-0.047187	-0.472851	1.184199
H112	H	-0.080930	0.013340	0.664614
H113	H	0.692924	-0.506199	0.410112
C114	C	0.417455	-0.631016	0.686474
C115	C	0.486198	-0.653934	0.663541
C116	C	0.520583	-0.721007	0.673277
C117	C	0.486226	-0.765162	0.705945
C118	C	0.417479	-0.742246	0.728880
C119	C	0.383094	-0.675173	0.719144
H120	H	0.511635	-0.621246	0.639356
H121	H	0.571474	-0.737971	0.656299
H122	H	0.511680	-0.814814	0.713152
H123	H	0.392043	-0.774933	0.753065
H124	H	0.332204	-0.658209	0.736122
H125	H	0.028745	0.013321	0.444270
C126	C	0.693143	-0.739343	0.516632
C127	C	0.744681	-0.762646	0.465748
C128	C	0.744702	-0.811674	0.453525
C129	C	0.693186	-0.837399	0.492185
C130	C	0.641645	-0.814096	0.543071
C131	C	0.641623	-0.765068	0.555295
H132	H	0.782820	-0.743603	0.437127
H133	H	0.782857	-0.828924	0.415854
H134	H	0.693202	-0.873692	0.483136
H135	H	0.603506	-0.833139	0.571693
H136	H	0.603469	-0.747818	0.592965
H137	H	-0.080982	-0.582959	0.664476
H138	H	0.693242	-0.727072	0.697844
H139	H	0.028987	-0.472723	0.444098
H140	H	0.206679	0.013739	0.443646
H141	H	-0.046689	-0.650868	1.184063
H142	H	0.173631	-0.760687	1.184171
C143	C	0.185890	-0.579485	1.184250
C144	C	0.174854	-0.563011	1.235821
C145	C	0.223869	-0.550809	1.235840
C146	C	0.283920	-0.555081	1.184289
C147	C	0.294959	-0.571557	1.132715
C148	C	0.245944	-0.583758	1.132695
H149	H	0.130398	-0.559847	1.273985
H150	H	0.215698	-0.538613	1.274019
H151	H	0.320204	-0.546049	1.184304
H152	H	0.339415	-0.574720	1.094550
H153	H	0.254115	-0.595955	1.094516
C154	C	0.047878	-0.471277	0.908553
C155	C	0.008628	-0.489448	0.899968
C156	C	-0.058953	-0.472834	0.934355
C157	C	-0.087286	-0.438048	0.977328
C158	C	-0.048037	-0.419875	0.985915
C159	C	0.019545	-0.436489	0.951528
H160	H	0.029602	-0.515201	0.868155
H161	H	-0.088008	-0.486287	0.927998
H162	H	-0.137314	-0.425749	1.002784
H163	H	-0.069010	-0.394122	1.017728
H164	H	0.048600	-0.423036	0.957885
C165	C	0.262243	-0.578447	0.908480
C166	C	0.329820	-0.595044	0.874084
C167	C	0.374528	-0.634570	0.908433
C168	C	0.351659	-0.657499	0.977177
C169	C	0.284079	-0.640903	1.011577
C170	C	0.239371	-0.601377	0.977229
H171	H	0.346751	-0.578070	0.823191
H172	H	0.424555	-0.646855	0.882967
H173	H	0.384755	-0.686759	1.002604
H174	H	0.267148	-0.657877	1.062470
H175	H	0.189344	-0.589092	1.002694
C176	C	0.222781	-0.653646	0.431205
C177	C	0.271927	-0.714822	0.443242
C178	C	0.333083	-0.726876	0.394096
C179	C	0.345094	-0.677755	0.332913
C180	C	0.295947	-0.616575	0.320873
C181	C	0.234791	-0.604521	0.370019
H182	H	0.263037	-0.751188	0.488536
H183	H	0.369465	-0.772165	0.403009
H184	H	0.390365	-0.686678	0.296532
H185	H	0.304836	-0.580209	0.275580
H186	H	0.198409	-0.559232	0.361107
H187	H	0.288361	-0.530376	0.786177
H188	H	0.103135	-0.437780	0.733124
C189	C	0.693042	-0.493934	0.591318
C190	C	0.641506	-0.470631	0.642202
C191	C	0.641486	-0.421603	0.654425
C192	C	0.693003	-0.395880	0.615764
C193	C	0.744544	-0.419184	0.564877
C194	C	0.744563	-0.468211	0.552654
H195	H	0.603366	-0.489673	0.670824
H196	H	0.603332	-0.404353	0.692095
H197	H	0.692988	-0.359587	0.624812
H198	H	0.782683	-0.400141	0.536256
H199	H	0.782717	-0.485461	0.514984
C200	C	0.047771	-0.471258	0.699647
C201	C	0.003105	-0.431748	0.739190
C202	C	-0.064485	-0.415150	0.755817
C203	C	-0.087408	-0.438060	0.732901
C204	C	-0.042741	-0.477572	0.693356
C205	C	0.024849	-0.494170	0.676729
H206	H	0.020073	-0.414787	0.756156
H207	H	-0.097550	-0.385900	0.785091
H208	H	-0.137441	-0.425773	0.745209
H209	H	-0.059709	-0.494533	0.676390
H210	H	0.057914	-0.523420	0.647455
C211	C	0.100077	-0.776649	0.677112
C212	C	0.150908	-0.799300	0.700495
C213	C	0.163044	-0.860493	0.749589
C214	C	0.124347	-0.899036	0.775300
C215	C	0.073512	-0.876386	0.751917
C216	C	0.061376	-0.815192	0.702822
H217	H	0.179557	-0.770767	0.681462
H218	H	0.200675	-0.877260	0.766898
H219	H	0.133330	-0.944335	0.811642
H220	H	0.044863	-0.904918	0.770949
H221	H	0.023745	-0.798425	0.685513
C222	C	0.262075	-0.578391	0.592428
C223	C	0.329661	-0.594991	0.575805
C224	C	0.374329	-0.634501	0.536260
C225	C	0.351412	-0.657411	0.513338
C226	C	0.283822	-0.640811	0.529961
C227	C	0.239153	-0.601301	0.569506
H228	H	0.346629	-0.578032	0.592773
H229	H	0.424364	-0.646790	0.523955
H230	H	0.384478	-0.686659	0.484064
H231	H	0.266854	-0.657771	0.512992
H232	H	0.189119	-0.589012	0.581811
H233	H	0.288283	-0.530335	0.640482
H234	H	0.295144	-0.575796	0.721768
H235	H	0.408481	-0.430137	0.613993
H236	H	0.295112	-0.392340	0.651807
H237	H	0.241946	-0.384640	0.594232
H238	H	0.204115	-0.271255	0.556464
H239	H	0.111630	-0.271286	0.741644
H240	H	0.149444	-0.384673	0.779411
