data_functionalizedCrystal
_audit_creation_method	'MofGen! by Chris Wilmer'
_symmetry_space_group_name_H-M	'P1'
_symmetry_Int_Tables_number	1
_symmetry_cell_setting	triclinic
loop_
_symmetry_equiv_pos_as_xyz
  x,y,z
_cell_length_a	16.974800
_cell_length_b	14.044220
_cell_length_c	15.455301
_cell_angle_alpha	92.764001
_cell_angle_beta	89.350429
_cell_angle_gamma	88.279480
loop_
_atom_site_label
_atom_site_type_symbol
_atom_site_fract_x
_atom_site_fract_y
_atom_site_fract_z
O1	O	1.057565	0.120622	-0.002133
O2	O	1.557565	0.620622	0.497867
O3	O	0.829189	0.136846	0.013907
O4	O	1.329189	0.636846	0.513907
O5	O	0.939949	-0.009234	0.006119
O6	O	1.439949	0.490766	0.506119
O7	O	0.946805	0.266702	0.005655
O8	O	1.446805	0.766702	0.505655
O9	O	0.933259	-0.016611	-0.137674
O10	O	1.433259	0.483389	0.362326
O11	O	0.822499	0.129469	-0.129886
O12	O	1.322499	0.629469	0.370114
O13	O	1.050875	0.113245	-0.145926
O14	O	1.550875	0.613245	0.354074
Cu15	Cu	0.936076	0.120683	-0.151035
Cu16	Cu	1.436076	0.620683	0.348965
Cu17	Cu	0.943988	0.129408	0.019017
Cu18	Cu	1.443988	0.629408	0.519017
O19	O	0.940115	0.259325	-0.138138
O20	O	1.440115	0.759325	0.361862
C21	C	0.796441	0.132680	-0.055925
C22	C	1.296441	0.632680	0.444075
C23	C	0.708826	0.131246	-0.049771
C24	C	1.208826	0.631246	0.450229
C25	C	0.664023	0.126548	-0.125264
C26	C	1.164023	0.626548	0.374736
C27	C	0.581700	0.125186	-0.119485
C28	C	1.081700	0.625186	0.380515
C29	C	0.544182	0.128527	-0.038212
C30	C	1.044182	0.628527	0.461788
C31	C	0.588992	0.133222	0.037286
C32	C	1.088992	0.633222	0.537286
C33	C	0.671313	0.134578	0.031506
C34	C	1.171313	0.634578	0.531506
C35	C	0.298369	0.124897	-0.012521
C36	C	0.798369	0.624897	0.487479
C37	C	0.216042	0.123543	-0.006747
C38	C	0.716042	0.623543	0.493253
C39	C	0.208756	0.115505	-0.163519
C40	C	0.708756	0.615505	0.336481
C41	C	0.291079	0.116867	-0.169292
C42	C	0.791079	0.616867	0.330708
C43	C	0.335881	0.121557	-0.093793
C44	C	0.835881	0.621557	0.406207
N45	N	0.460035	0.127137	-0.032303
N46	N	0.960035	0.627137	0.467697
N47	N	0.420027	0.122940	-0.099703
N48	N	0.920027	0.622940	0.400297
C49	C	0.933603	-0.048222	-0.065567
C50	C	1.433603	0.451778	0.434433
C51	C	0.924651	-0.153403	-0.064939
C52	C	1.424651	0.346597	0.435061
C53	C	0.908286	-0.345983	-0.063777
C54	C	1.408286	0.154017	0.436223
C55	C	0.971775	-0.403931	-0.068234
C56	C	1.471775	0.096069	0.431766
C57	C	0.962669	-0.511089	-0.067587
C58	C	1.462669	-0.011089	0.432413
C59	C	0.917391	-0.238815	-0.064424
C60	C	1.417391	0.261185	0.435576
C61	C	1.083624	0.117411	-0.076092
C62	C	1.583624	0.617411	0.423908
C63	C	1.171238	0.118846	-0.082240
C64	C	1.671238	0.618846	0.417760
C65	C	0.946462	0.298313	-0.066450
C66	C	1.446462	0.798313	0.433550
C67	C	0.955413	0.403495	-0.067072
C68	C	1.455413	0.903495	0.432928
N69	N	0.930517	0.114547	-0.270641
N70	N	1.430517	0.614547	0.229359
C71	C	0.980252	0.169493	-0.319521
C72	C	1.480252	0.669493	0.180479
C73	C	0.976058	0.164846	-0.410035
C74	C	1.476058	0.664846	0.089965
C75	C	0.922125	0.105257	-0.451667
C76	C	1.422125	0.605257	0.048333
C77	C	0.872389	0.050304	-0.402781
C78	C	1.372389	0.550304	0.097219
C79	C	0.876587	0.054946	-0.312269
C80	C	1.376587	0.554946	0.187731
C81	C	0.904015	0.085227	-0.721979
C82	C	1.404015	0.585227	-0.221979
C83	C	0.899818	0.080590	-0.812498
C84	C	1.399818	0.580590	-0.312498
C85	C	1.003489	0.195132	-0.819746
C86	C	1.503489	0.695132	-0.319746
C87	C	1.007679	0.199774	-0.729232
C88	C	1.507679	0.699774	-0.229232
C89	C	0.957945	0.144817	-0.680353
C90	C	1.457945	0.644817	-0.180353
N91	N	0.917835	0.100508	-0.544187
N92	N	1.417835	0.600508	-0.044187
N93	N	0.962240	0.149561	-0.587836
N94	N	1.462240	0.649561	-0.087836
N95	N	0.949553	0.135537	0.138622
N96	N	1.449553	0.635537	0.638622
H97	H	0.707792	0.138405	0.092981
H98	H	1.207792	0.638405	0.592981
H99	H	1.032970	-0.373062	-0.072473
H100	H	1.532970	0.126938	0.427527
N101	N	0.827233	-0.386859	-0.058083
N102	N	1.327233	0.113141	0.441917
H103	H	0.832137	-0.458725	-0.058426
H104	H	1.332137	0.041275	0.441574
H105	H	0.795196	-0.367295	-0.109318
H106	H	1.295196	0.132705	0.390682
H107	H	1.024165	0.218023	-0.285631
H108	H	1.524165	0.718023	0.214369
N109	N	0.175573	0.127155	0.080916
N110	N	0.675573	0.627155	0.580916
H111	H	0.216446	0.130332	0.127867
H112	H	0.716446	0.630332	0.627867
H113	H	0.143834	0.068037	0.086563
H114	H	0.643834	0.568037	0.586563
H115	H	1.016558	0.209588	-0.449830
H116	H	1.516558	0.709588	0.050170
N117	N	0.841645	0.016325	-0.857415
N118	N	1.341645	0.516325	-0.357415
H119	H	0.786352	0.036068	-0.837736
H120	H	1.286352	0.536068	-0.337736
H121	H	0.853140	-0.051860	-0.842418
H122	H	1.353140	0.448140	-0.342418
H123	H	1.051598	0.248295	-0.695342
H124	H	1.551598	0.748295	-0.195342
H125	H	1.043979	0.239874	-0.859552
H126	H	1.543979	0.739874	-0.359552
N127	N	0.850376	0.025954	-0.669267
N128	N	1.350376	0.525954	-0.169267
H129	H	0.815573	-0.012495	-0.709378
H130	H	1.315573	0.487505	-0.209378
H131	H	0.816496	0.069355	-0.629212
H132	H	1.316496	0.569355	-0.129212
N133	N	0.814213	-0.013966	-0.447675
N134	N	1.314213	0.486034	0.052325
H135	H	0.825645	-0.082168	-0.432680
H136	H	1.325645	0.417832	0.067320
H137	H	0.819122	-0.008490	-0.512418
H138	H	1.319122	0.491510	-0.012418
N139	N	0.822950	-0.004322	-0.259544
N140	N	1.322950	0.495678	0.240456
H141	H	0.788146	-0.042776	-0.299651
H142	H	1.288146	0.457224	0.200349
H143	H	0.789070	0.039080	-0.219489
H144	H	1.289070	0.539080	0.280511
H145	H	0.334838	0.128712	0.048955
H146	H	0.834838	0.628712	0.548955
N147	N	0.548522	0.136828	0.124942
N148	N	1.048522	0.636828	0.624942
H149	H	0.562180	0.197554	0.158368
H150	H	1.062180	0.697554	0.658368
H151	H	0.566718	0.080045	0.157973
H152	H	1.066718	0.580045	0.657973
N153	N	0.704483	0.122939	-0.212925
N154	N	1.204483	0.622939	0.287075
H155	H	0.763432	0.124513	-0.205135
H156	H	1.263432	0.624513	0.294865
H157	H	0.686236	0.179680	-0.245982
H158	H	1.186236	0.679680	0.254018
N159	N	0.533373	0.120116	-0.200908
N160	N	1.033373	0.620116	0.299092
H161	H	0.569653	0.117537	-0.253272
H162	H	1.069653	0.617537	0.246728
H163	H	0.497185	0.178438	-0.202051
H164	H	0.997185	0.678438	0.297949
H165	H	0.172269	0.111685	-0.224985
H166	H	0.672269	0.611685	0.275015
N167	N	0.331542	0.113273	-0.256950
N168	N	0.831542	0.613273	0.243050
H169	H	0.290667	0.110093	-0.303899
H170	H	0.790667	0.610093	0.196101
H171	H	0.367806	0.054929	-0.262931
H172	H	0.867806	0.554929	0.237069
