data_functionalizedCrystal
_audit_creation_method	'MofGen! by Chris Wilmer'
_symmetry_space_group_name_H-M	'P1'
_symmetry_Int_Tables_number	1
_symmetry_cell_setting	triclinic
loop_
_symmetry_equiv_pos_as_xyz
  x,y,z
_cell_length_a	13.635800
_cell_length_b	19.453121
_cell_length_c	11.102315
_cell_angle_alpha	77.986647
_cell_angle_beta	71.393725
_cell_angle_gamma	78.290314
loop_
_atom_site_label
_atom_site_type_symbol
_atom_site_fract_x
_atom_site_fract_y
_atom_site_fract_z
V1	V	1.982107	0.097186	-0.396858
O2	O	2.038823	-0.004666	-0.388686
O3	O	1.898099	0.192699	-0.394737
O4	O	1.971631	0.095692	-0.569670
O5	O	1.964782	0.093012	-0.212542
V6	V	2.229892	0.085003	-0.374740
O7	O	2.099522	0.123910	-0.445375
O8	O	2.337575	0.058279	-0.326223
O9	O	2.202296	-0.010511	-0.376861
O10	O	2.231874	0.186855	-0.382911
O11	O	2.305915	0.089177	-0.559056
O12	O	2.128764	0.086496	-0.201927
V13	V	2.482107	0.097186	-0.396858
O14	O	2.538823	-0.004666	-0.388686
O15	O	2.398099	0.192699	-0.394737
O16	O	2.471631	0.095692	-0.569670
O17	O	2.464782	0.093012	-0.212542
V18	V	2.729892	0.085003	-0.374740
O19	O	2.599522	0.123910	-0.445375
O20	O	2.837575	0.058279	-0.326223
O21	O	2.702296	-0.010511	-0.376861
O22	O	2.731874	0.186855	-0.382911
O23	O	2.805915	0.089177	-0.559056
O24	O	2.628764	0.086496	-0.201927
C25	C	2.126457	-0.033791	-0.382965
C26	C	2.144028	-0.111874	-0.383555
C27	C	2.357459	-0.672836	-0.381391
C28	C	2.340961	-0.599469	-0.380845
C29	C	2.244648	-0.559202	-0.386931
C30	C	2.164836	-0.592306	-0.393595
C31	C	2.181340	-0.665672	-0.394154
N32	N	2.133074	-0.447614	-0.318080
N33	N	2.117402	-0.377920	-0.317547
C34	C	2.194918	-0.338156	-0.385251
N35	N	2.288710	-0.370720	-0.453493
N36	N	2.304385	-0.440421	-0.454021
C37	C	2.226743	-0.479649	-0.386327
C38	C	2.256840	-0.225506	-0.378005
C39	C	2.240340	-0.152136	-0.377467
C40	C	2.064209	-0.144976	-0.390205
C41	C	2.080715	-0.218344	-0.390755
C42	C	2.177030	-0.258605	-0.384648
C43	C	1.805606	0.215984	-0.388629
C44	C	1.777655	0.294067	-0.388047
C45	C	1.742049	0.320708	-0.271316
C46	C	1.715797	0.394075	-0.270752
C47	C	1.725145	0.440799	-0.386919
C48	C	1.760758	0.414155	-0.503660
C49	C	1.787016	0.340789	-0.504223
C50	C	1.899403	0.092241	-0.611773
C51	C	1.931084	0.091652	-0.753052
C52	C	2.305606	0.215984	-0.388629
C53	C	2.277655	0.294067	-0.388047
C54	C	2.109791	0.098671	-0.766065
C55	C	2.214023	0.101906	-0.838943
C56	C	2.243784	0.101352	-0.971686
C57	C	2.169305	0.097560	-1.031552
C58	C	2.065073	0.094325	-0.958674
C59	C	2.035320	0.094882	-0.825929
C60	C	1.886369	0.087300	-0.945659
C61	C	1.856605	0.087860	-0.812918
C62	C	1.811890	0.083509	-1.005525
C63	C	1.707654	0.080278	-0.932648
C64	C	1.677895	0.080834	-0.799897
C65	C	1.752373	0.084625	-0.740039
C66	C	2.032661	0.089950	-0.159818
C67	C	1.990602	0.090536	-0.018538
C68	C	2.399403	0.092241	-0.611773
C69	C	2.431084	0.091652	-0.753052
C70	C	2.626457	-0.033791	-0.382965
C71	C	2.644028	-0.111874	-0.383555
C72	C	2.532661	0.089950	-0.159818
C73	C	2.490602	0.090536	-0.018538
C74	C	2.740345	-0.152124	-0.377460
C75	C	2.756862	-0.225494	-0.377993
C76	C	2.677063	-0.258611	-0.384631
C77	C	2.580737	-0.218356	-0.390723
C78	C	2.564219	-0.144989	-0.390180
C79	C	2.393737	0.220303	-0.790173
C80	C	2.389945	0.284348	-0.875104
C81	C	2.419715	0.283791	-1.007846
C82	C	2.453282	0.219181	-1.055659
C83	C	2.457074	0.155135	-0.970728
C84	C	2.427299	0.155699	-0.837984
C85	C	2.494428	0.026486	-0.933608
C86	C	2.464651	0.027042	-0.800864
C87	C	2.527995	-0.038124	-0.981420
C88	C	2.531780	-0.102172	-0.896488
C89	C	2.502007	-0.101612	-0.763738
C90	C	2.468443	-0.037004	-0.715933
H91	H	2.435887	-0.705612	-0.376427
C92	C	1.731781	0.269324	-0.143524
H93	H	1.706830	0.295708	-0.073933
H94	H	1.683966	0.237993	-0.134798
H95	H	1.798232	0.242581	-0.142991
H96	H	2.690527	-0.318352	-0.385072
H97	H	1.703760	0.500537	-0.386442
H98	H	1.686798	0.415757	-0.175684
C99	C	1.844622	0.082892	-1.151536
H100	H	1.785340	0.080164	-1.176747
H101	H	1.872405	0.125213	-1.195844
H102	H	1.896303	0.042907	-1.172092
C103	C	2.458272	-0.100719	-0.396907
H104	H	2.413124	-0.130954	-0.400952
H105	H	2.427546	-0.078362	-0.322471
H106	H	2.468783	-0.065538	-0.471472
H107	H	1.768366	0.452209	-0.598240
C108	C	2.428741	-0.563051	-0.373512
H109	H	2.405117	-0.513591	-0.374060
H110	H	2.447014	-0.582967	-0.296486
H111	H	2.488244	-0.570121	-0.445488
H112	H	2.559118	-0.154772	-0.935429
C113	C	1.826166	0.311492	-0.632634
H114	H	1.827958	0.349831	-0.701729
H115	H	1.894471	0.285573	-0.641787
H116	H	1.780202	0.281009	-0.633618
H117	H	2.085564	0.099132	-0.657982
C118	C	1.625741	0.076109	-0.998501
H119	H	1.658394	0.076243	-1.087995
H120	H	1.596092	0.033609	-0.962203
H121	H	1.572206	0.115915	-0.985952
C122	C	2.295941	0.106080	-0.773090
H123	H	2.263291	0.105954	-0.683597
H124	H	2.349484	0.066284	-0.785650
H125	H	2.325576	0.148589	-0.809389
H126	H	2.552241	-0.038573	-1.089508
H127	H	2.328658	0.103985	-1.031024
H128	H	1.593025	0.078183	-0.740562
H129	H	2.193548	0.097100	-1.139637
H130	H	1.728150	0.085081	-0.631955
C131	C	2.486035	0.218569	-1.201672
H132	H	2.478967	0.265965	-1.245406
H133	H	2.556825	0.196930	-1.228998
H134	H	2.442500	0.192442	-1.220696
C135	C	2.828130	-0.115710	-0.370146
H136	H	2.887849	-0.150199	-0.366578
H137	H	2.845969	-0.080820	-0.444161
H138	H	2.804735	-0.093659	-0.295160
H139	H	2.116351	-0.692618	-0.399575
C140	C	2.862825	-0.269760	-0.371305
H141	H	2.907984	-0.239523	-0.367297
H142	H	2.852338	-0.304946	-0.296756
H143	H	2.893535	-0.292110	-0.445759
H144	H	2.416628	0.335943	-1.076999
C145	C	2.492974	-0.254791	-0.398041
H146	H	2.516622	-0.304248	-0.397508
H147	H	2.433467	-0.247725	-0.326080
H148	H	2.474705	-0.234883	-0.475080
C149	C	2.360994	0.220919	-0.644161
H150	H	2.340469	0.268569	-0.627850
H151	H	2.304002	0.195039	-0.603115
H152	H	2.418329	0.199539	-0.611442
H153	H	2.362615	0.336953	-0.836160
C154	C	2.506179	-0.172064	-0.670323
H155	H	2.530427	-0.210618	-0.717815
H156	H	2.552497	-0.172274	-0.621916
H157	H	2.438175	-0.176768	-0.613620
H158	H	2.335265	-0.258288	-0.373031
C159	C	2.058892	-0.548017	-0.400280
H160	H	2.060488	-0.499584	-0.398979
H161	H	2.046017	-0.552146	-0.477483
H162	H	2.004808	-0.564994	-0.328481
H163	H	2.305333	-0.125190	-0.372055
H164	H	1.985792	-0.112191	-0.395167
H165	H	2.444193	-0.036542	-0.607849
H166	H	2.015727	-0.245291	-0.396167
