data_functionalizedCrystal
_audit_creation_method	'MofGen! by Chris Wilmer'
_symmetry_space_group_name_H-M	'P1'
_symmetry_Int_Tables_number	1
_symmetry_cell_setting	triclinic
loop_
_symmetry_equiv_pos_as_xyz
  x,y,z
_cell_length_a	14.908571
_cell_length_b	12.594516
_cell_length_c	14.908308
_cell_angle_alpha	86.729931
_cell_angle_beta	89.824947
_cell_angle_gamma	86.708170
loop_
_atom_site_label
_atom_site_type_symbol
_atom_site_fract_x
_atom_site_fract_y
_atom_site_fract_z
Zn1	Zn	1.345365	-0.555462	0.587606
Zn2	Zn	1.353966	-0.723818	0.437253
Zn3	Zn	1.203678	-0.535018	0.428603
Zn4	Zn	1.194994	-0.722554	0.578905
O5	O	1.274501	-0.634213	0.508092
O6	O	1.472333	-0.586880	0.574923
O7	O	1.341264	-0.690747	0.310281
O8	O	1.222507	-0.388788	0.449716
O9	O	1.478652	-0.710570	0.464460
O10	O	1.326604	-0.403808	0.566535
O11	O	1.230848	-0.552036	0.303925
O12	O	1.076699	-0.550810	0.441279
O13	O	1.207707	-0.708415	0.705884
O14	O	1.070319	-0.688591	0.551705
O15	O	1.318184	-0.585654	0.712277
O16	O	1.332844	-0.872592	0.456023
O17	O	1.216047	-0.871663	0.560094
C18	C	1.040883	-0.617346	0.494610
C19	C	0.940939	-0.610157	0.488864
C20	C	0.746548	-0.740322	0.592898
C21	C	0.652641	-0.733570	0.587502
C22	C	0.659218	-0.589899	0.472681
C23	C	0.753124	-0.596650	0.478077
C24	C	0.796786	-0.671865	0.538187
C25	C	0.890694	-0.678620	0.543577
C26	C	0.897269	-0.534945	0.428761
C27	C	0.803362	-0.528194	0.423365
C28	C	1.274460	-0.910750	0.508074
C29	C	1.274523	-1.029061	0.508101
C30	C	1.338115	-1.098790	0.451565
C31	C	1.355349	-1.176338	0.534898
C32	C	1.257398	-1.162324	0.424826
C33	C	1.291797	-1.105056	0.591480
C34	C	1.193811	-1.091030	0.481350
C35	C	1.211011	-1.168547	0.564738
C36	C	1.509030	-0.651147	0.521627
C37	C	1.608973	-0.658363	0.527395
C38	C	1.261017	-0.649174	0.742618
C39	C	1.255272	-0.655549	0.842559
C40	C	1.274565	-0.356599	0.508131
C41	C	1.274592	-0.238297	0.508148
C42	C	1.287983	-0.619237	0.274481
C43	C	1.293903	-0.612574	0.174551
C44	C	1.359512	-0.539673	1.037016
C45	C	1.354116	-0.545660	1.130920
C46	C	1.239080	-0.673504	1.124271
C47	C	1.244476	-0.667517	1.030367
C48	C	1.304695	-0.600600	0.986744
C49	C	1.310095	-0.594620	0.892838
C50	C	1.195055	-0.722457	0.886191
C51	C	1.189659	-0.728444	0.980095
H52	H	0.767800	-0.466954	0.374428
O53	O	0.616937	-0.516747	0.414277
C54	C	0.633360	-0.374996	0.300922
C55	C	0.681356	-0.457775	0.367039
H56	H	0.685422	-0.327310	0.262699
H57	H	0.587061	-0.318822	0.339720
H58	H	0.592057	-0.417631	0.251354
H59	H	0.722707	-0.415230	0.416623
H60	H	0.727602	-0.513944	0.328182
H61	H	0.938183	-0.479205	0.384209
H62	H	1.242885	-1.187707	0.354382
O63	O	1.131243	-0.793424	1.022618
C64	C	1.071905	-0.859255	1.164332
C65	C	1.138115	-0.785638	1.116293
H66	H	1.077426	-0.852969	1.240075
H67	H	1.088741	-0.945069	1.146840
H68	H	1.000479	-0.834169	1.141633
H69	H	1.209564	-0.810628	1.138966
H70	H	1.121202	-0.699841	1.133785
O71	O	1.141928	-0.781702	0.837267
C72	C	1.135896	-0.917829	0.730587
C73	C	1.196161	-0.850785	0.785924
H74	H	1.179718	-0.973715	0.689076
H75	H	1.091431	-0.862829	0.683854
H76	H	1.091913	-0.966629	0.777920
H77	H	1.240199	-0.801978	0.738659
H78	H	1.240566	-0.905842	0.832666
O79	O	0.932966	-0.751707	0.602044
C80	C	0.916528	-0.893530	0.715331
C81	C	0.868545	-0.810794	0.649167
H82	H	0.864467	-0.941339	0.753434
H83	H	0.957771	-0.850961	0.764998
H84	H	0.962884	-0.949592	0.676489
H85	H	0.822145	-0.754708	0.687934
H86	H	0.827360	-0.853433	0.599501
H87	H	1.157260	-1.198998	0.612628
H88	H	1.306238	-1.079804	0.661979
O89	O	1.368465	-0.529547	0.850355
C90	C	1.386664	-0.379909	0.745098
C91	C	1.320465	-0.453549	0.793127
H92	H	1.347880	-0.318433	0.698833
H93	H	1.436192	-0.429291	0.703778
H94	H	1.424930	-0.337441	0.797184
H95	H	1.282137	-0.496034	0.741103
H96	H	1.270995	-0.404112	0.834464
H97	H	1.125547	-1.053774	0.458676
H98	H	0.782098	-0.801570	0.641837
H99	H	1.391897	-1.068153	0.403800
O100	O	1.418029	-0.474590	0.994776
C101	C	1.531608	-0.348479	1.011280
C102	C	1.465361	-0.422123	1.059229
H103	H	1.569907	-0.306057	1.063370
H104	H	1.492907	-0.286975	0.964969
H105	H	1.581099	-0.397953	0.969996
H106	H	1.415854	-0.372737	1.100561
H107	H	1.504120	-0.483630	1.105487
H108	H	0.611741	-0.789313	0.632056
O109	O	1.436873	-1.220710	0.561777
C110	C	1.596035	-1.235453	0.532601
C111	C	1.503762	-1.185153	0.502057
H112	H	1.650142	-1.206707	0.484343
H113	H	1.595131	-1.325927	0.532955
H114	H	1.611147	-1.210905	0.603167
H115	H	1.488591	-1.209619	0.431483
H116	H	1.504712	-1.094688	0.501768
O117	O	1.407235	-0.486355	1.179787
C118	C	1.413264	-0.350327	1.286557
C119	C	1.353001	-0.417408	1.231251
H120	H	1.369440	-0.294583	1.328194
H121	H	1.457208	-0.301398	1.239282
H122	H	1.457767	-0.405405	1.333189
H123	H	1.308443	-0.362408	1.184615
H124	H	1.309117	-0.466348	1.278578
O125	O	1.180652	-0.738464	1.166799
C126	C	1.121292	-0.804245	1.308518
C127	C	1.187523	-0.730662	1.260471
H128	H	1.126811	-0.797946	1.384259
H129	H	1.138107	-0.890068	1.291039
H130	H	1.049871	-0.779139	1.285812
H131	H	1.258966	-0.755672	1.283151
H132	H	1.170630	-0.644857	1.277950
