data_functionalizedCrystal
_audit_creation_method	'MofGen! by Chris Wilmer'
_symmetry_space_group_name_H-M	'P1'
_symmetry_Int_Tables_number	1
_symmetry_cell_setting	triclinic
loop_
_symmetry_equiv_pos_as_xyz
  x,y,z
_cell_length_a	19.077105
_cell_length_b	12.827892
_cell_length_c	19.076919
_cell_angle_alpha	92.275535
_cell_angle_beta	90.076224
_cell_angle_gamma	87.711903
loop_
_atom_site_label
_atom_site_type_symbol
_atom_site_fract_x
_atom_site_fract_y
_atom_site_fract_z
Zn1	Zn	1.058323	-0.505562	-0.440440
Zn2	Zn	1.062981	-0.673587	-0.322941
Zn3	Zn	0.945540	-0.491563	-0.318233
Zn4	Zn	0.940802	-0.672957	-0.435693
O5	O	1.001912	-0.585917	-0.379327
O6	O	1.157274	-0.533973	-0.428810
O7	O	1.051334	-0.643846	-0.223985
O8	O	0.960534	-0.347187	-0.334460
O9	O	1.160695	-0.657421	-0.342484
O10	O	1.043396	-0.357472	-0.424245
O11	O	0.965050	-0.510114	-0.220526
O12	O	0.846579	-0.509503	-0.329857
O13	O	0.952460	-0.656347	-0.534655
O14	O	0.843098	-0.642772	-0.416155
O15	O	1.038802	-0.533362	-0.538142
O16	O	1.046740	-0.819737	-0.337881
O17	O	0.956976	-0.819274	-0.420720
C18	C	0.819342	-0.574551	-0.371981
C19	C	0.741237	-0.569714	-0.368855
C20	C	1.001868	-0.857424	-0.379313
C21	C	1.001913	-0.973581	-0.379333
C22	C	0.702753	-0.636925	-0.412246
C23	C	0.629365	-0.632367	-0.409312
C24	C	0.594463	-0.560602	-0.362983
C25	C	0.632953	-0.493385	-0.319590
C26	C	0.706339	-0.497938	-0.322528
C27	C	0.375174	-0.539528	-0.349389
C28	C	0.301782	-0.534981	-0.346453
C29	C	0.298199	-0.673963	-0.436177
C30	C	0.371587	-0.678514	-0.439108
C31	C	0.410071	-0.611293	-0.395717
N32	N	0.519449	-0.555944	-0.359982
N33	N	0.485083	-0.615947	-0.398723
C34	C	1.046380	-1.025566	-0.338391
C35	C	1.046427	-1.145620	-0.338411
C36	C	1.185194	-0.597329	-0.386702
C37	C	1.263298	-0.602192	-0.389845
C38	C	0.994583	-0.596346	-0.562607
C39	C	0.991460	-0.600790	-0.640711
C40	C	1.001974	-0.313353	-0.379357
C41	C	1.002000	-0.197202	-0.379370
C42	C	1.034945	-0.538849	-0.679221
C43	C	1.032002	-0.543020	-0.752607
C44	C	0.985578	-0.609138	-0.787481
C45	C	0.942089	-0.671081	-0.748966
C46	C	0.945028	-0.666904	-0.675581
C47	C	0.971962	-0.628492	-1.006763
C48	C	0.969027	-0.632667	-1.080153
C49	C	1.058939	-0.504604	-1.083789
C50	C	1.061878	-0.500438	-1.010402
C51	C	1.018386	-0.562376	-0.971894
N52	N	0.982570	-0.613406	-0.862494
N53	N	1.021391	-0.558103	-0.896882
C54	C	1.009252	-0.575456	-0.196761
C55	C	1.012511	-0.570727	-0.118663
H56	H	0.731165	-0.695367	-0.449970
C57	C	0.748676	-0.424009	-0.274799
H58	H	0.797380	-0.436991	-0.283189
H59	H	0.738527	-0.435754	-0.227086
H60	H	0.736244	-0.353661	-0.284689
C61	C	0.263389	-0.456047	-0.295484
H62	H	0.214171	-0.462977	-0.299943
H63	H	0.275004	-0.387188	-0.306324
H64	H	0.277297	-0.469303	-0.248735
C65	C	0.950567	-1.136829	-0.426728
H66	H	0.922698	-1.184765	-0.452425
H67	H	0.976207	-1.097608	-0.458414
H68	H	0.921054	-1.090873	-0.398557
C69	C	1.086008	-0.466114	-0.640864
H70	H	1.111478	-0.429813	-0.674312
H71	H	1.117765	-0.506357	-0.613464
H72	H	1.060277	-0.417276	-0.611162
C73	C	0.924129	-0.696628	-0.964410
H74	H	0.932520	-0.684667	-0.915709
H75	H	0.933916	-0.768164	-0.976843
H76	H	0.876436	-0.679073	-0.974538
H77	H	1.084418	-0.981195	-0.303327
H78	H	1.084495	-1.190325	-0.303357
H79	H	1.094347	-0.454176	-1.115150
H80	H	0.909612	-0.717331	-0.644227
H81	H	0.931220	-0.686511	-1.108546
H82	H	0.399999	-0.736955	-0.476832
H83	H	0.963881	-1.017954	-0.414402
H84	H	1.067413	-0.492584	-0.783958
H85	H	0.266859	-0.728689	-0.471504
H86	H	1.099683	-0.446600	-0.982013
C87	C	0.891024	-0.743810	-0.787327
H88	H	0.895505	-0.737436	-0.836548
H89	H	0.844296	-0.724895	-0.773400
H90	H	0.901779	-0.813981	-0.775704
H91	H	0.598034	-0.687098	-0.444645
H92	H	0.406498	-0.484799	-0.314053
H93	H	0.604530	-0.434948	-0.281871
