data_functionalizedCrystal
_audit_creation_method	'MofGen! by Chris Wilmer'
_symmetry_space_group_name_H-M	'P1'
_symmetry_Int_Tables_number	1
_symmetry_cell_setting	triclinic
loop_
_symmetry_equiv_pos_as_xyz
  x,y,z
_cell_length_a	17.699097
_cell_length_b	15.995292
_cell_length_c	16.176319
_cell_angle_alpha	89.996390
_cell_angle_beta	89.988988
_cell_angle_gamma	83.378524
loop_
_atom_site_label
_atom_site_type_symbol
_atom_site_fract_x
_atom_site_fract_y
_atom_site_fract_z
O1	O	1.004229	0.105941	-0.068809
O2	O	1.504229	0.605941	0.431191
O3	O	0.783872	0.119706	-0.068795
O4	O	1.283872	0.619706	0.431205
O5	O	0.900097	-0.009079	-0.068804
O6	O	1.400097	0.490921	0.431196
O7	O	0.888004	0.234726	-0.068801
O8	O	1.388004	0.734726	0.431199
O9	O	0.900081	-0.009088	0.068689
O10	O	1.400081	0.490912	0.568689
O11	O	0.783856	0.119698	0.068698
O12	O	1.283856	0.619698	0.568698
O13	O	1.004213	0.105933	0.068684
O14	O	1.504213	0.605933	0.568684
Cu15	Cu	0.894033	0.112815	0.081245
Cu16	Cu	1.394033	0.612815	0.581245
Cu17	Cu	0.894052	0.112824	-0.081357
Cu18	Cu	1.394052	0.612824	0.418643
O19	O	0.887988	0.234718	0.068693
O20	O	1.387988	0.734718	0.568693
C21	C	0.755666	0.119207	-0.000047
C22	C	1.255666	0.619207	0.499953
C23	C	0.671647	0.117721	-0.000042
C24	C	1.171647	0.617721	0.499958
C25	C	0.155924	0.108621	-0.075023
C26	C	0.655924	0.608621	0.424977
C27	C	0.234870	0.110011	-0.075019
C28	C	0.734870	0.610011	0.424981
C29	C	0.274328	0.110703	-0.000068
C30	C	0.774328	0.610703	0.499932
C31	C	0.234837	0.109997	0.074884
C32	C	0.734837	0.609997	0.574884
C33	C	0.155893	0.108601	0.074879
C34	C	0.655893	0.608601	0.574879
C35	C	0.553209	0.115625	0.074906
C36	C	1.053209	0.615625	0.574906
C37	C	0.632159	0.117023	0.074905
C38	C	1.132159	0.617023	0.574905
C39	C	0.632186	0.117035	-0.074992
C40	C	1.132186	0.617035	0.425008
C41	C	0.553242	0.115640	-0.074997
C42	C	1.053242	0.615640	0.425003
C43	C	0.513759	0.114929	-0.000046
C44	C	1.013759	0.614929	0.499954
C45	C	0.428156	0.113420	-0.000051
C46	C	0.928156	0.613420	0.499949
C47	C	0.359928	0.112218	-0.000061
C48	C	0.859928	0.612218	0.499939
C49	C	0.899597	-0.040278	-0.000059
C50	C	1.399597	0.459722	0.499941
C51	C	0.898121	-0.133228	-0.000066
C52	C	1.398121	0.366772	0.499934
C53	C	0.892696	-0.470956	-0.000058
C54	C	1.392696	0.029044	0.499942
C55	C	0.976584	-0.447810	0.000244
C56	C	1.476584	0.052190	0.500244
C57	C	0.978179	-0.351137	-0.000069
C58	C	1.478179	0.148863	0.499931
C59	C	0.895388	-0.303405	-0.000061
C60	C	1.395388	0.196595	0.499939
C61	C	0.853457	-0.332419	-0.078571
C62	C	1.353457	0.167581	0.421429
C63	C	0.852447	-0.429207	-0.078634
C64	C	1.352447	0.070793	0.421366
C65	C	0.850716	-0.429070	0.077722
C66	C	1.350716	0.070930	0.577722
C67	C	0.853825	-0.332584	0.078756
C68	C	1.353825	0.167416	0.578756
C69	C	0.896905	-0.208712	-0.000066
C70	C	1.396905	0.291288	0.499934
C71	C	0.891177	-0.565649	-0.000058
C72	C	1.391177	-0.065649	0.499942
C73	C	1.032418	0.106432	-0.000066
C74	C	1.532418	0.606432	0.499934
C75	C	1.116438	0.107917	-0.000077
C76	C	1.616438	0.607917	0.499923
C77	C	0.888488	0.265917	-0.000054
C78	C	1.388488	0.765917	0.499946
C79	C	0.889963	0.358867	-0.000053
C80	C	1.389963	0.858867	0.499947
N81	N	0.894025	0.112807	0.195610
N82	N	1.394025	0.612807	0.695610
N83	N	0.894065	0.112825	-0.195722
N84	N	1.394065	0.612825	0.304278
C85	C	0.945505	0.055804	0.238871
C86	C	1.445505	0.555804	0.738871
C87	C	0.945509	0.055803	0.325418
C88	C	1.445509	0.555803	0.825418
C89	C	0.894036	0.112810	0.368703
C90	C	1.394036	0.612810	0.868703
C91	C	0.842550	0.169816	0.325437
C92	C	1.342550	0.669816	0.825437
C93	C	0.842543	0.169812	0.238891
C94	C	1.342543	0.669812	0.738891
C95	C	0.842576	0.169831	0.674465
C96	C	1.342576	0.669831	1.174465
C97	C	0.842589	0.169832	0.761016
C98	C	1.342589	0.669832	1.261016
C99	C	0.945542	0.055823	0.760991
C100	C	1.445542	0.555823	1.260991
C101	C	0.945535	0.055819	0.674446
C102	C	1.445535	0.555819	1.174446
C103	C	0.894047	0.112821	0.631187
C104	C	1.394047	0.612821	1.131187
C105	C	0.894042	0.112821	0.537343
C106	C	1.394042	0.612821	1.037343
C107	C	0.894043	0.112816	0.462545
C108	C	1.394043	0.612816	0.962545
H109	H	0.664283	0.117586	0.135943
H110	H	1.164283	0.617586	0.635943
N111	N	0.885514	-0.466559	0.156553
N112	N	1.385514	0.033441	0.656553
H113	H	0.845681	-0.492819	0.189176
H114	H	1.345681	0.007181	0.689176
H115	H	0.928854	-0.511050	0.142576
H116	H	1.428854	-0.011050	0.642576
H117	H	0.664344	0.117611	-0.136021
H118	H	1.164344	0.617611	0.363979
H119	H	0.521073	0.115034	0.135936
H120	H	1.021073	0.615034	0.635936
N121	N	0.770980	-0.448329	-0.083358
N122	N	1.270980	0.051671	0.416642
H123	H	0.735882	-0.393904	-0.085394
H124	H	1.235882	0.106096	0.414606
H125	H	0.763820	-0.482282	-0.134822
H126	H	1.263820	0.017718	0.365178
H127	H	0.884357	-0.314082	0.136837
H128	H	1.384357	0.185918	0.636837
H129	H	0.266971	0.110555	0.135910
H130	H	0.766971	0.610555	0.635910
N131	N	0.113304	0.107836	0.155714
N132	N	0.613304	0.607836	0.655714
H133	H	0.150347	0.107899	0.203194
H134	H	0.650347	0.607899	0.703194
H135	H	0.074763	0.159440	0.159233
H136	H	0.574763	0.659440	0.659233
H137	H	0.881500	-0.456077	-0.137327
H138	H	1.381500	0.043923	0.362673
H139	H	0.793395	-0.299495	0.083504
H140	H	1.293395	0.200505	0.583504
H141	H	0.800655	0.216246	0.639250
H142	H	1.300655	0.716246	1.139250
H143	H	0.987463	0.009406	0.796222
H144	H	1.487463	0.509406	1.296222
N145	N	0.787036	0.231301	0.372126
N146	N	1.287036	0.731301	0.872126
H147	H	0.795736	0.290717	0.357053
H148	H	1.295736	0.790717	0.857053
H149	H	0.733347	0.221655	0.357068
H150	H	1.233347	0.721655	0.857068
H151	H	0.987423	0.009386	0.203634
H152	H	1.487423	0.509386	0.703634
N153	N	0.510681	0.114890	-0.155834
N154	N	1.010681	0.614890	0.344166
H155	H	0.518280	0.167018	-0.188604
H156	H	1.018280	0.667018	0.311396
H157	H	0.530593	0.063213	-0.188532
H158	H	1.030593	0.563213	0.311468
H159	H	1.011018	-0.332181	0.056209
H160	H	1.511018	0.167819	0.556209
N161	N	1.019412	-0.484975	0.074825
N162	N	1.519412	0.015025	0.574825
H163	H	0.984855	-0.517180	0.109141
H164	H	1.484855	-0.017180	0.609141
H165	H	1.064907	-0.524322	0.056027
H166	H	1.564907	-0.024322	0.556027
N167	N	0.892050	-0.305930	-0.155971
N168	N	1.392050	0.194070	0.344029
H169	H	0.910637	-0.357392	-0.189647
H170	H	1.410637	0.142608	0.310353
H171	H	0.854654	-0.267493	-0.189701
H172	H	1.354654	0.232507	0.310299
H173	H	0.788968	-0.442938	0.078256
H174	H	1.288968	0.057062	0.578256
H175	H	1.008746	-0.476888	-0.055747
H176	H	1.508746	0.023112	0.444253
N177	N	1.021952	-0.326830	-0.074750
N178	N	1.521952	0.173170	0.425250
H179	H	1.040281	-0.378945	-0.107598
H180	H	1.540281	0.121055	0.392402
H181	H	0.987748	-0.286847	-0.110462
H182	H	1.487748	0.213153	0.389538
N183	N	0.277464	0.110781	-0.155849
N184	N	0.777464	0.610781	0.344151
H185	H	0.316362	0.059474	-0.159192
H186	H	0.816362	0.559474	0.340808
H187	H	0.240442	0.110168	-0.203287
H188	H	0.740442	0.610168	0.296713
H189	H	0.987427	0.009387	0.360640
H190	H	1.487427	0.509387	0.860640
N191	N	0.787060	0.231310	0.807706
N192	N	1.287060	0.731310	1.307706
H193	H	0.815970	0.268353	0.843600
H194	H	1.315970	0.768353	1.343600
H195	H	0.754452	0.267361	0.767118
H196	H	1.254452	0.767361	1.267118
N197	N	0.772758	-0.290048	-0.082432
N198	N	1.272758	0.209952	0.417568
H199	H	0.773203	-0.227014	-0.084936
H200	H	1.273203	0.272986	0.415064
H201	H	0.746935	-0.309686	-0.133377
H202	H	1.246935	0.190314	0.366623
N203	N	1.001048	-0.005664	0.627754
N204	N	1.501048	0.494336	1.127754
H205	H	1.054763	0.003905	0.642794
H206	H	1.554763	0.503905	1.142794
H207	H	0.992280	-0.065054	0.642840
H208	H	1.492280	0.434946	1.142840
N209	N	0.113367	0.107881	-0.155864
N210	N	0.613367	0.607881	0.344136
H211	H	0.150364	0.108536	-0.203340
H212	H	0.650364	0.608536	0.296660
H213	H	0.086758	0.055415	-0.159132
H214	H	0.586758	0.555415	0.340868
N215	N	0.787015	0.231289	0.192227
N216	N	1.287015	0.731289	0.692227
H217	H	0.754408	0.267404	0.232779
H218	H	1.254408	0.767404	0.732779
H219	H	0.815974	0.268268	0.156303
H220	H	1.315974	0.768268	0.656303
