data_functionalizedCrystal
_audit_creation_method	'MofGen! by Chris Wilmer'
_symmetry_space_group_name_H-M	'P1'
_symmetry_Int_Tables_number	1
_symmetry_cell_setting	triclinic
loop_
_symmetry_equiv_pos_as_xyz
  x,y,z
_cell_length_a	15.995350
_cell_length_b	27.732048
_cell_length_c	15.072220
_cell_angle_alpha	90.007580
_cell_angle_beta	89.998728
_cell_angle_gamma	83.067515
loop_
_atom_site_label
_atom_site_type_symbol
_atom_site_fract_x
_atom_site_fract_y
_atom_site_fract_z
O1	O	1.110177	0.062303	0.073717
O2	O	1.610177	0.562303	0.573717
O3	O	0.866302	0.069997	0.073737
O4	O	1.366302	0.569997	0.573737
O5	O	0.995814	-0.004214	0.073709
O6	O	1.495814	0.495786	0.573709
O7	O	0.980665	0.136514	0.073744
O8	O	1.480665	0.636514	0.573744
O9	O	0.995807	-0.004214	-0.073856
O10	O	1.495807	0.495786	0.426144
O11	O	0.866296	0.069997	-0.073828
O12	O	1.366296	0.569997	0.426172
O13	O	1.110171	0.062304	-0.073848
O14	O	1.610171	0.562304	0.426152
Zn15	Zn	0.988232	0.066151	-0.097267
Zn16	Zn	1.488232	0.566151	0.402733
Zn17	Zn	0.988241	0.066150	0.097156
Zn18	Zn	1.488241	0.566150	0.597156
O19	O	0.980659	0.136515	-0.073821
O20	O	1.480659	0.636515	0.426179
C21	C	0.835108	0.069679	-0.000044
C22	C	1.335108	0.569679	0.499956
C23	C	0.742170	0.068726	-0.000037
C24	C	1.242170	0.568726	0.499963
C25	C	0.404467	0.065301	-0.000056
C26	C	0.904467	0.565301	0.499944
C27	C	0.452585	0.012449	-0.000399
C28	C	0.952585	0.512449	0.499601
C29	C	0.549263	0.013403	-0.000060
C30	C	1.049263	0.513403	0.499940
C31	C	0.572006	0.067000	-0.000047
C32	C	1.072006	0.567000	0.499953
C33	C	0.530585	0.093068	0.084223
C34	C	1.030585	0.593068	0.584223
C35	C	0.433966	0.091740	0.084287
C36	C	0.933966	0.591740	0.584287
C37	C	0.433606	0.092832	-0.083522
C38	C	0.933606	0.592832	0.416478
C39	C	0.530552	0.092820	-0.084630
C40	C	1.030552	0.592820	0.415370
C41	C	0.666691	0.067962	-0.000039
C42	C	1.166691	0.567962	0.499961
C43	C	0.309782	0.064340	-0.000058
C44	C	0.809782	0.564340	0.499942
C45	C	0.995493	-0.022222	-0.000076
C46	C	1.495493	0.477778	0.499924
C47	C	0.994535	-0.075881	-0.000083
C48	C	1.494535	0.424119	0.499917
C49	C	1.065040	-0.414392	-0.000043
C50	C	1.565040	0.085608	0.499957
C51	C	1.061487	-0.616067	-0.000030
C52	C	1.561487	-0.116067	0.499970
O53	O	1.125959	-0.647045	0.000004
O54	O	1.625959	-0.147045	0.500004
N55	N	0.984692	-0.635522	-0.000025
N56	N	1.484692	-0.135522	0.499975
C57	C	0.908780	-0.604555	-0.000017
C58	C	1.408780	-0.104555	0.499983
O59	O	0.843380	-0.625730	-0.000003
O60	O	1.343380	-0.125730	0.499997
C61	C	0.912334	-0.402881	-0.000023
C62	C	1.412334	0.097119	0.499977
C63	C	0.989134	-0.383429	-0.000037
C64	C	1.489134	0.116571	0.499963
C65	C	1.141834	-0.394940	-0.000056
C66	C	1.641834	0.105060	0.499944
C67	C	1.142721	-0.344524	-0.000064
C68	C	1.642721	0.155476	0.499936
C69	C	1.066815	-0.313561	-0.000059
C70	C	1.566815	0.186439	0.499941
C71	C	0.990021	-0.333013	-0.000045
C72	C	1.490021	0.166987	0.499955
C73	C	0.836422	-0.371914	-0.000009
C74	C	1.336422	0.128086	0.499991
C75	C	0.837317	-0.321493	-0.000008
C76	C	1.337317	0.178507	0.499992
C77	C	0.914117	-0.302041	-0.000023
C78	C	1.414117	0.197959	0.499977
C79	C	0.915002	-0.251634	-0.000048
C80	C	1.415002	0.248366	0.499952
N81	N	0.991797	-0.232179	-0.000053
N82	N	1.491797	0.267821	0.499947
C83	C	1.067703	-0.263142	-0.000059
C84	C	1.567703	0.236858	0.499941
C85	C	0.906920	-0.710437	-0.000015
C86	C	1.406920	-0.210437	0.499985
C87	C	0.906031	-0.760855	-0.000015
C88	C	1.406031	-0.260855	0.499985
C89	C	1.058739	-0.772364	-0.000027
C90	C	1.558739	-0.272364	0.499973
C91	C	1.059627	-0.721945	-0.000033
C92	C	1.559627	-0.221945	0.499967
C93	C	0.983715	-0.690982	-0.000021
C94	C	1.483715	-0.190982	0.499979
C95	C	1.069561	-0.157265	-0.000076
C96	C	1.569561	0.342735	0.499924
C97	C	1.070442	-0.106844	-0.000088
C98	C	1.570442	0.393156	0.499912
C99	C	0.917734	-0.095340	-0.000072
C100	C	1.417734	0.404660	0.499928
C101	C	0.916853	-0.145756	-0.000065
C102	C	1.416853	0.354244	0.499935
C103	C	0.992773	-0.176718	-0.000064
C104	C	1.492773	0.323282	0.499936
O105	O	0.850565	-0.220628	-0.000072
O106	O	1.350565	0.279372	0.499928
O107	O	1.133094	-0.241958	-0.000053
O108	O	1.633094	0.258042	0.499947
C109	C	1.064153	-0.464808	-0.000035
C110	C	1.564153	0.035192	0.499965
C111	C	0.987359	-0.484260	-0.000022
C112	C	1.487359	0.015740	0.499978
C113	C	0.911452	-0.453297	-0.000016
C114	C	1.411452	0.046703	0.499984
C115	C	0.986470	-0.534679	-0.000022
C116	C	1.486470	-0.034679	0.499978
C117	C	1.062377	-0.565642	-0.000027
C118	C	1.562377	-0.065642	0.499973
C119	C	1.139172	-0.546187	-0.000032
C120	C	1.639172	-0.046187	0.499968
C121	C	1.140059	-0.495771	-0.000040
C122	C	1.640059	0.004229	0.499960
C123	C	0.834657	-0.472752	-0.000011
C124	C	1.334657	0.027248	0.499989
C125	C	0.833776	-0.523168	-0.000004
C126	C	1.333776	-0.023168	0.499996
C127	C	0.909683	-0.554132	-0.000009
C128	C	1.409683	-0.054132	0.499991
C129	C	1.141364	0.062621	-0.000066
C130	C	1.641364	0.562621	0.499934
C131	C	1.234303	0.063575	-0.000066
C132	C	1.734303	0.563575	0.499934
C133	C	0.980980	0.154523	-0.000034
C134	C	1.480980	0.654523	0.499966
C135	C	0.981938	0.208182	-0.000021
C136	C	1.481938	0.708182	0.499979
N137	N	0.988232	0.066151	-0.229956
N138	N	1.488232	0.566151	0.270044
N139	N	0.988247	0.066146	0.229845
N140	N	1.488247	0.566146	0.729845
C141	C	0.988237	0.066149	0.589046
C142	C	1.488237	0.566149	1.089046
C143	C	1.057461	0.026400	0.551397
C144	C	1.557461	0.526400	1.051397
C145	C	1.057707	0.026501	0.448572
C146	C	1.557707	0.526501	0.948572
C147	C	0.988242	0.066147	0.410842
C148	C	1.488242	0.566147	0.910842
C149	C	1.006444	0.116621	0.448181
C150	C	1.506444	0.616621	0.948181
C151	C	1.006938	0.116389	0.551039
C152	C	1.506938	0.616389	1.051039
C153	C	0.900600	0.055879	0.551142
C154	C	1.400600	0.555879	1.051142
C155	C	0.901203	0.054731	0.448278
C156	C	1.401203	0.554731	0.948278
C157	C	0.988243	0.066149	0.310129
C158	C	1.488243	0.566149	0.810129
C159	C	0.988238	0.066151	0.689760
C160	C	1.488238	0.566151	1.189760
H161	H	0.545411	0.131904	-0.089710
H162	H	1.045411	0.631904	0.410290
F163	F	1.088987	0.128712	0.414506
F164	F	1.588987	0.628712	0.914506
H165	H	0.577954	-0.007088	-0.060468
H166	H	1.077954	0.492912	0.439532
H167	H	0.854317	-0.161595	-0.000078
H168	H	1.354317	0.338405	0.499922
H169	H	1.200977	-0.571406	-0.000040
H170	H	1.700977	-0.071406	0.499960
H171	H	0.849096	0.084865	0.575491
H172	H	1.349096	0.584865	1.075491
H173	H	1.070824	0.125421	0.575025
H174	H	1.570824	0.625421	1.075025
F175	F	0.756519	-0.288543	0.000007
F176	F	1.256519	0.211457	0.500007
F177	F	1.224463	-0.323828	-0.000060
F178	F	1.724463	0.176172	0.499940
H179	H	1.203650	-0.420146	-0.000057
H180	H	1.703650	0.079854	0.499943
F181	F	1.221801	-0.475076	-0.000050
F182	F	1.721801	0.024924	0.499950
H183	H	0.773883	-0.387743	0.000008
H184	H	1.273883	0.112257	0.500008
F185	F	0.826118	-0.677489	-0.000002
F186	F	1.326118	-0.177489	0.499998
F187	F	0.428725	-0.015164	-0.079391
F188	F	0.928725	0.484836	0.420609
F189	F	0.752029	-0.543864	0.000006
F190	F	1.252029	-0.043864	0.500006
H191	H	1.120545	-0.797583	-0.000032
H192	H	1.620545	-0.297583	0.499968
H193	H	1.122759	0.033075	0.423960
H194	H	1.622759	0.533075	0.923960
H195	H	0.772844	-0.447546	-0.000005
H196	H	1.272844	0.052454	0.499995
H197	H	0.401216	0.130543	0.088120
H198	H	0.901216	0.630543	0.588120
F199	F	1.043708	-0.022799	0.583718
F200	F	1.543708	0.477201	1.083718
H201	H	0.401340	0.131799	-0.084083
H202	H	0.901340	0.631799	0.415917
F203	F	0.586005	-0.013452	0.079149
F204	F	1.086005	0.486548	0.579149
F205	F	0.883111	0.006204	0.416363
F206	F	1.383111	0.506204	0.916363
H207	H	0.544201	0.132444	0.087365
H208	H	1.044201	0.632444	0.587365
H209	H	1.046998	-0.011014	0.423325
H210	H	1.546998	0.488986	0.923325
F211	F	0.943949	0.156458	0.583595
F212	F	1.443949	0.656458	1.083595
F213	F	0.830802	0.090110	0.414719
F214	F	1.330802	0.590110	0.914719
H215	H	1.122146	0.032876	0.577252
H216	H	1.622146	0.532876	1.077252
F217	F	1.152186	-0.086146	-0.000103
F218	F	1.652186	0.413854	0.499897
F219	F	0.567979	0.069402	0.166187
F220	F	1.067979	0.569402	0.666187
H221	H	0.843493	-0.776688	-0.000019
H222	H	1.343493	-0.276688	0.499981
F223	F	0.407058	0.070247	-0.167011
F224	F	0.907058	0.570247	0.332989
H225	H	1.122164	-0.706111	-0.000044
H226	H	1.622164	-0.206111	0.499956
H227	H	0.855933	-0.070121	-0.000071
H228	H	1.355933	0.429879	0.499929
H229	H	0.957329	0.146917	0.423744
H230	H	1.457329	0.646917	0.923744
F231	F	0.877455	0.008792	0.585041
F232	F	1.377455	0.508792	1.085041
F233	F	1.150364	-0.190210	-0.000075
F234	F	1.650364	0.309790	0.499925
H235	H	0.433266	-0.008580	0.059692
H236	H	0.933266	0.491420	0.559692
H237	H	0.415907	0.072730	0.147272
H238	H	0.915907	0.572730	0.647272
H239	H	0.558112	0.073790	-0.146972
H240	H	1.058112	0.573790	0.353028
