data_functionalizedCrystal
_audit_creation_method	'MofGen! by Chris Wilmer'
_symmetry_space_group_name_H-M	'P1'
_symmetry_Int_Tables_number	1
_symmetry_cell_setting	triclinic
loop_
_symmetry_equiv_pos_as_xyz
  x,y,z
_cell_length_a	19.121424
_cell_length_b	19.121063
_cell_length_c	19.121595
_cell_angle_alpha	90.075983
_cell_angle_beta	90.080792
_cell_angle_gamma	94.804615
loop_
_atom_site_label
_atom_site_type_symbol
_atom_site_fract_x
_atom_site_fract_y
_atom_site_fract_z
Zn1	Zn	1.079759	-0.218149	-0.360513
Zn2	Zn	1.579759	0.281851	0.139487
Zn3	Zn	1.069669	-0.340801	-0.248716
Zn4	Zn	1.569669	0.159199	0.251284
Zn5	Zn	0.957117	-0.228174	-0.248716
Zn6	Zn	1.457117	0.271826	0.251284
Zn7	Zn	0.957500	-0.340342	-0.370877
Zn8	Zn	1.457500	0.159658	0.129123
O9	O	1.016011	-0.281867	-0.307205
O10	O	1.516011	0.218133	0.192795
O11	O	1.176689	-0.230416	-0.341345
O12	O	1.676689	0.269584	0.158655
O13	O	1.050356	-0.330248	-0.150804
O14	O	1.550356	0.169752	0.349196
O15	O	0.977448	-0.128571	-0.259210
O16	O	1.477448	0.371429	0.240790
O17	O	1.169277	-0.320527	-0.259208
O18	O	1.669277	0.179473	0.240792
O19	O	1.067552	-0.121206	-0.341346
O20	O	1.567552	0.378794	0.158654
O21	O	0.967665	-0.247501	-0.150804
O22	O	1.467665	0.252499	0.349196
O23	O	0.858899	-0.247057	-0.269259
O24	O	1.358899	0.252943	0.230741
O25	O	0.978101	-0.319746	-0.467414
O26	O	1.478101	0.180254	0.032586
O27	O	0.859180	-0.329466	-0.359009
O28	O	1.359180	0.170534	0.140991
O29	O	1.067924	-0.229971	-0.459800
O30	O	1.567924	0.270029	0.040200
O31	O	1.050727	-0.439013	-0.269257
O32	O	1.550727	0.060987	0.230743
O33	O	0.968317	-0.438676	-0.359009
O34	O	1.468317	0.061324	0.140991
C35	C	0.833559	-0.289300	-0.315259
C36	C	1.333559	0.210700	0.184741
C37	C	0.755506	-0.292496	-0.318722
C38	C	1.255506	0.207504	0.181278
C39	C	0.314061	-0.312704	-0.340702
C40	C	0.814061	0.187296	0.159298
C41	C	0.387400	-0.309707	-0.337436
C42	C	0.887400	0.190293	0.162564
C43	C	0.423906	-0.265226	-0.289145
C44	C	0.923906	0.234774	0.210855
C45	C	0.387069	-0.223745	-0.244113
C46	C	0.887069	0.276255	0.255887
C47	C	0.313731	-0.226747	-0.247377
C48	C	0.813731	0.273253	0.252623
C49	C	0.645331	-0.254017	-0.276954
C50	C	1.145331	0.245983	0.223046
C51	C	0.718674	-0.251017	-0.273695
C52	C	1.218674	0.248983	0.226305
C53	C	0.718999	-0.336980	-0.367017
C54	C	1.218999	0.163020	0.132983
C55	C	0.645660	-0.339974	-0.370279
C56	C	1.145660	0.160026	0.129721
C57	C	0.608830	-0.298496	-0.325245
C58	C	1.108830	0.201504	0.174755
C59	C	0.498870	-0.262160	-0.285807
C60	C	0.998870	0.237840	0.214193
C61	C	0.533866	-0.301567	-0.328580
C62	C	1.033866	0.198433	0.171420
C63	C	1.008489	-0.464325	-0.315272
C64	C	1.508489	0.035675	0.184728
C65	C	1.005336	-0.542377	-0.318743
C66	C	1.505336	-0.042377	0.181257
C67	C	1.046797	-0.579196	-0.273681
C68	C	1.546797	-0.079196	0.226319
C69	C	1.043836	-0.652534	-0.276950
C70	C	1.543836	-0.152534	0.223050
C71	C	0.999409	-0.689053	-0.325278
C72	C	1.499409	-0.189053	0.174722
C73	C	0.957946	-0.652229	-0.370345
C74	C	1.457946	-0.152229	0.129655
C75	C	0.960911	-0.578892	-0.367079
C76	C	1.460911	-0.078892	0.132921
C77	C	0.988312	-0.910477	-0.337478
C78	C	1.488312	-0.410477	0.162522
C79	C	0.985348	-0.983819	-0.340739
C80	C	1.485348	-0.483819	0.159261
C81	C	1.071240	-0.984119	-0.247345
C82	C	1.571240	-0.484119	0.252655
C83	C	1.074198	-0.910780	-0.244080
C84	C	1.574198	-0.410780	0.255920
C85	C	1.032737	-0.873963	-0.289150
C86	C	1.532737	-0.373963	0.210850
C87	C	0.996380	-0.764017	-0.328619
C88	C	1.496380	-0.264017	0.171381
C89	C	1.035771	-0.799000	-0.285812
C90	C	1.535771	-0.299000	0.214188
C91	C	1.199176	-0.274405	-0.299120
C92	C	1.699176	0.225595	0.200880
C93	C	1.277229	-0.271225	-0.295675
C94	C	1.777229	0.228775	0.204325
C95	C	1.024180	-0.273689	-0.489704
C96	C	1.524180	0.226311	0.010296
C97	C	1.027661	-0.270204	-0.567474
C98	C	1.527661	0.229796	-0.067474
C99	C	1.023583	-0.098695	-0.299122
C100	C	1.523583	0.401305	0.200878
C101	C	1.026810	-0.020638	-0.295677
C102	C	1.526810	0.479362	0.204323
C103	C	0.982532	-0.315305	-0.607976
C104	C	1.482532	0.184695	-0.107976
C105	C	0.985809	-0.312030	-0.681049
C106	C	1.485809	0.187970	-0.181049
C107	C	1.034212	-0.263651	-0.713619
C108	C	1.534212	0.236349	-0.213619
C109	C	1.079346	-0.218549	-0.673112
C110	C	1.579346	0.281451	-0.173112
C111	C	1.076073	-0.221827	-0.600040
C112	C	1.576073	0.278173	-0.100040
C113	C	1.046440	-0.251417	-0.934049
C114	C	1.546440	0.248583	-0.434049
C115	C	1.049709	-0.248141	-1.007126
C116	C	1.549709	0.251859	-0.507126
C117	C	0.956172	-0.341623	-1.015059
C118	C	1.456172	0.158377	-0.515059
C119	C	0.952899	-0.344895	-0.941985
C120	C	1.452899	0.155105	-0.441985
C121	C	0.998036	-0.299795	-0.901485
C122	C	1.498036	0.200205	-0.401485
C123	C	1.037561	-0.260302	-0.788311
C124	C	1.537561	0.239698	-0.288311
C125	C	0.994690	-0.303148	-0.826794
C126	C	1.494690	0.196852	-0.326794
C127	C	1.007916	-0.289960	-0.125413
C128	C	1.507916	0.210040	0.374587
C129	C	1.004579	-0.293241	-0.047628
C130	C	1.504579	0.206759	0.452372
H131	H	0.284343	-0.348921	-0.380029
H132	H	0.784343	0.151079	0.119971
C133	C	1.125717	-0.172212	-0.555488
C134	C	1.625717	0.327788	-0.055488
N135	N	1.163112	-0.134840	-0.521932
N136	N	1.663112	0.365160	-0.021932
H137	H	0.283744	-0.192968	-0.210713
H138	H	0.783744	0.307032	0.289287
H139	H	0.504140	-0.337785	-0.367896
H140	H	1.004140	0.162215	0.132104
C141	C	1.095669	-0.539032	-0.220514
C142	C	1.595669	-0.039032	0.279486
N143	N	1.132483	-0.508782	-0.180469
N144	N	1.632483	-0.008782	0.319531
H145	H	1.089123	-0.208739	-1.033642
H146	H	1.589123	0.291261	-0.533642
H147	H	1.110374	-0.881048	-0.204728
H148	H	1.610374	-0.381048	0.295272
C149	C	0.909073	-0.692403	-0.423504
C150	C	1.409073	-0.192403	0.076496
N151	N	0.872258	-0.722662	-0.463542
N152	N	1.372258	-0.222662	0.036458
H153	H	0.748396	-0.214786	-0.234376
H154	H	1.248396	0.285214	0.265624
H155	H	0.949060	-0.348757	-0.714023
H156	H	1.449060	0.151243	-0.214023
C157	C	0.941446	-0.356362	-0.790965
C158	C	1.441446	0.143638	-0.290965
N159	N	0.901340	-0.396440	-0.763972
N160	N	1.401340	0.103560	-0.263972
C161	C	1.132587	-0.165327	-0.708941
C162	C	1.632587	0.334673	-0.208941
N163	N	1.172685	-0.125236	-0.735927
N164	N	1.672685	0.374764	-0.235927
H165	H	1.083194	-0.214694	-0.901082
H166	H	1.583194	0.285306	-0.401082
C167	C	1.090793	-0.207076	-0.824145
C168	C	1.590793	0.292924	-0.324145
N169	N	1.130886	-0.166984	-0.851138
N170	N	1.630886	0.333016	-0.351138
H171	H	1.104996	-1.014103	-0.210653
H172	H	1.604996	-0.514103	0.289347
H173	H	0.528602	-0.225942	-0.246489
H174	H	1.028602	0.274058	0.253511
H175	H	1.077599	-0.682508	-0.240255
H176	H	1.577599	-0.182508	0.259745
H177	H	0.954551	-0.880506	-0.374174
H178	H	1.454551	-0.380506	0.125826
C179	C	0.936477	-1.023988	-0.393911
C180	C	1.436477	-0.523988	0.106089
N181	N	0.899671	-1.054244	-0.433958
N182	N	1.399671	-0.554244	0.066042
C183	C	1.084638	-0.758827	-0.232651
C184	C	1.584638	-0.258827	0.267349
N185	N	1.121441	-0.728563	-0.192607
N186	N	1.621441	-0.228563	0.307393
C187	C	0.915300	-0.538392	-0.416652
C188	C	1.415300	-0.038392	0.083348
N189	N	0.880946	-0.507888	-0.453993
N190	N	1.380946	-0.007888	0.046007
C191	C	0.906525	-0.391230	-1.059615
C192	C	1.406525	0.108770	-0.559615
N193	N	0.869130	-0.428597	-1.093176
N194	N	1.369130	0.071403	-0.593176
H195	H	0.960206	-0.793759	-0.367967
H196	H	1.460206	-0.293759	0.132033
H197	H	0.913495	-0.384300	-0.915472
H198	H	1.413495	0.115700	-0.415472
C199	C	0.427911	-0.355340	-0.386967
C200	C	0.927911	0.144660	0.113033
N201	N	0.458424	-0.389714	-0.424275
N202	N	0.958424	0.110286	0.075725
C203	C	0.605507	-0.388922	-0.423387
C204	C	1.105507	0.111078	0.076613
N205	N	0.575264	-0.425795	-0.463385
N206	N	1.075264	0.074205	0.036615
C207	C	0.604827	-0.208379	-0.227424
C208	C	1.104827	0.291621	0.272576
N209	N	0.574318	-0.174000	-0.190118
N210	N	1.074318	0.326000	0.309882
H211	H	0.748995	-0.370749	-0.403680
H212	H	1.248995	0.129251	0.096320
H213	H	0.416798	-0.187532	-0.204791
H214	H	0.916798	0.312468	0.295209
C215	C	0.929283	-0.368525	-0.572156
C216	C	1.429283	0.131475	-0.072156
N217	N	0.889177	-0.408614	-0.545179
N218	N	1.389177	0.091386	-0.045179
