data_functionalizedCrystal
_audit_creation_method	'MofGen! by Chris Wilmer'
_symmetry_space_group_name_H-M	'P1'
_symmetry_Int_Tables_number	1
_symmetry_cell_setting	triclinic
loop_
_symmetry_equiv_pos_as_xyz
  x,y,z
_cell_length_a	17.699077
_cell_length_b	9.798715
_cell_length_c	17.699083
_cell_angle_alpha	90.004285
_cell_angle_beta	83.281795
_cell_angle_gamma	90.003140
loop_
_atom_site_label
_atom_site_type_symbol
_atom_site_fract_x
_atom_site_fract_y
_atom_site_fract_z
O1	O	1.004078	0.113476	0.095688
O2	O	1.504078	0.613476	0.595688
O3	O	0.783699	0.113483	0.108145
O4	O	1.283699	0.613483	0.608145
O5	O	0.900115	0.113467	-0.008272
O6	O	1.400115	0.613467	0.491728
O7	O	0.887662	0.113491	0.212106
O8	O	1.387662	0.613491	0.712106
O9	O	0.900106	-0.113515	-0.008273
O10	O	1.400106	0.386485	0.491727
O11	O	0.783690	-0.113500	0.108145
O12	O	1.283690	0.386500	0.608145
O13	O	1.004069	-0.113507	0.095688
O14	O	1.504069	0.386493	0.595688
Zn15	Zn	0.893878	-0.149541	0.101916
Zn16	Zn	1.393878	0.350459	0.601916
Zn17	Zn	0.893890	0.149517	0.101917
Zn18	Zn	1.393890	0.649517	0.601917
O19	O	0.887654	-0.113491	0.212105
O20	O	1.387654	0.386509	0.712105
C21	C	0.755498	-0.000008	0.107700
C22	C	1.255498	0.499992	0.607700
C23	C	0.671479	-0.000005	0.106363
C24	C	1.171479	0.499995	0.606363
N25	N	0.893876	-0.353641	0.101915
N26	N	1.393876	0.146359	0.601915
C27	C	0.632007	-0.123735	0.105732
C28	C	1.132007	0.376265	0.605732
C29	C	0.553065	-0.123736	0.104464
C30	C	1.053065	0.376264	0.604464
C31	C	0.513595	-0.000007	0.103832
C32	C	1.013595	0.499993	0.603832
C33	C	0.553073	0.123732	0.104460
C34	C	1.053073	0.623732	0.604460
C35	C	0.632015	0.123732	0.105723
C36	C	1.132015	0.623732	0.605723
C37	C	0.234709	0.123734	0.099367
C38	C	0.734709	0.623734	0.599367
C39	C	0.155762	0.123724	0.098106
C40	C	0.655762	0.623724	0.598106
C41	C	0.155760	-0.123735	0.098108
C42	C	0.655760	0.376265	0.598108
C43	C	0.234701	-0.123734	0.099371
C44	C	0.734701	0.376266	0.599371
C45	C	0.274173	0.000004	0.099995
C46	C	0.774173	0.500004	0.599995
C47	C	0.359772	0.000004	0.101369
C48	C	0.859772	0.500004	0.601369
C49	C	0.427997	-0.000006	0.102464
C50	C	0.927997	0.499994	0.602464
C51	C	0.937556	-0.421415	0.145346
C52	C	1.437556	0.078585	0.645346
C53	C	0.937568	-0.578578	0.145345
C54	C	1.437568	-0.078578	0.645345
C55	C	1.032271	-0.000013	0.096133
C56	C	1.532271	0.499987	0.596133
C57	C	1.116289	-0.000007	0.097470
C58	C	1.616289	0.499993	0.597470
C59	C	0.899664	-0.000024	-0.036470
C60	C	1.399664	0.499976	0.463530
C61	C	0.898326	-0.000025	-0.120488
C62	C	1.398326	0.499975	0.379512
N63	N	0.893898	0.353617	0.101912
N64	N	1.393898	0.853617	0.601912
C65	C	0.966659	-0.000029	-0.169110
C66	C	1.466659	0.499971	0.330890
C67	C	0.965397	-0.000017	-0.248054
C68	C	1.465397	0.499983	0.251946
C69	C	0.895800	-0.000010	-0.278373
C70	C	1.395800	0.499990	0.221627
C71	C	0.827461	-0.000002	-0.229744
C72	C	1.327461	0.499998	0.270256
C73	C	0.828724	-0.000005	-0.150803
C74	C	1.328724	0.499995	0.349197
C75	C	0.822366	0.000009	-0.548107
C76	C	1.322366	0.500009	-0.048107
C77	C	0.821108	0.000007	-0.627055
C78	C	1.321108	0.500007	-0.127055
C79	C	0.959039	-0.000003	-0.645358
C80	C	1.459039	0.499997	-0.145358
C81	C	0.960302	-0.000006	-0.566417
C82	C	1.460302	0.499994	-0.066417
C83	C	0.891963	0.000010	-0.517795
C84	C	1.391963	0.500010	-0.017795
C85	C	0.893333	-0.000001	-0.432196
C86	C	1.393333	0.499999	0.067804
C87	C	0.894430	-0.000010	-0.363971
C88	C	1.394430	0.499990	0.136029
C89	C	0.888104	0.000003	0.240303
C90	C	1.388104	0.500003	0.740303
C91	C	0.889443	0.000013	0.324321
C92	C	1.389443	0.500013	0.824321
H93	H	0.664137	-0.224490	0.106254
H94	H	1.164137	0.275510	0.606254
Cl95	Cl	0.995286	-0.331373	0.202754
Cl96	Cl	1.495286	0.168627	0.702754
Cl97	Cl	0.836155	-0.443684	0.044498
Cl98	Cl	1.336155	0.056316	0.544498
Cl99	Cl	0.995303	-0.668556	0.202761
Cl100	Cl	1.495303	-0.168556	0.702761
Cl101	Cl	0.836152	-0.556413	0.044504
Cl102	Cl	1.336152	-0.056413	0.544504
H103	H	0.664152	0.224486	0.106237
H104	H	1.164152	0.724486	0.606237
Cl105	Cl	1.054157	-0.000051	-0.131003
Cl106	Cl	1.554157	0.499949	0.368997
Cl107	Cl	0.284320	0.279291	0.100153
Cl108	Cl	0.784320	0.779291	0.600153
H109	H	1.021041	-0.000023	-0.287639
H110	H	1.521041	0.499977	0.212361
Cl111	Cl	1.047798	-0.000009	-0.528306
Cl112	Cl	1.547798	0.499991	-0.028306
Cl113	Cl	1.044951	-0.000017	-0.706488
Cl114	Cl	1.544951	0.499983	-0.206488
Cl115	Cl	0.733608	0.000018	-0.665169
Cl116	Cl	1.233608	0.500018	-0.165169
Cl117	Cl	0.736454	0.000032	-0.486993
Cl118	Cl	1.236454	0.500032	0.013007
H119	H	0.770794	0.000012	-0.254436
H120	H	1.270794	0.500012	0.245564
H121	H	0.773080	-0.000001	-0.111214
H122	H	1.273080	0.499999	0.388786
Cl123	Cl	0.284316	-0.279286	0.100170
Cl124	Cl	0.784316	0.220714	0.600170
H125	H	0.520931	0.224475	0.103940
H126	H	1.020931	0.724475	0.603940
Cl127	Cl	0.503444	-0.279290	0.103686
Cl128	Cl	1.003444	0.220710	0.603686
Cl129	Cl	0.106134	-0.279294	0.097320
Cl130	Cl	0.606134	0.220706	0.597320
Cl131	Cl	0.106144	0.279282	0.097310
Cl132	Cl	0.606144	0.779282	0.597310
