data_functionalizedCrystal
_audit_creation_method	'MofGen! by Chris Wilmer'
_symmetry_space_group_name_H-M	'P1'
_symmetry_Int_Tables_number	1
_symmetry_cell_setting	triclinic
loop_
_symmetry_equiv_pos_as_xyz
  x,y,z
_cell_length_a	26.809956
_cell_length_b	11.026607
_cell_length_c	11.026607
_cell_angle_alpha	108.586017
_cell_angle_beta	90.007514
_cell_angle_gamma	89.989925
loop_
_atom_site_label
_atom_site_type_symbol
_atom_site_fract_x
_atom_site_fract_y
_atom_site_fract_z
O1	O	0.041478	-1.726739	-0.533608
O2	O	0.541478	-1.226739	-0.033608
O3	O	0.041479	-1.360160	-0.472844
O4	O	0.541479	-0.860160	0.027156
O5	O	0.041477	-1.513068	-0.319936
O6	O	0.541477	-1.013068	0.180064
O7	O	0.041481	-1.573831	-0.686516
O8	O	0.541481	-1.073831	-0.186516
O9	O	-0.041482	-1.513037	-0.319958
O10	O	0.458518	-1.013037	0.180042
O11	O	-0.041480	-1.360129	-0.472866
O12	O	0.458520	-0.860129	0.027134
O13	O	-0.041481	-1.726709	-0.533630
O14	O	0.458519	-1.226709	-0.033630
Zn15	Zn	-0.054652	-1.543414	-0.503251
Zn16	Zn	0.445348	-1.043414	-0.003251
Zn17	Zn	0.054650	-1.543454	-0.503223
Zn18	Zn	0.554650	-1.043454	-0.003223
O19	O	-0.041479	-1.573801	-0.686538
O20	O	0.458521	-1.073801	-0.186538
C21	C	-0.000000	-1.312485	-0.461645
C22	C	0.500000	-0.812485	0.038355
C23	C	-0.000000	-1.170471	-0.428228
C24	C	0.500000	-0.670471	0.071772
N25	N	-0.129248	-1.543396	-0.503272
N26	N	0.370752	-1.043396	-0.003272
C27	C	-0.000002	-1.501843	-0.272287
C28	C	0.499998	-1.001843	0.227713
C29	C	-0.000000	-1.468426	-0.130273
C30	C	0.500000	-0.968426	0.369727
C31	C	-0.473875	-1.611156	-0.435534
C32	C	0.026125	-1.111156	0.064466
C33	C	-0.682753	-1.611182	-0.435521
C34	C	-0.182753	-1.111182	0.064479
O35	O	-0.709757	-1.668743	-0.377924
O36	O	-0.209757	-1.168743	0.122076
N37	N	-0.708875	-1.543455	-0.503196
N38	N	-0.208875	-1.043455	-0.003196
C39	C	-0.682775	-1.475710	-0.570872
C40	C	-0.182775	-0.975710	-0.070872
O41	O	-0.709786	-1.418095	-0.628423
O42	O	-0.209786	-0.918095	-0.128423
C43	C	-0.473898	-1.475678	-0.570877
C44	C	0.026102	-0.975678	-0.070877
C45	C	-0.447778	-1.543419	-0.503208
C46	C	0.052222	-1.043419	-0.003208
C47	C	-0.447755	-1.678890	-0.367869
C48	C	0.052245	-1.178890	0.132131
C49	C	-0.395539	-1.678889	-0.367879
C50	C	0.104461	-1.178889	0.132121
C51	C	-0.369442	-1.611153	-0.435553
C52	C	0.130558	-1.111153	0.064447
C53	C	-0.395562	-1.543418	-0.503217
C54	C	0.104438	-1.043418	-0.003217
C55	C	-0.447799	-1.407927	-0.638545
C56	C	0.052201	-0.907927	-0.138545
C57	C	-0.395576	-1.407922	-0.638537
C58	C	0.104424	-0.907922	-0.138537
C59	C	-0.369457	-1.475663	-0.570868
C60	C	0.130543	-0.975663	-0.070868
C61	C	-0.317249	-1.475680	-0.570901
C62	C	0.182751	-0.975680	-0.070901
N63	N	-0.291127	-1.543407	-0.503226
N64	N	0.208873	-1.043407	-0.003226
C65	C	-0.317223	-1.611143	-0.435552
C66	C	0.182777	-1.111143	0.064448
C67	C	-0.792438	-1.475734	-0.570867
C68	C	-0.292438	-0.975734	-0.070867
C69	C	-0.844657	-1.475744	-0.570868
C70	C	-0.344657	-0.975744	-0.070868
C71	C	-0.844631	-1.611214	-0.435515
C72	C	-0.344631	-1.111214	0.064485
C73	C	-0.792411	-1.611210	-0.435522
C74	C	-0.292411	-1.111210	0.064478
C75	C	-0.766316	-1.543461	-0.503192
C76	C	-0.266316	-1.043461	-0.003192
C77	C	-0.207565	-1.611135	-0.435578
C78	C	0.292435	-1.111135	0.064422
C79	C	-0.155345	-1.611132	-0.435598
C80	C	0.344655	-1.111132	0.064402
C81	C	-0.155375	-1.475658	-0.570945
C82	C	0.344625	-0.975658	-0.070945
C83	C	-0.207591	-1.475666	-0.570931
C84	C	0.292409	-0.975666	-0.070931
C85	C	-0.233685	-1.543407	-0.503238
C86	C	0.266315	-1.043407	-0.003238
O87	O	-0.290212	-1.418137	-0.628456
O88	O	0.209788	-0.918137	-0.128456
O89	O	-0.290203	-1.668727	-0.377987
O90	O	0.209797	-1.168727	0.122013
C91	C	-0.526091	-1.611157	-0.435524
C92	C	-0.026091	-1.111157	0.064476
C93	C	-0.552211	-1.543422	-0.503189
C94	C	-0.052211	-1.043422	-0.003189
C95	C	-0.526114	-1.475686	-0.570863
C96	C	-0.026114	-0.975686	-0.070863
C97	C	-0.604430	-1.543432	-0.503190
C98	C	-0.104430	-1.043432	-0.003190
C99	C	-0.630527	-1.611168	-0.435516
C100	C	-0.130527	-1.111168	0.064484
C101	C	-0.604404	-1.678895	-0.367841
C102	C	-0.104404	-1.178895	0.132159
C103	C	-0.552188	-1.678893	-0.367850
C104	C	-0.052188	-1.178893	0.132150
C105	C	-0.552237	-1.407960	-0.638538
C106	C	-0.052237	-0.907960	-0.138538
C107	C	-0.604453	-1.407968	-0.638524
C108	C	-0.104453	-0.907968	-0.138524
C109	C	-0.630550	-1.475704	-0.570850
C110	C	-0.130550	-0.975704	-0.070850
N111	N	0.129246	-1.543480	-0.503194
N112	N	0.629246	-1.043480	-0.003194
C113	C	-0.000000	-1.774384	-0.544828
C114	C	0.500000	-1.274384	-0.044828
C115	C	0.000003	-1.916398	-0.578245
C116	C	0.500003	-1.416398	-0.078245
C117	C	0.000001	-1.116821	-0.520498
C118	C	0.500001	-0.616821	-0.020498
C119	C	0.000001	-0.970043	-0.485962
C120	C	0.500001	-0.470043	0.014038
C121	C	0.000001	-1.585026	-0.734187
C122	C	0.500001	-1.085026	-0.234187
C123	C	0.000003	-1.618443	-0.876200
C124	C	0.500003	-1.118443	-0.376200
C125	C	0.000000	-1.560695	-0.076624
C126	C	0.500000	-1.060695	0.423376
C127	C	0.000002	-1.526160	0.070155
C128	C	0.500002	-1.026160	0.570155
H129	H	-0.134079	-1.666300	-0.380495
H130	H	0.365921	-1.166300	0.119505
Br131	Br	0.000005	-1.734981	-0.181171
Br132	Br	0.500005	-1.234981	0.318829
H133	H	-0.134119	-1.420512	-0.626049
H134	H	0.365881	-0.920512	-0.126049
H135	H	-0.530925	-1.734055	-0.312748
H136	H	-0.030925	-1.234055	0.187252
H137	H	0.000003	-1.363863	-0.067540
H138	H	0.500003	-0.863863	0.432460
Br139	Br	-0.243038	-1.383749	-0.662791
Br140	Br	0.256962	-0.883749	-0.162791
Br141	Br	-0.000007	-1.065924	-0.253943
Br142	Br	0.499993	-0.565924	0.246057
Br143	Br	0.000007	-1.792736	0.019260
Br144	Br	0.500007	-1.292736	0.519260
Br145	Br	0.000010	-1.351868	0.174697
Br146	Br	0.500010	-0.851868	0.674697
Br147	Br	-0.242970	-1.703071	-0.343707
Br148	Br	0.257030	-1.203071	0.156293
H149	H	-0.468998	-1.734048	-0.312755
H150	H	0.031002	-1.234048	0.187245
Br151	Br	-0.360097	-1.770819	-0.276032
Br152	Br	0.139903	-1.270819	0.223968
Br153	Br	-0.756969	-1.703148	-0.343682
Br154	Br	-0.256969	-1.203148	0.156318
H155	H	0.000013	-0.907314	-0.381393
H156	H	0.500013	-0.407314	0.118607
H157	H	-0.865888	-1.666370	-0.380414
H158	H	-0.365888	-1.166370	0.119586
H159	H	-0.865920	-1.420599	-0.625986
H160	H	-0.365920	-0.920599	-0.125986
Br161	Br	-0.639831	-1.770830	-0.276005
Br162	Br	-0.139831	-1.270830	0.223995
Br163	Br	-0.000005	-1.020937	-0.752539
Br164	Br	0.499995	-0.520937	-0.252539
H165	H	-0.469058	-1.352765	-0.693646
H166	H	0.030942	-0.852765	-0.193646
Br167	Br	-0.757028	-1.383783	-0.662716
Br168	Br	-0.257028	-0.883783	-0.162716
H169	H	-0.374332	-1.352748	-0.693640
H170	H	0.125668	-0.852748	-0.193640
H171	H	-0.530993	-1.352799	-0.693645
H172	H	-0.030993	-0.852799	-0.193645
Br173	Br	-0.639896	-1.316034	-0.730378
Br174	Br	-0.139896	-0.816034	-0.230378
H175	H	-0.000001	-1.179555	-0.625061
H176	H	0.499999	-0.679555	-0.125061
