data_functionalizedCrystal
_audit_creation_method	'MofGen! by Chris Wilmer'
_symmetry_space_group_name_H-M	'P1'
_symmetry_Int_Tables_number	1
_symmetry_cell_setting	triclinic
loop_
_symmetry_equiv_pos_as_xyz
  x,y,z
_cell_length_a	23.532361
_cell_length_b	10.654552
_cell_length_c	22.610064
_cell_angle_alpha	90.007505
_cell_angle_beta	90.003897
_cell_angle_gamma	96.342334
loop_
_atom_site_label
_atom_site_type_symbol
_atom_site_fract_x
_atom_site_fract_y
_atom_site_fract_z
O1	O	0.756272	-0.152143	0.049121
O2	O	1.256272	0.347857	0.549121
O3	O	0.590549	-0.174260	0.049135
O4	O	1.090549	0.325740	0.549135
O5	O	0.677221	0.019660	0.049129
O6	O	1.177221	0.519660	0.549129
O7	O	0.669601	-0.346063	0.049127
O8	O	1.169601	0.153937	0.549127
O9	O	0.677205	0.019632	-0.049240
O10	O	1.177205	0.519632	0.450760
O11	O	0.590534	-0.174289	-0.049234
O12	O	1.090534	0.325711	0.450766
O13	O	0.756257	-0.152171	-0.049248
O14	O	1.256257	0.347829	0.450752
Zn15	Zn	0.673393	-0.163234	-0.064860
Zn16	Zn	1.173393	0.336766	0.435140
Zn17	Zn	0.673413	-0.163197	0.064746
Zn18	Zn	1.173413	0.336803	0.564746
O19	O	0.669586	-0.346091	-0.049242
O20	O	1.169586	0.153909	0.450758
C21	C	0.569322	-0.173720	-0.000048
C22	C	1.069322	0.326280	0.499952
C23	C	0.506092	-0.172055	-0.000043
C24	C	1.006092	0.327945	0.499957
C25	C	0.232809	-0.164756	0.053575
C26	C	0.732809	0.335244	0.553575
C27	C	0.292220	-0.166332	0.053576
C28	C	0.792220	0.333668	0.553576
O29	O	0.322958	-0.167091	0.099178
O30	O	0.822958	0.332909	0.599178
N31	N	0.321922	-0.167144	-0.000045
N32	N	0.821922	0.332856	0.499955
C33	C	0.292212	-0.166366	-0.053671
C34	C	0.792212	0.333634	0.446329
O35	O	0.322932	-0.167200	-0.099280
O36	O	0.822932	0.332800	0.400720
C37	C	0.232804	-0.164781	-0.053672
C38	C	0.732804	0.335219	0.446328
C39	C	0.203104	-0.163982	-0.000047
C40	C	0.703104	0.336018	0.499953
C41	C	0.203109	-0.163956	0.107195
C42	C	0.703109	0.336044	0.607195
C43	C	0.143703	-0.162382	0.107194
C44	C	0.643703	0.337618	0.607194
C45	C	0.113997	-0.161608	0.053571
C46	C	0.613997	0.338392	0.553571
C47	C	0.143697	-0.162408	-0.000049
C48	C	0.643697	0.337592	0.499951
C49	C	0.203095	-0.163994	-0.107298
C50	C	0.703095	0.336006	0.392702
C51	C	0.143683	-0.162408	-0.107294
C52	C	0.643683	0.337592	0.392706
C53	C	0.113983	-0.161609	-0.053669
C54	C	0.613983	0.338391	0.446331
C55	C	0.054585	-0.160061	-0.053673
C56	C	0.554585	0.339939	0.446327
N57	N	0.024883	-0.159249	-0.000051
N58	N	0.524883	0.340751	0.499949
C59	C	0.054589	-0.160023	0.053571
C60	C	0.554589	0.339977	0.553571
C61	C	0.416974	-0.169694	-0.053665
C62	C	0.916974	0.330306	0.446335
C63	C	0.476381	-0.171288	-0.053665
C64	C	0.976381	0.328712	0.446335
C65	C	0.476384	-0.171251	0.053583
C66	C	0.976384	0.328749	0.553583
C67	C	0.416976	-0.169666	0.053582
C68	C	0.916976	0.330334	0.553582
C69	C	0.387271	-0.168882	-0.000044
C70	C	0.887271	0.331118	0.499956
C71	C	-0.070168	-0.156718	0.053563
C72	C	0.429832	0.343282	0.553563
C73	C	-0.129580	-0.155150	0.053557
C74	C	0.370420	0.344850	0.553557
C75	C	-0.129578	-0.155180	-0.053691
C76	C	0.370422	0.344820	0.446309
C77	C	-0.070172	-0.156755	-0.053685
C78	C	0.429828	0.343245	0.446315
C79	C	-0.040468	-0.157520	-0.000053
C80	C	0.459532	0.342480	0.499947
O81	O	0.023810	-0.159296	-0.099251
O82	O	0.523810	0.340704	0.400749
O83	O	0.023863	-0.159172	0.099172
O84	O	0.523863	0.340828	0.599172
C85	C	0.676653	0.066426	-0.000054
C86	C	1.176653	0.566426	0.499946
C87	C	0.674979	0.205815	-0.000049
C88	C	1.174979	0.705815	0.499951
C89	C	0.777485	-0.152711	-0.000064
C90	C	1.277485	0.347289	0.499936
C91	C	0.840714	-0.154376	-0.000065
C92	C	1.340714	0.345624	0.499935
C93	C	0.674202	0.271317	0.053571
C94	C	1.174202	0.771317	0.553571
C95	C	0.672623	0.402287	0.053569
C96	C	1.172623	0.902287	0.553569
C97	C	0.672602	0.402242	-0.053679
C98	C	1.172602	0.902242	0.446321
C99	C	0.674176	0.271273	-0.053676
C100	C	1.174176	0.771273	0.446324
C101	C	0.675004	0.205860	0.107197
C102	C	1.175004	0.705860	0.607197
C103	C	0.674228	0.271362	0.160822
C104	C	1.174228	0.771362	0.660822
C105	C	0.672650	0.402332	0.160820
C106	C	1.172650	0.902332	0.660820
C107	C	0.671848	0.467799	0.107193
C108	C	1.171848	0.967799	0.607193
N109	N	0.673384	-0.163259	-0.153312
N110	N	1.173384	0.336741	0.346688
C111	C	0.670153	0.607143	-0.000057
C112	C	1.170153	1.107143	0.499943
C113	C	0.671826	0.467753	-0.000054
C114	C	1.171826	0.967753	0.499946
C115	C	0.711793	-0.077342	-0.561956
C116	C	1.211793	0.422658	-0.061956
C117	C	0.711796	-0.077333	-0.623876
C118	C	1.211796	0.422667	-0.123876
O119	O	0.744429	-0.004302	-0.655897
O120	O	1.244429	0.495698	-0.155897
N121	N	0.673413	-0.163171	-0.654849
N122	N	1.173413	0.336829	-0.154849
C123	C	0.635020	-0.249015	-0.623899
C124	C	1.135020	0.250985	-0.123899
O125	O	0.602372	-0.322025	-0.655930
O126	O	1.102372	0.177975	-0.155930
C127	C	0.635015	-0.249017	-0.561980
C128	C	1.135015	0.250983	-0.061980
C129	C	0.673405	-0.163182	-0.531010
C130	C	1.173405	0.336818	-0.031010
C131	C	0.750179	0.008487	-0.530986
C132	C	1.250179	0.508487	-0.030986
C133	C	0.750177	0.008476	-0.469070
C134	C	1.250177	0.508476	0.030930
C135	C	0.711789	-0.077364	-0.438125
C136	C	1.211789	0.422636	0.061875
C137	C	0.673403	-0.163193	-0.469095
C138	C	1.173403	0.336807	0.030905
C139	C	0.596620	-0.334854	-0.531032
C140	C	1.096620	0.165146	-0.031032
C141	C	0.596618	-0.334848	-0.469109
C142	C	1.096618	0.165152	0.030891
C143	C	0.635008	-0.249013	-0.438139
C144	C	1.135008	0.250987	0.061861
C145	C	0.635012	-0.249044	-0.376234
C146	C	1.135012	0.250956	0.123766
N147	N	0.673395	-0.163206	-0.345260
N148	N	1.173395	0.336794	0.154740
C149	C	0.711783	-0.077366	-0.376206
C150	C	1.211783	0.422634	0.123794
C151	C	0.635033	-0.249002	-0.753933
C152	C	1.135033	0.250998	-0.253933
C153	C	0.635041	-0.249007	-0.815850
C154	C	1.135041	0.250993	-0.315850
C155	C	0.711816	-0.077323	-0.815823
C156	C	1.211816	0.422677	-0.315823
C157	C	0.711811	-0.077326	-0.753904
C158	C	1.211811	0.422674	-0.253904
C159	C	0.673417	-0.163165	-0.722960
C160	C	1.173417	0.336835	-0.222960
C161	C	0.711776	-0.077397	-0.246179
C162	C	1.211776	0.422603	0.253821
C163	C	0.711772	-0.077419	-0.184258
C164	C	1.211772	0.422581	0.315742
C165	C	0.634995	-0.249098	-0.184290
C166	C	1.134995	0.250902	0.315710
C167	C	0.635001	-0.249081	-0.246206
C168	C	1.135001	0.250919	0.253794
C169	C	0.673394	-0.163220	-0.277149
C170	C	1.173394	0.336780	0.222851
O171	O	0.602394	-0.322034	-0.344173
O172	O	1.102394	0.177966	0.155827
O173	O	0.744421	-0.004357	-0.344168
O174	O	1.244421	0.495643	0.155832
N175	N	0.673428	-0.163162	0.153199
N176	N	1.173428	0.336838	0.653199
H177	H	0.119527	-0.161725	0.150860
H178	H	0.619527	0.338275	0.650860
H179	H	0.674875	0.218048	0.204483
H180	H	1.174875	0.718048	0.704483
F181	F	0.234716	-0.164776	0.164272
F182	F	0.734716	0.335224	0.664272
H183	H	0.672012	0.455659	0.204484
H184	H	1.172012	0.955659	0.704484
F185	F	0.385365	-0.168874	-0.110745
F186	F	0.885365	0.331126	0.389255
F187	F	0.555751	-0.426210	-0.436179
F188	F	1.055751	0.073790	0.063821
F189	F	0.676687	0.066471	0.107204
F190	F	1.176687	0.566471	0.607204
H191	H	0.500557	-0.171959	-0.097332
H192	H	1.000557	0.328041	0.402668
F193	F	-0.161204	-0.154361	-0.110756
F194	F	0.338796	0.345639	0.389244
H195	H	0.670555	0.574441	0.107196
H196	H	1.170555	1.074441	0.607196
H197	H	0.674797	0.217936	-0.097338
H198	H	1.174797	0.717936	0.402662
F199	F	0.234692	-0.164845	-0.164374
F200	F	0.734692	0.335155	0.335626
F201	F	0.791040	0.099858	-0.563912
F202	F	1.291040	0.599858	-0.063912
H203	H	0.671950	0.455556	-0.097339
H204	H	1.171950	0.955556	0.402661
F205	F	0.752634	0.013940	-0.151300
F206	F	1.252634	0.513940	0.348700
F207	F	0.385372	-0.168814	0.110656
F208	F	0.885372	0.331186	0.610656
F209	F	0.752638	0.013986	-0.279101
F210	F	1.252638	0.513986	0.220899
H211	H	0.781436	0.078373	-0.443858
H212	H	1.281436	0.578373	0.056142
H213	H	-0.045991	-0.157343	0.097235
H214	H	0.454009	0.342657	0.597235
F215	F	0.752669	0.014032	-0.720949
F216	F	1.252669	0.514032	-0.220949
H217	H	0.743073	-0.007426	-0.841030
H218	H	1.243073	0.492574	-0.341030
H219	H	0.119500	-0.161781	-0.150964
H220	H	0.619500	0.338219	0.349036
H221	H	0.500582	-0.171880	0.097245
H222	H	1.000582	0.328120	0.597245
F223	F	0.594189	-0.340379	-0.848805
F224	F	1.094189	0.159621	-0.348805
H225	H	0.603770	-0.318913	-0.728741
H226	H	1.103770	0.181087	-0.228741
H227	H	0.565360	-0.404748	-0.556239
H228	H	1.065360	0.095252	-0.056239
F229	F	-0.038562	-0.157622	-0.110758
F230	F	0.461438	0.342378	0.389242
F231	F	0.594148	-0.340450	-0.279166
F232	F	1.094148	0.159550	0.220834
H233	H	0.603741	-0.318991	-0.159085
H234	H	1.103741	0.181009	0.340915
H235	H	-0.153759	-0.154503	0.097226
H236	H	0.346241	0.345497	0.597226
