data_functionalizedCrystal
_audit_creation_method	'MofGen! by Chris Wilmer'
_symmetry_space_group_name_H-M	'P1'
_symmetry_Int_Tables_number	1
_symmetry_cell_setting	triclinic
loop_
_symmetry_equiv_pos_as_xyz
  x,y,z
_cell_length_a	19.188930
_cell_length_b	15.944551
_cell_length_c	15.021413
_cell_angle_alpha	89.996935
_cell_angle_beta	90.021167
_cell_angle_gamma	83.321759
loop_
_atom_site_label
_atom_site_type_symbol
_atom_site_fract_x
_atom_site_fract_y
_atom_site_fract_z
O1	O	-0.926420	-0.104855	-0.074320
O2	O	-0.723145	-0.118971	-0.074259
O3	O	-0.830333	0.010383	-0.074283
O4	O	-0.819231	-0.234209	-0.074296
O5	O	-0.830316	0.010364	0.073781
O6	O	-0.723128	-0.118990	0.073805
O7	O	-0.926403	-0.104873	0.073744
Zn8	Zn	-0.824763	-0.111934	0.097283
Zn9	Zn	-0.824785	-0.111910	-0.097798
O10	O	-0.819214	-0.234227	0.073768
C11	C	-0.697124	-0.118524	-0.000219
C12	C	-0.619616	-0.117151	-0.000196
C13	C	-0.952423	-0.105321	-0.000298
C14	C	-1.029932	-0.106693	-0.000327
C15	C	-0.574889	-0.193052	-0.000214
C16	C	-0.502061	-0.191763	-0.000224
C17	C	-0.473965	-0.114568	-0.000233
C18	C	-0.518703	-0.038658	-0.000210
C19	C	-0.591528	-0.039949	-0.000192
N20	N	-0.365838	-0.055557	-0.050659
N21	N	-0.296657	-0.054335	-0.050678
C22	C	-0.254547	-0.110673	-0.000288
N23	N	-0.284230	-0.168291	0.050112
N24	N	-0.353418	-0.169515	0.050128
C25	C	-0.394999	-0.113160	-0.000253
C26	C	-0.130851	-0.185181	-0.000315
C27	C	-0.058023	-0.183888	-0.000319
C28	C	-0.074666	-0.030781	-0.000315
C29	C	-0.147492	-0.032076	-0.000302
C30	C	-0.175580	-0.109278	-0.000306
C31	C	-0.829864	0.041666	-0.000251
C32	C	-0.828482	0.134906	-0.000250
C33	C	-0.819684	-0.265510	-0.000266
C34	C	-0.821066	-0.358751	-0.000273
N35	N	-0.824752	-0.111951	0.230420
C36	C	-0.758739	0.349502	-0.000242
C37	C	-0.791117	0.410631	0.072753
C38	C	-0.825983	0.305623	-0.000256
C39	C	-0.791150	0.410633	-0.073226
C40	C	-0.823563	0.470527	-0.000266
C41	C	-0.858379	0.365524	0.072799
C42	C	-0.858402	0.365519	-0.073246
C43	C	-0.890829	0.426631	-0.000234
C44	C	-0.827374	0.210626	-0.000250
C45	C	-0.822176	0.565522	-0.000266
N46	N	-0.824801	-0.111887	-0.230936
C47	C	-0.775181	-0.171736	0.470115
C48	C	-0.838271	-0.187807	0.529429
C49	C	-0.824770	-0.111929	0.412027
C50	C	-0.761697	-0.095877	0.529455
C51	C	-0.824782	-0.111911	0.587451
C52	C	-0.887892	-0.128038	0.470035
C53	C	-0.811277	-0.036076	0.470056
C54	C	-0.874413	-0.052114	0.529343
C55	C	-0.824763	-0.111942	0.310970
C56	C	-0.824797	-0.111898	0.688507
H57	H	-0.597753	-0.255916	-0.000219
H58	H	-0.465637	-0.253572	-0.000236
F59	F	-0.488800	0.043498	-0.000216
H60	H	-0.051791	0.032072	-0.000378
H61	H	-0.708353	-0.082309	0.555557
H62	H	-0.762707	0.430611	-0.134942
H63	H	-0.941248	-0.141684	0.444045
H64	H	-0.021605	-0.245698	-0.000328
H65	H	-0.627946	0.021860	-0.000178
F66	F	-0.685785	0.305695	-0.000129
H67	H	-0.733287	-0.222353	0.444109
F68	F	-0.929291	0.014006	0.563127
F69	F	-0.195097	0.048709	-0.000287
H70	H	-0.153721	-0.248043	-0.000305
H71	H	-0.762669	0.430626	0.134481
F72	F	-0.895516	0.339528	0.153548
H73	H	-0.946693	0.459999	-0.000209
H74	H	-0.886826	0.345503	-0.134978
F75	F	-0.853203	-0.271641	0.563518
H76	H	-0.799834	0.028043	0.443955
