data_functionalizedCrystal
_audit_creation_method	'MofGen! by Chris Wilmer'
_symmetry_space_group_name_H-M	'P1'
_symmetry_Int_Tables_number	1
_symmetry_cell_setting	triclinic
loop_
_symmetry_equiv_pos_as_xyz
  x,y,z
_cell_length_a	21.295419
_cell_length_b	25.639240
_cell_length_c	21.295411
_cell_angle_alpha	90.026709
_cell_angle_beta	90.024539
_cell_angle_gamma	90.047559
loop_
_atom_site_label
_atom_site_type_symbol
_atom_site_fract_x
_atom_site_fract_y
_atom_site_fract_z
Zn1	Zn	0.962346	-0.208004	0.355889
Zn2	Zn	1.295679	0.125329	0.689222
Zn3	Zn	1.629012	0.458663	1.022556
Zn4	Zn	0.962244	-0.295424	0.250605
Zn5	Zn	1.295577	0.037909	0.583938
Zn6	Zn	1.628911	0.371243	0.917272
Zn7	Zn	0.857069	-0.208027	0.250634
Zn8	Zn	1.190402	0.125306	0.583967
Zn9	Zn	1.523736	0.458640	0.917301
Zn10	Zn	0.857034	-0.295433	0.355837
Zn11	Zn	1.190367	0.037901	0.689170
Zn12	Zn	1.523701	0.371234	1.022503
O13	O	0.909673	-0.251722	0.303241
O14	O	1.243006	0.081612	0.636575
O15	O	1.576340	0.414945	0.969908
O16	O	1.050422	-0.219587	0.341933
O17	O	1.383755	0.113746	0.675266
O18	O	1.717088	0.447080	1.008599
O19	O	0.948264	-0.283836	0.162520
O20	O	1.281598	0.049497	0.495853
O21	O	1.614931	0.382830	0.829186
O22	O	0.871091	-0.134859	0.264630
O23	O	1.204425	0.198475	0.597964
O24	O	1.537758	0.531808	0.931297
O25	O	1.050347	-0.283814	0.264581
O26	O	1.383680	0.049519	0.597914
O27	O	1.717013	0.382853	0.931248
O28	O	0.948438	-0.134842	0.341961
O29	O	1.281771	0.198492	0.675294
O30	O	1.615104	0.531825	1.008627
O31	O	0.870993	-0.219626	0.162541
O32	O	1.204326	0.113707	0.495874
O33	O	1.537659	0.447040	0.829207
O34	O	0.768975	-0.219635	0.264580
O35	O	1.102308	0.113699	0.597913
O36	O	1.435642	0.447032	0.931246
O37	O	0.871032	-0.283829	0.443933
O38	O	1.204365	0.049504	0.777266
O39	O	1.537699	0.382838	1.110600
O40	O	0.768949	-0.283851	0.341872
O41	O	1.102283	0.049482	0.675205
O42	O	1.435616	0.382815	1.008538
O43	O	0.948404	-0.219596	0.443971
O44	O	1.281737	0.113738	0.777305
O45	O	1.615071	0.447071	1.110638
O46	O	0.948231	-0.368590	0.264530
O47	O	1.281564	-0.035257	0.597864
O48	O	1.614897	0.298076	0.931197
O49	O	0.870933	-0.368597	0.341844
O50	O	1.204267	-0.035263	0.675177
O51	O	1.537600	0.298070	1.008510
C52	C	0.746122	-0.251747	0.303224
C53	C	1.079455	0.081586	0.636557
C54	C	1.412788	0.414920	0.969890
C55	C	0.676153	-0.251770	0.303231
C56	C	1.009487	0.081563	0.636564
C57	C	1.342820	0.414896	0.969898
C58	C	0.643348	-0.218382	0.343570
C59	C	0.976681	0.114951	0.676904
C60	C	1.310015	0.448285	1.010237
C61	C	0.577606	-0.218368	0.343573
C62	C	0.910939	0.114966	0.676906
C63	C	1.244272	0.448299	1.010239
C64	C	0.544671	-0.251751	0.303242
C65	C	0.878004	0.081582	0.636576
C66	C	1.211338	0.414915	0.969909
C67	C	0.577484	-0.285142	0.262895
C68	C	0.910817	0.048191	0.596229
C69	C	1.244151	0.381524	0.929562
C70	C	0.643225	-0.285152	0.262890
C71	C	0.976559	0.048182	0.596223
C72	C	1.309892	0.381515	0.929556
N73	N	0.441393	-0.297498	0.298318
N74	N	0.774727	0.035836	0.631651
N75	N	1.108060	0.369169	0.964984
N76	N	0.378942	-0.297487	0.298327
N77	N	0.712275	0.035846	0.631660
N78	N	1.045609	0.369180	0.964994
C79	C	0.346596	-0.251724	0.303256
C80	C	0.679930	0.081609	0.636590
C81	C	1.013263	0.414942	0.969923
N82	N	0.379061	-0.205972	0.308189
N83	N	0.712395	0.127362	0.641522
N84	N	1.045728	0.460695	0.974855
N85	N	0.441518	-0.205983	0.308183
N86	N	0.774852	0.127351	0.641516
N87	N	1.108185	0.460684	0.974849
C88	C	0.473386	-0.251745	0.303244
C89	C	0.806719	0.081589	0.636577
C90	C	1.140052	0.414922	0.969911
C91	C	0.242505	-0.218318	0.343600
C92	C	0.575839	0.115015	0.676934
C93	C	0.909172	0.448349	1.010267
C94	C	0.176762	-0.218303	0.343598
C95	C	0.510095	0.115030	0.676932
C96	C	0.843428	0.448364	1.010265
C97	C	0.176641	-0.285082	0.262924
C98	C	0.509975	0.048251	0.596258
C99	C	0.843308	0.381585	0.929591
C100	C	0.242384	-0.285092	0.262923
C101	C	0.575717	0.048241	0.596256
C102	C	0.909051	0.381574	0.929590
C103	C	0.275312	-0.251711	0.303264
C104	C	0.608645	0.081622	0.636598
C105	C	0.941979	0.414956	0.969931
C106	C	0.909584	-0.387564	0.303192
C107	C	1.242918	-0.054231	0.636525
C108	C	1.576251	0.279102	0.969859
C109	C	0.909604	-0.445678	0.303192
C110	C	1.242937	-0.112345	0.636525
C111	C	1.576270	0.220988	0.969859
C112	C	0.949967	-0.805994	0.343580
C113	C	1.283301	-0.472661	0.676913
C114	C	1.616634	-0.139328	1.010246
C115	C	0.949986	-0.860599	0.343593
C116	C	1.283319	-0.527265	0.676926
C117	C	1.616653	-0.193932	1.010259
O118	O	0.984199	-0.888795	0.377881
O119	O	1.317532	-0.555462	0.711214
O120	O	1.650865	-0.222128	1.044548
N121	N	0.909761	-0.887961	0.303302
N122	N	1.243094	-0.554628	0.636635
N123	N	1.576427	-0.221294	0.969969
C124	C	0.869509	-0.860716	0.263001
C125	C	1.202843	-0.527383	0.596334
C126	C	1.536176	-0.194049	0.929667
O127	O	0.835296	-0.889004	0.228732
O128	O	1.168629	-0.555670	0.562065
O129	O	1.501962	-0.222337	0.895399
C130	C	0.869488	-0.806113	0.262992
C131	C	1.202821	-0.472779	0.596325
C132	C	1.536155	-0.139446	0.929658
C133	C	0.909721	-0.778753	0.303280
C134	C	1.243054	-0.445420	0.636613
C135	C	1.576387	-0.112087	0.969947
C136	C	0.990196	-0.778635	0.383866
C137	C	1.323530	-0.445301	0.717199
C138	C	1.656863	-0.111968	1.050532
C139	C	0.990178	-0.724034	0.383852
C140	C	1.323512	-0.390701	0.717185
C141	C	1.656845	-0.057367	1.050519
C142	C	0.949932	-0.696793	0.343552
C143	C	1.283265	-0.363460	0.676886
C144	C	1.616598	-0.030126	1.010219
C145	C	0.909703	-0.724153	0.303266
C146	C	1.243036	-0.390819	0.636600
C147	C	1.576369	-0.057486	0.969933
C148	C	0.829234	-0.778869	0.222694
C149	C	1.162567	-0.445536	0.556027
C150	C	1.495901	-0.112202	0.889360
C151	C	0.829216	-0.724262	0.222688
C152	C	1.162549	-0.390929	0.556022
C153	C	1.495883	-0.057595	0.889355
C154	C	0.869449	-0.696902	0.262977
C155	C	1.202782	-0.363569	0.596310
C156	C	1.536115	-0.030236	0.929644
C157	C	0.869438	-0.642311	0.262953
C158	C	1.202771	-0.308978	0.596286
C159	C	1.536105	0.024355	0.929620
N160	N	0.909664	-0.614949	0.303243
N161	N	1.242997	-0.281616	0.636577
N162	N	1.576330	0.051718	0.969910
C163	C	0.949910	-0.642190	0.343543
C164	C	1.283244	-0.308857	0.676876
C165	C	1.616577	0.024477	1.010210
C166	C	0.869556	-0.975387	0.263024
C167	C	1.202890	-0.642053	0.596357
C168	C	1.536223	-0.308720	0.929690
C169	C	0.869580	-1.029989	0.263029
C170	C	1.202914	-0.696656	0.596363
C171	C	1.536247	-0.363322	0.929696
C172	C	0.950056	-1.029868	0.343622
C173	C	1.283390	-0.696534	0.676955
C174	C	1.616723	-0.363201	1.010289
C175	C	0.950035	-0.975264	0.343613
C176	C	1.283368	-0.641931	0.676946
C177	C	1.616702	-0.308598	1.010280
C178	C	0.909782	-0.948024	0.303314
C179	C	1.243115	-0.614691	0.636648
C180	C	1.576448	-0.281358	0.969981
C181	C	0.949870	-0.527525	0.343511
C182	C	1.283203	-0.194191	0.676844
C183	C	1.616537	0.139142	1.010177
C184	C	0.949850	-0.472919	0.343492
C185	C	1.283184	-0.139586	0.676825
C186	C	1.616517	0.193747	1.010158
C187	C	0.869372	-0.473046	0.262901
C188	C	1.202706	-0.139712	0.596235
C189	C	1.536039	0.193621	0.929568
C190	C	0.869394	-0.527646	0.262918
C191	C	1.202727	-0.194313	0.596251
C192	C	1.536061	0.139021	0.929584
C193	C	0.909645	-0.554884	0.303228
C194	C	1.242978	-0.221551	0.636561
C195	C	1.576312	0.111782	0.969894
O196	O	0.835241	-0.614080	0.228684
O197	O	1.168574	-0.280747	0.562017
O198	O	1.501908	0.052587	0.895350
O199	O	0.984112	-0.613895	0.377812
O200	O	1.317446	-0.280562	0.711145
O201	O	1.650779	0.052771	1.044478
C202	C	1.073863	-0.251697	0.303259
C203	C	1.407197	0.081636	0.636593
C204	C	1.740530	0.414970	0.969926
C205	C	1.143832	-0.251686	0.303267
C206	C	1.477165	0.081647	0.636600
C207	C	1.810498	0.414980	0.969934
C208	C	0.909725	-0.251711	0.467432
C209	C	1.243059	0.081623	0.800765
C210	C	1.576392	0.414956	1.134098
C211	C	0.909748	-0.251706	0.537400
C212	C	1.243081	0.081627	0.870733
C213	C	1.576414	0.414961	1.204066
C214	C	0.909780	-0.115349	0.303305
C215	C	1.243113	0.217985	0.636638
C216	C	1.576446	0.551318	0.969971
C217	C	0.909825	-0.057235	0.303331
C218	C	1.243158	0.276099	0.636665
C219	C	1.576492	0.609432	0.969998
C220	C	0.909657	-0.251695	0.139690
C221	C	1.242991	0.081638	0.473023
C222	C	1.576324	0.414972	0.806356
C223	C	0.909757	-0.251552	0.069722
C224	C	1.243090	0.081781	0.403055
C225	C	1.576424	0.415114	0.736389
C226	C	0.950033	-0.218258	0.570287
C227	C	1.283367	0.115075	0.903621
C228	C	1.616700	0.448409	1.236954
C229	C	0.950033	-0.218235	0.636030
C230	C	1.283366	0.115098	0.969363
C231	C	1.616699	0.448431	1.302697
C232	C	0.909753	-0.251670	0.668882
C233	C	1.243086	0.081663	1.002216
C234	C	1.576419	0.414997	1.335549
C235	C	0.869459	-0.285120	0.635987
C236	C	1.202792	0.048213	0.969320
C237	C	1.536126	0.381546	1.302653
C238	C	0.869456	-0.285138	0.570245
C239	C	1.202790	0.048195	0.903579
C240	C	1.536123	0.381528	1.236912
N241	N	0.904894	-0.297409	0.772093
N242	N	1.238227	0.035924	1.105426
N243	N	1.571560	0.369257	1.438759
N244	N	0.904900	-0.297391	0.834544
N245	N	1.238233	0.035943	1.167878
N246	N	1.571566	0.369276	1.501211
C247	C	0.909757	-0.251617	0.866957
C248	C	1.243090	0.081716	1.200290
C249	C	1.576423	0.415050	1.533624
N250	N	0.914619	-0.205862	0.834559
N251	N	1.247953	0.127472	1.167893
N252	N	1.581286	0.460805	1.501226
N253	N	0.914617	-0.205881	0.772102
N254	N	1.247950	0.127452	1.105435
N255	N	1.581283	0.460786	1.438769
C256	C	0.909750	-0.251654	0.740168
C257	C	1.243084	0.081679	1.073501
C258	C	1.576417	0.415013	1.406834
C259	C	0.950044	-0.218142	0.971130
C260	C	1.283377	0.115192	1.304464
C261	C	1.616710	0.448525	1.637797
C262	C	0.950038	-0.218118	1.036874
C263	C	1.283372	0.115215	1.370207
C264	C	1.616705	0.448548	1.703541
C265	C	0.869468	-0.285008	1.036830
C266	C	1.202801	0.048326	1.370163
C267	C	1.536135	0.381659	1.703496
C268	C	0.869470	-0.285027	0.971087
C269	C	1.202803	0.048307	1.304421
C270	C	1.536137	0.381640	1.637754
C271	C	0.909761	-0.251594	0.938241
C272	C	1.243094	0.081739	1.271575
C273	C	1.576428	0.415072	1.604908
H274	H	0.670154	-0.191200	0.376419
H275	H	1.003487	0.142134	0.709752
H276	H	1.336821	0.475467	1.043085
H277	H	0.150053	-0.191111	0.376446
H278	H	0.483386	0.142222	0.709780
H279	H	0.816719	0.475556	1.043113
H280	H	0.982795	-0.952991	0.376420
H281	H	1.316129	-0.619658	0.709753
H282	H	1.649462	-0.286325	1.043086
H283	H	0.836779	-0.953210	0.230202
H284	H	1.170112	-0.619877	0.563536
H285	H	1.503446	-0.286544	0.896869
F286	F	0.786371	-0.695274	0.179796
F287	F	1.119705	-0.361941	0.513129
F288	F	1.453038	-0.028608	0.846463
F289	F	0.992890	-1.058869	0.386514
F290	F	1.326223	-0.725536	0.719847
F291	F	1.659557	-0.392202	1.053180
H292	H	0.982642	-0.549696	0.376339
H293	H	1.315975	-0.216362	0.709672
H294	H	1.649309	0.116971	1.043006
H295	H	0.149827	-0.312264	0.230087
H296	H	0.483160	0.021070	0.563420
H297	H	0.816493	0.354403	0.896753
F298	F	0.826588	-0.320702	0.670951
F299	F	1.159921	0.012631	1.004285
F300	F	1.493255	0.345965	1.337618
F301	F	0.277299	-0.320628	0.219986
F302	F	0.610632	0.012706	0.553319
F303	F	0.943966	0.346039	0.886653
H304	H	1.022937	-0.701761	0.416660
H305	H	1.356271	-0.368428	0.749993
H306	H	1.689604	-0.035094	1.083327
H307	H	0.669935	-0.312341	0.230040
H308	H	1.003268	0.020992	0.563373
H309	H	1.336602	0.354325	0.896706
H310	H	0.269317	-0.191134	0.376445
H311	H	0.602650	0.142200	0.709778
H312	H	0.935984	0.475533	1.043111
H313	H	0.836648	-0.312375	0.543469
H314	H	1.169981	0.020958	0.876802
H315	H	1.503315	0.354292	1.210135
H316	H	0.982837	-0.190995	0.662812
H317	H	1.316170	0.142338	0.996146
H318	H	1.649504	0.475671	1.329479
F319	F	0.992675	-0.443804	0.386373
F320	F	1.326008	-0.110471	0.719706
F321	F	1.659341	0.222862	1.053040
H322	H	0.836638	-0.549923	0.230107
H323	H	1.169972	-0.216590	0.563440
H324	H	1.503305	0.116743	0.896773
H325	H	0.982848	-0.190916	0.944386
H326	H	1.316181	0.142417	1.277719
H327	H	1.649514	0.475750	1.611053
H328	H	0.982843	-0.190878	1.063650
H329	H	1.316176	0.142456	1.396983
H330	H	1.649510	0.475789	1.730317
F331	F	0.542685	-0.182829	0.386508
F332	F	0.876018	0.150504	0.719841
F333	F	1.209351	0.483837	1.053175
F334	F	0.826594	-0.320588	1.071789
F335	F	1.159927	0.012746	1.405123
F336	F	1.493260	0.346079	1.738456
H337	H	0.836668	-0.312267	0.944310
H338	H	1.170002	0.021067	1.277643
H339	H	1.503335	0.354400	1.610976
H340	H	1.022970	-0.800808	0.416686
H341	H	1.356303	-0.467475	0.750020
H342	H	1.689637	-0.134142	1.083353
F343	F	0.786411	-0.807975	0.179814
F344	F	1.119744	-0.474642	0.513147
F345	F	1.453077	-0.141309	0.846481
F346	F	0.542432	-0.320670	0.219971
F347	F	0.875765	0.012664	0.553304
F348	F	1.209099	0.345997	0.886638
H349	H	0.836826	-1.052260	0.230215
H350	H	1.170159	-0.718927	0.563549
H351	H	1.503492	-0.385594	0.896882
F352	F	0.992913	-0.182674	0.535334
F353	F	1.326246	0.150659	0.868668
F354	F	1.659579	0.483992	1.202001
H355	H	0.836606	-0.450857	0.230088
H356	H	1.169939	-0.117524	0.563421
H357	H	1.503272	0.215809	0.896754
