data_functionalizedCrystal
_audit_creation_method	'MofGen! by Chris Wilmer'
_symmetry_space_group_name_H-M	'P1'
_symmetry_Int_Tables_number	1
_symmetry_cell_setting	triclinic
loop_
_symmetry_equiv_pos_as_xyz
  x,y,z
_cell_length_a	16.625547
_cell_length_b	25.639239
_cell_length_c	16.625539
_cell_angle_alpha	90.031255
_cell_angle_beta	90.024822
_cell_angle_gamma	90.038623
loop_
_atom_site_label
_atom_site_type_symbol
_atom_site_fract_x
_atom_site_fract_y
_atom_site_fract_z
Zn1	Zn	1.232590	-0.208151	0.455984
Zn2	Zn	1.732590	0.291849	0.955984
Zn3	Zn	1.232455	-0.295589	0.321145
Zn4	Zn	1.732455	0.204411	0.821145
Zn5	Zn	1.097751	-0.208169	0.321155
Zn6	Zn	1.597751	0.291831	0.821155
Zn7	Zn	1.097684	-0.295557	0.455924
Zn8	Zn	1.597684	0.204443	0.955924
O9	O	1.165120	-0.251866	0.388552
O10	O	1.665120	0.248134	0.888552
O11	O	1.345404	-0.219755	0.438118
O12	O	1.845404	0.280245	0.938118
O13	O	1.214558	-0.284013	0.208313
O14	O	1.714558	0.215987	0.708313
O15	O	1.115723	-0.135001	0.339070
O16	O	1.615723	0.364999	0.839070
O17	O	1.345305	-0.283995	0.339052
O18	O	1.845305	0.216005	0.839052
O19	O	1.214788	-0.134988	0.438128
O20	O	1.714788	0.365012	0.938128
O21	O	1.115592	-0.219786	0.208321
O22	O	1.615592	0.280214	0.708321
O23	O	0.984910	-0.219755	0.339012
O24	O	1.484910	0.280245	0.839012
O25	O	1.115607	-0.283941	0.568765
O26	O	1.615607	0.216059	1.068765
O27	O	0.984860	-0.283959	0.438026
O28	O	1.484860	0.216041	0.938026
O29	O	1.214722	-0.219724	0.568809
O30	O	1.714722	0.280276	1.068809
O31	O	1.214492	-0.368750	0.338994
O32	O	1.714492	0.131250	0.838994
O33	O	1.115477	-0.368726	0.438016
O34	O	1.615477	0.131274	0.938016
C35	C	0.955629	-0.251856	0.388514
C36	C	1.455629	0.248144	0.888514
C37	C	0.866008	-0.251864	0.388517
C38	C	1.366008	0.248136	0.888517
C39	C	0.793225	-0.251865	0.388527
C40	C	1.293225	0.248135	0.888527
C41	C	0.701917	-0.251868	0.388547
C42	C	1.201917	0.248132	0.888547
C43	C	0.629141	-0.251873	0.388567
C44	C	1.129141	0.248127	0.888567
C45	C	0.537826	-0.251877	0.388587
C46	C	1.037826	0.248123	0.888587
C47	C	1.164984	-0.387709	0.388515
C48	C	1.664984	0.112291	0.888515
C49	C	1.165000	-0.445823	0.388526
C50	C	1.665000	0.054177	0.888526
C51	C	1.216812	-0.806185	0.337079
C52	C	1.716812	-0.306185	0.837079
C53	C	1.216843	-0.860790	0.337090
C54	C	1.716843	-0.360790	0.837090
O55	O	1.260755	-0.889026	0.293307
O56	O	1.760755	-0.389026	0.793307
N57	N	1.165262	-0.888105	0.388605
N58	N	1.665262	-0.388105	0.888605
C59	C	1.113651	-0.860814	0.440119
C60	C	1.613651	-0.360814	0.940119
O61	O	1.069781	-0.889062	0.483939
O62	O	1.569781	-0.389062	0.983939
C63	C	1.113625	-0.806210	0.440112
C64	C	1.613625	-0.306210	0.940112
C65	C	1.165204	-0.778898	0.388587
C66	C	1.665204	-0.278898	0.888587
C67	C	1.268387	-0.778873	0.285559
C68	C	1.768387	-0.278873	0.785559
C69	C	1.268355	-0.724272	0.285547
C70	C	1.768355	-0.224272	0.785547
C71	C	1.216747	-0.696984	0.337056
C72	C	1.716747	-0.196984	0.837056
C73	C	1.165171	-0.724297	0.388576
C74	C	1.665171	-0.224297	0.888576
C75	C	1.062019	-0.778920	0.491630
C76	C	1.562019	-0.278920	0.991630
C77	C	1.061997	-0.724313	0.491618
C78	C	1.561997	-0.224313	0.991618
C79	C	1.113576	-0.697000	0.440093
C80	C	1.613576	-0.197000	0.940093
C81	C	1.113531	-0.642409	0.440072
C82	C	1.613531	-0.142409	0.940072
N83	N	1.165112	-0.615093	0.388557
N84	N	1.665112	-0.115093	0.888557
C85	C	1.216720	-0.642381	0.337048
C86	C	1.716720	-0.142381	0.837048
C87	C	1.113712	-0.975484	0.440132
C88	C	1.613712	-0.475484	0.940132
C89	C	1.113734	-1.030087	0.440136
C90	C	1.613734	-0.530087	0.940136
C91	C	1.216927	-1.030059	0.337107
C92	C	1.716927	-0.530059	0.837107
C93	C	1.216900	-0.975456	0.337100
C94	C	1.716900	-0.475456	0.837100
C95	C	1.165293	-0.948169	0.388616
C96	C	1.665293	-0.448169	0.888616
C97	C	1.216648	-0.527716	0.337027
C98	C	1.716648	-0.027716	0.837027
C99	C	1.216608	-0.473111	0.337018
C100	C	1.716608	0.026889	0.837018
C101	C	1.113418	-0.473143	0.440049
C102	C	1.613418	0.026857	0.940049
C103	C	1.113454	-0.527744	0.440056
C104	C	1.613454	-0.027744	0.940056
C105	C	1.165076	-0.555029	0.388542
C106	C	1.665076	-0.055029	0.888542
O107	O	1.069644	-0.614138	0.483835
O108	O	1.569644	-0.114138	0.983835
O109	O	1.260591	-0.614126	0.293244
O110	O	1.760591	-0.114126	0.793244
C111	C	1.375429	-0.251877	0.388591
C112	C	1.875429	0.248123	0.888591
C113	C	1.465050	-0.251881	0.388607
C114	C	1.965050	0.248119	0.888607
C115	C	1.165172	-0.251827	0.598861
C116	C	1.665172	0.248173	1.098861
C117	C	1.165195	-0.251811	0.688482
C118	C	1.665195	0.248189	1.188482
C119	C	1.165278	-0.115493	0.388607
C120	C	1.665278	0.384507	0.888607
C121	C	1.165345	-0.057379	0.388630
C122	C	1.665345	0.442621	0.888630
C123	C	1.165114	-0.251867	0.179061
C124	C	1.665114	0.248133	0.679061
C125	C	1.165248	-0.251737	0.089441
C126	C	1.665248	0.248263	0.589441
C127	C	1.165232	-0.251752	1.016658
C128	C	1.665232	0.248248	1.516658
C129	C	1.165219	-0.251770	0.925350
C130	C	1.665219	0.248230	1.425350
C131	C	1.165214	-0.251782	0.852573
C132	C	1.665214	0.248218	1.352573
C133	C	1.165200	-0.251799	0.761259
C134	C	1.665200	0.248201	1.261259
H135	H	1.258610	-0.450874	0.295057
H136	H	1.758610	0.049126	0.795057
C137	C	1.325090	-0.694235	0.228859
C138	C	1.825090	-0.194235	0.728859
N139	N	1.367824	-0.671615	0.186156
N140	N	1.867824	-0.171615	0.686156
C141	C	1.273704	-1.060086	0.280453
C142	C	1.773704	-0.560086	0.780453
N143	N	1.316466	-1.082704	0.237784
N144	N	1.816466	-0.582704	0.737784
C145	C	1.056712	-0.557789	0.496733
C146	C	1.556712	-0.057789	0.996733
N147	N	1.013979	-0.580415	0.539429
N148	N	1.513979	-0.080415	1.039429
H149	H	1.258684	-0.549925	0.295082
H150	H	1.758684	-0.049925	0.795082
C151	C	1.005224	-0.694301	0.548293
C152	C	1.505224	-0.194301	1.048293
N153	N	0.962461	-0.671697	0.590978
N154	N	1.462461	-0.171697	1.090978
C155	C	1.056655	-0.443116	0.496709
C156	C	1.556655	0.056884	0.996709
N157	N	1.013906	-0.420498	0.539390
N158	N	1.513906	0.079502	1.039390
H159	H	1.020014	-0.801148	0.533583
H160	H	1.520014	-0.301148	1.033583
C161	C	1.056985	-1.060124	0.496809
C162	C	1.556985	-0.560124	0.996809
N163	N	1.014243	-1.082747	0.539501
N164	N	1.514243	-0.582747	1.039501
C165	C	1.273643	-0.945417	0.280422
C166	C	1.773643	-0.445417	0.780422
N167	N	1.316386	-0.922794	0.237730
N168	N	1.816386	-0.422794	0.737730
C169	C	1.325161	-0.808881	0.228886
C170	C	1.825161	-0.308881	0.728886
N171	N	1.367921	-0.831479	0.186191
N172	N	1.867921	-0.331479	0.686191
C173	C	1.056940	-0.945474	0.496811
C174	C	1.556940	-0.445474	0.996811
N175	N	1.014183	-0.922872	0.539507
N176	N	1.514183	-0.422872	1.039507
