data_functionalizedCrystal
_audit_creation_method	'MofGen! by Chris Wilmer'
_symmetry_space_group_name_H-M	'P1'
_symmetry_Int_Tables_number	1
_symmetry_cell_setting	triclinic
loop_
_symmetry_equiv_pos_as_xyz
  x,y,z
_cell_length_a	17.699077
_cell_length_b	17.019294
_cell_length_c	16.176319
_cell_angle_alpha	86.114226
_cell_angle_beta	89.993140
_cell_angle_gamma	83.337580
loop_
_atom_site_label
_atom_site_type_symbol
_atom_site_fract_x
_atom_site_fract_y
_atom_site_fract_z
O1	O	1.004150	0.099735	-0.075834
O2	O	1.504150	0.599735	0.424166
O3	O	0.783780	0.112718	-0.076762
O4	O	1.283780	0.612718	0.423238
O5	O	0.900112	-0.008619	-0.068119
O6	O	1.400112	0.491381	0.431881
O7	O	0.887818	0.221071	-0.084478
O8	O	1.387818	0.721071	0.415522
O9	O	0.900096	-0.008626	0.069375
O10	O	1.400096	0.491374	0.569375
O11	O	0.783764	0.112710	0.060731
O12	O	1.283764	0.612710	0.560731
O13	O	1.004134	0.099727	0.061660
O14	O	1.504134	0.599727	0.561660
Cu15	Cu	0.893948	0.106218	0.073750
Cu16	Cu	1.393948	0.606218	0.573750
Cu17	Cu	0.893967	0.106227	-0.088852
Cu18	Cu	1.393967	0.606227	0.411148
O19	O	0.887802	0.221064	0.053016
O20	O	1.387802	0.721064	0.553016
C21	C	0.755575	0.112250	-0.007983
C22	C	1.255575	0.612250	0.492017
C23	C	0.671556	0.110857	-0.007885
C24	C	1.171556	0.610857	0.492115
C25	C	0.632079	0.110196	0.067110
C26	C	1.132079	0.610196	0.567110
C27	C	0.553136	0.108874	0.067205
C28	C	1.053136	0.608874	0.567205
C29	C	0.513669	0.108219	-0.007696
C30	C	1.013669	0.608219	0.492304
C31	C	0.553152	0.108877	-0.082697
C32	C	1.053152	0.608877	0.417303
C33	C	0.632094	0.110193	-0.082791
C34	C	1.132094	0.610193	0.417209
C35	C	0.234785	0.103569	-0.082321
C36	C	0.734785	0.603569	0.417679
C37	C	0.155836	0.102255	-0.082222
C38	C	0.655836	0.602255	0.417778
C39	C	0.155826	0.102250	0.067676
C40	C	0.655826	0.602250	0.567676
C41	C	0.234769	0.103566	0.067582
C42	C	0.734769	0.603566	0.567582
C43	C	0.274245	0.104220	-0.007418
C44	C	0.774245	0.604220	0.492582
C45	C	0.359844	0.105651	-0.007520
C46	C	0.859844	0.605651	0.492480
C47	C	0.428070	0.106793	-0.007596
C48	C	0.928070	0.606793	0.492404
C49	C	0.899638	-0.038011	0.002720
C50	C	1.399638	0.461989	0.502720
C51	C	0.898239	-0.125579	0.008951
C52	C	1.398239	0.374421	0.508951
C53	C	0.897592	-0.166710	-0.063069
C54	C	1.397592	0.333290	0.436931
C55	C	0.896273	-0.248988	-0.057211
C56	C	1.396273	0.251012	0.442789
C57	C	0.895606	-0.290135	0.020667
C58	C	1.395606	0.209865	0.520667
C59	C	0.896251	-0.248998	0.092692
C60	C	1.396251	0.251002	0.592692
C61	C	0.897564	-0.166720	0.086834
C62	C	1.397564	0.333280	0.586834
C63	C	0.891634	-0.538561	0.042106
C64	C	1.391634	-0.038561	0.542106
C65	C	0.890322	-0.620845	0.047959
C66	C	1.390322	-0.120845	0.547959
C67	C	0.890343	-0.620829	-0.101945
C68	C	1.390343	-0.120829	0.398055
C69	C	0.891662	-0.538550	-0.107797
C70	C	1.391662	-0.038550	0.392203
C71	C	0.892302	-0.497420	-0.035772
C72	C	1.392302	0.002580	0.464228
C73	C	0.894260	-0.374238	0.026657
C74	C	1.394260	0.125762	0.526657
C75	C	0.893643	-0.413318	-0.041762
C76	C	1.393643	0.086682	0.458238
C77	C	1.032340	0.100195	-0.007122
C78	C	1.532340	0.600195	0.492878
C79	C	1.116359	0.101589	-0.007225
C80	C	1.616359	0.601589	0.492775
C81	C	0.888277	0.250456	-0.017824
C82	C	1.388277	0.750456	0.482176
C83	C	0.889675	0.338024	-0.024061
C84	C	1.389675	0.838024	0.475939
N85	N	0.893940	0.106211	0.188116
N86	N	1.393940	0.606211	0.688116
N87	N	0.893980	0.106228	-0.203218
N88	N	1.393980	0.606228	0.296782
C89	C	0.945467	0.052505	0.235206
C90	C	1.445467	0.552505	0.735206
C91	C	0.945471	0.052504	0.321753
C92	C	1.445471	0.552504	0.821753
C93	C	0.893951	0.106214	0.361208
C94	C	1.393951	0.606214	0.861208
C95	C	0.842418	0.159922	0.314112
C96	C	1.342418	0.659922	0.814112
C97	C	0.842411	0.159919	0.227566
C98	C	1.342411	0.659919	0.727566
C99	C	0.842444	0.159937	0.663139
C100	C	1.342444	0.659937	1.163139
C101	C	0.842456	0.159938	0.749690
C102	C	1.342456	0.659938	1.249690
C103	C	0.945504	0.052523	0.757325
C104	C	1.445504	0.552523	1.257325
C105	C	0.945497	0.052519	0.670780
C106	C	1.445497	0.552519	1.170780
C107	C	0.893962	0.106224	0.623691
C108	C	1.393962	0.606224	1.123691
C109	C	0.893957	0.106224	0.529847
C110	C	1.393957	0.606224	1.029847
C111	C	0.893958	0.106219	0.455050
C112	C	1.393958	0.606219	0.955050
H113	H	0.266917	0.104099	-0.143391
H114	H	0.766917	0.604099	0.356609
H115	H	0.664235	0.110733	-0.143860
H116	H	1.164235	0.610733	0.356140
H117	H	0.987428	0.008772	0.360093
H118	H	1.487428	0.508772	0.860093
Br119	Br	0.889425	-0.676689	0.153658
Br120	Br	1.389425	-0.176689	0.653658
Br121	Br	0.894550	-0.357476	-0.147451
Br122	Br	1.394550	0.142524	0.352549
H123	H	0.987452	0.008786	0.638658
H124	H	1.487452	0.508786	1.138658
Br125	Br	0.889475	-0.676653	-0.199688
Br126	Br	1.389475	-0.176653	0.300312
H127	H	0.800451	0.203651	0.189226
H128	H	1.300451	0.703651	0.689226
Br129	Br	0.772490	0.232810	0.367655
Br130	Br	1.272490	0.732810	0.867655
H131	H	0.521013	0.108338	-0.143683
H132	H	1.021013	0.608338	0.356317
H133	H	0.895703	-0.282506	0.156103
H134	H	1.395703	0.217494	0.656103
Br135	Br	1.015446	-0.020366	0.821235
Br136	Br	1.515446	0.479634	1.321235
Br137	Br	0.288325	0.104462	0.169237
Br138	Br	0.788325	0.604462	0.669237
Br139	Br	0.898438	-0.110898	0.184579
Br140	Br	1.398438	0.389102	0.684579
H141	H	0.664206	0.110736	0.128104
H142	H	1.164206	0.610736	0.628104
H143	H	0.893719	-0.407749	0.090065
H144	H	1.393719	0.092251	0.590065
Br145	Br	0.499561	0.107991	0.168989
Br146	Br	0.999561	0.607991	0.668989
Br147	Br	0.898506	-0.110876	-0.168766
Br148	Br	1.398506	0.389124	0.331234
H149	H	0.987424	0.008772	0.203087
H150	H	1.487424	0.508772	0.703087
H151	H	0.895750	-0.282474	-0.115857
H152	H	1.395750	0.217526	0.384143
H153	H	0.892206	-0.505054	-0.171214
H154	H	1.392206	-0.005054	0.328786
H155	H	0.892170	-0.505085	0.100754
H156	H	1.392170	-0.005085	0.600754
H157	H	0.123675	0.101713	0.128745
H158	H	0.623675	0.601713	0.628745
Br159	Br	0.102275	0.101367	-0.183881
Br160	Br	0.602275	0.601367	0.316119
Br161	Br	0.772531	0.232835	0.803237
Br162	Br	1.272531	0.732835	1.303237
Br163	Br	0.772507	0.232822	0.599238
Br164	Br	1.272507	0.732822	1.099238
