data_functionalizedCrystal
_audit_creation_method	'MofGen! by Chris Wilmer'
_symmetry_space_group_name_H-M	'P1'
_symmetry_Int_Tables_number	1
_symmetry_cell_setting	triclinic
loop_
_symmetry_equiv_pos_as_xyz
  x,y,z
_cell_length_a	12.811438
_cell_length_b	10.654541
_cell_length_c	11.295501
_cell_angle_alpha	94.562672
_cell_angle_beta	99.998097
_cell_angle_gamma	84.262577
loop_
_atom_site_label
_atom_site_type_symbol
_atom_site_fract_x
_atom_site_fract_y
_atom_site_fract_z
O1	O	1.410053	0.188391	0.251288
O2	O	1.102468	0.204242	0.218076
O3	O	1.263333	0.013599	0.235438
O4	O	1.249187	0.379035	0.233925
O5	O	1.250506	-0.001670	0.036002
O6	O	1.089641	0.188973	0.018640
O7	O	1.397226	0.173122	0.051851
Cu8	Cu	1.242262	0.179654	0.017035
Cu9	Cu	1.257431	0.197711	0.252892
O10	O	1.236360	0.363766	0.034489
C11	C	1.056669	0.195251	0.114105
C12	C	0.939315	0.191195	0.101433
C13	C	0.766917	0.177155	-0.025133
C14	C	0.877182	0.180967	-0.013232
C15	C	0.891175	0.197615	0.204205
C16	C	0.780910	0.193803	0.192305
C17	C	0.718785	0.183571	0.077632
C18	C	0.608519	0.179750	0.065732
C19	C	0.622513	0.196407	0.283169
C20	C	0.732778	0.200219	0.295069
C21	C	1.255881	-0.040837	0.135609
C22	C	1.252775	-0.180290	0.135275
C23	C	1.445133	-0.207665	0.156030
C24	C	1.539848	-0.286866	0.166247
C25	C	1.536923	-0.417892	0.165935
C26	C	1.439273	-0.469720	0.155409
C27	C	1.344558	-0.390519	0.145192
C28	C	1.347493	-0.259491	0.145501
C29	C	1.152204	-0.363144	0.124445
C30	C	1.155125	-0.232117	0.124749
C31	C	1.054553	-0.414971	0.113919
C32	C	0.959836	-0.335770	0.103693
C33	C	0.962764	-0.204736	0.104004
C34	C	1.060410	-0.152916	0.114532
C35	C	1.443024	0.182113	0.155825
C36	C	1.560379	0.186170	0.168504
C37	C	1.243812	0.418202	0.134321
C38	C	1.246919	0.557655	0.134662
N39	N	1.231600	0.166953	-0.148853
C40	C	1.344838	0.301893	-0.385911
C41	C	1.336789	0.292284	-0.511444
C42	C	1.207460	0.138121	-0.525453
C43	C	1.215509	0.147729	-0.399920
C44	C	1.284199	0.229619	-0.330153
C45	C	1.292242	0.239234	-0.204618
C46	C	1.162919	0.085065	-0.218630
C47	C	1.154870	0.075456	-0.344163
N48	N	1.268101	0.210402	0.418781
H49	H	0.557937	0.171427	-0.027640
C50	C	1.641114	-0.505016	0.177173
N51	N	1.719590	-0.570637	0.185636
H52	H	1.436901	-0.576409	0.155170
H53	H	1.052179	-0.521660	0.113673
C54	C	0.959530	0.208873	0.330335
N55	N	1.011017	0.217351	0.425338
H56	H	0.783374	0.208555	0.388432
H57	H	1.113536	0.026221	-0.173220
H58	H	0.880337	-0.377979	0.095131
H59	H	0.716333	0.168831	-0.118504
H60	H	1.348168	0.305918	-0.147816
C61	C	1.403485	0.371805	-0.572773
N62	N	1.453720	0.431708	-0.618967
H63	H	1.151547	0.071436	-0.582278
H64	H	0.583312	0.201636	0.366847
C65	C	1.063641	-0.008785	0.114876
N66	N	1.066079	0.099776	0.115141
H67	H	1.447523	-0.100978	0.156269
H68	H	0.885635	-0.140257	0.095689
H69	H	1.400758	0.368582	-0.329106
H70	H	1.098948	0.008779	-0.400984
C71	C	0.930123	0.173903	-0.126281
N72	N	0.969999	0.168581	-0.211435
H73	H	1.619352	-0.244654	0.174807
