data_functionalizedCrystal
_audit_creation_method	'MofGen! by Chris Wilmer'
_symmetry_space_group_name_H-M	'P1'
_symmetry_Int_Tables_number	1
_symmetry_cell_setting	triclinic
loop_
_symmetry_equiv_pos_as_xyz
  x,y,z
_cell_length_a	6.817900
_cell_length_b	9.582889
_cell_length_c	13.561464
_cell_angle_alpha	106.627706
_cell_angle_beta	104.692446
_cell_angle_gamma	111.207298
loop_
_atom_site_label
_atom_site_type_symbol
_atom_site_fract_x
_atom_site_fract_y
_atom_site_fract_z
V1	V	-4.166757	-0.349992	-0.345902
O2	O	-4.110563	-0.130352	-0.339527
O3	O	-4.156789	-0.552433	-0.343335
O4	O	-4.161404	-0.409185	-0.496854
O5	O	-4.105916	-0.274592	-0.184945
V6	V	-4.639827	-0.316091	-0.326675
O7	O	-4.450944	-0.424359	-0.388079
O8	O	-4.805836	-0.241725	-0.284498
O9	O	-4.426588	-0.113651	-0.329242
O10	O	-4.813417	-0.535731	-0.333050
O11	O	-4.818064	-0.391492	-0.487631
O12	O	-4.421973	-0.256898	-0.175723
C13	C	-4.009746	-0.599766	-0.337827
C14	C	-4.083170	-0.765679	-0.336734
C15	C	-4.015632	-0.417036	-0.533653
C16	C	-4.092793	-0.466772	-0.657056
C17	C	-4.025651	-0.032411	-0.941766
C18	C	-3.953085	0.014231	-0.825830
C19	C	-3.988007	-0.106016	-0.783631
C20	C	-4.095505	-0.272913	-0.857379
C21	C	-4.168094	-0.319560	-0.973327
C22	C	-4.130450	-0.393165	-0.815191
C23	C	-4.237948	-0.560062	-0.888939
C24	C	-4.310526	-0.606701	-1.004875
C25	C	-4.275604	-0.486455	-1.047075
C26	C	-4.057861	-0.346517	-0.699243
C27	C	-4.200304	-0.633667	-0.730804
C28	C	-4.272869	-0.680309	-0.846740
C29	C	-4.236973	-0.066324	-0.334747
C30	C	-4.142790	0.099584	-0.335847
C31	C	-4.231086	-0.249049	-0.138918
C32	C	-4.133162	-0.199305	-0.015514
H33	H	-3.970340	-0.210629	-0.639208
O34	O	-4.376940	-0.842431	-0.918327
C35	C	-4.226649	-0.909103	-0.894275
H36	H	-4.042066	-0.805785	-0.849460
H37	H	-4.247644	-1.001779	-0.975901
H38	H	-4.268705	-0.973656	-0.838018
H39	H	-4.228744	-0.731582	-0.696446
O40	O	-4.415338	-0.768822	-1.076570
C41	C	-4.637480	-0.813677	-1.149901
H42	H	-4.698142	-0.724641	-1.109716
H43	H	-4.760342	-0.944305	-1.166950
H44	H	-4.633589	-0.808358	-1.232334
H45	H	-4.334679	-0.524422	-1.141478
O46	O	-3.917678	-0.060519	-0.670997
C47	C	-4.030328	0.024481	-0.628919
H48	H	-4.089238	0.078325	-0.688294
H49	H	-3.907192	0.128366	-0.542406
H50	H	-4.185640	-0.064508	-0.622031
O51	O	-3.848386	0.176299	-0.754071
C52	C	-3.626206	0.221191	-0.680761
H53	H	-3.618498	0.106627	-0.675327
H54	H	-3.584626	0.312645	-0.593747
H55	H	-3.495837	0.280602	-0.713927
O56	O	-3.992149	0.084210	-0.982906
C57	C	-4.205807	0.056531	-1.054308
H58	H	-4.337150	-0.078209	-1.087130
H59	H	-4.187169	0.086565	-1.127977
H60	H	-4.265871	0.138853	-1.005557
