data_functionalizedCrystal
_audit_creation_method	'MofGen! by Chris Wilmer'
_symmetry_space_group_name_H-M	'P1'
_symmetry_Int_Tables_number	1
_symmetry_cell_setting	triclinic
loop_
_symmetry_equiv_pos_as_xyz
  x,y,z
_cell_length_a	14.044220
_cell_length_b	16.176319
_cell_length_c	17.699092
_cell_angle_alpha	90.001079
_cell_angle_beta	88.237623
_cell_angle_gamma	89.997191
loop_
_atom_site_label
_atom_site_type_symbol
_atom_site_fract_x
_atom_site_fract_y
_atom_site_fract_z
O1	O	1.257298	-0.068653	0.182437
O2	O	0.981344	-0.068674	0.175853
O3	O	1.127113	-0.068661	0.069494
O4	O	1.111528	-0.068666	0.288796
O5	O	1.127091	0.068832	0.069499
O6	O	0.981322	0.068819	0.175858
O7	O	1.257276	0.068840	0.182442
Cu8	Cu	1.119297	0.081384	0.179150
Cu9	Cu	1.119323	-0.081218	0.179144
O10	O	1.111506	0.068827	0.288801
C11	C	0.946025	0.000070	0.172974
C12	C	0.840818	0.000062	0.164378
N13	N	1.119342	-0.195583	0.179135
C14	C	1.126542	0.000084	0.041261
C15	C	1.124863	0.000080	-0.042873
C16	C	0.648193	0.000078	0.148663
C17	C	0.590421	0.000081	0.209629
C18	C	0.483238	0.000090	0.200884
C19	C	0.755386	0.000069	0.157406
C20	C	1.292595	0.000095	0.185321
C21	C	1.397801	0.000097	0.193917
N22	N	1.119285	0.195749	0.179154
C23	C	1.183896	0.761137	0.132058
C24	C	1.183892	0.674590	0.132063
C25	C	1.119328	0.631324	0.179141
C26	C	1.054770	0.674610	0.226224
C27	C	1.054780	0.761156	0.226222
C28	C	1.054732	0.325582	0.226232
C29	C	1.054725	0.239030	0.226228
C30	C	1.183844	0.239017	0.132072
C31	C	1.183854	0.325562	0.132071
C32	C	1.119300	0.368840	0.179156
C33	C	1.119306	0.462684	0.179151
C34	C	1.119316	0.537482	0.179143
C35	C	1.124088	-0.074868	-0.082397
C36	C	1.122504	-0.074869	-0.161450
C37	C	1.121702	0.000079	-0.200976
C38	C	1.122474	0.075033	-0.161446
C39	C	1.124051	0.075034	-0.082395
C40	C	1.116112	0.075034	-0.480250
C41	C	1.114538	0.075028	-0.559307
C42	C	1.114566	-0.074869	-0.559304
C43	C	1.116143	-0.074869	-0.480253
C44	C	1.116910	0.000085	-0.440730
C45	C	1.118625	0.000085	-0.355013
C46	C	1.119993	0.000080	-0.286692
C47	C	1.112077	0.000080	0.317034
C48	C	1.113756	0.000079	0.401168
H49	H	0.621459	0.000075	0.268390
N50	N	0.609249	0.000086	0.074956
N51	N	0.520969	0.000092	0.067869
H52	H	0.493454	0.000096	0.015814
H53	H	1.121878	-0.135900	-0.193627
N54	N	1.249847	0.805316	0.083956
N55	N	1.307481	0.766659	0.041927
H56	H	1.354062	0.797857	0.007954
H57	H	1.236458	0.639352	0.093730
N58	N	1.249736	0.194792	0.083943
N59	N	1.248528	0.204459	0.013910
H60	H	1.295039	0.173218	-0.020094
H61	H	1.236425	0.360787	0.093733
N62	N	1.113689	0.151590	-0.599682
N63	N	1.046023	0.168296	-0.641326
H64	H	1.045422	0.222365	-0.669842
N65	N	1.124889	-0.151428	-0.042026
N66	N	1.058989	-0.168157	0.004550
H67	H	1.059550	-0.222230	0.033061
H68	H	1.002168	0.360812	0.264568
H69	H	1.002148	0.203805	0.264567
N70	N	0.988832	0.630405	0.274315
N71	N	0.988831	0.553133	0.274310
H72	H	0.942259	0.521913	0.308275
N73	N	0.988833	0.805355	0.274316
N74	N	0.931190	0.766717	0.316346
H75	H	0.884614	0.797931	0.350316
N76	N	1.116922	0.151593	-0.439883
N77	N	1.184579	0.168322	-0.398239
H78	H	1.185153	0.222395	-0.369726
H79	H	1.116801	-0.135899	-0.448075
H80	H	1.113936	-0.135900	-0.591494
H81	H	1.121815	0.136058	-0.193635
H82	H	1.124669	0.136064	-0.050215
