data_functionalizedCrystal
_audit_creation_method	'MofGen! by Chris Wilmer'
_symmetry_space_group_name_H-M	'P1'
_symmetry_Int_Tables_number	1
_symmetry_cell_setting	triclinic
loop_
_symmetry_equiv_pos_as_xyz
  x,y,z
_cell_length_a	12.594517
_cell_length_b	12.594516
_cell_length_c	16.625539
_cell_angle_alpha	89.976325
_cell_angle_beta	90.020900
_cell_angle_gamma	89.973469
loop_
_atom_site_label
_atom_site_type_symbol
_atom_site_fract_x
_atom_site_fract_y
_atom_site_fract_z
Zn1	Zn	1.627183	0.423746	0.455942
Zn2	Zn	1.627042	0.601747	0.321121
Zn3	Zn	1.449189	0.423783	0.321122
Zn4	Zn	1.449136	0.601682	0.455910
O5	O	1.538138	0.512739	0.388524
O6	O	1.776111	0.447370	0.438071
O7	O	1.603413	0.578182	0.208288
O8	O	1.472881	0.274832	0.339021
O9	O	1.776007	0.578147	0.339018
O10	O	1.603653	0.274805	0.438073
O11	O	1.472744	0.447432	0.208289
O12	O	1.300236	0.447369	0.338989
O13	O	1.472792	0.578036	0.568746
O14	O	1.300198	0.578072	0.438017
O15	O	1.603602	0.447307	0.568770
O16	O	1.603362	0.750684	0.338986
O17	O	1.472655	0.750637	0.438015
C18	C	1.261597	0.512718	0.388500
C19	C	1.143291	0.512735	0.388509
C20	C	1.074028	0.441549	0.334750
C21	C	1.003199	0.538636	0.314920
C22	C	1.003321	0.415695	0.408353
C23	C	1.074021	0.609873	0.368640
C24	C	1.074149	0.486866	0.462107
C25	C	1.003352	0.584021	0.442305
C26	C	1.538016	0.789280	0.388514
C27	C	1.538062	0.907586	0.388538
C28	C	1.466951	0.976852	0.442361
C29	C	1.441005	1.047712	0.368786
C30	C	1.564066	1.047524	0.462124
C31	C	1.512065	0.976888	0.314924
C32	C	1.635171	0.976694	0.408311
C33	C	1.609262	1.047523	0.334685
C34	C	1.815759	0.512762	0.388548
C35	C	1.934064	0.512771	0.388558
C36	C	1.538207	0.512660	0.598833
C37	C	1.538236	0.512626	0.688454
C38	C	1.538242	1.235119	0.388549
C39	C	1.538166	1.116813	0.388557
C40	C	1.538130	0.512742	0.179033
C41	C	1.538307	0.512476	0.089412
C42	C	1.538286	0.512507	1.016630
C43	C	1.538269	0.512544	0.925321
C44	C	1.538262	0.512568	0.852545
C45	C	1.538244	0.512603	0.761230
H46	H	0.972037	0.560539	0.252701
H47	H	0.972515	0.644305	0.487788
H48	H	1.490018	0.945988	0.252683
Br49	Br	0.951546	0.278893	0.436291
H50	H	1.669443	1.078358	0.289124
H51	H	1.358932	1.078930	0.352078
H52	H	1.406723	0.945820	0.487812
Br53	Br	1.771937	0.924663	0.436217
H54	H	1.105061	0.381408	0.289233
Br55	Br	1.125558	0.746721	0.340581
H56	H	1.105337	0.464934	0.524308
Br57	Br	1.600652	1.099249	0.565831
