data_functionalizedCrystal
_audit_creation_method	'MofGen! by Chris Wilmer'
_symmetry_space_group_name_H-M	'P1'
_symmetry_Int_Tables_number	1
_symmetry_cell_setting	triclinic
loop_
_symmetry_equiv_pos_as_xyz
  x,y,z
_cell_length_a	15.944551
_cell_length_b	12.837942
_cell_length_c	11.295483
_cell_angle_alpha	85.469583
_cell_angle_beta	85.890183
_cell_angle_gamma	90.836161
loop_
_atom_site_label
_atom_site_type_symbol
_atom_site_fract_x
_atom_site_fract_y
_atom_site_fract_z
O1	O	1.130324	-0.126707	-0.099142
O2	O	0.887092	-0.143192	-0.099119
O3	O	1.003314	0.015953	-0.099122
O4	O	1.014102	-0.285852	-0.099138
O5	O	0.993105	0.001997	0.098929
O6	O	0.876882	-0.157149	0.098932
O7	O	1.120114	-0.140664	0.098909
Cu8	Cu	0.997566	-0.150180	0.117005
Cu9	Cu	1.009640	-0.133675	-0.117214
O10	O	1.003892	-0.299809	0.098913
C11	C	0.850638	-0.149486	-0.000090
C12	C	0.757228	-0.147435	-0.000081
C13	C	0.994566	0.047596	-0.000097
C14	C	0.983698	0.162674	-0.000098
C15	C	1.156568	-0.134369	-0.000122
C16	C	1.249979	-0.136420	-0.000139
C17	C	1.473118	-0.239970	-0.000117
C18	C	1.535326	-0.185004	-0.097763
C19	C	1.421001	-0.140132	-0.000121
C20	C	1.525236	-0.198741	0.097500
C21	C	1.586200	-0.143726	-0.000100
C22	C	1.481982	-0.085133	-0.097848
C23	C	1.471883	-0.098890	0.097502
C24	C	1.534068	-0.043850	-0.000167
C25	C	1.325834	-0.138065	-0.000135
C26	C	1.681366	-0.145785	-0.000095
C27	C	1.012641	-0.331451	-0.000115
C28	C	1.023509	-0.446528	-0.000122
N29	N	0.989080	-0.161789	0.281741
C30	C	1.114352	0.403626	-0.000135
C31	C	1.104145	0.511752	-0.000136
C32	C	0.953077	0.487056	-0.000110
C33	C	0.963284	0.378930	-0.000109
C34	C	1.043924	0.337218	-0.000120
C35	C	1.054130	0.229089	-0.000110
C36	C	0.903064	0.204396	-0.000092
C37	C	0.892856	0.312522	-0.000093
N38	N	1.018133	-0.122059	-0.281950
C39	C	1.079217	-0.038438	0.531028
C40	C	1.072811	-0.047218	0.655692
C41	C	0.969856	-0.188122	0.655735
C42	C	0.976263	-0.179343	0.531071
C43	C	1.030946	-0.104499	0.468722
C44	C	1.037357	-0.095725	0.344056
C45	C	0.934398	-0.236624	0.344101
C46	C	0.927991	-0.245403	0.468765
H47	H	1.446447	-0.322834	-0.000218
H48	H	0.827201	0.346499	-0.000089
H49	H	1.112117	0.006577	0.706418
C50	C	1.218713	0.303511	-0.101948
C51	C	1.202986	0.357762	-0.000141
H52	H	1.273430	0.275193	-0.101945
H53	H	1.215158	0.350045	-0.171000
H54	H	1.178221	0.248492	-0.101932
H55	H	1.243474	0.412787	-0.000161
H56	H	1.206547	0.311225	0.068929
H57	H	1.563074	-0.221416	-0.180317
C58	C	0.785474	-0.308875	0.507215
C59	C	0.867884	-0.327664	0.537311
H60	H	0.748367	-0.359658	0.549538
H61	H	0.782387	-0.313111	0.424063
H62	H	0.769774	-0.241118	0.527652
H63	H	0.883586	-0.395418	0.516866
H64	H	0.870974	-0.323438	0.620481
C65	C	1.368358	-0.019032	-0.208453
C66	C	1.456202	-0.020321	-0.209426
H67	H	1.352444	0.020971	-0.277341
H68	H	1.346079	0.011317	-0.139205
H69	H	1.346979	-0.088514	-0.208172
H70	H	1.477581	0.049161	-0.209698
H71	H	1.478491	-0.050667	-0.278691
C72	C	1.455938	-0.109420	0.311115
C73	C	1.434391	-0.049788	0.208954
H74	H	1.432786	-0.079115	0.379926
H75	H	1.515413	-0.110938	0.312315
H76	H	1.434216	-0.178645	0.310397
H77	H	1.456119	0.019436	0.209668
H78	H	1.374905	-0.048259	0.207755
H79	H	1.161495	0.565818	-0.000153
H80	H	1.560588	0.039099	-0.000212
C81	C	0.901413	-0.413350	0.305747
C82	C	0.881335	-0.309249	0.275615
H83	H	0.868660	-0.458186	0.263461
H84	H	0.889768	-0.429276	0.388907
H85	H	0.959427	-0.423192	0.285289
H86	H	0.823321	-0.299406	0.296082
H87	H	0.892973	-0.293318	0.192437
H88	H	1.544444	-0.246803	0.180052
H89	H	0.925328	-0.249051	0.706516
C90	C	1.158487	0.128981	-0.101936
C91	C	1.142767	0.183232	-0.000127
H92	H	1.213207	0.100668	-0.101943
H93	H	1.154923	0.175512	-0.170987
H94	H	1.117998	0.073957	-0.101910
H95	H	1.183252	0.238261	-0.000157
H96	H	1.146338	0.136697	0.068942
C97	C	0.870362	0.641849	-0.000104
C98	C	0.864442	0.532919	-0.000097
H99	H	0.815641	0.670159	-0.000087
H100	H	0.903277	0.669491	-0.069172
H101	H	0.896170	0.659768	0.068958
H102	H	0.838639	0.514999	-0.069164
H103	H	0.831515	0.505266	0.068979
C104	C	0.851627	0.027681	-0.000086
C105	C	0.825642	0.131398	-0.000084
H106	H	0.803831	-0.017382	-0.000086
H107	H	0.880769	0.010178	0.068971
H108	H	0.887894	0.019908	-0.069159
H109	H	0.789380	0.139174	0.068994
H110	H	0.796487	0.148907	-0.069148
H111	H	1.081885	-0.034787	0.293292
C112	C	1.180345	0.099953	0.543501
C113	C	1.139325	0.043824	0.462485
H114	H	1.217450	0.150742	0.501185
H115	H	1.211513	0.053355	0.592107
H116	H	1.139890	0.133842	0.592144
H117	H	1.179780	0.009928	0.413848
H118	H	1.108156	0.090429	0.413859
