data_functionalizedCrystal
_audit_creation_method	'MofGen! by Chris Wilmer'
_symmetry_space_group_name_H-M	'P1'
_symmetry_Int_Tables_number	1
_symmetry_cell_setting	triclinic
loop_
_symmetry_equiv_pos_as_xyz
  x,y,z
_cell_length_a	12.811457
_cell_length_b	9.065218
_cell_length_c	8.140239
_cell_angle_alpha	90.001686
_cell_angle_beta	95.429226
_cell_angle_gamma	95.472633
loop_
_atom_site_label
_atom_site_type_symbol
_atom_site_fract_x
_atom_site_fract_y
_atom_site_fract_z
O1	O	1.394549	-0.198707	0.071160
O2	O	1.089173	-0.220318	0.025661
O3	O	1.248173	0.005210	0.049355
O4	O	1.235548	-0.424235	0.047467
O5	O	1.248164	0.005213	0.322581
O6	O	1.089164	-0.220315	0.298887
O7	O	1.394540	-0.198704	0.344386
Zn8	Zn	1.241850	-0.209509	0.365017
Zn9	Zn	1.241862	-0.209513	0.005030
O10	O	1.235540	-0.424232	0.320693
C11	C	1.050053	-0.219106	0.156446
C12	C	0.933502	-0.215481	0.139081
C13	C	0.714480	-0.208639	0.404353
C14	C	0.604970	-0.205233	0.388045
C15	C	0.604970	-0.205251	0.090158
C16	C	0.714480	-0.208658	0.106466
C17	C	0.769231	-0.210354	0.263569
C18	C	0.878743	-0.213771	0.279875
C19	C	0.878741	-0.213779	-0.018010
C20	C	0.769231	-0.210372	-0.034318
C21	C	1.246955	0.060183	0.185784
C22	C	1.243327	0.223980	0.185236
C23	C	1.433659	-0.199916	0.213598
C24	C	1.550211	-0.203541	0.230953
C25	C	1.236757	-0.479205	0.184260
C26	C	1.240385	-0.643002	0.184797
N27	N	1.241850	-0.209506	0.610700
N28	N	1.241871	-0.209504	-0.240651
H29	H	0.759058	-0.210039	0.532272
H30	H	0.923319	-0.215160	0.407797
O31	O	0.932024	-0.215646	-0.154662
C32	C	1.044921	-0.347230	-0.310771
C33	C	0.984652	-0.345275	-0.155933
H34	H	1.087469	-0.452039	-0.311868
H35	H	1.104885	-0.245775	-0.309327
H36	H	0.986958	-0.345361	-0.425822
H37	H	1.042536	-0.347193	-0.040801
H38	H	0.924673	-0.446720	-0.157523
H39	H	0.560395	-0.203844	0.502687
H40	H	0.560374	-0.203846	-0.037747
H41	H	0.724638	-0.208985	-0.162227
