data_functionalizedCrystal
_audit_creation_method	'MofGen! by Chris Wilmer'
_symmetry_space_group_name_H-M	'P1'
_symmetry_Int_Tables_number	1
_symmetry_cell_setting	triclinic
loop_
_symmetry_equiv_pos_as_xyz
  x,y,z
_cell_length_a	16.109301
_cell_length_b	14.044220
_cell_length_c	15.186229
_cell_angle_alpha	89.995248
_cell_angle_beta	89.999362
_cell_angle_gamma	88.325179
loop_
_atom_site_label
_atom_site_type_symbol
_atom_site_fract_x
_atom_site_fract_y
_atom_site_fract_z
O1	O	1.112195	0.121835	-0.073175
O2	O	0.871261	0.136997	-0.073189
O3	O	0.988112	-0.008568	-0.073174
O4	O	0.995345	0.267399	-0.073191
O5	O	0.988103	-0.008570	0.073284
O6	O	0.871253	0.136995	0.073268
O7	O	1.112187	0.121832	0.073282
Zn8	Zn	0.991718	0.129413	0.096528
Zn9	Zn	0.991730	0.129416	-0.096435
O10	O	0.995336	0.267397	0.073267
C11	C	0.840236	0.136381	0.000038
C12	C	0.747804	0.134540	0.000033
C13	C	0.531640	0.216634	0.000038
C14	C	0.444790	0.214896	0.000043
C15	C	0.451815	0.042189	0.000050
C16	C	0.538663	0.043927	0.000051
C17	C	0.578573	0.131153	0.000040
C18	C	0.404875	0.127677	0.000045
C19	C	0.310709	0.125792	0.000052
C20	C	0.672745	0.133038	0.000036
C21	C	0.984941	-0.043882	0.000055
C22	C	0.975498	-0.149105	0.000056
C23	C	0.958232	-0.341761	0.000042
C24	C	1.025212	-0.399415	0.000043
C25	C	1.015605	-0.506616	0.000036
C26	C	0.967838	-0.234551	0.000050
C27	C	1.143211	0.122448	0.000053
C28	C	1.235644	0.124289	0.000053
C29	C	0.998506	0.302711	0.000036
C30	C	1.007950	0.407934	0.000030
N31	N	0.991716	0.129411	0.228221
N32	N	0.991737	0.129411	-0.228128
C33	C	1.043479	0.064976	0.453951
C34	C	1.043481	0.064974	0.546141
C35	C	0.939969	0.193848	0.546136
C36	C	0.939963	0.193845	0.453948
C37	C	0.991723	0.129410	0.407858
C38	C	0.991731	0.129411	0.592235
C39	C	0.991734	0.129409	0.692192
C40	C	0.991719	0.129411	0.307895
H41	H	0.406580	0.284504	0.000043
O42	O	0.881280	-0.379073	0.000080
C43	C	0.801428	-0.521505	0.000027
C44	C	0.888622	-0.479361	-0.000000
H45	H	0.807334	-0.602593	-0.000057
H46	H	0.766187	-0.496626	0.061336
H47	H	0.766204	-0.496484	-0.061248
H48	H	0.923915	-0.504363	0.061233
H49	H	0.923800	-0.504236	-0.061351
O50	O	0.889617	0.256475	0.590773
C51	C	0.786979	0.384333	0.581037
C52	C	0.843948	0.313444	0.530379
H53	H	0.750053	0.430424	0.532231
H54	H	0.742362	0.343443	0.624181
H55	H	0.826398	0.431657	0.624214
H56	H	0.804596	0.266101	0.487155
H57	H	0.888569	0.354392	0.487291
O58	O	1.102170	-0.362103	0.000096
C59	C	1.182034	-0.219680	0.000068
C60	C	1.094835	-0.261814	0.000026
H61	H	1.176133	-0.138591	-0.000007
H62	H	1.217265	-0.244582	0.061379
H63	H	1.217262	-0.244685	-0.061206
H64	H	1.059538	-0.236828	0.061258
H65	H	1.059667	-0.236917	-0.061325
O66	O	1.093613	0.002304	0.409101
C67	C	1.101634	-0.127249	0.305138
C68	C	1.044777	-0.056283	0.355843
H69	H	1.062172	-0.174648	0.262081
H70	H	1.146209	-0.086424	0.261891
H71	H	1.138619	-0.173257	0.353962
H72	H	1.007738	-0.010257	0.307083
H73	H	1.000255	-0.097166	0.399104
O74	O	0.570277	0.301443	0.000074
C75	C	0.554139	0.472561	0.000021
C76	C	0.510279	0.376579	-0.000003
H77	H	0.505651	0.533334	-0.000059
H78	H	0.594597	0.477754	0.061327
H79	H	0.594648	0.477648	-0.061257
H80	H	0.469728	0.371428	0.061234
H81	H	0.469872	0.371428	-0.061350
O82	O	0.889803	0.256484	0.409072
C83	C	0.881706	0.385962	0.305014
C84	C	0.938604	0.315070	0.355765
H85	H	0.921139	0.433361	0.261917
H86	H	0.837151	0.345076	0.261802
H87	H	0.844700	0.431978	0.353808
H88	H	0.975663	0.269037	0.307034
H89	H	0.983105	0.356015	0.398990
O90	O	0.413005	-0.042513	-0.000103
C91	C	0.318991	-0.144675	-0.075955
C92	C	0.362902	-0.048726	-0.075897
H93	H	0.278459	-0.149721	-0.137218
H94	H	0.367419	-0.205512	-0.076008
H95	H	0.278540	-0.149797	-0.014636
H96	H	0.403351	-0.043511	-0.137205
H97	H	0.314431	0.012065	-0.075798
H98	H	0.576877	-0.025686	0.000055
H99	H	1.085624	0.012505	0.583667
