data_functionalizedCrystal
_audit_creation_method	'MofGen! by Chris Wilmer'
_symmetry_space_group_name_H-M	'P1'
_symmetry_Int_Tables_number	1
_symmetry_cell_setting	triclinic
loop_
_symmetry_equiv_pos_as_xyz
  x,y,z
_cell_length_a	19.188930
_cell_length_b	16.992695
_cell_length_c	15.455331
_cell_angle_alpha	92.867087
_cell_angle_beta	92.672088
_cell_angle_gamma	93.093497
loop_
_atom_site_label
_atom_site_type_symbol
_atom_site_fract_x
_atom_site_fract_y
_atom_site_fract_z
O1	O	-0.934738	0.094406	-0.072401
O2	O	-0.434738	0.594406	0.427599
O3	O	-0.732195	0.107584	-0.072340
O4	O	-0.232195	0.607584	0.427660
O5	O	-0.832655	-0.013145	-0.072378
O6	O	-0.332655	0.486855	0.427622
O7	O	-0.834278	0.215135	-0.072363
O8	O	-0.334278	0.715135	0.427637
O9	O	-0.826935	-0.006241	0.071886
O10	O	-0.326935	0.493759	0.571886
O11	O	-0.726476	0.114488	0.071924
O12	O	-0.226476	0.614488	0.571924
O13	O	-0.929018	0.101310	0.071863
O14	O	-0.429018	0.601310	0.571863
Cu15	Cu	-0.827225	0.108529	0.085066
Cu16	Cu	-0.327225	0.608529	0.585066
Cu17	Cu	-0.833988	0.100365	-0.085543
Cu18	Cu	-0.333988	0.600365	0.414457
O19	O	-0.828559	0.222039	0.071901
O20	O	-0.328559	0.722039	0.571901
C21	C	-0.703299	0.110610	-0.000201
C22	C	-0.203299	0.610610	0.499799
C23	C	-0.625719	0.109330	-0.000178
C24	C	-0.125719	0.609330	0.499822
C25	C	-0.827706	-0.038899	-0.000249
C26	C	-0.327706	0.461101	0.499751
C27	C	-0.821473	-0.125922	-0.000259
C28	C	-0.321473	0.374078	0.499741
C29	C	-0.957914	0.098284	-0.000279
C30	C	-0.457914	0.598284	0.499721
C31	C	-1.035495	0.099563	-0.000307
C32	C	-0.535495	0.599563	0.499693
C33	C	-0.584940	0.180169	-0.000187
C34	C	-0.084940	0.680169	0.499813
C35	C	-0.512046	0.178965	-0.000197
C36	C	-0.012046	0.678965	0.499803
C37	C	-0.479935	0.106918	-0.000215
C38	C	0.020065	0.606918	0.499785
C39	C	-0.520722	0.036070	-0.000201
C40	C	-0.020722	0.536070	0.499799
C41	C	-0.593614	0.037276	-0.000182
C42	C	-0.093614	0.537276	0.499818
N43	N	-0.370680	0.049496	-0.049352
N44	N	0.129320	0.549496	0.450648
N45	N	-0.301435	0.048355	-0.049372
N46	N	0.198565	0.548355	0.450628
C47	C	-0.260315	0.103279	-0.000268
C48	C	0.239685	0.603279	0.499732
N49	N	-0.291055	0.159400	0.048845
N50	N	0.208945	0.659400	0.548845
N51	N	-0.360306	0.160543	0.048860
N52	N	0.139694	0.660543	0.548860
C53	C	-0.400896	0.105602	-0.000234
C54	C	0.099104	0.605602	0.499766
C55	C	-0.140497	0.172818	-0.000286
C56	C	0.359503	0.672818	0.499714
C57	C	-0.067602	0.171611	-0.000290
C58	C	0.432398	0.671611	0.499710
C59	C	-0.076279	0.028714	-0.000303
C60	C	0.423721	0.528714	0.499697
C61	C	-0.149173	0.029923	-0.000290
C62	C	0.350827	0.529923	0.499710
C63	C	-0.181277	0.101977	-0.000286
C64	C	0.318723	0.601977	0.499714
C65	C	-0.833507	0.247793	-0.000230
C66	C	-0.333507	0.747793	0.499770
C67	C	-0.839740	0.334816	-0.000226
C68	C	-0.339740	0.834816	0.499774
N69	N	-0.822472	0.114271	0.205063
N70	N	-0.322472	0.614271	0.705063
C71	C	-0.779600	0.385263	-0.000209
C72	C	-0.279600	0.885263	0.499791
C73	C	-0.785461	0.467029	-0.000221
C74	C	-0.285461	0.967029	0.499779
C75	C	-0.851463	0.498346	-0.000245
C76	C	-0.351463	0.998346	0.499755
C77	C	-0.911608	0.447892	-0.000266
C78	C	-0.411608	0.947892	0.499734
C79	C	-0.905746	0.366127	-0.000259
C80	C	-0.405746	0.866127	0.499741
C81	C	-0.875757	0.741859	-0.000273
C82	C	-0.375757	1.241859	0.499727
C83	C	-0.881614	0.823630	-0.000276
C84	C	-0.381614	1.323630	0.499724
C85	C	-0.755466	0.842762	-0.000234
C86	C	-0.255466	1.342762	0.499766
C87	C	-0.749610	0.760995	-0.000222
C88	C	-0.249610	1.260995	0.499778
C89	C	-0.809755	0.710548	-0.000247
C90	C	-0.309755	1.210548	0.499753
N91	N	-0.857455	0.581924	-0.000256
N92	N	-0.357455	1.081924	0.499744
N93	N	-0.803763	0.626971	-0.000243
N94	N	-0.303763	1.126971	0.499757
C95	C	-0.796059	0.145908	0.749080
C96	C	-0.296059	0.645908	1.249080
C97	C	-0.799669	0.141581	0.658271
C98	C	-0.299669	0.641581	1.158271
C99	C	-0.845973	0.085980	0.612843
C100	C	-0.345973	0.585980	1.112843
C101	C	-0.888665	0.034699	0.658229
C102	C	-0.388665	0.534699	1.158229
C103	C	-0.885051	0.039023	0.749036
C104	C	-0.385051	0.539023	1.249036
C105	C	-0.861550	0.067314	0.341256
C106	C	-0.361550	0.567314	0.841256
C107	C	-0.865163	0.062995	0.250442
C108	C	-0.365163	0.562995	0.750442
C109	C	-0.776165	0.169876	0.250491
C110	C	-0.276165	0.669876	0.750491
C111	C	-0.772558	0.174199	0.341300
C112	C	-0.272558	0.674199	0.841300
C113	C	-0.815247	0.122915	0.386678
C114	C	-0.315247	0.622915	0.886678
N115	N	-0.849666	0.081557	0.520021
N116	N	-0.349666	0.581557	1.020021
N117	N	-0.811551	0.127334	0.479498
N118	N	-0.311551	0.627334	0.979498
N119	N	-0.838749	0.094632	0.794460
N120	N	-0.338749	0.594632	1.294460
H121	H	-0.611075	0.238840	-0.000185
H122	H	-0.111075	0.738840	0.499815
H123	H	-0.494572	-0.022592	-0.000227
H124	H	0.005428	0.477408	0.499773
H125	H	-0.734854	0.219473	0.378286
H126	H	-0.234854	0.719473	0.878286
C127	C	-1.035709	0.420762	-0.000322
C128	C	-0.535709	0.920762	0.499678
C129	C	-0.984160	0.482312	-0.000300
C130	C	-0.484160	0.982312	0.499700
H131	H	-1.080500	0.442012	-0.000348
H132	H	-0.580500	0.942012	0.499652
H133	H	-1.028810	0.391684	0.049988
H134	H	-0.528810	0.891684	0.549988
H135	H	-1.032784	0.386855	-0.050629
H136	H	-0.532784	0.886855	0.449371
H137	H	-0.987081	0.516216	0.050010
H138	H	-0.487081	1.016216	0.550010
H139	H	-0.991062	0.511403	-0.050615
H140	H	-0.491062	1.011403	0.449385
C141	C	-0.643224	0.748575	-0.074351
C142	C	-0.143224	1.248575	0.425649
C143	C	-0.677058	0.726577	-0.000200
C144	C	-0.177058	1.226577	0.499800
H145	H	-0.598434	0.727323	-0.074335
H146	H	-0.098434	1.227323	0.425665
H147	H	-0.638110	0.804485	-0.074346
H148	H	-0.138110	1.304485	0.425654
H149	H	-0.670178	0.728824	-0.124660
H150	H	-0.170178	1.228824	0.375340
H151	H	-0.650106	0.746333	0.050110
H152	H	-0.150106	1.246333	0.550110
H153	H	-0.682168	0.670656	-0.000196
H154	H	-0.182168	1.170656	0.499804
C155	C	-0.949901	-0.038745	0.332074
C156	C	-0.449901	0.461255	0.832074
C157	C	-0.908489	0.010959	0.391128
C158	C	-0.408489	0.510959	0.891128
H159	H	-0.978886	-0.073531	0.362867
H160	H	-0.478886	0.426469	0.862867
H161	H	-0.920687	-0.068561	0.296654
H162	H	-0.420687	0.431439	0.796654
H163	H	-0.978225	-0.007850	0.296660
H164	H	-0.478225	0.492150	0.796660
H165	H	-0.880161	-0.019937	0.426538
H166	H	-0.380161	0.480063	0.926538
H167	H	-0.937707	0.040777	0.426562
H168	H	-0.437707	0.540777	0.926562
H169	H	-0.741409	0.211629	0.213536
H170	H	-0.241409	0.711629	0.713536
C171	C	-0.510785	0.320332	-0.000214
C172	C	-0.010785	0.820332	0.499786
C173	C	-0.467212	0.256835	-0.000219
C174	C	0.032788	0.756835	0.499781
H175	H	-0.483106	0.368404	-0.000235
H176	H	0.016894	0.868404	0.499765
H177	H	-0.537377	0.320250	0.050102
H178	H	-0.037377	0.820250	0.550102
H179	H	-0.541414	0.315410	-0.050515
H180	H	-0.041414	0.815410	0.449485
H181	H	-0.436586	0.261754	0.050086
H182	H	0.063414	0.761754	0.550086
H183	H	-0.440607	0.256919	-0.050540
H184	H	0.059393	0.756919	0.449460
C185	C	-0.711345	0.247669	0.667440
C186	C	-0.211345	0.747669	1.167440
C187	C	-0.752746	0.197948	0.608390
C188	C	-0.252746	0.697948	1.108390
H189	H	-0.682379	0.282471	0.636644
H190	H	-0.182379	0.782471	1.136644
H191	H	-0.683010	0.216792	0.702847
H192	H	-0.183010	0.716792	1.202847
H193	H	-0.740574	0.277473	0.702867
H194	H	-0.240574	0.777473	1.202867
H195	H	-0.723517	0.168140	0.572967
H196	H	-0.223517	0.668140	1.072967
H197	H	-0.781084	0.228829	0.572968
H198	H	-0.281084	0.728829	1.072968
H199	H	-0.902872	0.017716	0.213459
H200	H	-0.402872	0.517716	0.713459
C201	C	-0.677655	-0.040718	0.073989
C202	C	-0.177655	0.459282	0.573989
C203	C	-0.638442	-0.040596	-0.000179
C204	C	-0.138442	0.459404	0.499821
H205	H	-0.705327	-0.088796	0.073990
H206	H	-0.205327	0.411204	0.573990
H207	H	-0.707206	0.002359	0.073992
H208	H	-0.207206	0.502359	0.573992
H209	H	-0.647022	-0.035812	0.124287
H210	H	-0.147022	0.464188	0.624287
H211	H	-0.669076	-0.045496	-0.050477
H212	H	-0.169076	0.454504	0.449523
H213	H	-0.608888	-0.083684	-0.000189
H214	H	-0.108888	0.416316	0.499811
C215	C	-0.124600	0.313944	-0.000265
C216	C	0.375400	0.813944	0.499735
C217	C	-0.175791	0.252017	-0.000268
C218	C	0.324209	0.752017	0.499732
H219	H	-0.146390	0.362837	-0.000248
H220	H	0.353610	0.862837	0.499752
H221	H	-0.098362	0.308097	-0.050576
H222	H	0.401638	0.808097	0.449424
H223	H	-0.094339	0.312900	0.050041
H224	H	0.405661	0.812900	0.550041
H225	H	-0.206050	0.253057	-0.050577
H226	H	0.293950	0.753057	0.449423
H227	H	-0.202042	0.257866	0.050048
H228	H	0.297958	0.757866	0.550048
C229	C	-0.975274	0.259523	-0.074440
C230	C	-0.475274	0.759523	0.425560
C231	C	-0.971854	0.310672	-0.000279
C232	C	-0.471854	0.810672	0.499721
H233	H	-1.016090	0.225292	-0.074457
H234	H	-0.516090	0.725292	0.425543
H235	H	-0.935132	0.229175	-0.074419
H236	H	-0.435132	0.729175	0.425581
H237	H	-0.976931	0.289417	-0.124742
H238	H	-0.476931	0.789417	0.375258
H239	H	-0.970192	0.280779	0.050023
H240	H	-0.470192	0.780779	0.550023
H241	H	-1.012007	0.341024	-0.000293
H242	H	-0.512007	0.841024	0.499707
H243	H	-0.034400	0.229299	-0.000293
H244	H	0.465600	0.729299	0.499707
H245	H	-0.926364	-0.010576	0.621236
H246	H	-0.426364	0.489424	1.121236
C247	C	-0.058266	-0.089901	0.073843
C248	C	0.441734	0.410099	0.573843
C249	C	-0.040988	-0.050481	-0.000320
C250	C	0.459012	0.449519	0.499680
H251	H	-0.036471	-0.138791	0.073836
H252	H	0.463529	0.361209	0.573836
H253	H	-0.107508	-0.099322	0.073845
H254	H	0.392492	0.400678	0.573845
H255	H	-0.042524	-0.058326	0.124144
H256	H	0.457476	0.441674	0.624144
H257	H	-0.056735	-0.082054	-0.050622
H258	H	0.443265	0.417946	0.449378
H259	H	0.008265	-0.041063	-0.000330
H260	H	0.508265	0.458937	0.499670
H261	H	-0.182375	-0.027762	-0.000288
H262	H	0.317625	0.472238	0.499712
H263	H	-0.935363	0.849125	-0.000295
H264	H	-0.435363	1.349125	0.499705
C265	C	-0.973382	-0.067059	0.739873
C266	C	-0.473382	0.432941	1.239873
C267	C	-0.931975	-0.017343	0.798921
C268	C	-0.431975	0.482657	1.298921
H269	H	-1.002351	-0.101857	0.770671
H270	H	-0.502351	0.398143	1.270671
H271	H	-0.944164	-0.096861	0.704444
H272	H	-0.444164	0.403139	1.204444
H273	H	-1.001722	-0.036173	0.704468
H274	H	-0.501722	0.463827	1.204468
H275	H	-0.903632	-0.048229	0.834322
H276	H	-0.403632	0.451771	1.334322
H277	H	-0.961197	0.012461	0.834365
H278	H	-0.461197	0.512461	1.334365
H279	H	-0.725854	0.359772	-0.000179
H280	H	-0.225854	0.859772	0.499821
H281	H	-0.736488	0.508101	-0.000210
H282	H	-0.236488	1.008101	0.499790
C283	C	-1.001033	0.731175	-0.000297
C284	C	-0.501033	1.231175	0.499703
C285	C	-0.941867	0.686416	-0.000284
C286	C	-0.441867	1.186416	0.499716
H287	H	-1.041848	0.696942	-0.000297
H288	H	-0.541848	1.196942	0.499703
H289	H	-1.002692	0.761048	-0.050604
H290	H	-0.502692	1.261048	0.449396
H291	H	-0.998691	0.765880	0.050012
H292	H	-0.498691	1.265880	0.550012
H293	H	-0.944207	0.651714	-0.050597
H294	H	-0.444207	1.151714	0.449403
H295	H	-0.940209	0.656529	0.050028
H296	H	-0.440209	1.156529	0.550028
C297	C	-0.646810	0.887803	0.073957
C298	C	-0.146810	1.387803	0.573957
C299	C	-0.689358	0.898214	-0.000216
C300	C	-0.189358	1.398214	0.499784
H301	H	-0.605998	0.922041	0.073965
H302	H	-0.105998	1.422041	0.573965
H303	H	-0.633878	0.834631	0.073958
H304	H	-0.133878	1.334631	0.573958
H305	H	-0.671697	0.899690	0.124251
H306	H	-0.171697	1.399690	0.624251
H307	H	-0.664473	0.886322	-0.050511
H308	H	-0.164473	1.386322	0.449489
H309	H	-0.702290	0.951398	-0.000225
H310	H	-0.202290	1.451398	0.499775
H311	H	-0.758356	0.191187	0.786062
H312	H	-0.258356	0.691187	1.286062
