data_functionalizedCrystal
_audit_creation_method	'MofGen! by Chris Wilmer'
_symmetry_space_group_name_H-M	'P1'
_symmetry_Int_Tables_number	1
_symmetry_cell_setting	triclinic
loop_
_symmetry_equiv_pos_as_xyz
  x,y,z
_cell_length_a	12.759401
_cell_length_b	12.759399
_cell_length_c	12.759393
_cell_angle_alpha	90.028437
_cell_angle_beta	89.982105
_cell_angle_gamma	89.981451
loop_
_atom_site_label
_atom_site_type_symbol
_atom_site_fract_x
_atom_site_fract_y
_atom_site_fract_z
Zn1	Zn	1.606249	0.418122	-0.593987
Zn2	Zn	1.606140	0.593841	-0.418317
Zn3	Zn	1.430551	0.418185	-0.418329
Zn4	Zn	1.430537	0.593768	-0.593960
O5	O	1.518369	0.505979	-0.506148
O6	O	1.753255	0.441435	-0.570691
O7	O	1.582809	0.570596	-0.271297
O8	O	1.453909	0.271156	-0.441646
O9	O	1.753176	0.570535	-0.441627
O10	O	1.582993	0.271109	-0.570702
O11	O	1.453804	0.441543	-0.271306
O12	O	1.283528	0.441473	-0.441620
O13	O	1.453885	0.570412	-0.740985
O14	O	1.283518	0.570473	-0.570656
O15	O	1.582980	0.441365	-0.741005
O16	O	1.582795	0.740852	-0.441600
O17	O	1.453780	0.740799	-0.570645
C18	C	1.245402	0.505973	-0.506137
C19	C	1.128625	0.505996	-0.506157
C20	C	1.518302	0.778946	-0.506141
C21	C	1.518370	0.895723	-0.506173
C22	C	1.518443	0.505873	-0.780182
C23	C	1.518474	0.505828	-0.896959
C24	C	1.792402	0.505986	-0.506160
C25	C	1.909179	0.505989	-0.506166
C26	C	1.964084	0.438773	-0.573356
C27	C	2.073808	0.438778	-0.573355
C28	C	2.073712	0.573219	-0.438964
C29	C	1.963990	0.573218	-0.438971
C30	C	1.964141	0.361151	-0.650943
C31	C	2.073865	0.361156	-0.650942
C32	C	1.585622	0.950578	-0.439057
C33	C	1.585685	1.060302	-0.439096
C34	C	1.451235	1.060307	-0.573369
C35	C	1.451178	0.950585	-0.573335
C36	C	1.663243	0.950576	-0.361532
C37	C	1.663305	1.060300	-0.361571
C38	C	1.518461	1.231946	-0.506192
C39	C	1.518489	1.115169	-0.506246
C40	C	1.585703	0.438627	-0.951833
C41	C	1.585728	0.438589	-1.061557
C42	C	1.451292	0.572962	-1.061523
C43	C	1.451263	0.572994	-0.951801
C44	C	1.663322	0.361051	-0.951853
C45	C	1.663347	0.361013	-1.061577
C46	C	1.518356	0.506009	-0.233181
C47	C	1.518528	0.505758	-0.116405
H48	H	2.118353	0.627957	-0.384258
O49	O	1.770984	0.911004	-0.390477
H50	H	1.823775	0.978648	-0.404686
H51	H	1.641554	0.279688	-0.922093
H52	H	1.930123	0.283869	-0.621807
H53	H	1.934388	0.382906	-0.732314
O54	O	1.378761	1.119490	-0.645793
H55	H	1.396729	1.098357	-0.728260
H56	H	2.107913	0.390270	-0.728235
O57	O	1.624793	0.258614	-1.106688
H58	H	1.687371	0.223140	-1.155657
O59	O	1.378740	0.645448	-0.892594
H60	H	1.325308	0.598403	-0.842627
O61	O	1.765680	0.399668	-0.906765
H62	H	1.750982	0.470088	-0.857807
O63	O	2.113352	0.253396	-0.622065
H64	H	2.045667	0.200638	-0.607919
H65	H	1.396426	0.905923	-0.627996
O66	O	1.378801	0.645405	-1.120673
H67	H	1.390116	0.634096	-1.206189
O68	O	1.624684	0.905595	-0.259102
H69	H	1.604291	0.970481	-0.204823
O70	O	1.904774	0.645717	-0.366498
H71	H	1.925820	0.728165	-0.384508
O72	O	1.765692	1.105274	-0.400272
H73	H	1.830423	1.078369	-0.348784
O74	O	1.634513	1.099881	-0.253785
H75	H	1.555277	1.070957	-0.232542
O76	O	1.771121	0.389885	-1.101038
H77	H	1.823861	0.404061	-1.033340
