data_functionalizedCrystal
_audit_creation_method	'MofGen! by Chris Wilmer'
_symmetry_space_group_name_H-M	'P1'
_symmetry_Int_Tables_number	1
_symmetry_cell_setting	triclinic
loop_
_symmetry_equiv_pos_as_xyz
  x,y,z
_cell_length_a	12.784905
_cell_length_b	9.730223
_cell_length_c	10.654543
_cell_angle_alpha	89.999103
_cell_angle_beta	101.205254
_cell_angle_gamma	90.003896
loop_
_atom_site_label
_atom_site_type_symbol
_atom_site_fract_x
_atom_site_fract_y
_atom_site_fract_z
O1	O	1.410371	0.114297	-0.007862
O2	O	1.101311	0.114295	-0.061600
O3	O	1.262950	0.114299	0.148859
O4	O	1.248731	0.114293	-0.218320
O5	O	1.262940	-0.114281	0.148863
O6	O	1.101301	-0.114285	-0.061596
O7	O	1.410360	-0.114283	-0.007858
Zn8	Zn	1.255829	-0.150576	-0.034726
Zn9	Zn	1.255843	0.150588	-0.034731
O10	O	1.248721	-0.114287	-0.218316
C11	C	1.061732	0.000005	-0.065093
C12	C	0.943815	0.000004	-0.075492
N13	N	1.255827	-0.356112	-0.034721
C14	C	0.745873	0.000032	0.136376
C15	C	0.635080	0.000032	0.126611
C16	C	0.611433	0.000013	-0.104785
C17	C	0.722226	0.000013	-0.095020
C18	C	0.789443	0.000021	0.025564
C19	C	0.900238	0.000011	0.035328
C20	C	0.876589	0.000002	-0.196067
C21	C	0.765796	0.000002	-0.205832
C22	C	1.327426	-0.428036	0.058437
C23	C	1.327436	-0.571919	0.058438
C24	C	1.184246	-0.571941	-0.127889
C25	C	1.184231	-0.428061	-0.127883
C26	C	1.449939	0.000011	-0.004365
C27	C	1.567857	0.000020	0.006034
N28	N	1.255853	0.356124	-0.034726
C29	C	1.261903	0.000013	0.195534
C30	C	1.258784	0.000024	0.334605
C31	C	1.353954	0.000030	0.425464
C32	C	1.351017	0.000055	0.556134
C33	C	1.157731	0.000062	0.505073
C34	C	1.160669	0.000047	0.374406
C35	C	1.249774	0.000018	0.735010
C36	C	1.252908	0.000064	0.595943
H37	H	0.954965	0.000015	0.133514
N38	N	0.818379	0.000019	0.266424
H39	H	0.773964	0.000018	0.335144
H40	H	0.864869	0.084755	0.275518
H41	H	0.599611	0.000044	0.216845
H42	H	1.083165	0.000046	0.300423
H43	H	0.912075	-0.000014	-0.286298
N44	N	1.051912	0.000081	0.548002
H45	H	1.064489	0.000087	0.644567
H46	H	1.010219	-0.084658	0.514019
N47	N	1.404672	-0.649491	0.158907
H48	H	1.393819	-0.751557	0.144773
H49	H	1.391759	-0.624349	0.246599
N50	N	0.538928	0.000025	-0.234834
H51	H	0.462131	0.000034	-0.224199
H52	H	0.553117	-0.084716	-0.283651
H53	H	1.125956	-0.630537	-0.203741
H54	H	1.385722	-0.369459	0.134297
N55	N	1.106993	-0.350486	-0.228364
H56	H	1.119871	-0.375507	-0.316103
H57	H	1.117880	-0.248445	-0.214108
H58	H	0.711054	0.000001	-0.304008
H59	H	1.433845	0.000014	0.393063
H60	H	1.428514	0.000063	0.630108
