data_functionalizedCrystal
_audit_creation_method	'MofGen! by Chris Wilmer'
_symmetry_space_group_name_H-M	'P1'
_symmetry_Int_Tables_number	1
_symmetry_cell_setting	triclinic
loop_
_symmetry_equiv_pos_as_xyz
  x,y,z
_cell_length_a	19.077105
_cell_length_b	25.639239
_cell_length_c	19.076919
_cell_angle_alpha	87.732171
_cell_angle_beta	89.923776
_cell_angle_gamma	87.735505
loop_
_atom_site_label
_atom_site_type_symbol
_atom_site_fract_x
_atom_site_fract_y
_atom_site_fract_z
Zn1	Zn	1.058183	-0.252939	0.440394
Zn2	Zn	1.062794	-0.337004	0.322880
Zn3	Zn	0.945403	-0.245935	0.318188
Zn4	Zn	0.940616	-0.336688	0.435632
O5	O	1.001749	-0.293141	0.379274
O6	O	1.157126	-0.267153	0.428762
O7	O	1.051155	-0.322124	0.223926
O8	O	0.960438	-0.173702	0.334429
O9	O	1.160513	-0.328915	0.342425
O10	O	1.043297	-0.178847	0.424213
O11	O	0.964909	-0.255216	0.220480
O12	O	0.846438	-0.254910	0.329811
O13	O	0.952278	-0.328378	0.534595
O14	O	0.842920	-0.321586	0.416097
O15	O	1.038654	-0.266847	0.538094
O16	O	1.046513	-0.410124	0.337807
O17	O	0.956749	-0.409892	0.420646
C18	C	0.819183	-0.287454	0.371929
C19	C	0.741079	-0.285035	0.368803
C20	C	1.001630	-0.428979	0.379235
C21	C	1.001643	-0.487094	0.379244
C22	C	0.702576	-0.318661	0.412188
C23	C	0.629190	-0.316381	0.409255
C24	C	0.594308	-0.280476	0.362932
C25	C	0.632816	-0.246846	0.319545
C26	C	0.706201	-0.249124	0.322483
C27	C	0.375024	-0.269932	0.349341
C28	C	0.301634	-0.267657	0.346405
C29	C	0.298013	-0.337192	0.436116
C30	C	0.371399	-0.339469	0.439046
C31	C	0.409901	-0.305837	0.395662
N32	N	0.519295	-0.278145	0.359931
N33	N	0.484912	-0.308166	0.398667
C34	C	0.955001	-0.738182	0.422393
C35	C	0.954975	-0.683577	0.422384
O36	O	0.915205	-0.655247	0.459043
N37	N	1.001730	-0.656372	0.379285
C38	C	1.048518	-0.683774	0.336197
O39	O	1.088284	-0.655620	0.299537
C40	C	1.048546	-0.738379	0.336210
C41	C	1.001784	-0.765581	0.379307
C42	C	0.908243	-0.765385	0.465487
C43	C	0.908268	-0.819987	0.465495
C44	C	0.955051	-0.847386	0.422409
C45	C	1.001809	-0.820183	0.379315
C46	C	1.095337	-0.765781	0.293127
C47	C	1.095362	-0.820389	0.293144
C48	C	1.048600	-0.847592	0.336241
C49	C	1.048617	-0.902183	0.336238
N50	N	1.001863	-0.929389	0.379337
C51	C	0.955080	-0.901990	0.422423
C52	C	1.048455	-0.569101	0.336173
C53	C	1.048424	-0.514497	0.336155
C54	C	0.954882	-0.514304	0.422344
C55	C	0.954911	-0.568909	0.422357
C56	C	1.001701	-0.596307	0.379272
C57	C	0.955135	-1.016657	0.422436
C58	C	0.955163	-1.071263	0.422438
C59	C	1.048706	-1.071452	0.336253
C60	C	1.048677	-1.016851	0.336248
C61	C	1.001889	-0.989455	0.379345
O62	O	1.088370	-0.930548	0.299600
O63	O	0.915326	-0.930152	0.459083
C64	C	1.185028	-0.298851	0.386648
C65	C	1.263131	-0.301284	0.389790
C66	C	0.994418	-0.298359	0.562553
C67	C	0.991294	-0.300582	0.640656
C68	C	1.001887	-0.156774	0.379329
C69	C	1.001946	-0.098662	0.379352
C70	C	1.009092	-0.287908	0.196709
C71	C	1.012353	-0.285541	0.118612
C72	C	1.034795	-0.269593	0.679172
C73	C	1.031851	-0.271679	0.752557
C74	C	0.985409	-0.304759	0.787426
C75	C	0.941903	-0.335750	0.748905
C76	C	0.944844	-0.333660	0.675521
C77	C	0.971787	-0.314442	1.006706
C78	C	0.968851	-0.316531	1.080096
C79	C	1.058799	-0.252459	1.083743
C80	C	1.061739	-0.250375	1.010357
C81	C	1.018230	-0.281363	0.971843
N82	N	0.982400	-0.306894	0.862438
N83	N	1.021236	-0.279225	0.896832
H84	H	0.597844	-0.343763	0.444583
C85	C	1.099479	-0.987253	0.289567
C86	C	1.142871	-0.958386	0.331194
C87	C	1.189678	-0.931114	0.288220
H88	H	1.127409	-1.011336	0.263894
H89	H	1.073862	-0.964242	0.257857
H90	H	1.168486	-0.981394	0.362892
H91	H	1.114961	-0.934293	0.356867
H92	H	1.164061	-0.908103	0.256510
H93	H	1.217603	-0.955201	0.262549
H94	H	1.219121	-0.911520	0.316457
C95	C	0.904362	-1.100704	0.469310
C96	C	0.863402	-1.065018	0.507055
C97	C	0.816606	-1.092118	0.550246
H98	H	0.874785	-1.120321	0.441256
H99	H	0.929984	-1.123672	0.501070
H100	H	0.837782	-1.042059	0.475299
H101	H	0.892959	-1.045400	0.535122
H102	H	0.842228	-1.115086	0.582006
H103	H	0.787035	-1.111734	0.522187
H104	H	0.788814	-1.067910	0.575866
C105	C	0.256292	-0.373673	0.483342
C106	C	0.271402	-0.364907	0.553607
C107	C	0.232989	-0.398507	0.597136
H108	H	0.207577	-0.367209	0.475055
H109	H	0.268712	-0.408880	0.473500
H110	H	0.258977	-0.329708	0.563445
H111	H	0.320110	-0.371375	0.561915
H112	H	0.245409	-0.433714	0.587294
H113	H	0.184275	-0.392040	0.588843
H114	H	0.243240	-0.392567	0.644815
H115	H	1.086794	-1.093770	0.301171
C116	C	0.857536	-0.849610	0.512223
C117	C	0.867553	-0.903296	0.503010
C118	C	0.820826	-0.930597	0.546043
H119	H	0.865851	-0.842358	0.559877
H120	H	0.810724	-0.838968	0.499997
H121	H	0.914354	-0.913933	0.515240
H122	H	0.859232	-0.910563	0.455365
H123	H	0.774014	-0.919955	0.533817
H124	H	0.829145	-0.923340	0.593695
H125	H	0.827611	-0.967025	0.539793
H126	H	1.086556	-0.591405	0.301082
C127	C	0.857365	-0.735736	0.512292
C128	C	0.816417	-0.771256	0.550016
C129	C	0.769526	-0.743967	0.593130
H130	H	0.882892	-0.716107	0.544070
H131	H	0.827793	-0.712764	0.484165
H132	H	0.845985	-0.794220	0.578140
H133	H	0.790874	-0.790887	0.518255
H134	H	0.739955	-0.720994	0.565003
H135	H	0.795060	-0.724338	0.624904
H136	H	0.741734	-0.768062	0.618726
H137	H	0.273235	-0.238414	0.308688
C138	C	0.409353	-0.378367	0.489393
C139	C	0.449724	-0.351407	0.536179
C140	C	0.484702	-0.387224	0.582563
H141	H	0.375985	-0.398082	0.514882
H142	H	0.439074	-0.401234	0.463627
H143	H	0.420005	-0.328550	0.561942
H144	H	0.483104	-0.331695	0.510710
H145	H	0.514423	-0.410091	0.556797
H146	H	0.451329	-0.406937	0.608047
H147	H	0.512103	-0.368937	0.614309
H148	H	0.916836	-0.591053	0.457454
H149	H	0.730972	-0.347900	0.449907
H150	H	0.917037	-0.994357	0.457531
C151	C	1.079049	-0.237943	0.794277
C152	C	1.064530	-0.185231	0.775809
C153	C	1.108003	-0.154135	0.814216
H154	H	1.070694	-0.243849	0.842990
H155	H	1.126746	-0.246694	0.784134
H156	H	1.016843	-0.176483	0.785957
H157	H	1.072889	-0.179309	0.727103
H158	H	1.155701	-0.162887	0.804073
H159	H	1.099644	-0.160046	0.862927
H160	H	1.098163	-0.118368	0.801687
C161	C	0.747884	-0.212593	0.275291
C162	C	0.701632	-0.180672	0.234080
C163	C	0.740004	-0.147016	0.190592
H164	H	0.775466	-0.191450	0.303294
H165	H	0.777701	-0.232561	0.245733
H166	H	0.671828	-0.160705	0.263634
H167	H	0.674049	-0.201800	0.206063
H168	H	0.769820	-0.166984	0.161034
H169	H	0.767584	-0.125876	0.218600
H170	H	0.708628	-0.125357	0.162620
H171	H	0.936370	-0.339683	0.975357
C172	C	1.112182	-0.214405	0.972629
C173	C	1.149637	-0.187701	1.022067
C174	C	1.196108	-0.154557	0.987338
H175	H	1.143988	-0.234487	0.945227
H176	H	1.086488	-0.189945	0.942944
H177	H	1.175331	-0.212157	1.051740
H178	H	1.117851	-0.167609	1.049471
H179	H	1.170413	-0.130098	0.957652
H180	H	1.227908	-0.174644	0.959937
H181	H	1.221522	-0.136431	1.020875
H182	H	0.909413	-0.358889	0.644162
C183	C	0.904170	-0.484458	0.469106
C184	C	0.914174	-0.430817	0.459882
C185	C	0.867480	-0.403306	0.502952
H186	H	0.857350	-0.491618	0.456936
H187	H	0.912541	-0.495016	0.516757
H188	H	0.905798	-0.420262	0.412242
H189	H	0.960984	-0.423641	0.472057
H190	H	0.875851	-0.413864	0.550602
H191	H	0.820663	-0.410471	0.490777
H192	H	0.874266	-0.366908	0.496703
H193	H	0.406364	-0.242550	0.314009
H194	H	0.904086	-0.362682	0.777301
C195	C	1.099267	-0.485062	0.289334
C196	C	1.140250	-0.520752	0.251618
C197	C	1.187105	-0.493659	0.208488
H198	H	1.073711	-0.462082	0.257551
H199	H	1.128817	-0.465460	0.317449
H200	H	1.110704	-0.540346	0.223505
H201	H	1.165821	-0.543734	0.283384
H202	H	1.216655	-0.474056	0.236604
H203	H	1.161543	-0.470679	0.176709
H204	H	1.214922	-0.517870	0.182898
C205	C	1.146194	-0.736353	0.246318
C206	C	1.187181	-0.772047	0.208613
C207	C	1.234049	-0.744958	0.165492
H208	H	1.120648	-0.713371	0.214528
H209	H	1.175741	-0.716752	0.274439
H210	H	1.157638	-0.791639	0.180493
H211	H	1.212742	-0.795029	0.240385
H212	H	1.263596	-0.725357	0.193614
H213	H	1.208497	-0.721977	0.133707
H214	H	1.261869	-0.769172	0.139909
C215	C	1.085108	-0.233638	0.641225
C216	C	1.047043	-0.197697	0.597493
C217	C	1.093366	-0.164569	0.562522
H218	H	1.110610	-0.215428	0.674597
H219	H	1.116844	-0.253758	0.613781
H220	H	1.015318	-0.177580	0.624935
H221	H	1.021542	-0.215892	0.564108
H222	H	1.125103	-0.184689	0.535078
H223	H	1.118866	-0.146363	0.595899
H224	H	1.067546	-0.140183	0.532841
H225	H	1.094221	-0.227230	1.115109
C226	C	0.918352	-0.352461	1.117826
C227	C	0.880864	-0.379142	1.068390
C228	C	0.834336	-0.412239	1.103120
H229	H	0.943984	-0.376938	1.147524
H230	H	0.886575	-0.332331	1.145214
H231	H	0.912636	-0.399271	1.041014
H232	H	0.855218	-0.354678	1.038690
H233	H	0.802560	-0.392109	1.130509
H234	H	0.859974	-0.436713	1.132818
H235	H	0.808891	-0.430343	1.069584
H236	H	1.133467	-0.842694	0.258061
C237	C	0.594819	-0.207914	0.269277
C238	C	0.522311	-0.213124	0.275976
C239	C	0.487287	-0.177273	0.229672
H240	H	0.606380	-0.173442	0.280085
H241	H	0.608679	-0.214540	0.222508
H242	H	0.508456	-0.206494	0.322734
H243	H	0.510729	-0.247589	0.265162
H244	H	0.501147	-0.183899	0.182904
H245	H	0.498854	-0.142803	0.240484
H246	H	0.438087	-0.180806	0.234207
