data_functionalizedCrystal
_audit_creation_method	'MofGen! by Chris Wilmer'
_symmetry_space_group_name_H-M	'P1'
_symmetry_Int_Tables_number	1
_symmetry_cell_setting	triclinic
loop_
_symmetry_equiv_pos_as_xyz
  x,y,z
_cell_length_a	25.639243
_cell_length_b	13.897447
_cell_length_c	13.897441
_cell_angle_alpha	90.029327
_cell_angle_beta	90.024451
_cell_angle_gamma	90.022254
loop_
_atom_site_label
_atom_site_type_symbol
_atom_site_fract_x
_atom_site_fract_y
_atom_site_fract_z
Zn1	Zn	0.799339	-0.383914	0.545485
Zn2	Zn	0.799278	-0.545236	0.384190
Zn3	Zn	0.711902	-0.383964	0.384193
Zn4	Zn	0.711889	-0.545176	0.545433
O5	O	0.755602	-0.464573	0.464825
O6	O	0.872496	-0.405318	0.524110
O7	O	0.787668	-0.523888	0.249209
O8	O	0.723531	-0.248976	0.405612
O9	O	0.872451	-0.523840	0.405607
O10	O	0.787770	-0.248939	0.524113
O11	O	0.723473	-0.405403	0.249211
O12	O	0.638735	-0.405345	0.405561
O13	O	0.723509	-0.523739	0.680421
O14	O	0.638726	-0.523787	0.524023
O15	O	0.787758	-0.405260	0.680460
O16	O	0.787655	-0.680209	0.405556
O17	O	0.723451	-0.680166	0.524020
C18	C	0.755559	-0.715187	0.464803
C19	C	0.755589	-0.822401	0.464826
C20	C	0.619759	-0.464566	0.464787
C21	C	0.561645	-0.464586	0.464794
C22	C	0.755614	-0.909471	0.464848
C23	C	0.755651	-1.018703	0.464873
C24	C	0.201300	-0.402955	0.526633
C25	C	0.146695	-0.402954	0.526639
O26	O	0.118474	-0.350535	0.579169
N27	N	0.119363	-0.464570	0.464852
C28	C	0.146637	-0.526183	0.403048
O29	O	0.118375	-0.578591	0.350494
C30	C	0.201241	-0.526178	0.403038
C31	C	0.228571	-0.464566	0.464836
C32	C	0.228630	-0.341346	0.588425
C33	C	0.283230	-0.341349	0.588420
C34	C	0.310501	-0.402960	0.526623
C35	C	0.283171	-0.464568	0.464831
C36	C	0.228514	-0.587786	0.341230
C37	C	0.283121	-0.587776	0.341225
C38	C	0.310451	-0.526163	0.403023
C39	C	0.365042	-0.526181	0.403029
N40	N	0.392375	-0.464566	0.464816
C41	C	0.365104	-0.402955	0.526613
C42	C	0.031967	-0.526187	0.403073
C43	C	-0.022636	-0.526198	0.403087
C44	C	-0.022574	-0.402967	0.526677
C45	C	0.032030	-0.402962	0.526667
C46	C	0.059299	-0.464572	0.464860
C47	C	0.479769	-0.402965	0.526598
C48	C	0.534375	-0.402976	0.526591
C49	C	0.534308	-0.526202	0.402998
C50	C	0.479707	-0.526196	0.403009
C51	C	0.452439	-0.464569	0.464812
O52	O	0.393299	-0.578571	0.350523
O53	O	0.393373	-0.350546	0.579149
C54	C	0.891975	-0.464580	0.464864
C55	C	0.950089	-0.464583	0.464881
C56	C	0.755639	-0.464487	0.716419
C57	C	0.755655	-0.464451	0.823633
C58	C	0.755659	-0.212980	0.464869
C59	C	0.755683	-0.105766	0.464888
C60	C	0.755595	-0.464588	0.214211
C61	C	0.755681	-0.464352	0.106998
C62	C	0.755669	-0.464386	1.019928
C63	C	0.755660	-0.464425	0.910695
H64	H	0.556624	-0.352802	0.576917
C65	C	-0.052582	-0.335187	0.594649
N66	N	-0.075186	-0.284139	0.645842
H67	H	0.457574	-0.352780	0.576921
H68	H	0.305322	-0.637946	0.290892
C69	C	0.449644	-0.593981	0.335037
N70	N	0.427004	-0.645032	0.283833
H71	H	0.305477	-0.291176	0.638740
C72	C	-0.052692	-0.593982	0.335110
N73	N	-0.075329	-0.645033	0.283901
C74	C	0.564316	-0.593963	0.335017
N75	N	0.586920	-0.644994	0.283806
C76	C	0.061959	-0.593978	0.335087
N77	N	0.084546	-0.645039	0.283881
H78	H	0.206272	-0.637957	0.290907
C79	C	0.198640	-0.273567	0.656416
N80	N	0.176056	-0.222518	0.707638
H81	H	0.054278	-0.352790	0.576986
