data_functionalizedCrystal
_audit_creation_method	'MofGen! by Chris Wilmer'
_symmetry_space_group_name_H-M	'P1'
_symmetry_Int_Tables_number	1
_symmetry_cell_setting	triclinic
loop_
_symmetry_equiv_pos_as_xyz
  x,y,z
_cell_length_a	14.519709
_cell_length_b	14.519731
_cell_length_c	11.892095
_cell_angle_alpha	93.895723
_cell_angle_beta	86.099364
_cell_angle_gamma	83.684499
loop_
_atom_site_label
_atom_site_type_symbol
_atom_site_fract_x
_atom_site_fract_y
_atom_site_fract_z
O1	O	1.229754	0.115013	-0.093858
O2	O	1.563087	0.448346	0.239475
O3	O	1.896421	0.781680	0.572809
O4	O	0.961280	0.129247	-0.093893
O5	O	1.294614	0.462581	0.239441
O6	O	1.627947	0.795914	0.572774
O7	O	1.102625	-0.012106	-0.093864
O8	O	1.435958	0.321227	0.239469
O9	O	1.769291	0.654560	0.572803
O10	O	1.088410	0.256367	-0.093886
O11	O	1.421743	0.589700	0.239447
O12	O	1.755077	0.923033	0.572780
O13	O	1.090840	-0.000339	0.094141
O14	O	1.424173	0.332995	0.427474
O15	O	1.757506	0.666328	0.760808
O16	O	0.949495	0.141015	0.094112
O17	O	1.282829	0.474348	0.427446
O18	O	1.616162	0.807682	0.760779
O19	O	1.217969	0.126781	0.094147
O20	O	1.551302	0.460114	0.427481
O21	O	1.884636	0.793447	0.760814
Zn22	Zn	1.081861	0.135766	0.123980
Zn23	Zn	1.415194	0.469099	0.457313
Zn24	Zn	1.748528	0.802433	0.790646
Zn25	Zn	1.097388	0.120262	-0.123725
Zn26	Zn	1.430722	0.453595	0.209608
Zn27	Zn	1.764055	0.786928	0.542942
O28	O	1.076625	0.268134	0.094119
O29	O	1.409958	0.601468	0.427452
O30	O	1.743292	0.934801	0.760785
C31	C	0.921028	0.134467	0.000105
C32	C	1.254362	0.467801	0.333439
C33	C	1.587695	0.801134	0.666772
C34	C	0.818648	0.132478	0.000092
C35	C	1.151981	0.465812	0.333426
C36	C	1.485314	0.799145	0.666759
C37	C	0.443748	0.125162	0.000145
C38	C	0.777081	0.458496	0.333478
C39	C	1.110415	0.791829	0.666811
C40	C	0.548057	0.127194	0.000130
C41	C	0.881391	0.460527	0.333463
C42	C	1.214724	0.793861	0.666796
C43	C	0.631195	0.128820	0.000117
C44	C	0.964528	0.462153	0.333451
C45	C	1.297861	0.795487	0.666784
C46	C	0.735510	0.130852	0.000105
C47	C	1.068844	0.464186	0.333438
C48	C	1.402177	0.797519	0.666771
C49	C	1.096066	-0.040582	0.000139
C50	C	1.429399	0.292751	0.333472
C51	C	1.762733	0.626085	0.666805
C52	C	1.094070	-0.142962	0.000139
C53	C	1.427403	0.190371	0.333472
C54	C	1.760737	0.523705	0.666806
C55	C	1.092448	-0.226106	0.000136
C56	C	1.425781	0.107227	0.333470
C57	C	1.759115	0.440560	0.666803
C58	C	1.090422	-0.330416	0.000127
C59	C	1.423755	0.002918	0.333461
C60	C	1.757089	0.336251	0.666794
C61	C	1.088814	-0.413555	0.000120
C62	C	1.422147	-0.080222	0.333453
C63	C	1.755481	0.253111	0.666786
C64	C	1.086788	-0.517871	0.000113
C65	C	1.420122	-0.184538	0.333446
C66	C	1.753455	0.148796	0.666780
C67	C	1.258221	0.121560	0.000147
C68	C	1.591555	0.454894	0.333480
C69	C	1.924888	0.788227	0.666813
C70	C	1.360602	0.123549	0.000152
C71	C	1.693936	0.456882	0.333485
C72	C	2.027269	0.790216	0.666819
C73	C	1.083184	0.296610	0.000113
C74	C	1.416517	0.629943	0.333447
C75	C	1.749850	0.963276	0.666780
C76	C	1.085180	0.398989	0.000106
C77	C	1.418514	0.732323	0.333439
C78	C	1.751847	1.065656	0.666772
N79	N	1.071271	0.146347	0.293032
N80	N	1.404604	0.479680	0.626365
N81	N	1.737938	0.813014	0.959698
N82	N	1.107986	0.109674	-0.292777
N83	N	1.441319	0.443007	0.040556
N84	N	1.774653	0.776340	0.373890
C85	C	1.181678	0.035995	0.529702
C86	C	1.515011	0.369329	0.863035
C87	C	1.848344	0.702662	1.196369
C88	C	1.174282	0.043398	0.648042
C89	C	1.507615	0.376731	0.981376
C90	C	1.840948	0.710064	1.314709
C91	C	1.049080	0.168550	0.648055
C92	C	1.382413	0.501883	0.981388
C93	C	1.715746	0.835216	1.314722
C94	C	1.056475	0.161147	0.529715
C95	C	1.389809	0.494480	0.863048
C96	C	1.723142	0.827814	1.196381
C97	C	1.122777	0.094869	0.470542
C98	C	1.456111	0.428202	0.803875
C99	C	1.789444	0.761535	1.137209
C100	C	1.130177	0.087471	0.352200
C101	C	1.463510	0.420804	0.685533
C102	C	1.796844	0.754138	1.018866
C103	C	1.004971	0.212618	0.352214
C104	C	1.338305	0.545951	0.685548
C105	C	1.671638	0.879284	1.018881
C106	C	0.997575	0.220020	0.470555
C107	C	1.330909	0.553354	0.803888
C108	C	1.664242	0.886687	1.137222
H109	H	1.184166	0.033506	0.304022
H110	H	1.517499	0.366840	0.637356
H111	H	1.850832	0.700173	0.970689
H112	H	0.943591	0.273981	0.518747
H113	H	1.276924	0.607314	0.852080
H114	H	1.610258	0.940648	1.185413
O115	O	1.231368	-0.013878	0.705563
O116	O	1.564701	0.319456	1.038896
O117	O	1.898034	0.652789	1.372229
C118	C	1.177601	-0.066580	0.774048
C119	C	1.510935	0.266754	1.107381
C120	C	1.844268	0.600087	1.440715
H121	H	1.107100	-0.070525	0.738396
H122	H	1.440433	0.262808	1.071729
H123	H	1.773767	0.596142	1.405062
H124	H	1.215015	-0.139717	0.775390
H125	H	1.548348	0.193617	1.108724
H126	H	1.881681	0.526950	1.442057
H127	H	1.167213	-0.032116	0.863735
H128	H	1.500546	0.301217	1.197068
H129	H	1.833880	0.634551	1.530401
H130	H	0.957013	0.260559	0.304033
H131	H	1.290347	0.593892	0.637367
H132	H	1.623680	0.927226	0.970700
O133	O	0.984548	0.232822	0.705501
O134	O	1.317881	0.566155	1.038834
O135	O	1.651215	0.899488	1.372168
C136	C	0.895045	0.215828	0.676573
C137	C	1.228378	0.549161	1.009907
C138	C	1.561712	0.882494	1.343240
H139	H	0.896511	0.139959	0.644023
H140	H	1.229845	0.473293	0.977357
H141	H	1.563178	0.806626	1.310690
H142	H	0.843919	0.231181	0.754409
H143	H	1.177252	0.564514	1.087742
H144	H	1.510585	0.897848	1.421075
H145	H	0.872330	0.262600	0.607899
H146	H	1.205663	0.595934	0.941232
H147	H	1.538996	0.929267	1.274565
H148	H	1.235669	-0.017965	0.481523
H149	H	1.569003	0.315368	0.814856
H150	H	1.902336	0.648701	1.148190
