data_functionalizedCrystal
_audit_creation_method	'MofGen! by Chris Wilmer'
_symmetry_space_group_name_H-M	'P1'
_symmetry_Int_Tables_number	1
_symmetry_cell_setting	triclinic
loop_
_symmetry_equiv_pos_as_xyz
  x,y,z
_cell_length_a	9.065218
_cell_length_b	27.732048
_cell_length_c	7.540329
_cell_angle_alpha	89.991480
_cell_angle_beta	89.996962
_cell_angle_gamma	83.829270
loop_
_atom_site_label
_atom_site_type_symbol
_atom_site_fract_x
_atom_site_fract_y
_atom_site_fract_z
O1	O	1.955892	0.070866	-0.147510
O2	O	1.526237	0.076679	-0.147514
O3	O	1.754409	0.003467	-0.147478
O4	O	1.727721	0.144079	-0.147546
O5	O	1.754395	0.003466	0.147487
O6	O	1.526224	0.076678	0.147451
O7	O	1.955878	0.070866	0.147455
Cu8	Cu	1.741050	0.073772	0.174386
Cu9	Cu	1.741066	0.073773	-0.174444
O10	O	1.727707	0.144078	0.147419
C11	C	1.471280	0.076120	-0.000031
C12	C	1.307543	0.074450	-0.000032
C13	C	1.753842	-0.014544	0.000010
C14	C	1.752155	-0.068210	0.000024
C15	C	1.876369	-0.406178	-0.000066
C16	C	1.870110	-0.607880	-0.000090
O17	O	1.983695	-0.638360	-0.000167
N18	N	1.734814	-0.627927	-0.000090
C19	C	1.601073	-0.597545	-0.000095
O20	O	1.485852	-0.619225	-0.000114
C21	C	1.607334	-0.395844	-0.000083
C22	C	1.742639	-0.375800	-0.000065
C23	C	2.011663	-0.386133	-0.000050
C24	C	2.013226	-0.335710	-0.000034
C25	C	1.879496	-0.305332	-0.000034
C26	C	1.744202	-0.325377	-0.000050
C27	C	1.473594	-0.365463	-0.000101
C28	C	1.475171	-0.315035	-0.000103
C29	C	1.610476	-0.294991	-0.000085
C30	C	1.612034	-0.244577	-0.000034
N31	N	1.747331	-0.224529	-0.000034
C32	C	1.881061	-0.254907	-0.000034
C33	C	1.597796	-0.703442	-0.000098
C34	C	1.596230	-0.753867	-0.000098
C35	C	1.865268	-0.764198	-0.000096
C36	C	1.866832	-0.713772	-0.000084
C37	C	1.733092	-0.683395	-0.000098
C38	C	1.884334	-0.149016	0.000001
C39	C	1.885886	-0.098588	0.000024
C40	C	1.616849	-0.088262	0.000013
C41	C	1.615296	-0.138685	-0.000001
C42	C	1.749051	-0.169061	-0.000013
O43	O	1.498510	-0.214067	0.000023
O44	O	1.996266	-0.233218	-0.000055
C45	C	1.874806	-0.456600	-0.000082
C46	C	1.739512	-0.476645	-0.000097
C47	C	1.605781	-0.446267	-0.000097
C48	C	1.737946	-0.527070	-0.000097
C49	C	1.871677	-0.557448	-0.000097
C50	C	2.006973	-0.537401	-0.000098
C51	C	2.008537	-0.486978	-0.000082
C52	C	1.470485	-0.466314	-0.000097
C53	C	1.468933	-0.516737	-0.000111
C54	C	1.602663	-0.547115	-0.000111
C55	C	2.010836	0.071425	-0.000031
C56	C	2.174573	0.073095	-0.000042
C57	C	1.728274	0.162089	-0.000072
C58	C	1.729961	0.215755	-0.000098
N59	N	1.741050	0.073771	0.419734
N60	N	1.741078	0.073770	-0.419793
H61	H	1.993250	-0.173743	-0.000016
C62	C	1.322124	-0.538561	-0.000410
C63	C	1.313395	-0.567206	-0.152158
C64	C	1.178191	-0.587321	-0.152501
H65	H	1.242585	-0.513294	-0.000504
H66	H	1.315884	-0.558052	0.102386
H67	H	1.319621	-0.547716	-0.254927
H68	H	1.392902	-0.592481	-0.152096
H69	H	1.171950	-0.606812	-0.049705
H70	H	1.098663	-0.562050	-0.152590
H71	H	1.172256	-0.606762	-0.255451
C72	C	1.449281	-0.775598	-0.000464
C73	C	1.368540	-0.760215	-0.152244
C74	C	1.233168	-0.780227	-0.152665
H75	H	1.394084	-0.765228	0.102273
H76	H	1.467424	-0.809983	-0.000561
H77	H	1.350393	-0.725838	-0.152131
H78	H	1.423693	-0.770585	-0.255006
H79	H	1.251311	-0.814612	-0.152762
H80	H	1.177985	-0.769855	-0.049921
H81	H	1.178375	-0.769796	-0.255653
C82	C	1.452693	-0.670406	0.000175
C83	C	1.445734	-0.641152	0.151905
C84	C	1.312098	-0.610711	0.152212
H85	H	1.371778	-0.689510	0.000270
H86	H	1.447692	-0.650488	-0.102633
H87	H	1.450721	-0.661068	0.254686
H88	H	1.526618	-0.622037	0.151842
H89	H	1.307097	-0.590793	0.049404
H90	H	1.231193	-0.629820	0.152302
H91	H	1.307365	-0.590856	0.255150
H92	H	2.115862	-0.562143	-0.000090
H93	H	2.123406	-0.319395	-0.000027
H94	H	1.363415	-0.381774	-0.000126
C95	C	1.329850	-0.282112	-0.000391
C96	C	1.248316	-0.291263	-0.152131
C97	C	1.114434	-0.260949	-0.152442
H98	H	1.349940	-0.249193	-0.000474
H99	H	1.274234	-0.288267	0.102410
H100	H	1.303920	-0.285104	-0.254905
H101	H	1.228187	-0.324175	-0.152081
H102	H	1.058817	-0.267104	-0.049641
H103	H	1.134538	-0.228032	-0.152520
H104	H	1.059090	-0.267156	-0.255387
H105	H	1.505120	-0.155005	0.000034
C106	C	2.010509	-0.797163	0.000253
C107	C	2.092049	-0.788037	0.152017
C108	C	2.225834	-0.818401	0.152395
H109	H	2.066208	-0.791047	-0.102495
H110	H	1.990246	-0.830070	0.000344
H111	H	2.112316	-0.755137	0.151910
H112	H	2.036396	-0.794156	0.254790
H113	H	2.205571	-0.851309	0.152486
H114	H	2.281519	-0.812283	0.049640
H115	H	2.281169	-0.812217	0.255372
C116	C	1.325325	-0.433314	-0.000454
C117	C	1.318328	-0.404061	-0.152218
C118	C	1.184610	-0.373662	-0.152609
H119	H	1.320189	-0.413390	0.102294
H120	H	1.244493	-0.452464	-0.000553
H121	H	1.399137	-0.384913	-0.152103
H122	H	1.323439	-0.423972	-0.254990
H123	H	1.103778	-0.392812	-0.152708
H124	H	1.179485	-0.353742	-0.049855
H125	H	1.179838	-0.353814	-0.255586
C126	C	2.032949	-0.076920	-0.000056
C127	C	2.149724	-0.114320	-0.000113
C128	C	2.285213	-0.094380	-0.000215
H129	H	2.039365	-0.057476	0.102782
H130	H	2.039237	-0.057472	-0.102953
H131	H	2.143439	-0.133760	0.102774
H132	H	2.143357	-0.133767	-0.102943
H133	H	2.291502	-0.074932	-0.103113
H134	H	2.291614	-0.074937	0.102624
H135	H	2.364461	-0.119753	-0.000270
C136	C	1.471708	-0.055249	-0.000360
C137	C	1.464768	-0.026002	-0.152136
C138	C	1.331079	0.004412	-0.152567
H139	H	1.466578	-0.035322	0.102379
H140	H	1.390852	-0.074388	-0.000469
H141	H	1.545602	-0.006864	-0.152011
H142	H	1.469873	-0.045916	-0.254901
H143	H	1.250223	-0.014727	-0.152676
H144	H	1.325961	0.024336	-0.049821
H145	H	1.326346	0.024257	-0.255553
H146	H	2.120569	-0.410862	-0.000057
H147	H	1.977009	-0.697456	-0.000071
H148	H	2.118716	-0.470663	-0.000068
