data_functionalizedCrystal
_audit_creation_method	'MofGen! by Chris Wilmer'
_symmetry_space_group_name_H-M	'P1'
_symmetry_Int_Tables_number	1
_symmetry_cell_setting	triclinic
loop_
_symmetry_equiv_pos_as_xyz
  x,y,z
_cell_length_a	12.811457
_cell_length_b	17.038272
_cell_length_c	11.892095
_cell_angle_alpha	85.829179
_cell_angle_beta	88.501673
_cell_angle_gamma	87.561665
loop_
_atom_site_label
_atom_site_type_symbol
_atom_site_fract_x
_atom_site_fract_y
_atom_site_fract_z
O1	O	1.398771	0.107947	-0.049392
O2	O	1.096281	0.117761	-0.018379
O3	O	1.245727	-0.000977	-0.033710
O4	O	1.249324	0.226685	-0.034061
O5	O	1.233265	0.008908	-0.220439
O6	O	1.083819	0.127646	-0.205109
O7	O	1.386309	0.117832	-0.236121
Zn8	Zn	1.233085	0.124308	-0.250262
Zn9	Zn	1.249504	0.111284	-0.004239
O10	O	1.236862	0.236570	-0.220790
C11	C	1.051155	0.121850	-0.107756
C12	C	0.935259	0.119300	-0.095875
C13	C	0.703890	0.125270	-0.277142
C14	C	0.594995	0.122873	-0.265984
C15	C	0.608572	0.112105	-0.062400
C16	C	0.717467	0.114501	-0.073559
C17	C	0.765122	0.121085	-0.180933
C18	C	0.874018	0.123487	-0.192090
C19	C	0.887594	0.112713	0.011492
C20	C	0.778699	0.110317	0.022650
C21	C	1.236226	-0.025192	-0.126739
C22	C	1.226469	-0.112072	-0.125739
C23	C	1.316048	-0.161389	-0.134924
C24	C	1.306875	-0.243022	-0.133973
C25	C	1.208122	-0.275335	-0.123844
C26	C	1.118537	-0.226012	-0.114655
C27	C	1.127711	-0.144381	-0.115598
C28	C	1.175710	-0.521382	-0.120506
C29	C	1.166542	-0.603019	-0.119567
C30	C	1.354882	-0.620024	-0.138882
C31	C	1.364047	-0.538390	-0.139832
C32	C	1.274462	-0.489074	-0.130636
C33	C	1.198743	-0.358776	-0.122875
C34	C	1.283843	-0.405635	-0.131597
C35	C	1.431435	0.113742	-0.146742
C36	C	1.547332	0.116292	-0.158616
C37	C	1.246364	0.260784	-0.127759
C38	C	1.256121	0.347664	-0.128752
N39	N	1.221887	0.133196	-0.418167
C40	C	1.338628	0.040500	-0.666791
C41	C	1.330808	0.046719	-0.784331
C42	C	1.198425	0.151846	-0.770788
C43	C	1.206244	0.145628	-0.653249
C44	C	1.276349	0.089954	-0.601254
C45	C	1.284173	0.083740	-0.483713
C46	C	1.151784	0.188864	-0.470172
C47	C	1.143965	0.195082	-0.587712
N48	N	1.260710	0.102391	0.163666
H49	H	0.739884	0.104953	0.110071
H50	H	1.396463	-0.135086	-0.143179
O51	O	1.459939	-0.506952	-0.149859
C52	C	1.464413	-0.455112	-0.247674
H53	H	1.403703	-0.471316	-0.309507
H54	H	1.447516	-0.392118	-0.223929
C55	C	1.648697	-0.441789	-0.227128
C56	C	1.574139	-0.461695	-0.303076
H57	H	1.716382	-0.445846	-0.261301
H58	H	1.645683	-0.476712	-0.161225
H59	H	1.634603	-0.389295	-0.207346
H60	H	1.588226	-0.514190	-0.322845
H61	H	1.577158	-0.426780	-0.368984
H62	H	1.381520	0.006448	-0.837688
O63	O	0.920277	0.129741	-0.296414
C64	C	0.895322	0.064817	-0.356209
H65	H	0.873418	0.013747	-0.293993
H66	H	0.826567	0.082068	-0.413066
C67	C	1.017432	0.102304	-0.505177
C68	C	0.990537	0.039577	-0.428762
H69	H	1.076162	0.086736	-0.549935
H70	H	1.034242	0.146046	-0.464894
H71	H	0.960128	0.116674	-0.552547
H72	H	1.047836	0.025215	-0.381384
H73	H	0.973738	-0.004168	-0.469038
H74	H	0.569753	0.106731	0.025019
O75	O	1.406748	-0.013641	-0.616455
C76	C	1.460067	-0.055940	-0.699508
H77	H	1.411664	-0.052784	-0.778915
H78	H	1.538948	-0.029163	-0.720160
C79	C	1.536589	-0.146457	-0.557538
C80	C	1.477135	-0.142586	-0.655064
H81	H	1.547122	-0.199903	-0.530123
H82	H	1.500670	-0.117957	-0.501583
H83	H	1.602316	-0.124138	-0.574762
H84	H	1.411404	-0.164896	-0.637837
H85	H	1.513043	-0.171092	-0.711016
H86	H	1.141340	0.197169	-0.813137
H87	H	1.379820	-0.283173	-0.141455
O88	O	0.947018	0.108782	0.104993
C89	C	0.918707	0.172530	0.170252
H90	H	0.880741	0.222283	0.114175
H91	H	0.861042	0.152492	0.240060
C92	C	1.063594	0.140917	0.291862
C93	C	1.016972	0.202027	0.222985
H94	H	1.124207	0.159111	0.324395
H95	H	1.082666	0.097967	0.247899
H96	H	1.015530	0.124224	0.350027
H97	H	1.065031	0.218712	0.164814
H98	H	0.997910	0.244981	0.266939
O99	O	0.750023	0.131634	-0.381523
C100	C	0.672623	0.134839	-0.464049
H101	H	0.599110	0.106834	-0.426476
H102	H	0.653579	0.198880	-0.493605
C103	C	0.803397	0.124058	-0.611174
C104	C	0.713109	0.089656	-0.565029
H105	H	0.828371	0.096191	-0.673466
H106	H	0.855543	0.121902	-0.555576
H107	H	0.787514	0.177424	-0.635795
H108	H	0.728996	0.036295	-0.540396
H109	H	0.660966	0.091802	-0.620626
H110	H	1.427816	-0.660185	-0.146366
H111	H	1.086884	0.240409	-0.630059
H112	H	1.086120	-0.629324	-0.111337
H113	H	1.102763	-0.481238	-0.113019
O114	O	0.535482	0.126798	-0.359409
C115	C	0.477874	0.058122	-0.359626
H116	H	0.518600	0.008527	-0.305638
H117	H	0.395855	0.070147	-0.323691
C118	C	0.420708	0.094766	-0.547642
C119	C	0.470733	0.033851	-0.481341
H120	H	0.416298	0.079796	-0.622721
H121	H	0.459516	0.141037	-0.547495
H122	H	0.352364	0.104782	-0.517684
H123	H	0.539080	0.023843	-0.511291
H124	H	0.431936	-0.012422	-0.481495
O125	O	1.091332	0.236827	-0.406339
C126	C	1.113289	0.219421	-0.291447
H127	H	1.147805	0.156714	-0.278810
H128	H	1.171746	0.262417	-0.263854
C129	C	0.969289	0.304054	-0.235810
C130	C	1.011674	0.227034	-0.220288
H131	H	0.906610	0.308753	-0.191914
H132	H	0.954498	0.315783	-0.313215
H133	H	1.018013	0.339875	-0.212817
H134	H	0.962956	0.191216	-0.243294
H135	H	1.026455	0.215299	-0.142885
H136	H	1.038130	-0.252328	-0.106401
H137	H	1.054766	-0.104227	-0.108119
H138	H	1.341258	0.038410	-0.441381
H139	H	1.118337	-0.385095	-0.114631
O140	O	1.379722	-0.374165	-0.141280
C141	C	1.397128	-0.332586	-0.045682
H142	H	1.318894	-0.314687	-0.005190
H143	H	1.444594	-0.371821	0.017630
C144	C	1.553792	-0.280330	-0.131208
C145	C	1.457703	-0.258341	-0.081481
H146	H	1.591161	-0.234534	-0.153288
H147	H	1.542068	-0.308345	-0.195613
H148	H	1.593334	-0.313027	-0.078439
H149	H	1.418158	-0.225653	-0.134253
H150	H	1.469422	-0.230319	-0.017085
