data_functionalizedCrystal
_audit_creation_method	'MofGen! by Chris Wilmer'
_symmetry_space_group_name_H-M	'P1'
_symmetry_Int_Tables_number	1
_symmetry_cell_setting	triclinic
loop_
_symmetry_equiv_pos_as_xyz
  x,y,z
_cell_length_a	11.792241
_cell_length_b	10.654541
_cell_length_c	9.130307
_cell_angle_alpha	89.996917
_cell_angle_beta	90.002681
_cell_angle_gamma	84.338672
loop_
_atom_site_label
_atom_site_type_symbol
_atom_site_fract_x
_atom_site_fract_y
_atom_site_fract_z
O1	O	1.507300	0.172134	-0.121656
O2	O	1.177000	0.189874	-0.121691
O3	O	1.349746	-0.001757	-0.121664
O4	O	1.334555	0.363765	-0.121683
O5	O	1.349740	-0.001759	0.121935
O6	O	1.176994	0.189872	0.121908
O7	O	1.507295	0.172132	0.121943
Cu8	Cu	1.342144	0.181002	0.144168
Cu9	Cu	1.342151	0.181004	-0.143916
O10	O	1.334549	0.363763	0.121916
C11	C	1.348628	-0.048553	0.000135
C12	C	1.345293	-0.187987	0.000132
C13	C	1.134704	0.188759	0.000105
C14	C	1.008682	0.185423	0.000092
C15	C	1.551857	-0.216542	0.000172
C16	C	1.653568	-0.296324	0.000195
C17	C	1.650427	-0.427333	0.000190
C18	C	1.545564	-0.478562	0.000158
C19	C	1.443854	-0.398780	0.000135
C20	C	1.447006	-0.267770	0.000144
C21	C	1.237292	-0.370225	0.000085
C22	C	1.240430	-0.239216	0.000100
C23	C	1.132429	-0.421454	0.000053
C24	C	1.030716	-0.341672	0.000040
C25	C	1.033861	-0.210655	0.000047
C26	C	1.138720	-0.159434	0.000077
C27	C	0.777956	0.179290	0.000134
C28	C	0.906349	0.182698	0.000111
C29	C	1.549591	0.173247	0.000144
C30	C	1.675612	0.176582	0.000147
C31	C	1.335667	0.410559	0.000114
C32	C	1.339002	0.549993	0.000107
N33	N	1.342148	0.180999	0.346791
N34	N	1.342156	0.180996	-0.346539
C35	C	1.495177	0.011360	0.346805
C36	C	1.571699	-0.073457	0.423478
C37	C	1.571711	-0.073458	0.576812
C38	C	1.495189	0.011365	0.653475
C39	C	1.418667	0.096181	0.576801
C40	C	1.418666	0.096175	0.423464
C41	C	1.265634	0.265813	0.576788
C42	C	1.265626	0.265822	0.423454
C43	C	1.189113	0.350635	0.653451
C44	C	1.112594	0.435459	0.576777
C45	C	1.112587	0.435457	0.423435
C46	C	1.189104	0.350638	0.346781
H47	H	1.738945	-0.254599	0.000233
O48	O	1.495163	0.011365	0.181423
H49	H	1.561221	-0.061867	0.140996
O50	O	1.654244	-0.164940	0.659512
H51	H	1.641386	-0.150690	0.779012
H52	H	1.495194	0.011348	0.778327
O53	O	1.189124	0.350650	0.818832
H54	H	1.255199	0.277435	0.859273
H55	H	0.945345	-0.383393	0.000005
H56	H	1.634000	-0.142521	0.361045
O57	O	1.760123	-0.513396	0.000224
H58	H	1.833569	-0.455771	0.000258
H59	H	1.129879	-0.528129	0.000040
O60	O	0.924158	-0.124603	0.000034
H61	H	0.850721	-0.182241	0.000024
O62	O	1.030033	0.526937	0.340760
H63	H	0.974454	0.473642	0.270924
O64	O	1.555252	-0.075240	0.000208
H65	H	1.466911	-0.028370	0.000204
O66	O	1.542169	-0.619864	0.000153
H67	H	1.630511	-0.666735	0.000179
H68	H	1.141291	-0.052761	0.000091
H69	H	1.189109	0.350633	0.221928
O70	O	1.030070	0.526943	0.659456
H71	H	1.042935	0.512694	0.778959
