data_functionalizedCrystal
_audit_creation_method	'MofGen! by Chris Wilmer'
_symmetry_space_group_name_H-M	'P1'
_symmetry_Int_Tables_number	1
_symmetry_cell_setting	triclinic
loop_
_symmetry_equiv_pos_as_xyz
  x,y,z
_cell_length_a	6.817900
_cell_length_b	14.858329
_cell_length_c	10.992410
_cell_angle_alpha	93.425518
_cell_angle_beta	108.764651
_cell_angle_gamma	104.519616
loop_
_atom_site_label
_atom_site_type_symbol
_atom_site_fract_x
_atom_site_fract_y
_atom_site_fract_z
V1	V	-4.092555	-0.128670	-0.400959
O2	O	-4.073418	0.006183	-0.392950
O3	O	-4.048813	-0.255132	-0.398579
O4	O	-4.070481	-0.126691	-0.575666
O5	O	-4.051601	-0.123147	-0.214637
V6	V	-4.572168	-0.112540	-0.378630
O7	O	-4.362390	-0.164053	-0.449941
O8	O	-4.752530	-0.077158	-0.329648
O9	O	-4.392703	0.013921	-0.381009
O10	O	-4.708702	-0.247394	-0.386639
O11	O	-4.730519	-0.118064	-0.564952
O12	O	-4.371036	-0.114520	-0.203923
C13	C	-3.894095	-0.285960	-0.392348
C14	C	-3.939794	-0.389344	-0.391566
C15	C	-3.976898	-0.473302	-0.390920
C16	C	-4.023467	-0.578632	-0.390115
C17	C	-4.060600	-0.662584	-0.389475
C18	C	-4.107171	-0.767920	-0.388668
C19	C	-3.921733	-0.122120	-0.618238
C20	C	-3.985000	-0.121339	-0.761064
C21	C	-3.853323	-0.114219	-0.956167
C22	C	-3.787571	-0.115417	-0.807687
C23	C	-4.167556	-0.213035	-0.838429
C24	C	-4.232006	-0.212224	-0.986993
C25	C	-4.139708	-0.034667	-0.948456
C26	C	-4.069072	-0.034232	-0.799442
C27	C	-4.210763	0.044745	-0.387238
C28	C	-4.144304	0.148128	-0.388027
C29	C	-4.183125	-0.119093	-0.161344
C30	C	-4.099096	-0.119870	-0.018517
H31	H	-3.747312	-0.047832	-0.974807
H32	H	-4.412664	-0.220198	-1.029647
H33	H	-4.316643	-0.220680	-0.809647
N34	N	-3.605705	-0.028046	-0.736855
H35	H	-3.655280	0.029531	-0.758450
H36	H	-3.477624	-0.026611	-0.764693
N37	N	-3.806597	-0.195309	-1.019953
H38	H	-3.943940	-0.235690	-1.089063
H39	H	-3.749272	-0.234339	-0.952318
N40	N	-3.697909	-0.197621	-0.775063
H41	H	-3.811769	-0.258168	-0.823096
H42	H	-3.654716	-0.198666	-0.678350
N43	N	-4.196999	-0.297678	-1.048540
H44	H	-4.139924	-0.335518	-0.979098
H45	H	-4.089050	-0.276919	-1.093534
N46	N	-4.376039	-0.039072	-1.002561
H47	H	-4.456476	-0.095950	-1.072110
H48	H	-4.391665	0.019801	-1.041307
N49	N	-4.092508	-0.298703	-0.804757
H50	H	-3.959672	-0.295729	-0.828205
H51	H	-4.211219	-0.357305	-0.855036
H52	H	-4.048533	0.034965	-0.968616
N53	N	-3.894462	0.055626	-0.729864
H54	H	-3.761451	0.039985	-0.673710
H55	H	-3.947831	0.092455	-0.673504
N56	N	-4.257446	-0.032755	-0.756284
H57	H	-4.291127	-0.088787	-0.711056
H58	H	-4.388023	-0.035536	-0.834632
