data_functionalizedCrystal
_audit_creation_method	'MofGen! by Chris Wilmer'
_symmetry_space_group_name_H-M	'P1'
_symmetry_Int_Tables_number	1
_symmetry_cell_setting	triclinic
loop_
_symmetry_equiv_pos_as_xyz
  x,y,z
_cell_length_a	15.944493
_cell_length_b	15.944551
_cell_length_c	15.021413
_cell_angle_alpha	90.003065
_cell_angle_beta	89.993251
_cell_angle_gamma	83.486891
loop_
_atom_site_label
_atom_site_type_symbol
_atom_site_fract_x
_atom_site_fract_y
_atom_site_fract_z
O1	O	1.114559	0.108089	-0.074022
O2	O	0.870003	0.121496	-0.074027
O3	O	0.998959	-0.007484	-0.074016
O4	O	0.985603	0.237069	-0.074033
O5	O	0.998939	-0.007465	0.074048
O6	O	0.869982	0.121514	0.074037
O7	O	1.114539	0.108107	0.074042
Zn8	Zn	0.992257	0.114814	0.097548
Zn9	Zn	0.992284	0.114790	-0.097533
O10	O	0.985582	0.237087	0.074032
C11	C	0.838698	0.120957	0.000005
C12	C	0.745449	0.119314	0.000003
C13	C	0.509689	0.195235	-0.000002
C14	C	0.459121	0.154303	0.073008
C15	C	0.574728	0.116270	0.000005
C16	C	0.459146	0.154266	-0.072972
C17	C	0.409819	0.113336	0.000003
C18	C	0.525388	0.075360	0.073075
C19	C	0.525416	0.075334	-0.072970
C20	C	0.474880	0.034345	0.000058
C21	C	0.669728	0.117963	0.000007
C22	C	0.314821	0.111637	0.000008
C23	C	0.998395	-0.038768	0.000016
C24	C	0.996732	-0.132014	0.000016
C25	C	0.912826	-0.346853	0.000003
C26	C	0.951779	-0.407870	0.073008
C27	C	0.993725	-0.302739	0.000010
C28	C	0.951818	-0.407871	-0.072972
C29	C	0.990814	-0.467651	-0.000001
C30	C	1.032700	-0.362527	0.073075
C31	C	1.032728	-0.362523	-0.072970
C32	C	1.071741	-0.423521	0.000053
C33	C	0.995399	-0.207737	0.000016
C34	C	0.989146	-0.562652	-0.000001
C35	C	1.145844	0.108646	0.000009
C36	C	1.239092	0.110289	0.000004
C37	C	0.986147	0.268372	-0.000003
C38	C	0.987809	0.361617	-0.000009
N39	N	0.992245	0.114830	0.230686
N40	N	0.992303	0.114767	-0.230670
C41	C	0.932606	0.174442	0.470364
C42	C	1.008509	0.190733	0.529699
C43	C	0.992266	0.114809	0.412293
C44	C	0.916385	0.098536	0.529700
C45	C	0.992280	0.114791	0.587717
C46	C	1.068207	0.131138	0.470321
C47	C	0.976033	0.038908	0.470317
C48	C	1.051990	0.055167	0.529624
C49	C	0.992257	0.114822	0.311235
C50	C	0.992298	0.114777	0.688772
H51	H	0.525313	0.263254	0.000061
H52	H	1.066880	-0.342536	0.134863
H53	H	1.102504	0.004726	0.555481
H54	H	0.430175	0.187659	0.134726
O55	O	0.454378	-0.055817	0.000114
H56	H	0.481154	-0.088382	0.060773
H57	H	0.430216	0.187622	-0.134688
O58	O	0.906485	-0.434480	-0.154722
H59	H	0.906187	-0.504057	-0.154297
H60	H	0.962266	-0.025251	0.444213
O61	O	0.831376	0.080313	0.564252
H62	H	0.839222	0.021811	0.604888
O63	O	0.563549	0.031235	0.154929
H64	H	0.632957	0.032853	0.154306
O65	O	0.865844	0.241288	0.435883
H66	H	0.879534	0.304225	0.459667
O67	O	0.563784	0.031184	-0.154722
H68	H	0.537122	0.064096	-0.215238
O69	O	0.823884	-0.302702	0.000091
H70	H	0.790494	-0.320736	0.060785
O71	O	1.026674	0.275746	0.564284
H72	H	1.035118	0.318316	0.507312
H73	H	1.138950	-0.456694	0.000096
H74	H	1.132399	0.144970	0.444348
H75	H	0.917553	-0.427963	0.134727
H76	H	1.066925	-0.342407	-0.134692
