data_functionalizedCrystal
_audit_creation_method	'MofGen! by Chris Wilmer'
_symmetry_space_group_name_H-M	'P1'
_symmetry_Int_Tables_number	1
_symmetry_cell_setting	triclinic
loop_
_symmetry_equiv_pos_as_xyz
  x,y,z
_cell_length_a	12.759401
_cell_length_b	15.296118
_cell_length_c	15.298259
_cell_angle_alpha	69.175288
_cell_angle_beta	99.661881
_cell_angle_gamma	99.691770
loop_
_atom_site_label
_atom_site_type_symbol
_atom_site_fract_x
_atom_site_fract_y
_atom_site_fract_z
Zn1	Zn	1.456908	-0.279296	-0.461653
Zn2	Zn	1.456792	-0.461812	-0.279171
Zn3	Zn	1.307119	-0.306260	-0.306142
Zn4	Zn	1.255286	-0.434829	-0.434669
O5	O	1.369026	-0.370549	-0.370409
O6	O	1.603911	-0.303515	-0.437453
O7	O	1.458581	-0.463754	-0.152590
O8	O	1.348729	-0.172494	-0.349352
O9	O	1.603825	-0.437608	-0.303383
O10	O	1.458779	-0.152683	-0.463605
O11	O	1.348617	-0.349472	-0.172406
O12	O	1.153225	-0.323307	-0.323185
O13	O	1.260388	-0.391620	-0.568407
O14	O	1.115143	-0.417766	-0.417613
O15	O	1.408519	-0.277351	-0.588232
O16	O	1.408321	-0.588422	-0.277217
O17	O	1.260275	-0.568598	-0.391461
C18	C	1.096064	-0.370535	-0.370398
C19	C	0.979282	-0.370548	-0.370412
C20	C	1.328686	-0.612263	-0.328504
C21	C	1.311519	-0.715664	-0.310608
C22	C	0.924432	-0.300817	-0.440295
C23	C	0.814705	-0.300826	-0.440300
C24	C	0.814687	-0.440304	-0.300534
C25	C	0.924413	-0.440291	-0.300527
C26	C	0.677487	-0.185381	-0.492736
C27	C	0.622629	-0.115656	-0.562632
C28	C	0.645520	-0.085764	-0.655861
C29	C	0.723262	-0.125608	-0.679210
C30	C	0.778112	-0.195339	-0.609318
C31	C	0.755228	-0.225215	-0.516079
C32	C	1.061632	-0.555736	-0.248099
C33	C	1.116482	-0.625471	-0.178210
C34	C	1.093592	-0.655373	-0.084978
C35	C	1.015843	-0.615545	-0.061629
C36	C	0.960992	-0.545809	-0.131518
C37	C	0.983891	-0.515906	-0.224750
C38	C	1.246202	-0.774647	-0.242658
C39	C	1.230076	-0.871796	-0.225848
C40	C	1.279260	-0.909972	-0.276993
C41	C	1.344572	-0.850989	-0.344950
C42	C	1.360706	-0.753830	-0.361756
C43	C	1.393764	-0.889156	-0.396091
C44	C	1.459077	-0.830172	-0.464048
C45	C	1.475207	-0.733023	-0.480852
C46	C	1.426024	-0.694848	-0.429707
C47	C	1.377630	-0.986314	-0.379285
C48	C	1.492135	-0.965497	-0.498384
C49	C	1.508260	-0.868348	-0.515193
C50	C	1.643054	-0.370564	-0.370419
C51	C	1.759829	-0.370570	-0.370424
C52	C	1.328685	-0.328468	-0.613012
C53	C	1.311493	-0.310535	-0.716395
C54	C	1.409549	-0.127888	-0.412497
C55	C	1.426817	-0.024480	-0.430433
C56	C	1.492047	-0.497999	-0.966538
C57	C	1.508193	-0.514854	-0.869403
C58	C	1.459020	-0.463776	-0.831146
C59	C	1.393698	-0.395840	-0.890034
C60	C	1.377544	-0.378989	-0.987177
C61	C	1.344516	-0.344765	-0.851785
C62	C	1.279194	-0.276830	-0.910672
C63	C	1.263044	-0.259982	-1.007806
C64	C	1.312217	-0.311060	-1.046063
C65	C	1.360670	-0.361616	-0.754642
C66	C	1.246166	-0.242606	-0.775281
C67	C	1.230021	-0.225752	-0.872416
C68	C	1.409282	-0.412400	-0.128761
C69	C	1.426721	-0.430070	-0.025424
H70	H	0.969103	-0.244026	-0.497198
H71	H	1.080284	-0.531386	-0.324015
H72	H	0.741884	-0.101270	-0.755130
H73	H	1.561439	-0.820311	-0.570524
C74	C	1.305784	-1.051188	-0.304542
C75	C	1.334242	-1.056210	-0.201115
C76	C	1.262389	-1.121084	-0.126367
C77	C	1.162078	-1.180936	-0.155047
C78	C	1.133615	-1.175916	-0.258479
C79	C	1.205468	-1.111042	-0.333226
H80	H	1.408503	-1.011902	-0.179880
H81	H	1.283460	-1.124800	-0.049800
H82	H	1.108889	-1.228960	-0.099715
H83	H	1.059355	-1.220224	-0.279714
H84	H	1.184398	-1.107326	-0.409794
C85	C	1.476787	-0.482308	-0.724299
C86	C	1.590631	-0.467630	-0.675037
C87	C	1.608407	-0.486162	-0.568185
C88	C	1.512339	-0.519371	-0.510595
C89	C	1.398487	-0.534050	-0.559857
C90	C	1.380711	-0.515518	-0.666709
H91	H	1.661753	-0.443045	-0.717668
H92	H	1.692688	-0.475295	-0.531718
H93	H	1.525498	-0.533089	-0.431497
H94	H	1.327365	-0.558635	-0.517225
H95	H	1.296430	-0.526385	-0.703175
H96	H	0.600848	-0.028992	-0.712771
C97	C	1.547055	-0.668137	-0.555598
C98	C	1.500415	-0.588683	-0.640136
C99	C	1.572263	-0.523797	-0.714882
C100	C	1.690750	-0.538365	-0.705091
C101	C	1.737396	-0.617823	-0.620549
C102	C	1.665549	-0.682709	-0.545803
H103	H	1.412699	-0.577895	-0.647388
H104	H	1.537731	-0.464977	-0.777466
H105	H	1.743935	-0.490332	-0.760423
H106	H	1.825113	-0.628610	-0.613298
H107	H	1.700080	-0.741529	-0.483220
C108	C	1.546117	-0.554181	-1.008630
C109	C	1.477264	-0.615621	-1.062743
C110	C	1.531331	-0.671808	-1.104840
C111	C	1.654251	-0.666554	-1.092825
C112	C	1.723112	-0.605111	-1.038710
C113	C	1.669045	-0.548924	-0.996613
H114	H	1.386264	-0.619513	-1.071639
H115	H	1.480355	-0.717292	-1.144899
H116	H	1.694275	-0.708147	-1.123988
H117	H	1.814111	-0.601219	-1.029814
H118	H	1.720020	-0.503440	-0.956554
H119	H	1.299078	-0.297338	-1.125157
C120	C	1.158222	-0.936673	-0.151112
C121	C	1.104109	-0.894686	-0.094862
C122	C	1.032244	-0.959564	-0.020127
C123	C	1.014492	-1.066428	-0.001642
C124	C	1.068606	-1.108420	-0.057893
C125	C	1.140471	-1.043543	-0.132629
H126	H	1.117249	-0.815574	-0.108545
H127	H	0.992185	-0.928478	0.021514
H128	H	0.961293	-1.114454	0.053682
H129	H	1.055466	-1.187533	-0.044211
H130	H	1.180531	-1.074629	-0.174270
H131	H	1.179802	-0.657889	-0.197225
H132	H	1.209843	-0.204673	-1.055749
C133	C	1.192074	-0.186411	-0.733210
C134	C	1.209845	-0.204941	-0.626364
C135	C	1.155754	-0.148752	-0.584285
C136	C	1.083893	-0.074035	-0.649054
C137	C	1.066118	-0.055502	-0.755907
C138	C	1.120209	-0.111690	-0.797985
H139	H	1.263044	-0.260254	-0.578412
H140	H	1.168912	-0.162472	-0.505185
H141	H	1.043852	-0.032441	-0.617905
H142	H	1.012919	-0.000188	-0.803858
H143	H	1.107051	-0.097970	-0.877085
H144	H	0.770000	-0.497087	-0.243637
H145	H	0.841413	-0.227775	-0.628327
H146	H	0.559333	-0.083217	-0.543613
H147	H	1.532186	-0.996579	-0.540028
H148	H	0.658852	-0.209705	-0.416821
H149	H	0.897686	-0.513381	-0.112501
H150	H	1.176835	-0.170438	-0.920375
H151	H	1.413863	-0.416924	-0.706706
H152	H	0.997200	-0.639897	0.014287
C153	C	1.153925	-0.732087	-0.008097
C154	C	1.239437	-0.775911	-0.033771
C155	C	1.299767	-0.852621	0.043110
C156	C	1.274584	-0.885506	0.145664
C157	C	1.189068	-0.841681	0.171342
C158	C	1.128738	-0.764972	0.094462
H159	H	1.258083	-0.751568	-0.109692
H160	H	1.363072	-0.885062	0.024101
H161	H	1.319244	-0.942290	0.202576
H162	H	1.170422	-0.866024	0.247263
H163	H	1.065433	-0.732530	0.113471
H164	H	1.561367	-0.570176	-0.821462
H165	H	1.439142	-0.615740	-0.443395
H166	H	1.266126	-0.989076	-0.263303
H167	H	1.206169	-0.743558	-0.201016
