data_functionalizedCrystal
_audit_creation_method	'MofGen! by Chris Wilmer'
_symmetry_space_group_name_H-M	'P1'
_symmetry_Int_Tables_number	1
_symmetry_cell_setting	triclinic
loop_
_symmetry_equiv_pos_as_xyz
  x,y,z
_cell_length_a	18.215407
_cell_length_b	21.295417
_cell_length_c	18.215407
_cell_angle_alpha	90.016419
_cell_angle_beta	90.010236
_cell_angle_gamma	90.030955
loop_
_atom_site_label
_atom_site_type_symbol
_atom_site_fract_x
_atom_site_fract_y
_atom_site_fract_z
Zn1	Zn	1.124973	-0.250706	0.416094
Zn2	Zn	1.624973	0.249294	0.916094
Zn3	Zn	1.124890	-0.355948	0.293019
Zn4	Zn	1.624890	0.144052	0.793019
Zn5	Zn	1.001927	-0.250698	0.293042
Zn6	Zn	1.501927	0.249302	0.793042
Zn7	Zn	1.001860	-0.355942	0.416044
Zn8	Zn	1.501860	0.144058	0.916044
O9	O	1.063413	-0.303323	0.354550
O10	O	1.563413	0.196677	0.854550
O11	O	1.227947	-0.264673	0.399780
O12	O	1.727947	0.235327	0.899780
O13	O	1.108572	-0.341986	0.190038
O14	O	1.608572	0.158014	0.690038
O15	O	1.018312	-0.162609	0.309395
O16	O	1.518312	0.337391	0.809395
O17	O	1.227886	-0.341994	0.309357
O18	O	1.727886	0.158006	0.809357
O19	O	1.108714	-0.162615	0.399802
O20	O	1.608714	0.337385	0.899802
O21	O	1.018231	-0.264658	0.190054
O22	O	1.518231	0.235342	0.690054
O23	O	0.898934	-0.264652	0.309346
O24	O	1.398934	0.235348	0.809346
O25	O	1.018198	-0.341983	0.519035
O26	O	1.518198	0.158017	1.019035
O27	O	0.898884	-0.341975	0.399716
O28	O	1.398884	0.158025	0.899716
O29	O	1.108649	-0.264667	0.519072
O30	O	1.608649	0.235333	1.019072
O31	O	1.108507	-0.444037	0.309308
O32	O	1.608507	0.055963	0.809308
O33	O	1.018117	-0.444032	0.399694
O34	O	1.518117	0.055968	0.899694
C35	C	0.872206	-0.303313	0.354528
C36	C	1.372206	0.196687	0.854528
C37	C	0.790407	-0.303323	0.354537
C38	C	1.290407	0.196677	0.854537
C39	C	0.602207	-0.343648	0.401533
C40	C	1.102207	0.156352	0.901533
C41	C	0.525348	-0.343650	0.401542
C42	C	1.025348	0.156350	0.901542
C43	C	0.525370	-0.263010	0.307582
C44	C	1.025370	0.236990	0.807582
C45	C	0.602227	-0.263005	0.307577
C46	C	1.102227	0.236995	0.807577
C47	C	0.640644	-0.303328	0.354552
C48	C	1.140644	0.196672	0.854552
C49	C	0.486928	-0.303335	0.354566
C50	C	0.986928	0.196665	0.854566
C51	C	0.403594	-0.303336	0.354575
C52	C	0.903594	0.196664	0.854575
C53	C	0.723983	-0.303326	0.354543
C54	C	1.223983	0.196674	0.854543
C55	C	1.063316	-0.466875	0.354509
C56	C	1.563316	0.033125	0.854509
C57	C	1.063342	-0.536843	0.354516
C58	C	1.563342	-0.036843	0.854516
C59	C	1.110450	-0.569691	0.307500
C60	C	1.610450	-0.069691	0.807500
C61	C	1.110485	-0.635434	0.307517
C62	C	1.610485	-0.135434	0.807517
C63	C	1.063398	-0.668326	0.354541
C64	C	1.563398	-0.168326	0.854541
C65	C	1.016287	-0.635470	0.401566
C66	C	1.516287	-0.135470	0.901566
C67	C	1.016259	-0.569728	0.401553
C68	C	1.516259	-0.069728	0.901553
N69	N	0.999018	-0.771593	0.360145
N70	N	1.499018	-0.271593	0.860145
N71	N	0.999047	-0.834045	0.360152
N72	N	1.499047	-0.334045	0.860152
C73	C	1.063480	-0.866400	0.354584
C74	C	1.563480	-0.366400	0.854584
N75	N	1.127886	-0.833945	0.348992
N76	N	1.627886	-0.333945	0.848992
N77	N	1.127856	-0.771488	0.348981
N78	N	1.627856	-0.271488	0.848981
C79	C	1.063423	-0.739611	0.354561
C80	C	1.563423	-0.239611	0.854561
C81	C	1.110630	-0.970534	0.307583
C82	C	1.610630	-0.470534	0.807583
C83	C	1.110665	-1.036278	0.307605
C84	C	1.610665	-0.536278	0.807605
C85	C	1.016461	-1.036312	0.401650
C86	C	1.516461	-0.536312	0.901650
C87	C	1.016432	-0.970570	0.401633
C88	C	1.516432	-0.470570	0.901633
C89	C	1.063515	-0.937685	0.354595
C90	C	1.563515	-0.437685	0.854595
C91	C	1.255365	-0.303335	0.354571
C92	C	1.755365	0.196665	0.854571
C93	C	1.337164	-0.303339	0.354580
C94	C	1.837164	0.196661	0.854580
C95	C	1.063425	-0.303325	0.546502
C96	C	1.563425	0.196675	1.046502
C97	C	1.063431	-0.303326	0.628301
C98	C	1.563431	0.196674	1.128301
C99	C	1.063529	-0.139133	0.354607
C100	C	1.563529	0.360867	0.854607
C101	C	1.063579	-0.069165	0.354631
C102	C	1.563579	0.430835	0.854631
C103	C	1.110514	-0.263074	0.816516
C104	C	1.610514	0.236926	1.316516
C105	C	1.110510	-0.263073	0.893374
C106	C	1.610510	0.236927	1.393374
C107	C	1.016323	-0.343587	0.893325
C108	C	1.516323	0.156413	1.393325
C109	C	1.016324	-0.343584	0.816467
C110	C	1.516324	0.156416	1.316467
C111	C	1.063424	-0.303328	0.778065
C112	C	1.563424	0.196672	1.278065
C113	C	1.063419	-0.303331	0.931781
C114	C	1.563419	0.196669	1.431781
C115	C	1.063414	-0.303331	1.015115
C116	C	1.563414	0.196669	1.515115
C117	C	1.063428	-0.303327	0.694726
C118	C	1.563428	0.196673	1.194726
C119	C	1.063400	-0.303335	1.163343
C120	C	1.563400	0.196665	1.663343
C121	C	1.063412	-0.303333	1.081544
C122	C	1.563412	0.196667	1.581544
H123	H	0.494057	-0.376482	0.439800
H124	H	0.994057	0.123518	0.939800
H125	H	0.633523	-0.230168	0.269319
H126	H	1.133523	0.269832	0.769319
H127	H	0.977973	-0.376363	0.785160
H128	H	1.477973	0.123637	1.285160
H129	H	1.148790	-0.542918	0.269201
H130	H	1.648790	-0.042918	0.769201
H131	H	1.148848	-0.662184	0.269231
H132	H	1.648848	-0.162184	0.769231
N133	N	0.965667	-1.071775	0.452369
N134	N	1.465667	-0.571775	0.952369
H135	H	0.977052	-1.060304	0.504959
H136	H	1.477052	-0.560304	1.004959
H137	H	0.972853	-1.118396	0.445184
H138	H	1.472853	-0.618396	0.945184
N139	N	0.643644	-0.387136	0.452196
N140	N	1.143644	0.112864	0.952196
H141	H	0.607629	-0.412679	0.481960
H142	H	1.107629	0.087321	0.981960
H143	H	0.675556	-0.361556	0.486305
H144	H	1.175556	0.138444	0.986305
N145	N	0.965502	-0.670941	0.452288
N146	N	1.465502	-0.170941	0.952288
H147	H	0.972666	-0.717573	0.445161
H148	H	1.472666	-0.217573	0.945161
H149	H	0.912946	-0.659493	0.440784
H150	H	1.412946	-0.159493	0.940784
N151	N	0.483929	-0.219538	0.256903
N152	N	0.983929	0.280462	0.756903
H153	H	0.452054	-0.190407	0.286863
H154	H	0.952054	0.309593	0.786863
H155	H	0.452071	-0.245138	0.222764
H156	H	0.952071	0.254862	0.722764
N157	N	0.965446	-0.534295	0.452264
N158	N	1.465446	-0.034295	0.952264
H159	H	0.935622	-0.565104	0.482059
H160	H	1.435622	-0.065104	0.982059
H161	H	0.931399	-0.507059	0.422268
H162	H	1.431399	-0.007059	0.922268
H163	H	1.149031	-1.063021	0.269321
H164	H	1.649031	-0.563021	0.769321
H165	H	1.148970	-0.943758	0.269285
H166	H	1.648970	-0.443758	0.769285
N167	N	0.965535	-0.387003	0.934758
N168	N	1.465535	0.112997	1.434758
H169	H	0.976931	-0.431981	0.921371
H170	H	1.476931	0.068019	1.421371
H171	H	0.912978	-0.377170	0.921366
H172	H	1.412978	0.122830	1.421366
N173	N	0.965617	-0.935136	0.452337
N174	N	1.465617	-0.435136	0.952337
H175	H	0.935791	-0.965946	0.482130
H176	H	1.435791	-0.465946	0.982130
H177	H	0.931572	-0.907898	0.422341
H178	H	1.431572	-0.407898	0.922341
H179	H	1.148863	-0.230293	0.785251
H180	H	1.648863	0.269707	1.285251
H181	H	1.148854	-0.230293	0.924678
H182	H	1.648854	0.269707	1.424678
