data_functionalizedCrystal
_audit_creation_method	'MofGen! by Chris Wilmer'
_symmetry_space_group_name_H-M	'P1'
_symmetry_Int_Tables_number	1
_symmetry_cell_setting	triclinic
loop_
_symmetry_equiv_pos_as_xyz
  x,y,z
_cell_length_a	6.817900
_cell_length_b	11.102288
_cell_length_c	17.078481
_cell_angle_alpha	95.111737
_cell_angle_beta	99.306161
_cell_angle_gamma	108.605689
loop_
_atom_site_label
_atom_site_type_symbol
_atom_site_fract_x
_atom_site_fract_y
_atom_site_fract_z
V1	V	-4.005700	-0.175542	-0.247362
O2	O	-3.966747	0.008741	-0.242653
O3	O	-3.983201	-0.348365	-0.245670
O4	O	-3.936325	-0.172708	-0.355245
O5	O	-4.013948	-0.168132	-0.132320
V6	V	-4.488690	-0.153516	-0.233602
O7	O	-4.268129	-0.223860	-0.277545
O8	O	-4.676459	-0.105199	-0.203418
O9	O	-4.287983	0.019306	-0.235293
O10	O	-4.645040	-0.337799	-0.238311
O11	O	-4.597839	-0.160927	-0.348644
O12	O	-4.334858	-0.156350	-0.125719
C13	C	-3.835182	-0.390499	-0.241768
C14	C	-3.897933	-0.531783	-0.241104
C15	C	-4.109728	-0.604627	-0.244750
C16	C	-4.168680	-0.737379	-0.244132
C17	C	-3.804019	-0.724430	-0.236219
C18	C	-3.745073	-0.591682	-0.236842
C19	C	-3.775386	-0.166430	-0.381540
C20	C	-3.800119	-0.165257	-0.469735
C21	C	-3.994021	-0.171050	-0.515211
C22	C	-4.017249	-0.169946	-0.598079
C23	C	-3.846575	-0.163058	-0.635471
C24	C	-3.652655	-0.157261	-0.589988
C25	C	-3.629426	-0.158356	-0.507121
C26	C	-3.896497	-0.159097	-0.882874
C27	C	-3.919744	-0.158006	-0.965748
C28	C	-4.284335	-0.170689	-0.973832
C29	C	-4.261092	-0.171790	-0.890964
C30	C	-4.067172	-0.165986	-0.845488
N31	N	-3.870315	-0.161934	-0.720175
N32	N	-4.043431	-0.167101	-0.760784
C33	C	-4.099346	0.061434	-0.239193
C34	C	-4.015832	0.202717	-0.239863
C35	C	-4.159142	-0.162632	-0.099419
C36	C	-4.113646	-0.163799	-0.011224
H37	H	-3.572599	-0.532371	-0.233876
H38	H	-4.133011	-0.176666	-0.484774
O39	O	-4.374388	-0.808042	-0.247528
C40	C	-4.443258	-0.762357	-0.181065
H41	H	-4.301043	-0.710091	-0.130676
H42	H	-4.528962	-0.693209	-0.199497
C43	C	-4.769493	-0.940655	-0.213524
C44	C	-4.594823	-0.876471	-0.151632
H45	H	-4.862993	-1.011043	-0.195370
H46	H	-4.723099	-0.971432	-0.258304
H47	H	-4.840888	-0.883019	-0.228878
H48	H	-4.523417	-0.934102	-0.136287
H49	H	-4.641209	-0.845705	-0.106850
O50	O	-4.205770	-0.175620	-0.642139
C51	C	-4.351410	-0.181898	-0.591363
H52	H	-4.300644	-0.221261	-0.535048
H53	H	-4.356269	-0.081538	-0.573812
C54	C	-4.634868	-0.222808	-0.704847
C55	C	-4.572525	-0.271164	-0.635683
H56	H	-4.771264	-0.277866	-0.732186
H57	H	-4.536747	-0.218573	-0.739056
H58	H	-4.638900	-0.139175	-0.690211
H59	H	-4.568468	-0.354788	-0.650320
H60	H	-4.670651	-0.275415	-0.601477
H61	H	-4.234200	-0.555861	-0.248219
O62	O	-4.472843	-0.176555	-1.017999
C63	C	-4.630626	-0.291234	-1.010954
H64	H	-4.554306	-0.365099	-0.993324
H65	H	-4.718934	-0.270825	-0.962945
C66	C	-4.880526	-0.253570	-1.113581
C67	C	-4.786789	-0.344296	-1.091934
H68	H	-4.976862	-0.286300	-1.163531
H69	H	-4.774228	-0.176306	-1.118326
H70	H	-4.954099	-0.236571	-1.073567
H71	H	-4.713197	-0.361282	-1.131942
H72	H	-4.893079	-0.421565	-1.087197
O73	O	-3.753770	-0.151074	-1.002015
C74	C	-3.584630	-0.036924	-0.968536
H75	H	-3.648178	0.036338	-0.940596
H76	H	-3.469337	-0.058592	-0.920352
C77	C	-3.391718	-0.071907	-1.069116
C78	C	-3.469772	0.018078	-1.034805
H79	H	-3.320860	-0.037981	-1.109992
H80	H	-3.505667	-0.148815	-1.091670
H81	H	-3.295653	-0.089956	-1.028955
H82	H	-3.565854	0.036114	-1.074964
H83	H	-3.355836	0.094991	-1.012260
H84	H	-3.679574	-0.773216	-0.232747
O85	O	-3.708184	-0.153382	-0.838624
C86	C	-3.631175	-0.043152	-0.779620
H87	H	-3.704595	0.030995	-0.799346
H88	H	-3.674644	-0.070724	-0.720372
C89	C	-3.298981	-0.076730	-0.744328
C90	C	-3.389144	0.014344	-0.768559
H91	H	-3.149685	-0.041266	-0.737501
H92	H	-3.350865	-0.150997	-0.784078
H93	H	-3.335226	-0.099699	-0.694957
H94	H	-3.352920	0.037299	-0.817933
H95	H	-3.337248	0.088616	-0.728817
O96	O	-3.441011	-0.152516	-0.462886
C97	C	-3.364126	-0.042222	-0.403933
H98	H	-3.437821	0.031797	-0.423680
H99	H	-3.407392	-0.069753	-0.344651
C100	C	-3.031633	-0.075451	-0.368690
C101	C	-3.122134	0.015465	-0.392947
H102	H	-2.882360	-0.039869	-0.361909
H103	H	-3.083433	-0.149761	-0.408405
H104	H	-3.067709	-0.098386	-0.319290
H105	H	-3.086079	0.038386	-0.442350
H106	H	-3.070322	0.089781	-0.353239
H107	H	-4.400077	-0.177397	-0.860525
H108	H	-3.513688	-0.151646	-0.620438
