data_functionalizedCrystal
_audit_creation_method	'MofGen! by Chris Wilmer'
_symmetry_space_group_name_H-M	'P1'
_symmetry_Int_Tables_number	1
_symmetry_cell_setting	triclinic
loop_
_symmetry_equiv_pos_as_xyz
  x,y,z
_cell_length_a	14.395555
_cell_length_b	14.809374
_cell_length_c	14.809374
_cell_angle_alpha	60.797835
_cell_angle_beta	67.425490
_cell_angle_gamma	89.996807
loop_
_atom_site_label
_atom_site_type_symbol
_atom_site_fract_x
_atom_site_fract_y
_atom_site_fract_z
Zr1	Zr	-0.068201	0.676960	1.151386
O2	O	-0.219991	0.716351	1.160155
O3	O	-0.011429	0.548493	1.122769
O4	O	-0.181992	0.529809	1.309304
O5	O	0.073468	0.882173	0.855973
O6	O	-0.163667	0.515060	1.456450
O7	O	-0.049427	0.735036	0.973620
O8	O	0.141440	0.548483	1.122773
O9	O	-0.231639	0.848750	1.189650
O10	O	0.014088	0.623317	1.251705
O11	O	0.092127	0.744132	1.054092
O12	O	-0.108689	0.722133	1.273713
O13	O	-0.030650	0.842947	1.076101
Zr14	Zr	0.157030	0.888104	1.198435
Zr15	Zr	-0.038973	0.653437	1.386068
Zr16	Zr	0.127803	0.911627	0.963753
Zr17	Zr	-0.086778	0.888121	1.198428
Zr18	Zr	0.175608	0.676943	1.151393
O19	O	0.100259	1.016571	1.227052
O20	O	-0.178433	0.682904	1.493842
O21	O	0.058701	1.050018	0.893365
O22	O	0.308820	0.848713	1.189666
O23	O	0.030128	0.515046	1.456456
O24	O	0.267263	0.882160	0.855979
O25	O	0.015362	0.682891	1.493848
O26	O	0.270822	1.035256	1.040517
O27	O	0.252496	1.050005	0.893371
O28	O	0.138257	0.830029	1.376201
O29	O	-0.208407	0.830052	1.376191
O30	O	0.297237	0.735012	0.973630
O31	O	0.320468	0.716314	1.160171
O32	O	0.164672	0.529785	1.309314
O33	O	-0.075842	1.035279	1.040507
O34	O	-0.052610	1.016582	1.227048
O35	O	0.197519	0.842931	1.076108
O36	O	0.119480	0.722117	1.273720
O37	O	-0.003298	0.820933	1.295729
O38	O	0.074742	0.941747	1.098117
C39	C	0.067652	0.518402	1.116069
C40	C	0.075539	0.428759	1.096098
C41	C	-0.260552	0.782553	1.174902
C42	C	-0.364055	0.782560	1.174899
C43	C	0.040342	0.328861	1.185224
C44	C	0.048492	0.236209	1.164585
C45	C	-0.382092	0.848420	1.067149
C46	C	-0.471108	0.881457	1.135708
C47	C	-0.459466	0.749515	1.106343
C48	C	-0.451713	0.815652	1.243470
C49	C	-0.440054	0.683659	1.214077
C50	C	-0.529074	0.716665	1.282718
C51	C	0.349382	0.782511	1.174919
C52	C	0.452885	0.782504	1.174923
C53	C	0.007856	0.811956	0.881360
C54	C	-0.004552	0.821942	0.781731
C55	C	0.021177	1.046662	1.233753
C56	C	0.013291	1.136306	1.253723
C57	C	0.050822	0.777375	0.726396
C58	C	0.038000	0.787695	0.623424
C59	C	0.080974	0.753108	1.468462
C60	C	0.093381	0.743122	1.568090
C61	C	-0.200756	0.488999	1.409611
C62	C	-0.283965	0.389377	1.489266
C63	C	0.104211	0.488978	1.409619
C64	C	0.124505	0.389349	1.489278
C65	C	0.312823	0.811935	0.881369
C66	C	0.403918	0.821914	0.781743
C67	C	-0.015381	1.076086	0.940202
C68	C	-0.035676	1.175716	0.860544
C69	C	0.289586	1.076065	0.940211
C70	C	0.372794	1.175688	0.860556
C71	C	-0.223993	0.753129	1.468453
C72	C	-0.315089	0.743150	1.568078
C73	C	-0.387138	0.394173	1.538171
C74	C	-0.465330	0.300573	1.613031
C75	C	-0.440347	0.202180	1.638977
C76	C	-0.337163	0.197386	1.590068
C77	C	-0.258973	0.290984	1.515217
C78	C	0.079014	0.290979	1.515202
C79	C	0.098062	0.197357	1.590060
C80	C	0.162608	0.202108	1.638987
C81	C	0.208099	0.300488	1.613061
C82	C	0.189045	0.394107	1.538210
C83	C	0.501719	0.878183	0.746442
C84	C	0.587319	0.887581	0.652824
C85	C	0.575117	0.840702	0.594515
C86	C	0.477305	0.784432	0.629820
C87	C	0.391706	0.775041	0.723430
C88	C	0.009807	1.274084	0.834629
C89	C	-0.009265	1.367704	0.759797
C90	C	-0.073814	1.362953	0.710873
C91	C	-0.119301	1.264573	0.736795
C92	C	-0.100235	1.170956	0.811633
C93	C	0.347780	1.274062	0.834629
C94	C	0.425951	1.367677	0.759773
C95	C	0.529138	1.362915	0.710852
C96	C	0.554152	1.264531	0.736780
C97	C	0.475980	1.170918	0.811628
C98	C	-0.302853	0.790036	1.626365
C99	C	-0.388436	0.780655	1.719985
C100	C	-0.486254	0.724394	1.755312
C101	C	-0.498487	0.677503	1.697020
C102	C	-0.412904	0.686878	1.603407
H103	H	0.004180	0.311925	1.276807
H104	H	0.312076	0.729215	0.752168
H105	H	-0.089330	1.439190	0.649938
H106	H	-0.171858	1.260721	0.696951
H107	H	-0.318960	0.904191	0.976054
C108	C	0.128378	0.369175	0.962476
C109	C	0.097370	0.259090	1.040939
H110	H	0.158572	0.383296	0.886145
H111	H	0.069944	0.399452	0.973983
H112	H	0.177664	0.399431	0.974077
H113	H	0.048079	0.228834	1.029344
H114	H	0.155812	0.228800	1.029427
C115	C	-0.584151	0.411994	1.628164
C116	C	-0.578744	0.305861	1.666769
H117	H	-0.654168	0.415258	1.661333
H118	H	-0.544532	0.441161	1.650349
H119	H	-0.557433	0.451537	1.546627
H120	H	-0.605455	0.266320	1.748306
H121	H	-0.618378	0.276681	1.644591
H122	H	0.111708	0.445692	1.004516
C123	C	-0.448405	0.608922	1.068042
C124	C	-0.465273	0.711793	1.028086
H125	H	-0.451994	0.585638	1.019730
H126	H	-0.381987	0.609307	1.066917
H127	H	-0.499808	0.562052	1.144573
H128	H	-0.413866	0.758665	0.951558
H129	H	-0.531700	0.711415	1.029199
H130	H	-0.485265	0.965073	1.102596
H131	H	0.496363	1.090821	0.832735
C132	C	-0.034159	0.209634	1.373887
C133	C	-0.035535	0.113424	1.377370
H134	H	-0.064306	0.195506	1.450220
H135	H	0.035250	0.249313	1.334550
H136	H	-0.072504	0.249324	1.334543
H137	H	0.002816	0.073737	1.416707
H138	H	-0.104956	0.073728	1.416723
H139	H	-0.061450	0.867740	0.752871
H140	H	0.026445	0.287090	1.475385
C141	C	0.429923	1.540447	0.612518
C142	C	0.398437	1.475810	0.731291
H143	H	0.412928	1.607197	0.594940
H144	H	0.502557	1.551019	0.572669
H145	H	0.395623	1.506964	0.589398
H146	H	0.432743	1.509289	0.754410
H147	H	0.325790	1.465240	0.771154
H148	H	-0.223213	0.835852	1.597614
H149	H	0.511673	0.916363	0.793906
C150	C	0.710920	1.440879	0.591109
C151	C	0.615061	1.465821	0.628582
H152	H	0.763959	1.504412	0.540317
H153	H	0.723368	1.395468	0.655647
H154	H	0.710446	1.405854	0.551932
H155	H	0.615532	1.500839	0.667767
H156	H	0.602610	1.511249	0.564033
C157	C	0.301383	0.566853	1.390923
C158	C	0.239074	0.502235	1.509701
H159	H	0.332268	0.633607	1.373327
H160	H	0.353927	0.533363	1.367807
H161	H	0.260204	0.577428	1.351083
H162	H	0.280255	0.491654	1.549541
H163	H	0.186523	0.535733	1.532829
H164	H	0.666953	0.933400	0.624096
C165	C	-0.012595	0.104843	1.559760
C166	C	0.048063	0.089229	1.618533
H167	H	-0.043456	0.038091	1.577332
H168	H	-0.065158	0.138306	1.582899
H169	H	0.029697	0.148709	1.479187
H170	H	0.005769	0.045370	1.699108
H171	H	0.100633	0.055750	1.595401
H172	H	-0.592073	0.660950	1.373910
H173	H	0.062373	1.277973	0.874449
C174	C	0.101448	1.460224	0.790035
C175	C	0.040753	1.475834	0.731302
H176	H	0.132333	1.526978	0.772437
H177	H	0.059183	1.416372	0.870604
H178	H	0.154003	1.426748	0.766880
H179	H	-0.011807	1.509302	0.754465
H180	H	0.083021	1.519702	0.650716
C181	C	-0.323813	0.571911	1.259208
C182	C	-0.420880	0.570814	1.258725
H183	H	-0.311976	0.502243	1.286771
H184	H	-0.271694	0.618937	1.183168
H185	H	-0.321947	0.595282	1.308031
H186	H	-0.422743	0.547451	1.209895
H187	H	-0.473013	0.523772	1.334777
C188	C	-0.138693	0.802065	0.675133
C189	C	-0.038825	0.849521	0.584485
H190	H	-0.186118	0.840237	0.651093
H191	H	-0.157552	0.730545	0.696561
H192	H	-0.140141	0.803246	0.739215
H193	H	-0.037375	0.848333	0.520405
H194	H	-0.019961	0.921060	0.563041
H195	H	0.644825	0.848357	0.518293
C196	C	0.697013	1.197789	0.770594
C197	C	0.667578	1.259299	0.683012
H198	H	0.767037	1.194556	0.737402
H199	H	0.689936	1.229130	0.814900
H200	H	0.654035	1.127958	0.818868
H201	H	0.710552	1.329132	0.634743
H202	H	0.674664	1.227961	0.638687
H203	H	-0.137272	1.090864	0.832720
C204	C	0.171011	1.176381	0.959571
C205	C	0.234360	1.279315	0.888391
H206	H	0.100993	1.179633	0.992758
H207	H	0.178075	1.145046	0.915262
H208	H	0.190995	1.134662	1.018977
H209	H	0.214380	1.321032	0.828979
H210	H	0.227291	1.310664	0.932702
C211	C	-0.348485	0.853233	1.320916
C212	C	-0.446051	0.853499	1.321681
H213	H	-0.344987	0.876609	1.369190
H214	H	-0.337641	0.783211	1.348509
H215	H	-0.296658	0.899716	1.244529
H216	H	-0.497878	0.807009	1.398067
H217	H	-0.456906	0.923532	1.294093
H218	H	0.467385	0.746267	0.582330
H219	H	0.178115	0.125869	1.699932
C220	C	0.125469	0.717288	0.859816
C221	C	0.127637	0.715547	0.765346
H222	H	0.172888	0.679110	0.883863
H223	H	0.144343	0.788813	0.838368
H224	H	0.057706	0.685105	0.921294
H225	H	0.195399	0.747737	0.703865
H226	H	0.108769	0.644009	0.786790
H227	H	-0.407499	0.474281	1.517053
C228	C	-0.271047	0.883594	1.733236
C229	C	-0.374976	0.832218	1.784035
H230	H	-0.262740	0.915434	1.772771
H231	H	-0.229388	0.833250	1.737710
H232	H	-0.250536	0.936955	1.654776
H233	H	-0.395485	0.778852	1.862493
H234	H	-0.416649	0.882567	1.779572
C235	C	-0.643019	0.530691	1.850108
C236	C	-0.606018	0.615672	1.735859
H237	H	-0.709409	0.492530	1.874084
H238	H	-0.596795	0.484624	1.855522
H239	H	-0.647960	0.557290	1.898202
H240	H	-0.601070	0.589073	1.687763
H241	H	-0.652253	0.661747	1.730435
H242	H	-0.422881	0.648698	1.555953
H243	H	-0.555933	0.716769	1.831540
H244	H	0.150291	0.697328	0.596939
H245	H	-0.504024	0.125975	1.699929
C246	C	-0.082198	0.388630	1.390245
C247	C	-0.145566	0.285705	1.461436
H248	H	-0.012187	0.385362	1.357048
H249	H	-0.102188	0.430356	1.330857
H250	H	-0.089233	0.419965	1.434558
H251	H	-0.138537	0.254372	1.417122
H252	H	-0.125570	0.243964	1.520833
C253	C	0.286173	0.202747	1.737997
C254	C	0.279057	0.305699	1.666837
H255	H	0.329989	0.205966	1.771186
H256	H	0.219277	0.161041	1.797392
H257	H	0.314096	0.171421	1.693665
H258	H	0.251126	0.337022	1.711171
H259	H	0.345966	0.347421	1.607433
H260	H	-0.316836	0.117262	1.611207
