data_functionalizedCrystal
_audit_creation_method	'MofGen! by Chris Wilmer'
_symmetry_space_group_name_H-M	'P1'
_symmetry_Int_Tables_number	1
_symmetry_cell_setting	triclinic
loop_
_symmetry_equiv_pos_as_xyz
  x,y,z
_cell_length_a	6.817900
_cell_length_b	12.908942
_cell_length_c	14.858572
_cell_angle_alpha	95.427948
_cell_angle_beta	104.524003
_cell_angle_gamma	100.860556
loop_
_atom_site_label
_atom_site_type_symbol
_atom_site_fract_x
_atom_site_fract_y
_atom_site_fract_z
V1	V	-4.024760	-0.146515	-0.289440
O2	O	-4.026201	0.006358	-0.284463
O3	O	-3.962933	-0.289857	-0.286949
O4	O	-3.981581	-0.144561	-0.415909
O5	O	-4.007424	-0.139945	-0.154610
V6	V	-4.509452	-0.128194	-0.273376
O7	O	-4.283456	-0.186703	-0.324679
O8	O	-4.700953	-0.088006	-0.238137
O9	O	-4.348072	0.015149	-0.275867
O10	O	-4.625408	-0.281067	-0.278353
O11	O	-4.644185	-0.134764	-0.408206
O12	O	-4.329424	-0.130148	-0.146907
C13	C	-3.804498	-0.324792	-0.282251
C14	C	-3.835269	-0.441978	-0.281057
C15	C	-4.256738	-0.672948	-0.288075
C16	C	-4.285659	-0.783055	-0.286953
C17	C	-3.922038	-0.772304	-0.277698
C18	C	-3.893117	-0.662196	-0.278820
C19	C	-4.060474	-0.612522	-0.284007
C20	C	-4.031547	-0.502411	-0.285122
C21	C	-3.667932	-0.491664	-0.275874
C22	C	-3.696853	-0.601771	-0.274752
C23	C	-3.828285	-0.139450	-0.446751
C24	C	-3.874176	-0.138801	-0.550136
C25	C	-4.042138	-0.136428	-0.928713
C26	C	-3.995397	-0.137088	-0.823381
C27	C	-3.958158	-0.137615	-0.739428
C28	C	-3.911415	-0.138274	-0.634089
C29	C	-4.169848	0.050078	-0.280563
C30	C	-4.118316	0.167263	-0.281763
C31	C	-4.146062	-0.135262	-0.116060
C32	C	-4.079410	-0.135906	-0.012674
H33	H	-3.560605	-0.642232	-0.270532
H34	H	-3.508115	-0.442453	-0.272560
N35	N	-4.212040	-0.448829	-0.290717
H36	H	-4.340764	-0.503822	-0.293129
H37	H	-4.236663	-0.413751	-0.349268
N38	N	-4.497344	-0.848231	-0.291345
H39	H	-4.598967	-0.800051	-0.294802
H40	H	-4.488556	-0.883781	-0.233199
H41	H	-3.785798	-0.812770	-0.273484
H42	H	-4.393000	-0.632500	-0.292284
