data_functionalizedCrystal
_audit_creation_method	'MofGen! by Chris Wilmer'
_symmetry_space_group_name_H-M	'P1'
_symmetry_Int_Tables_number	1
_symmetry_cell_setting	triclinic
loop_
_symmetry_equiv_pos_as_xyz
  x,y,z
_cell_length_a	14.971482
_cell_length_b	17.019294
_cell_length_c	13.448316
_cell_angle_alpha	86.114424
_cell_angle_beta	89.993798
_cell_angle_gamma	83.503209
loop_
_atom_site_label
_atom_site_type_symbol
_atom_site_fract_x
_atom_site_fract_y
_atom_site_fract_z
O1	O	1.186694	0.102787	-0.091479
O2	O	1.686694	0.602787	0.408521
O3	O	0.926263	0.115101	-0.092538
O4	O	1.426263	0.615101	0.407462
O5	O	1.063743	-0.005882	-0.082171
O6	O	1.563743	0.494118	0.417829
O7	O	1.049214	0.223770	-0.101845
O8	O	1.549214	0.723770	0.398155
O9	O	1.063726	-0.005890	0.083213
O10	O	1.563726	0.494110	0.583213
O11	O	0.926246	0.115093	0.072847
O12	O	1.426246	0.615093	0.572847
O13	O	1.186677	0.102779	0.073906
O14	O	1.686677	0.602779	0.573906
Cu15	Cu	1.056460	0.108936	0.088477
Cu16	Cu	1.556460	0.608936	0.588477
Cu17	Cu	1.056480	0.108944	-0.107109
Cu18	Cu	1.556480	0.608944	0.392891
O19	O	1.049196	0.223763	0.063539
O20	O	1.549196	0.723763	0.563539
C21	C	0.892931	0.114547	-0.009799
C22	C	1.392931	0.614547	0.490201
C23	C	0.793638	0.112898	-0.009660
C24	C	1.293638	0.612898	0.490340
C25	C	0.746986	0.112117	0.080559
C26	C	1.246986	0.612117	0.580559
C27	C	0.653691	0.110556	0.080694
C28	C	1.153691	0.610556	0.580694
C29	C	0.607049	0.109780	-0.009391
C30	C	1.107049	0.609780	0.490609
C31	C	0.653708	0.110559	-0.099617
C32	C	1.153708	0.610559	0.400383
C33	C	0.747002	0.112115	-0.099750
C34	C	1.247002	0.612115	0.400250
C35	C	0.459254	0.107317	-0.099333
C36	C	0.959254	0.607317	0.400667
C37	C	0.365954	0.105763	-0.099200
C38	C	0.865954	0.605763	0.400800
C39	C	0.365943	0.105758	0.081111
C40	C	0.865943	0.605758	0.581111
C41	C	0.459237	0.107314	0.080978
C42	C	0.959237	0.607314	0.580978
C43	C	0.505889	0.108094	-0.009248
C44	C	1.005889	0.608094	0.490752
C45	C	1.063183	-0.035276	0.003037
C46	C	1.563183	0.464724	0.503037
C47	C	1.061530	-0.122848	0.010533
C48	C	1.561530	0.377152	0.510533
C49	C	1.060765	-0.163981	-0.076096
C50	C	1.560765	0.336019	0.423904
C51	C	1.059206	-0.246264	-0.069050
C52	C	1.559206	0.253736	0.430950
C53	C	1.058419	-0.287413	0.024626
C54	C	1.558419	0.212587	0.524626
C55	C	1.059181	-0.246274	0.111261
C56	C	1.559181	0.253726	0.611261
C57	C	1.060734	-0.163992	0.104214
C58	C	1.560734	0.336008	0.604214
C59	C	1.053724	-0.535851	0.050414
C60	C	1.553724	-0.035851	0.550414
C61	C	1.052174	-0.618139	0.057455
C62	C	1.552174	-0.118139	0.557455
C63	C	1.052198	-0.618123	-0.122857
C64	C	1.552198	-0.118123	0.377143
C65	C	1.053756	-0.535840	-0.129896
C66	C	1.553756	-0.035840	0.370104
C67	C	1.054513	-0.494708	-0.043261
C68	C	1.554513	0.005292	0.456739
C69	C	1.056828	-0.371519	0.031831
C70	C	1.556828	0.128481	0.531831
C71	C	1.056098	-0.410602	-0.050466
C72	C	1.556098	0.089398	0.449534
C73	C	1.220009	0.103333	-0.008835
C74	C	1.720009	0.603333	0.491165
C75	C	1.319302	0.104982	-0.008981
C76	C	1.819302	0.604982	0.491019
C77	C	1.049756	0.253156	-0.021671
C78	C	1.549756	0.753156	0.478329
C79	C	1.051409	0.340728	-0.029174
C80	C	1.551409	0.840728	0.470826
N81	N	1.056452	0.108929	0.226042
N82	N	1.556452	0.608929	0.726042
N83	N	1.056495	0.108945	-0.244674
N84	N	1.556495	0.608945	0.255326
C85	C	1.117347	0.055380	0.282671
C86	C	1.617347	0.555380	0.782671
C87	C	1.117352	0.055379	0.386774
C88	C	1.617352	0.555379	0.886774
C89	C	1.056467	0.108932	0.434246
C90	C	1.556467	0.608932	0.934246
C91	C	0.995565	0.162484	0.377610
C92	C	1.495565	0.662484	0.877610
C93	C	0.995556	0.162480	0.273509
C94	C	1.495556	0.662480	0.773509
C95	C	0.995590	0.162489	0.594589
C96	C	1.495590	0.662489	1.094589
C97	C	0.995600	0.162494	0.698698
C98	C	1.495600	0.662494	1.198698
C99	C	1.117386	0.055388	0.707855
C100	C	1.617386	0.555388	1.207855
C101	C	1.117377	0.055384	0.603754
C102	C	1.617377	0.555384	1.103754
C103	C	1.056477	0.108937	0.547124
C104	C	1.556477	0.608937	1.047124
H105	H	0.615713	0.109907	0.154160
H106	H	1.115713	0.609907	0.654160
H107	H	0.327955	0.105124	0.154577
H108	H	0.827955	0.605124	0.654577
Br109	Br	1.058098	-0.302116	0.238395
Br110	Br	1.558098	0.197884	0.738395
H111	H	0.497209	0.107951	0.154333
H112	H	0.997209	0.607951	0.654333
Br113	Br	0.912965	0.235176	0.763116
Br114	Br	1.412965	0.735176	1.263116
H115	H	0.615726	0.109922	-0.172965
H116	H	1.115726	0.609922	0.327035
Br117	Br	1.061843	-0.108145	-0.203234
Br118	Br	1.561843	0.391855	0.296766
H119	H	1.054398	-0.502342	-0.206177
H120	H	1.554398	-0.002342	0.293823
Br121	Br	0.810318	0.113167	-0.222194
Br122	Br	1.310318	0.613167	0.277806
Br123	Br	0.302654	0.104711	-0.221460
Br124	Br	0.802654	0.604711	0.278540
H125	H	1.058587	-0.279751	-0.139592
H126	H	1.558587	0.220249	0.360408
Br127	Br	0.912933	0.235166	0.517739
Br128	Br	1.412933	0.735166	1.017739
Br129	Br	1.061767	-0.108167	0.221787
Br130	Br	1.561767	0.391833	0.721787
H131	H	1.056733	-0.377094	-0.126737
H132	H	1.556733	0.122906	0.373263
H133	H	1.051579	-0.651622	-0.193390
H134	H	1.551579	-0.151622	0.306610
H135	H	1.166973	0.011783	0.753968
H136	H	1.666973	0.511783	1.253968
H137	H	0.945968	0.206084	0.227402
H138	H	1.445968	0.706084	0.727402
Br139	Br	1.054734	-0.480036	0.167992
Br140	Br	1.554734	0.019964	0.667992
H141	H	1.166931	0.011774	0.244026
H142	H	1.666931	0.511774	0.744026
H143	H	0.784953	0.112755	0.153917
H144	H	1.284953	0.612755	0.653917
Br145	Br	1.051115	-0.673985	0.184596
Br146	Br	1.551115	-0.173985	0.684596
Br147	Br	1.199994	-0.017299	0.463631
Br148	Br	1.699994	0.482701	0.963631
Br149	Br	0.522569	0.108371	-0.221783
Br150	Br	1.022569	0.608371	0.278217
H151	H	1.056190	-0.405032	0.108102
H152	H	1.556190	0.094968	0.608102
Br153	Br	1.200015	-0.017287	0.539323
Br154	Br	1.700015	0.482713	1.039323
H155	H	0.945986	0.206085	0.416268
H156	H	1.445986	0.706085	0.916268
