data_functionalizedCrystal
_audit_creation_method	'MofGen! by Chris Wilmer'
_symmetry_space_group_name_H-M	'P1'
_symmetry_Int_Tables_number	1
_symmetry_cell_setting	triclinic
loop_
_symmetry_equiv_pos_as_xyz
  x,y,z
_cell_length_a	14.519731
_cell_length_b	14.519709
_cell_length_c	14.586319
_cell_angle_alpha	89.995260
_cell_angle_beta	89.996401
_cell_angle_gamma	83.684499
loop_
_atom_site_label
_atom_site_type_symbol
_atom_site_fract_x
_atom_site_fract_y
_atom_site_fract_z
O1	O	1.223854	0.120984	-0.076244
O2	O	1.723854	0.620984	0.423756
O3	O	0.955380	0.135200	-0.076246
O4	O	1.455380	0.635200	0.423754
O5	O	1.096735	-0.006146	-0.076237
O6	O	1.596735	0.493854	0.423763
O7	O	1.082499	0.262330	-0.076253
O8	O	1.582499	0.762330	0.423747
O9	O	1.096725	-0.006148	0.076244
O10	O	1.596725	0.493852	0.576244
O11	O	0.955370	0.135198	0.076235
O12	O	1.455370	0.635198	0.576235
O13	O	1.223844	0.120982	0.076236
O14	O	1.723844	0.620982	0.576236
Cu15	Cu	1.089606	0.128089	0.090158
Cu16	Cu	1.589606	0.628089	0.590158
Cu17	Cu	1.089618	0.128092	-0.090168
Cu18	Cu	1.589618	0.628092	0.409832
O19	O	1.082489	0.262327	0.076227
O20	O	1.582489	0.762327	0.576227
C21	C	0.921016	0.134532	-0.000006
C22	C	1.421016	0.634532	0.499994
C23	C	0.818635	0.132536	-0.000006
C24	C	1.318635	0.632536	0.499994
C25	C	1.096067	-0.040507	0.000004
C26	C	1.596067	0.459493	0.500004
C27	C	1.094079	-0.142889	0.000004
C28	C	1.594079	0.357111	0.500004
C29	C	0.735491	0.130915	-0.000010
C30	C	1.235491	0.630915	0.499990
C31	C	0.631182	0.128888	-0.000010
C32	C	1.131182	0.628888	0.499990
C33	C	0.548043	0.127280	-0.000010
C34	C	1.048043	0.627280	0.499990
C35	C	0.443728	0.125253	-0.000012
C36	C	0.943728	0.625253	0.499988
C37	C	1.086759	-0.517785	-0.000020
C38	C	1.586759	-0.017785	0.499980
C39	C	1.088792	-0.413477	-0.000013
C40	C	1.588792	0.086523	0.499987
C41	C	1.090419	-0.330340	-0.000007
C42	C	1.590419	0.169660	0.499993
C43	C	1.092452	-0.226025	-0.000002
C44	C	1.592452	0.273975	0.499998
C45	C	1.258209	0.121649	-0.000006
C46	C	1.758209	0.621649	0.499994
C47	C	1.360589	0.123645	-0.000011
C48	C	1.860589	0.623645	0.499989
C49	C	1.083157	0.296688	-0.000015
C50	C	1.583157	0.796688	0.499985
C51	C	1.085146	0.399070	-0.000022
C52	C	1.585146	0.899070	0.499978
N53	N	1.089605	0.128087	0.216990
N54	N	1.589605	0.628087	0.716990
N55	N	1.089627	0.128087	-0.217000
N56	N	1.589627	0.628087	0.283000
C57	C	1.152218	0.065520	0.452001
C58	C	1.652218	0.565520	0.952001
C59	C	1.152220	0.065518	0.547982
C60	C	1.652220	0.565518	1.047982
C61	C	1.027007	0.190657	0.547983
C62	C	1.527007	0.690657	1.047983
C63	C	1.027001	0.190654	0.452004
C64	C	1.527001	0.690654	0.952004
C65	C	1.089611	0.128087	0.404015
C66	C	1.589611	0.628087	0.904015
C67	C	1.089620	0.128087	0.595976
C68	C	1.589620	0.628087	1.095976
C69	C	1.089623	0.128085	0.700043
C70	C	1.589623	0.628085	1.200043
C71	C	1.089608	0.128087	0.299941
C72	C	1.589608	0.628087	0.799941
H73	H	1.203198	0.014573	0.412930
H74	H	1.703198	0.514573	0.912930
H75	H	1.203199	0.014570	0.587049
H76	H	1.703199	0.514570	1.087049
F77	F	0.960360	0.257245	0.400930
F78	F	1.460360	0.757245	0.900930
H79	H	0.976032	0.241599	0.587065
H80	H	1.476032	0.741599	1.087065
