data_functionalizedCrystal
_audit_creation_method	'MofGen! by Chris Wilmer'
_symmetry_space_group_name_H-M	'P1'
_symmetry_Int_Tables_number	1
_symmetry_cell_setting	triclinic
loop_
_symmetry_equiv_pos_as_xyz
  x,y,z
_cell_length_a	10.540539
_cell_length_b	15.538191
_cell_length_c	14.185569
_cell_angle_alpha	82.124202
_cell_angle_beta	76.712172
_cell_angle_gamma	114.101207
loop_
_atom_site_label
_atom_site_type_symbol
_atom_site_fract_x
_atom_site_fract_y
_atom_site_fract_z
O1	O	-0.372482	-1.226032	-0.083440
O2	O	-0.226369	-0.952757	-0.083435
O3	O	-0.487082	-1.095630	-0.083436
O4	O	-0.111770	-1.083160	-0.083439
O5	O	-0.564092	-1.137835	0.083398
O6	O	-0.303380	-0.994963	0.083399
O7	O	-0.449492	-1.268238	0.083395
Cu8	Cu	-0.383468	-1.135454	0.098630
Cu9	Cu	-0.292394	-1.085541	-0.098671
O10	O	-0.188780	-1.125366	0.083396
C11	C	-0.249587	-0.938868	-0.000017
C12	C	-0.204052	-0.834601	-0.000016
C13	C	-0.572447	-1.115797	-0.000021
C14	C	-0.712069	-1.112998	-0.000026
N15	N	-0.447528	-1.170567	0.237401
C16	C	-0.844617	-1.005700	-0.000399
C17	C	-0.699513	-1.008631	-0.000023
C18	C	-0.841460	-1.187326	0.095243
C19	C	-0.986357	-1.183784	0.095324
C20	C	-0.900304	-1.137911	-0.094398
C21	C	-0.753195	-1.138553	-0.095658
C22	C	-0.103414	-1.105198	-0.000022
C23	C	0.036211	-1.107995	-0.000023
C24	C	-0.426273	-1.282127	-0.000025
C25	C	-0.471806	-1.386392	-0.000033
C26	C	-0.656437	-0.543764	-0.000029
C27	C	-0.613616	-0.445786	-0.000030
C28	C	-0.372762	-0.424963	-0.000031
C29	C	-0.415565	-0.522942	-0.000025
C30	C	-0.557403	-0.582335	-0.000025
C31	C	-0.316531	-0.561514	-0.000021
C32	C	-0.359329	-0.659483	-0.000021
C33	C	-0.501160	-0.718881	-0.000024
C34	C	-0.600201	-0.680305	-0.000024
C35	C	-0.174690	-0.502117	-0.000029
C36	C	-0.075657	-0.540689	-0.000025
C37	C	-0.118457	-0.638662	-0.000017
C38	C	-0.260288	-0.698060	-0.000020
C39	C	-0.019416	-0.677238	-0.000016
C40	C	-0.062213	-0.775208	-0.000016
C41	C	-0.303085	-0.796029	-0.000020
N42	N	-0.228347	-1.050435	-0.237441
C43	C	-0.040193	-0.947273	0.605053
C44	C	-0.088712	-0.973877	0.710074
C45	C	-0.319521	-1.100417	0.710034
C46	C	-0.271023	-1.073820	0.605010
C47	C	-0.131358	-0.997248	0.552528
C48	C	-0.362188	-1.123795	0.552486
C49	C	-0.313691	-1.097203	0.447472
C50	C	-0.174029	-1.020636	0.394982
C51	C	-0.082861	-0.970656	0.447514
C52	C	-0.501850	-1.200371	0.604970
C53	C	-0.593015	-1.250346	0.552446
C54	C	-0.544522	-1.223751	0.447429
C55	C	-0.404860	-1.147184	0.394940
C56	C	-0.635691	-1.273731	0.394898
C57	C	-0.587194	-1.247139	0.289883
C58	C	-0.356363	-1.120592	0.289925
H59	H	-0.606693	-0.951834	-0.068316
H60	H	-0.715703	-0.728668	-0.000019
H61	H	-0.433236	-1.162765	0.752777
H62	H	-0.771939	-0.592127	-0.000023
F63	F	-1.043236	-1.158811	0.188407
H64	H	-0.886763	-0.981827	0.067539
F65	F	-0.207721	-1.039086	0.234067
F66	F	0.043190	-0.816261	-0.000014
F67	F	-0.546707	-0.823149	-0.000029
H68	H	-0.139848	-0.422344	-0.000032
H69	H	-0.418587	-0.844393	-0.000014
H70	H	-0.661430	-1.287836	0.247117
H71	H	-0.762309	-1.213189	-0.101412
H72	H	-0.257275	-0.376591	-0.000035
H73	H	-0.014461	-0.933175	0.752834
F74	F	-0.741652	-1.331841	0.608310
H75	H	0.073531	-0.884913	0.562319
F76	F	-0.784322	-1.355230	0.450764
H77	H	-0.694271	-0.414386	-0.000034
H78	H	-0.541328	-1.222022	0.690480
H79	H	-0.822180	-0.947189	-0.068718
F80	F	-0.661596	-0.979230	0.089389
F81	F	0.075296	-0.477468	-0.000031
F82	F	-0.122413	-0.992340	0.283215
H83	H	0.030863	-0.908297	0.404781
F84	F	-1.098074	-1.283321	0.100982
H85	H	0.096074	-0.628864	-0.000026
H86	H	-0.856993	-1.264866	0.098784
H87	H	-0.882548	-1.085865	-0.166606
F88	F	-0.806990	-1.165167	0.187914
H89	H	-0.662421	-1.083974	-0.166136
H90	H	-0.982890	-1.213133	-0.095040
