data_functionalizedCrystal
_audit_creation_method	'MofGen! by Chris Wilmer'
_symmetry_space_group_name_H-M	'P1'
_symmetry_Int_Tables_number	1
_symmetry_cell_setting	triclinic
loop_
_symmetry_equiv_pos_as_xyz
  x,y,z
_cell_length_a	12.759401
_cell_length_b	12.594516
_cell_length_c	12.594510
_cell_angle_alpha	89.968094
_cell_angle_beta	89.980086
_cell_angle_gamma	90.015696
loop_
_atom_site_label
_atom_site_type_symbol
_atom_site_fract_x
_atom_site_fract_y
_atom_site_fract_z
Zn1	Zn	1.606254	-0.423660	-0.601793
Zn2	Zn	1.606141	-0.601688	-0.423821
Zn3	Zn	1.430553	-0.423723	-0.423831
Zn4	Zn	1.430540	-0.601596	-0.601760
O5	O	1.518372	-0.512667	-0.512802
O6	O	1.753260	-0.447288	-0.578195
O7	O	1.582808	-0.578146	-0.274877
O8	O	1.453913	-0.274769	-0.447456
O9	O	1.753177	-0.578085	-0.447439
O10	O	1.582999	-0.274723	-0.578205
O11	O	1.453804	-0.447395	-0.274884
O12	O	1.283531	-0.447306	-0.447424
O13	O	1.453890	-0.577928	-0.750710
O14	O	1.283521	-0.577988	-0.578148
O15	O	1.582986	-0.447199	-0.750735
O16	O	1.582795	-0.750622	-0.447407
O17	O	1.453782	-0.750554	-0.578138
C18	C	1.245405	-0.512645	-0.512784
C19	C	1.128628	-0.512661	-0.512802
C20	C	1.518303	-0.789208	-0.512791
C21	C	1.518370	-0.907513	-0.512822
C22	C	0.964015	-0.444548	-0.444864
C23	C	1.073739	-0.444526	-0.444854
C24	C	1.073787	-0.580815	-0.580772
C25	C	0.964065	-0.580832	-0.580787
C26	C	0.909132	-0.376416	-0.376904
C27	C	0.963966	-0.308260	-0.308935
C28	C	1.073690	-0.308237	-0.308924
C29	C	1.128581	-0.376371	-0.376883
C30	C	1.448193	-0.976768	-0.583877
C31	C	1.422592	-1.047643	-0.486755
C32	C	1.544066	-1.047437	-0.609961
C33	C	1.492719	-0.976830	-0.415649
C34	C	1.614238	-0.976618	-0.538920
C35	C	1.588673	-1.047461	-0.441731
C36	C	1.792405	-0.512690	-0.512820
C37	C	1.909182	-0.512700	-0.512827
C38	C	1.518449	-0.512546	-0.790423
C39	C	1.518482	-0.512494	-0.908728
C40	C	1.518470	-0.235046	-0.512835
C41	C	1.518512	-0.116741	-0.512850
C42	C	1.588723	-0.441370	-1.048758
C43	C	1.614374	-0.538491	-0.977940
C44	C	1.492877	-0.415385	-0.977975
C45	C	1.544228	-0.609634	-1.048695
C46	C	1.422686	-0.486462	-1.048737
C47	C	1.448301	-0.583650	-0.977950
C48	C	1.518356	-0.512710	-0.236261
C49	C	1.518526	-0.512462	-0.117956
H50	H	0.819790	-0.376428	-0.376904
H51	H	1.217925	-0.376337	-0.376879
H52	H	1.118488	-0.636287	-0.636101
H53	H	1.118333	-0.252733	-0.253589
C54	C	1.722316	-0.568866	-0.824784
C55	C	1.723757	-0.568221	-0.935952
H56	H	1.789844	-0.587224	-0.798870
H57	H	1.703645	-0.500384	-0.799533
H58	H	1.672492	-0.619441	-0.800558
H59	H	1.773575	-0.517640	-0.960178
H60	H	1.742441	-0.636713	-0.961213
C61	C	1.239789	-1.054089	-0.531454
C62	C	1.313233	-1.089765	-0.456961
H63	H	1.172276	-1.080097	-0.513067
H64	H	1.238789	-0.978682	-0.531858
H65	H	1.258486	-1.079311	-0.599958
H66	H	1.294540	-1.064537	-0.388457
H67	H	1.314230	-1.165188	-0.456546
H68	H	1.695227	-0.945400	-0.561018
C69	C	0.975125	-0.715539	-0.715144
C70	C	0.903784	-0.655737	-0.655501
H71	H	0.937907	-0.761781	-0.761270
H72	H	1.017949	-0.669202	-0.755917
H73	H	1.017889	-0.756207	-0.668690
H74	H	0.861025	-0.615063	-0.701954
H75	H	0.860941	-0.702080	-0.614724
H76	H	0.919267	-0.252782	-0.253612
H77	H	1.388920	-0.643854	-0.947057
C78	C	1.500555	-0.795013	-1.053884
C79	C	1.573626	-0.720509	-1.090456
H80	H	1.518706	-0.863457	-1.079677
H81	H	1.500698	-0.795710	-0.978472
H82	H	1.432707	-0.776409	-1.078718
H83	H	1.641474	-0.739109	-1.065616
H84	H	1.573494	-0.719816	-1.165885
H85	H	1.471203	-0.333274	-0.946907
H86	H	1.388740	-0.945727	-0.643878
H87	H	1.470948	-0.945942	-0.333489
H88	H	1.648150	-0.381311	-1.079847
C89	C	1.641785	-1.053279	-0.258950
C90	C	1.668869	-1.089114	-0.360542
H91	H	1.691288	-1.079003	-0.208827
H92	H	1.641765	-0.977869	-0.258100
H93	H	1.573937	-1.078680	-0.241020
H94	H	1.736714	-1.063706	-0.378476
H95	H	1.668900	-1.164540	-0.361395
C96	C	1.499665	-1.053613	-0.795093
C97	C	1.573339	-1.089305	-0.720841
H98	H	1.517736	-1.079454	-0.863547
H99	H	1.432104	-1.078982	-0.776078
H100	H	1.499203	-0.978195	-0.796022
H101	H	1.573795	-1.164724	-0.719907
H102	H	1.640917	-1.063942	-0.739862
C103	C	1.286649	-0.354949	-1.055132
C104	C	1.313332	-0.456710	-1.090765
H105	H	1.219141	-0.336572	-1.081086
H106	H	1.285990	-0.354109	-0.979724
H107	H	1.336713	-0.305150	-1.080436
H108	H	1.263272	-0.506510	-1.065454
H109	H	1.313982	-0.457557	-1.166188
