data_functionalizedCrystal
_audit_creation_method	'MofGen! by Chris Wilmer'
_symmetry_space_group_name_H-M	'P1'
_symmetry_Int_Tables_number	1
_symmetry_cell_setting	triclinic
loop_
_symmetry_equiv_pos_as_xyz
  x,y,z
_cell_length_a	14.519731
_cell_length_b	11.792241
_cell_length_c	10.868271
_cell_angle_alpha	89.999850
_cell_angle_beta	89.995592
_cell_angle_gamma	83.941134
loop_
_atom_site_label
_atom_site_type_symbol
_atom_site_fract_x
_atom_site_fract_y
_atom_site_fract_z
O1	O	1.224400	0.148896	-0.102311
O2	O	1.474400	0.398896	0.147689
O3	O	1.724400	0.648896	0.397689
O4	O	1.974400	0.898896	0.647689
O5	O	0.955990	0.166392	-0.102311
O6	O	1.205990	0.416392	0.147689
O7	O	1.455990	0.666392	0.397689
O8	O	1.705990	0.916392	0.647689
O9	O	1.096709	-0.007562	-0.102318
O10	O	1.346709	0.242438	0.147682
O11	O	1.596709	0.492438	0.397682
O12	O	1.846709	0.742438	0.647682
O13	O	1.083681	0.322850	-0.102304
O14	O	1.333681	0.572850	0.147696
O15	O	1.583681	0.822850	0.397696
O16	O	1.833681	1.072850	0.647696
O17	O	1.096697	-0.007569	0.102326
O18	O	1.346697	0.242431	0.352326
O19	O	1.596697	0.492431	0.602326
O20	O	1.846697	0.742431	0.852326
O21	O	0.955978	0.166385	0.102333
O22	O	1.205978	0.416385	0.352333
O23	O	1.455978	0.666385	0.602333
O24	O	1.705978	0.916385	0.852333
O25	O	1.224388	0.148889	0.102334
O26	O	1.474388	0.398889	0.352334
O27	O	1.724388	0.648889	0.602334
O28	O	1.974388	0.898889	0.852334
Zn29	Zn	1.090181	0.157636	0.134825
Zn30	Zn	1.340181	0.407636	0.384825
Zn31	Zn	1.590181	0.657636	0.634825
Zn32	Zn	1.840181	0.907636	0.884825
Zn33	Zn	1.090197	0.157645	-0.134803
Zn34	Zn	1.340197	0.407645	0.115197
Zn35	Zn	1.590197	0.657645	0.365197
Zn36	Zn	1.840197	0.907645	0.615197
O37	O	1.083670	0.322843	0.102341
O38	O	1.333670	0.572843	0.352341
O39	O	1.583670	0.822843	0.602341
O40	O	1.833670	1.072843	0.852341
C41	C	1.095884	-0.049852	-0.000001
C42	C	1.345884	0.200148	0.249999
C43	C	1.595884	0.450148	0.499999
C44	C	1.845884	0.700148	0.749999
C45	C	1.093435	-0.175852	-0.000014
C46	C	1.343435	0.074148	0.249986
C47	C	1.593435	0.324148	0.499986
C48	C	1.843435	0.574148	0.749986
C49	C	0.921622	0.165569	0.000011
C50	C	1.171622	0.415569	0.250011
C51	C	1.421622	0.665569	0.500011
C52	C	1.671622	0.915569	0.750011
C53	C	0.819232	0.163112	0.000010
C54	C	1.069232	0.413112	0.250010
C55	C	1.319232	0.663112	0.500010
C56	C	1.569232	0.913112	0.750010
C57	C	0.736081	0.161116	0.000005
C58	C	0.986081	0.411116	0.250005
C59	C	1.236081	0.661116	0.500005
C60	C	1.486081	0.911116	0.750005
C61	C	0.631763	0.158622	0.000004
C62	C	0.881763	0.408622	0.250004
C63	C	1.131763	0.658622	0.500004
C64	C	1.381763	0.908622	0.750004
C65	C	0.548617	0.156642	0.000005
C66	C	0.798617	0.406642	0.250005
C67	C	1.048617	0.656642	0.500005
C68	C	1.298617	0.906642	0.750005
C69	C	0.444292	0.154149	0.000002
C70	C	0.694292	0.404149	0.250002
C71	C	0.944292	0.654149	0.500002
C72	C	1.194292	0.904149	0.750002
C73	C	1.258757	0.149713	0.000009
C74	C	1.508757	0.399713	0.250009
C75	C	1.758757	0.649713	0.500009
C76	C	2.008757	0.899713	0.750009
C77	C	1.361146	0.152169	0.000002
C78	C	1.611146	0.402169	0.250002
C79	C	1.861146	0.652169	0.500002
C80	C	2.111146	0.902169	0.750002
C81	C	1.084494	0.365133	0.000020
C82	C	1.334494	0.615133	0.250020
C83	C	1.584494	0.865133	0.500020
C84	C	1.834494	1.115133	0.750020
C85	C	1.086943	0.491133	0.000026
C86	C	1.336943	0.741133	0.250026
C87	C	1.586943	0.991133	0.500026
C88	C	1.836943	1.241133	0.750026
N89	N	1.090178	0.157629	0.318839
N90	N	1.340178	0.407629	0.568839
N91	N	1.590178	0.657629	0.818839
N92	N	1.840178	0.907629	1.068839
C93	C	1.091447	0.721821	-0.000005
C94	C	1.341447	0.971821	0.249995
C95	C	1.591447	1.221821	0.499995
C96	C	1.841447	1.471821	0.749995
C97	C	1.088944	0.593450	0.000012
C98	C	1.338944	0.843450	0.250012
C99	C	1.588944	1.093450	0.500012
C100	C	1.838944	1.343450	0.750012
N101	N	1.090208	0.157643	-0.318817
N102	N	1.340208	0.407643	-0.068817
N103	N	1.590208	0.657643	0.181183
N104	N	1.840208	0.907643	0.431183
C105	C	1.090192	0.157643	0.569845
C106	C	1.340192	0.407643	0.819845
C107	C	1.590192	0.657643	1.069845
C108	C	1.840192	0.907643	1.319845
C109	C	1.090181	0.157639	0.430168
C110	C	1.340181	0.407639	0.680168
C111	C	1.590181	0.657639	0.930168
C112	C	1.840181	0.907639	1.180168
