data_functionalizedCrystal
_audit_creation_method	'MofGen! by Chris Wilmer'
_symmetry_space_group_name_H-M	'P1'
_symmetry_Int_Tables_number	1
_symmetry_cell_setting	triclinic
loop_
_symmetry_equiv_pos_as_xyz
  x,y,z
_cell_length_a	14.519709
_cell_length_b	15.995292
_cell_length_c	12.996460
_cell_angle_alpha	89.997047
_cell_angle_beta	90.000034
_cell_angle_gamma	83.574380
loop_
_atom_site_label
_atom_site_type_symbol
_atom_site_fract_x
_atom_site_fract_y
_atom_site_fract_z
O1	O	1.223644	0.109763	-0.085425
O2	O	1.723644	0.609763	0.414575
O3	O	0.955141	0.122689	-0.085456
O4	O	1.455141	0.622689	0.414544
O5	O	1.096760	-0.005654	-0.085441
O6	O	1.596760	0.494346	0.414559
O7	O	1.082025	0.238106	-0.085440
O8	O	1.582025	0.738106	0.414560
O9	O	1.096745	-0.005661	0.085692
O10	O	1.596745	0.494339	0.585692
O11	O	0.955126	0.122682	0.085678
O12	O	1.455126	0.622682	0.585678
O13	O	1.223629	0.109756	0.085708
O14	O	1.723629	0.609756	0.585708
Cu15	Cu	1.089376	0.116218	0.101319
Cu16	Cu	1.589376	0.616218	0.601319
Cu17	Cu	1.089394	0.116227	-0.101067
Cu18	Cu	1.589394	0.616227	0.398933
O19	O	1.082010	0.238099	0.085694
O20	O	1.582010	0.738099	0.585694
C21	C	0.920775	0.122083	0.000107
C22	C	1.420775	0.622083	0.500107
C23	C	0.818397	0.120278	0.000095
C24	C	1.318397	0.620278	0.500095
C25	C	0.443515	0.113632	0.000142
C26	C	0.943515	0.613632	0.500142
C27	C	0.547819	0.115478	0.000128
C28	C	1.047819	0.615478	0.500128
C29	C	0.630953	0.116955	0.000117
C30	C	1.130953	0.616955	0.500117
C31	C	0.735264	0.118801	0.000106
C32	C	1.235264	0.618801	0.500106
C33	C	1.096153	-0.036854	0.000123
C34	C	1.596153	0.463146	0.500123
C35	C	1.094355	-0.129810	0.000115
C36	C	1.594355	0.370190	0.500115
C37	C	1.087745	-0.467558	0.000124
C38	C	1.587745	0.032442	0.500124
C39	C	1.189962	-0.444093	0.000518
C40	C	1.689962	0.055907	0.500518
C41	C	1.191905	-0.347414	0.000128
C42	C	1.691905	0.152586	0.500128
C43	C	1.091025	-0.299997	0.000120
C44	C	1.591025	0.200003	0.500120
C45	C	1.039930	-0.329171	-0.097609
C46	C	1.539930	0.170829	0.402391
C47	C	1.038699	-0.425963	-0.097687
C48	C	1.538699	0.074037	0.402313
C49	C	1.036595	-0.425831	0.096924
C50	C	1.536595	0.074169	0.596924
C51	C	1.040383	-0.329333	0.098212
C52	C	1.540383	0.170667	0.598212
C53	C	1.092873	-0.205298	0.000114
C54	C	1.592873	0.294702	0.500114
C55	C	1.085894	-0.562257	0.000122
C56	C	1.585894	-0.062257	0.500122
C57	C	1.257995	0.110362	0.000143
C58	C	1.757995	0.610362	0.500143
C59	C	1.360373	0.112167	0.000149
C60	C	1.860373	0.612167	0.500149
C61	C	1.082617	0.269299	0.000127
C62	C	1.582617	0.769299	0.500127
C63	C	1.084415	0.362254	0.000129
C64	C	1.584415	0.862254	0.500129
N65	N	1.089371	0.116212	0.243666
N66	N	1.589371	0.616212	0.743666
N67	N	1.089407	0.116226	-0.243414
N68	N	1.589407	0.616226	0.256586
C69	C	1.089393	0.116227	0.663480
C70	C	1.589393	0.616227	1.163480
C71	C	1.089384	0.116226	0.546675
C72	C	1.589384	0.616226	1.046675
C73	C	1.089382	0.116220	0.453577
C74	C	1.589382	0.616220	0.953577
C75	C	1.089373	0.116217	0.336764
C76	C	1.589373	0.616217	0.836764
H77	H	1.231922	-0.328332	0.070183
H78	H	1.731922	0.171668	0.570183
H79	H	1.229149	-0.473049	-0.069166
H80	H	1.729149	0.026951	0.430834
O81	O	0.941599	-0.287103	-0.102433
O82	O	1.441599	0.212897	0.397567
H83	H	0.892820	-0.335798	-0.101362
H84	H	1.392820	0.164202	0.398638
H85	H	1.232170	-0.328946	-0.070041
H86	H	1.732170	0.171054	0.429959
O87	O	0.936936	-0.444522	0.097795
O88	O	1.436936	0.055478	0.597795
H89	H	0.890422	-0.384564	0.095273
H90	H	1.390422	0.115436	0.595273
O91	O	1.078999	-0.463196	0.195047
O92	O	1.578999	0.036804	0.695047
H93	H	1.105505	-0.412863	0.241614
H94	H	1.605505	0.087137	0.741614
H95	H	1.077588	-0.310715	0.170511
H96	H	1.577588	0.189285	0.670511
H97	H	1.074098	-0.452723	-0.170734
H98	H	1.574098	0.047277	0.329266
H99	H	1.229355	-0.472034	0.070603
H100	H	1.729355	0.027966	0.570603
O101	O	0.939433	-0.445402	-0.103584
O102	O	1.439433	0.054598	0.396416
H103	H	0.907204	-0.418262	-0.175355
H104	H	1.407204	0.081738	0.324645
O105	O	1.087171	-0.302839	-0.193945
O106	O	1.587171	0.197161	0.306055
H107	H	1.147002	-0.268944	-0.172467
H108	H	1.647002	0.231056	0.327533
H109	H	0.966750	-0.296474	0.104108
H110	H	1.466750	0.203526	0.604108
