data_functionalizedCrystal
_audit_creation_method	'MofGen! by Chris Wilmer'
_symmetry_space_group_name_H-M	'P1'
_symmetry_Int_Tables_number	1
_symmetry_cell_setting	triclinic
loop_
_symmetry_equiv_pos_as_xyz
  x,y,z
_cell_length_a	13.897441
_cell_length_b	14.908571
_cell_length_c	14.908178
_cell_angle_alpha	90.179240
_cell_angle_beta	86.671188
_cell_angle_gamma	93.312532
loop_
_atom_site_label
_atom_site_type_symbol
_atom_site_fract_x
_atom_site_fract_y
_atom_site_fract_z
Zn1	Zn	-0.601784	-1.353998	-0.437423
Zn2	Zn	-0.101784	-0.853998	0.062577
Zn3	Zn	-0.430658	-1.345226	-0.587806
Zn4	Zn	0.069342	-0.845226	-0.087806
Zn5	Zn	-0.431773	-1.203632	-0.428770
Zn6	Zn	0.068227	-0.703632	0.071230
Zn7	Zn	-0.583192	-1.194936	-0.579060
Zn8	Zn	-0.083192	-0.694936	-0.079060
O9	O	-0.511852	-1.274448	-0.508265
O10	O	-0.011852	-0.774448	-0.008265
O11	O	-0.586398	-1.478660	-0.464654
O12	O	-0.086398	-0.978660	0.035346
O13	O	-0.295820	-1.326411	-0.566748
O14	O	0.204180	-0.826411	-0.066748
O15	O	-0.462573	-1.230889	-0.304085
O16	O	0.037427	-0.730889	0.195915
O17	O	-0.460672	-1.472215	-0.575139
O18	O	0.039328	-0.972215	-0.075139
O19	O	-0.587479	-1.341362	-0.310443
O20	O	-0.087479	-0.841362	0.189557
O21	O	-0.296639	-1.222383	-0.449905
O22	O	0.203361	-0.722383	0.050095
O23	O	-0.444545	-1.076653	-0.441424
O24	O	0.055455	-0.576653	0.058576
O25	O	-0.720644	-1.216068	-0.560232
O26	O	-0.220644	-0.716068	-0.060232
O27	O	-0.555791	-1.070265	-0.551842
O28	O	-0.055791	-0.570265	-0.051842
O29	O	-0.734304	-1.332930	-0.456173
O30	O	-0.234304	-0.832930	0.043827
O31	O	-0.442644	-1.317980	-0.712478
O32	O	0.057356	-0.817980	-0.212478
O33	O	-0.554710	-1.207562	-0.706052
O34	O	-0.054710	-0.707562	-0.206052
C35	C	-0.496561	-1.260900	-0.741893
C36	C	0.003439	-0.760900	-0.241893
C37	C	-0.490057	-1.255186	-0.841846
C38	C	0.009943	-0.755186	-0.341846
C39	C	-0.498272	-1.040834	-0.494745
C40	C	0.001728	-0.540834	0.005255
C41	C	-0.492484	-0.940891	-0.488983
C42	C	0.007516	-0.440891	0.011017
C43	C	-0.763453	-1.274507	-0.508192
C44	C	-0.263453	-0.774507	-0.008192
C45	C	-0.870670	-1.274533	-0.508162
C46	C	-0.370670	-0.774533	-0.008162
C47	C	-0.957743	-1.274553	-0.508137
C48	C	-0.457743	-0.774553	-0.008137
C49	C	-1.066980	-1.274581	-0.508098
C50	C	-0.566980	-0.774581	-0.008098
C51	C	-0.261236	-1.274444	-0.508275
C52	C	0.238764	-0.774444	-0.008275
C53	C	-0.154046	-1.274608	-0.508062
C54	C	0.345954	-0.774608	-0.008062
C55	C	-0.525485	-1.508975	-0.521837
C56	C	-0.025485	-1.008975	-0.021837
C57	C	-0.531294	-1.608916	-0.527621
C58	C	-0.031294	-1.108916	-0.027621
C59	C	-0.597272	-0.746474	-0.593312
C60	C	-0.097272	-0.246474	-0.093312
C61	C	-0.591837	-0.652569	-0.587901
C62	C	-0.091837	-0.152569	-0.087901
C63	C	-0.476185	-0.659175	-0.472746
C64	C	0.023815	-0.159175	0.027254
C65	C	-0.481620	-0.753080	-0.478157
C66	C	0.018380	-0.253080	0.021843
C67	C	-0.542164	-0.796726	-0.538443
C68	C	-0.042164	-0.296726	-0.038443
C69	C	-0.547594	-0.890632	-0.543858
C70	C	-0.047594	-0.390632	-0.043858
C71	C	-0.431947	-0.897236	-0.428700
C72	C	0.068053	-0.397236	0.071300
C73	C	-0.426512	-0.803331	-0.423289
C74	C	0.073488	-0.303331	0.076711
C75	C	-0.608026	-1.359398	-1.036132
C76	C	-0.108026	-0.859398	-0.536132
C77	C	-0.601918	-1.354033	-1.130046
C78	C	-0.101918	-0.854033	-0.630046
C79	C	-0.471738	-1.239086	-1.123589
C80	C	0.028262	-0.739086	-0.623589
C81	C	-0.477846	-1.244452	-1.029675
C82	C	0.022154	-0.744452	-0.529675
C83	C	-0.545991	-1.304611	-0.985950
C84	C	-0.045991	-0.804611	-0.485950
C85	C	-0.552094	-1.309980	-0.892034
C86	C	-0.052094	-0.809980	-0.392034
C87	C	-0.421919	-1.195029	-0.885580
C88	C	0.078081	-0.695029	-0.385580
C89	C	-0.415811	-1.189664	-0.979494
C90	C	0.084189	-0.689664	-0.479494
C91	C	-0.527224	-1.288074	-0.273725
C92	C	-0.027224	-0.788074	0.226275
C93	C	-0.533775	-1.293880	-0.173778
C94	C	-0.033775	-0.793880	0.326222
H95	H	-0.596890	-0.926168	-0.592948
H96	H	-0.096890	-0.426168	-0.092948
Cl97	Cl	-0.343921	-1.126156	-0.822489
Cl98	Cl	0.156079	-0.626156	-0.322489
H99	H	-0.426899	-0.623622	-0.423659
H100	H	0.073101	-0.123622	0.076341
H101	H	-0.387073	-0.938161	-0.384023
H102	H	0.112927	-0.438161	0.115977
H103	H	-0.607579	-1.358967	-0.856434
H104	H	-0.107579	-0.858967	-0.356434
Cl105	Cl	-0.693682	-1.435034	-0.981160
Cl106	Cl	-0.193682	-0.935034	-0.481160
Cl107	Cl	-0.386099	-1.163443	-1.178573
Cl108	Cl	0.113901	-0.663443	-0.678573
H109	H	-0.652438	-1.398642	-1.170900
H110	H	-0.152438	-0.898642	-0.670900
Cl111	Cl	-0.661120	-0.589398	-0.656880
Cl112	Cl	-0.161120	-0.089398	-0.156880
H113	H	-0.360331	-1.140682	-1.015108
H114	H	0.139669	-0.640682	-0.515108
H115	H	-0.377222	-0.767782	-0.374203
H116	H	0.122778	-0.267782	0.125797
Cl117	Cl	-0.673371	-0.801347	-0.669107
Cl118	Cl	-0.173371	-0.301347	-0.169107
