data_functionalizedCrystal
_audit_creation_method	'MofGen! by Chris Wilmer'
_symmetry_space_group_name_H-M	'P1'
_symmetry_Int_Tables_number	1
_symmetry_cell_setting	triclinic
loop_
_symmetry_equiv_pos_as_xyz
  x,y,z
_cell_length_a	9.065218
_cell_length_b	9.065215
_cell_length_c	7.540329
_cell_angle_alpha	89.997358
_cell_angle_beta	89.995865
_cell_angle_gamma	85.015291
loop_
_atom_site_label
_atom_site_type_symbol
_atom_site_fract_x
_atom_site_fract_y
_atom_site_fract_z
O1	O	1.960396	0.216355	-0.147528
O2	O	2.293730	0.549688	0.185805
O3	O	2.627063	0.883022	0.519138
O4	O	1.531111	0.234101	-0.147521
O5	O	1.864445	0.567435	0.185813
O6	O	2.197778	0.900768	0.519146
O7	O	1.754629	0.010586	-0.147517
O8	O	2.087963	0.343919	0.185816
O9	O	2.421296	0.677252	0.519150
O10	O	1.736878	0.439871	-0.147532
O11	O	2.070212	0.773204	0.185802
O12	O	2.403545	1.106538	0.519135
O13	O	1.754616	0.010583	0.147448
O14	O	2.087949	0.343916	0.480781
O15	O	2.421282	0.677249	0.814115
O16	O	1.531098	0.234099	0.147445
O17	O	1.864431	0.567432	0.480778
O18	O	2.197764	0.900765	0.814111
O19	O	1.960383	0.216352	0.147437
O20	O	2.293716	0.549685	0.480770
O21	O	2.627049	0.883019	0.814104
Cu22	Cu	1.745739	0.225225	0.174373
Cu23	Cu	2.079072	0.558558	0.507707
Cu24	Cu	2.412406	0.891892	0.841040
Cu25	Cu	1.745755	0.225228	-0.174457
Cu26	Cu	2.079088	0.558562	0.158876
Cu27	Cu	2.412422	0.891895	0.492210
O28	O	1.736865	0.439868	0.147433
O29	O	2.070198	0.773201	0.480767
O30	O	2.403531	1.106535	0.814100
C31	C	1.752917	-0.044403	-0.000036
C32	C	2.086251	0.288931	0.333297
C33	C	2.419584	0.622264	0.666630
C34	C	1.747819	-0.208246	-0.000042
C35	C	2.081153	0.125088	0.333292
C36	C	2.414486	0.458421	0.666625
C37	C	1.476118	0.232394	-0.000037
C38	C	1.809451	0.565728	0.333296
C39	C	2.142785	0.899061	0.666630
C40	C	1.312275	0.227295	-0.000034
C41	C	1.645608	0.560628	0.333299
C42	C	1.978942	0.893961	0.666633
C43	C	2.015376	0.218059	-0.000051
C44	C	2.348709	0.551392	0.333283
C45	C	2.682043	0.884726	0.666616
C46	C	2.179219	0.223159	-0.000065
C47	C	2.512552	0.556492	0.333268
C48	C	2.845886	0.889825	0.666601
C49	C	1.738576	0.494856	-0.000051
C50	C	2.071910	0.828189	0.333282
C51	C	2.405243	1.161523	0.666615
C52	C	1.743674	0.658699	-0.000058
C53	C	2.077008	0.992033	0.333276
C54	C	2.410341	1.325366	0.666609
N55	N	1.745739	0.225222	0.419722
N56	N	2.079072	0.558555	0.753055
N57	N	2.412405	0.891888	1.086388
N58	N	1.745767	0.225220	-0.419805
N59	N	2.079100	0.558553	-0.086472
N60	N	2.412434	0.891887	0.246861
