data_functionalizedCrystal
_audit_creation_method	'MofGen! by Chris Wilmer'
_symmetry_space_group_name_H-M	'P1'
_symmetry_Int_Tables_number	1
_symmetry_cell_setting	triclinic
loop_
_symmetry_equiv_pos_as_xyz
  x,y,z
_cell_length_a	13.339070
_cell_length_b	10.654550
_cell_length_c	9.730223
_cell_angle_alpha	89.999758
_cell_angle_beta	90.000483
_cell_angle_gamma	79.942888
loop_
_atom_site_label
_atom_site_type_symbol
_atom_site_fract_x
_atom_site_fract_y
_atom_site_fract_z
O1	O	0.142432	-1.715933	0.114179
O2	O	0.156002	-1.355036	0.114204
O3	O	0.001663	-1.494065	0.114190
O4	O	0.296771	-1.576904	0.114193
O5	O	0.001663	-1.494051	-0.114390
O6	O	0.156002	-1.355022	-0.114376
O7	O	0.142432	-1.715919	-0.114401
Zn8	Zn	0.149217	-1.535469	-0.150680
Zn9	Zn	0.149217	-1.535486	0.150483
O10	O	0.296771	-1.576890	-0.114387
C11	C	0.155006	-1.307895	-0.000083
C12	C	0.152025	-1.167445	-0.000073
C13	C	-0.036124	-1.480065	-0.000097
C14	C	-0.148719	-1.438355	-0.000089
C15	C	0.143429	-1.763060	-0.000111
C16	C	0.146410	-1.903510	-0.000111
C17	C	-0.511236	-1.762670	-0.000111
C18	C	-0.405448	-1.801862	-0.000127
C19	C	-0.341261	-1.710989	-0.000117
C20	C	-0.382871	-1.580916	-0.000092
C21	C	-0.488669	-1.541720	-0.000087
C22	C	-0.318694	-1.490039	-0.000093
C23	C	-0.360304	-1.359966	-0.000068
C24	C	-0.466092	-1.320776	-0.000062
C25	C	-0.530280	-1.411650	-0.000072
C26	C	-0.212896	-1.529235	-0.000098
C27	C	-0.190329	-1.308285	-0.000074
C28	C	-0.296117	-1.269093	-0.000058
C29	C	0.334559	-1.590890	-0.000097
C30	C	0.447153	-1.632600	-0.000096
N31	N	0.149217	-1.535465	-0.356217
C32	C	0.242897	-1.118643	-0.000077
C33	C	0.240090	-0.986674	-0.000101
C34	C	0.055530	-0.952320	-0.000112
C35	C	0.058338	-1.084286	-0.000098
C36	C	0.211296	-1.633258	-0.428143
C37	C	0.211290	-1.633277	-0.572026
C38	C	0.087124	-1.437699	-0.572044
C39	C	0.087125	-1.437686	-0.428164
N40	N	0.149210	-1.535497	0.356020
H41	H	-0.255124	-1.742907	-0.000130
O42	O	0.026911	-1.342779	-0.642145
C43	C	0.040255	-1.363718	-0.784564
H44	H	0.117354	-1.426331	-0.804187
H45	H	0.036983	-1.268442	-0.839208
H46	H	-0.022781	-1.413309	-0.825459
H47	H	0.319183	-1.186348	-0.000067
O48	O	-0.035559	-0.871716	-0.000180
C49	C	-0.115164	-0.943094	-0.000138
H50	H	-0.086110	-1.042201	-0.043411
H51	H	-0.180516	-0.892953	-0.066500
H52	H	-0.143235	-0.951845	0.109525
O53	O	-0.029913	-1.131762	-0.000334
C54	C	-0.033793	-1.207106	-0.118693
H55	H	0.017725	-1.177086	-0.201438
H56	H	-0.115376	-1.193422	-0.158432
H57	H	-0.006868	-1.311732	-0.091917
O58	O	-0.172362	-1.655541	0.000072
C59	C	-0.111863	-1.684842	0.118471
H60	H	-0.086211	-1.594804	0.157947
H61	H	-0.042249	-1.759161	0.091840
H62	H	-0.158205	-1.724257	0.201364
O63	O	0.026790	-1.342557	-0.358499
C64	C	-0.028026	-1.256268	-0.452851
H65	H	0.013898	-1.263546	-0.555415
H66	H	-0.035061	-1.155070	-0.411283
H67	H	-0.107239	-1.280410	-0.468148
H68	H	-0.138067	-1.234288	-0.000072
O69	O	-0.573731	-1.850765	-0.000068
C70	C	-0.676026	-1.788274	-0.000102
H71	H	-0.680771	-1.687986	0.043190
H72	H	-0.723447	-1.843935	0.066246
H73	H	-0.706579	-1.782370	-0.109766
H74	H	0.261855	-1.712876	-0.369567
O75	O	-0.336375	-1.142693	0.000020
C76	C	-0.257047	-1.070880	-0.000008
H77	H	-0.184937	-1.131204	0.043256
H78	H	-0.279723	-0.982302	0.066368
H79	H	-0.242333	-1.041065	-0.109666
H80	H	0.261840	-1.712911	-0.630581
H81	H	-0.371577	-1.907767	-0.000149
O82	O	-0.633029	-1.373417	-0.000236
C83	C	-0.662199	-1.299741	-0.118626
H84	H	-0.594648	-1.257820	-0.158106
H85	H	-0.727423	-1.219211	-0.091981
H86	H	-0.688116	-1.362612	-0.201521
O87	O	-0.506464	-1.194411	0.000194
C88	C	-0.473723	-1.136787	0.118566
H89	H	-0.451244	-1.212208	0.201303
H90	H	-0.538176	-1.060904	0.158310
H91	H	-0.405278	-1.090655	0.091806
H92	H	0.314088	-0.946947	-0.000106
