data_functionalizedCrystal
_audit_creation_method	'MofGen! by Chris Wilmer'
_symmetry_space_group_name_H-M	'P1'
_symmetry_Int_Tables_number	1
_symmetry_cell_setting	triclinic
loop_
_symmetry_equiv_pos_as_xyz
  x,y,z
_cell_length_a	13.897448
_cell_length_b	13.897449
_cell_length_c	11.169409
_cell_angle_alpha	89.972648
_cell_angle_beta	90.035576
_cell_angle_gamma	89.982380
loop_
_atom_site_label
_atom_site_type_symbol
_atom_site_fract_x
_atom_site_fract_y
_atom_site_fract_z
Zn1	Zn	-0.383939	-1.474715	0.678757
Zn2	Zn	-0.133939	-1.224715	0.928757
Zn3	Zn	0.116061	-0.974715	1.178757
Zn4	Zn	0.366061	-0.724715	1.428757
Zn5	Zn	-0.545274	-1.474605	0.478062
Zn6	Zn	-0.295274	-1.224605	0.728062
Zn7	Zn	-0.045274	-0.974605	0.978062
Zn8	Zn	0.204726	-0.724605	1.228062
Zn9	Zn	-0.383995	-1.313400	0.478065
Zn10	Zn	-0.133995	-1.063400	0.728065
Zn11	Zn	0.116005	-0.813400	0.978065
Zn12	Zn	0.366005	-0.563400	1.228065
Zn13	Zn	-0.545193	-1.313386	0.678681
Zn14	Zn	-0.295193	-1.063386	0.928681
Zn15	Zn	-0.045193	-0.813386	1.178681
Zn16	Zn	0.204807	-0.563386	1.428681
O17	O	-0.464600	-1.394027	0.578391
O18	O	-0.214600	-1.144027	0.828391
O19	O	0.035400	-0.894027	1.078391
O20	O	0.285400	-0.644027	1.328391
O21	O	-0.405351	-1.609682	0.652165
O22	O	-0.155351	-1.359682	0.902165
O23	O	0.094649	-1.109682	1.152165
O24	O	0.344649	-0.859682	1.402165
O25	O	-0.523938	-1.453181	0.310113
O26	O	-0.273938	-1.203181	0.560113
O27	O	-0.023938	-0.953181	0.810113
O28	O	0.226062	-0.703181	1.060113
O29	O	-0.249006	-1.334851	0.504720
O30	O	0.000994	-1.084851	0.754720
O31	O	0.250994	-0.834851	1.004720
O32	O	0.500994	-0.584851	1.254720
O33	O	-0.523883	-1.609601	0.504716
O34	O	-0.273883	-1.359601	0.754716
O35	O	-0.023883	-1.109601	1.004716
O36	O	0.226117	-0.859601	1.254716
O37	O	-0.248964	-1.453368	0.652167
O38	O	0.001036	-1.203368	0.902167
O39	O	0.251036	-0.953368	1.152167
O40	O	0.501036	-0.703368	1.402167
O41	O	-0.405446	-1.334745	0.310115
O42	O	-0.155446	-1.084745	0.560115
O43	O	0.094554	-0.834745	0.810115
O44	O	0.344554	-0.584745	1.060115
O45	O	-0.405368	-1.178417	0.504646
O46	O	-0.155368	-0.928417	0.754646
O47	O	0.094632	-0.678417	1.004646
O48	O	0.344632	-0.428417	1.254646
O49	O	-0.523745	-1.334826	0.846641
O50	O	-0.273745	-1.084826	1.096641
O51	O	-0.023745	-0.834826	1.346641
O52	O	0.226255	-0.584826	1.596641
O53	O	-0.523799	-1.178406	0.652038
O54	O	-0.273799	-0.928406	0.902038
O55	O	-0.023799	-0.678406	1.152038
O56	O	0.226201	-0.428406	1.402038
O57	O	-0.405272	-1.453354	0.846697
O58	O	-0.155272	-1.203354	1.096697
O59	O	0.094728	-0.953354	1.346697
O60	O	0.344728	-0.703354	1.596697
O61	O	-0.680245	-1.453167	0.504642
O62	O	-0.430245	-1.203167	0.754642
O63	O	-0.180245	-0.953167	1.004642
O64	O	0.069755	-0.703167	1.254642
O65	O	-0.680185	-1.334720	0.652036
O66	O	-0.430185	-1.084720	0.902036
O67	O	-0.180185	-0.834720	1.152036
O68	O	0.069815	-0.584720	1.402036
C69	C	-0.464581	-1.143412	0.578335
C70	C	-0.214581	-0.893412	0.828335
C71	C	0.035419	-0.643412	1.078335
C72	C	0.285419	-0.393412	1.328335
C73	C	-0.464597	-1.036198	0.578339
C74	C	-0.214597	-0.786198	0.828339
C75	C	0.035403	-0.536198	1.078339
C76	C	0.285403	-0.286198	1.328339
C77	C	-0.464598	-0.949129	0.578354
C78	C	-0.214598	-0.699129	0.828354
C79	C	0.035402	-0.449129	1.078354
C80	C	0.285402	-0.199129	1.328354
C81	C	-0.464603	-0.839896	0.578384
C82	C	-0.214603	-0.589896	0.828384
C83	C	0.035397	-0.339896	1.078384
C84	C	0.285397	-0.089896	1.328384
C85	C	-0.715215	-1.393956	0.578356
C86	C	-0.465215	-1.143956	0.828356
C87	C	-0.215215	-0.893956	1.078356
C88	C	0.034785	-0.643956	1.328356
C89	C	-0.822428	-1.394014	0.578382
C90	C	-0.572428	-1.144014	0.828382
C91	C	-0.322428	-0.894014	1.078382
C92	C	-0.072428	-0.644014	1.328382
C93	C	-1.018723	-1.394116	0.578457
C94	C	-0.768723	-1.144116	0.828457
C95	C	-0.518723	-0.894116	1.078457
C96	C	-0.268723	-0.644116	1.328457
C97	C	-0.909491	-1.394057	0.578419
C98	C	-0.659491	-1.144057	0.828419
C99	C	-0.409491	-0.894057	1.078419
C100	C	-0.159491	-0.644057	1.328419
C101	C	-0.213007	-1.394124	0.578452
C102	C	0.036993	-1.144124	0.828452
C103	C	0.286993	-0.894124	1.078452
C104	C	0.536993	-0.644124	1.328452
C105	C	-0.105793	-1.394165	0.578478
C106	C	0.144207	-1.144165	0.828478
C107	C	0.394207	-0.894165	1.078478
C108	C	0.644207	-0.644165	1.328478
C109	C	-0.464493	-1.394101	0.891434
C110	C	-0.214493	-1.144101	1.141434
C111	C	0.035507	-0.894101	1.391434
C112	C	0.285507	-0.644101	1.641434
C113	C	-0.464447	-1.394132	1.024834
C114	C	-0.214447	-1.144132	1.274834
C115	C	0.035553	-0.894132	1.524834
C116	C	0.285553	-0.644132	1.774834
C117	C	-0.464616	-0.645620	0.578434
C118	C	-0.214616	-0.395620	0.828434
C119	C	0.035384	-0.145620	1.078434
C120	C	0.285384	0.104380	1.328434
C121	C	-0.464612	-0.752833	0.578415
C122	C	-0.214612	-0.502833	0.828415
C123	C	0.035388	-0.252833	1.078415
C124	C	0.285388	-0.002833	1.328415
C125	C	-0.464637	-1.394008	0.266566
C126	C	-0.214637	-1.144008	0.516566
C127	C	0.035363	-0.894008	0.766566
C128	C	0.285363	-0.644008	1.016566
C129	C	-0.464411	-1.394164	0.133167
C130	C	-0.214411	-1.144164	0.383167
C131	C	0.035589	-0.894164	0.633167
C132	C	0.285589	-0.644164	0.883167
