data_functionalizedCrystal
_audit_creation_method	'MofGen! by Chris Wilmer'
_symmetry_space_group_name_H-M	'P1'
_symmetry_Int_Tables_number	1
_symmetry_cell_setting	triclinic
loop_
_symmetry_equiv_pos_as_xyz
  x,y,z
_cell_length_a	14.853558
_cell_length_b	14.853559
_cell_length_c	12.376457
_cell_angle_alpha	101.294162
_cell_angle_beta	78.691789
_cell_angle_gamma	83.631294
loop_
_atom_site_label
_atom_site_type_symbol
_atom_site_fract_x
_atom_site_fract_y
_atom_site_fract_z
O1	O	1.213631	0.100409	-0.093986
O2	O	0.951171	0.114438	-0.093991
O3	O	1.089416	-0.023806	-0.093987
O4	O	1.075387	0.238654	-0.093990
O5	O	1.054867	0.010708	0.094024
O6	O	0.916622	0.148953	0.094020
O7	O	1.179082	0.134923	0.094025
Zn8	Zn	1.042367	0.147418	0.123874
Zn9	Zn	1.087886	0.101944	-0.123839
O10	O	1.040838	0.273168	0.094022
C11	C	0.900308	0.131061	0.000014
C12	C	0.800224	0.129160	0.000012
C13	C	0.772037	0.109455	-0.102477
C14	C	0.734369	0.147073	0.102500
C15	C	0.640335	0.145282	0.102502
C16	C	0.612148	0.125577	0.000013
C17	C	0.677996	0.107661	-0.102478
C18	C	0.574483	0.163188	0.204991
C19	C	0.480442	0.161398	0.204997
C20	C	0.452253	0.141698	0.102507
C21	C	0.518107	0.123783	0.000012
C22	C	0.489920	0.104077	-0.102478
C23	C	0.555771	0.086168	-0.204974
C24	C	0.649807	0.087962	-0.204969
C25	C	0.358218	0.139905	0.102501
C26	C	0.395878	0.102284	-0.102479
C27	C	1.071507	-0.040139	0.000016
C28	C	1.069608	-0.140224	0.000010
C29	C	1.080376	-0.582212	-0.102475
C30	C	1.042710	-0.544578	0.102502
C31	C	1.044503	-0.450545	0.102503
C32	C	1.064232	-0.422341	0.000013
C33	C	1.082168	-0.488170	-0.102477
C34	C	1.026559	-0.384708	0.204992
C35	C	1.028350	-0.290668	0.204997
C36	C	1.048086	-0.262463	0.102506
C37	C	1.066023	-0.328299	0.000011
C38	C	1.085752	-0.300095	-0.102478
C39	C	1.103696	-0.365931	-0.204974
C40	C	1.101903	-0.459966	-0.204968
C41	C	1.049879	-0.168428	0.102500
C42	C	1.087543	-0.206053	-0.102481
C43	C	1.229946	0.118300	0.000018
C44	C	1.330031	0.120200	0.000012
C45	C	1.058747	0.289500	0.000016
C46	C	1.060648	0.389584	0.000014
N47	N	1.011307	0.178452	0.292931
N48	N	1.118953	0.070903	-0.292897
C49	C	1.191052	-0.001155	0.647921
C50	C	1.212785	-0.022876	0.529582
C51	C	1.162417	0.027454	0.470413
C52	C	1.090313	0.099509	0.529596
C53	C	1.068582	0.121237	0.647946
C54	C	1.039948	0.149846	0.470439
C55	C	0.967843	0.221901	0.529621
C56	C	0.946115	0.243625	0.647960
C57	C	0.996483	0.193295	0.707129
C58	C	1.061678	0.128118	0.352088
C59	C	0.939209	0.250510	0.352114
C60	C	0.917475	0.272231	0.470453
H61	H	0.703430	0.073380	-0.288416
O62	O	1.106836	-0.178616	-0.202003
C63	C	1.186989	-0.135422	-0.208143
H64	H	1.230324	-0.160162	-0.150017
H65	H	1.229829	-0.154366	-0.298800
H66	H	1.165629	-0.056814	-0.180580
H67	H	0.597441	0.179224	0.288432
H68	H	0.825657	0.094877	-0.185927
H69	H	1.116511	-0.513576	-0.288415
O70	O	1.097951	-0.646131	-0.202073
C71	C	1.187846	-0.644701	-0.264457
H72	H	1.231871	-0.614939	-0.204503
H73	H	1.221384	-0.718471	-0.310976
H74	H	1.182976	-0.599538	-0.328337
H75	H	0.887411	0.302303	0.696147
H76	H	0.426833	0.175980	0.288456
O77	O	1.011065	-0.226650	0.304483
C78	C	1.089006	-0.181272	0.310623
H79	H	1.131635	-0.186897	0.221637
H80	H	1.064755	-0.104905	0.353997
H81	H	1.133652	-0.215318	0.361199
O82	O	1.032302	-0.104541	0.202118
C83	C	0.942373	-0.105940	0.264433
H84	H	0.920427	-0.176199	0.235295
H85	H	0.942610	-0.094207	0.358198
H86	H	0.891366	-0.048547	0.250197
O87	O	0.761877	0.166080	0.201979
C88	C	0.825246	0.090212	0.208119
H89	H	0.859053	0.048136	0.119133
H90	H	0.881131	0.116977	0.251490
H91	H	0.786798	0.044175	0.258697
H92	H	1.010491	-0.407679	0.288433
O93	O	1.131605	0.057990	0.294696
C94	C	1.111501	-0.025936	0.323704
H95	H	1.033340	-0.020500	0.356225
H96	H	1.136112	-0.085485	0.245914
H97	H	1.148792	-0.039687	0.392428
O98	O	0.294354	0.157192	0.202124
C99	C	0.315982	0.091034	0.264448
H100	H	0.392988	0.060976	0.235305
H101	H	0.299695	0.125843	0.358210
H102	H	0.272754	0.032787	0.250230
O103	O	1.282820	-0.092922	0.472271
C104	C	1.322631	-0.132672	0.549866
H105	H	1.270178	-0.118271	0.634234
H106	H	1.342581	-0.210924	0.515672
H107	H	1.387324	-0.100967	0.562438
H108	H	0.978786	0.210977	0.803491
O109	O	1.122719	-0.338404	-0.304462
C110	C	1.046844	-0.275044	-0.310598
H111	H	1.004754	-0.241254	-0.221611
H112	H	1.073607	-0.219149	-0.353973
H113	H	1.000817	-0.313491	-0.361170
O114	O	1.023444	-0.572075	0.201979
C115	C	0.943250	-0.615206	0.208132
H116	H	0.933312	-0.642247	0.119151
H117	H	0.951576	-0.675652	0.251497
H118	H	0.880018	-0.562598	0.258722
H119	H	1.232059	-0.042123	0.696103
O120	O	0.847382	0.342226	0.527773
C121	C	0.807595	0.382011	0.450185
H122	H	0.822025	0.329564	0.365823
H123	H	0.729335	0.401907	0.484397
H124	H	0.839250	0.446730	0.437597
H125	H	0.898196	0.291495	0.303939
O126	O	1.183617	0.006205	0.355459
C127	C	1.258071	-0.068170	0.315910
H128	H	1.261217	-0.109324	0.384111
H129	H	1.247174	-0.115601	0.236747
H130	H	1.326027	-0.039727	0.294892
H131	H	0.372937	0.086242	-0.185939
H132	H	0.532810	0.070119	-0.288421
