data_functionalizedCrystal
_audit_creation_method	'MofGen! by Chris Wilmer'
_symmetry_space_group_name_H-M	'P1'
_symmetry_Int_Tables_number	1
_symmetry_cell_setting	triclinic
loop_
_symmetry_equiv_pos_as_xyz
  x,y,z
_cell_length_a	6.817900
_cell_length_b	11.102188
_cell_length_c	23.752930
_cell_angle_alpha	95.114738
_cell_angle_beta	100.066047
_cell_angle_gamma	108.603875
loop_
_atom_site_label
_atom_site_type_symbol
_atom_site_fract_x
_atom_site_fract_y
_atom_site_fract_z
V1	V	-4.015144	-0.177514	-0.178393
O2	O	-3.976021	0.006806	-0.174997
O3	O	-3.992571	-0.350323	-0.177173
O4	O	-3.949892	-0.175540	-0.256196
O5	O	-4.018995	-0.169186	-0.095427
V6	V	-4.497609	-0.155378	-0.168470
O7	O	-4.278723	-0.226072	-0.200161
O8	O	-4.684227	-0.106820	-0.146702
O9	O	-4.296976	0.017430	-0.169690
O10	O	-4.654129	-0.339699	-0.171866
O11	O	-4.611154	-0.163706	-0.251436
O12	O	-4.339654	-0.157352	-0.090666
C13	C	-3.844400	-0.392426	-0.174359
C14	C	-3.907118	-0.533704	-0.173880
C15	C	-3.904721	-0.581436	-0.121259
C16	C	-3.963675	-0.714183	-0.120811
C17	C	-4.027410	-0.751457	-0.225610
C18	C	-3.968472	-0.618713	-0.226057
C19	C	-4.123217	-0.877381	-0.059084
C20	C	-4.120786	-0.925114	-0.006460
C21	C	-3.956225	-0.861402	0.041492
C22	C	-3.794046	-0.749956	0.036823
C23	C	-3.796462	-0.702229	-0.015801
C24	C	-3.961068	-0.765940	-0.063752
C25	C	-3.808909	-0.455511	-0.287781
C26	C	-3.811311	-0.407781	-0.340406
C27	C	-3.975862	-0.471492	-0.388363
C28	C	-4.138016	-0.582943	-0.383699
C29	C	-4.135615	-0.630673	-0.331074
C30	C	-3.971063	-0.566953	-0.283117
C31	C	-3.789958	-0.169472	-0.275160
C32	C	-3.818061	-0.169002	-0.338765
C33	C	-4.174934	-0.172338	-0.736089
C34	C	-4.201361	-0.171879	-0.795852
O35	O	-4.370158	-0.177015	-0.829236
N36	N	-4.032139	-0.165286	-0.822828
C37	C	-3.836472	-0.159139	-0.790038
O38	O	-3.694962	-0.153488	-0.818471
C39	C	-3.810044	-0.159589	-0.730276
C40	C	-3.979285	-0.166195	-0.703304
C41	C	-4.344160	-0.178942	-0.709117
C42	C	-4.317735	-0.179403	-0.649359
C43	C	-4.122086	-0.173260	-0.616573
C44	C	-3.952860	-0.166656	-0.643545
C45	C	-3.614375	-0.153432	-0.697486
C46	C	-3.587960	-0.153882	-0.637720
C47	C	-3.757201	-0.160488	-0.610748
C48	C	-3.730786	-0.160974	-0.551001
N49	N	-3.900008	-0.167567	-0.524025
C50	C	-4.095657	-0.173710	-0.556811
C51	C	-3.891986	-0.158193	-0.915542
C52	C	-3.918416	-0.157752	-0.975304
C53	C	-4.283303	-0.170490	-0.981114
C54	C	-4.256874	-0.170939	-0.921352
C55	C	-4.061207	-0.164785	-0.888566
C56	C	-4.040151	-0.174679	-0.431314
C57	C	-4.013711	-0.175145	-0.371551
C58	C	-3.648825	-0.162400	-0.365746
C59	C	-3.675265	-0.161941	-0.425504
C60	C	-3.870941	-0.168077	-0.458287
O61	O	-3.562049	-0.155835	-0.517580
O62	O	-4.237130	-0.179343	-0.528369
C63	C	-4.108490	0.059527	-0.172502
C64	C	-4.025009	0.200804	-0.172985
C65	C	-4.162932	-0.163424	-0.071699
C66	C	-4.114066	-0.163889	-0.008094
H67	H	-3.660039	-0.698097	0.075871
Br68	Br	-4.355677	-0.781936	-0.324745
H69	H	-4.257243	-0.929256	-0.098125
H70	H	-3.854765	-0.512225	-0.078773
Br71	Br	-4.243417	-0.184118	-0.334950
H72	H	-3.537461	-0.156576	-0.447467
H73	H	-3.674910	-0.403623	-0.248732
H74	H	-3.977790	-0.432624	-0.431214
Br75	Br	-3.688734	-0.148819	-1.011903
Br76	Br	-3.591227	-0.256531	-0.346738
Br77	Br	-4.361342	-0.669420	-0.448785
Br78	Br	-4.548835	-0.178825	-1.025620
Br79	Br	-3.322392	-0.145516	-0.593227
Br80	Br	-3.383310	-0.154071	-0.321240
H81	H	-4.252848	-1.015856	-0.002662
H82	H	-4.199486	-0.179676	-0.457999
H83	H	-4.455550	-0.184776	-0.627403
H84	H	-4.077368	-0.820686	-0.268091
H85	H	-3.664414	-0.611495	-0.019603
H86	H	-4.394688	-0.176318	-0.899395
Br87	Br	-3.952926	-0.926189	0.112909
Br88	Br	-4.609715	-0.187283	-0.753601
Br89	Br	-3.626424	-0.149856	-0.871054
H90	H	-3.476555	-0.148054	-0.719436
