data_functionalizedCrystal
_audit_creation_method	'MofGen! by Chris Wilmer'
_symmetry_space_group_name_H-M	'P1'
_symmetry_Int_Tables_number	1
_symmetry_cell_setting	triclinic
loop_
_symmetry_equiv_pos_as_xyz
  x,y,z
_cell_length_a	12.759401
_cell_length_b	18.050590
_cell_length_c	12.759393
_cell_angle_alpha	89.965321
_cell_angle_beta	89.980324
_cell_angle_gamma	90.018979
loop_
_atom_site_label
_atom_site_type_symbol
_atom_site_fract_x
_atom_site_fract_y
_atom_site_fract_z
Zn1	Zn	1.606238	-0.295615	-0.593954
Zn2	Zn	1.606117	-0.419823	-0.418261
Zn3	Zn	1.430537	-0.295652	-0.418293
Zn4	Zn	1.430517	-0.419769	-0.593903
O5	O	1.518352	-0.357715	-0.506103
O6	O	1.753243	-0.312099	-0.570656
O7	O	1.582784	-0.403390	-0.271245
O8	O	1.453903	-0.191723	-0.441630
O9	O	1.753155	-0.403354	-0.441576
O10	O	1.582990	-0.191695	-0.570687
O11	O	1.453786	-0.312162	-0.271268
O12	O	1.283513	-0.312109	-0.441580
O13	O	1.453869	-0.403261	-0.740931
O14	O	1.283499	-0.403297	-0.570599
O15	O	1.582971	-0.312046	-0.740968
O16	O	1.582765	-0.523740	-0.441526
O17	O	1.453752	-0.523700	-0.570568
C18	C	1.245385	-0.357702	-0.506088
C19	C	1.128608	-0.357714	-0.506107
C20	C	1.073793	-0.310284	-0.573423
C21	C	0.964069	-0.310291	-0.573429
C22	C	0.963985	-0.405166	-0.438802
C23	C	1.073707	-0.405155	-0.438790
C24	C	0.814158	-0.222754	-0.611207
C25	C	0.759339	-0.175330	-0.678539
C26	C	0.794999	-0.164012	-0.781079
C27	C	0.885475	-0.200128	-0.816307
C28	C	0.940289	-0.247557	-0.748980
C29	C	0.904631	-0.258862	-0.646426
C30	C	1.223620	-0.492692	-0.401024
C31	C	1.278436	-0.540126	-0.333701
C32	C	1.242778	-0.551453	-0.231160
C33	C	1.152298	-0.515350	-0.195935
C34	C	1.097483	-0.467916	-0.263258
C35	C	1.133148	-0.456588	-0.365798
C36	C	1.518272	-0.550667	-0.506061
C37	C	1.518333	-0.633213	-0.506078
C38	C	1.588636	-0.832658	-0.436003
C39	C	1.614306	-0.881983	-0.531889
C40	C	1.518393	-0.784343	-0.506120
C41	C	1.492831	-0.882100	-0.410277
C42	C	1.518452	-0.930328	-0.506152
C43	C	1.544111	-0.832581	-0.602057
C44	C	1.422592	-0.832693	-0.480380
C45	C	1.448224	-0.881996	-0.576332
C46	C	1.518361	-0.700245	-0.506100
C47	C	1.518484	-1.014425	-0.506183
C48	C	1.792386	-0.357728	-0.506118
C49	C	1.909162	-0.357734	-0.506125
C50	C	1.518431	-0.357643	-0.780136
C51	C	1.518465	-0.357613	-0.896913
C52	C	1.518462	-0.164009	-0.506168
C53	C	1.518509	-0.081463	-0.506196
C54	C	1.585693	-0.310110	-0.951796
C55	C	1.585711	-0.310078	-1.061521
C56	C	1.451269	-0.405059	-1.061468
C57	C	1.451247	-0.405086	-0.951746
C58	C	1.623331	-0.222457	-1.211507
C59	C	1.690576	-0.174960	-1.266394
C60	C	1.793089	-0.163574	-1.230802
C61	C	1.828380	-0.199695	-1.140324
C62	C	1.761141	-0.247197	-1.085442
C63	C	1.658612	-0.258570	-1.121033
C64	C	1.413637	-0.492708	-0.801758
C65	C	1.346403	-0.540215	-0.746874
C66	C	1.243887	-0.551609	-0.782465
C67	C	1.208601	-0.515501	-0.872946
C68	C	1.275835	-0.467994	-0.927830
C69	C	1.378350	-0.456599	-0.892232
C70	C	1.518335	-0.357732	-0.233135
C71	C	1.518505	-0.357553	-0.116359
H72	H	0.914496	-0.190914	-0.899810
H73	H	1.388847	-0.903523	-0.635711
H74	H	1.125125	-0.524781	-0.901927
H75	H	1.789875	-0.276609	-1.011780
H76	H	1.911861	-0.190425	-1.111357
Cl77	Cl	1.311683	-0.611094	-0.146531
H78	H	1.023808	-0.438519	-0.234569
Cl79	Cl	1.107458	-0.529595	-0.067026
H80	H	1.565676	-0.810922	-0.683194
Cl81	Cl	1.268461	-0.478449	-0.529935
H82	H	1.189149	-0.590299	-0.737774
H83	H	1.341572	-0.811024	-0.458559
H84	H	1.661833	-0.145551	-1.340061
H85	H	1.471186	-0.903850	-0.329210
H86	H	0.750358	-0.125397	-0.835901
H87	H	1.247096	-0.438594	-1.001505
Cl88	Cl	1.670191	-0.250426	-0.882867
H89	H	0.685673	-0.145925	-0.649847
H90	H	1.352120	-0.569513	-0.362384
Cl91	Cl	1.877623	-0.103865	-1.299806
H92	H	1.375146	-0.569622	-0.673207
Cl93	Cl	1.680375	-0.799207	-0.344547
Cl94	Cl	1.494445	-0.236759	-1.256250
Cl95	Cl	1.739432	-0.915397	-0.565554
H96	H	0.785123	-0.231958	-0.527707
H97	H	1.396545	-0.443711	-1.106127
Cl98	Cl	1.542507	-0.478363	-0.756985
H99	H	1.118491	-0.271652	-0.628233
H100	H	1.013957	-0.276959	-0.777660
Cl101	Cl	0.894959	-0.464805	-0.354184
