data_functionalizedCrystal
_audit_creation_method	'MofGen! by Chris Wilmer'
_symmetry_space_group_name_H-M	'P1'
_symmetry_Int_Tables_number	1
_symmetry_cell_setting	triclinic
loop_
_symmetry_equiv_pos_as_xyz
  x,y,z
_cell_length_a	8.597213
_cell_length_b	6.394989
_cell_length_c	7.681481
_cell_angle_alpha	95.906187
_cell_angle_beta	88.167023
_cell_angle_gamma	94.092837
loop_
_atom_site_label
_atom_site_type_symbol
_atom_site_fract_x
_atom_site_fract_y
_atom_site_fract_z
O1	O	2.043585	-0.372614	-0.456444
O2	O	1.593851	-0.387463	-0.388218
O3	O	1.825101	-0.076236	-0.423301
O4	O	1.812334	-0.683842	-0.421361
O5	O	1.853563	-0.037839	-0.134761
O6	O	1.622313	-0.349067	-0.099678
O7	O	2.072046	-0.334218	-0.167904
Zn8	Zn	1.851698	-0.335546	-0.087979
Zn9	Zn	1.814199	-0.386135	-0.468143
O10	O	1.840796	-0.645445	-0.132822
C11	C	1.550422	-0.364532	-0.235201
C12	C	1.378613	-0.353382	-0.209138
C13	C	2.115475	-0.357150	-0.320925
C14	C	2.287283	-0.368301	-0.347000
C15	C	1.836807	0.020886	-0.278654
C16	C	1.829092	0.257436	-0.277486
N17	N	1.877301	-0.301020	0.171471
N18	N	1.788608	-0.420645	-0.727595
H19	H	1.325358	-0.332086	-0.071167
C20	C	1.666283	-0.585592	0.189388
C21	C	1.534376	-0.515772	0.082171
C22	C	1.412049	-0.680722	-0.000859
C23	C	1.421630	-0.915492	0.023327
C24	C	1.553542	-0.985323	0.130549
C25	C	1.675869	-0.820373	0.213579
H26	H	1.527279	-0.341971	0.064262
H27	H	1.314398	-0.629027	-0.080232
H28	H	1.331076	-1.037597	-0.038136
H29	H	1.560639	-1.159124	0.148457
H30	H	1.773520	-0.872068	0.292951
C31	C	1.999632	-0.136064	0.254495
C32	C	2.019216	-0.109694	0.454291
C33	C	2.141545	0.055258	0.537315
C34	C	2.244289	0.193840	0.420543
C35	C	2.224709	0.167473	0.220735
C36	C	2.102380	0.002521	0.137711
H37	H	1.943156	-0.212284	0.540743
H38	H	2.156039	0.074775	0.685226
H39	H	2.334844	0.315947	0.482003
H40	H	2.300769	0.270064	0.134283
H41	H	2.087886	-0.016996	-0.010200
H42	H	1.340529	-0.389619	-0.484962
