data_functionalizedCrystal
_audit_creation_method	'MofGen! by Chris Wilmer'
_symmetry_space_group_name_H-M	'P1'
_symmetry_Int_Tables_number	1
_symmetry_cell_setting	triclinic
loop_
_symmetry_equiv_pos_as_xyz
  x,y,z
_cell_length_a	11.026607
_cell_length_b	17.666332
_cell_length_c	11.026607
_cell_angle_alpha	89.996802
_cell_angle_beta	71.413983
_cell_angle_gamma	90.008233
loop_
_atom_site_label
_atom_site_type_symbol
_atom_site_fract_x
_atom_site_fract_y
_atom_site_fract_z
O1	O	1.726743	0.062946	-0.533628
O2	O	1.360163	0.062948	-0.472864
O3	O	1.513071	0.062944	-0.319956
O4	O	1.573834	0.062950	-0.686536
O5	O	1.513034	-0.062952	-0.319938
O6	O	1.360126	-0.062949	-0.472846
O7	O	1.726706	-0.062950	-0.533610
Cu8	Cu	1.543413	-0.074445	-0.503226
Cu9	Cu	1.543456	0.074442	-0.503248
O10	O	1.573798	-0.062947	-0.686518
C11	C	1.312485	-0.000001	-0.461645
C12	C	1.170471	-0.000000	-0.428228
N13	N	1.543391	-0.179164	-0.503213
C14	C	1.116821	0.000002	-0.520498
C15	C	0.970043	0.000002	-0.485962
C16	C	1.611136	-0.218776	-0.435554
C17	C	1.611143	-0.298023	-0.435549
C18	C	1.543420	-0.337657	-0.503228
C19	C	1.475660	-0.298036	-0.570890
C20	C	1.475646	-0.218790	-0.570883
N21	N	1.551831	-0.462074	-0.612443
N22	N	1.551852	-0.537354	-0.612448
C23	C	1.543458	-0.576421	-0.503254
N24	N	1.535067	-0.537363	-0.394056
N25	N	1.535053	-0.462075	-0.394053
C26	C	1.543428	-0.423586	-0.503244
C27	C	1.611213	-0.701961	-0.435583
C28	C	1.611210	-0.781210	-0.435575
C29	C	1.475736	-0.781221	-0.570929
C30	C	1.475731	-0.701974	-0.570925
C31	C	1.543476	-0.662348	-0.503255
C32	C	1.774384	-0.000000	-0.544828
C33	C	1.916398	0.000004	-0.578245
C34	C	1.501843	-0.000003	-0.272287
C35	C	1.468426	-0.000000	-0.130273
N36	N	1.543485	0.179162	-0.503253
C37	C	1.585026	0.000002	-0.734187
C38	C	1.618443	0.000004	-0.876200
C39	C	1.560695	0.000001	-0.076624
C40	C	1.526160	0.000003	0.070155
H41	H	0.907314	0.000020	-0.381393
H42	H	1.666371	-0.669697	-0.380477
C43	C	1.341741	-0.226762	-0.704676
C44	C	1.401186	-0.175244	-0.645271
H45	H	1.295782	-0.199877	-0.750608
H46	H	1.284318	-0.257678	-0.641593
H47	H	1.404816	-0.257664	-0.762132
H48	H	1.338111	-0.144346	-0.587807
H49	H	1.458615	-0.144316	-0.708361
H50	H	1.179555	-0.000001	-0.625061
C51	C	1.671323	-0.419502	-0.375480
C52	C	1.685618	-0.341577	-0.361179
H53	H	1.717297	-0.446387	-0.329561
H54	H	1.703731	-0.432472	-0.463553
H55	H	1.583245	-0.432496	-0.343001
H56	H	1.773696	-0.328582	-0.393666
H57	H	1.653216	-0.328602	-0.273087
H58	H	1.420590	-0.813490	-0.626029
C59	C	1.130082	0.000032	-0.726308
C60	C	1.001066	0.000024	-0.719415
H61	H	1.182350	0.000054	-0.813459
H62	H	1.147700	-0.043875	-0.685099
H63	H	1.147696	0.043931	-0.685057
H64	H	0.983449	-0.043879	-0.760658
H65	H	0.983441	0.043935	-0.760641
C66	C	1.762627	0.064725	-0.135320
C67	C	1.701855	0.000004	-0.161304
H68	H	1.849772	0.064729	-0.187604
H69	H	1.757943	0.064719	-0.047803
H70	H	1.721390	0.108622	-0.152954
H71	H	1.743087	-0.043893	-0.143661
H72	H	1.706547	0.000004	-0.248841
H73	H	1.107738	0.000018	-0.323666
H74	H	1.421590	0.000009	0.132884
H75	H	1.420518	-0.330309	-0.625994
C76	C	1.745150	-0.773234	-0.301819
C77	C	1.685688	-0.824754	-0.361204
H78	H	1.791137	-0.800119	-0.255914
H79	H	1.682093	-0.742339	-0.244354
H80	H	1.802563	-0.742313	-0.364921
H81	H	1.628267	-0.855672	-0.298100
H82	H	1.748752	-0.855663	-0.418674
H83	H	1.363863	0.000005	-0.067540
H84	H	1.666295	-0.186515	-0.380449
H85	H	1.420572	-0.669720	-0.626025
H86	H	1.723013	0.000061	0.061072
