data_functionalizedCrystal
_audit_creation_method	'MofGen! by Chris Wilmer'
_symmetry_space_group_name_H-M	'P1'
_symmetry_Int_Tables_number	1
_symmetry_cell_setting	triclinic
loop_
_symmetry_equiv_pos_as_xyz
  x,y,z
_cell_length_a	25.639239
_cell_length_b	10.685980
_cell_length_c	10.686551
_cell_angle_alpha	81.591741
_cell_angle_beta	85.590528
_cell_angle_gamma	94.404956
loop_
_atom_site_label
_atom_site_type_symbol
_atom_site_fract_x
_atom_site_fract_y
_atom_site_fract_z
Zn1	Zn	-0.117194	1.995668	-0.866668
Zn2	Zn	-0.211916	1.979148	-0.654375
Zn3	Zn	-0.131747	1.767080	-0.638128
Zn4	Zn	-0.211866	1.783272	-0.850285
O5	O	-0.168181	1.881292	-0.752364
O6	O	-0.123690	2.171116	-0.852162
O7	O	-0.207393	1.937327	-0.474586
O8	O	-0.056645	1.797540	-0.668501
O9	O	-0.193282	2.158980	-0.696192
O10	O	-0.045954	1.965483	-0.836408
O11	O	-0.148493	1.781522	-0.462649
O12	O	-0.148444	1.591588	-0.652615
O13	O	-0.193196	1.825137	-1.030093
O14	O	-0.207307	1.603485	-0.808487
O15	O	-0.123641	1.981183	-1.042129
O16	O	-0.285081	1.953028	-0.680307
O17	O	-0.285044	1.809119	-0.824241
C18	C	-0.179449	1.551477	-0.727011
C19	C	-0.184282	1.410382	-0.716195
C20	C	-0.304033	1.881074	-0.752290
C21	C	-0.362145	1.881100	-0.752309
C22	C	-0.722495	1.956448	-0.677572
C23	C	-0.777097	1.956499	-0.677593
O24	O	-0.805333	2.020336	-0.613968
N25	N	-0.804409	1.881522	-0.752465
C26	C	-0.777116	1.806499	-0.827332
O27	O	-0.805361	1.742731	-0.891020
C28	C	-0.722514	1.806456	-0.827317
C29	C	-0.695206	1.881429	-0.752430
C30	C	-0.695187	2.031415	-0.602692
C31	C	-0.640589	2.031363	-0.602670
C32	C	-0.613299	1.956343	-0.677527
C33	C	-0.640608	1.881376	-0.752408
C34	C	-0.695221	1.731442	-0.902190
C35	C	-0.640616	1.731406	-0.902169
C36	C	-0.613308	1.806378	-0.827282
C37	C	-0.558720	1.806304	-0.827243
N38	N	-0.531408	1.881281	-0.752371
C39	C	-0.558698	1.956300	-0.677513
C40	C	-0.891783	1.806596	-0.827359
C41	C	-0.946383	1.806631	-0.827367
C42	C	-0.946361	1.956633	-0.677630
C43	C	-0.891760	1.956590	-0.677615
C44	C	-0.864471	1.881573	-0.752486
C45	C	-0.444038	1.956183	-0.677471
C46	C	-0.389435	1.956120	-0.677451
C47	C	-0.389462	1.806124	-0.827193
C48	C	-0.444060	1.806182	-0.827208
C49	C	-0.471346	1.881221	-0.752344
O50	O	-0.530450	1.742503	-0.890839
O51	O	-0.530445	2.020071	-0.613848
C52	C	-0.031796	1.881548	-0.752469
C53	C	0.026323	1.881657	-0.752514
C54	C	-0.156789	1.906809	-1.083457
C55	C	-0.151935	1.917683	-1.224549
C56	C	-0.156869	2.212396	-0.777817
C57	C	-0.152048	2.353493	-0.788663
C58	C	-0.179488	1.855948	-0.422565
C59	C	-0.184186	1.845320	-0.281492
H60	H	-0.367202	2.017171	-0.616465
C61	C	-0.976418	1.724154	-0.909735
H62	H	-0.952340	1.679479	-0.954317
H63	H	-1.001312	1.665154	-0.856900
H64	H	-0.994121	1.776961	-0.968831
C65	C	-0.226562	1.330362	-0.621194
H66	H	-0.224378	1.242847	-0.626144
H67	H	-0.221059	1.345451	-0.537580
H68	H	-0.260338	1.353410	-0.641272
H69	H	-0.120610	1.987964	-1.283744
H70	H	-0.120752	1.412728	-0.858979
H71	H	-0.466248	2.017291	-0.616512
H72	H	-0.717447	1.670385	-0.963164
C73	C	-0.861770	1.724056	-0.909706
H74	H	-0.885860	1.679406	-0.954285
H75	H	-0.836878	1.776808	-0.968783
H76	H	-0.844065	1.665013	-0.856840
H77	H	-0.618400	1.670320	-0.963142
H78	H	-0.466295	1.745138	-0.888192
H79	H	-0.367234	1.745040	-0.888138
H80	H	-0.618357	2.092415	-0.541694
H81	H	-0.717400	2.092512	-0.541734
H82	H	-0.869528	2.017640	-0.616636
C83	C	-0.976387	2.039150	-0.595283
H84	H	-1.012815	2.028439	-0.606029
H85	H	-0.971028	2.014059	-0.508553
H86	H	-0.963846	2.125866	-0.620484
H87	H	-0.215513	1.775052	-1.222305
