data_functionalizedCrystal
_audit_creation_method	'MofGen! by Chris Wilmer'
_symmetry_space_group_name_H-M	'P1'
_symmetry_Int_Tables_number	1
_symmetry_cell_setting	triclinic
loop_
_symmetry_equiv_pos_as_xyz
  x,y,z
_cell_length_a	16.992694
_cell_length_b	16.992695
_cell_length_c	7.540329
_cell_angle_alpha	90.003928
_cell_angle_beta	89.997336
_cell_angle_gamma	90.668223
loop_
_atom_site_label
_atom_site_type_symbol
_atom_site_fract_x
_atom_site_fract_y
_atom_site_fract_z
O1	O	1.050849	0.166915	0.147262
O2	O	0.822449	0.165084	0.147314
O3	O	0.935733	0.051800	0.147274
O4	O	0.937564	0.280200	0.147302
O5	O	0.935726	0.051798	-0.147691
O6	O	0.822442	0.165082	-0.147651
O7	O	1.050842	0.166913	-0.147703
Cu8	Cu	0.936641	0.165998	-0.174610
Cu9	Cu	0.936650	0.166000	0.174221
O10	O	0.937557	0.280198	-0.147663
C11	C	0.793085	0.162727	-0.000162
C12	C	0.705600	0.155699	-0.000142
C13	C	0.659610	0.223517	-0.000135
C14	C	0.577409	0.216908	-0.000161
C15	C	0.541201	0.142480	-0.000180
C16	C	0.587198	0.074657	-0.000192
C17	C	0.669397	0.081267	-0.000180
C18	C	0.295886	0.115086	-0.000231
C19	C	0.213681	0.108481	-0.000238
C20	C	0.203898	0.250732	-0.000210
C21	C	0.286099	0.257336	-0.000187
C22	C	0.332089	0.189512	-0.000208
N23	N	0.457178	0.135723	-0.000200
N24	N	0.416110	0.196270	-0.000201
C25	C	0.933374	0.022439	-0.000208
C26	C	0.926345	-0.065046	-0.000206
C27	C	0.994163	-0.111037	-0.000223
C28	C	0.987554	-0.193238	-0.000205
C29	C	0.913127	-0.229446	-0.000182
C30	C	0.845303	-0.183449	-0.000159
C31	C	0.851913	-0.101250	-0.000165
C32	C	0.885732	-0.474760	-0.000151
C33	C	0.879127	-0.556966	-0.000151
C34	C	1.021379	-0.566749	-0.000193
C35	C	1.027982	-0.484547	-0.000209
C36	C	0.960159	-0.438558	-0.000177
N37	N	0.906369	-0.313468	-0.000169
N38	N	0.966917	-0.354537	-0.000178
C39	C	1.080205	0.169270	-0.000223
C40	C	1.167690	0.176299	-0.000231
C41	C	0.939917	0.309559	-0.000178
C42	C	0.946945	0.397044	-0.000168
N43	N	0.936641	0.165996	-0.419958
N44	N	0.936656	0.165996	0.419569
H45	H	1.054770	-0.081563	-0.000253
H46	H	0.333322	0.059859	-0.000250
H47	H	0.706842	0.026042	-0.000184
H48	H	0.818517	-0.586443	-0.000161
H49	H	0.830505	-0.437325	-0.000125
H50	H	1.042779	-0.230680	-0.000223
H51	H	1.088589	-0.455073	-0.000228
H52	H	1.076596	-0.604202	-0.000216
C53	C	0.772008	-0.305109	-0.000153
C54	C	0.763490	-0.223247	-0.000140
H55	H	0.721498	-0.329675	-0.000157
H56	H	0.800145	-0.320584	0.102696
H57	H	0.800149	-0.320585	-0.103027
H58	H	0.735355	-0.207771	0.102741
H59	H	0.735342	-0.207766	-0.102999
H60	H	0.166444	0.305950	-0.000196
C61	C	0.710641	-0.099831	-0.000136
C62	C	0.777366	-0.050693	-0.000150
H63	H	0.664619	-0.068618	-0.000131
H64	H	0.711026	-0.132090	0.102717
H65	H	0.711023	-0.132100	-0.103005
H66	H	0.776987	-0.018428	0.102726
H67	H	0.776980	-0.018420	-0.103014
H68	H	0.539966	0.272133	-0.000153
C69	C	0.641675	0.363460	-0.000128
C70	C	0.699406	0.305331	-0.000119
H71	H	0.666243	0.413969	-0.000133
H72	H	0.609815	0.357925	0.102722
H73	H	0.609821	0.357915	-0.103001
H74	H	0.731256	0.310873	0.102761
H75	H	0.731279	0.310869	-0.102979
H76	H	0.184203	0.047870	-0.000252
C77	C	0.268169	0.397281	-0.000190
C78	C	0.325897	0.339149	-0.000182
H79	H	0.292740	0.447789	-0.000195
H80	H	0.236309	0.391748	0.102660
H81	H	0.236315	0.391738	-0.103063
H82	H	0.357747	0.344689	0.102697
H83	H	0.357770	0.344685	-0.103043
C84	C	0.465538	0.001362	-0.000207
C85	C	0.547399	-0.007156	-0.000210
H86	H	0.440971	-0.049148	-0.000203
H87	H	0.450064	0.029496	-0.103059
H88	H	0.450061	0.029504	0.102664
H89	H	0.562877	-0.035294	-0.103088
H90	H	0.562879	-0.035303	0.102652
