data_functionalizedCrystal
_audit_creation_method	'MofGen! by Chris Wilmer'
_symmetry_space_group_name_H-M	'P1'
_symmetry_Int_Tables_number	1
_symmetry_cell_setting	triclinic
loop_
_symmetry_equiv_pos_as_xyz
  x,y,z
_cell_length_a	18.215407
_cell_length_b	15.297327
_cell_length_c	18.215399
_cell_angle_alpha	99.648308
_cell_angle_beta	89.980167
_cell_angle_gamma	99.707397
loop_
_atom_site_label
_atom_site_type_symbol
_atom_site_fract_x
_atom_site_fract_y
_atom_site_fract_z
Zn1	Zn	1.074360	-0.359166	-0.466794
Zn2	Zn	1.052966	-0.510038	-0.365016
Zn3	Zn	0.951288	-0.359195	-0.343746
Zn4	Zn	0.929963	-0.509988	-0.488034
O5	O	1.002144	-0.434597	-0.415897
O6	O	1.174505	-0.379188	-0.453306
O7	O	1.039449	-0.490062	-0.259215
O8	O	0.985492	-0.232944	-0.342278
O9	O	1.158787	-0.490033	-0.378530
O10	O	1.075912	-0.232922	-0.432681
O11	O	0.964747	-0.379238	-0.243588
O12	O	0.845476	-0.379190	-0.362873
O13	O	0.949146	-0.489948	-0.588196
O14	O	0.829808	-0.489976	-0.468881
O15	O	1.055234	-0.379139	-0.572591
O16	O	1.018771	-0.636279	-0.399125
O17	O	0.928401	-0.636242	-0.489506
C18	C	0.810940	-0.434581	-0.415874
C19	C	0.729139	-0.434597	-0.415885
C20	C	0.532793	-0.492374	-0.471037
C21	C	0.455934	-0.492377	-0.471046
C22	C	0.472244	-0.376836	-0.360776
C23	C	0.549103	-0.376830	-0.360771
C24	C	0.579374	-0.434603	-0.415900
C25	C	0.425657	-0.434613	-0.415916
C26	C	0.342323	-0.434616	-0.415926
C27	C	0.662714	-0.434600	-0.415891
C28	C	0.968970	-0.668995	-0.448944
C29	C	0.954846	-0.769272	-0.463106
C30	C	1.103397	-1.051887	-0.314929
C31	C	1.116667	-0.957672	-0.301619
C32	C	1.076213	-0.910567	-0.341990
C33	C	1.022486	-0.957687	-0.395673
C34	C	1.009211	-1.051911	-0.408980
C35	C	0.982027	-0.910591	-0.436041
C36	C	0.928300	-0.957711	-0.489723
C37	C	0.915027	-1.051926	-0.503028
C38	C	0.955481	-1.099031	-0.462658
C39	C	0.995303	-0.816367	-0.422734
C40	C	0.901116	-0.816392	-0.516784
C41	C	0.887846	-0.910606	-0.530094
C42	C	1.194095	-0.434613	-0.415921
C43	C	1.275892	-0.434620	-0.415931
C44	C	1.002198	-0.434535	-0.607842
C45	C	1.002220	-0.434508	-0.689637
C46	C	1.035467	-0.199283	-0.382738
C47	C	1.049667	-0.099006	-0.368607
C48	C	1.057485	-0.376756	-0.869699
C49	C	1.057497	-0.376730	-0.946554
C50	C	0.947028	-0.492120	-0.962793
C51	C	0.947013	-0.492141	-0.885938
C52	C	1.002245	-0.434461	-0.839394
C53	C	1.002273	-0.434413	-0.993103
C54	C	1.002286	-0.434385	-1.076433
C55	C	1.002232	-0.434487	-0.756058
C56	C	1.002142	-0.434594	-0.224691
C57	C	1.002298	-0.434366	-0.142860
H58	H	0.418010	-0.539418	-0.515945
O59	O	0.835566	-0.956283	-0.582187
C60	C	0.706281	-0.985263	-0.621864
C61	C	0.765413	-0.933463	-0.562824
H62	H	0.649546	-0.966846	-0.606222
H63	H	0.721732	-0.966661	-0.678602
H64	H	0.703784	-1.060688	-0.624450
H65	H	0.767941	-0.858026	-0.560171
H66	H	0.749939	-0.952139	-0.506116
H67	H	0.868174	-0.778040	-0.549656
H68	H	0.902025	-0.539131	-0.861264
O69	O	0.442908	-0.320768	-0.307128
C70	C	0.425521	-0.276823	-0.175806
C71	C	0.458796	-0.340360	-0.236488
H72	H	0.438340	-0.292653	-0.118680
H73	H	0.450943	-0.204079	-0.178506
H74	H	0.362593	-0.286739	-0.185317
H75	H	0.521723	-0.330525	-0.227017
H76	H	0.433316	-0.413081	-0.233771
O77	O	0.562083	-0.548515	-0.524665
C78	C	0.537786	-0.663146	-0.634018
C79	C	0.504522	-0.599599	-0.573334
H80	H	0.491262	-0.704477	-0.673373
H81	H	0.579611	-0.621823	-0.666772
H82	H	0.567113	-0.710228	-0.606795
H83	H	0.475157	-0.552504	-0.600495
H84	H	0.462735	-0.640978	-0.540585
O85	O	0.594420	-0.320834	-0.307188
C86	C	0.682864	-0.308543	-0.206081
C87	C	0.631587	-0.372057	-0.266736
H88	H	0.712916	-0.349931	-0.173349
H89	H	0.725575	-0.261434	-0.233248
H90	H	0.648015	-0.267237	-0.166707
H91	H	0.666375	-0.413421	-0.306129
H92	H	0.588873	-0.419106	-0.239519
H93	H	1.102478	-0.329740	-0.971224
O94	O	1.089222	-0.819048	-0.328996
C95	C	1.159920	-0.683828	-0.258266
C96	C	1.145269	-0.787478	-0.272918
H97	H	1.205223	-0.658273	-0.212915
H98	H	1.178826	-0.658142	-0.311621
H99	H	1.106510	-0.658336	-0.239380
H100	H	1.198650	-0.813046	-0.291783
H101	H	1.126330	-0.813103	-0.219547
H102	H	1.039047	-0.778011	-0.379024
H103	H	1.102457	-0.329786	-0.831804
O104	O	1.168908	-0.912042	-0.249477
C105	C	1.260900	-0.921967	-0.157571
C106	C	1.201766	-0.973755	-0.216613
H107	H	1.287472	-0.971839	-0.130972
H108	H	1.305630	-0.877816	-0.185125
H109	H	1.233333	-0.877895	-0.112866
H110	H	1.229267	-1.017876	-0.261335
H111	H	1.157042	-1.017849	-0.189005
O112	O	0.893290	-0.548059	-1.007961
C113	C	0.761909	-0.591884	-1.037593
C114	C	0.822692	-0.528459	-0.986400
H115	H	0.704816	-0.576073	-1.020170
H116	H	0.771344	-0.581958	-1.097738
H117	H	0.764571	-0.664628	-1.032738
H118	H	0.820066	-0.455691	-0.991190
H119	H	0.813236	-0.538463	-0.926276
H120	H	1.136324	-1.090248	-0.282060
H121	H	0.944681	-1.175748	-0.473493
H122	H	0.871270	-1.090288	-0.546732
