data_functionalizedCrystal
_audit_creation_method	'MofGen! by Chris Wilmer'
_symmetry_space_group_name_H-M	'P1'
_symmetry_Int_Tables_number	1
_symmetry_cell_setting	triclinic
loop_
_symmetry_equiv_pos_as_xyz
  x,y,z
_cell_length_a	14.395555
_cell_length_b	14.395555
_cell_length_c	14.560438
_cell_angle_alpha	59.999572
_cell_angle_beta	89.999517
_cell_angle_gamma	59.998876
loop_
_atom_site_label
_atom_site_type_symbol
_atom_site_fract_x
_atom_site_fract_y
_atom_site_fract_z
Zr1	Zr	0.894817	1.016876	-0.120557
O2	O	0.746482	1.210675	-0.267205
O3	O	0.940297	0.823073	-0.075601
O4	O	0.940286	1.016880	-0.267207
O5	O	0.746494	1.016865	0.075543
O6	O	1.093153	1.016887	-0.267211
O7	O	0.746493	1.016868	-0.075598
O8	O	1.093173	0.670202	0.075538
O9	O	0.746474	1.363551	-0.267206
O10	O	1.073768	0.902793	-0.056432
O11	O	0.959685	0.902786	0.056366
O12	O	0.959672	1.130969	-0.169226
O13	O	0.845589	1.130962	-0.056429
Zr14	Zr	1.138623	1.016882	0.120489
Zr15	Zr	1.138623	1.016887	-0.120563
Zr16	Zr	0.894817	1.016871	0.120495
Zr17	Zr	0.894804	1.260695	-0.120560
Zr18	Zr	1.138637	0.773063	0.120492
O19	O	1.093143	1.210685	0.075532
O20	O	1.093143	1.210691	-0.267213
O21	O	0.746483	1.210669	0.075541
O22	O	1.286958	0.823083	0.267136
O23	O	1.286957	0.823089	-0.075609
O24	O	0.940298	0.823067	0.267144
O25	O	1.286946	1.016893	-0.075611
O26	O	1.093154	1.016878	0.267139
O27	O	0.940287	1.016871	0.267142
O28	O	1.286947	1.016890	0.075530
O29	O	0.940267	1.363560	-0.267211
O30	O	1.093173	0.670198	0.267142
O31	O	1.286966	0.670207	0.267138
O32	O	1.286966	0.670210	0.075534
O33	O	0.746474	1.363547	-0.075602
O34	O	0.940267	1.363556	-0.075606
O35	O	1.073768	0.902789	0.169158
O36	O	1.187851	0.902796	0.056360
O37	O	1.073755	1.130972	-0.056434
O38	O	0.959672	1.130965	0.056363
C39	C	1.016737	0.711898	-0.000031
C40	C	1.016743	0.608391	-0.000030
C41	C	0.711757	1.016865	-0.000027
C42	C	0.608255	1.016861	-0.000025
C43	C	1.078935	0.547816	-0.061542
C44	C	1.124015	0.409708	0.044513
C45	C	0.971669	0.562065	-0.106074
C46	C	1.061886	0.471582	0.106088
C47	C	0.909480	0.624013	-0.044575
C48	C	0.954533	0.485914	0.061543
C49	C	0.609876	0.892449	0.061474
C50	C	0.516857	0.954641	0.106049
C51	C	0.516845	0.954673	-0.044568
C52	C	0.516599	1.079053	0.044613
C53	C	0.516601	1.079068	-0.106063
C54	C	0.423565	1.141351	-0.061514
C55	C	1.321684	1.016893	-0.000041
C56	C	1.425185	1.016897	-0.000044
C57	C	1.016720	1.016884	-0.301554
C58	C	1.016719	1.016886	-0.403887
C59	C	1.016703	1.321859	-0.000037
C60	C	1.016697	1.425367	-0.000038
C61	C	1.100935	1.016891	-0.451965
C62	C	1.100938	1.016879	-0.548111
C63	C	0.932501	1.016863	-0.548095
C64	C	0.932503	1.016865	-0.451946
C65	C	1.016721	1.016874	0.301485
C66	C	1.016721	1.016872	0.403818
C67	C	1.321701	0.711912	-0.000038
C68	C	1.425208	0.608409	-0.000039
C69	C	1.016737	0.711893	0.301489
C70	C	1.016743	0.608384	0.403823
C71	C	1.321701	0.711907	0.301481
C72	C	1.425209	0.608402	0.403813
C73	C	0.711739	1.321851	-0.301550
C74	C	0.608231	1.425356	-0.403881
C75	C	0.711740	1.321846	-0.000030
C76	C	0.608232	1.425349	-0.000029
C77	C	1.016703	1.321865	-0.301557
C78	C	1.016697	1.425374	-0.403891
C79	C	1.414289	0.559779	-0.058914
C80	C	1.511549	0.462535	-0.058919
C81	C	1.630645	0.462556	0.058834
C82	C	1.533385	0.559805	0.058831
C83	C	1.076295	0.559754	0.510776
C84	C	1.076288	0.462505	0.606926
C85	C	0.957175	0.462520	0.489156
C86	C	0.957176	0.559774	0.393008
C87	C	1.533387	0.559777	0.393013
C88	C	1.630640	0.462532	0.489168
C89	C	1.511522	0.462542	0.606921
C90	C	1.414272	0.559792	0.510767
H91	H	1.131611	0.574901	-0.113471
H92	H	0.863923	1.016857	-0.412796
N93	N	0.517848	1.144958	-0.218516
N94	N	0.597713	1.156314	-0.236536
H95	H	0.598601	1.202839	-0.315958
N96	N	1.741143	0.412877	0.118995
N97	N	1.770151	0.358613	0.222809
H98	H	1.848191	0.323524	0.265304
H99	H	1.169515	1.016881	-0.587252
N100	N	1.237777	0.294751	0.091764
N101	N	1.255871	0.195960	0.100077
H102	H	1.336216	0.114775	0.133440
H103	H	1.542285	0.599404	0.106774
N104	N	0.896341	0.609475	0.283740
N105	N	0.817929	0.728874	0.216954
H106	H	0.774963	0.763981	0.139783
N107	N	1.500353	0.412857	0.716169
N108	N	1.449617	0.358590	0.744847
H109	H	1.441726	0.323497	0.822004
N110	N	1.186974	1.016841	-0.402806
N111	N	1.251785	0.924713	-0.303615
H112	H	1.312555	0.924660	-0.268877
N113	N	1.137146	0.609393	0.521839
N114	N	1.190313	0.565957	0.617345
H115	H	1.233291	0.601013	0.625164
N116	N	1.109812	0.424686	0.218635
N117	N	1.117602	0.497119	0.236798
H118	H	1.151452	0.464001	0.316282
N119	N	1.303781	0.609444	-0.119039
N120	N	1.236229	0.598577	-0.067785
H121	H	1.158181	0.633654	-0.110251
N122	N	0.515707	0.888668	0.218539
N123	N	0.594529	0.770660	0.290293
H124	H	0.593724	0.724057	0.369741
H125	H	1.124779	0.422917	0.694008
H126	H	0.863932	1.016849	-0.587236
H127	H	0.908680	0.422928	0.480364
N128	N	1.544576	0.609415	0.283773
N129	N	1.641175	0.565983	0.274150
H130	H	1.649083	0.601037	0.197000
N131	N	1.741132	0.412884	0.478115
N132	N	1.750874	0.456307	0.382614
H133	H	1.828912	0.421246	0.374803
N134	N	1.500375	0.412882	-0.119071
N135	N	1.403781	0.456300	-0.171631
H136	H	1.395884	0.421236	-0.214119
H137	H	0.517422	1.131596	0.082380
H138	H	0.818807	0.715663	-0.082278
N139	N	1.303747	0.609485	0.521767
N140	N	1.236182	0.728885	0.481234
H141	H	1.158123	0.763984	0.488995
N142	N	0.888553	0.452000	0.126894
N143	N	0.916263	0.406567	0.228957
H144	H	0.869670	0.382607	0.275116
N145	N	0.323670	1.273434	-0.126748
N146	N	0.305957	1.348960	-0.099360
H147	H	0.235406	1.442244	-0.145427
N148	N	0.923874	0.608714	-0.218564
N149	N	0.981768	0.549453	-0.259073
H150	H	0.948021	0.582394	-0.338520
N151	N	0.515712	0.888670	-0.091805
N152	N	0.594542	0.770660	-0.046866
H153	H	0.593748	0.724034	-0.080218
H154	H	0.689637	0.787248	0.113551
