data_functionalizedCrystal
_audit_creation_method	'MofGen! by Chris Wilmer'
_symmetry_space_group_name_H-M	'P1'
_symmetry_Int_Tables_number	1
_symmetry_cell_setting	triclinic
loop_
_symmetry_equiv_pos_as_xyz
  x,y,z
_cell_length_a	12.594517
_cell_length_b	12.594516
_cell_length_c	18.215407
_cell_angle_alpha	90.006371
_cell_angle_beta	90.000553
_cell_angle_gamma	90.011939
loop_
_atom_site_label
_atom_site_type_symbol
_atom_site_fract_x
_atom_site_fract_y
_atom_site_fract_z
Zn1	Zn	1.627152	-0.424035	0.415955
Zn2	Zn	1.627077	-0.601984	0.292902
Zn3	Zn	1.449190	-0.424007	0.292924
Zn4	Zn	1.449138	-0.601959	0.415947
O5	O	1.538139	-0.512996	0.354432
O6	O	1.776088	-0.447663	0.399626
O7	O	1.603470	-0.578373	0.189920
O8	O	1.472850	-0.275065	0.309257
O9	O	1.776033	-0.578401	0.309219
O10	O	1.603598	-0.275086	0.399647
O11	O	1.472777	-0.447614	0.189936
O12	O	1.300237	-0.447591	0.309249
O13	O	1.472762	-0.578359	0.518933
O14	O	1.300199	-0.578331	0.399634
O15	O	1.603548	-0.447639	0.518939
O16	O	1.603420	-0.750926	0.309211
O17	O	1.472689	-0.750908	0.399613
C18	C	1.261598	-0.512956	0.354443
C19	C	1.143293	-0.512965	0.354465
C20	C	1.074050	-0.584214	0.403531
C21	C	1.003236	-0.487177	0.421629
C22	C	1.003307	-0.610082	0.336351
C23	C	1.074038	-0.415876	0.372598
C24	C	1.074115	-0.538846	0.287290
C25	C	1.003333	-0.441742	0.305362
C26	C	1.538070	-0.789537	0.354425
C27	C	1.538137	-0.907843	0.354446
C28	C	1.467026	-0.977125	0.403581
C29	C	1.441111	-1.047955	0.336431
C30	C	1.564149	-1.047812	0.421608
C31	C	1.512171	-0.977114	0.287261
C32	C	1.635254	-0.976965	0.372483
C33	C	1.609376	-1.047763	0.305287
C34	C	1.815760	-0.513037	0.354421
C35	C	1.934066	-0.513055	0.354417
C36	C	1.538158	-0.512999	0.546385
C37	C	1.538165	-0.513000	0.628184
C38	C	1.538238	-0.235375	0.354455
C39	C	1.538281	-0.117070	0.354465
C40	C	1.606245	-0.444946	0.816382
C41	C	1.606239	-0.444945	0.893241
C42	C	1.470052	-0.581071	0.893223
C43	C	1.470053	-0.581065	0.816366
C44	C	1.538156	-0.513004	0.777947
C45	C	1.538148	-0.513009	0.931663
C46	C	1.538141	-0.513009	1.014997
C47	C	1.538161	-0.513002	0.694608
C48	C	1.538121	-0.513016	1.163226
C49	C	1.538138	-0.513013	1.081427
H50	H	1.105104	-0.644350	0.445077
O51	O	1.404006	-0.647153	0.930658
C52	C	1.343602	-0.707448	1.049053
C53	C	1.418470	-0.632571	1.006752
H54	H	1.355254	-0.695668	1.110582
H55	H	1.362266	-0.793298	1.033987
H56	H	1.257795	-0.688756	1.033899
H57	H	1.504302	-0.651166	1.021884
H58	H	1.399714	-0.546743	1.021823
O59	O	1.485727	-0.940358	0.219486
C60	C	1.353854	-0.935567	0.123698
C61	C	1.383681	-0.977287	0.200448
H62	H	1.271340	-0.965388	0.108289
H63	H	1.414088	-0.965297	0.081748
H64	H	1.354029	-0.845053	0.124261
H65	H	1.383495	-1.067797	0.199957
H66	H	1.323440	-0.947475	0.242365
H67	H	0.972233	-0.692174	0.321053
H68	H	1.414599	-0.636486	0.785072
O69	O	0.966262	-0.461130	0.489425
C70	C	1.010569	-0.414121	0.613950
C71	C	1.052582	-0.443617	0.537210
H72	H	1.080337	-0.399932	0.652602
H73	H	0.959537	-0.481719	0.636042
H74	H	0.960716	-0.338797	0.610001
H75	H	1.102480	-0.518914	0.541097
H76	H	1.103556	-0.375958	0.515146
H77	H	1.661682	-0.389523	0.924531
O78	O	1.733081	-0.939554	0.390653
C79	C	1.842764	-0.785389	0.410419
C80	C	1.731931	-0.827615	0.389804
H81	H	1.841864	-0.694882	0.409755
H82	H	1.903692	-0.815596	0.369116
H83	H	1.864769	-0.814441	0.467704
H84	H	1.709826	-0.798581	0.332536
H85	H	1.671067	-0.797416	0.431155
O86	O	1.681072	-1.084494	0.255572
C87	C	1.734736	-1.089896	0.128650
C88	C	1.653459	-1.048246	0.184872
H89	H	1.712453	-1.060589	0.071479
H90	H	1.734766	-1.180410	0.129296
H91	H	1.817216	-1.059462	0.143568
H92	H	1.570940	-1.078602	0.169994
H93	H	1.653523	-0.957734	0.184216
O94	O	1.395082	-0.940290	0.453088
C95	C	1.262680	-0.984846	0.543481
C96	C	1.344101	-1.026705	0.487432
H97	H	1.221456	-1.054691	0.571275
H98	H	1.201137	-0.933900	0.514074
H99	H	1.305234	-0.934942	0.586626
H100	H	1.301640	-1.076653	0.444272
H101	H	1.405640	-1.077593	0.516891
O102	O	1.110760	-0.317837	0.390916
C103	C	1.065996	-0.138288	0.424527
C104	C	1.024263	-0.249254	0.403773
H105	H	0.996084	-0.082814	0.434943
H106	H	1.116414	-0.105612	0.377714
H107	H	1.116398	-0.144313	0.476345
H108	H	0.973816	-0.243320	0.351974
H109	H	0.973903	-0.281889	0.450629
O110	O	0.966332	-0.369908	0.255848
C111	C	0.812622	-0.289804	0.199862
C112	C	0.854387	-0.371216	0.255942
H113	H	0.722110	-0.290819	0.199931
H114	H	0.842948	-0.311109	0.142762
H115	H	0.841900	-0.207151	0.215416
H116	H	0.825126	-0.453898	0.240456
H117	H	0.824069	-0.349820	0.313027
O118	O	1.111242	-0.565138	0.219584
C119	C	1.115713	-0.696378	0.123364
C120	C	1.073611	-0.666733	0.200053
H121	H	1.085287	-0.778509	0.107544
H122	H	1.206222	-0.696955	0.124184
H123	H	1.086738	-0.635569	0.081566
H124	H	1.102507	-0.727512	0.241894
H125	H	0.983104	-0.666121	0.199173
H126	H	1.359048	-1.079160	0.321191
H127	H	1.586092	-1.078866	0.478398
O128	O	1.672423	-0.378727	0.779175
C129	C	1.807540	-0.243748	0.787308
C130	C	1.732631	-0.318673	0.829533
H131	H	1.856253	-0.195191	0.828004
H132	H	1.758741	-0.188015	0.751351
H133	H	1.863137	-0.292632	0.751301
H134	H	1.677019	-0.269875	0.865580
H135	H	1.781495	-0.374409	0.865444
