data_functionalizedCrystal
_audit_creation_method	'MofGen! by Chris Wilmer'
_symmetry_space_group_name_H-M	'P1'
_symmetry_Int_Tables_number	1
_symmetry_cell_setting	triclinic
loop_
_symmetry_equiv_pos_as_xyz
  x,y,z
_cell_length_a	22.010155
_cell_length_b	11.792241
_cell_length_c	11.792254
_cell_angle_alpha	95.803993
_cell_angle_beta	89.995888
_cell_angle_gamma	89.995687
loop_
_atom_site_label
_atom_site_type_symbol
_atom_site_fract_x
_atom_site_fract_y
_atom_site_fract_z
O1	O	0.050466	-1.506924	0.155551
O2	O	0.050481	-1.176584	0.171584
O3	O	0.050469	-1.349763	-0.001602
O4	O	0.050478	-1.333745	0.328737
O5	O	-0.050581	-1.349731	-0.001576
O6	O	-0.050570	-1.176552	0.171610
O7	O	-0.050584	-1.506893	0.155577
Cu8	Cu	-0.059804	-1.341719	0.163596
Cu9	Cu	0.059700	-1.341757	0.163565
O10	O	-0.050572	-1.333713	0.328763
C11	C	-0.000043	-1.134277	0.170590
C12	C	-0.000037	-1.008263	0.167576
N13	N	-0.143856	-1.341702	0.163617
C14	C	-0.000056	-1.348738	-0.043880
C15	C	-0.000055	-1.345718	-0.169893
C16	C	-0.563641	-1.418445	0.086890
C17	C	-0.627248	-1.418450	0.086882
O18	O	-0.660144	-1.483655	0.021660
N19	N	-0.659063	-1.341756	0.163542
C20	C	-0.627267	-1.265044	0.240206
O21	O	-0.660169	-1.199809	0.305410
C22	C	-0.563661	-1.265034	0.240208
C23	C	-0.531849	-1.341741	0.163551
C24	C	-0.531829	-1.495145	0.010238
C25	C	-0.468226	-1.495141	0.010247
C26	C	-0.436434	-1.418437	0.086909
C27	C	-0.468246	-1.341737	0.163560
C28	C	-0.531866	-1.188317	0.316866
C29	C	-0.468255	-1.188313	0.316860
C30	C	-0.436443	-1.265020	0.240203
C31	C	-0.372851	-1.265029	0.240231
N32	N	-0.341036	-1.341723	0.163571
C33	C	-0.372828	-1.418427	0.086910
C34	C	-0.760845	-1.265069	0.240196
C35	C	-0.824450	-1.265083	0.240201
C36	C	-0.824427	-1.418488	0.086875
C37	C	-0.760820	-1.418479	0.086876
C38	C	-0.729030	-1.341763	0.163536
C39	C	-0.239256	-1.418413	0.086936
C40	C	-0.175648	-1.418406	0.086956
C41	C	-0.175676	-1.264997	0.240277
C42	C	-0.239280	-1.265008	0.240263
C43	C	-0.271068	-1.341721	0.163582
O44	O	-0.339915	-1.199854	0.305416
O45	O	-0.339918	-1.483641	0.021707
N46	N	0.143753	-1.341784	0.163535
C47	C	-0.000059	-1.549199	0.156571
C48	C	-0.000061	-1.675213	0.159586
C49	C	-0.000055	-0.777551	0.162033
C50	C	-0.000045	-0.905936	0.165112
C51	C	-0.000053	-1.343264	-0.272229
C52	C	-0.000047	-1.340196	-0.400616
C53	C	-0.000046	-1.334738	0.371041
C54	C	-0.000043	-1.337758	0.497054
H55	H	-0.265131	-1.480878	0.024495
H56	H	-0.850347	-1.202633	0.302634
H57	H	-0.442374	-1.125838	0.379285
C58	C	-0.726299	-1.181655	0.323266
C59	C	-0.689795	-1.111771	0.262355
C60	C	-0.657973	-1.034909	0.338839
H61	H	-0.701438	-1.222638	0.370821
H62	H	-0.754341	-1.135921	0.368903
H63	H	-0.661757	-1.157499	0.216738
H64	H	-0.714642	-1.070763	0.214804
H65	H	-0.686015	-0.989175	0.384475
H66	H	-0.633115	-1.075902	0.386390
H67	H	-0.633206	-0.987477	0.297522
C68	C	-0.273712	-1.181598	0.323536
C69	C	-0.232253	-1.114406	0.390655
C70	C	-0.263944	-1.037534	0.467358
H71	H	-0.298535	-1.222571	0.371166
H72	H	-0.298505	-1.134041	0.282400
H73	H	-0.207470	-1.161956	0.431788
H74	H	-0.207429	-1.073408	0.343056
H75	H	-0.288738	-0.989977	0.426221
H76	H	-0.288766	-1.078516	0.514980
H77	H	-0.235819	-0.991927	0.512900
H78	H	-0.149782	-1.202548	0.302697
H79	H	-0.850323	-1.480944	0.024452
H80	H	-0.557758	-1.125855	0.379286
H81	H	-0.149748	-1.480874	0.024532
H82	H	-0.442328	-1.557599	-0.052176
H83	H	-0.557708	-1.557607	-0.052194
H84	H	-0.734923	-1.480939	0.024455
