data_functionalizedCrystal
_audit_creation_method	'MofGen! by Chris Wilmer'
_symmetry_space_group_name_H-M	'P1'
_symmetry_Int_Tables_number	1
_symmetry_cell_setting	triclinic
loop_
_symmetry_equiv_pos_as_xyz
  x,y,z
_cell_length_a	18.101398
_cell_length_b	18.101397
_cell_length_c	18.101380
_cell_angle_alpha	90.087478
_cell_angle_beta	89.934607
_cell_angle_gamma	89.981008
loop_
_atom_site_label
_atom_site_type_symbol
_atom_site_fract_x
_atom_site_fract_y
_atom_site_fract_z
Zn1	Zn	1.132459	0.294522	-0.418821
Zn2	Zn	1.132282	0.418489	-0.294971
Zn3	Zn	1.008529	0.294656	-0.294982
Zn4	Zn	1.008585	0.418316	-0.418760
O5	O	1.070464	0.356496	-0.356884
O6	O	1.236069	0.310983	-0.402413
O7	O	1.115769	0.402191	-0.191340
O8	O	1.025020	0.191005	-0.311439
O9	O	1.235939	0.402061	-0.311421
O10	O	1.116071	0.190907	-0.402423
O11	O	1.024848	0.311211	-0.191347
O12	O	0.904904	0.311043	-0.311380
O13	O	1.025114	0.401766	-0.522402
O14	O	0.904945	0.401896	-0.402320
O15	O	1.116124	0.310815	-0.522446
O16	O	1.115823	0.522099	-0.311362
O17	O	1.024943	0.521972	-0.402310
C18	C	1.070390	0.548907	-0.356844
C19	C	1.070426	0.631221	-0.356852
C20	C	0.878053	0.356466	-0.356845
C21	C	0.795739	0.356471	-0.356846
C22	C	1.070460	0.781929	-0.356868
C23	C	1.127694	0.813332	-0.299700
C24	C	1.127545	0.898950	-0.299484
C25	C	1.070495	0.930312	-0.356883
C26	C	0.992381	0.899309	-0.335871
C27	C	0.992691	0.813665	-0.335447
C28	C	1.090666	0.813349	-0.435195
C29	C	1.092408	0.898999	-0.434787
C30	C	1.070511	1.014171	-0.356893
C31	C	1.070440	0.698070	-0.356856
C32	C	0.496648	0.356517	-0.356908
C33	C	0.527923	0.299069	-0.299971
C34	C	0.613541	0.299223	-0.299728
C35	C	0.645031	0.356494	-0.356877
C36	C	0.613908	0.434526	-0.335548
C37	C	0.528262	0.434207	-0.335152
C38	C	0.528317	0.336611	-0.435309
C39	C	0.613967	0.334874	-0.434881
C40	C	0.728890	0.356485	-0.356861
C41	C	0.412789	0.356531	-0.356923
C42	C	1.263626	0.356527	-0.356923
C43	C	1.345940	0.356540	-0.356940
C44	C	1.070645	0.356257	-0.550046
C45	C	1.070723	0.356155	-0.632360
C46	C	1.070541	1.163334	-0.356923
C47	C	1.070530	1.081020	-0.356899
C48	C	1.070326	0.356681	-0.164473
C49	C	1.070392	0.356574	-0.082159
C50	C	1.070612	0.356295	0.216931
C51	C	1.012779	0.299697	0.185559
C52	C	1.012882	0.299551	0.099940
C53	C	1.070502	0.356434	0.068549
C54	C	1.148414	0.334659	0.099430
C55	C	1.148142	0.334167	0.185075
C56	C	1.051195	0.434835	0.185602
C57	C	1.049405	0.434514	0.099954
C58	C	1.070445	0.356513	-0.015310
C59	C	1.070675	0.356214	0.300791
H60	H	1.185461	0.919911	-0.312610
H61	H	1.192615	0.374622	0.079093
F62	F	0.499693	0.316071	-0.224481
H63	H	1.192680	0.373556	0.205822
F64	F	0.641989	0.385574	-0.493304
F65	F	0.501887	0.391301	-0.490761
F66	F	1.170354	0.260468	0.071165
H67	H	0.955094	0.313248	0.079068
F68	F	1.110400	0.785342	-0.224272
F69	F	1.029316	0.224086	0.213458
H70	H	0.633955	0.312389	-0.241634
F71	F	0.974470	0.455963	0.073593
F72	F	1.110049	0.925875	-0.223632
H73	H	0.954838	0.313202	0.206298
F74	F	1.167544	0.925482	-0.455507
F75	F	1.163848	0.785040	-0.460224
F76	F	1.203619	0.786341	-0.316656
F77	F	1.029754	0.223597	0.072931
H78	H	0.507574	0.478463	-0.374814
H79	H	0.948582	0.919621	-0.376233
H80	H	0.975600	0.793797	-0.278197
F81	F	1.100460	0.492702	0.072042
F82	F	0.641845	0.456961	-0.261441
F83	F	1.169726	0.259108	0.210955
H84	H	1.053794	0.920338	-0.479652
F85	F	0.969666	0.927483	-0.261867
F86	F	0.978293	0.460536	0.214040
H87	H	1.093323	0.477014	0.205896
F88	F	0.935036	0.786510	-0.387515
H89	H	0.634315	0.277451	-0.450964
H90	H	1.048986	0.793031	-0.477788
H91	H	0.508211	0.451079	-0.277837
H92	H	0.634584	0.241361	-0.313098
H93	H	0.507355	0.241030	-0.313194
F94	F	0.640562	0.491977	-0.388060
F95	F	0.500132	0.263525	-0.460655
