data_functionalizedCrystal
_audit_creation_method	'MofGen! by Chris Wilmer'
_symmetry_space_group_name_H-M	'P1'
_symmetry_Int_Tables_number	1
_symmetry_cell_setting	triclinic
loop_
_symmetry_equiv_pos_as_xyz
  x,y,z
_cell_length_a	16.974800
_cell_length_b	10.723024
_cell_length_c	15.455313
_cell_angle_alpha	92.691723
_cell_angle_beta	90.973911
_cell_angle_gamma	83.927745
loop_
_atom_site_label
_atom_site_type_symbol
_atom_site_fract_x
_atom_site_fract_y
_atom_site_fract_z
O1	O	1.049934	0.159071	0.001601
O2	O	1.383268	0.492404	0.334935
O3	O	1.716601	0.825737	0.668268
O4	O	0.820605	0.178127	-0.014504
O5	O	1.153938	0.511460	0.318829
O6	O	1.487271	0.844794	0.652162
O7	O	0.940559	-0.013030	-0.006077
O8	O	1.273893	0.320303	0.327256
O9	O	1.607226	0.653636	0.660590
O10	O	0.929980	0.350228	-0.006826
O11	O	1.263313	0.683561	0.326507
O12	O	1.596647	1.016895	0.659840
O13	O	0.933699	-0.002144	0.137703
O14	O	1.267033	0.331189	0.471037
O15	O	1.600366	0.664523	0.804370
O16	O	0.813745	0.189013	0.129276
O17	O	1.147078	0.522347	0.462609
O18	O	1.480412	0.855680	0.795942
O19	O	1.043075	0.169957	0.145381
O20	O	1.376408	0.503290	0.478715
O21	O	1.709741	0.836623	0.812048
Cu22	Cu	0.927783	0.180479	0.150457
Cu23	Cu	1.261117	0.513812	0.483790
Cu24	Cu	1.594450	0.847146	0.817124
Cu25	Cu	0.935896	0.167605	-0.019580
Cu26	Cu	1.269229	0.500938	0.313753
Cu27	Cu	1.602563	0.834271	0.647087
O28	O	0.923120	0.361114	0.136954
O29	O	1.256453	0.694447	0.470287
O30	O	1.589787	1.027781	0.803621
C31	C	0.787810	0.182646	0.055323
C32	C	1.121144	0.515979	0.388657
C33	C	1.454477	0.849313	0.721990
C34	C	0.700314	0.179877	0.049178
C35	C	1.033647	0.513210	0.382512
C36	C	1.366981	0.846544	0.715845
C37	C	0.655473	0.184507	0.124668
C38	C	0.988807	0.517840	0.458001
C39	C	1.322140	0.851174	0.791335
C40	C	0.573262	0.181886	0.118897
C41	C	0.906596	0.515219	0.452230
C42	C	1.239929	0.848552	0.785564
C43	C	0.535893	0.174643	0.037635
C44	C	0.869226	0.507976	0.370968
C45	C	1.202560	0.841310	0.704302
C46	C	0.580740	0.170009	-0.037860
C47	C	0.914073	0.503342	0.295473
C48	C	1.247407	0.836675	0.628806
C49	C	0.662950	0.172621	-0.032088
C50	C	0.996283	0.505954	0.301245
C51	C	1.329617	0.839288	0.634579
C52	C	0.290423	0.166185	0.011968
C53	C	0.623756	0.499518	0.345301
C54	C	0.957089	0.832851	0.678634
C55	C	0.208206	0.163576	0.006201
C56	C	0.541540	0.496909	0.339535
C57	C	0.874873	0.830243	0.672868
C58	C	0.200735	0.175451	0.162959
C59	C	0.534068	0.508784	0.496292
C60	C	0.867401	0.842118	0.829626
C61	C	0.282946	0.178071	0.168724
C62	C	0.616279	0.511404	0.502057
C63	C	0.949613	0.844737	0.835391
C64	C	0.327786	0.173429	0.093229
C65	C	0.661120	0.506763	0.426562
C66	C	0.994453	0.840096	0.759895
N67	N	0.451860	0.171967	0.031734
N68	N	0.785193	0.505300	0.365067
N69	N	1.118527	0.838634	0.698401
N70	N	0.411818	0.176096	0.099131
N71	N	0.745152	0.509430	0.432464
N72	N	1.078485	0.842763	0.765797
C73	C	0.936359	-0.054079	0.065758
C74	C	1.269693	0.279254	0.399091
C75	C	1.603026	0.612588	0.732425
C76	C	0.934056	-0.192611	0.065593
C77	C	1.267389	0.140723	0.398927
C78	C	1.600723	0.474056	0.732260
C79	C	1.001176	-0.268267	0.070306
C80	C	1.334510	0.065066	0.403639
C81	C	1.667843	0.398399	0.736973
C82	C	0.998797	-0.411447	0.070136
C83	C	1.332131	-0.078114	0.403469
C84	C	1.665464	0.255220	0.736802
C85	C	1.075869	0.165438	0.075552
C86	C	1.409202	0.498771	0.408885
C87	C	1.742536	0.832104	0.742218
C88	C	1.163366	0.168206	0.081691
C89	C	1.496699	0.501540	0.415024
C90	C	1.830032	0.834873	0.748358
C91	C	0.927320	0.402163	0.065117
C92	C	1.260653	0.735496	0.398450
C93	C	1.593987	1.068829	0.731784
C94	C	0.929624	0.540694	0.065276
C95	C	1.262957	0.874027	0.398609
C96	C	1.596290	1.207360	0.731943
N97	N	0.922083	0.189533	0.270052
N98	N	1.255417	0.522866	0.603385
N99	N	1.588750	0.856200	0.936719
N100	N	0.941602	0.158541	-0.139174
N101	N	1.274936	0.491874	0.194159
N102	N	1.608269	0.825207	0.527492
C103	C	0.973062	0.108353	0.319028
C104	C	1.306395	0.441686	0.652361
C105	C	1.639729	0.775019	0.985694
C106	C	0.968759	0.115212	0.409533
C107	C	1.302092	0.448545	0.742867
C108	C	1.635425	0.781878	1.076200
C109	C	0.913480	0.203258	0.451062
C110	C	1.246813	0.536591	0.784395
C111	C	1.580146	0.869924	1.117728
C112	C	0.862495	0.284442	0.402079
C113	C	1.195829	0.617775	0.735412
C114	C	1.529162	0.951108	1.068746
C115	C	0.866795	0.277576	0.311575
C116	C	1.200129	0.610909	0.644908
C117	C	1.533462	0.944243	0.978242
C118	C	0.894918	0.232859	0.721339
C119	C	1.228251	0.566192	1.054672
C120	C	1.561585	0.899526	1.388006
C121	C	0.890623	0.239721	0.811850
C122	C	1.223957	0.573054	1.145183
C123	C	1.557290	0.906388	1.478516
C124	C	0.996886	0.070489	0.819298
C125	C	1.330220	0.403822	1.152631
C126	C	1.663553	0.737155	1.485964
C127	C	1.001185	0.063636	0.728792
C128	C	1.334518	0.396969	1.062125
C129	C	1.667851	0.730303	1.395458
C130	C	0.950198	0.144815	0.679817
C131	C	1.283531	0.478149	1.013150
C132	C	1.616864	0.811482	1.346484
N133	N	0.909081	0.210273	0.543573
N134	N	1.242414	0.543607	0.876906
N135	N	1.575748	0.876940	1.210239
N136	N	0.954593	0.137793	0.587307
N137	N	1.287926	0.471126	0.920640
N138	N	1.621260	0.804460	1.253974
H139	H	0.164217	0.179227	0.224423
H140	H	0.497551	0.512561	0.557756
H141	H	0.830884	0.845894	0.891090
H142	H	0.536758	0.185635	0.180369
H143	H	0.870091	0.518969	0.513702
H144	H	1.203425	0.852302	0.847036
F145	F	0.322711	0.185786	0.255214
F146	F	0.656044	0.519119	0.588547
F147	F	0.989377	0.852453	0.921881
F148	F	0.168437	0.155870	-0.080293
F149	F	0.501770	0.489204	0.253041
F150	F	0.835104	0.822537	0.586374
F151	F	1.078592	-0.214388	0.075738
F152	F	1.411925	0.118946	0.409071
F153	F	1.745258	0.452279	0.742404
H154	H	1.018080	0.036662	0.285222
H155	H	1.351413	0.369995	0.618555
H156	H	1.684746	0.703328	0.951888
F157	F	0.856642	-0.246491	0.060149
F158	F	1.189975	0.086842	0.393482
F159	F	1.523308	0.420176	0.726815
H160	H	1.046197	-0.008058	0.694981
H161	H	1.379531	0.325275	1.028315
H162	H	1.712864	0.658609	1.361648
H163	H	0.872160	-0.394304	0.061247
H164	H	1.205493	-0.060970	0.394581
H165	H	1.538827	0.272363	0.727914
F166	F	1.023015	0.028809	0.461657
F167	F	1.356348	0.362142	0.794990
F168	F	1.689682	0.695476	1.128324
H169	H	0.326922	0.162401	-0.049506
H170	H	0.660256	0.495735	0.283827
H171	H	0.993589	0.829068	0.617161
F172	F	0.540969	0.162262	-0.124345
F173	F	0.874303	0.495595	0.208988
F174	F	1.207636	0.828929	0.542321
F175	F	1.051145	-0.015905	0.871425
F176	F	1.384478	0.317428	1.204758
F177	F	1.717812	0.650761	1.538092
H178	H	0.699458	0.168853	-0.093560
H179	H	1.032792	0.502186	0.239773
H180	H	1.366125	0.835520	0.573107
F181	F	0.831785	0.333440	0.856041
F182	F	1.165118	0.666773	1.189375
F183	F	1.498452	1.000107	1.522708
F184	F	0.812534	0.363976	0.259452
F185	F	1.145867	0.697310	0.592786
F186	F	1.479201	1.030643	0.926119
H187	H	1.056257	-0.476457	0.074174
H188	H	1.389591	-0.143123	0.407507
H189	H	1.722924	0.190210	0.740841
H190	H	0.685892	0.190415	0.190840
H191	H	1.019226	0.523749	0.524174
H192	H	1.352559	0.857082	0.857507
F193	F	0.840657	0.319259	0.669224
F194	F	1.173990	0.652592	1.002557
F195	F	1.507323	0.985925	1.335890
H196	H	0.817482	0.356127	0.435896
H197	H	1.150815	0.689460	0.769230
H198	H	1.484148	1.022793	1.102563
