data_functionalizedCrystal
_audit_creation_method	'MofGen! by Chris Wilmer'
_symmetry_space_group_name_H-M	'P1'
_symmetry_Int_Tables_number	1
_symmetry_cell_setting	triclinic
loop_
_symmetry_equiv_pos_as_xyz
  x,y,z
_cell_length_a	17.019282
_cell_length_b	19.188930
_cell_length_c	15.500227
_cell_angle_alpha	87.186616
_cell_angle_beta	88.965536
_cell_angle_gamma	83.267516
loop_
_atom_site_label
_atom_site_type_symbol
_atom_site_fract_x
_atom_site_fract_y
_atom_site_fract_z
O1	O	1.046067	0.089173	-0.006008
O2	O	0.817235	0.099757	0.011050
O3	O	0.938254	-0.007157	0.002012
O4	O	0.925048	0.196087	0.003030
O5	O	0.930910	-0.000694	-0.141328
O6	O	0.809891	0.106219	-0.132290
O7	O	1.038723	0.095635	-0.149348
Cu8	Cu	0.923637	0.101517	-0.153907
Cu9	Cu	0.932321	0.093875	0.015609
O10	O	0.917704	0.202549	-0.140310
C11	C	0.784287	0.102461	-0.058438
C12	C	0.697054	0.100882	-0.051937
C13	C	0.652073	0.103661	-0.127019
C14	C	0.570110	0.102166	-0.120912
C15	C	0.533128	0.097897	-0.039723
C16	C	0.578115	0.095116	0.035365
C17	C	0.660077	0.096606	0.029258
C18	C	0.285854	0.093218	-0.017373
C19	C	0.203885	0.091731	-0.011272
C20	C	0.195886	0.098780	-0.167550
C21	C	0.277850	0.100274	-0.173650
C22	C	0.322830	0.097488	-0.098562
C23	C	0.449348	0.096372	-0.033479
C24	C	0.406610	0.099009	-0.104807
C25	C	0.934154	-0.029939	-0.069629
C26	C	0.932870	-0.107449	-0.069540
C27	C	1.003880	-0.152016	-0.074838
C28	C	1.002674	-0.224847	-0.074734
C29	C	0.930454	-0.253106	-0.069350
C30	C	0.859435	-0.208530	-0.064047
C31	C	0.860642	-0.135701	-0.064142
N32	N	0.872751	-0.359189	-0.114016
N33	N	0.871608	-0.428374	-0.113928
C34	C	0.926810	-0.472534	-0.069061
N35	N	0.983210	-0.444897	-0.024297
N36	N	0.984354	-0.375706	-0.024389
C37	C	0.929136	-0.332076	-0.069246
C38	C	0.996518	-0.596073	-0.074245
C39	C	0.995310	-0.668904	-0.074136
C40	C	0.852068	-0.652585	-0.063457
C41	C	0.853278	-0.579756	-0.063558
C42	C	0.925505	-0.551504	-0.068956
C43	C	1.071671	0.092931	-0.079858
C44	C	1.158905	0.094510	-0.086354
C45	C	0.921804	0.225331	-0.068667
C46	C	0.923089	0.302841	-0.068750
N47	N	0.917534	0.106892	-0.273136
C48	C	0.968832	0.061606	-0.322244
C49	C	0.964223	0.065677	-0.412473
C50	C	0.908321	0.115039	-0.453592
C51	C	0.857018	0.160327	-0.404478
C52	C	0.861623	0.156252	-0.314251
C53	C	0.891732	0.129708	-0.725820
C54	C	0.887133	0.133781	-0.816054
C55	C	0.994338	0.039130	-0.824043
C56	C	0.998941	0.035062	-0.733814
C57	C	0.947635	0.080347	-0.684707
C58	C	0.903611	0.119203	-0.545821
C59	C	0.952342	0.076179	-0.592480
N60	N	0.938430	0.088495	0.134838
H61	H	0.533491	0.104418	-0.182053
N62	N	0.163990	0.087116	0.076298
H63	H	0.123642	0.129580	0.082809
H64	H	0.204968	0.085551	0.122891
H65	H	0.682176	0.107143	-0.193132
H66	H	0.322468	0.090948	0.043769
H67	H	0.307955	0.103746	-0.239763
H68	H	0.795454	-0.543468	-0.059249
N69	N	0.147372	0.101783	-0.248533
H70	H	0.089701	0.101154	-0.232343
H71	H	0.165762	0.059829	-0.283644
H72	H	1.014356	0.021413	-0.288771
H73	H	0.793264	-0.675594	-0.059069
N74	N	0.796724	0.213572	-0.448820
H75	H	0.741782	0.204664	-0.428981
H76	H	0.801659	0.209261	-0.513421
N77	N	0.784047	-0.087629	-0.058449
H78	H	0.795772	-0.037205	-0.059332
H79	H	0.755279	-0.099177	-0.002963
N80	N	0.538233	0.090503	0.122936
H81	H	0.479484	0.089982	0.115413
H82	H	0.547786	0.132463	0.156486
H83	H	1.005993	0.028801	-0.452456
N84	N	0.409448	0.091777	0.054084
H85	H	0.418934	0.133736	0.087674
H86	H	0.431996	0.047234	0.086626
N87	N	1.049664	-0.009716	-0.877009
H88	H	1.085776	-0.041604	-0.837268
H89	H	1.082400	0.018802	-0.917009
H90	H	1.044461	-0.005132	-0.700336
N91	N	0.781539	-0.239007	-0.058252
H92	H	0.736736	-0.199719	-0.054913
H93	H	0.780639	-0.271259	-0.004845
H94	H	0.696700	0.094344	0.090398
N95	N	0.806291	0.205092	-0.261280
H96	H	0.770179	0.236982	-0.301019
H97	H	0.838175	0.234353	-0.226057
N98	N	0.836411	0.178555	-0.672855
H99	H	0.803619	0.150086	-0.632852
H100	H	0.800351	0.210438	-0.712650
N101	N	0.446488	0.103615	-0.192376
H102	H	0.486839	0.061153	-0.198889
H103	H	0.473746	0.147655	-0.197836
H104	H	0.997855	0.035987	-0.558998
N105	N	0.826843	0.187030	-0.860409
H106	H	0.795040	0.215102	-0.815610
H107	H	0.790288	0.161897	-0.895288
H108	H	0.858095	0.159395	-0.579308
N109	N	1.074415	-0.565594	-0.080063
H110	H	1.119219	-0.604882	-0.083396
H111	H	1.080758	-0.538116	-0.027200
N112	N	1.071901	-0.716979	-0.079850
H113	H	1.106151	-0.710257	-0.029071
H114	H	1.100628	-0.705461	-0.135373
N115	N	1.081783	-0.121553	-0.080654
H116	H	1.115604	-0.140185	-0.029836
H117	H	1.071715	-0.068656	-0.079939
N118	N	1.079266	-0.272928	-0.080446
H119	H	1.125204	-0.243979	-0.083878
H120	H	1.079154	-0.301111	-0.133778
