data_functionalizedCrystal
_audit_creation_method	'MofGen! by Chris Wilmer'
_symmetry_space_group_name_H-M	'P1'
_symmetry_Int_Tables_number	1
_symmetry_cell_setting	triclinic
loop_
_symmetry_equiv_pos_as_xyz
  x,y,z
_cell_length_a	19.121102
_cell_length_b	29.839131
_cell_length_c	19.120904
_cell_angle_alpha	92.401768
_cell_angle_beta	90.088173
_cell_angle_gamma	87.589066
loop_
_atom_site_label
_atom_site_type_symbol
_atom_site_fract_x
_atom_site_fract_y
_atom_site_fract_z
Zn1	Zn	1.054788	-0.219753	-0.441992
Zn2	Zn	1.059688	-0.291815	-0.324733
Zn3	Zn	0.942558	-0.213364	-0.319778
Zn4	Zn	0.937500	-0.291513	-0.436935
O5	O	0.998633	-0.254111	-0.380859
O6	O	1.153542	-0.232113	-0.430627
O7	O	1.048319	-0.278861	-0.225971
O8	O	0.957512	-0.151347	-0.336033
O9	O	1.157143	-0.285057	-0.344477
O10	O	1.039966	-0.156042	-0.425823
O11	O	0.962264	-0.221223	-0.222331
O12	O	0.843783	-0.220930	-0.331129
O13	O	0.948890	-0.284542	-0.535710
O14	O	0.840066	-0.278346	-0.417204
O15	O	1.035061	-0.231820	-0.539425
O16	O	1.043414	-0.354639	-0.339574
O17	O	0.953642	-0.354418	-0.422008
C18	C	0.816487	-0.248912	-0.373081
C19	C	0.738563	-0.246699	-0.369769
C20	C	0.700041	-0.275595	-0.412958
C21	C	0.626823	-0.273509	-0.409850
C22	C	0.592129	-0.242531	-0.363550
C23	C	0.630656	-0.213632	-0.320360
C24	C	0.703873	-0.215715	-0.323471
C25	C	0.371158	-0.234741	-0.351919
C26	C	0.297937	-0.232660	-0.348809
C27	C	0.294108	-0.292537	-0.438300
C28	C	0.367326	-0.294620	-0.441405
C29	C	0.405847	-0.265720	-0.398218
C30	C	0.517289	-0.240399	-0.360370
C31	C	0.480686	-0.267849	-0.401401
C32	C	0.998529	-0.370829	-0.380796
C33	C	0.998548	-0.420764	-0.380795
C34	C	1.041555	-0.732823	-0.427677
C35	C	1.041629	-0.920499	-0.427722
O36	O	1.078093	-0.946813	-0.467534
N37	N	0.998749	-0.941559	-0.380942
C38	C	0.955844	-0.915697	-0.334151
O39	O	0.919368	-0.937916	-0.294368
C40	C	0.955767	-0.728021	-0.334110
C41	C	0.998655	-0.706964	-0.380888
C42	C	1.084439	-0.711765	-0.474451
C43	C	1.084423	-0.664849	-0.474437
C44	C	1.041523	-0.638990	-0.427648
C45	C	0.998639	-0.660048	-0.380873
C46	C	0.912858	-0.702160	-0.287322
C47	C	0.912841	-0.655238	-0.287317
C48	C	0.955730	-0.634181	-0.334095
C49	C	0.955722	-0.587273	-0.334070
N50	N	0.998602	-0.566213	-0.380849
C51	C	1.041502	-0.592071	-0.427639
C52	C	0.955889	-1.014229	-0.334175
C53	C	0.955909	-1.061148	-0.334185
C54	C	1.041693	-1.065947	-0.427757
C55	C	1.041676	-1.019027	-0.427743
C56	C	0.998769	-0.993169	-0.380955
C57	C	1.041466	-0.493544	-0.427604
C58	C	1.041448	-0.446623	-0.427584
C59	C	0.955661	-0.441828	-0.334015
C60	C	0.955681	-0.488745	-0.334032
C61	C	0.998586	-0.514601	-0.380833
O62	O	0.919272	-0.560931	-0.294284
O63	O	1.077961	-0.569844	-0.467426
C64	C	1.041571	-0.779739	-0.427691
C65	C	0.998687	-0.800796	-0.380916
C66	C	0.955787	-0.774938	-0.334127
C67	C	0.998707	-0.847715	-0.380926
C68	C	1.041608	-0.873574	-0.427715
C69	C	1.084488	-0.852514	-0.474495
C70	C	1.084471	-0.805598	-0.474480
C71	C	0.912907	-0.795997	-0.287348
C72	C	0.912927	-0.842914	-0.287365
C73	C	0.955827	-0.868773	-0.334154
C74	C	1.181491	-0.259331	-0.388669
C75	C	1.259414	-0.261556	-0.391997
C76	C	0.990865	-0.258860	-0.563716
C77	C	0.987554	-0.260884	-0.641639
C78	C	0.998757	-0.136939	-0.380940
C79	C	0.998809	-0.087006	-0.380974
C80	C	1.030861	-0.234386	-0.680183
C81	C	1.027742	-0.236286	-0.753399
C82	C	0.981319	-0.264685	-0.788070
C83	C	0.938007	-0.291184	-0.749521
C84	C	0.941123	-0.289282	-0.676306
C85	C	0.969663	-0.271800	-1.009035
C86	C	0.966552	-0.273701	-1.082256
C87	C	1.056286	-0.218802	-1.086128
C88	C	1.059401	-0.216904	-1.012912
C89	C	1.016086	-0.243401	-0.974369
C90	C	0.978131	-0.266629	-0.862909
C91	C	1.019271	-0.241455	-0.899532
C92	C	1.006412	-0.249350	-0.198716
C93	C	1.009859	-0.247203	-0.120799
H94	H	0.402514	-0.211211	-0.316747
H95	H	1.057066	-0.218330	-0.871299
C96	C	0.251729	-0.324322	-0.485809
N97	N	0.219809	-0.348262	-0.521596
H98	H	1.063009	-0.214710	-0.784778
C99	C	1.088632	-0.423463	-0.479044
N100	N	1.124170	-0.406021	-0.517802
C101	C	0.738197	-0.309674	-0.463892
N102	N	0.766934	-0.335343	-0.502259
H103	H	0.920948	-0.993178	-0.296073
H104	H	0.269691	-0.207429	-0.311110
C105	C	0.865672	-0.725312	-0.235866
N106	N	0.830126	-0.742749	-0.197109
C107	C	1.103920	-0.189652	-1.128531
N108	N	1.139796	-0.167692	-1.160468
H109	H	0.940337	-0.289754	-0.891147
C110	C	0.865743	-0.866071	-0.235902
N111	N	0.830200	-0.883512	-0.197146
C112	C	0.746247	-0.183929	-0.275959
N113	N	0.778163	-0.159986	-0.240172
H114	H	0.595461	-0.297039	-0.445018
C115	C	0.405484	-0.328701	-0.492336
N116	N	0.434225	-0.354373	-0.530694
H117	H	0.905851	-0.310854	-0.644924
C118	C	0.592490	-0.179554	-0.269430
N119	N	0.563745	-0.153886	-0.231068
C120	C	0.518852	-0.301926	-0.452328
N121	N	0.547605	-0.327595	-0.490683
C122	C	0.479118	-0.206325	-0.309439
N123	N	0.450365	-0.180659	-0.271078
H124	H	0.928746	-0.296828	-1.110483
H125	H	1.097205	-0.193780	-0.984688
H126	H	0.934404	-0.293382	-0.977663
H127	H	1.076625	-1.087009	-0.465853
C128	C	1.131653	-0.782441	-0.525939
N129	N	1.167193	-0.765003	-0.564701
C130	C	1.131677	-0.880968	-0.525964
N131	N	1.167215	-0.902401	-0.564731
C132	C	1.088668	-0.521980	-0.479083
N133	N	1.124224	-0.543397	-0.517853
C134	C	0.886935	-0.322419	-0.787662
N135	N	0.848465	-0.345946	-0.816389
C136	C	1.131606	-0.641692	-0.525895
N137	N	1.167148	-0.624254	-0.564655
H138	H	1.119373	-0.732815	-0.512557
H139	H	0.920764	-0.505890	-0.295937
H140	H	1.076599	-1.001886	-0.465834
H141	H	0.920993	-1.078288	-0.296086
C142	C	0.865639	-0.626797	-0.235844
N143	N	0.830089	-0.605376	-0.197073
H144	H	0.920734	-0.420766	-0.295917
H145	H	0.877971	-0.774947	-0.249247
C146	C	1.081930	-0.203144	-0.642051
N147	N	1.120394	-0.179609	-0.613332
