data_functionalizedCrystal
_audit_creation_method	'MofGen! by Chris Wilmer'
_symmetry_space_group_name_H-M	'P1'
_symmetry_Int_Tables_number	1
_symmetry_cell_setting	triclinic
loop_
_symmetry_equiv_pos_as_xyz
  x,y,z
_cell_length_a	23.096457
_cell_length_b	14.560438
_cell_length_c	14.560438
_cell_angle_alpha	90.000844
_cell_angle_beta	60.001153
_cell_angle_gamma	60.002684
loop_
_atom_site_label
_atom_site_type_symbol
_atom_site_fract_x
_atom_site_fract_y
_atom_site_fract_z
Zr1	Zr	0.633737	-0.120488	0.884778
O2	O	0.754520	-0.267125	0.738136
O3	O	0.512952	-0.075542	0.929728
O4	O	0.633736	-0.267135	0.929732
O5	O	0.633738	0.075606	0.738132
O6	O	0.633738	-0.267136	1.080870
O7	O	0.633736	-0.075532	0.738132
O8	O	0.417678	0.075589	1.080863
O9	O	0.849798	-0.267119	0.738139
O10	O	0.562635	-0.056367	1.061695
O11	O	0.562635	0.056427	0.948903
O12	O	0.704842	-0.169149	0.948908
O13	O	0.704842	-0.056355	0.836116
Zr14	Zr	0.633742	0.120558	1.125827
Zr15	Zr	0.633740	-0.120490	1.125826
Zr16	Zr	0.633740	0.120560	0.884779
Zr17	Zr	0.785695	-0.120478	0.884784
Zr18	Zr	0.481785	0.120548	1.125821
O19	O	0.754527	0.075612	1.080877
O20	O	0.754524	-0.267128	1.080875
O21	O	0.754524	0.075614	0.738137
O22	O	0.512960	0.267195	1.272469
O23	O	0.512956	-0.075544	1.272467
O24	O	0.512956	0.267198	0.929730
O25	O	0.633742	-0.075536	1.272472
O26	O	0.633743	0.267205	1.080873
O27	O	0.633742	0.267206	0.929735
O28	O	0.633743	0.075602	1.272473
O29	O	0.849800	-0.267120	0.929740
O30	O	0.417680	0.267190	1.080864
O31	O	0.417682	0.267189	1.272465
O32	O	0.417680	0.075588	1.272464
O33	O	0.849800	-0.075518	0.738140
O34	O	0.849802	-0.075519	0.929741
O35	O	0.562637	0.169219	1.061697
O36	O	0.562637	0.056425	1.174489
O37	O	0.704845	-0.056357	1.061701
O38	O	0.704845	0.056437	0.948909
C39	C	0.443664	0.000022	1.005295
C40	C	0.379154	0.000018	1.005292
C41	C	0.633737	0.000037	0.703788
C42	C	0.633736	0.000038	0.601457
C43	C	0.633743	0.301549	1.005304
C44	C	0.633744	0.403881	1.005304
C45	C	0.348854	-0.058863	1.064161
C46	C	0.288231	-0.058854	1.064172
C47	C	0.257924	0.000021	1.005292
C48	C	0.288229	0.058915	0.946421
C49	C	0.348844	0.058914	0.946421
N50	N	0.195527	-0.008142	0.909476
N51	N	0.137946	-0.008147	0.909478
C52	C	0.075292	0.000032	1.005291
N53	N	0.072401	0.008193	1.101100
N54	N	0.129989	0.008191	1.101095
C55	C	0.192196	0.000030	1.005286
C56	C	-0.020744	-0.058843	1.064177
C57	C	-0.081371	-0.058825	1.064191
C58	C	-0.081366	0.058937	0.946429
C59	C	-0.020746	0.058927	0.946426
C60	C	0.009564	0.000031	1.005297
C61	C	0.823815	0.000048	1.005310
C62	C	0.888325	0.000052	1.005312
C63	C	0.633737	-0.301479	1.005301
C64	C	0.633736	-0.403811	1.005300
C65	C	0.707974	0.393088	0.946432
C66	C	0.707970	0.489243	0.946426
C67	C	0.559500	0.606980	1.064174
C68	C	0.559505	0.510826	1.064173
C69	C	0.559506	0.058905	0.612252
C70	C	0.559510	0.058906	0.516097
C71	C	0.707979	-0.058837	0.398354
C72	C	0.707975	-0.058830	0.494508
C73	C	0.633743	0.000033	1.306817
C74	C	0.633744	0.000032	1.409148
C75	C	0.443668	0.000020	1.306809
C76	C	0.379159	0.000015	1.409138
C77	C	0.443668	0.301537	1.005296
C78	C	0.379159	0.403864	1.005294
C79	C	0.443671	0.301534	1.306811
C80	C	0.379163	0.403861	1.409140
C81	C	0.823809	-0.301464	0.703794
C82	C	0.888317	-0.403791	0.601465
C83	C	0.823812	0.000050	0.703796
C84	C	0.888321	0.000055	0.601467
C85	C	0.823812	-0.301467	1.005308
C86	C	0.888321	-0.403794	1.005310
C87	C	0.348863	-0.058874	1.398315
C88	C	0.288259	-0.058901	1.494455
C89	C	0.257947	-0.000032	1.601415
C90	C	0.288248	0.058858	1.612236
C91	C	0.348856	0.058878	1.516097
C92	C	0.348866	0.510804	1.064170
C93	C	0.288262	0.606960	1.064164
C94	C	0.257947	0.596174	1.005288
C95	C	0.288246	0.489222	0.946404
C96	C	0.348853	0.393068	0.946405
C97	C	0.348870	0.393037	1.516081
C98	C	0.288266	0.489174	1.612239
C99	C	0.257953	0.596134	1.601454
C100	C	0.288253	0.606955	1.494501
C101	C	0.348859	0.510819	1.398345
C102	C	0.918617	-0.392967	0.494523
C103	C	0.979240	-0.489104	0.398365
C104	C	1.009556	-0.596064	0.409151
C105	C	0.979252	-0.606885	0.516103
C106	C	0.918635	-0.510749	0.612259
C107	C	0.918623	0.058934	0.612289
C108	C	0.979244	0.058934	0.516150
C109	C	1.009558	0.000062	0.409189
C110	C	0.979254	-0.058824	0.398369
C111	C	0.918638	-0.058830	0.494507
C112	C	0.918616	-0.392971	1.064198
C113	C	0.979221	-0.489109	1.064222
C114	C	1.009534	-0.596068	1.005351
C115	C	0.979232	-0.606888	0.946461
C116	C	0.918624	-0.510752	0.946445
H117	H	0.373528	-0.106816	1.112100
H118	H	0.263554	0.480456	0.898469
C119	C	1.012561	-0.477186	0.280730
H120	H	1.053012	-0.549755	0.225000
H121	H	0.969044	-0.437245	0.272300
H122	H	1.036198	-0.437219	0.272313
C123	C	1.012570	0.123710	0.528066
H124	H	1.053022	0.115275	0.455496
H125	H	0.969056	0.201166	0.568012
H126	H	1.036208	0.094628	0.568030
C127	C	0.254898	-0.123633	1.128922
H128	H	0.281635	-0.158714	1.163977
H129	H	0.197674	-0.072823	1.184637
H130	H	0.264838	-0.179347	1.078085
C131	C	1.012600	-0.123568	0.280709
H132	H	1.053032	-0.115113	0.225012
H133	H	1.036249	-0.201030	0.272254
H134	H	0.969084	-0.094479	0.272268
H135	H	0.768422	-0.106766	0.311268
C136	C	0.885281	-0.275321	0.482643
H137	H	0.844834	-0.219605	0.555220
H138	H	0.928795	-0.266885	0.442702
H139	H	0.861636	-0.266892	0.442685
H140	H	0.768425	-0.106764	0.485710
H141	H	1.058914	-0.674335	0.330845
C142	C	0.254940	0.477251	1.729872
H143	H	0.281665	0.399779	1.722515
H144	H	0.264878	0.512293	1.769839
H145	H	0.197711	0.512308	1.769826
C146	C	0.191281	0.701873	1.707232
H147	H	0.177579	0.680098	1.772463
H148	H	0.211139	0.745381	1.707255
H149	H	0.143982	0.745363	1.707245
C150	C	0.254896	0.724614	1.482652
H151	H	0.214455	0.780310	1.555241
H152	H	0.298397	0.733075	1.442705
H153	H	0.231235	0.733050	1.442715
H154	H	0.003933	-0.106795	1.112118
C155	C	0.382201	-0.123641	1.280671
H156	H	0.355478	-0.158723	1.288011
H157	H	0.372266	-0.072830	1.240708
H158	H	0.439429	-0.179354	1.240723
H159	H	0.208596	-0.000057	1.679688
H160	H	1.058915	0.000077	0.330916
C161	C	0.789632	0.275454	0.881666
H162	H	0.833839	0.282802	0.846594
H163	H	0.792726	0.235492	0.932479
H164	H	0.792716	0.235501	0.825944
H165	H	1.003944	-0.693983	0.524872
C166	C	0.382176	0.123659	1.528010
H167	H	0.422619	0.115240	1.455441
H168	H	0.338658	0.201112	1.567969
H169	H	0.405824	0.094570	1.567961
C170	C	0.477858	0.123654	0.527976
H171	H	0.433646	0.158705	0.605442
H172	H	0.474768	0.179371	0.492918
H173	H	0.474777	0.072821	0.492912
H174	H	0.373541	0.305954	1.524884
H175	H	0.263595	-0.106856	1.485623
C176	C	0.885301	-0.522669	0.729888
H177	H	0.912035	-0.600141	0.722530
H178	H	0.895225	-0.487612	0.769869
H179	H	0.828075	-0.487627	0.769830
H180	H	0.499055	0.519623	1.112113
H181	H	0.499058	0.694065	1.112105
H182	H	0.373541	0.519608	1.112115
H183	H	0.893945	0.106882	0.699373
C184	C	1.012629	-0.724544	0.881628
H185	H	0.985920	-0.717232	0.846532
H186	H	1.069851	-0.764424	0.825938
H187	H	1.002720	-0.764556	0.932403
C188	C	0.254937	0.724594	1.128942
H189	H	0.214507	0.780323	1.120505
H190	H	0.231291	0.733018	1.206400
H191	H	0.298462	0.733016	1.099866
H192	H	0.893968	-0.106773	0.485680
C193	C	0.254892	0.123619	1.729895
H194	H	0.214451	0.115177	1.785593
H195	H	0.298394	0.094564	1.738355
H196	H	0.231233	0.201085	1.738333
C197	C	0.885316	-0.522664	0.881645
H198	H	0.844877	-0.450096	0.890060
H199	H	0.928843	-0.562619	0.804193
H200	H	0.861668	-0.562619	0.910718
C201	C	0.477847	0.123673	0.729889
H202	H	0.433640	0.158742	0.722543
H203	H	0.474753	0.072863	0.769855
H204	H	0.474764	0.179396	0.769838
C205	C	0.254879	0.123705	0.881680
H206	H	0.281600	0.158789	0.846634
H207	H	0.264799	0.072911	0.825960
H208	H	0.197653	0.179418	0.932529
H209	H	0.208597	0.674477	1.005296
H210	H	-0.106042	0.106874	0.898489
C211	C	0.885281	-0.275329	1.128966
H212	H	0.912004	-0.282668	1.164046
H213	H	0.895216	-0.235367	1.078153
H214	H	0.828053	-0.235381	1.184682
C215	C	1.012551	-0.477187	1.128988
H216	H	0.985826	-0.399715	1.164026
H217	H	1.002615	-0.512230	1.184718
H218	H	1.069779	-0.512244	1.078162
C219	C	0.382165	0.275438	0.881650
H220	H	0.422606	0.219708	0.890070
H221	H	0.338641	0.267022	0.910730
H222	H	0.405812	0.267009	0.804186
H223	H	0.373516	0.519648	1.311273
C224	C	1.076207	-0.701808	1.005368
H225	H	1.089910	-0.680034	1.048865
H226	H	1.056349	-0.745317	1.036889
H227	H	1.123506	-0.745298	0.930353
H228	H	0.373516	0.106862	0.898480
H229	H	-0.106046	-0.106769	1.112136
H230	H	0.768415	0.480445	0.898485
H231	H	0.003928	0.106870	0.898484
