data_functionalizedCrystal
_audit_creation_method	'MofGen! by Chris Wilmer'
_symmetry_space_group_name_H-M	'P1'
_symmetry_Int_Tables_number	1
_symmetry_cell_setting	triclinic
loop_
_symmetry_equiv_pos_as_xyz
  x,y,z
_cell_length_a	11.792254
_cell_length_b	10.868271
_cell_length_c	17.699092
_cell_angle_alpha	90.003449
_cell_angle_beta	83.742483
_cell_angle_gamma	90.004259
loop_
_atom_site_label
_atom_site_type_symbol
_atom_site_fract_x
_atom_site_fract_y
_atom_site_fract_z
O1	O	1.505661	0.102316	0.103782
O2	O	2.005661	0.602316	0.603782
O3	O	1.175194	0.102318	0.114463
O4	O	1.675194	0.602318	0.614463
O5	O	1.349759	0.102314	-0.001016
O6	O	1.849759	0.602314	0.498984
O7	O	1.331096	0.102320	0.219261
O8	O	1.831096	0.602320	0.719261
O9	O	1.349744	-0.102330	-0.001021
O10	O	1.849744	0.397670	0.498979
O11	O	1.175179	-0.102326	0.114458
O12	O	1.675179	0.397674	0.614458
O13	O	1.505646	-0.102328	0.103777
O14	O	2.005646	0.397672	0.603777
Zn15	Zn	1.340411	-0.134819	0.109117
Zn16	Zn	1.840411	0.365181	0.609117
Zn17	Zn	1.340429	0.134809	0.109123
Zn18	Zn	1.840429	0.634809	0.609123
O19	O	1.331081	-0.102324	0.219257
O20	O	1.831081	0.397676	0.719257
C21	C	1.132904	-0.000004	0.113788
C22	C	1.632904	0.499996	0.613788
C23	C	1.006915	-0.000003	0.111774
C24	C	1.506915	0.499997	0.611774
C25	C	0.904598	0.000003	0.110138
C26	C	1.404598	0.500003	0.610138
C27	C	0.776236	0.000003	0.108091
C28	C	1.276236	0.500003	0.608091
N29	N	1.340406	-0.318833	0.109113
N30	N	1.840406	0.181167	0.609113
C31	C	1.340423	-0.569839	0.109121
C32	C	1.840423	-0.069839	0.609121
C33	C	1.340410	-0.430162	0.109119
C34	C	1.840410	0.069838	0.609119
C35	C	1.547936	-0.000004	0.104452
C36	C	2.047936	0.499996	0.604452
C37	C	1.673925	0.000003	0.106466
C38	C	2.173925	0.500003	0.606466
C39	C	1.349081	-0.000006	-0.029219
C40	C	1.849081	0.499994	0.470781
C41	C	1.347070	-0.000000	-0.113248
C42	C	1.847070	0.500000	0.386752
N43	N	1.340443	0.318823	0.109122
N44	N	1.840443	0.818823	0.609122
C45	C	1.346136	0.111553	-0.152718
C46	C	1.846136	0.611553	0.347282
C47	C	1.344239	0.111554	-0.231671
C48	C	1.844239	0.611554	0.268329
C49	C	1.343285	0.000001	-0.271153
C50	C	1.843285	0.500001	0.228847
C51	C	1.344216	-0.111560	-0.231677
C52	C	1.844216	0.388440	0.268323
C53	C	1.346105	-0.111561	-0.152725
C54	C	1.846105	0.388439	0.347275
C55	C	1.336598	-0.111562	-0.550083
C56	C	1.836598	0.388438	-0.050083
C57	C	1.334712	-0.111553	-0.629041
C58	C	1.834712	0.388447	-0.129041
C59	C	1.334732	0.111553	-0.629029
C60	C	1.834732	0.611553	-0.129029
C61	C	1.336621	0.111553	-0.550077
C62	C	1.836621	0.611553	-0.050077
C63	C	1.337546	-0.000008	-0.510607
C64	C	1.837546	0.499992	-0.010607
C65	C	1.339600	-0.000009	-0.424997
C66	C	1.839600	0.499991	0.075003
C67	C	1.341238	0.000000	-0.356763
C68	C	1.841238	0.500000	0.143237
C69	C	1.331759	-0.000001	0.247459
C70	C	1.831759	0.499999	0.747459
C71	C	1.333770	0.000001	0.331488
C72	C	1.833770	0.500001	0.831488
H73	H	1.343483	0.202392	-0.263804
H74	H	1.843483	0.702392	0.236196
H75	H	1.337403	0.202391	-0.517934
H76	H	1.837403	0.702391	-0.017934
H77	H	1.346919	0.202393	-0.120577
H78	H	1.846919	0.702393	0.379423
N79	N	1.337574	-0.225512	-0.509773
N80	N	1.837574	0.274488	-0.009773
N81	N	1.418597	-0.250404	-0.472363
N82	N	1.918597	0.249596	0.027637
H83	H	1.419289	-0.330886	-0.443890
H84	H	1.919289	0.169114	0.056110
N85	N	1.347076	-0.225499	-0.112394
N86	N	1.847076	0.274501	0.387606
N87	N	1.348762	-0.225485	-0.041902
N88	N	1.848762	0.274515	0.458098
H89	H	1.349445	-0.305956	-0.013417
H90	H	1.849445	0.194044	0.486583
H91	H	1.333932	-0.202399	-0.661186
H92	H	1.833932	0.297601	-0.161186
H93	H	1.333973	0.202391	-0.661174
H94	H	1.833973	0.702391	-0.161174
N95	N	1.343228	-0.225500	-0.272016
N96	N	1.843228	0.274500	0.227984
N97	N	1.341542	-0.225486	-0.342508
N98	N	1.841542	0.274514	0.157492
H99	H	1.340847	-0.305958	-0.370997
H100	H	1.840847	0.194042	0.129003
