data_functionalizedCrystal
_audit_creation_method	'MofGen! by Chris Wilmer'
_symmetry_space_group_name_H-M	'P1'
_symmetry_Int_Tables_number	1
_symmetry_cell_setting	triclinic
loop_
_symmetry_equiv_pos_as_xyz
  x,y,z
_cell_length_a	6.817900
_cell_length_b	17.110486
_cell_length_c	11.168129
_cell_angle_alpha	95.206620
_cell_angle_beta	108.508637
_cell_angle_gamma	99.060439
loop_
_atom_site_label
_atom_site_type_symbol
_atom_site_fract_x
_atom_site_fract_y
_atom_site_fract_z
V1	V	-4.002457	-0.246727	-0.174329
O2	O	-3.964089	-0.242023	0.008764
O3	O	-3.979477	-0.245046	-0.346037
O4	O	-3.931897	-0.354330	-0.171477
O5	O	-4.011999	-0.131983	-0.167004
V6	V	-4.485662	-0.233002	-0.152449
O7	O	-4.264412	-0.276834	-0.222324
O8	O	-4.673905	-0.202895	-0.104453
O9	O	-4.285436	-0.234682	0.019259
O10	O	-4.641428	-0.237706	-0.335542
O11	O	-4.593518	-0.347746	-0.159774
O12	O	-4.333016	-0.125399	-0.155300
C13	C	-3.831379	-0.241156	-0.387901
C14	C	-3.893730	-0.240499	-0.528273
C15	C	-3.894699	-0.171339	-0.573824
C16	C	-3.959141	-0.170659	-0.718906
C17	C	-3.770684	-0.380557	-0.165231
C18	C	-3.794445	-0.468523	-0.164036
C19	C	-3.987828	-0.513881	-0.169777
C20	C	-4.010142	-0.596534	-0.168653
C21	C	-3.839075	-0.633829	-0.161798
C22	C	-3.645675	-0.588464	-0.156053
C23	C	-3.623359	-0.505812	-0.157168
C24	C	-3.897333	-0.883184	-0.158109
C25	C	-3.919666	-0.965843	-0.156998
C26	C	-4.284132	-0.973907	-0.169596
C27	C	-4.261802	-0.891253	-0.170718
C28	C	-4.068402	-0.845895	-0.164966
C29	C	-3.861880	-0.718314	-0.160653
C30	C	-4.045595	-0.761411	-0.166102
C31	C	-4.096877	-0.238571	0.061117
C32	C	-4.013764	-0.239233	0.201488
C33	C	-4.157572	-0.099168	-0.161550
C34	C	-4.113049	-0.011201	-0.162739
H35	H	-3.960064	-0.111447	-0.758144
H36	H	-3.940615	-0.299206	-0.596683
O37	O	-3.709526	-0.839049	-0.152445
C38	C	-3.633488	-0.780193	-0.042946
H39	H	-3.706904	-0.799865	0.030730
H40	H	-3.454538	-0.772024	-0.000664
H41	H	-3.677533	-0.721100	-0.070359
H42	H	-4.127138	-0.483523	-0.175368
H43	H	-4.012822	-0.298447	-0.759282
H44	H	-4.167608	-0.633461	-0.173320
H45	H	-3.847832	-0.112633	-0.505415
H46	H	-4.184873	-0.731042	-0.171680
H47	H	-4.401107	-0.860894	-0.176299
O48	O	-4.471957	-1.018071	-0.175339
C49	C	-4.547915	-1.076847	-0.284939
H50	H	-4.410417	-1.089303	-0.315929
H51	H	-4.629004	-1.134262	-0.262114
H52	H	-4.665745	-1.054505	-0.365396
O53	O	-3.753234	-1.001938	-0.150262
C54	C	-3.577758	-0.944184	-0.145449
H55	H	-3.596220	-0.882523	-0.107940
H56	H	-3.427554	-0.959227	-0.079130
H57	H	-3.567603	-0.944101	-0.245381
O58	O	-3.479570	-0.624764	-0.149226
C59	C	-3.429422	-0.661580	-0.038340
H60	H	-3.573607	-0.673884	-0.007017
H61	H	-3.379718	-0.720410	-0.059600
H62	H	-3.294394	-0.620219	0.041261
O63	O	-3.435571	-0.461808	-0.151821
C64	C	-3.382263	-0.490302	-0.257552
H65	H	-3.531454	-0.522886	-0.337710
H66	H	-3.302417	-0.437722	-0.292300
H67	H	-3.269814	-0.533337	-0.228144
O68	O	-3.695638	-0.754469	-0.154166
C69	C	-3.631483	-0.742580	-0.260478
H70	H	-3.684465	-0.687296	-0.299706
H71	H	-3.452290	-0.733650	-0.230051
H72	H	-3.705810	-0.797178	-0.337640
