data_functionalizedCrystal
_audit_creation_method	'MofGen! by Chris Wilmer'
_symmetry_space_group_name_H-M	'P1'
_symmetry_Int_Tables_number	1
_symmetry_cell_setting	triclinic
loop_
_symmetry_equiv_pos_as_xyz
  x,y,z
_cell_length_a	10.908937
_cell_length_b	10.967829
_cell_length_c	9.482900
_cell_angle_alpha	87.494390
_cell_angle_beta	83.036371
_cell_angle_gamma	72.684843
loop_
_atom_site_label
_atom_site_type_symbol
_atom_site_fract_x
_atom_site_fract_y
_atom_site_fract_z
O1	O	1.713503	-0.205926	-0.069351
O2	O	2.213503	0.294074	0.430649
O3	O	1.344305	-0.113206	-0.092572
O4	O	1.844305	0.386794	0.407428
O5	O	1.530327	-0.334431	-0.037147
O6	O	2.030327	0.165569	0.462853
O7	O	1.527481	0.015299	-0.124775
O8	O	2.027481	0.515299	0.375225
O9	O	1.492549	-0.289347	0.193350
O10	O	1.992549	0.210653	0.693350
O11	O	1.306527	-0.068122	0.137926
O12	O	1.806527	0.431878	0.637926
O13	O	1.675725	-0.160842	0.161147
O14	O	2.175725	0.339158	0.661147
Cu15	Cu	1.487677	-0.110365	0.170582
Cu16	Cu	1.987677	0.389635	0.670582
Cu17	Cu	1.532353	-0.163683	-0.102007
Cu18	Cu	2.032353	0.336317	0.397993
O19	O	1.489703	0.060383	0.105722
O20	O	1.989703	0.560383	0.605722
C21	C	1.278010	-0.081999	0.020507
C22	C	1.778010	0.418001	0.520507
C23	C	1.136756	-0.056194	0.014045
C24	C	1.636756	0.443806	0.514045
C25	C	0.937023	-0.123697	0.030933
C26	C	1.437023	0.376303	0.530933
C27	C	1.083013	-0.150366	0.037633
C28	C	1.583013	0.349634	0.537633
C29	C	1.508377	-0.355960	0.089141
C30	C	2.008377	0.144040	0.589141
C31	C	1.499240	-0.487273	0.122033
C32	C	1.999240	0.012727	0.622033
C33	C	1.514736	-0.569166	0.017292
C34	C	2.014736	-0.069166	0.517292
C35	C	1.505293	-0.704885	0.051286
C36	C	2.005293	-0.204885	0.551286
C37	C	1.742020	-0.192050	0.048065
C38	C	2.242020	0.307950	0.548065
C39	C	1.883276	-0.217857	0.054517
C40	C	2.383276	0.282143	0.554517
C41	C	1.511654	0.081911	-0.020569
C42	C	2.011654	0.581911	0.479431
C43	C	1.520792	0.213222	-0.053471
C44	C	2.020792	0.713222	0.446529
N45	N	1.456263	-0.072867	0.362308
N46	N	1.956263	0.427133	0.862308
N47	N	1.563777	-0.201192	-0.293730
N48	N	2.063777	0.298808	0.206270
C49	C	1.523078	-0.152627	0.454490
C50	C	2.023078	0.347373	0.954490
C51	C	1.496951	-0.121421	0.614089
C52	C	1.996951	0.378579	1.114089
H53	H	0.945342	-0.318216	0.079660
H54	H	1.445342	0.181784	0.579660
H55	H	1.541037	-0.756415	-0.168319
H56	H	2.041037	-0.256415	0.331681
H57	H	0.874959	-0.023342	0.005773
H58	H	1.374959	0.476658	0.505773
Cl59	Cl	1.178825	-0.305325	0.076458
Cl60	Cl	1.678825	0.194675	0.576458
Cl61	Cl	1.040951	0.098763	-0.024797
Cl62	Cl	1.540951	0.598763	0.475203
Cl63	Cl	1.546044	-0.522305	-0.160015
Cl64	Cl	2.046044	-0.022305	0.339985
H65	H	1.485025	-0.735242	0.166132
H66	H	1.985025	-0.235242	0.666132
Cl67	Cl	1.467951	-0.534140	0.299342
Cl68	Cl	1.967951	-0.034140	0.799342
H69	H	1.599620	-0.244019	0.415259
H70	H	2.099620	0.255981	0.915259
H71	H	1.420395	-0.030029	0.653317
H72	H	1.920395	0.469971	1.153317
H73	H	1.640324	-0.292590	0.667044
H74	H	2.140324	0.207410	1.167044
H75	H	1.379711	0.018518	0.401543
H76	H	1.879711	0.518518	0.901543
