data_functionalizedCrystal
_audit_creation_method	'MofGen! by Chris Wilmer'
_symmetry_space_group_name_H-M	'P1'
_symmetry_Int_Tables_number	1
_symmetry_cell_setting	triclinic
loop_
_symmetry_equiv_pos_as_xyz
  x,y,z
_cell_length_a	12.996460
_cell_length_b	17.699083
_cell_length_c	17.699083
_cell_angle_alpha	83.283015
_cell_angle_beta	89.998816
_cell_angle_gamma	89.999828
loop_
_atom_site_label
_atom_site_type_symbol
_atom_site_fract_x
_atom_site_fract_y
_atom_site_fract_z
O1	O	0.085425	-1.004078	-0.095706
O2	O	0.335425	-0.754078	0.154294
O3	O	0.585425	-0.504078	0.404294
O4	O	0.835425	-0.254078	0.654294
O5	O	0.085459	-0.783700	-0.108158
O6	O	0.335459	-0.533700	0.141842
O7	O	0.585459	-0.283700	0.391842
O8	O	0.835459	-0.033700	0.641842
O9	O	0.085432	-0.900115	0.008257
O10	O	0.335432	-0.650115	0.258257
O11	O	0.585432	-0.400115	0.508257
O12	O	0.835432	-0.150115	0.758257
O13	O	0.085452	-0.887663	-0.212121
O14	O	0.335452	-0.637663	0.037879
O15	O	0.585452	-0.387663	0.287879
O16	O	0.835452	-0.137663	0.537879
O17	O	-0.085702	-0.900100	0.008250
O18	O	0.164298	-0.650100	0.258250
O19	O	0.414298	-0.400100	0.508250
O20	O	0.664298	-0.150100	0.758250
O21	O	-0.085675	-0.783685	-0.108165
O22	O	0.164325	-0.533685	0.141835
O23	O	0.414325	-0.283685	0.391835
O24	O	0.664325	-0.033685	0.641835
O25	O	-0.085709	-1.004063	-0.095713
O26	O	0.164291	-0.754063	0.154287
O27	O	0.414291	-0.504063	0.404287
O28	O	0.664291	-0.254063	0.654287
Cu29	Cu	-0.101318	-0.893873	-0.101940
Cu30	Cu	0.148682	-0.643873	0.148060
Cu31	Cu	0.398682	-0.393873	0.398060
Cu32	Cu	0.648682	-0.143873	0.648060
Cu33	Cu	0.101067	-0.893890	-0.101932
Cu34	Cu	0.351067	-0.643890	0.148068
Cu35	Cu	0.601067	-0.393890	0.398068
Cu36	Cu	0.851067	-0.143890	0.648068
O37	O	-0.085682	-0.887648	-0.212128
O38	O	0.164318	-0.637648	0.037872
O39	O	0.414318	-0.387648	0.287872
O40	O	0.664318	-0.137648	0.537872
C41	C	-0.000104	-0.755495	-0.107716
C42	C	0.249896	-0.505495	0.142284
C43	C	0.499896	-0.255495	0.392284
C44	C	0.749896	-0.005495	0.642284
C45	C	-0.000091	-0.671477	-0.106377
C46	C	0.249909	-0.421477	0.143623
C47	C	0.499909	-0.171477	0.393623
C48	C	0.749909	0.078523	0.643623
N49	N	-0.243665	-0.893866	-0.101945
N50	N	0.006335	-0.643866	0.148055
N51	N	0.256335	-0.393866	0.398055
N52	N	0.506335	-0.143866	0.648055
C53	C	-0.000135	-0.899662	0.036451
C54	C	0.249865	-0.649662	0.286451
C55	C	0.499865	-0.399662	0.536451
C56	C	0.749865	-0.149662	0.786451
C57	C	-0.000136	-0.898323	0.120469
C58	C	0.249864	-0.648323	0.370469
C59	C	0.499864	-0.398323	0.620469
C60	C	0.749864	-0.148323	0.870469
C61	C	-0.336771	-0.893869	-0.101947
C62	C	-0.086771	-0.643869	0.148053
C63	C	0.163229	-0.393869	0.398053
C64	C	0.413229	-0.143869	0.648053
C65	C	-0.453576	-0.893876	-0.101942
C66	C	-0.203576	-0.643876	0.148058
C67	C	0.046424	-0.393876	0.398058
C68	C	0.296424	-0.143876	0.648058
C69	C	-0.546675	-0.893886	-0.101933
C70	C	-0.296675	-0.643886	0.148067
C71	C	-0.046675	-0.393886	0.398067
C72	C	0.203325	-0.143886	0.648067
C73	C	-0.663487	-0.893894	-0.101929
C74	C	-0.413487	-0.643894	0.148071
C75	C	-0.163487	-0.393894	0.398071
C76	C	0.086513	-0.143894	0.648071
N77	N	0.243415	-0.893903	-0.101920
N78	N	0.493415	-0.643903	0.148080
N79	N	0.743415	-0.393903	0.398080
N80	N	0.993415	-0.143903	0.648080
C81	C	-0.000144	-1.032268	-0.096156
C82	C	0.249856	-0.782268	0.153844
C83	C	0.499856	-0.532268	0.403844
C84	C	0.749856	-0.282268	0.653844
C85	C	-0.000150	-1.116286	-0.097494
C86	C	0.249850	-0.866286	0.152506
C87	C	0.499850	-0.616286	0.402506
C88	C	0.749850	-0.366286	0.652506
C89	C	-0.000085	-0.622856	-0.174710
C90	C	0.249915	-0.372856	0.075290
C91	C	0.499915	-0.122856	0.325290
C92	C	0.749915	0.127144	0.575290
C93	C	-0.000099	-0.543913	-0.173448
C94	C	0.249901	-0.293913	0.076552
C95	C	0.499901	-0.043913	0.326552
C96	C	0.749901	0.206087	0.576552
C97	C	-0.000111	-0.513592	-0.103852
C98	C	0.249889	-0.263592	0.146148
C99	C	0.499889	-0.013592	0.396148
C100	C	0.749889	0.236408	0.646148
C101	C	-0.000120	-0.562219	-0.035513
C102	C	0.249880	-0.312219	0.214487
C103	C	0.499880	-0.062219	0.464487
C104	C	0.749880	0.187781	0.714487
C105	C	-0.000114	-0.641161	-0.036776
C106	C	0.249886	-0.391161	0.213224
C107	C	0.499886	-0.141161	0.463224
C108	C	0.749886	0.108839	0.713224
C109	C	-0.000146	-0.243856	-0.030418
C110	C	0.249854	0.006144	0.219582
C111	C	0.499854	0.256144	0.469582
C112	C	0.749854	0.506144	0.719582
C113	C	-0.000149	-0.164908	-0.029160
C114	C	0.249851	0.085092	0.220840
C115	C	0.499851	0.335092	0.470840
C116	C	0.749851	0.585092	0.720840
C117	C	-0.000131	-0.146608	-0.167090
C118	C	0.249869	0.103392	0.082910
C119	C	0.499869	0.353392	0.332910
C120	C	0.749869	0.603392	0.582910
C121	C	-0.000125	-0.225550	-0.168353
C122	C	0.249875	0.024450	0.081647
C123	C	0.499875	0.274450	0.331647
C124	C	0.749875	0.524450	0.581647
C125	C	-0.000139	-0.274170	-0.100015
C126	C	0.249861	-0.024170	0.149985
C127	C	0.499861	0.225830	0.399985
C128	C	0.749861	0.475830	0.649985
C129	C	-0.000127	-0.359769	-0.101384
C130	C	0.249873	-0.109769	0.148616
C131	C	0.499873	0.140231	0.398616
C132	C	0.749873	0.390231	0.648616
C133	C	-0.000116	-0.427995	-0.102481
C134	C	0.249884	-0.177995	0.147519
C135	C	0.499884	0.072005	0.397519
C136	C	0.749884	0.322005	0.647519
C137	C	-0.000113	-0.888102	-0.240322
C138	C	0.249887	-0.638102	0.009678
C139	C	0.499887	-0.388102	0.259678
C140	C	0.749887	-0.138102	0.509678
C141	C	-0.000106	-0.889440	-0.324340
C142	C	0.249894	-0.639440	-0.074340
C143	C	0.499894	-0.389440	0.175660
C144	C	0.749894	-0.139440	0.425660
C145	C	-0.000148	-0.966656	0.169090
C146	C	0.249852	-0.716656	0.419090
C147	C	0.499852	-0.466656	0.669090
C148	C	0.749852	-0.216656	0.919090
C149	C	-0.000138	-0.965394	0.248033
C150	C	0.249862	-0.715394	0.498033
C151	C	0.499862	-0.465394	0.748033
C152	C	0.749862	-0.215394	0.998033
C153	C	-0.000124	-0.895798	0.278354
C154	C	0.249876	-0.645798	0.528354
C155	C	0.499876	-0.395798	0.778354
C156	C	0.749876	-0.145798	1.028354
C157	C	-0.000109	-0.827459	0.229727
C158	C	0.249891	-0.577459	0.479727
C159	C	0.499891	-0.327459	0.729727
C160	C	0.749891	-0.077459	0.979727
C161	C	-0.000111	-0.828722	0.150785
C162	C	0.249889	-0.578722	0.400785
C163	C	0.499889	-0.328722	0.650785
C164	C	0.749889	-0.078722	0.900785
C165	C	-0.000100	-0.822364	0.548090
C166	C	0.249900	-0.572364	0.798090
C167	C	0.499900	-0.322364	1.048090
C168	C	0.749900	-0.072364	1.298090
C169	C	-0.000101	-0.821106	0.627038
C170	C	0.249899	-0.571106	0.877038
C171	C	0.499899	-0.321106	1.127038
C172	C	0.749899	-0.071106	1.377038
C173	C	-0.000127	-0.959036	0.645338
C174	C	0.249873	-0.709036	0.895338
C175	C	0.499873	-0.459036	1.145338
C176	C	0.749873	-0.209036	1.395338
C177	C	-0.000129	-0.960299	0.566396
C178	C	0.249871	-0.710299	0.816396
C179	C	0.499871	-0.460299	1.066396
C180	C	0.749871	-0.210299	1.316396
C181	C	-0.000109	-0.891961	0.517776
C182	C	0.249891	-0.641961	0.767776
C183	C	0.499891	-0.391961	1.017776
C184	C	0.749891	-0.141961	1.267776
C185	C	-0.000117	-0.893330	0.432177
C186	C	0.249883	-0.643330	0.682177
C187	C	0.499883	-0.393330	0.932177
C188	C	0.749883	-0.143330	1.182177
C189	C	-0.000124	-0.894427	0.363951
C190	C	0.249876	-0.644427	0.613951
C191	C	0.499876	-0.394427	0.863951
C192	C	0.749876	-0.144427	1.113951
H193	H	-0.000075	-0.647537	-0.231384
H194	H	0.249925	-0.397537	0.018616
H195	H	0.499925	-0.147537	0.268616
H196	H	0.749925	0.102463	0.518616
H197	H	-0.000092	-0.764429	0.651721
H198	H	0.249908	-0.514429	0.901721
H199	H	0.499908	-0.264429	1.151721
H200	H	0.749908	-0.014429	1.401721
H201	H	-0.000084	-0.766718	0.508512
H202	H	0.249916	-0.516718	0.758512
H203	H	0.499916	-0.266718	1.008512
H204	H	0.749916	-0.016718	1.258512
Br205	Br	-0.000087	-0.735980	0.084797
Br206	Br	0.249913	-0.485980	0.334797
Br207	Br	0.499913	-0.235980	0.584797
Br208	Br	0.749913	0.014020	0.834797
Br209	Br	-0.000168	-0.309831	0.062327
Br210	Br	0.249832	-0.059831	0.312327
Br211	Br	0.499832	0.190169	0.562327
Br212	Br	0.749832	0.440169	0.812327
Br213	Br	-0.000087	-0.477929	-0.266191
Br214	Br	0.249913	-0.227929	-0.016191
Br215	Br	0.499913	0.022071	0.233809
Br216	Br	0.749913	0.272071	0.483809
Br217	Br	-0.000099	-0.266696	-0.262808
Br218	Br	0.249901	-0.016696	-0.012808
Br219	Br	0.499901	0.233304	0.237192
Br220	Br	0.749901	0.483304	0.487192
H221	H	-0.000125	-0.107012	-0.222734
H222	H	0.249875	0.142988	0.027266
H223	H	0.499875	0.392988	0.277266
H224	H	0.749875	0.642988	0.527266
Br225	Br	-0.000073	-0.733005	0.270875
Br226	Br	0.249927	-0.483005	0.520875
Br227	Br	0.499927	-0.233005	0.770875
Br228	Br	0.749927	0.016995	1.020875
H229	H	-0.000144	-0.537526	0.021154
H230	H	0.249856	-0.287526	0.271154
H231	H	0.499856	-0.037526	0.521154
H232	H	0.749856	0.212474	0.771154
H233	H	-0.000160	-0.140225	0.027517
H234	H	0.249840	0.109775	0.277517
H235	H	0.499840	0.359775	0.527517
H236	H	0.749840	0.609775	0.777517
Br237	Br	-0.000155	-1.051783	0.711327
Br238	Br	0.249845	-0.801783	0.961327
Br239	Br	0.499845	-0.551783	1.211327
Br240	Br	0.749845	-0.301783	1.461327
H241	H	-0.000150	-1.021038	0.287618
H242	H	0.249850	-0.771038	0.537618
H243	H	0.499850	-0.521038	0.787618
H244	H	0.749850	-0.271038	1.037618
H245	H	-0.000118	-0.680748	0.018868
H246	H	0.249882	-0.430748	0.268868
H247	H	0.499882	-0.180748	0.518868
H248	H	0.749882	0.069252	0.768868
Br249	Br	-0.000181	-1.061114	0.127948
Br250	Br	0.249819	-0.811114	0.377948
Br251	Br	0.499819	-0.561114	0.627948
Br252	Br	0.749819	-0.311114	0.877948
H253	H	-0.000146	-1.016971	0.541714
H254	H	0.249854	-0.766971	0.791714
H255	H	0.499854	-0.516971	1.041714
H256	H	0.749854	-0.266971	1.291714
