data_functionalizedCrystal
_audit_creation_method	'MofGen! by Chris Wilmer'
_symmetry_space_group_name_H-M	'P1'
_symmetry_Int_Tables_number	1
_symmetry_cell_setting	triclinic
loop_
_symmetry_equiv_pos_as_xyz
  x,y,z
_cell_length_a	12.837939
_cell_length_b	12.376457
_cell_length_c	12.837942
_cell_angle_alpha	102.489543
_cell_angle_beta	94.828790
_cell_angle_gamma	77.495829
loop_
_atom_site_label
_atom_site_type_symbol
_atom_site_fract_x
_atom_site_fract_y
_atom_site_fract_z
O1	O	-1.420427	0.093993	-0.254057
O2	O	-1.117295	0.093998	-0.240614
O3	O	-1.262138	0.093989	-0.095770
O4	O	-1.275584	0.094002	-0.398901
O5	O	-1.225936	-0.094021	-0.131927
O6	O	-1.081093	-0.094012	-0.276771
O7	O	-1.384225	-0.094017	-0.290215
Zn8	Zn	-1.226911	-0.123865	-0.289234
Zn9	Zn	-1.274609	0.123846	-0.241594
O10	O	-1.239382	-0.094008	-0.435058
C11	C	-1.060125	-0.000007	-0.254151
C12	C	-0.943710	-0.000005	-0.240607
C13	C	-0.718834	-0.000015	-0.403438
C14	C	-0.609452	-0.000015	-0.390717
C15	C	-0.615559	-0.000011	-0.202445
C16	C	-0.724942	-0.000012	-0.215167
C17	C	-0.776575	-0.000012	-0.315666
C18	C	-0.885961	-0.000005	-0.328385
C19	C	-0.892066	-0.000009	-0.140115
C20	C	-0.782683	-0.000009	-0.127394
N21	N	-1.194366	-0.292921	-0.321746
C22	C	-1.382706	-0.647918	-0.133582
C23	C	-1.405478	-0.529580	-0.110825
C24	C	-1.352702	-0.470409	-0.163553
C25	C	-1.277150	-0.529589	-0.239042
C26	C	-1.254382	-0.647939	-0.261807
C27	C	-1.224378	-0.470430	-0.291779
C28	C	-1.148826	-0.529610	-0.367267
C29	C	-1.126061	-0.647948	-0.390028
C30	C	-1.178837	-0.707118	-0.337300
C31	C	-1.247146	-0.352080	-0.269014
C32	C	-1.118822	-0.352101	-0.397239
C33	C	-1.096049	-0.470439	-0.419995
C34	C	-0.441396	-0.000012	-0.276678
C35	C	-0.557811	-0.000011	-0.290224
C36	C	-1.239496	-0.000016	-0.074779
C37	C	-1.225952	-0.000014	0.041636
N38	N	-1.307161	0.292902	-0.209074
C39	C	-1.262025	-0.000001	-0.456048
C40	C	-1.275570	0.000005	-0.572462
C41	C	-1.388785	0.000008	0.266515
C42	C	-1.376064	0.000010	0.375897
C43	C	-1.187791	0.000001	0.369788
C44	C	-1.200512	-0.000001	0.260405
C45	C	-1.301012	0.000000	0.208772
C46	C	-1.313731	-0.000010	0.099386
C47	C	-1.125460	-0.000011	0.093280
C48	C	-1.112739	-0.000009	0.202663
H49	H	-0.939092	0.000001	-0.068643
O50	O	-0.768911	0.000141	-0.501079
C51	C	-0.759100	0.097531	-0.536498
H52	H	-0.686799	0.129993	-0.494256
H53	H	-0.748353	0.075638	-0.626390
H54	H	-0.834214	0.165713	-0.517491
O55	O	-0.936206	0.000195	-0.425946
C56	C	-1.018058	0.097554	-0.420215
H57	H	-0.999933	0.165613	-0.349878
H58	H	-1.022886	0.130234	-0.497333
H59	H	-1.097541	0.075542	-0.408802
H60	H	-0.562442	-0.000020	-0.462192
H61	H	-0.573482	-0.000104	-0.120641
O62	O	-1.040069	-0.000068	0.037337
C63	C	-0.948648	-0.000041	0.106376
H64	H	-0.960329	-0.035625	0.178404
H65	H	-0.875979	-0.054635	0.062144
H66	H	-0.935711	0.090155	0.134405
O67	O	-0.732512	0.000195	-0.029758
C68	C	-0.688147	0.097552	0.001937
H69	H	-0.732481	0.165605	-0.042234
H70	H	-0.695899	0.130243	0.091621
H71	H	-0.600189	0.075534	-0.017946
O72	O	-1.320388	-0.294691	-0.195516
C73	C	-1.287538	-0.323703	-0.095800
H74	H	-1.197408	-0.356223	-0.093257
H75	H	-1.309366	-0.245915	-0.029450
H76	H	-1.329276	-0.392427	-0.084058
O77	O	-1.374908	-0.355456	-0.141284
C78	C	-1.452925	-0.315910	-0.063369
H79	H	-1.451915	-0.384113	-0.015945
H80	H	-1.434900	-0.236749	-0.007066
H81	H	-1.535046	-0.294891	-0.104089
O82	O	-1.478679	-0.472330	-0.037240
C83	C	-1.445646	-0.501541	0.062364
H84	H	-1.355501	-0.533971	0.064771
H85	H	-1.467466	-0.423878	0.128844
H86	H	-1.487260	-0.570393	0.074021
O87	O	-1.433838	-0.705570	-0.082435
C88	C	-1.397563	-0.822711	-0.118741
H89	H	-1.315084	-0.838882	-0.152702
H90	H	-1.392734	-0.867701	-0.049278
H91	H	-1.455537	-0.856275	-0.183597
H92	H	-1.160293	-0.803479	-0.355824
H93	H	-1.064551	-0.696132	-0.451504
O94	O	-1.022584	-0.528059	-0.493204
C95	C	-0.939287	-0.596507	-0.443879
H96	H	-0.969489	-0.614223	-0.369512
H97	H	-0.911032	-0.679731	-0.501928
H98	H	-0.869984	-0.550917	-0.420311
O99	O	-1.090093	-0.000140	0.419806
C100	C	-1.017184	-0.097526	0.372528
H101	H	-1.046930	-0.130003	0.287737
H102	H	-0.935723	-0.075620	0.370202
H103	H	-1.009943	-0.165700	0.421414
O104	O	-1.067614	-0.294461	-0.448337
C105	C	-1.103928	-0.177318	-0.412076
H106	H	-1.137943	-0.161157	-0.329625
H107	H	-1.034453	-0.132352	-0.407201
H108	H	-1.168749	-0.143722	-0.470081
O109	O	-1.411412	0.000198	0.049312
C110	C	-1.484314	0.097563	0.096640
H111	H	-1.438833	0.165613	0.138006
H112	H	-1.541670	0.130253	0.032377
H113	H	-1.531390	0.075557	0.157805
O114	O	-1.486488	0.000058	0.216526
C115	C	-1.561227	0.000030	0.290942
H116	H	-1.531417	0.035622	0.374863
H117	H	-1.641248	0.054616	0.271968
H118	H	-1.571453	-0.090167	0.286168
O119	O	-1.461333	0.000214	0.432072
C120	C	-1.478336	0.097573	0.514264
H121	H	-1.441850	0.165627	0.492653
H122	H	-1.567740	0.130262	0.524490
H123	H	-1.439168	0.075558	0.592111
O124	O	-1.015201	0.000138	0.252971
C125	C	-1.020944	0.097526	0.334761
H126	H	-1.107018	0.129999	0.360040
H127	H	-0.967945	0.075625	0.406178
H128	H	-0.992512	0.165702	0.304206
