data_functionalizedCrystal
_audit_creation_method	'MofGen! by Chris Wilmer'
_symmetry_space_group_name_H-M	'P1'
_symmetry_Int_Tables_number	1
_symmetry_cell_setting	triclinic
loop_
_symmetry_equiv_pos_as_xyz
  x,y,z
_cell_length_a	6.817900
_cell_length_b	9.582860
_cell_length_c	16.305550
_cell_angle_alpha	93.101780
_cell_angle_beta	103.455250
_cell_angle_gamma	111.206767
loop_
_atom_site_label
_atom_site_type_symbol
_atom_site_fract_x
_atom_site_fract_y
_atom_site_fract_z
V1	V	-4.066500	-0.208318	-0.262876
O2	O	-4.012158	0.008711	-0.258031
O3	O	-4.057274	-0.411809	-0.260925
O4	O	-4.017397	-0.205684	-0.377595
O5	O	-4.052310	-0.198842	-0.140553
V6	V	-4.545144	-0.182291	-0.248264
O7	O	-4.338463	-0.265409	-0.294929
O8	O	-4.723378	-0.125200	-0.216211
O9	O	-4.331164	0.021200	-0.250215
O10	O	-4.716883	-0.399320	-0.253109
O11	O	-4.676731	-0.191767	-0.370586
O12	O	-4.371040	-0.184925	-0.133545
C13	C	-3.911827	-0.461398	-0.256738
C14	C	-3.985565	-0.627759	-0.255908
C15	C	-3.860960	-0.198463	-0.405561
C16	C	-3.902355	-0.197656	-0.499344
C17	C	-4.052838	-0.194528	-0.840092
C18	C	-3.814995	-0.185242	-0.799170
C19	C	-3.772084	-0.186701	-0.701674
C20	C	-3.978180	-0.196079	-0.671043
C21	C	-4.173773	-0.343876	-0.721559
C22	C	-4.215475	-0.343040	-0.819109
C23	C	-4.081056	-0.057197	-0.794351
C24	C	-4.032900	-0.056027	-0.696509
C25	C	-3.936001	-0.196961	-0.575504
C26	C	-4.095028	-0.193656	-0.935631
C27	C	-4.139954	0.070781	-0.254399
C28	C	-4.045455	0.237140	-0.255235
C29	C	-4.190821	-0.192151	-0.105574
C30	C	-4.128662	-0.192951	-0.011790
H31	H	-3.625052	-0.080435	-0.666730
C32	C	-4.193762	-0.483481	-0.860049
N33	N	-4.177394	-0.589260	-0.890880
H34	H	-3.688225	-0.078474	-0.811613
H35	H	-3.724943	-0.286506	-0.685306
C36	C	-4.453705	-0.360562	-0.856915
N37	N	-4.633144	-0.373777	-0.885388
H38	H	-4.254181	-0.062685	-0.821163
H39	H	-4.138434	-0.447867	-0.704669
H40	H	-3.890729	0.053292	-0.662212
C41	C	-4.383869	-0.360378	-0.695995
N42	N	-4.542111	-0.372804	-0.676737
H43	H	-3.788971	-0.283908	-0.830608
H44	H	-3.968014	0.054788	-0.807802
H45	H	-4.179833	-0.054188	-0.675163
