data_functionalizedCrystal
_audit_creation_method	'MofGen! by Chris Wilmer'
_symmetry_space_group_name_H-M	'P1'
_symmetry_Int_Tables_number	1
_symmetry_cell_setting	triclinic
loop_
_symmetry_equiv_pos_as_xyz
  x,y,z
_cell_length_a	11.792254
_cell_length_b	17.019294
_cell_length_c	10.868271
_cell_angle_alpha	86.115896
_cell_angle_beta	89.995741
_cell_angle_gamma	83.795489
loop_
_atom_site_label
_atom_site_type_symbol
_atom_site_fract_x
_atom_site_fract_y
_atom_site_fract_z
O1	O	1.505767	0.108168	-0.113780
O2	O	2.005767	0.608168	0.386220
O3	O	1.175311	0.119300	-0.114962
O4	O	1.675311	0.619300	0.385038
O5	O	1.349758	-0.001059	-0.102202
O6	O	1.849758	0.498941	0.397798
O7	O	1.331321	0.228527	-0.126540
O8	O	1.831321	0.728527	0.373460
O9	O	1.349743	-0.001064	0.102443
O10	O	1.849743	0.498936	0.602443
O11	O	1.175297	0.119295	0.089683
O12	O	1.675297	0.619295	0.589683
O13	O	1.505753	0.108163	0.090865
O14	O	2.005753	0.608163	0.590865
Zn15	Zn	1.340523	0.113728	0.122766
Zn16	Zn	1.840523	0.613728	0.622766
Zn17	Zn	1.340541	0.113735	-0.146863
Zn18	Zn	1.840541	0.613735	0.353137
O19	O	1.331306	0.228522	0.078105
O20	O	1.831306	0.728522	0.578105
C21	C	1.133021	0.118596	-0.012566
C22	C	1.633021	0.618596	0.487434
C23	C	1.007030	0.116497	-0.012344
C24	C	1.507030	0.616497	0.487656
C25	C	0.904711	0.114792	-0.012168
C26	C	1.404711	0.614792	0.487832
C27	C	0.776347	0.112659	-0.011943
C28	C	1.276347	0.612659	0.488057
C29	C	1.349051	-0.030454	0.003234
C30	C	1.849051	0.469546	0.503234
C31	C	1.346954	-0.118033	0.012510
C32	C	1.846954	0.381967	0.512510
C33	C	1.345979	-0.159171	-0.094684
C34	C	1.845979	0.340829	0.405316
C35	C	1.344001	-0.241461	-0.085964
C36	C	1.844001	0.258539	0.414036
C37	C	1.343006	-0.282612	0.029950
C38	C	1.843006	0.217388	0.529950
C39	C	1.343978	-0.241468	0.137152
C40	C	1.843978	0.258532	0.637152
C41	C	1.345948	-0.159179	0.128431
C42	C	1.845948	0.340821	0.628431
C43	C	1.337051	-0.531071	0.061863
C44	C	1.837051	-0.031071	0.561863
C45	C	1.335085	-0.613366	0.070576
C46	C	1.835085	-0.113366	0.570576
C47	C	1.335106	-0.613353	-0.152541
C48	C	1.835106	-0.113353	0.347459
C49	C	1.337083	-0.531063	-0.161251
C50	C	1.837083	-0.031063	0.338749
C51	C	1.338048	-0.489926	-0.054050
C52	C	1.838048	0.010074	0.445950
C53	C	1.340988	-0.366725	0.038866
C54	C	1.840988	0.133275	0.538866
C55	C	1.340058	-0.405813	-0.062967
C56	C	1.840058	0.094187	0.437033
C57	C	1.548043	0.108866	-0.011534
C58	C	2.048043	0.608866	0.488466
C59	C	1.674034	0.110966	-0.011764
C60	C	2.174034	0.610966	0.488236
C61	C	1.332013	0.257917	-0.027333
C62	C	1.832013	0.757917	0.472667
C63	C	1.334110	0.345496	-0.036617
C64	C	1.834110	0.845496	0.463383
N65	N	1.340518	0.113724	0.306781
N66	N	1.840518	0.613724	0.806781
N67	N	1.340555	0.113733	-0.330877
N68	N	1.840555	0.613733	0.169123
C69	C	1.340536	0.113733	0.557786
C70	C	1.840536	0.613733	1.057786
C71	C	1.340522	0.113730	0.418108
C72	C	1.840522	0.613730	0.918108
H73	H	1.346795	-0.125673	-0.189074
H74	H	1.846795	0.374327	0.310926
Cl75	Cl	1.333890	-0.665073	-0.287299
Cl76	Cl	1.833890	-0.165073	0.212701
H77	H	1.337860	-0.497589	0.149154
H78	H	1.837860	0.002411	0.649154
Cl79	Cl	1.347172	-0.107462	0.263194
Cl80	Cl	1.847172	0.392538	0.763194
Cl81	Cl	1.342714	-0.293199	0.282874
Cl82	Cl	1.842714	0.206801	0.782874
Cl83	Cl	1.338336	-0.479337	-0.306978
Cl84	Cl	1.838336	0.020663	0.193022
Cl85	Cl	1.341315	-0.354080	-0.208683
Cl86	Cl	1.841315	0.145920	0.291317
H87	H	1.343212	-0.274952	-0.173252
H88	H	1.843212	0.225048	0.326748
H89	H	1.334269	-0.646868	0.164972
H90	H	1.834269	-0.146868	0.664972
Cl91	Cl	1.339732	-0.418464	0.184583
Cl92	Cl	1.839732	0.081536	0.684583
