data_functionalizedCrystal
_audit_creation_method	'MofGen! by Chris Wilmer'
_symmetry_space_group_name_H-M	'P1'
_symmetry_Int_Tables_number	1
_symmetry_cell_setting	triclinic
loop_
_symmetry_equiv_pos_as_xyz
  x,y,z
_cell_length_a	10.654551
_cell_length_b	10.654551
_cell_length_c	9.730223
_cell_angle_alpha	90.001469
_cell_angle_beta	90.000351
_cell_angle_gamma	84.485316
loop_
_atom_site_label
_atom_site_type_symbol
_atom_site_fract_x
_atom_site_fract_y
_atom_site_fract_z
O1	O	1.667834	0.176398	-0.114263
O2	O	1.302356	0.193203	-0.114269
O3	O	1.493497	0.002062	-0.114266
O4	O	1.476693	0.367540	-0.114265
O5	O	1.493495	0.002067	0.114314
O6	O	1.302354	0.193208	0.114311
O7	O	1.667832	0.176403	0.114317
Zn8	Zn	1.485092	0.184807	0.150606
Zn9	Zn	1.485095	0.184800	-0.150558
O10	O	1.476690	0.367545	0.114315
C11	C	1.255557	0.191972	0.000020
C12	C	1.116113	0.188279	0.000018
C13	C	1.492262	-0.044734	0.000020
C14	C	1.488569	-0.184177	0.000011
C15	C	0.919580	0.183064	0.124618
C16	C	1.050601	0.186545	0.124619
C17	C	1.050597	0.186546	-0.124592
C18	C	0.919578	0.183075	-0.124591
C19	C	0.854076	0.181317	0.249227
C20	C	0.919583	0.183052	0.373837
C21	C	1.050603	0.186533	0.373838
C22	C	1.116117	0.188278	0.249228
C23	C	1.486838	-0.249692	-0.124585
C24	C	1.483358	-0.380712	-0.124579
C25	C	1.483345	-0.380692	0.124631
C26	C	1.486817	-0.249673	0.124624
C27	C	1.488591	-0.184195	-0.249198
C28	C	1.486862	-0.249710	-0.373804
C29	C	1.483381	-0.380731	-0.373798
C30	C	1.481631	-0.446236	-0.249185
C31	C	1.714631	0.177635	0.000025
C32	C	1.854074	0.181327	0.000018
C33	C	1.477926	0.414340	0.000025
C34	C	1.481618	0.553784	0.000025
N35	N	1.485100	0.184810	0.356143
N36	N	1.485098	0.184787	-0.356094
C37	C	1.569759	0.100202	0.428070
C38	C	1.569756	0.100186	0.571953
C39	C	1.400429	0.269399	0.571969
C40	C	1.400428	0.269407	0.428088
C41	C	1.654431	0.015604	0.356124
C42	C	1.739098	-0.069010	0.428051
C43	C	1.739095	-0.069026	0.571934
C44	C	1.654424	0.015574	0.643890
H45	H	0.866232	0.181642	0.475290
N46	N	1.121247	0.188408	0.508237
H47	H	1.185115	0.112135	0.513790
H48	H	1.166020	0.267617	0.513721
H49	H	1.222801	0.191127	0.249239
H50	H	1.478779	-0.552920	-0.249190
N51	N	1.481476	-0.451340	0.259027
H52	H	1.479022	-0.544282	0.240125
H53	H	1.559805	-0.437932	0.313429
N54	N	1.309112	0.360640	0.649571
H55	H	1.321961	0.347797	0.751633
H56	H	1.324387	0.449875	0.624430
N57	N	1.309115	0.360657	0.350497
H58	H	1.255482	0.414254	0.417905
H59	H	1.357672	0.416631	0.290803
H60	H	1.491429	-0.077512	-0.249217
H61	H	1.808027	-0.137895	0.369457
H62	H	1.488199	-0.196326	0.226081
H63	H	1.808025	-0.137930	0.630496
N64	N	0.712765	0.177553	0.249226
H65	H	0.681205	0.176707	0.347068
H66	H	0.671792	0.254437	0.200248
H67	H	1.103949	0.187966	-0.226043
N68	N	1.654403	0.015564	0.799078
H69	H	1.635394	-0.069941	0.833724
H70	H	1.739901	0.034681	0.833637
N71	N	1.654425	0.015605	0.200938
H72	H	1.587942	0.082040	0.166289
H73	H	1.739951	0.034640	0.166390
N74	N	0.848904	0.181199	-0.258970
H75	H	0.862198	0.259519	-0.313446
H76	H	0.881233	0.104035	-0.313342
N77	N	1.488662	-0.179010	-0.508172
H78	H	1.567798	-0.134123	-0.513759
H79	H	1.486957	-0.240430	-0.587058
N80	N	1.481585	-0.451405	-0.508185
H81	H	1.483250	-0.390032	-0.587122
H82	H	1.557890	-0.515243	-0.513540
