data_functionalizedCrystal
_audit_creation_method	'MofGen! by Chris Wilmer'
_symmetry_space_group_name_H-M	'P1'
_symmetry_Int_Tables_number	1
_symmetry_cell_setting	triclinic
loop_
_symmetry_equiv_pos_as_xyz
  x,y,z
_cell_length_a	16.959455
_cell_length_b	15.297327
_cell_length_c	15.296720
_cell_angle_alpha	107.319222
_cell_angle_beta	99.656931
_cell_angle_gamma	99.704834
loop_
_atom_site_label
_atom_site_type_symbol
_atom_site_fract_x
_atom_site_fract_y
_atom_site_fract_z
Zn1	Zn	1.048915	-0.461307	-0.589952
Zn2	Zn	1.048826	-0.589929	-0.461346
Zn3	Zn	0.944405	-0.434427	-0.434457
Zn4	Zn	0.889053	-0.616759	-0.616772
O5	O	0.982800	-0.525605	-0.525632
O6	O	1.159507	-0.478390	-0.572920
O7	O	1.058101	-0.546823	-0.327658
O8	O	0.981471	-0.307858	-0.432607
O9	O	1.159441	-0.572888	-0.478434
O10	O	1.058254	-0.327606	-0.546848
O11	O	0.981383	-0.432577	-0.307903
O12	O	0.826459	-0.458592	-0.458613
O13	O	0.887132	-0.618615	-0.743336
O14	O	0.785793	-0.592551	-0.592559
O15	O	1.004582	-0.504406	-0.723631
O16	O	1.004429	-0.723623	-0.504441
O17	O	0.887045	-0.743335	-0.618632
C18	C	0.939739	-0.767225	-0.567385
C19	C	0.921384	-0.870596	-0.585278
C20	C	0.777447	-0.525567	-0.525580
C21	C	0.689589	-0.525577	-0.525583
C22	C	1.114254	-1.120833	-0.398064
C23	C	1.131500	-1.023710	-0.381247
C24	C	1.078973	-0.985427	-0.432254
C25	C	1.009196	-1.044276	-0.500079
C26	C	0.991945	-1.141408	-0.516892
C27	C	0.956664	-1.006001	-0.551082
C28	C	0.886888	-1.064851	-0.618907
C29	C	0.869640	-1.161973	-0.635717
C30	C	0.922167	-1.200256	-0.584711
C31	C	0.973915	-0.908870	-0.534269
C32	C	0.851606	-0.929444	-0.653097
C33	C	0.834361	-1.026568	-0.669913
C34	C	0.318072	-0.574746	-0.476392
C35	C	0.318097	-0.476561	-0.574998
C36	C	0.400649	-0.476542	-0.574972
C37	C	0.441917	-0.525627	-0.525657
C38	C	0.400632	-0.574731	-0.476368
C39	C	0.441938	-0.427447	-0.624269
C40	C	0.524496	-0.427427	-0.624247
C41	C	0.565766	-0.476506	-0.574926
C42	C	0.524476	-0.525611	-0.525633
C43	C	0.565744	-0.574696	-0.476318
C44	C	0.524457	-0.623796	-0.427019
C45	C	0.441903	-0.623811	-0.427047
C46	C	0.648321	-0.476492	-0.574898
C47	C	0.648304	-0.574681	-0.476293
C48	C	1.188954	-0.525645	-0.525685
C49	C	1.276805	-0.525662	-0.525707
C50	C	0.939693	-0.567502	-0.768165
C51	C	0.921324	-0.585356	-0.871519
C52	C	1.026047	-0.283046	-0.483736
C53	C	1.044476	-0.179682	-0.465883
C54	C	1.114148	-0.397839	-1.121819
C55	C	1.131412	-0.381066	-1.024714
C56	C	1.078891	-0.432136	-0.986410
C57	C	1.009104	-0.499984	-1.045222
C58	C	0.991842	-0.516763	-1.142338
C59	C	0.956585	-0.551061	-1.006929
C60	C	0.886798	-0.618908	-1.065740
C61	C	0.869539	-0.635685	-1.162846
C62	C	0.922059	-0.584614	-1.201150
C63	C	0.973847	-0.534281	-0.909813
C64	C	0.851541	-0.653206	-0.930331
C65	C	0.834277	-0.669979	-1.027437
C66	C	1.025796	-0.483805	-0.284030
C67	C	1.044365	-0.465689	-0.180632
H68	H	1.093018	-0.906344	-0.418557
H69	H	0.681932	-0.436518	-0.615039
H70	H	0.408280	-0.663785	-0.386910
N71	N	0.794942	-0.888166	-0.708112
H72	H	0.816459	-0.817708	-0.687172
H73	H	0.792382	-0.916580	-0.777469
H74	H	0.808775	-0.694794	-0.899146
H75	H	0.777548	-1.074496	-0.725137
N76	N	1.170794	-0.342768	-1.163132
H77	H	1.149269	-0.363697	-1.233575
H78	H	1.173355	-0.273415	-1.134690
H79	H	0.558066	-0.663767	-0.386873
H80	H	0.777456	-0.725221	-1.075334
H81	H	1.030668	-0.479039	-0.861937
H82	H	1.188310	-0.975798	-0.326024
H83	H	0.812816	-1.209885	-0.690934
H84	H	0.558104	-0.387446	-0.664388
H85	H	1.092952	-0.418476	-0.907342
H86	H	1.030727	-0.860963	-0.479045
N87	N	1.170891	-1.162120	-0.343040
H88	H	1.149370	-1.232578	-0.363979
H89	H	1.227780	-1.147607	-0.354618
H90	H	0.284454	-0.614719	-0.436251
H91	H	0.908131	-1.279342	-0.598401
N92	N	1.206678	-0.307897	-0.961285
H93	H	1.237329	-0.278088	-1.000283
H94	H	1.189343	-0.257892	-0.913550
H95	H	0.681899	-0.614648	-0.436131
N96	N	0.903421	-0.602682	-1.305884
H97	H	0.947275	-0.560022	-1.321219
H98	H	0.902391	-0.670536	-1.340256
N99	N	0.794277	-0.708871	-1.226283
H100	H	0.763624	-0.738678	-1.187286
H101	H	0.757289	-0.677970	-1.260029
H102	H	0.284490	-0.436605	-0.615154
H103	H	0.408330	-0.387492	-0.664425
