data_functionalizedCrystal
_audit_creation_method	'MofGen! by Chris Wilmer'
_symmetry_space_group_name_H-M	'P1'
_symmetry_Int_Tables_number	1
_symmetry_cell_setting	triclinic
loop_
_symmetry_equiv_pos_as_xyz
  x,y,z
_cell_length_a	14.044191
_cell_length_b	11.792241
_cell_length_c	10.868271
_cell_angle_alpha	90.005281
_cell_angle_beta	89.998192
_cell_angle_gamma	91.307404
loop_
_atom_site_label
_atom_site_type_symbol
_atom_site_fract_x
_atom_site_fract_y
_atom_site_fract_z
O1	O	1.259115	-0.273808	-0.102263
O2	O	1.509115	-0.023808	0.147737
O3	O	1.759115	0.226192	0.397737
O4	O	2.009115	0.476192	0.647737
O5	O	0.983095	-0.263921	-0.102279
O6	O	1.233095	-0.013921	0.147721
O7	O	1.483095	0.236079	0.397721
O8	O	1.733095	0.486079	0.647721
O9	O	1.127803	-0.104323	-0.102262
O10	O	1.377803	0.145677	0.147738
O11	O	1.627803	0.395677	0.397738
O12	O	1.877803	0.645677	0.647738
O13	O	1.114407	-0.433406	-0.102280
O14	O	1.364407	-0.183406	0.147720
O15	O	1.614407	0.066594	0.397720
O16	O	1.864407	0.316594	0.647720
O17	O	1.127791	-0.104315	0.102383
O18	O	1.377791	0.145685	0.352383
O19	O	1.627791	0.395685	0.602383
O20	O	1.877791	0.645685	0.852383
O21	O	0.983083	-0.263913	0.102366
O22	O	1.233083	-0.013913	0.352366
O23	O	1.483083	0.236087	0.602366
O24	O	1.733083	0.486087	0.852366
O25	O	1.259103	-0.273801	0.102381
O26	O	1.509103	-0.023801	0.352381
O27	O	1.759103	0.226199	0.602381
O28	O	2.009103	0.476199	0.852381
Zn29	Zn	1.121091	-0.268856	0.134865
Zn30	Zn	1.371091	-0.018856	0.384865
Zn31	Zn	1.621091	0.231144	0.634865
Zn32	Zn	1.871091	0.481144	0.884865
Zn33	Zn	1.121107	-0.268866	-0.134763
Zn34	Zn	1.371107	-0.018866	0.115237
Zn35	Zn	1.621107	0.231134	0.365237
Zn36	Zn	1.871107	0.481134	0.615237
O37	O	1.114395	-0.433398	0.102364
O38	O	1.364395	-0.183398	0.352364
O39	O	1.614395	0.066602	0.602364
O40	O	1.864395	0.316602	0.852364
C41	C	0.947752	-0.259592	0.000041
C42	C	1.197752	-0.009592	0.250041
C43	C	1.447752	0.240408	0.500041
C44	C	1.697752	0.490408	0.750041
C45	C	0.842460	-0.246689	0.000036
C46	C	1.092460	0.003311	0.250036
C47	C	1.342460	0.253311	0.500036
C48	C	1.592460	0.503311	0.750036
C49	C	0.592522	-0.314607	0.000044
C50	C	0.842522	-0.064607	0.250044
C51	C	1.092522	0.185393	0.500044
C52	C	1.342522	0.435393	0.750044
C53	C	0.649681	-0.223120	0.000047
C54	C	0.899681	0.026880	0.250047
C55	C	1.149681	0.276880	0.500047
C56	C	1.399681	0.526880	0.750047
C57	C	0.756953	-0.236237	0.000041
C58	C	1.006953	0.013763	0.250041
C59	C	1.256953	0.263763	0.500041
C60	C	1.506953	0.513763	0.750041
C61	C	0.485241	-0.301491	0.000051
C62	C	0.735241	-0.051491	0.250051
C63	C	0.985241	0.198509	0.500051
C64	C	1.235241	0.448509	0.750051
C65	C	1.126956	-0.061949	0.000060
C66	C	1.376956	0.188051	0.250060
C67	C	1.626956	0.438051	0.500060
C68	C	1.876956	0.688051	0.750060
C69	C	1.124437	0.064301	0.000058
C70	C	1.374437	0.314301	0.250058
C71	C	1.624437	0.564301	0.500058
C72	C	1.874437	0.814301	0.750058
C73	C	1.294446	-0.278130	0.000058
C74	C	1.544446	-0.028130	0.250058
C75	C	1.794446	0.221870	0.500058
C76	C	2.044446	0.471870	0.750058
C77	C	1.399738	-0.291032	0.000056
C78	C	1.649738	-0.041032	0.250056
C79	C	1.899738	0.208968	0.500056
C80	C	2.149738	0.458968	0.750056
C81	C	1.115242	-0.475772	0.000040
C82	C	1.365242	-0.225772	0.250040
C83	C	1.615242	0.024228	0.500040
C84	C	1.865242	0.274228	0.750040
C85	C	1.117761	-0.602023	0.000033
C86	C	1.367761	-0.352023	0.250033
C87	C	1.617761	-0.102023	0.500033
C88	C	1.867761	0.147977	0.750033
N89	N	1.121087	-0.268848	0.318879
N90	N	1.371087	-0.018848	0.568879
N91	N	1.621087	0.231152	0.818879
N92	N	1.871087	0.481152	1.068879
C93	C	1.119806	0.295448	0.000038
C94	C	1.369806	0.545448	0.250038
C95	C	1.619806	0.795448	0.500038
C96	C	1.869806	1.045448	0.750038
C97	C	1.122379	0.166821	0.000049
C98	C	1.372379	0.416821	0.250049
C99	C	1.622379	0.666821	0.500049
C100	C	1.872379	0.916821	0.750049
N101	N	1.121118	-0.268865	-0.318777
N102	N	1.371118	-0.018865	-0.068777
N103	N	1.621118	0.231135	0.181223
N104	N	1.871118	0.481135	0.431223
C105	C	1.121102	-0.268863	0.569885
C106	C	1.371102	-0.018863	0.819885
C107	C	1.621102	0.231137	1.069885
C108	C	1.871102	0.481137	1.319885
C109	C	1.121091	-0.268858	0.430208
C110	C	1.371091	-0.018858	0.680208
C111	C	1.621091	0.231142	0.930208
C112	C	1.871091	0.481142	1.180208
H113	H	0.624149	-0.402776	0.000036
H114	H	0.874149	-0.152776	0.250036
H115	H	1.124149	0.097224	0.500036
H116	H	1.374149	0.347224	0.750036
C117	C	0.637360	-0.045024	-0.105158
C118	C	0.887360	0.204976	0.144842
C119	C	1.137360	0.454976	0.394842
C120	C	1.387360	0.704976	0.644842
C121	C	0.606997	-0.104080	0.000044
C122	C	0.856997	0.145920	0.250044
C123	C	1.106997	0.395920	0.500044
C124	C	1.356997	0.645920	0.750044
H125	H	0.611010	0.028466	-0.105157
H126	H	0.861010	0.278466	0.144843
H127	H	1.111010	0.528466	0.394843
H128	H	1.361010	0.778466	0.644843
H129	H	0.616769	-0.085118	-0.176505
H130	H	0.866769	0.164882	0.073495
H131	H	1.116769	0.414882	0.323495
H132	H	1.366769	0.664882	0.573495
H133	H	0.704895	-0.038352	-0.105145
H134	H	0.954895	0.211648	0.144855
H135	H	1.204895	0.461648	0.394855
H136	H	1.454895	0.711648	0.644855
H137	H	0.539462	-0.110758	0.000027
H138	H	0.789462	0.139242	0.250027
H139	H	1.039462	0.389242	0.500027
H140	H	1.289462	0.639242	0.750027
H141	H	0.627583	-0.063975	0.071410
H142	H	0.877583	0.186025	0.321410
H143	H	1.127583	0.436025	0.571410
H144	H	1.377583	0.686025	0.821410
