data_functionalizedCrystal
_audit_creation_method	'MofGen! by Chris Wilmer'
_symmetry_space_group_name_H-M	'P1'
_symmetry_Int_Tables_number	1
_symmetry_cell_setting	triclinic
loop_
_symmetry_equiv_pos_as_xyz
  x,y,z
_cell_length_a	17.038272
_cell_length_b	16.109301
_cell_length_c	14.586319
_cell_angle_alpha	90.005214
_cell_angle_beta	89.998439
_cell_angle_gamma	92.713482
loop_
_atom_site_label
_atom_site_type_symbol
_atom_site_fract_x
_atom_site_fract_y
_atom_site_fract_z
O1	O	1.037364	-0.180538	-0.076209
O2	O	0.809734	-0.177672	-0.076219
O3	O	0.929802	-0.058518	-0.076204
O4	O	0.917296	-0.299692	-0.076223
O5	O	0.929794	-0.058516	0.076277
O6	O	0.809725	-0.177669	0.076262
O7	O	1.037356	-0.180536	0.076272
Cu8	Cu	0.923540	-0.179102	0.090190
Cu9	Cu	0.923550	-0.179105	-0.090137
O10	O	0.917287	-0.299690	0.076257
C11	C	0.780601	-0.175063	0.000021
C12	C	0.693808	-0.167284	0.000017
C13	C	1.066488	-0.183145	0.000031
C14	C	1.153281	-0.190924	0.000028
C15	C	0.929291	-0.027506	0.000037
C16	C	0.927773	0.064897	0.000038
C17	C	1.203396	-0.119503	0.000031
C18	C	1.284946	-0.126817	0.000033
C19	C	1.316381	-0.205553	0.000027
C20	C	1.266259	-0.276979	0.000027
C21	C	1.184710	-0.269664	0.000031
C22	C	1.562138	-0.231395	0.000021
C23	C	1.643694	-0.238705	0.000015
C24	C	1.662375	-0.088542	0.000023
C25	C	1.580824	-0.081234	0.000021
C26	C	1.530710	-0.152660	0.000026
C27	C	1.399738	-0.213031	0.000027
C28	C	1.447354	-0.145181	0.000032
C29	C	0.917798	-0.330702	0.000014
C30	C	0.919317	-0.423105	0.000007
N31	N	0.923539	-0.179100	0.217021
C32	C	0.995487	0.282360	0.000026
C33	C	0.994054	0.369183	0.000019
C34	C	0.851597	0.359425	0.000016
C35	C	0.853031	0.272605	0.000017
C36	C	0.924978	0.234075	0.000027
C37	C	0.922111	0.407718	0.000018
C38	C	0.920557	0.501854	0.000010
C39	C	0.926533	0.139932	0.000033
N40	N	0.923557	-0.179101	-0.216968
C41	C	0.976723	-0.126359	0.452034
C42	C	0.976725	-0.126357	0.548015
C43	C	0.870368	-0.231845	0.548012
C44	C	0.870362	-0.231842	0.452033
C45	C	0.923544	-0.179100	0.404046
C46	C	0.923552	-0.179101	0.596007
C47	C	0.923554	-0.179100	0.700074
C48	C	0.923541	-0.179100	0.299972
H49	H	1.177809	-0.055388	0.000030
Br50	Br	0.757333	0.207068	0.000006
Br51	Br	0.753958	0.411722	0.000000
Br52	Br	1.442405	-0.319884	0.000009
H53	H	1.291859	-0.341087	0.000027
Br54	Br	0.798196	-0.303421	0.613140
Br55	Br	1.048896	-0.054780	0.386913
H56	H	0.827054	-0.274790	0.412958
H57	H	1.051470	0.408493	0.000016
Br58	Br	1.048895	-0.054773	0.613141
H59	H	1.521345	-0.289556	0.000020
H60	H	1.325747	-0.068658	0.000039
H61	H	1.555237	-0.017120	0.000026
H62	H	1.669283	-0.302824	0.000022
Br63	Br	1.730390	0.008387	0.000021
Br64	Br	1.404692	-0.038329	0.000049
Br65	Br	1.093130	0.230072	0.000040
Br66	Br	1.116696	-0.366596	0.000038
