data_functionalizedCrystal
_audit_creation_method	'MofGen! by Chris Wilmer'
_symmetry_space_group_name_H-M	'P1'
_symmetry_Int_Tables_number	1
_symmetry_cell_setting	triclinic
loop_
_symmetry_equiv_pos_as_xyz
  x,y,z
_cell_length_a	10.654554
_cell_length_b	16.109304
_cell_length_c	9.730223
_cell_angle_alpha	90.001479
_cell_angle_beta	89.999030
_cell_angle_gamma	83.974740
loop_
_atom_site_label
_atom_site_type_symbol
_atom_site_fract_x
_atom_site_fract_y
_atom_site_fract_z
O1	O	1.666248	0.116789	-0.114305
O2	O	2.166248	0.616789	0.385695
O3	O	1.300619	0.127910	-0.114301
O4	O	1.800619	0.627910	0.385699
O5	O	1.493476	0.001379	-0.114304
O6	O	1.993476	0.501379	0.385696
O7	O	1.473391	0.243321	-0.114302
O8	O	1.973391	0.743321	0.385698
O9	O	1.493474	0.001382	0.114276
O10	O	1.993474	0.501382	0.614276
O11	O	1.300617	0.127913	0.114279
O12	O	1.800617	0.627913	0.614279
O13	O	1.666246	0.116792	0.114275
O14	O	2.166246	0.616792	0.614275
Zn15	Zn	1.483431	0.122353	0.150569
Zn16	Zn	1.983431	0.622353	0.650569
Zn17	Zn	1.483434	0.122349	-0.150595
Zn18	Zn	1.983434	0.622349	0.349405
O19	O	1.473389	0.243324	0.114278
O20	O	1.973389	0.743324	0.614278
C21	C	1.253832	0.127094	-0.000011
C22	C	1.753832	0.627094	0.499989
C23	C	1.114422	0.124649	-0.000010
C24	C	1.614422	0.624649	0.499990
C25	C	1.492661	-0.029600	-0.000017
C26	C	1.992661	0.470400	0.499983
C27	C	1.490220	-0.121909	-0.000026
C28	C	1.990220	0.378091	0.499974
C29	C	0.932932	0.045550	-0.000029
C30	C	1.432932	0.545550	0.499971
C31	C	1.063922	0.047848	-0.000015
C32	C	1.563922	0.547848	0.499985
C33	C	1.033923	0.199158	-0.000006
C34	C	1.533923	0.699158	0.499994
C35	C	0.902935	0.196860	-0.000010
C36	C	1.402935	0.696860	0.499990
C37	C	0.950253	-0.041807	-0.000040
C38	C	1.450253	0.458193	0.499960
C39	C	1.081243	-0.039510	-0.000026
C40	C	1.581243	0.460490	0.499974
C41	C	1.484581	-0.334282	-0.124620
C42	C	1.984581	0.165718	0.375380
C43	C	1.482276	-0.421016	-0.124619
C44	C	1.982276	0.078984	0.375381
C45	C	1.482280	-0.421009	0.124591
C46	C	1.982280	0.078991	0.624591
C47	C	1.484576	-0.334276	0.124589
C48	C	1.984576	0.165724	0.624589
C49	C	1.485733	-0.290915	-0.000021
C50	C	1.985733	0.209085	0.499979
C51	C	1.481132	-0.464382	-0.000017
C52	C	1.981132	0.035618	0.499983
C53	C	1.478633	-0.558423	-0.000015
C54	C	1.978633	-0.058423	0.499985
C55	C	1.488230	-0.196869	-0.000024
C56	C	1.988230	0.303131	0.499976
C57	C	1.713034	0.117608	-0.000018
C58	C	2.213034	0.617608	0.499982
C59	C	1.852443	0.120053	-0.000028
C60	C	2.352443	0.620053	0.499972
C61	C	1.474204	0.274302	-0.000012
C62	C	1.974204	0.774302	0.499988
C63	C	1.476645	0.366612	-0.000012
C64	C	1.976645	0.866612	0.499988
N65	N	1.483438	0.122356	0.356105
N66	N	1.983438	0.622356	0.856105
N67	N	1.483437	0.122340	-0.356132
N68	N	1.983437	0.622340	0.143868
C69	C	1.568857	0.066347	0.428030
C70	C	2.068857	0.566347	0.928030
C71	C	1.568854	0.066336	0.571913
C72	C	2.068854	0.566336	1.071913
C73	C	1.398009	0.178352	0.571933
C74	C	1.898009	0.678352	1.071933
C75	C	1.398007	0.178357	0.428053
C76	C	1.898007	0.678357	0.928053
C77	C	1.667496	0.001678	0.428019
C78	C	2.167496	0.501678	0.928019
C79	C	1.667493	0.001668	0.571902
C80	C	2.167493	0.501668	1.071902
H81	H	0.837405	0.257527	0.000006
H82	H	1.337405	0.757527	0.500006
O83	O	1.481030	-0.467795	-0.259005
O84	O	1.981030	0.032205	0.240995
H85	H	1.394429	-0.500382	-0.264952
H86	H	1.894429	-0.000382	0.235048
H87	H	1.481341	-0.456325	0.226044
H88	H	1.981341	0.043675	0.726044
H89	H	1.485507	-0.298966	0.226058
H90	H	1.985507	0.201034	0.726058
H91	H	1.646919	-0.062226	0.388965
H92	H	2.146919	0.437774	0.888965
O93	O	1.787920	0.028482	0.368885
O94	O	2.287920	0.528482	0.868885
H95	H	1.851768	0.042687	0.453892
H96	H	2.351768	0.542687	0.953892
O97	O	1.305882	0.238765	0.649526
O98	O	1.805882	0.738765	1.149526
H99	H	1.244865	0.203395	0.715084
H100	H	1.744865	0.703395	1.215084
O101	O	1.305861	0.238756	0.350473
O102	O	1.805861	0.738756	0.850473
H103	H	1.358688	0.279495	0.284913
H104	H	1.858688	0.779495	0.784913
H105	H	1.637798	-0.058721	0.616518
H106	H	2.137798	0.441279	1.116518
O107	O	1.088378	0.281998	0.000013
O108	O	1.588378	0.781998	0.500013
H109	H	1.147338	0.286672	-0.093151
H110	H	1.647338	0.786672	0.406849
O111	O	1.795061	0.020555	0.623648
O112	O	2.295061	0.520555	1.123648
H113	H	1.837475	-0.032439	0.686992
H114	H	2.337475	0.467561	1.186992
O115	O	0.911948	-0.087051	0.126665
O116	O	1.411948	0.412949	0.626665
H117	H	0.997077	-0.107372	0.188710
H118	H	1.497077	0.392628	0.688710
H119	H	1.127238	-0.065907	0.098673
H120	H	1.627238	0.434093	0.598673
O121	O	0.903559	-0.078674	-0.130760
O122	O	1.403559	0.421326	0.369240
H123	H	0.928227	-0.040490	-0.219797
H124	H	1.428227	0.459510	0.280203
O125	O	1.137173	-0.083106	-0.126727
O126	O	1.637173	0.416894	0.373273
H127	H	1.096065	-0.051025	-0.219822
H128	H	1.596065	0.448975	0.280178
O129	O	1.485805	-0.287508	-0.259013
O130	O	1.985805	0.212492	0.240987
H131	H	1.484601	-0.332237	-0.345653
H132	H	1.984601	0.167763	0.154347
