data_functionalizedCrystal
_audit_creation_method	'MofGen! by Chris Wilmer'
_symmetry_space_group_name_H-M	'P1'
_symmetry_Int_Tables_number	1
_symmetry_cell_setting	triclinic
loop_
_symmetry_equiv_pos_as_xyz
  x,y,z
_cell_length_a	12.759395
_cell_length_b	12.759400
_cell_length_c	12.759393
_cell_angle_alpha	90.031564
_cell_angle_beta	90.019299
_cell_angle_gamma	90.016221
loop_
_atom_site_label
_atom_site_type_symbol
_atom_site_fract_x
_atom_site_fract_y
_atom_site_fract_z
Zn1	Zn	1.606256	-0.418161	0.594004
Zn2	Zn	1.606151	-0.593880	0.418324
Zn3	Zn	1.430558	-0.418220	0.418341
Zn4	Zn	1.430547	-0.593803	0.593963
O5	O	1.518378	-0.506016	0.506158
O6	O	1.753263	-0.441478	0.570710
O7	O	1.582818	-0.570635	0.271305
O8	O	1.453914	-0.271192	0.441667
O9	O	1.753186	-0.570578	0.441638
O10	O	1.582998	-0.271148	0.570726
O11	O	1.453811	-0.441579	0.271317
O12	O	1.283536	-0.441505	0.441627
O13	O	1.453895	-0.570447	0.740990
O14	O	1.283527	-0.570505	0.570656
O15	O	1.582987	-0.441404	0.741020
O16	O	1.582807	-0.740891	0.441599
O17	O	1.453792	-0.740835	0.570640
C18	C	1.245410	-0.506004	0.506140
C19	C	1.128634	-0.506023	0.506157
C20	C	1.518316	-0.778984	0.506136
C21	C	1.518385	-0.895760	0.506162
C22	C	1.585638	-0.950617	0.439044
C23	C	1.585702	-1.060341	0.439077
C24	C	1.451252	-1.060342	0.573347
C25	C	1.451194	-0.950620	0.573319
C26	C	1.663259	-0.950617	0.361521
C27	C	1.663323	-1.060341	0.361553
C28	C	1.128664	-0.640568	0.640297
C29	C	1.073818	-0.707849	0.707371
C30	C	0.964096	-0.707862	0.707384
C31	C	0.909218	-0.640584	0.640318
C32	C	0.964064	-0.573304	0.573245
C33	C	1.073788	-0.573300	0.573237
C34	C	0.964034	-0.438755	0.439111
C35	C	1.073755	-0.438746	0.439092
C36	C	0.909156	-0.371477	0.372046
C37	C	0.964001	-0.304200	0.304966
C38	C	1.073730	-0.304191	0.304955
C39	C	1.128601	-0.371465	0.372018
C40	C	1.792411	-0.506030	0.506177
C41	C	1.909188	-0.506036	0.506185
C42	C	1.518452	-0.505910	0.780191
C43	C	1.518483	-0.505865	0.896968
C44	C	1.518469	-0.231983	0.506203
C45	C	1.518508	-0.115206	0.506222
C46	C	1.518365	-0.506046	0.233191
C47	C	1.518537	-0.505795	0.116414
C48	C	1.585711	-0.438666	0.951847
C49	C	1.585736	-0.438628	1.061572
C50	C	1.451302	-0.572998	1.061527
C51	C	1.451272	-0.573030	0.951805
C52	C	1.663329	-0.361091	0.951874
C53	C	1.663353	-0.361053	1.061598
H54	H	1.396548	-1.105022	0.628025
H55	H	1.118512	-0.762623	0.761976
O56	O	0.790875	-0.640590	0.640345
H57	H	0.761929	-0.582504	0.582450
H58	H	1.740600	-0.390258	0.917839
H59	H	0.919441	-0.762643	0.762006
H60	H	1.396525	-0.627746	0.907127
O61	O	1.770999	-0.911048	0.390470
H62	H	1.823791	-0.978693	0.404677
O63	O	1.634493	-0.253320	0.912452
H64	H	1.634501	-0.253412	0.825461
H65	H	1.217942	-0.371467	0.372013
O66	O	1.132876	-0.231630	0.232596
H67	H	1.111836	-0.149197	0.250758
O68	O	1.624813	-0.258649	1.106714
H69	H	1.604364	-0.204384	1.041900
H70	H	1.396579	-0.627678	1.106189
H71	H	0.819814	-0.371488	0.372066
H72	H	0.919311	-0.249424	0.250372
H73	H	1.218005	-0.640573	0.640286
H74	H	1.744724	-0.382844	1.091378
H75	H	1.396441	-0.905957	0.627981
O76	O	1.624681	-0.905644	0.259095
H77	H	1.626216	-0.818766	0.263297
O78	O	1.765711	-1.105317	0.400255
H79	H	1.830441	-1.078414	0.348770
H80	H	1.641586	-1.090204	0.280173
