data_functionalizedCrystal
_audit_creation_method	'MofGen! by Chris Wilmer'
_symmetry_space_group_name_H-M	'P1'
_symmetry_Int_Tables_number	1
_symmetry_cell_setting	triclinic
loop_
_symmetry_equiv_pos_as_xyz
  x,y,z
_cell_length_a	27.732048
_cell_length_b	11.026607
_cell_length_c	10.066323
_cell_angle_alpha	79.266239
_cell_angle_beta	98.671396
_cell_angle_gamma	95.614336
loop_
_atom_site_label
_atom_site_type_symbol
_atom_site_fract_x
_atom_site_fract_y
_atom_site_fract_z
O1	O	-0.648397	-0.162063	0.113307
O2	O	-0.509574	-0.183988	0.113347
O3	O	-0.567480	0.003412	0.113325
O4	O	-0.590490	-0.349463	0.113328
O5	O	-0.578498	0.039288	-0.113653
O6	O	-0.520592	-0.148112	-0.113631
O7	O	-0.659415	-0.126187	-0.113671
Zn8	Zn	-0.591753	-0.131453	-0.149689
Zn9	Zn	-0.577236	-0.178722	0.149364
O10	O	-0.601508	-0.313587	-0.113650
C11	C	-0.568744	0.066481	-0.000161
C12	C	-0.556089	0.200956	-0.000153
C13	C	-0.497034	-0.165591	-0.000137
C14	C	-0.443254	-0.164208	-0.000121
C15	C	-0.671954	-0.144585	-0.000185
C16	C	-0.725734	-0.145969	-0.000191
C17	C	-0.113622	-0.266216	-0.000180
C18	C	0.088499	-0.261073	-0.000192
O19	O	0.111357	-0.354351	-0.000250
N20	N	0.117623	-0.149955	-0.000190
C21	C	0.096213	-0.040113	-0.000195
O22	O	0.125622	0.054520	-0.000208
C23	C	-0.105908	-0.045255	-0.000192
C24	C	-0.135029	-0.156383	-0.000180
C25	C	-0.142743	-0.377334	-0.000169
C26	C	-0.193270	-0.378620	-0.000158
C27	C	-0.214676	-0.268787	-0.000159
C28	C	-0.185556	-0.157668	-0.000169
C29	C	-0.127318	0.064587	-0.000207
C30	C	-0.177852	0.063292	-0.000210
C31	C	-0.206972	-0.047835	-0.000197
C32	C	-0.257489	-0.049121	-0.000159
N33	N	-0.286613	-0.160239	-0.000161
C34	C	-0.265207	-0.270072	-0.000160
C35	C	0.202329	-0.037422	-0.000193
C36	C	0.252860	-0.036136	-0.000192
C37	C	0.245142	-0.257097	-0.000191
C38	C	0.194612	-0.258382	-0.000183
C39	C	0.173206	-0.148540	-0.000195
C40	C	-0.371316	-0.272764	-0.000137
C41	C	-0.421847	-0.274041	-0.000121
C42	C	-0.414126	-0.053080	-0.000129
C43	C	-0.363599	-0.051804	-0.000138
C44	C	-0.342196	-0.161655	-0.000147
O45	O	-0.280381	0.044109	-0.000117
O46	O	-0.294625	-0.364687	-0.000178
C47	C	-0.063095	-0.264930	-0.000190
C48	C	-0.033975	-0.153812	-0.000201
C49	C	-0.055381	-0.043979	-0.000201
C50	C	0.016555	-0.152526	-0.000199
C51	C	0.037962	-0.262359	-0.000199
C52	C	0.008838	-0.373477	-0.000200
C53	C	-0.041689	-0.374763	-0.000190
C54	C	-0.026258	0.067140	-0.000200
C55	C	0.024269	0.068416	-0.000209
C56	C	0.045676	-0.041417	-0.000209
C57	C	-0.600244	-0.376656	-0.000161
C58	C	-0.612899	-0.511133	-0.000160
N59	N	-0.601663	-0.099193	-0.353785
C60	C	-0.591031	0.275418	-0.000161
C61	C	-0.577952	0.414406	-0.000152
C62	C	-0.580678	-0.167498	-0.421584
C63	C	-0.588317	-0.142657	-0.578744
N64	N	-0.567328	-0.210972	0.353460
H65	H	-0.445556	-0.364538	-0.000110
C66	C	-0.633576	0.004657	-0.432544
N67	N	-0.657612	0.082881	-0.491864
H68	H	0.170904	-0.348871	-0.000181
C69	C	-0.347780	-0.393607	-0.000139
N70	N	-0.330053	-0.484628	-0.000131
H71	H	-0.516490	0.240102	-0.000132
C72	C	-0.524453	0.467280	-0.000138
N73	N	-0.484159	0.507108	-0.000132
C74	C	-0.548765	-0.271348	-0.342825
N75	N	-0.524726	-0.349569	-0.283504
H76	H	0.262580	-0.346527	-0.000191
C77	C	-0.535413	-0.314827	-0.567789
N78	N	-0.511375	-0.393048	-0.508472
H79	H	0.184906	0.052031	-0.000203
H80	H	-0.611942	-0.065787	-0.637041
H81	H	-0.216976	-0.469111	-0.000148
H82	H	-0.125320	-0.466778	-0.000173
C83	C	0.284887	0.086111	-0.000196
N84	N	0.309009	0.178195	-0.000211
C85	C	-0.331565	0.070439	-0.000134
N86	N	-0.307440	0.162516	-0.000142
C87	C	-0.201394	0.184130	-0.000217
N88	N	-0.219126	0.275144	-0.000216
C89	C	-0.437684	0.067733	-0.000145
N90	N	-0.455430	0.158732	-0.000172
C91	C	-0.095297	0.186843	-0.000247
N92	N	-0.071181	0.278935	-0.000289
C93	C	0.032395	-0.494293	-0.000205
N94	N	0.050140	-0.585284	-0.000218
C95	C	-0.073716	-0.497011	-0.000192
N96	N	-0.097836	-0.589093	-0.000201
H97	H	0.047976	0.158914	-0.000208
H98	H	-0.043681	0.156581	-0.000204
H99	H	-0.630629	0.236273	-0.000181
H100	H	-0.652495	0.449711	-0.000069
