data_functionalizedCrystal
_audit_creation_method	'MofGen! by Chris Wilmer'
_symmetry_space_group_name_H-M	'P1'
_symmetry_Int_Tables_number	1
_symmetry_cell_setting	triclinic
loop_
_symmetry_equiv_pos_as_xyz
  x,y,z
_cell_length_a	17.699083
_cell_length_b	16.053802
_cell_length_c	17.699083
_cell_angle_alpha	92.559410
_cell_angle_beta	96.716985
_cell_angle_gamma	92.569971
loop_
_atom_site_label
_atom_site_type_symbol
_atom_site_fract_x
_atom_site_fract_y
_atom_site_fract_z
O1	O	1.007269	0.069313	-0.092524
O2	O	1.507269	0.569313	0.407476
O3	O	0.786892	0.069341	-0.104975
O4	O	1.286892	0.569341	0.395025
O5	O	0.903307	0.069319	0.011439
O6	O	1.403307	0.569319	0.511439
O7	O	0.890855	0.069335	-0.208938
O8	O	1.390855	0.569335	0.291062
O9	O	0.896899	-0.069539	0.005058
O10	O	1.396899	0.430461	0.505058
O11	O	0.780484	-0.069517	-0.111357
O12	O	1.280484	0.430483	0.388643
O13	O	1.000862	-0.069544	-0.098905
O14	O	1.500862	0.430456	0.401095
Zn15	Zn	0.889656	-0.091577	-0.106144
Zn16	Zn	1.389656	0.408423	0.393856
Zn17	Zn	0.898098	0.091374	-0.097736
Zn18	Zn	1.398098	0.591374	0.402264
O19	O	0.884447	-0.069522	-0.215320
O20	O	1.384447	0.430478	0.284680
C21	C	0.755492	-0.000084	-0.107720
C22	C	1.255492	0.499916	0.392280
C23	C	0.671474	-0.000074	-0.106380
C24	C	1.171474	0.499926	0.393620
N25	N	0.883899	-0.216436	-0.111882
N26	N	1.383899	0.283564	0.388118
C27	C	0.622853	-0.000069	-0.174714
C28	C	1.122853	0.499931	0.325286
C29	C	0.543909	-0.000080	-0.173452
C30	C	1.043909	0.499920	0.326548
C31	C	0.513588	-0.000090	-0.103856
C32	C	1.013588	0.499910	0.396144
C33	C	0.562215	-0.000097	-0.035518
C34	C	1.062215	0.499903	0.464482
C35	C	0.641157	-0.000092	-0.036780
C36	C	1.141157	0.499908	0.463220
C37	C	0.243851	-0.000118	-0.030423
C38	C	0.743851	0.499882	0.469577
C39	C	0.164903	-0.000121	-0.029166
C40	C	0.664903	0.499879	0.470834
C41	C	0.146603	-0.000106	-0.167095
C42	C	0.646603	0.499894	0.332905
C43	C	0.225545	-0.000101	-0.168358
C44	C	0.725545	0.499899	0.331642
C45	C	0.274165	-0.000113	-0.100020
C46	C	0.774165	0.499887	0.399980
C47	C	0.359765	-0.000103	-0.101389
C48	C	0.859765	0.499897	0.398611
C49	C	0.427990	-0.000094	-0.102486
C50	C	0.927990	0.499906	0.397514
C51	C	0.933452	-0.260140	-0.062365
C52	C	1.433452	0.239860	0.437635
C53	C	0.929432	-0.347546	-0.066386
C54	C	1.429432	0.152454	0.433614
C55	C	0.875864	-0.391247	-0.119927
C56	C	1.375864	0.108753	0.380073
C57	C	0.826306	-0.347537	-0.169447
C58	C	1.326306	0.152463	0.330553
C59	C	0.830322	-0.260133	-0.165422
C60	C	1.330322	0.239867	0.334578
C61	C	0.858319	-0.652653	-0.137487
C62	C	1.358319	-0.152653	0.362513
C63	C	0.854308	-0.740064	-0.141510
C64	C	1.354308	-0.240064	0.358490
C65	C	0.957434	-0.740066	-0.038447
C66	C	1.457434	-0.240066	0.461553
C67	C	0.961449	-0.652660	-0.034430
C68	C	1.461449	-0.152660	0.465570
C69	C	0.911888	-0.608958	-0.083947
C70	C	1.411888	-0.108958	0.416053
N71	N	0.871755	-0.480590	-0.124040
N72	N	1.371755	0.019410	0.375960
N73	N	0.915994	-0.519617	-0.079830
N74	N	1.415994	-0.019617	0.420170
C75	C	1.032262	-0.000117	-0.096161
C76	C	1.532262	0.499883	0.403839
C77	C	1.116280	-0.000122	-0.097500
C78	C	1.616280	0.499878	0.402500
C79	C	0.899657	-0.000110	0.036445
C80	C	1.399657	0.499890	0.536445
C81	C	0.898318	-0.000110	0.120464
C82	C	1.398318	0.499890	0.620464
N83	N	0.903860	0.216233	-0.091993
N84	N	1.403860	0.716233	0.408007
C85	C	0.888097	-0.000092	-0.240326
C86	C	1.388097	0.499908	0.259674
C87	C	0.889436	-0.000086	-0.324344
C88	C	1.389436	0.499914	0.175656
C89	C	0.966651	-0.000120	0.169084
C90	C	1.466651	0.499880	0.669084
C91	C	0.965389	-0.000112	0.248028
C92	C	1.465389	0.499888	0.748028
C93	C	0.895793	-0.000101	0.278349
C94	C	1.395793	0.499899	0.778349
C95	C	0.827455	-0.000089	0.229722
C96	C	1.327455	0.499911	0.729722
C97	C	0.828718	-0.000090	0.150781
C98	C	1.328718	0.499910	0.650781
C99	C	0.822360	-0.000081	0.548086
C100	C	1.322360	0.499919	1.048086
C101	C	0.821102	-0.000082	0.627034
C102	C	1.321102	0.499918	1.127034
C103	C	0.959031	-0.000103	0.645333
C104	C	1.459031	0.499897	1.145333
C105	C	0.960294	-0.000105	0.566391
C106	C	1.460294	0.499895	1.066391
C107	C	0.891957	-0.000088	0.517772
C108	C	1.391957	0.499912	1.017772
C109	C	0.893326	-0.000095	0.432172
C110	C	1.393326	0.499905	0.932172
C111	C	0.894423	-0.000100	0.363947
C112	C	1.394423	0.499900	0.863947
H113	H	0.647534	-0.000061	-0.231387
H114	H	1.147534	0.499939	0.268613
C115	C	0.258899	-0.000088	-0.244911
C116	C	0.758899	0.499912	0.255089
H117	H	0.312878	-0.000078	-0.235875
H118	H	0.812878	0.499922	0.264125
H119	H	0.239975	-0.048508	-0.275268
H120	H	0.739975	0.451492	0.224732
H121	H	0.244429	0.048344	-0.270812
H122	H	0.744429	0.548344	0.229188
C123	C	1.034205	-0.000112	0.698814
C124	C	1.534205	0.499888	1.198814
H125	H	1.075832	-0.000129	0.669447
H126	H	1.575832	0.499871	1.169447
H127	H	1.038819	0.048311	0.732211
H128	H	1.538819	0.548311	1.232211
H129	H	1.034343	-0.048540	0.727766
H130	H	1.534343	0.451460	1.227766
C131	C	0.093119	-0.000104	-0.242267
C132	C	0.593119	0.499896	0.257733
H133	H	0.041761	-0.000118	-0.231551
H134	H	0.541761	0.499882	0.268449
H135	H	0.104523	0.048322	-0.268584
H136	H	0.604523	0.548322	0.231416
H137	H	0.100072	-0.048529	-0.273035
H138	H	0.600072	0.451471	0.226965
C139	C	0.131551	-0.000140	0.047393
C140	C	0.631551	0.499860	0.547393
H141	H	0.171812	-0.000154	0.087912
H142	H	0.671812	0.499846	0.587912
H143	H	0.103364	0.048281	0.052982
H144	H	0.603364	0.548281	0.552982
H145	H	0.098907	-0.048571	0.048518
H146	H	0.598907	0.451429	0.548518
C147	C	0.983947	-0.395616	-0.011924
C148	C	1.483947	0.104384	0.488076
H149	H	1.016434	-0.357071	0.020532
H150	H	1.516434	0.142929	0.520532
H151	H	0.955223	-0.429724	0.017984
H152	H	1.455223	0.070276	0.517984
H153	H	1.013832	-0.429700	-0.040692
H154	H	1.513832	0.070300	0.459308
H155	H	0.789970	-0.224551	-0.205743
H156	H	1.289970	0.275449	0.294257
C157	C	1.011938	-0.788139	0.016022
C158	C	1.511938	-0.288139	0.516022
H159	H	1.001872	-0.846453	0.005964
H160	H	1.501872	-0.346453	0.505964
H161	H	1.063092	-0.773807	0.008530
H162	H	1.563092	-0.273807	0.508530
H163	H	1.004464	-0.773824	0.067186
H164	H	1.504464	-0.273824	0.567186
H165	H	0.770789	-0.000074	0.254416
H166	H	1.270789	0.499926	0.754416
C167	C	0.490430	-0.000072	-0.248618
C168	C	0.990430	0.499928	0.251382
H169	H	0.519795	-0.000055	-0.290247
H170	H	1.019795	0.499945	0.209753
H171	H	0.457027	-0.048497	-0.253223
H172	H	0.957027	0.451503	0.246777
H173	H	0.461481	0.048354	-0.248764
H174	H	0.961481	0.548354	0.251236
H175	H	0.977077	-0.224564	-0.018769
H176	H	1.477077	0.275436	0.481231
C177	C	0.753552	-0.000082	0.097298
C178	C	1.253552	0.499918	0.597298
H179	H	0.711921	-0.000082	0.126661
H180	H	1.211921	0.499918	0.626661
H181	H	0.753413	0.048341	0.068345
H182	H	1.253413	0.548341	0.568345
H183	H	0.748942	-0.048510	0.063900
H184	H	1.248942	0.451490	0.563900
H185	H	0.764425	-0.000075	0.651718
H186	H	1.264425	0.499925	1.151718
H187	H	0.283428	-0.000128	0.025222
H188	H	0.783428	0.499872	0.525222
H189	H	0.810683	-0.775641	-0.185113
H190	H	1.310683	-0.275641	0.314887
C191	C	1.043208	-0.000132	0.135738
C192	C	1.543208	0.499868	0.635738
H193	H	1.083723	-0.000129	0.176004
H194	H	1.583723	0.499871	0.676004
H195	H	1.044335	-0.048555	0.103100
H196	H	1.544335	0.451445	0.603100
H197	H	1.048801	0.048296	0.107547
H198	H	1.548801	0.548296	0.607547
H199	H	1.021033	-0.000122	0.287612
H200	H	1.521033	0.499878	0.787612
H201	H	0.537521	-0.000117	0.021148
H202	H	1.037521	0.499883	0.521148
H203	H	0.680744	-0.000096	0.018864
H204	H	1.180744	0.499904	0.518864
C205	C	0.803811	-0.604592	-0.191959
C206	C	1.303811	-0.104592	0.308041
H207	H	0.771340	-0.643139	-0.224428
H208	H	1.271340	-0.143139	0.275572
H209	H	0.773921	-0.570505	-0.163207
H210	H	1.273921	-0.070505	0.336793
H211	H	0.832548	-0.570487	-0.221865
H212	H	1.332548	-0.070487	0.278135
C213	C	1.020370	-0.604594	0.024470
C214	C	1.520370	-0.104594	0.524470
H215	H	1.049303	-0.643142	0.053390
H216	H	1.549303	-0.143142	0.553390
H217	H	1.053390	-0.570486	-0.001145
H218	H	1.553390	-0.070486	0.498855
H219	H	0.994764	-0.570510	0.057514
H220	H	1.494764	-0.070510	0.557514
C221	C	0.747194	-0.000062	0.494611
C222	C	1.247194	0.499938	0.994611
H223	H	0.757909	-0.000053	0.443253
H224	H	1.257909	0.499947	0.943253
H225	H	0.716411	-0.048479	0.501564
H226	H	1.216411	0.451521	1.001564
H227	H	0.720893	0.048373	0.506018
H228	H	1.220893	0.548373	1.006018
C229	C	0.767382	-0.395606	-0.228343
C230	C	1.267382	0.104394	0.271657
H231	H	0.772092	-0.453921	-0.223654
H232	H	1.272092	0.046079	0.276346
H233	H	0.717545	-0.381293	-0.219529
H234	H	1.217545	0.118707	0.280471
H235	H	0.776171	-0.381268	-0.278188
H236	H	1.276171	0.118732	0.221812
H237	H	1.016966	-0.000118	0.541708
H238	H	1.516966	0.499882	1.041708
