data_functionalizedCrystal
_audit_creation_method	'MofGen! by Chris Wilmer'
_symmetry_space_group_name_H-M	'P1'
_symmetry_Int_Tables_number	1
_symmetry_cell_setting	triclinic
loop_
_symmetry_equiv_pos_as_xyz
  x,y,z
_cell_length_a	14.560438
_cell_length_b	14.560438
_cell_length_c	14.560438
_cell_angle_alpha	59.996693
_cell_angle_beta	90.002315
_cell_angle_gamma	60.001584
loop_
_atom_site_label
_atom_site_type_symbol
_atom_site_fract_x
_atom_site_fract_y
_atom_site_fract_z
Zr1	Zr	0.884773	1.005299	-0.120562
O2	O	0.738122	1.196913	-0.267227
O3	O	0.929728	0.813689	-0.075592
O4	O	0.929725	1.005301	-0.267209
O5	O	0.738129	1.005299	0.075530
O6	O	1.080866	1.005298	-0.267204
O7	O	0.738125	1.005301	-0.075611
O8	O	1.080872	0.662540	0.075563
O9	O	0.738123	1.348056	-0.267237
O10	O	1.061697	0.892498	-0.056420
O11	O	0.948905	0.892498	0.056371
O12	O	0.948901	1.118096	-0.169233
O13	O	0.836109	1.118096	-0.056442
Zr14	Zr	1.125831	1.005291	0.120498
Zr15	Zr	1.125825	1.005295	-0.120554
Zr16	Zr	0.884779	1.005295	0.120490
Zr17	Zr	0.884775	1.246356	-0.120577
Zr18	Zr	1.125830	0.764234	0.120514
O19	O	1.080876	1.196900	0.075529
O20	O	1.080867	1.196906	-0.267216
O21	O	0.738130	1.196907	0.075518
O22	O	1.272482	0.813677	0.267164
O23	O	1.272474	0.813683	-0.075581
O24	O	0.929737	0.813684	0.267153
O25	O	1.272475	1.005291	-0.075593
O26	O	1.080879	1.005289	0.267146
O27	O	0.929738	1.005292	0.267141
O28	O	1.272479	1.005289	0.075548
O29	O	0.929727	1.348053	-0.267231
O30	O	1.080877	0.662537	0.267168
O31	O	1.272481	0.662533	0.267174
O32	O	1.272476	0.662537	0.075570
O33	O	0.738128	1.348053	-0.075633
O34	O	0.929732	1.348050	-0.075627
O35	O	1.061703	0.892494	0.169169
O36	O	1.174495	0.892494	0.056379
O37	O	1.061699	1.118092	-0.056434
O38	O	0.948907	1.118092	0.056357
C39	C	1.005300	0.703769	-0.000012
C40	C	1.005299	0.601434	-0.000006
C41	C	0.922030	0.636651	-0.083291
C42	C	0.922035	0.540511	-0.083320
C43	C	1.088582	0.373939	0.083232
C44	C	1.088581	0.470078	0.083255
C45	C	0.703782	1.005301	-0.000042
C46	C	0.601449	1.005302	-0.000045
C47	C	0.553364	1.005306	-0.083308
C48	C	0.457218	1.005294	-0.083293
C49	C	0.457249	1.005280	0.083253
C50	C	0.553398	1.005283	0.083241
C51	C	0.601415	1.005326	-0.166594
C52	C	0.553329	1.005331	-0.249864
C53	C	0.457183	1.005318	-0.249849
C54	C	0.409124	1.005301	-0.166564
C55	C	1.306822	1.005289	-0.000022
C56	C	1.409155	1.005287	-0.000018
C57	C	1.005294	1.005300	-0.301551
C58	C	1.005292	1.005302	-0.403884
C59	C	1.005304	1.306820	-0.000051
C60	C	1.005305	1.409155	-0.000058
C61	C	0.946415	1.123059	-0.510847
C62	C	0.946428	1.123053	-0.606996
C63	C	1.064197	0.887521	-0.489205
C64	C	1.064190	0.887529	-0.393058
C65	C	1.005310	1.005290	0.301488
C66	C	1.005312	1.005288	0.403821
C67	C	1.306820	0.703764	-0.000002
C68	C	1.409152	0.601427	0.000008
C69	C	1.005308	0.703764	0.301507
C70	C	1.005309	0.601428	0.403847
C71	C	1.306827	0.703759	0.301517
C72	C	1.409162	0.601420	0.403860
C73	C	0.703777	1.306831	-0.301580
C74	C	0.601442	1.409170	-0.403923
C75	C	0.703785	1.306826	-0.000061
C76	C	0.601452	1.409163	-0.000071
C77	C	1.005297	1.306825	-0.301570
C78	C	1.005295	1.409162	-0.403910
C79	C	1.398352	0.553348	-0.058865
C80	C	1.494508	0.457200	-0.058859
C81	C	1.612261	0.457213	0.058900
C82	C	1.516106	0.553366	0.058887
C83	C	1.064188	0.553346	0.510806
C84	C	1.064177	0.457198	0.606961
C85	C	0.946407	0.457220	0.489184
C86	C	0.946412	0.553372	0.393032
C87	C	1.516116	0.553339	0.393068
C88	C	1.612266	0.457189	0.489234
C89	C	1.494496	0.457207	0.606980
C90	C	1.398348	0.553361	0.510816
H91	H	0.679700	1.005339	-0.166616
C92	C	0.303367	1.005285	-0.166547
H93	H	0.281607	1.005294	-0.228066
H94	H	0.319290	0.929949	-0.098118
H95	H	0.243947	1.080629	-0.173470
C96	C	0.881657	1.252587	-0.724652
H97	H	0.846574	1.322723	-0.717324
H98	H	0.932475	1.257489	-0.764608
H99	H	0.825940	1.257473	-0.764607
H100	H	1.311256	0.592513	0.519611
C101	C	0.606299	1.005280	0.174825
H102	H	0.670451	1.005270	0.162895
H103	H	0.552884	1.080611	0.171376
H104	H	0.628223	0.929930	0.246715
H105	H	0.898456	0.418079	0.480392
H106	H	1.485705	0.418064	0.694073
H107	H	0.854230	0.569198	-0.151140
H108	H	1.112140	0.791631	-0.305958
H109	H	0.854210	0.743604	-0.151081
C110	C	1.128966	0.757982	-0.477304
H111	H	1.120529	0.774841	-0.549885
H112	H	1.206427	0.709592	-0.437345
H113	H	1.099879	0.709603	-0.437353
H114	H	1.311269	0.592488	-0.106820
H115	H	1.485704	0.418060	-0.106801
C116	C	1.729908	0.404331	0.123674
H117	H	1.785629	0.340169	0.115261
H118	H	1.738343	0.473358	0.094596
H119	H	1.738336	0.366815	0.201142
H120	H	1.156387	0.266979	0.151021
H121	H	1.156395	0.441391	0.151078
H122	H	0.418039	1.005310	-0.317644
C123	C	0.606192	1.005346	-0.341468
H124	H	0.670333	1.005364	-0.329560
H125	H	0.628101	0.930011	-0.338011
H126	H	0.552751	1.080692	-0.413353
H127	H	0.418112	1.005268	0.151060
C128	C	1.128942	0.404308	0.724614
H129	H	1.120495	0.340171	0.780333
H130	H	1.206405	0.366787	0.733062
H131	H	1.099861	0.473346	0.733039
H132	H	1.524909	0.592516	0.106828
H133	H	1.524926	0.592468	0.305984
C134	C	1.729914	0.404263	0.477365
H135	H	1.785630	0.340113	0.549954
H136	H	1.738324	0.366747	0.437426
H137	H	1.738374	0.473275	0.437404
C138	C	0.881647	1.252603	-0.522755
H139	H	0.846595	1.322733	-0.600233
H140	H	0.825926	1.257512	-0.487704
H141	H	0.932478	1.257493	-0.487693
C142	C	1.128954	0.606222	0.522702
H143	H	1.164007	0.563823	0.600177
H144	H	1.184675	0.590466	0.487649
H145	H	1.078121	0.697008	0.487635
C146	C	0.881636	0.606271	0.275370
H147	H	0.846569	0.563871	0.282698
H148	H	0.825926	0.697052	0.235414
H149	H	0.932461	0.590506	0.235415
