data_functionalizedCrystal
_audit_creation_method	'MofGen! by Chris Wilmer'
_symmetry_space_group_name_H-M	'P1'
_symmetry_Int_Tables_number	1
_symmetry_cell_setting	triclinic
loop_
_symmetry_equiv_pos_as_xyz
  x,y,z
_cell_length_a	17.000371
_cell_length_b	15.500227
_cell_length_c	17.019234
_cell_angle_alpha	91.050924
_cell_angle_beta	79.501818
_cell_angle_gamma	92.619542
loop_
_atom_site_label
_atom_site_type_symbol
_atom_site_fract_x
_atom_site_fract_y
_atom_site_fract_z
O1	O	1.059869	0.073767	0.024409
O2	O	1.393203	0.407100	0.357742
O3	O	1.726536	0.740434	0.691076
O4	O	0.828212	0.075893	0.052926
O5	O	1.161545	0.409227	0.386259
O6	O	1.494878	0.742560	0.719593
O7	O	0.950073	0.066267	-0.076150
O8	O	1.283406	0.399600	0.257184
O9	O	1.616740	0.732934	0.590517
O10	O	0.938008	0.083393	0.153484
O11	O	1.271341	0.416726	0.486818
O12	O	1.604675	0.750060	0.820151
O13	O	0.942678	-0.077040	-0.068346
O14	O	1.276011	0.256294	0.264988
O15	O	1.609345	0.589627	0.598321
O16	O	0.820817	-0.067414	0.060730
O17	O	1.154150	0.265920	0.394063
O18	O	1.487483	0.599253	0.727396
O19	O	1.052474	-0.069540	0.032213
O20	O	1.385808	0.263794	0.365546
O21	O	1.719141	0.597127	0.698880
Cu22	Cu	0.935970	-0.081562	0.047184
Cu23	Cu	1.269304	0.251772	0.380517
Cu24	Cu	1.602637	0.585105	0.713851
Cu25	Cu	0.944716	0.087915	0.037955
Cu26	Cu	1.278049	0.421248	0.371288
Cu27	Cu	1.611382	0.754582	0.704622
O28	O	0.930613	-0.059914	0.161288
O29	O	1.263946	0.273420	0.494622
O30	O	1.597280	0.606753	0.827955
C31	C	0.794865	0.004354	0.058360
C32	C	1.128198	0.337687	0.391693
C33	C	1.461531	0.671021	0.725026
C34	C	0.706518	0.004694	0.062914
C35	C	1.039851	0.338027	0.396248
C36	C	1.373185	0.671360	0.729581
C37	C	0.674308	-0.000535	-0.007176
C38	C	1.007641	0.332798	0.326157
C39	C	1.340975	0.666132	0.659491
C40	C	0.591296	-0.000209	-0.002892
C41	C	0.924630	0.333124	0.330441
C42	C	1.257963	0.666457	0.663775
C43	C	0.540496	0.005339	0.071483
C44	C	0.873830	0.338672	0.404816
C45	C	1.207163	0.672006	0.738150
C46	C	0.572711	0.010571	0.141579
C47	C	0.906045	0.343904	0.474912
C48	C	1.239378	0.677238	0.808245
C49	C	0.655722	0.010251	0.137293
C50	C	0.989055	0.343585	0.470627
C51	C	1.322388	0.676918	0.803960
C52	C	0.289394	0.006579	0.088035
C53	C	0.622727	0.339913	0.421368
C54	C	0.956061	0.673246	0.754701
C55	C	0.206379	0.006896	0.092314
C56	C	0.539712	0.340229	0.425648
C57	C	0.873045	0.673563	0.758981
C58	C	0.224970	-0.003883	-0.052157
C59	C	0.558303	0.329451	0.281176
C60	C	0.891636	0.662784	0.614510
C61	C	0.307980	-0.004207	-0.056435
C62	C	0.641314	0.329126	0.276898
C63	C	0.974647	0.662460	0.610232
C64	C	0.340189	0.001029	0.013660
C65	C	0.673522	0.334363	0.346993
C66	C	1.006855	0.667696	0.680327
C67	C	0.455645	0.005669	0.075864
C68	C	0.788978	0.339003	0.409197
C69	C	1.122312	0.672336	0.742531
C70	C	0.425039	0.000705	0.009278
C71	C	0.758372	0.334038	0.342611
C72	C	1.091705	0.667372	0.675945
N73	N	0.929825	-0.200763	0.053674
N74	N	1.263158	0.132571	0.387008
N75	N	1.596492	0.465904	0.720341
C76	C	0.981480	-0.250117	-0.001002
C77	C	1.314813	0.083217	0.332331
C78	C	1.648147	0.416550	0.665665
C79	C	0.976840	-0.340323	0.003913
C80	C	1.310173	-0.006990	0.337247
C81	C	1.643507	0.326344	0.670580
C82	C	0.920548	-0.381173	0.063509
C83	C	1.253881	-0.047840	0.396842
C84	C	1.587215	0.285494	0.730176
C85	C	0.868888	-0.331812	0.118188
C86	C	1.202221	0.001521	0.451521
C87	C	1.535554	0.334854	0.784854
C88	C	0.873525	-0.241608	0.113268
C89	C	1.206858	0.091725	0.446602
C90	C	1.540191	0.425059	0.779935
C91	C	0.903844	-0.653319	0.081217
C92	C	1.237177	-0.319986	0.414551
C93	C	1.570510	0.013347	0.747884
C94	C	0.899212	-0.743530	0.086134
C95	C	1.232546	-0.410197	0.419467
C96	C	1.565879	-0.076864	0.752801
C97	C	1.007164	-0.752035	-0.028142
C98	C	1.340497	-0.418701	0.305192
C99	C	1.673831	-0.085368	0.638525
C100	C	1.011799	-0.661828	-0.033053
C101	C	1.345133	-0.328495	0.300280
C102	C	1.678466	0.004839	0.633614
C103	C	0.960136	-0.612475	0.021623
C104	C	1.293469	-0.279142	0.354957
C105	C	1.626803	0.054191	0.688290
C106	C	0.915805	-0.473378	0.068536
C107	C	1.249139	-0.140045	0.401869
C108	C	1.582472	0.193288	0.735203
C109	C	0.964876	-0.520272	0.016592
C110	C	1.298209	-0.186939	0.349925
C111	C	1.631542	0.146394	0.683259
C112	C	1.085822	0.002001	0.026779
C113	C	1.419155	0.335335	0.360112
C114	C	1.752488	0.668668	0.693446
C115	C	1.174169	0.001667	0.022224
C116	C	1.507502	0.335001	0.355558
C117	C	1.840835	0.668334	0.688891
C118	C	0.945775	-0.007565	-0.101485
C119	C	1.279108	0.325768	0.231849
C120	C	1.612442	0.659102	0.565182
C121	C	0.943976	-0.014056	-0.188601
C122	C	1.277309	0.319277	0.144732
C123	C	1.610643	0.652610	0.478065
N124	N	0.950867	0.207116	0.031458
N125	N	1.284201	0.540449	0.364791
N126	N	1.617534	0.873782	0.698125
C127	C	0.933528	-0.054653	-0.681090
C128	C	1.266861	0.278681	-0.347756
C129	C	1.600195	0.612014	-0.014423
C130	C	0.935226	-0.048557	-0.599236
C131	C	1.268559	0.284776	-0.265902
C132	C	1.601893	0.618109	0.067431
C133	C	0.940112	0.032609	-0.562555
C134	C	1.273445	0.365942	-0.229222
C135	C	1.606779	0.699275	0.104111
C136	C	0.943292	0.107684	-0.607732
C137	C	1.276626	0.441018	-0.274398
C138	C	1.609959	0.774351	0.058935
C139	C	0.941589	0.101588	-0.689583
C140	C	1.274922	0.434922	-0.356250
C141	C	1.608256	0.768255	-0.022916
C142	C	0.945453	0.054923	-0.315629
C143	C	1.278786	0.388256	0.017705
C144	C	1.612119	0.721590	0.351038
C145	C	0.947158	0.061014	-0.233772
C146	C	1.280492	0.394347	0.099561
C147	C	1.613825	0.727680	0.432895
C148	C	0.939090	-0.095229	-0.225281
C149	C	1.272424	0.238104	0.108052
C150	C	1.605757	0.571438	0.441385
C151	C	0.937392	-0.101318	-0.307135
C152	C	1.270725	0.232015	0.026198
C153	C	1.604058	0.565349	0.359531
C154	C	0.940568	-0.026242	-0.352304
C155	C	1.273901	0.307091	-0.018971
C156	C	1.607235	0.640424	0.314363
C157	C	0.941850	0.038841	-0.478888
C158	C	1.275184	0.372174	-0.145555
C159	C	1.608517	0.705508	0.187779
C160	C	0.938824	-0.032475	-0.435968
C161	C	1.272158	0.300858	-0.102635
C162	C	1.605491	0.634191	0.230698
C163	C	0.934911	0.013920	0.186623
C164	C	1.268245	0.347254	0.519957
C165	C	1.601578	0.680587	0.853290
C166	C	0.936711	0.020417	0.273740
C167	C	1.270044	0.353751	0.607073
C168	C	1.603377	0.687084	0.940406
H169	H	0.565076	-0.004466	-0.059967
H170	H	0.898409	0.328867	0.273366
H171	H	1.231742	0.662200	0.606700
H172	H	0.948046	0.116055	-0.352397
H173	H	1.281379	0.449389	-0.019063
H174	H	1.614712	0.782722	0.314270
Br175	Br	0.493983	-0.006819	-0.091657
Br176	Br	0.827316	0.326514	0.241676
Br177	Br	1.160649	0.659848	0.575010
H178	H	0.869973	-0.506646	0.117061
H179	H	1.203306	-0.173312	0.450395
H180	H	1.536639	0.160021	0.783728
H181	H	0.531343	0.015094	0.202136
H182	H	0.864677	0.348428	0.535470
H183	H	1.198010	0.681761	0.868803
Br184	Br	0.743243	-0.008074	-0.108119
Br185	Br	1.076577	0.325259	0.225215
Br186	Br	1.409910	0.658592	0.558548
Br187	Br	0.137434	0.014414	0.193260
Br188	Br	0.470767	0.347748	0.526593
Br189	Br	0.804101	0.681081	0.859926
H190	H	0.414274	0.010186	0.136421
H191	H	0.747607	0.343519	0.469754
H192	H	1.080941	0.676853	0.803087
H193	H	0.945833	0.104927	-0.449015
H194	H	1.279166	0.438260	-0.115681
H195	H	1.612500	0.771593	0.217652
Br196	Br	1.057886	-0.194687	-0.081881
Br197	Br	1.391219	0.138647	0.251453
Br198	Br	1.724553	0.471980	0.584786
Br199	Br	0.822813	-0.798964	0.167024
Br200	Br	1.156146	-0.465630	0.500358
Br201	Br	1.489479	-0.132297	0.833691
H202	H	0.681945	0.014505	0.194369
H203	H	1.015278	0.347839	0.527702
H204	H	1.348612	0.681172	0.861035
H205	H	1.018901	-0.380507	-0.040609
H206	H	1.352234	-0.047174	0.292724
H207	H	1.685568	0.286159	0.626058
Br208	Br	0.930760	-0.211476	-0.356910
Br209	Br	1.264094	0.121857	-0.023577
Br210	Br	1.597427	0.455191	0.309756
H211	H	0.936503	-0.156351	-0.188496
H212	H	1.269837	0.176982	0.144837
H213	H	1.603170	0.510316	0.478170
H214	H	0.929553	-0.120747	-0.710949
H215	H	1.262886	0.212586	-0.377616
H216	H	1.596219	0.545920	-0.044282
H217	H	0.932646	-0.109688	-0.562463
H218	H	1.265979	0.223646	-0.229130
H219	H	1.599313	0.556979	0.104204
H220	H	0.198737	-0.008136	-0.109225
H221	H	0.532070	0.325197	0.224109
H222	H	0.865403	0.658531	0.557442
H223	H	0.951137	0.127112	-0.203910
H224	H	1.284470	0.460445	0.129424
H225	H	1.617803	0.793779	0.462757
H226	H	0.947267	0.173772	-0.577859
H227	H	1.280600	0.507105	-0.244526
H228	H	1.613933	0.840438	0.088807
H229	H	0.944176	0.162719	-0.726360
H230	H	1.277509	0.496052	-0.393026
H231	H	1.610843	0.829385	-0.059693
H232	H	1.057637	-0.628570	-0.081580
H233	H	1.390970	-0.295237	0.251753
H234	H	1.724303	0.038097	0.585086
Br235	Br	0.932185	-0.142626	-0.485748
Br236	Br	1.265518	0.190708	-0.152415
Br237	Br	1.598851	0.524041	0.180918
H238	H	1.049225	-0.792226	-0.072657
H239	H	1.382558	-0.458893	0.260676
H240	H	1.715892	-0.125559	0.594009
H241	H	0.861779	-0.613143	0.125738
H242	H	1.195112	-0.279810	0.459072
H243	H	1.528445	0.053523	0.792405
H244	H	0.349337	-0.008729	-0.116999
H245	H	0.682670	0.324604	0.216334
H246	H	1.016004	0.657938	0.549668
H247	H	0.823049	-0.365078	0.166710
H248	H	1.156383	-0.031744	0.500043
H249	H	1.489716	0.301589	0.833376
H250	H	0.831461	-0.201424	0.157791
H251	H	1.164794	0.131909	0.491124
H252	H	1.498127	0.465242	0.824457
H253	H	1.010706	-0.487010	-0.031933
H254	H	1.344039	-0.153677	0.301400
H255	H	1.677372	0.179657	0.634733
Br256	Br	0.333095	0.013687	0.183164
Br257	Br	0.666428	0.347021	0.516497
Br258	Br	0.999762	0.680354	0.849831
