data_functionalizedCrystal
_audit_creation_method	'MofGen! by Chris Wilmer'
_symmetry_space_group_name_H-M	'P1'
_symmetry_Int_Tables_number	1
_symmetry_cell_setting	triclinic
loop_
_symmetry_equiv_pos_as_xyz
  x,y,z
_cell_length_a	10.489741
_cell_length_b	9.565339
_cell_length_c	14.044190
_cell_angle_alpha	90.004600
_cell_angle_beta	88.865476
_cell_angle_gamma	90.000900
loop_
_atom_site_label
_atom_site_type_symbol
_atom_site_fract_x
_atom_site_fract_y
_atom_site_fract_z
O1	O	1.707631	0.116190	0.133829
O2	O	2.207631	0.616190	0.633829
O3	O	1.337710	0.116214	0.146392
O4	O	1.837710	0.616214	0.646392
O5	O	1.517113	0.116175	0.002088
O6	O	2.017113	0.616175	0.502088
O7	O	1.528228	0.116229	0.278133
O8	O	2.028228	0.616229	0.778133
O9	O	1.517099	-0.116345	0.002097
O10	O	2.017099	0.383655	0.502097
O11	O	1.337695	-0.116306	0.146401
O12	O	1.837695	0.383694	0.646401
O13	O	1.707617	-0.116330	0.133838
O14	O	2.207617	0.383670	0.633838
Zn15	Zn	1.522654	-0.153236	0.140121
Zn16	Zn	2.022654	0.346764	0.640121
Zn17	Zn	1.522673	0.153120	0.140109
Zn18	Zn	2.022673	0.653120	0.640109
O19	O	1.528213	-0.116291	0.278142
O20	O	2.028213	0.383709	0.778142
C21	C	1.290075	-0.000044	0.145447
C22	C	1.790075	0.499956	0.645447
C23	C	1.148157	-0.000036	0.142609
C24	C	1.648157	0.499964	0.642609
C25	C	1.070702	-0.000067	0.050792
C26	C	1.570702	0.499933	0.550792
C27	C	0.982982	0.114583	0.094161
C28	C	1.482982	0.614583	0.594161
C29	C	0.983004	-0.114664	0.094192
C30	C	1.483004	0.385336	0.594192
C31	C	1.062307	0.114709	0.186015
C32	C	1.562307	0.614709	0.686015
C33	C	1.062338	-0.114641	0.186033
C34	C	1.562338	0.385359	0.686033
C35	C	0.974653	0.000038	0.229469
C36	C	1.474653	0.500038	0.729469
N37	N	1.522650	-0.362315	0.140128
N38	N	2.022650	0.137685	0.640128
C39	C	1.439652	-0.453500	0.206842
C40	C	1.939652	0.046500	0.706842
C41	C	1.557096	-0.546682	0.226036
C42	C	2.057096	-0.046682	0.726036
C43	C	1.405256	-0.546688	0.120942
C44	C	1.905256	-0.046688	0.620942
C45	C	1.640157	-0.453445	0.159366
C46	C	2.140157	0.046555	0.659366
C47	C	1.488237	-0.453443	0.054234
C48	C	1.988237	0.046557	0.554234
C49	C	1.605761	-0.546583	0.073392
C50	C	2.105761	-0.046583	0.573392
C51	C	1.755252	-0.000069	0.134783
C52	C	2.255252	0.499931	0.634783
C53	C	1.897169	-0.000068	0.137621
C54	C	2.397169	0.499932	0.637621
C55	C	1.512244	-0.000089	-0.033255
C56	C	2.012244	0.499911	0.466745
C57	C	1.497741	-0.000100	-0.138580
C58	C	1.997741	0.499900	0.361420
N59	N	1.522686	0.362199	0.140094
N60	N	2.022686	0.862199	0.640094
C61	C	1.574086	-0.000050	-0.388346
C62	C	2.074086	0.499950	0.111654
C63	C	1.471246	-0.000053	-0.331419
C64	C	1.971246	0.499947	0.168581
C65	C	1.485991	-0.000079	-0.224114
C66	C	1.985991	0.499921	0.275886
C67	C	1.559343	-0.000024	-0.495661
C68	C	2.059343	0.499976	0.004339
C69	C	1.533083	-0.000024	0.313485
C70	C	2.033083	0.499976	0.813485
C71	C	1.547586	-0.000003	0.418810
C72	C	2.047586	0.499997	0.918810
H73	H	0.948077	-0.211592	0.055329
H74	H	1.448077	0.288408	0.555329
F75	F	1.703633	-0.000075	-0.346716
F76	F	2.203633	0.499925	0.153284
H77	H	1.676048	-0.587197	0.016957
H78	H	2.176048	-0.087197	0.516957
F79	F	1.125588	0.000060	-0.047879
F80	F	1.625588	0.500060	0.452121
H81	H	1.369539	-0.412630	0.263312
H82	H	1.869539	0.087370	0.763312
H83	H	1.372128	-0.000039	-0.363271
H84	H	1.872128	0.499961	0.136729
F85	F	1.107752	0.241546	0.236750
F86	F	1.607752	0.741546	0.736750
H87	H	0.932895	0.000115	0.305027
H88	H	1.432895	0.500115	0.805027
H89	H	0.948033	0.211498	0.055308
H90	H	1.448033	0.711498	0.555308
F91	F	1.108061	-0.241322	0.236776
F92	F	1.608061	0.258678	0.736776
H93	H	1.586227	-0.587636	0.298660
H94	H	2.086227	-0.087636	0.798660
H95	H	1.305964	-0.587650	0.104729
H96	H	1.805964	-0.087650	0.604729
H97	H	1.739481	-0.412659	0.175666
H98	H	2.239481	0.087341	0.675666
H99	H	1.459073	-0.412456	-0.018368
H100	H	1.959073	0.087544	0.481632
