data_functionalizedCrystal
_audit_creation_method	'MofGen! by Chris Wilmer'
_symmetry_space_group_name_H-M	'P1'
_symmetry_Int_Tables_number	1
_symmetry_cell_setting	triclinic
loop_
_symmetry_equiv_pos_as_xyz
  x,y,z
_cell_length_a	15.944545
_cell_length_b	15.944551
_cell_length_c	14.185569
_cell_angle_alpha	76.843158
_cell_angle_beta	103.157825
_cell_angle_gamma	83.497455
loop_
_atom_site_label
_atom_site_type_symbol
_atom_site_fract_x
_atom_site_fract_y
_atom_site_fract_z
O1	O	1.095489	0.127336	-0.083357
O2	O	0.850935	0.140702	-0.083374
O3	O	0.979892	0.011742	-0.083356
O4	O	0.966531	0.256296	-0.083375
O5	O	1.017987	-0.026350	0.083484
O6	O	0.889030	0.102610	0.083466
O7	O	1.133584	0.089245	0.083483
Cu8	Cu	1.014785	0.092449	0.098708
Cu9	Cu	0.969733	0.137497	-0.098599
O10	O	1.004626	0.218205	0.083465
C11	C	0.838688	0.121103	0.000044
C12	C	0.745440	0.119444	0.000038
C13	C	0.474811	0.034546	0.000055
C14	C	0.544175	0.056694	0.082315
C15	C	0.409800	0.113519	0.000056
C16	C	0.506597	0.094271	-0.082176
C17	C	0.574711	0.116426	0.000046
C18	C	0.477952	0.135630	0.082384
C19	C	0.440353	0.173213	-0.082181
C20	C	0.509689	0.195414	0.000099
C21	C	0.314799	0.111842	0.000063
C22	C	0.669711	0.118108	0.000046
C23	C	0.998385	-0.038598	0.000064
C24	C	0.996723	-0.131844	0.000065
C25	C	0.912814	-0.346694	0.000045
C26	C	0.970560	-0.426495	0.082310
C27	C	0.993714	-0.302568	0.000057
C28	C	0.933020	-0.388922	-0.082181
C29	C	0.990800	-0.467478	0.000045
C30	C	1.051498	-0.381155	0.082389
C31	C	1.013930	-0.343560	-0.082175
C32	C	1.071740	-0.423347	0.000109
C33	C	0.995390	-0.207567	0.000064
C34	C	0.989132	-0.562479	0.000044
C35	C	1.145830	0.108844	0.000063
C36	C	1.239076	0.110505	0.000062
C37	C	0.986133	0.268545	0.000043
C38	C	0.987793	0.361793	0.000036
N39	N	1.046478	0.060765	0.237484
N40	N	0.938047	0.169175	-0.237375
C41	C	0.844932	0.262229	0.605106
C42	C	0.868945	0.238234	0.710131
C43	C	0.983160	0.124082	0.710107
C44	C	0.959154	0.148065	0.605080
C45	C	0.890040	0.217140	0.552588
C46	C	1.004261	0.102976	0.552563
C47	C	0.980260	0.126960	0.447545
C48	C	0.911150	0.196033	0.395045
C49	C	0.866038	0.241124	0.447570
C50	C	1.073379	0.033906	0.605057
C51	C	1.118487	-0.011184	0.552539
C52	C	1.094481	0.012796	0.447519
C53	C	1.025372	0.081870	0.395019
C54	C	1.139594	-0.032294	0.394994
C55	C	1.115592	-0.008310	0.289976
C56	C	1.001370	0.105854	0.290002
H57	H	0.465039	0.153063	0.152003
H58	H	1.174762	-0.067423	0.595290
H59	H	0.809753	0.297365	0.404829
H60	H	1.195872	-0.088530	0.437747
H61	H	0.395526	0.222415	-0.151733
C62	C	1.038661	-0.294911	-0.176132
N63	N	1.057280	-0.258263	-0.246908
H64	H	0.525191	0.263469	0.000142
C65	C	0.524208	0.070647	-0.176124
N66	N	0.537471	0.052847	-0.246883
C67	C	0.945786	-0.475113	0.176258
N68	N	0.927121	-0.511729	0.247015
C69	C	1.119158	-0.375629	0.176453
N70	N	1.170116	-0.371464	0.247302
C71	C	0.822127	-0.301712	0.000151
N72	N	0.753825	-0.267830	0.000238
H73	H	0.882912	-0.393119	-0.151734
C74	C	0.768869	0.338181	0.547358
N75	N	0.711571	0.395376	0.503862
H76	H	1.138959	-0.456519	0.000160
C77	C	1.165211	-0.057913	0.232203
N78	N	1.202586	-0.095274	0.188688
C79	C	0.925307	0.181806	0.232254
N80	N	0.868009	0.239001	0.188758
C81	C	0.604717	-0.009815	0.176272
N82	N	0.650314	-0.059914	0.247037
H83	H	0.891612	0.215563	0.309533
H84	H	0.459177	-0.033485	0.000141
H85	H	0.832207	0.274958	0.752886
C86	C	1.059181	0.048099	0.767861
N87	N	1.116439	-0.009135	0.811360
H88	H	1.092921	0.014383	0.690569
