data_functionalizedCrystal
_audit_creation_method	'MofGen! by Chris Wilmer'
_symmetry_space_group_name_H-M	'P1'
_symmetry_Int_Tables_number	1
_symmetry_cell_setting	triclinic
loop_
_symmetry_equiv_pos_as_xyz
  x,y,z
_cell_length_a	19.121063
_cell_length_b	19.121274
_cell_length_c	13.032268
_cell_angle_alpha	80.115375
_cell_angle_beta	99.247498
_cell_angle_gamma	90.075254
loop_
_atom_site_label
_atom_site_type_symbol
_atom_site_fract_x
_atom_site_fract_y
_atom_site_fract_z
Zn1	Zn	-0.369692	-1.010918	-0.550121
Zn2	Zn	-0.473170	-1.020828	-0.381306
Zn3	Zn	-0.350901	-0.908743	-0.380690
Zn4	Zn	-0.483109	-0.887317	-0.565095
O5	O	-0.419218	-0.956951	-0.469303
O6	O	-0.387124	-1.110868	-0.521719
O7	O	-0.444928	-1.019074	-0.233401
O8	O	-0.254758	-0.927116	-0.396641
O9	O	-0.463149	-1.118149	-0.397691
O10	O	-0.268564	-1.002184	-0.521121
O11	O	-0.355097	-0.936725	-0.232948
O12	O	-0.364734	-0.807265	-0.411161
O13	O	-0.480088	-0.890599	-0.710932
O14	O	-0.461867	-0.791524	-0.546642
O15	O	-0.396761	-0.981408	-0.699931
O16	O	-0.573124	-0.998297	-0.412210
O17	O	-0.580426	-0.900208	-0.547239
C18	C	-0.412340	-0.773819	-0.480460
C19	C	-0.409417	-0.695472	-0.485259
C20	C	-0.447544	-0.662464	-0.422834
C21	C	-0.444799	-0.588847	-0.427357
C22	C	-0.403922	-0.548239	-0.494301
C23	C	-0.365793	-0.581251	-0.556733
C24	C	-0.368543	-0.654867	-0.552215
C25	C	-0.393646	-0.325778	-0.511184
C26	C	-0.390897	-0.252158	-0.515696
C27	C	-0.469904	-0.259758	-0.386320
C28	C	-0.472647	-0.333375	-0.381803
C29	C	-0.434522	-0.366380	-0.444240
C30	C	-0.401113	-0.472991	-0.498923
C31	C	-0.437335	-0.441627	-0.439622
C32	C	-0.602353	-0.948020	-0.481438
C33	C	-0.680704	-0.944260	-0.486661
C34	C	-0.713694	-0.993594	-0.418866
C35	C	-0.787314	-0.990062	-0.423784
C36	C	-0.827942	-0.937192	-0.496493
C37	C	-0.794947	-0.887856	-0.564295
C38	C	-0.721329	-0.891392	-0.559381
C39	C	-1.050413	-0.923962	-0.514848
C40	C	-1.124036	-0.920429	-0.519755
C41	C	-1.116398	-1.022637	-0.379245
C42	C	-1.042779	-1.026165	-0.374334
C43	C	-1.009790	-0.976831	-0.442139
C44	C	-0.903194	-0.933579	-0.501519
C45	C	-0.934541	-0.980448	-0.437117
C46	C	-0.235371	-0.965935	-0.457142
C47	C	-0.157026	-0.969763	-0.451960
C48	C	-0.441629	-0.932508	-0.744832
C49	C	-0.451179	-0.922091	-0.862247
C50	C	-0.426113	-0.140800	-0.458088
C51	C	-0.429025	-0.219150	-0.453270
C52	C	-0.414208	-0.962378	-0.909150
C53	C	-0.424078	-0.951613	-1.030504
C54	C	-0.396845	-0.981343	-0.194840
C55	C	-0.387102	-0.991905	-0.077404
H56	H	-0.337495	-0.681740	-0.603047
N57	N	-0.481418	-0.485426	-0.367418
H58	H	-0.463772	-0.479833	-0.292026
H59	H	-0.532633	-0.468703	-0.387904
H60	H	-0.680619	-1.036644	-0.359655
N61	N	-0.362606	-1.018628	-0.843346
H62	H	-0.339290	-1.044035	-0.891320
H63	H	-0.325212	-0.995563	-0.797161
N64	N	-0.357020	-0.429188	-0.571115
H65	H	-0.305794	-0.445891	-0.550706
H66	H	-0.374716	-0.434796	-0.646484
N67	N	-0.502776	-0.865841	-0.928059
H68	H	-0.540212	-0.888854	-0.974255
H69	H	-0.526042	-0.840447	-0.880023
H70	H	-0.357604	-0.219097	-0.570206
N71	N	-0.321699	-0.537455	-0.628929
H72	H	-0.297963	-0.569538	-0.667791
H73	H	-0.353269	-0.501189	-0.681523
N74	N	-0.822898	-1.043272	-0.350663
H75	H	-0.785989	-1.077298	-0.303853
H76	H	-0.848428	-1.017475	-0.305535
N77	N	-0.485915	-0.553245	-0.360019
H78	H	-0.520974	-0.517319	-0.406905
H79	H	-0.512179	-0.590187	-0.316929
H80	H	-0.936281	-0.890531	-0.560717
H81	H	-0.348136	-1.034365	-1.027724
N82	N	-0.475692	-0.895369	-1.096305
H83	H	-0.499009	-0.869963	-1.048331
H84	H	-0.449472	-0.860119	-1.142169
H85	H	-0.828033	-0.844811	-0.623500
N86	N	-0.998964	-1.083199	-0.295926
H87	H	-1.005256	-1.078382	-0.221954
H88	H	-1.014986	-1.131445	-0.310285
N89	N	-0.491628	-0.706261	-0.350622
H90	H	-0.515365	-0.674176	-0.311764
H91	H	-0.528924	-0.731415	-0.393828
N92	N	-1.151985	-1.075840	-0.306120
H93	H	-1.187209	-1.103204	-0.349134
H94	H	-1.115035	-1.109824	-0.259325
N95	N	-0.516730	-0.377173	-0.309592
H96	H	-0.540467	-0.345091	-0.270729
H97	H	-0.554027	-0.402330	-0.352794
N98	N	-0.352526	-0.361371	-0.578522
H99	H	-0.326213	-0.324475	-0.621611
H100	H	-0.317512	-0.397306	-0.531568
N101	N	-1.167859	-0.863402	-0.598179
H102	H	-1.135791	-0.832686	-0.640390
H103	H	-1.203422	-0.886266	-0.647381
N104	N	-1.014837	-0.870750	-0.587969
H105	H	-1.051747	-0.836719	-0.634767
H106	H	-0.979610	-0.843439	-0.544875
H107	H	-0.694470	-0.851220	-0.614588
H108	H	-0.500945	-0.232876	-0.335490
H109	H	-0.901460	-1.023497	-0.377921
