data_functionalizedCrystal
_audit_creation_method	'MofGen! by Chris Wilmer'
_symmetry_space_group_name_H-M	'P1'
_symmetry_Int_Tables_number	1
_symmetry_cell_setting	triclinic
loop_
_symmetry_equiv_pos_as_xyz
  x,y,z
_cell_length_a	17.917603
_cell_length_b	21.606444
_cell_length_c	21.606444
_cell_angle_alpha	60.001331
_cell_angle_beta	90.001745
_cell_angle_gamma	57.010312
loop_
_atom_site_label
_atom_site_type_symbol
_atom_site_fract_x
_atom_site_fract_y
_atom_site_fract_z
Zr1	Zr	0.754895	0.620471	-0.052710
O2	O	0.629762	0.759039	-0.156256
O3	O	0.793256	0.488456	-0.020971
O4	O	0.793246	0.617580	-0.150090
O5	O	0.629778	0.629909	0.074718
O6	O	0.922203	0.607847	-0.145223
O7	O	0.629772	0.629914	-0.027137
O8	O	0.922221	0.376866	0.085747
O9	O	0.629760	0.860890	-0.156252
O10	O	0.905854	0.533064	-0.003799
O11	O	0.809620	0.540325	0.068582
O12	O	0.809608	0.692353	-0.083439
O13	O	0.713373	0.699613	-0.011058
Zr14	Zr	0.960578	0.604939	0.117498
Zr15	Zr	0.960567	0.604947	-0.044948
Zr16	Zr	0.754905	0.620463	0.109736
Zr17	Zr	0.754892	0.782911	-0.052705
Zr18	Zr	0.960580	0.442498	0.117493
O19	O	0.922216	0.736954	0.085759
O20	O	0.922202	0.736965	-0.145219
O21	O	0.629777	0.759028	0.074722
O22	O	1.085710	0.466371	0.221043
O23	O	1.085696	0.466382	-0.009934
O24	O	0.793271	0.488445	0.210006
O25	O	1.085694	0.595501	-0.009930
O26	O	0.922226	0.607829	0.214877
O27	O	0.793269	0.617563	0.210010
O28	O	1.085700	0.595496	0.091925
O29	O	0.793243	0.848550	-0.150082
O30	O	0.922230	0.376860	0.214870
O31	O	1.085712	0.364520	0.221040
O32	O	1.085703	0.364526	0.091917
O33	O	0.629769	0.860883	-0.027129
O34	O	0.793251	0.848544	-0.020959
O35	O	0.905864	0.533057	0.148227
O36	O	1.002099	0.525797	0.075846
O37	O	0.905852	0.685085	-0.003794
O38	O	0.809618	0.692345	0.068587
C39	C	0.857739	0.409517	0.032387
C40	C	0.857740	0.340556	0.032385
C41	C	0.907971	0.304369	-0.005398
C42	C	0.907975	0.239569	-0.005393
C43	C	0.857740	0.210962	0.032391
C44	C	0.807507	0.247152	0.070179
C45	C	0.807510	0.311946	0.070178
C46	C	0.807496	-0.014156	0.070185
C47	C	0.807495	-0.078953	0.070181
C48	C	0.907960	-0.086534	-0.005386
C49	C	0.907963	-0.021740	-0.005387
C50	C	0.857735	0.014441	0.032404
C51	C	0.857733	0.084704	0.032399
C52	C	0.857736	0.140706	0.032392
C53	C	0.600471	0.632123	0.022684
C54	C	0.513158	0.638714	0.019389
C55	C	0.353313	0.650752	0.013371
C56	C	0.362152	0.574661	0.051415
C57	C	0.273209	0.581360	0.048066
C58	C	0.442262	0.644056	0.016719
C59	C	1.115001	0.593286	0.042103
C60	C	1.202314	0.586696	0.045399
C61	C	0.857723	0.612715	-0.170801
C62	C	0.857719	0.612718	-0.239764
C63	C	0.857733	0.815893	0.032400
C64	C	0.857732	0.884853	0.032403
C65	C	0.807478	0.695864	-0.313734
C66	C	0.807487	0.695861	-0.378528
C67	C	0.857730	0.612711	-0.369352
C68	C	0.907977	0.529558	-0.295374
C69	C	0.907973	0.529562	-0.230581
C70	C	0.907992	0.529542	-0.556676
C71	C	0.907989	0.529545	-0.621477
C72	C	0.807505	0.695841	-0.704624
C73	C	0.807502	0.695845	-0.639831
C74	C	0.857752	0.612692	-0.565859
C75	C	0.857744	0.612696	-0.495602
C76	C	0.857733	0.612707	-0.439607
C77	C	0.857749	0.612695	0.235589
C78	C	0.857754	0.612692	0.304552
C79	C	1.115004	0.390098	0.042097
C80	C	1.202318	0.314547	0.045390
C81	C	0.857752	0.409507	0.235582
C82	C	0.857757	0.340543	0.304543
C83	C	1.115017	0.390088	0.245292
C84	C	1.202336	0.314534	0.317548
C85	C	0.600455	0.835321	-0.180504
C86	C	0.513137	0.910875	-0.252760
C87	C	0.600468	0.835312	0.022691
C88	C	0.513154	0.910862	0.019398
C89	C	0.857720	0.815903	-0.170795
C90	C	0.857715	0.884866	-0.239755
C91	C	1.193083	0.282862	0.005356
C92	C	1.275116	0.211883	0.008434
C93	C	1.366384	0.172588	0.051552
C94	C	1.375617	0.204280	0.091588
C95	C	1.293584	0.275261	0.088504
C96	C	0.907998	0.304364	0.378508
C97	C	0.908000	0.239575	0.443310
C98	C	0.857765	0.210961	0.434145
C99	C	0.807518	0.247148	0.360172
C100	C	0.807511	0.311941	0.295371
C101	C	1.293584	0.275263	0.313698
C102	C	1.375637	0.204280	0.381584
C103	C	1.366440	0.172566	0.453319
C104	C	1.275182	0.211845	0.457166
C105	C	1.193131	0.282830	0.389281
C106	C	0.421889	0.950155	-0.248910
C107	C	0.339836	1.021158	-0.316796
C108	C	0.349033	1.052875	-0.388531
C109	C	0.440290	1.013592	-0.392379
C110	C	0.522341	0.942595	-0.324494
C111	C	0.522389	0.942555	0.059425
C112	C	0.440356	1.013551	0.056329
C113	C	0.349089	1.052849	0.013209
C114	C	0.339856	1.021154	-0.026824
C115	C	0.421888	0.950163	-0.023731
C116	C	0.907959	0.913458	-0.230565
C117	C	0.907973	0.978247	-0.295354
C118	C	0.857736	1.014447	-0.369332
C119	C	0.807490	0.985849	-0.378520
C120	C	0.807483	0.921057	-0.313732
H121	H	0.948877	0.210104	-0.036158
H122	H	0.278953	0.720921	-0.021712
H123	H	0.948888	1.001524	-0.287858
C124	C	0.450527	1.048397	0.100376
C125	C	0.550922	1.005151	0.147818
C126	C	0.561095	1.039993	0.191867
C127	C	0.470874	1.118080	0.188473
C128	C	0.370473	1.161331	0.141028
C129	C	0.360299	1.126489	0.096980
H130	H	0.617715	0.947342	0.150332
H131	H	0.635420	1.007976	0.226988
H132	H	0.478406	1.143872	0.221080
H133	H	0.303679	1.219140	0.138514
H134	H	0.285974	1.158506	0.061859
H135	H	0.436518	0.504487	0.086499
H136	H	0.766558	0.763575	-0.321215
H137	H	0.948909	0.461834	-0.496453
H138	H	0.766578	0.763567	-0.438756
H139	H	0.414355	0.924362	-0.056325
H140	H	1.301090	0.301074	0.255294
C141	C	0.450397	1.048484	-0.471291
C142	C	0.360136	1.126573	-0.545955
C143	C	0.370240	1.161463	-0.624869
C144	C	0.470605	1.118265	-0.629119
C145	C	0.560874	1.040172	-0.554451
C146	C	0.550770	1.005281	-0.475538
H147	H	0.285833	1.158555	-0.542812
H148	H	0.303417	1.219273	-0.680143
H149	H	0.478085	1.144093	-0.687536
H150	H	0.635177	1.008189	-0.557595
H151	H	0.617593	0.947471	-0.420264
C152	C	0.752233	0.787312	-0.649928
C153	C	0.778467	0.850798	-0.690578
C154	C	0.723200	0.942267	-0.700677
C155	C	0.641700	0.970249	-0.670127
C156	C	0.615462	0.906761	-0.629474
C157	C	0.670729	0.815292	-0.619374
H158	H	0.838802	0.830085	-0.713196
H159	H	0.742623	0.989265	-0.730771
H160	H	0.600788	1.037959	-0.677603
H161	H	0.555127	0.927474	-0.606856
H162	H	0.651306	0.768294	-0.589280
C163	C	0.258858	1.130934	0.009817
C164	C	0.186095	1.225529	-0.068194
C165	C	0.095869	1.303610	-0.071580
C166	C	0.078406	1.287097	0.003046
C167	C	0.151170	1.192498	0.081063
C168	C	0.241396	1.114417	0.084449
H169	H	0.199021	1.237756	-0.123442
H170	H	0.042004	1.373638	-0.129334
H171	H	0.011615	1.344897	0.000540
H172	H	0.138244	1.180270	0.136311
H173	H	0.295261	1.044389	0.142203
C174	C	0.963229	0.009721	-0.046944
C175	C	1.018494	-0.030093	-0.088498
C176	C	1.073767	0.001361	-0.130050
C177	C	1.073775	0.072628	-0.130049
C178	C	1.018508	0.112446	-0.088493
C179	C	0.963235	0.080992	-0.046941
H180	H	1.018490	-0.082853	-0.088500
H181	H	1.114679	-0.028115	-0.160812
H182	H	1.114692	0.095912	-0.160808
H183	H	1.018513	0.165206	-0.088491
H184	H	0.922323	0.110468	-0.016179
C185	C	0.752248	0.215686	0.111742
C186	C	0.806111	0.113621	0.178138
C187	C	0.750847	0.082159	0.219699
C188	C	0.641722	0.152762	0.194864
C189	C	0.587854	0.254834	0.128465
C190	C	0.643117	0.286296	0.086904
H191	H	0.886897	0.061350	0.196525
H192	H	0.790725	0.006598	0.268852
H193	H	0.600813	0.129472	0.225630
H194	H	0.507067	0.307104	0.110078
H195	H	0.603239	0.361856	0.037751
H196	H	0.766592	0.763548	-0.764862
H197	H	1.267708	0.186013	0.515582
H198	H	0.948863	-0.116003	-0.036155
H199	H	0.948906	0.461830	-0.613996
C200	C	0.752226	1.025683	-0.459901
C201	C	0.806087	1.012723	-0.513329
C202	C	0.750817	1.052565	-0.594712
C203	C	0.641687	1.105367	-0.622667
C204	C	0.587820	1.118330	-0.569238
C205	C	0.643090	1.078488	-0.487855
H206	H	0.886877	0.973633	-0.492636
H207	H	0.790694	1.042969	-0.634263
H208	H	0.600773	1.134861	-0.682911
H209	H	0.507030	1.157419	-0.589931
H210	H	0.603213	1.088084	-0.448303
H211	H	1.433259	0.114764	0.508589
H212	H	0.766563	0.897785	-0.321225
H213	H	1.118836	0.314797	0.392426
H214	H	0.857778	0.158202	0.486916
H215	H	0.265535	1.053161	-0.061931
H216	H	0.948891	0.461856	-0.287906
H217	H	0.414382	0.924335	-0.190507
C218	C	0.239461	1.064351	-0.312552
C219	C	0.229354	1.029444	-0.233643
C220	C	0.128982	1.072633	-0.229396
C221	C	0.038718	1.150729	-0.304058
C222	C	0.048822	1.185641	-0.382973
C223	C	0.149194	1.142452	-0.387220
H224	H	0.296175	0.971628	-0.178368
H225	H	0.121503	1.046789	-0.170978
H226	H	-0.035583	1.182701	-0.300915
H227	H	-0.017999	1.243456	-0.438248
H228	H	0.156673	1.168296	-0.445638
H229	H	0.948884	0.461856	-0.170351
H230	H	0.948873	0.327660	-0.036170
H231	H	0.766586	-0.102243	0.100952
H232	H	0.766601	0.015291	0.100960
H233	H	1.118776	0.314856	-0.029765
C234	C	0.752253	0.351757	0.111739
C235	C	0.696993	0.320296	0.153300
C236	C	0.641738	0.360102	0.194865
C237	C	0.641743	0.431369	0.194869
C238	C	0.697005	0.462834	0.153307
C239	C	0.752260	0.423028	0.111742
H240	H	0.696988	0.267536	0.153298
H241	H	0.600830	0.336809	0.225632
H242	H	0.600841	0.460836	0.225639
H243	H	0.697011	0.515594	0.153309
H244	H	0.793168	0.446321	0.080974
C245	C	1.456615	0.094501	0.054946
C246	C	1.446445	0.059648	0.010911
C247	C	1.536671	-0.018441	0.014304
C248	C	1.637068	-0.061677	0.061733
C249	C	1.647243	-0.026825	0.105772
C250	C	1.557016	0.051264	0.102378
H251	H	1.372121	0.091655	-0.024202
H252	H	1.529139	-0.044241	-0.018296
H253	H	1.703860	-0.119483	0.064245
H254	H	1.721566	-0.058831	0.140884
H255	H	1.564548	0.077064	0.134979
H256	H	1.267580	0.186089	-0.024168
H257	H	1.449937	0.172275	0.126693
H258	H	1.301117	0.301050	0.121109
H259	H	0.948906	0.327653	0.385985
H260	H	0.948920	0.210118	0.503535
H261	H	0.766618	0.223841	0.352721
H262	H	0.766602	0.341390	0.235148
H263	H	1.449935	0.172306	0.378437
H264	H	0.596637	0.910614	-0.327637
H265	H	0.282213	1.110686	-0.443802
H266	H	0.596696	0.910563	0.094543
H267	H	0.948868	0.883993	-0.170335
H268	H	0.857750	1.067205	-0.422080
