data_functionalizedCrystal
_audit_creation_method	'MofGen! by Chris Wilmer'
_symmetry_space_group_name_H-M	'P1'
_symmetry_Int_Tables_number	1
_symmetry_cell_setting	triclinic
loop_
_symmetry_equiv_pos_as_xyz
  x,y,z
_cell_length_a	11.169417
_cell_length_b	12.759399
_cell_length_c	12.759393
_cell_angle_alpha	90.030906
_cell_angle_beta	90.019397
_cell_angle_gamma	90.015995
loop_
_atom_site_label
_atom_site_type_symbol
_atom_site_fract_x
_atom_site_fract_y
_atom_site_fract_z
Zn1	Zn	1.834917	-0.418191	0.593974
Zn2	Zn	2.334917	0.081809	1.093974
Zn3	Zn	1.834792	-0.593906	0.418293
Zn4	Zn	2.334792	-0.093906	0.918293
Zn5	Zn	1.634205	-0.418245	0.418314
Zn6	Zn	2.134205	0.081755	0.918314
Zn7	Zn	1.634194	-0.593831	0.593935
Zn8	Zn	2.134194	-0.093831	1.093935
O9	O	1.734527	-0.506043	0.506129
O10	O	2.234527	-0.006043	1.006129
O11	O	2.002850	-0.441509	0.570677
O12	O	2.502850	0.058491	1.070677
O13	O	1.808135	-0.570659	0.271274
O14	O	2.308135	-0.070659	0.771274
O15	O	1.660887	-0.271217	0.441641
O16	O	2.160887	0.228783	0.941641
O17	O	2.002758	-0.570606	0.441605
O18	O	2.502758	-0.070606	0.941605
O19	O	1.808350	-0.271177	0.570697
O20	O	2.308350	0.228823	1.070697
O21	O	1.660765	-0.441601	0.271290
O22	O	2.160765	0.058399	0.771290
O23	O	1.466254	-0.441528	0.441603
O24	O	1.966254	0.058472	0.941603
O25	O	1.660869	-0.570478	0.740961
O26	O	2.160869	-0.070478	1.240961
O27	O	1.466246	-0.570530	0.570631
O28	O	1.966246	-0.070530	1.070631
O29	O	1.808339	-0.441436	0.740990
O30	O	2.308339	0.058564	1.240990
O31	O	1.808125	-0.740917	0.441567
O32	O	2.308125	-0.240917	0.941567
O33	O	1.660747	-0.740862	0.570610
O34	O	2.160747	-0.240862	1.070610
C35	C	1.734453	-0.779011	0.506105
C36	C	2.234453	-0.279011	1.006105
C37	C	1.734532	-0.895787	0.506130
C38	C	2.234532	-0.395787	1.006130
C39	C	1.422702	-0.506027	0.506115
C40	C	1.922702	-0.006027	1.006115
C41	C	1.289302	-0.506046	0.506134
C42	C	1.789302	-0.006046	1.006134
C43	C	1.811359	-0.950643	0.439013
C44	C	2.311359	-0.450643	0.939013
C45	C	1.811436	-1.060367	0.439049
C46	C	2.311436	-0.560367	0.939049
C47	C	1.657848	-1.060370	0.573320
C48	C	2.157848	-0.560370	1.073320
C49	C	1.657778	-0.950648	0.573289
C50	C	2.157778	-0.450648	1.073289
C51	C	2.047569	-0.506060	0.506143
C52	C	2.547569	-0.006060	1.006143
C53	C	2.180969	-0.506067	0.506149
C54	C	2.680969	-0.006067	1.006149
C55	C	1.734617	-0.505942	0.780162
C56	C	2.234617	-0.005942	1.280162
C57	C	1.734655	-0.505899	0.896939
C58	C	2.234655	-0.005899	1.396939
C59	C	1.734634	-0.232010	0.506176
C60	C	2.234634	0.267990	1.006176
C61	C	1.734679	-0.115233	0.506196
C62	C	2.234679	0.384767	1.006196
C63	C	1.734507	-0.506068	0.233161
C64	C	2.234507	-0.006068	0.733161
C65	C	1.734701	-0.505815	0.116385
C66	C	2.234701	-0.005815	0.616385
C67	C	1.811449	-0.438696	0.951818
C68	C	2.311449	0.061304	1.451818
C69	C	1.811469	-0.438651	1.061542
C70	C	2.311469	0.061349	1.561542
C71	C	1.657899	-0.573021	1.061499
C72	C	2.157899	-0.073021	1.561499
C73	C	1.657873	-0.573060	0.951777
C74	C	2.157873	-0.073060	1.451777
H75	H	1.873858	-0.905978	0.384330
H76	H	2.373858	-0.405978	0.884330
H77	H	1.595388	-0.627703	1.106161
H78	H	2.095388	-0.127703	1.606161
H79	H	1.873998	-1.105026	0.384397
H80	H	2.373998	-0.605026	0.884397
H81	H	1.595330	-0.627784	0.907093
H82	H	2.095330	-0.127784	1.407093
Br83	Br	1.915702	-0.347451	1.136016
Br84	Br	2.415702	0.152549	1.636016
H85	H	1.595216	-0.905981	0.627948
H86	H	2.095216	-0.405981	1.127948
Br87	Br	1.553686	-1.134830	0.664459
Br88	Br	2.053686	-0.634830	1.164459
H89	H	1.873966	-0.384007	0.907172
H90	H	2.373966	0.115993	1.407172
