data_functionalizedCrystal
_audit_creation_method	'MofGen! by Chris Wilmer'
_symmetry_space_group_name_H-M	'P1'
_symmetry_Int_Tables_number	1
_symmetry_cell_setting	triclinic
loop_
_symmetry_equiv_pos_as_xyz
  x,y,z
_cell_length_a	16.109301
_cell_length_b	23.532357
_cell_length_c	14.586319
_cell_angle_alpha	89.990687
_cell_angle_beta	89.999213
_cell_angle_gamma	83.144886
loop_
_atom_site_label
_atom_site_type_symbol
_atom_site_fract_x
_atom_site_fract_y
_atom_site_fract_z
O1	O	1.102536	0.073204	-0.076194
O2	O	0.860400	0.082314	-0.076210
O3	O	0.988791	-0.005148	-0.076182
O4	O	0.974145	0.160665	-0.076221
O5	O	0.988782	-0.005149	0.076298
O6	O	0.860391	0.082312	0.076271
O7	O	1.102527	0.073202	0.076287
Cu8	Cu	0.981458	0.077757	0.090202
Cu9	Cu	0.981469	0.077759	-0.090124
O10	O	0.974136	0.160664	0.076260
C11	C	0.829424	0.081944	0.000029
C12	C	0.737137	0.080838	0.000024
C13	C	0.988421	-0.026367	0.000061
C14	C	0.987319	-0.089589	0.000069
C15	C	0.514464	0.130163	0.000023
C16	C	0.427752	0.129119	0.000029
C17	C	0.448470	0.025349	0.000049
C18	C	0.535180	0.026394	0.000050
C19	C	0.568175	0.078802	0.000032
C20	C	0.394753	0.076714	0.000037
C21	C	0.300736	0.075581	0.000044
C22	C	0.662197	0.079935	0.000027
C23	C	0.980409	-0.481625	-0.083098
C24	C	0.979362	-0.541029	-0.083103
O25	O	0.978796	-0.571746	-0.153791
N26	N	0.978838	-0.570742	0.000013
C27	C	0.979353	-0.541049	0.083140
O28	O	0.978810	-0.571778	0.153836
C29	C	0.980394	-0.481646	0.083144
C30	C	0.980926	-0.451936	0.000023
C31	C	0.980941	-0.451915	-0.166213
C32	C	0.981989	-0.392516	-0.166207
C33	C	0.982506	-0.362827	-0.083087
C34	C	0.981975	-0.392537	0.000028
C35	C	0.980902	-0.451954	0.166270
C36	C	0.981943	-0.392547	0.166267
C37	C	0.982475	-0.362837	0.083146
C38	C	0.983540	-0.303449	0.083154
N39	N	0.984064	-0.273735	0.000038
C40	C	0.983547	-0.303424	-0.083082
C41	C	0.977165	-0.665799	0.083124
C42	C	0.976130	-0.725201	0.083121
C43	C	0.976138	-0.725176	-0.083122
C44	C	0.977179	-0.665773	-0.083118
C45	C	0.977689	-0.636085	0.000008
C46	C	0.985750	-0.178682	-0.083064
C47	C	0.986802	-0.119278	-0.083051
C48	C	0.986790	-0.119308	0.083192
C49	C	0.985742	-0.178707	0.083179
C50	C	0.985219	-0.208392	0.000044
O51	O	0.984103	-0.272693	0.153806
O52	O	0.984079	-0.272688	-0.153767
C53	C	1.133503	0.073572	0.000046
C54	C	1.225790	0.074678	0.000046
C55	C	0.974507	0.181883	0.000014
C56	C	0.975608	0.245105	-0.000000
N57	N	0.981457	0.077756	0.217034
N58	N	0.981477	0.077756	-0.216956
C59	C	1.038327	0.039041	0.452052
C60	C	1.038330	0.039039	0.548033
C61	C	0.924601	0.116473	0.548019
C62	C	0.924595	0.116471	0.452039
C63	C	0.981463	0.077756	0.404058
C64	C	0.981471	0.077756	0.596019
C65	C	0.981473	0.077755	0.700086
C66	C	0.981460	0.077756	0.299985
H67	H	0.541325	0.172838	0.000015
C68	C	0.985198	-0.211330	-0.174510
H69	H	0.985677	-0.185122	-0.224003
H70	H	0.936307	-0.230152	-0.177996
H71	H	1.033293	-0.238853	-0.177953
C72	C	0.412176	-0.032297	0.000058
H73	H	0.456586	-0.062737	0.000071
H74	H	0.378783	-0.034860	-0.053116
H75	H	0.378781	-0.034864	0.053237
H76	H	0.384024	0.170943	0.000023
H77	H	0.980517	-0.476081	-0.233903
H78	H	1.084632	0.007516	0.412988
H79	H	0.578914	-0.015433	0.000060
H80	H	0.987238	-0.095091	-0.150742
C81	C	0.982559	-0.359841	-0.257641
H82	H	0.982091	-0.386037	-0.307139
H83	H	1.031452	-0.341020	-0.261107
H84	H	0.934467	-0.332316	-0.261097
H85	H	0.977611	-0.641587	-0.150803
C86	C	1.100884	-0.003545	0.600823
H87	H	1.134753	-0.026598	0.558498
H88	H	1.071186	-0.027260	0.638274
H89	H	1.135319	0.016954	0.638254
C90	C	0.975559	-0.757841	-0.174554
H91	H	0.974853	-0.797472	-0.162646
H92	H	1.024219	-0.752461	-0.208711
H93	H	0.927234	-0.743747	-0.208705
H94	H	0.975709	-0.749387	0.150807
H95	H	0.977583	-0.641630	0.150820
C96	C	0.980308	-0.484621	0.257705
H97	H	0.980753	-0.458422	0.307201
H98	H	1.028386	-0.512152	0.261181
H99	H	0.931401	-0.503434	0.261153
C100	C	0.982507	-0.359893	0.257708
H101	H	0.982047	-0.386099	0.307206
H102	H	0.934427	-0.332364	0.261164
H103	H	1.031412	-0.341079	0.261174
C104	C	0.985159	-0.211389	0.174610
H105	H	0.985613	-0.185197	0.224113
H106	H	1.033234	-0.238924	0.178073
H107	H	0.936248	-0.230199	0.178055
H108	H	0.987214	-0.095124	0.150866
C109	C	0.862031	0.159044	0.600796
H110	H	0.828151	0.182093	0.558463
H111	H	0.891712	0.182765	0.638242
H112	H	0.827608	0.138531	0.638232
H113	H	0.878285	0.147997	0.412960
