data_functionalizedCrystal
_audit_creation_method	'MofGen! by Chris Wilmer'
_symmetry_space_group_name_H-M	'P1'
_symmetry_Int_Tables_number	1
_symmetry_cell_setting	triclinic
loop_
_symmetry_equiv_pos_as_xyz
  x,y,z
_cell_length_a	6.817900
_cell_length_b	12.840933
_cell_length_c	9.582860
_cell_angle_alpha	82.178774
_cell_angle_beta	111.206767
_cell_angle_gamma	88.345099
loop_
_atom_site_label
_atom_site_type_symbol
_atom_site_fract_x
_atom_site_fract_y
_atom_site_fract_z
V1	V	-3.939042	0.325019	-0.210579
O2	O	-3.887048	0.319029	0.006492
O3	O	-3.930761	0.322607	-0.414054
O4	O	-3.834316	0.466858	-0.208931
O5	O	-3.984161	0.173780	-0.200051
V6	V	-4.424770	0.306953	-0.184427
O7	O	-4.195463	0.364650	-0.267946
O8	O	-4.618545	0.267323	-0.127060
O9	O	-4.209844	0.309365	0.019048
O10	O	-4.594160	0.312943	-0.401497
O11	O	-4.497047	0.458192	-0.194955
O12	O	-4.306289	0.165114	-0.186074
C13	C	-3.787344	0.317431	-0.463607
C14	C	-3.861484	0.316405	-0.629960
C15	C	-3.664329	0.501436	-0.201946
C16	C	-3.660175	0.619567	-0.201943
C17	C	-4.139617	0.130531	-0.193057
C18	C	-4.122620	0.012399	-0.193055
V19	V	-3.921992	0.811184	-0.210589
O20	O	-3.956492	0.962399	-0.200058
O21	O	-3.827413	0.664001	-0.208943
O22	O	-3.912172	0.852400	-0.414061
O23	O	-3.871147	0.772697	0.006480
V24	V	-4.405776	0.848653	-0.184445
O25	O	-4.180352	0.795604	-0.267961
O26	O	-4.596820	0.886918	-0.127082
O27	O	-4.277540	0.984587	-0.186088
O28	O	-4.488466	0.703353	-0.194978
O29	O	-4.573811	0.893056	-0.401517
O30	O	-4.192782	0.796189	0.019031
C31	C	-4.016606	0.314538	0.068593
C32	C	-3.921701	0.315572	0.234945
C33	C	-3.768303	0.859888	-0.463603
C34	C	-3.841108	0.896727	-0.629954
C35	C	-4.000582	0.771732	0.068587
C36	C	-3.907052	0.733857	0.234941
C37	C	-4.056850	0.919473	-0.715762
C38	C	-4.125284	0.954102	-0.872064
C39	C	-3.977974	0.965976	-0.942557
C40	C	-3.762213	0.943230	-0.856736
C41	C	-3.693781	0.908609	-0.700436
C42	C	-3.690553	0.703640	0.305403
C43	C	-3.602640	0.668065	0.461712
C44	C	-3.731232	0.662700	0.547555
C45	C	-3.947749	0.692924	0.477084
C46	C	-4.035657	0.728505	0.320779
H47	H	-4.176828	0.909805	-0.658389
N48	N	-4.086431	0.687137	0.569681
H49	H	-3.997871	0.660006	0.679386
H50	H	-4.199449	0.637785	0.530488
H51	H	-3.426339	0.643458	0.519066
H52	H	-4.033724	0.994168	-1.069828
H53	H	-3.642289	0.952904	-0.914156
N54	N	-4.357999	0.978628	-0.964601
H55	H	-4.434549	0.913318	-0.956001
H56	H	-4.378836	1.002396	-1.074271
H57	H	-3.659626	0.633723	0.674827
N58	N	-3.461081	0.884076	-0.607893
H59	H	-3.378163	0.896853	-0.676279
H60	H	-3.433889	0.807817	-0.557964
H61	H	-3.585813	0.708007	0.235530
N62	N	-4.269174	0.761091	0.244788
H63	H	-4.337279	0.752287	0.322896
H64	H	-4.335473	0.715397	0.165043
