data_functionalizedCrystal
_audit_creation_method	'MofGen! by Chris Wilmer'
_symmetry_space_group_name_H-M	'P1'
_symmetry_Int_Tables_number	1
_symmetry_cell_setting	triclinic
loop_
_symmetry_equiv_pos_as_xyz
  x,y,z
_cell_length_a	16.974885
_cell_length_b	16.992695
_cell_length_c	16.053948
_cell_angle_alpha	87.280976
_cell_angle_beta	96.523943
_cell_angle_gamma	92.977267
loop_
_atom_site_label
_atom_site_type_symbol
_atom_site_fract_x
_atom_site_fract_y
_atom_site_fract_z
O1	O	-1.055530	0.099979	-0.001836
O2	O	-0.555530	0.599979	0.498164
O3	O	-0.825426	0.112054	0.013698
O4	O	-0.325426	0.612054	0.513698
O5	O	-0.939555	-0.008128	0.006001
O6	O	-0.439555	0.491872	0.506001
O7	O	-0.941401	0.220161	0.005861
O8	O	-0.441401	0.720161	0.505861
O9	O	-0.945868	-0.002221	-0.133282
O10	O	-0.445868	0.497779	0.366718
O11	O	-0.831739	0.117961	-0.125585
O12	O	-0.331739	0.617961	0.374415
O13	O	-1.061843	0.105886	-0.141118
O14	O	-0.561843	0.605886	0.358882
Zn15	Zn	-0.947793	0.112861	-0.155466
Zn16	Zn	-0.447793	0.612861	0.344534
Zn17	Zn	-0.939476	0.105079	0.028045
Zn18	Zn	-0.439476	0.605079	0.528045
O19	O	-0.947714	0.226068	-0.133421
O20	O	-0.447714	0.726068	0.366579
C21	C	-0.799003	0.114439	-0.053947
C22	C	-0.299003	0.614439	0.446053
C23	C	-0.710866	0.112737	-0.047996
C24	C	-0.210866	0.612737	0.452004
C25	C	-1.088266	0.103500	-0.073472
C26	C	-0.588266	0.603500	0.426528
C27	C	-1.176403	0.105202	-0.079417
C28	C	-0.676403	0.605202	0.420583
C29	C	-0.940338	-0.034392	-0.063477
C30	C	-0.440338	0.465608	0.436523
C31	C	-0.933257	-0.121449	-0.062988
C32	C	-0.433257	0.378551	0.437012
C33	C	-0.214376	0.102782	-0.006295
C34	C	0.285624	0.602782	0.493705
C35	C	-0.297191	0.104382	-0.011897
C36	C	0.202809	0.604382	0.488103
C37	C	-0.342031	0.108407	-0.090622
C38	C	0.157969	0.608407	0.409378
C39	C	-0.304053	0.110825	-0.163749
C40	C	0.195947	0.610825	0.336251
C41	C	-0.221240	0.109220	-0.158146
C42	C	0.278760	0.609220	0.341854
C43	C	-0.590075	0.113550	-0.115521
C44	C	-0.090075	0.613550	0.384479
C45	C	-0.672893	0.115157	-0.121118
C46	C	-0.172893	0.615157	0.378882
C47	C	-0.666025	0.108712	0.030735
C48	C	-0.166025	0.608712	0.530735
C49	C	-0.583211	0.107112	0.036331
C50	C	-0.083211	0.607112	0.536331
C51	C	-0.545240	0.109526	-0.036797
C52	C	-0.045240	0.609526	0.463203
N53	N	-0.426681	0.110045	-0.096350
N54	N	0.073319	0.610045	0.403650
N55	N	-0.460592	0.107882	-0.031068
N56	N	0.039408	0.607882	0.468932
N57	N	-0.953476	0.118172	-0.280707
N58	N	-0.453476	0.618172	0.219293
C59	C	-0.946931	0.252331	-0.063942
C60	C	-0.446931	0.752331	0.436058
C61	C	-0.954012	0.339388	-0.064425
C62	C	-0.454012	0.839388	0.435575
C63	C	-0.885688	0.389508	-0.059813
C64	C	-0.385688	0.889508	0.440187
C65	C	-0.892346	0.471306	-0.060252
C66	C	-0.392346	0.971306	0.439748
C67	C	-0.967329	0.502983	-0.065309
C68	C	-0.467329	1.002983	0.434691
C69	C	-1.035658	0.452856	-0.069920
C70	C	-0.535658	0.952856	0.430080
C71	C	-1.028999	0.371059	-0.069475
C72	C	-0.528999	0.871059	0.430525
C73	C	-0.994927	0.746628	-0.067153
C74	C	-0.494927	1.246628	0.432847
C75	C	-1.001581	0.828431	-0.067600
C76	C	-0.501581	1.328431	0.432400
C77	C	-0.858268	0.846876	-0.057931
C78	C	-0.358268	1.346876	0.442069
C79	C	-0.851616	0.765077	-0.057491
C80	C	-0.351616	1.265077	0.442509
C81	C	-0.919945	0.714957	-0.062097
C82	C	-0.419945	1.214957	0.437903
N83	N	-0.974136	0.586593	-0.065761
N84	N	-0.474136	1.086593	0.434239
N85	N	-0.913137	0.631348	-0.061640
N86	N	-0.413137	1.131348	0.438360
C87	C	-0.904368	0.072357	-0.321107
C88	C	-0.404368	0.572357	0.178893
C89	C	-0.908363	0.076082	-0.408782
C90	C	-0.408363	0.576082	0.091218
C91	C	-0.961471	0.125617	-0.456055
C92	C	-0.461471	0.625617	0.043945
C93	C	-1.010581	0.171437	-0.415649
C94	C	-0.510581	0.671437	0.084351
C95	C	-1.006581	0.167716	-0.327976
C96	C	-0.506581	0.667716	0.172024
C97	C	-0.978910	0.141861	-0.718635
C98	C	-0.478910	0.641861	-0.218635
C99	C	-0.982908	0.145576	-0.806314
C100	C	-0.482908	0.645576	-0.306314
C101	C	-0.880688	0.050222	-0.799440
C102	C	-0.380688	0.550222	-0.299440
C103	C	-0.876696	0.046502	-0.711766
C104	C	-0.376696	0.546502	-0.211766
C105	C	-0.925803	0.092325	-0.671367
C106	C	-0.425803	0.592325	-0.171367
N107	N	-0.965558	0.129423	-0.545673
N108	N	-0.465558	0.629423	-0.045673
N109	N	-0.921712	0.088522	-0.581751
N110	N	-0.421712	0.588522	-0.081751
N111	N	-0.933800	0.099761	0.153286
N112	N	-0.433800	0.599761	0.653286
H113	H	-0.177872	0.099510	0.057811
H114	H	0.322128	0.599510	0.557811
C115	C	-1.142576	0.801986	-0.077083
C116	C	-0.642576	1.301986	0.422917
C117	C	-1.084007	0.863250	-0.073143
C118	C	-0.584007	1.363250	0.426857
H119	H	-1.193459	0.823484	-0.080498
H120	H	-0.693459	1.323484	0.419502
H121	H	-1.139214	0.772532	-0.125279
H122	H	-0.639214	1.272532	0.374721
H123	H	-1.134783	0.768399	-0.028135
H124	H	-0.634783	1.268399	0.471865
H125	H	-1.091798	0.896834	-0.122095
H126	H	-0.591798	1.396834	0.377905
H127	H	-1.087372	0.892717	-0.024943
H128	H	-0.587372	1.392717	0.475057
C129	C	-0.584745	0.100878	0.185868
C130	C	-0.084745	0.600878	0.685868
C131	C	-0.533926	0.102672	0.122868
C132	C	-0.033926	0.602672	0.622868
H133	H	-0.554317	0.098132	0.239292
H134	H	-0.054317	0.598132	0.739292
H135	H	-0.614028	0.147328	0.180746
H136	H	-0.114028	0.647328	0.680746
H137	H	-0.620348	0.055949	0.180299
H138	H	-0.120348	0.555949	0.680299
H139	H	-0.498326	0.147605	0.128433
H140	H	0.001674	0.647605	0.628433
H141	H	-0.504630	0.056217	0.127992
H142	H	-0.004630	0.556217	0.627992
C143	C	-1.051269	0.304025	-0.445302
C144	C	-0.551269	0.804025	0.054698
C145	C	-1.068959	0.225888	-0.467610
C146	C	-0.568959	0.725888	0.032390
H147	H	-1.087309	0.337639	-0.477383
H148	H	-0.587309	0.837639	0.022617
H149	H	-1.055916	0.308362	-0.387312
H150	H	-0.555916	0.808362	0.112688
H151	H	-0.998585	0.319070	-0.456095
H152	H	-0.498585	0.819070	0.043905
H153	H	-1.121641	0.210841	-0.456811
H154	H	-0.621641	0.710841	0.043189
H155	H	-1.064319	0.221548	-0.525614
H156	H	-0.564319	0.721548	-0.025614
H157	H	-0.328105	0.102406	0.047646
H158	H	0.171895	0.602406	0.547646
C159	C	-0.789922	0.108304	0.089575
C160	C	-0.289922	0.608304	0.589575
C161	C	-0.707766	0.106049	0.111112
C162	C	-0.207766	0.606049	0.611112
H163	H	-0.815689	0.106652	0.139200
H164	H	-0.315689	0.606652	0.639200
H165	H	-0.801747	0.155580	0.057683
H166	H	-0.301747	0.655580	0.557683
H167	H	-0.808050	0.064200	0.057245
H168	H	-0.308050	0.564200	0.557245
H169	H	-0.689637	0.150156	0.143437
H170	H	-0.189637	0.650156	0.643437
H171	H	-0.695936	0.058767	0.143018
H172	H	-0.195936	0.558767	0.643018
H173	H	-0.868374	0.038774	-0.441671
H174	H	-0.368374	0.538774	0.058329
C175	C	-1.080360	0.236475	-0.734249
C176	C	-0.580360	0.736475	-0.234249
C177	C	-1.032897	0.192219	-0.674237
C178	C	-0.532897	0.692219	-0.174237
H179	H	-1.113695	0.267560	-0.706835
H180	H	-0.613695	0.767560	-0.206835
H181	H	-1.047459	0.269975	-0.766127
H182	H	-0.547459	0.769975	-0.266127
H183	H	-1.112125	0.201900	-0.770475
H184	H	-0.612125	0.701900	-0.270475
H185	H	-1.001128	0.226794	-0.638014
H186	H	-0.501128	0.726794	-0.138014
H187	H	-1.065802	0.158716	-0.642344
H188	H	-0.565802	0.658716	-0.142344
C189	C	-0.671370	0.121344	-0.270663
C190	C	-0.171370	0.621344	0.229337
C191	C	-0.722185	0.119571	-0.207659
C192	C	-0.222185	0.619571	0.292341
H193	H	-0.701803	0.124063	-0.324085
H194	H	-0.201803	0.624063	0.175915
H195	H	-0.635775	0.166272	-0.265118
H196	H	-0.135775	0.666272	0.234882
H197	H	-0.642079	0.074890	-0.265521
H198	H	-0.142079	0.574890	0.234479
H199	H	-0.751471	0.166028	-0.212798
H200	H	-0.251471	0.666028	0.287202
H201	H	-0.757793	0.074639	-0.213206
H202	H	-0.257793	0.574639	0.286794
C203	C	-0.779370	0.946514	0.018786
C204	C	-0.279370	1.446514	0.518786
C205	C	-0.783163	0.901967	-0.052856
C206	C	-0.283163	1.401967	0.447144
H207	H	-0.732998	0.980520	0.021922
H208	H	-0.232998	1.480520	0.521922
H209	H	-0.824974	0.977083	0.015701
H210	H	-0.324974	1.477083	0.515701
H211	H	-0.777553	0.912146	0.067322
H212	H	-0.277553	1.412146	0.567322
H213	H	-0.784986	0.936335	-0.101393
H214	H	-0.284986	1.436335	0.398607
H215	H	-0.737548	0.871395	-0.049779
H216	H	-0.237548	1.371395	0.450221
C217	C	-0.302518	0.117025	-0.313285
C218	C	0.197482	0.617025	0.186715
C219	C	-0.353339	0.115245	-0.250287
C220	C	0.146661	0.615245	0.249713
H221	H	-0.332946	0.119749	-0.366710
H222	H	0.167054	0.619749	0.133290
H223	H	-0.266923	0.161952	-0.307732
H224	H	0.233077	0.661952	0.192268
H225	H	-0.273227	0.070571	-0.308145
H226	H	0.226773	0.570571	0.191855
H227	H	-0.382625	0.161702	-0.255423
H228	H	0.117375	0.661702	0.244577
H229	H	-0.388948	0.070314	-0.255842
H230	H	0.111052	0.570314	0.244158
C231	C	-1.123034	0.531105	-0.004433
C232	C	-0.623034	1.031105	0.495567
C233	C	-1.118079	0.487676	-0.075479
C234	C	-0.618079	0.987676	0.424521
H235	H	-1.173918	0.552605	-0.007871
H236	H	-0.673918	1.052605	0.492129
H237	H	-1.115262	0.497515	0.044504
H238	H	-0.615262	0.997515	0.544504
H239	H	-1.083290	0.572659	-0.001759
H240	H	-0.583290	1.072659	0.498241
H241	H	-1.157820	0.446119	-0.078149
H242	H	-0.657820	0.946119	0.421851
H243	H	-1.125861	0.521270	-0.124429
H244	H	-0.625861	1.021270	0.375571
C245	C	-0.505609	0.048112	-0.197639
C246	C	-0.005609	0.548112	0.302361
C247	C	-0.548352	0.116198	-0.195907
C248	C	-0.048352	0.616198	0.304093
H249	H	-0.479856	0.049744	-0.247273
H250	H	0.020144	0.549744	0.252727
H251	H	-0.467047	0.045492	-0.149965
H252	H	0.032953	0.545492	0.350035
H253	H	-0.540939	0.002924	-0.196867
H254	H	-0.040939	0.502924	0.303133
H255	H	-0.513021	0.161386	-0.196672
H256	H	-0.013021	0.661386	0.303328
H257	H	-0.586918	0.118826	-0.243593
H258	H	-0.086918	0.618826	0.256407
H259	H	-0.840707	0.012917	-0.832342
H260	H	-0.340707	0.512917	-0.332342
C261	C	-1.094378	0.154913	-0.912098
C262	C	-0.594378	0.654913	-0.412098
C263	C	-1.041284	0.200032	-0.858282
C264	C	-0.541284	0.700032	-0.358282
H265	H	-1.130418	0.188529	-0.944177
H266	H	-0.630418	0.688529	-0.444177
H267	H	-1.065703	0.128160	-0.948699
H268	H	-0.565703	0.628160	-0.448699
H269	H	-1.123031	0.117457	-0.879913
H270	H	-0.623031	0.617457	-0.379913
H271	H	-1.012627	0.237484	-0.890468
H272	H	-0.512627	0.737484	-0.390468
H273	H	-1.069963	0.226797	-0.821677
H274	H	-0.569963	0.726797	-0.321677
H275	H	-0.790557	0.739292	-0.053363
H276	H	-0.290557	1.239292	0.446637
H277	H	-1.050566	0.705830	-0.070909
H278	H	-0.550566	1.205830	0.429091
H279	H	-1.046568	0.205026	-0.295084
H280	H	-0.546568	0.705026	0.204916
H281	H	-0.190323	0.111199	-0.217690
H282	H	0.309677	0.611199	0.282310
C283	C	-0.758246	0.377002	0.020174
C284	C	-0.258246	0.877002	0.520174
C285	C	-0.803265	0.354691	-0.054249
C286	C	-0.303265	0.854691	0.445751
H287	H	-0.707362	0.355504	0.023612
H288	H	-0.207362	0.855504	0.523612
H289	H	-0.752435	0.432883	0.020563
H290	H	-0.252435	0.932883	0.520563
H291	H	-0.784405	0.357737	0.066823
H292	H	-0.284405	0.857737	0.566823
H293	H	-0.777108	0.373961	-0.100898
H294	H	-0.277108	0.873961	0.399102
H295	H	-0.809073	0.298798	-0.054645
H296	H	-0.309073	0.798798	0.445355
C297	C	-0.813437	0.570939	0.016464
C298	C	-0.313437	1.070939	0.516464
C299	C	-0.817239	0.526394	-0.055180
C300	C	-0.317239	1.026394	0.444820
H301	H	-0.767063	0.604943	0.019597
H302	H	-0.267063	1.104943	0.519597
H303	H	-0.859037	0.601511	0.013385
H304	H	-0.359037	1.101511	0.513385
H305	H	-0.811618	0.536569	0.064999
H306	H	-0.311618	1.036569	0.564999
H307	H	-0.819064	0.560764	-0.103716
H308	H	-0.319064	1.060764	0.396284
H309	H	-0.771626	0.495820	-0.052109
H310	H	-0.271626	0.995820	0.447891
H311	H	-1.084636	0.330252	-0.073227
H312	H	-0.584636	0.830252	0.426773
C313	C	-0.776050	-0.047371	-0.713781
C314	C	-0.276050	0.452629	-0.213781
C315	C	-0.818314	-0.007945	-0.659805
C316	C	-0.318314	0.492055	-0.159805
H317	H	-0.740006	-0.080981	-0.681700
H318	H	-0.240006	0.419019	-0.181700
H319	H	-0.812071	-0.077968	-0.750289
H320	H	-0.312071	0.422032	-0.250289
H321	H	-0.747400	-0.009898	-0.745949
H322	H	-0.247400	0.490102	-0.245949
H323	H	-0.846969	-0.045418	-0.627640
H324	H	-0.346969	0.454582	-0.127640
H325	H	-0.782288	0.022654	-0.623282
H326	H	-0.282288	0.522654	-0.123282
H327	H	-0.861124	0.032018	-0.282623
H328	H	-0.361124	0.532018	0.217377
