data_functionalizedCrystal
_audit_creation_method	'MofGen! by Chris Wilmer'
_symmetry_space_group_name_H-M	'P1'
_symmetry_Int_Tables_number	1
_symmetry_cell_setting	triclinic
loop_
_symmetry_equiv_pos_as_xyz
  x,y,z
_cell_length_a	10.268362
_cell_length_b	14.853567
_cell_length_c	14.853567
_cell_angle_alpha	96.365070
_cell_angle_beta	89.997551
_cell_angle_gamma	89.998356
loop_
_atom_site_label
_atom_site_type_symbol
_atom_site_fract_x
_atom_site_fract_y
_atom_site_fract_z
O1	O	0.108199	-1.196365	0.117700
O2	O	0.441533	-0.863032	0.451033
O3	O	0.774866	-0.529699	0.784366
O4	O	0.108220	-0.933906	0.131721
O5	O	0.441554	-0.600573	0.465054
O6	O	0.774887	-0.267239	0.798388
O7	O	0.108213	-1.072146	-0.006519
O8	O	0.441546	-0.738813	0.326814
O9	O	0.774880	-0.405480	0.660147
O10	O	0.108206	-1.058125	0.255940
O11	O	0.441540	-0.724792	0.589273
O12	O	0.774873	-0.391458	0.922607
O13	O	-0.108388	-1.072133	-0.006515
O14	O	0.224946	-0.738800	0.326819
O15	O	0.558279	-0.405466	0.660152
O16	O	-0.108380	-0.933893	0.131726
O17	O	0.224953	-0.600559	0.465059
O18	O	0.558286	-0.267226	0.798392
O19	O	-0.108401	-1.196352	0.117704
O20	O	0.224932	-0.863019	0.451038
O21	O	0.558265	-0.529685	0.784371
Cu22	Cu	-0.128168	-1.065121	0.124716
Cu23	Cu	0.205165	-0.731788	0.458049
Cu24	Cu	0.538498	-0.398455	0.791382
Cu25	Cu	0.127987	-1.065137	0.124710
Cu26	Cu	0.461320	-0.731804	0.458043
Cu27	Cu	0.794654	-0.398470	0.791377
O28	O	-0.108394	-1.058112	0.255945
O29	O	0.224939	-0.724778	0.589278
O30	O	0.558272	-0.391445	0.922612
C31	C	-0.000077	-0.900311	0.131088
C32	C	0.333256	-0.566977	0.464421
C33	C	0.666589	-0.233644	0.797755
C34	C	-0.000069	-0.800227	0.129184
C35	C	0.333265	-0.466894	0.462518
C36	C	0.666598	-0.133560	0.795851
N37	N	-0.308334	-1.065117	0.124719
N38	N	0.024999	-0.731783	0.458052
N39	N	0.358332	-0.398450	0.791386
C40	C	-0.426177	-1.065123	0.124719
C41	C	-0.092843	-0.731790	0.458053
C42	C	0.240490	-0.398457	0.791386
C43	C	-0.574014	-1.065135	0.124711
C44	C	-0.240681	-0.731801	0.458045
C45	C	0.092652	-0.398468	0.791378
C46	C	-0.000083	-1.071504	-0.040106
C47	C	0.333250	-0.738171	0.293228
C48	C	0.666583	-0.404838	0.626561
C49	C	-0.000072	-1.069601	-0.140189
C50	C	0.333261	-0.736267	0.193144
C51	C	0.666595	-0.402934	0.526477
N52	N	0.308153	-1.065148	0.124699
N53	N	0.641486	-0.731815	0.458033
N54	N	0.974820	-0.398482	0.791366
C55	C	-0.000101	-1.229947	0.118337
C56	C	0.333232	-0.896614	0.451671
C57	C	0.666566	-0.563281	0.785004
C58	C	-0.000101	-1.330031	0.120241
C59	C	0.333232	-0.996698	0.453575
C60	C	0.666566	-0.663365	0.786908
C61	C	-0.000096	-0.387693	0.039019
C62	C	0.333238	-0.054360	0.372352
C63	C	0.666571	0.278974	0.705685
C64	C	-0.000099	-0.366412	0.203251
C65	C	0.333235	-0.033079	0.536585
C66	C	0.666568	0.300255	0.869918
C67	C	-0.000094	-0.460446	0.205042
C68	C	0.333239	-0.127112	0.538375
C69	C	0.666572	0.206221	0.871708
C70	C	-0.000089	-0.518108	0.123819
C71	C	0.333244	-0.184774	0.457152
C72	C	0.666578	0.148559	0.790486
C73	C	-0.000088	-0.481736	0.040806
C74	C	0.333246	-0.148402	0.374140
C75	C	0.666579	0.184931	0.707473
C76	C	-0.000083	-0.496825	0.288053
C77	C	0.333251	-0.163492	0.621386
C78	C	0.666584	0.169842	0.954719
C79	C	-0.000077	-0.590864	0.289846
C80	C	0.333256	-0.257531	0.623180
C81	C	0.666590	0.075803	0.956513
C82	C	-0.000081	-0.648528	0.208623
C83	C	0.333253	-0.315194	0.541956
C84	C	0.666586	0.018139	0.875289
C85	C	-0.000081	-0.612150	0.125607
C86	C	0.333252	-0.278817	0.458940
C87	C	0.666586	0.054516	0.792273
C88	C	-0.000075	-0.669812	0.044384
C89	C	0.333258	-0.336479	0.377717
C90	C	0.666591	-0.003146	0.711051
C91	C	-0.000085	-0.633437	-0.038633
C92	C	0.333249	-0.300104	0.294700
C93	C	0.666582	0.033230	0.628034
C94	C	-0.000091	-0.539399	-0.040417
C95	C	0.333242	-0.206066	0.292916
C96	C	0.666575	0.127267	0.626249
C97	C	-0.000074	-0.742565	0.210407
C98	C	0.333259	-0.409232	0.543740
C99	C	0.666592	-0.075898	0.877074
C100	C	-0.000067	-0.763855	0.046172
C101	C	0.333266	-0.430522	0.379505
C102	C	0.666599	-0.097188	0.712838
C103	C	-0.000090	-0.979435	-0.552723
C104	C	0.333244	-0.646102	-0.219390
C105	C	0.666577	-0.312768	0.113943
C106	C	-0.000103	-1.143668	-0.574004
C107	C	0.333231	-0.810334	-0.240671
C108	C	0.666564	-0.477001	0.092662
C109	C	-0.000095	-1.145458	-0.479971
C110	C	0.333238	-0.812124	-0.146637
C111	C	0.666572	-0.478791	0.186696
C112	C	-0.000087	-1.064235	-0.422309
C113	C	0.333247	-0.730902	-0.088975
C114	C	0.666580	-0.397569	0.244358
C115	C	-0.000086	-0.981223	-0.458680
C116	C	0.333247	-0.647889	-0.125347
C117	C	0.666581	-0.314556	0.207986
C118	C	-0.000109	-1.228469	-0.443591
C119	C	0.333224	-0.895136	-0.110258
C120	C	0.666558	-0.561802	0.223075
C121	C	-0.000103	-1.230262	-0.349552
C122	C	0.333230	-0.896929	-0.016219
C123	C	0.666564	-0.563596	0.317114
C124	C	-0.000085	-1.149039	-0.291889
C125	C	0.333248	-0.815706	0.041445
C126	C	0.666581	-0.482372	0.374778
C127	C	-0.000083	-1.066023	-0.328266
C128	C	0.333250	-0.732690	0.005067
C129	C	0.666584	-0.399356	0.338401
C130	C	-0.000075	-0.984800	-0.270604
C131	C	0.333259	-0.651467	0.062729
C132	C	0.666592	-0.318134	0.396063
C133	C	-0.000063	-0.901783	-0.306979
C134	C	0.333270	-0.568450	0.026354
C135	C	0.666603	-0.235117	0.359687
C136	C	-0.000068	-0.899999	-0.401017
C137	C	0.333265	-0.566666	-0.067683
C138	C	0.666598	-0.233332	0.265650
C139	C	-0.000080	-1.150823	-0.197851
C140	C	0.333253	-0.817490	0.135482
C141	C	0.666586	-0.484157	0.468815
C142	C	-0.000071	-0.986588	-0.176561
C143	C	0.333262	-0.653255	0.156772
C144	C	0.666595	-0.319921	0.490105
C145	C	-0.000095	-1.058754	0.289531
C146	C	0.333238	-0.725420	0.622865
C147	C	0.666572	-0.392087	0.956198
C148	C	-0.000098	-1.060657	0.389615
C149	C	0.333235	-0.727324	0.722948
C150	C	0.666569	-0.393991	1.056282
H151	H	-0.000068	-0.810798	-0.019971
H152	H	0.333265	-0.477465	0.313362
H153	H	0.666599	-0.144131	0.646696
F154	F	-0.000070	-0.435454	0.374489
F155	F	0.333264	-0.102120	0.707822
F156	F	0.666597	0.231213	1.041156
H157	H	-0.000059	-0.920445	-0.129618
H158	H	0.333275	-0.587112	0.203715
H159	H	0.666608	-0.253779	0.537049
H160	H	-0.000120	-1.209795	-0.620958
H161	H	0.333214	-0.876462	-0.287624
H162	H	0.666547	-0.543129	0.045709
H163	H	-0.000092	-0.319459	0.269379
H164	H	0.333241	0.013875	0.602712
H165	H	0.666575	0.347208	0.936046
H166	H	-0.000075	-0.911844	-0.582344
H167	H	0.333258	-0.578511	-0.249011
H168	H	0.666592	-0.245178	0.084322
F169	F	-0.000112	-0.348980	-0.049330
F170	F	0.333222	-0.015647	0.284004
F171	F	0.666555	0.317687	0.617337
H172	H	-0.000128	-1.294596	-0.490546
H173	H	0.333205	-0.961263	-0.157213
H174	H	0.666539	-0.627929	0.176121
H175	H	-0.000071	-0.680397	-0.104764
H176	H	0.333262	-0.347064	0.228569
H177	H	0.666595	-0.013731	0.561902
F178	F	-0.000099	-1.318615	-0.310847
F179	F	0.333234	-0.985282	0.022486
F180	F	0.666567	-0.651948	0.355819
F181	F	-0.000065	-0.815343	-0.245601
F182	F	0.333269	-0.482010	0.087732
F183	F	0.666602	-0.148677	0.421066
H184	H	-0.000069	-0.620472	0.357443
H185	H	0.333264	-0.287139	0.690777
H186	H	0.666597	0.046194	1.024110
F187	F	-0.000096	-0.500679	-0.128762
F188	F	0.333237	-0.167346	0.204571
F189	F	0.666570	0.165987	0.537905
H190	H	-0.000098	-1.218414	-0.168238
H191	H	0.333235	-0.885081	0.165095
H192	H	0.666568	-0.551748	0.498428
F193	F	-0.000052	-0.811654	-0.439737
F194	F	0.333281	-0.478321	-0.106404
F195	F	0.666615	-0.144988	0.226930
H196	H	-0.000069	-0.772178	0.277998
H197	H	0.333264	-0.438844	0.611331
H198	H	0.666598	-0.105511	0.944665
