data_functionalizedCrystal
_audit_creation_method	'MofGen! by Chris Wilmer'
_symmetry_space_group_name_H-M	'P1'
_symmetry_Int_Tables_number	1
_symmetry_cell_setting	triclinic
loop_
_symmetry_equiv_pos_as_xyz
  x,y,z
_cell_length_a	27.732048
_cell_length_b	15.944551
_cell_length_c	26.809956
_cell_angle_alpha	90.003135
_cell_angle_beta	90.024436
_cell_angle_gamma	96.929303
loop_
_atom_site_label
_atom_site_type_symbol
_atom_site_fract_x
_atom_site_fract_y
_atom_site_fract_z
O1	O	0.062351	-1.113703	0.041433
O2	O	0.562351	-0.613703	0.541433
O3	O	0.070037	-0.869053	0.041446
O4	O	0.570037	-0.369053	0.541446
O5	O	-0.004170	-0.998976	0.041430
O6	O	0.495830	-0.498976	0.541430
O7	O	0.136558	-0.983779	0.041450
O8	O	0.636558	-0.483779	0.541450
O9	O	-0.004194	-0.998977	-0.041529
O10	O	0.495806	-0.498977	0.458471
O11	O	0.070013	-0.869054	-0.041513
O12	O	0.570013	-0.369054	0.458487
O13	O	0.062327	-1.113704	-0.041526
O14	O	0.562327	-0.613704	0.458474
Zn15	Zn	0.066167	-0.991379	-0.054691
Zn16	Zn	0.566167	-0.491379	0.445309
Zn17	Zn	0.066198	-0.991378	0.054611
Zn18	Zn	0.566198	-0.491378	0.554611
O19	O	0.136534	-0.983780	-0.041510
O20	O	0.636534	-0.483780	0.458490
C21	C	-0.022190	-0.998658	-0.000051
C22	C	0.477810	-0.498658	0.499949
C23	C	-0.075849	-0.997697	-0.000055
C24	C	0.424151	-0.497697	0.499945
C25	C	0.069706	-0.837763	-0.000032
C26	C	0.569706	-0.337763	0.499968
C27	C	0.068749	-0.744530	-0.000027
C28	C	0.568749	-0.244530	0.499973
C29	C	0.062658	-1.144993	-0.000047
C30	C	0.562658	-0.644993	0.499953
C31	C	0.063615	-1.238227	-0.000048
C32	C	0.563615	-0.738227	0.499952
C33	C	-0.414358	-1.068426	-0.000033
C34	C	0.085642	-0.568426	0.499967
C35	C	-0.616033	-1.064862	-0.000026
C36	C	-0.116033	-0.564862	0.499974
O37	O	-0.647008	-1.129539	-0.000008
O38	O	-0.147008	-0.629539	0.499992
N39	N	-0.635490	-0.987823	-0.000023
N40	N	-0.135490	-0.487823	0.499977
C41	C	-0.604525	-0.911669	-0.000017
C42	C	-0.104525	-0.411669	0.499983
O43	O	-0.625703	-0.846061	-0.000009
O44	O	-0.125703	-0.346061	0.499991
C45	C	-0.402851	-0.915234	-0.000021
C46	C	0.097149	-0.415234	0.499979
C47	C	-0.383397	-0.992278	-0.000030
C48	C	0.116603	-0.492278	0.499970
C49	C	-0.394903	-1.145464	-0.000042
C50	C	0.105097	-0.645464	0.499958
C51	C	-0.344487	-1.146354	-0.000046
C52	C	0.155513	-0.646354	0.499954
C53	C	-0.313526	-1.070206	-0.000042
C54	C	0.186474	-0.570206	0.499958
C55	C	-0.332981	-0.993168	-0.000034
C56	C	0.167019	-0.493168	0.499966
C57	C	-0.371887	-0.839081	-0.000012
C58	C	0.128113	-0.339081	0.499988
C59	C	-0.321466	-0.839979	-0.000012
C60	C	0.178534	-0.339979	0.499988
C61	C	-0.302012	-0.917024	-0.000021
C62	C	0.197988	-0.417024	0.499979
C63	C	-0.251604	-0.917911	-0.000035
C64	C	0.248396	-0.417911	0.499965
N65	N	-0.232147	-0.994950	-0.000039
N66	N	0.267853	-0.494950	0.499961
C67	C	-0.263108	-1.071098	-0.000042
C68	C	0.236892	-0.571098	0.499958
C69	C	-0.710408	-0.909803	-0.000017
C70	C	-0.210408	-0.409803	0.499983
C71	C	-0.760826	-0.908912	-0.000017
C72	C	-0.260826	-0.408912	0.499983
C73	C	-0.772330	-1.062105	-0.000024
C74	C	-0.272330	-0.562105	0.499976
C75	C	-0.721911	-1.062995	-0.000028
C76	C	-0.221911	-0.562995	0.499972
C77	C	-0.690950	-0.986842	-0.000020
C78	C	-0.190950	-0.486842	0.499980
C79	C	-0.157231	-1.072961	-0.000052
C80	C	0.342769	-0.572961	0.499948
C81	C	-0.106810	-1.073845	-0.000059
C82	C	0.393190	-0.573845	0.499941
C83	C	-0.095310	-0.920652	-0.000048
C84	C	0.404690	-0.420652	0.499952
C85	C	-0.145727	-0.919768	-0.000044
C86	C	0.354273	-0.419768	0.499956
C87	C	-0.176686	-0.995930	-0.000045
C88	C	0.323314	-0.495930	0.499955
O89	O	-0.220600	-0.853269	-0.000048
O90	O	0.279400	-0.353269	0.499952
O91	O	-0.241921	-1.136697	-0.000040
O92	O	0.258079	-0.636697	0.499960
C93	C	-0.464774	-1.067536	-0.000029
C94	C	0.035226	-0.567536	0.499971
C95	C	-0.484228	-0.990498	-0.000021
C96	C	0.015772	-0.490498	0.499979
C97	C	-0.453268	-0.914350	-0.000017
C98	C	0.046732	-0.414350	0.499983
C99	C	-0.534647	-0.989607	-0.000021
C100	C	-0.034647	-0.489607	0.499979
C101	C	-0.565608	-1.065754	-0.000024
C102	C	-0.065608	-0.565754	0.499976
C103	C	-0.546150	-1.142794	-0.000028
C104	C	-0.046150	-0.642794	0.499972
C105	C	-0.495734	-1.143684	-0.000033
C106	C	0.004266	-0.643684	0.499967
C107	C	-0.472725	-0.837311	-0.000013
C108	C	0.027275	-0.337311	0.499987
C109	C	-0.523141	-0.836427	-0.000010
C110	C	-0.023141	-0.336427	0.499990
C111	C	-0.554102	-0.912575	-0.000013
C112	C	-0.054102	-0.412575	0.499987
C113	C	0.154554	-0.984099	-0.000028
C114	C	0.654554	-0.484099	0.499972
C115	C	0.208213	-0.985059	-0.000020
C116	C	0.708213	-0.485059	0.499980
N117	N	0.066216	-0.991377	0.129207
N118	N	0.566216	-0.491377	0.629207
C119	C	0.020466	-0.530305	-0.000044
C120	C	0.520466	-0.030305	0.499956
C121	C	0.042899	-0.468991	0.040863
C122	C	0.542899	0.031009	0.540863
C123	C	0.067019	-0.573827	-0.000033
C124	C	0.567019	-0.073827	0.499967
C125	C	0.042887	-0.469014	-0.040929
C126	C	0.542887	0.030986	0.459071
C127	C	0.065344	-0.408936	-0.000042
C128	C	0.565344	0.091064	0.499958
C129	C	0.089465	-0.513741	0.040907
C130	C	0.589465	-0.013741	0.540907
C131	C	0.089446	-0.513770	-0.040921
C132	C	0.589446	-0.013770	0.459079
C133	C	0.111912	-0.452474	-0.000005
C134	C	0.611912	0.047526	0.499995
C135	C	0.067983	-0.668816	-0.000028
C136	C	0.567983	-0.168816	0.499972
C137	C	0.064384	-0.313947	-0.000043
C138	C	0.564384	0.186053	0.499957
N139	N	0.066145	-0.991386	-0.129287
N140	N	0.566145	-0.491386	0.370713
C141	C	0.036775	-0.940939	0.473832
C142	C	0.536775	-0.440939	0.973832
C143	C	0.036758	-0.940941	0.682709
C144	C	0.536758	-0.440941	1.182709
O145	O	0.011740	-0.898065	0.709712
O146	O	0.511740	-0.398065	1.209712
N147	N	0.066155	-0.991388	0.708834
N148	N	0.566155	-0.491388	1.208834
C149	C	0.095555	-1.041842	0.682737
C150	C	0.595555	-0.541842	1.182737
O151	O	0.120554	-1.084757	0.709750
O152	O	0.620554	-0.584757	1.209750
C153	C	0.095569	-1.041845	0.473860
C154	C	0.595569	-0.541845	0.973860
C155	C	0.066174	-0.991388	0.447738
C156	C	0.566174	-0.491388	0.947738
C157	C	0.007382	-0.890487	0.447709
C158	C	0.507382	-0.390487	0.947709
C159	C	0.007388	-0.890484	0.395493
C160	C	0.507388	-0.390484	0.895493
C161	C	0.036788	-0.940932	0.369399
C162	C	0.536788	-0.440932	0.869399
C163	C	0.066180	-0.991384	0.395521
C164	C	0.566180	-0.491384	0.895521
C165	C	0.124966	-1.092303	0.447763
C166	C	0.624966	-0.592303	0.947763
C167	C	0.124966	-1.092301	0.395541
C168	C	0.624966	-0.592301	0.895541
C169	C	0.095571	-1.041844	0.369419
C170	C	0.595571	-0.541844	0.869419
C171	C	0.095586	-1.041830	0.317211
C172	C	0.595586	-0.541830	0.817211
N173	N	0.066189	-0.991383	0.291086
N174	N	0.566189	-0.491383	0.791086
C175	C	0.036790	-0.940934	0.317180
C176	C	0.536790	-0.440934	0.817180
C177	C	0.095547	-1.041836	0.792400
C178	C	0.595547	-0.541836	1.292400
C179	C	0.095544	-1.041835	0.844619
C180	C	0.595544	-0.541835	1.344619
C181	C	0.036746	-0.940934	0.844588
C182	C	0.536746	-0.440934	1.344588
C183	C	0.036752	-0.940932	0.792368
C184	C	0.536752	-0.440932	1.292368
C185	C	0.066150	-0.991389	0.766275
C186	C	0.566150	-0.491389	1.266275
C187	C	0.036806	-0.940930	0.207522
C188	C	0.536806	-0.440930	0.707522
C189	C	0.036817	-0.940928	0.155301
C190	C	0.536817	-0.440928	0.655301
C191	C	0.095612	-1.041832	0.155337
C192	C	0.595612	-0.541832	0.655337
C193	C	0.095604	-1.041831	0.207553
C194	C	0.595604	-0.541831	0.707553
C195	C	0.066197	-0.991377	0.233644
C196	C	0.566197	-0.491377	0.733644
O197	O	0.120586	-1.084691	0.290176
O198	O	0.620586	-0.584691	0.790176
O199	O	0.011787	-0.898039	0.290157
O200	O	0.511787	-0.398039	0.790157
C201	C	0.036768	-0.940942	0.526048
C202	C	0.536768	-0.440942	1.026048
C203	C	0.066161	-0.991394	0.552170
C204	C	0.566161	-0.491394	1.052170
C205	C	0.095560	-1.041843	0.526076
C206	C	0.595560	-0.541843	1.026076
C207	C	0.066158	-0.991393	0.604389
C208	C	0.566158	-0.491393	1.104389
C209	C	0.036759	-0.940944	0.630483
C210	C	0.536759	-0.440944	1.130483
C211	C	0.007363	-0.890497	0.604358
C212	C	0.507363	-0.390497	1.104358
C213	C	0.007369	-0.890494	0.552142
C214	C	0.507369	-0.390494	1.052142
C215	C	0.124957	-1.092290	0.552201
C216	C	0.624957	-0.592290	1.052201
C217	C	0.124948	-1.092289	0.604418
C218	C	0.624948	-0.592289	1.104418
C219	C	0.095549	-1.041840	0.630512
C220	C	0.595549	-0.541840	1.130512
H221	H	-0.090973	-1.136586	-0.000067
H222	H	0.409027	-0.636586	0.499933
H223	H	0.150587	-0.418809	0.000023
H224	H	0.650587	0.081191	0.500023
C225	C	0.116054	-0.540393	0.087681
C226	C	0.616054	-0.040393	0.587681
N227	N	0.136079	-0.560470	0.122912
N228	N	0.636079	-0.060470	0.622912
C229	C	0.157286	-1.147801	0.633146
C230	C	0.657286	-0.647801	1.133146
N231	N	0.181639	-1.189618	0.654783
N232	N	0.681639	-0.689618	1.154783
C233	C	0.116008	-0.540629	-0.087637
C234	C	0.616008	-0.040629	0.412363
N235	N	0.136011	-0.560862	-0.122828
N236	N	0.636011	-0.060862	0.377172
C237	C	-0.438674	-0.753537	-0.000009
C238	C	0.061326	-0.253537	0.499991
N239	N	-0.413029	-0.690433	-0.000007
N240	N	0.086971	-0.190433	0.499993
C241	C	0.016262	-0.442229	-0.087648
C242	C	0.516262	0.057771	0.412352
N243	N	-0.003794	-0.422058	-0.122836
N244	N	0.496206	0.077942	0.377164
C245	C	0.004479	-0.885420	0.126570
C246	C	0.504479	-0.385420	0.626570
N247	N	-0.019878	-0.843613	0.104931
N248	N	0.480122	-0.343613	0.604931
C249	C	0.004460	-0.885423	0.236215
C250	C	0.504460	-0.385423	0.736215
N251	N	-0.019900	-0.843611	0.257826
N252	N	0.480100	-0.343611	0.757826
H253	H	0.119488	-1.082927	0.771160
H254	H	0.619488	-0.582927	1.271160
C255	C	-0.024950	-0.834980	0.366765
C256	C	0.475050	-0.334980	0.866765
N257	N	-0.049311	-0.793173	0.345131
N258	N	0.450689	-0.293173	0.845131
H259	H	0.148901	-1.133392	0.469023
H260	H	0.648901	-0.633392	0.969023
C261	C	0.016312	-0.442163	0.087574
C262	C	0.516312	0.057837	0.587574
N263	N	-0.003717	-0.421958	0.122755
N264	N	0.496283	0.078042	0.622755
C265	C	-0.024960	-0.834980	0.476404
C266	C	0.475040	-0.334980	0.976404
N267	N	-0.049319	-0.793163	0.498014
N268	N	0.450681	-0.293163	0.998014
H269	H	0.012810	-0.899854	0.865843
H270	H	0.512810	-0.399854	1.365843
H271	H	0.012816	-0.899845	0.771103
H272	H	0.512816	-0.399845	1.271103
C273	C	-0.782220	-0.824157	-0.000013
C274	C	-0.282220	-0.324157	0.499987
N275	N	-0.798331	-0.760317	-0.000007
N276	N	-0.298331	-0.260317	0.499993
H277	H	-0.016567	-0.849406	0.530878
H278	H	0.483433	-0.349406	1.030878
C279	C	0.127884	-1.097335	0.873348
C280	C	0.627884	-0.597335	1.373348
N281	N	0.152241	-1.139144	0.894984
N282	N	0.652241	-0.639144	1.394984
H283	H	0.148905	-1.133392	0.374299
H284	H	0.648905	-0.633392	0.874299
C285	C	0.127942	-1.097330	0.236288
C286	C	0.627942	-0.597330	0.736288
N287	N	0.152297	-1.139139	0.257928
N288	N	0.652297	-0.639139	0.757928
H289	H	0.119549	-1.082904	0.134082
H290	H	0.619549	-0.582904	0.634082
C291	C	-0.676357	-0.826023	-0.000008
C292	C	-0.176357	-0.326023	0.499992
N293	N	-0.650711	-0.762918	-0.000004
N294	N	-0.150711	-0.262918	0.499996
H295	H	-0.706075	-1.125732	-0.000035
H296	H	-0.206075	-0.625732	0.499965
C297	C	-0.025010	-0.835062	0.633072
C298	C	0.474990	-0.335062	1.133072
N299	N	-0.049405	-0.793336	0.654701
N300	N	0.450595	-0.293336	1.154701
H301	H	0.148897	-1.133374	0.530961
H302	H	0.648897	-0.633374	1.030961
H303	H	-0.182432	-1.134979	-0.000051
H304	H	0.317568	-0.634979	0.499949
H305	H	-0.479900	-1.206421	-0.000040
H306	H	0.020100	-0.706421	0.499960
C307	C	-0.323094	-1.231110	-0.000050
C308	C	0.176906	-0.731110	0.499950
N309	N	-0.306985	-1.294952	-0.000052
N310	N	0.193015	-0.794952	0.499948
H311	H	-0.387718	-0.776344	-0.000002
H312	H	0.112282	-0.276344	0.499998
H313	H	-0.797547	-1.124107	-0.000028
H314	H	-0.297547	-0.624107	0.499972
C315	C	-0.428953	-1.229240	-0.000051
C316	C	0.071047	-0.729240	0.499949
N317	N	-0.454596	-1.292346	-0.000063
N318	N	0.045404	-0.792346	0.499937
C319	C	-0.031735	-0.575987	0.000003
C320	C	0.468265	-0.075987	0.500003
N321	N	-0.071052	-0.610396	0.000041
N322	N	0.428948	-0.110396	0.500041
H323	H	-0.296260	-0.777965	-0.000005
H324	H	0.203740	-0.277965	0.499995
H325	H	-0.161567	-0.857033	-0.000051
H326	H	0.338433	-0.357033	0.499949
H327	H	-0.070093	-0.858655	-0.000047
H328	H	0.429907	-0.358655	0.499953
H329	H	-0.571368	-1.204796	-0.000033
H330	H	-0.071368	-0.704796	0.499967
H331	H	-0.538976	-0.773684	-0.000007
H332	H	-0.038976	-0.273684	0.499993
