data_functionalizedCrystal
_audit_creation_method	'MofGen! by Chris Wilmer'
_symmetry_space_group_name_H-M	'P1'
_symmetry_Int_Tables_number	1
_symmetry_cell_setting	triclinic
loop_
_symmetry_equiv_pos_as_xyz
  x,y,z
_cell_length_a	19.188930
_cell_length_b	27.732048
_cell_length_c	18.266242
_cell_angle_alpha	89.988683
_cell_angle_beta	89.977082
_cell_angle_gamma	82.893716
loop_
_atom_site_label
_atom_site_type_symbol
_atom_site_fract_x
_atom_site_fract_y
_atom_site_fract_z
O1	O	0.925764	0.060348	-0.061124
O2	O	1.175764	0.310348	0.188876
O3	O	1.425764	0.560348	0.438876
O4	O	1.675764	0.810348	0.688876
O5	O	0.722401	0.068472	-0.061075
O6	O	0.972401	0.318472	0.188925
O7	O	1.222401	0.568472	0.438925
O8	O	1.472401	0.818472	0.688925
O9	O	0.830399	-0.005968	-0.061087
O10	O	1.080399	0.244032	0.188913
O11	O	1.330399	0.494032	0.438913
O12	O	1.580399	0.744032	0.688913
O13	O	0.817767	0.134787	-0.061112
O14	O	1.067767	0.384787	0.188888
O15	O	1.317767	0.634787	0.438888
O16	O	1.567767	0.884787	0.688888
O17	O	0.830381	-0.005971	0.060675
O18	O	1.080381	0.244029	0.310675
O19	O	1.330381	0.494029	0.560675
O20	O	1.580381	0.744029	0.810675
O21	O	0.722383	0.068468	0.060687
O22	O	0.972383	0.318468	0.310687
O23	O	1.222383	0.568468	0.560687
O24	O	1.472383	0.818468	0.810687
O25	O	0.925746	0.060344	0.060638
O26	O	1.175746	0.310344	0.310638
O27	O	1.425746	0.560344	0.560638
O28	O	1.675746	0.810344	0.810638
Zn29	Zn	0.824062	0.064405	0.079995
Zn30	Zn	1.074062	0.314405	0.329995
Zn31	Zn	1.324062	0.564405	0.579995
Zn32	Zn	1.574062	0.814405	0.829995
Zn33	Zn	0.824086	0.064410	-0.080432
Zn34	Zn	1.074086	0.314410	0.169568
Zn35	Zn	1.324086	0.564410	0.419568
Zn36	Zn	1.574086	0.814410	0.669568
O37	O	0.817749	0.134783	0.060650
O38	O	1.067749	0.384783	0.310650
O39	O	1.317749	0.634783	0.560650
O40	O	1.567749	0.884783	0.810650
C41	C	0.696383	0.068207	-0.000187
C42	C	0.946383	0.318207	0.249813
C43	C	1.196383	0.568207	0.499813
C44	C	1.446383	0.818207	0.749813
C45	C	0.618883	0.067417	-0.000168
C46	C	0.868883	0.317417	0.249832
C47	C	1.118883	0.567417	0.499832
C48	C	1.368883	0.817417	0.749832
C49	C	0.573681	0.111096	-0.000187
C50	C	0.823681	0.361096	0.249813
C51	C	1.073681	0.611096	0.499813
C52	C	1.323681	0.861096	0.749813
C53	C	0.500862	0.110354	-0.000195
C54	C	0.750862	0.360354	0.249805
C55	C	1.000862	0.610354	0.499805
C56	C	1.250862	0.860354	0.749805
C57	C	0.473249	0.065931	-0.000199
C58	C	0.723249	0.315931	0.249801
C59	C	0.973249	0.565931	0.499801
C60	C	1.223249	0.815931	0.749801
C61	C	0.518461	0.022246	-0.000175
C62	C	0.768461	0.272246	0.249825
C63	C	1.018461	0.522246	0.499825
C64	C	1.268461	0.772246	0.749825
C65	C	0.591278	0.022990	-0.000160
C66	C	0.841278	0.272990	0.249840
C67	C	1.091278	0.522990	0.499840
C68	C	1.341278	0.772990	0.749840
N69	N	0.365491	0.031976	-0.041663
N70	N	0.615491	0.281976	0.208337
N71	N	0.865491	0.531976	0.458337
N72	N	1.115491	0.781976	0.708337
N73	N	0.296317	0.031273	-0.041679
N74	N	0.546317	0.281273	0.208321
N75	N	0.796317	0.531273	0.458321
N76	N	1.046317	0.781273	0.708321
C77	C	0.253854	0.063689	-0.000243
C78	C	0.503854	0.313689	0.249757
C79	C	0.753854	0.563689	0.499757
C80	C	1.003854	0.813689	0.749757
N81	N	0.283177	0.096842	0.041201
N82	N	0.533177	0.346842	0.291201
N83	N	0.783177	0.596842	0.541201
N84	N	1.033177	0.846842	0.791201
N85	N	0.352358	0.097546	0.041213
N86	N	0.602358	0.347546	0.291213
N87	N	0.852358	0.597546	0.541213
N88	N	1.102358	0.847546	0.791213
C89	C	0.394291	0.065120	-0.000215
C90	C	0.644291	0.315120	0.249785
C91	C	0.894291	0.565120	0.499785
C92	C	1.144291	0.815120	0.749785
C93	C	0.129692	0.106566	-0.000270
C94	C	0.379692	0.356566	0.249730
C95	C	0.629692	0.606566	0.499730
C96	C	0.879692	0.856566	0.749730
C97	C	0.056872	0.105822	-0.000273
C98	C	0.306872	0.355822	0.249727
C99	C	0.556872	0.605822	0.499727
C100	C	0.806872	0.855822	0.749727
C101	C	0.074473	0.017714	-0.000261
C102	C	0.324473	0.267714	0.249739
C103	C	0.574473	0.517714	0.499739
C104	C	0.824473	0.767714	0.749739
C105	C	0.147292	0.018459	-0.000250
C106	C	0.397292	0.268459	0.249750
C107	C	0.647292	0.518459	0.499750
C108	C	0.897292	0.768459	0.749750
C109	C	0.174897	0.062886	-0.000258
C110	C	0.424897	0.312886	0.249742
C111	C	0.674897	0.562886	0.499742
C112	C	0.924897	0.812886	0.749742
C113	C	0.830125	-0.023977	-0.000204
C114	C	1.080125	0.226023	0.249796
C115	C	1.330125	0.476023	0.499796
C116	C	1.580125	0.726023	0.749796
C117	C	0.829326	-0.077635	-0.000198
C118	C	1.079326	0.172365	0.249802
C119	C	1.329326	0.422365	0.499802
C120	C	1.579326	0.672365	0.749802
C121	C	0.888119	-0.416270	-0.000250
C122	C	1.138119	-0.166270	0.249750
C123	C	1.388119	0.083730	0.499750
C124	C	1.638119	0.333730	0.749750
C125	C	0.885157	-0.617939	-0.000259
C126	C	1.135157	-0.367939	0.249741
C127	C	1.385157	-0.117939	0.499741
C128	C	1.635157	0.132061	0.749741
O129	O	0.938918	-0.649030	-0.000304
O130	O	1.188918	-0.399030	0.249696
O131	O	1.438918	-0.149030	0.499696
O132	O	1.688918	0.100970	0.749696
N133	N	0.821118	-0.637258	-0.000243
N134	N	1.071118	-0.387258	0.249757
N135	N	1.321118	-0.137258	0.499757
N136	N	1.571118	0.112742	0.749757
C137	C	0.757816	-0.606157	-0.000229
C138	C	1.007816	-0.356157	0.249771
C139	C	1.257816	-0.106157	0.499771
C140	C	1.507816	0.143843	0.749771
O141	O	0.703280	-0.627217	-0.000223
O142	O	0.953280	-0.377217	0.249777
O143	O	1.203280	-0.127217	0.499777
O144	O	1.453280	0.122783	0.749777
C145	C	0.760780	-0.404489	-0.000225
C146	C	1.010780	-0.154489	0.249775
C147	C	1.260780	0.095511	0.499775
C148	C	1.510780	0.345511	0.749775
C149	C	0.824822	-0.385173	-0.000234
C150	C	1.074822	-0.135173	0.249766
C151	C	1.324822	0.114827	0.499766
C152	C	1.574822	0.364827	0.749766
C153	C	0.952156	-0.396953	-0.000259
C154	C	1.202156	-0.146953	0.249741
C155	C	1.452156	0.103047	0.499741
C156	C	1.702156	0.353047	0.749741
C157	C	0.952896	-0.346539	-0.000253
C158	C	1.202896	-0.096539	0.249747
C159	C	1.452896	0.153461	0.499747
C160	C	1.702896	0.403461	0.749747
C161	C	0.889599	-0.315441	-0.000237
C162	C	1.139599	-0.065441	0.249763
C163	C	1.389599	0.184559	0.499763
C164	C	1.639599	0.434559	0.749763
C165	C	0.825562	-0.334759	-0.000227
C166	C	1.075562	-0.084759	0.249773
C167	C	1.325562	0.165241	0.499773
C168	C	1.575562	0.415241	0.749773
C169	C	0.697478	-0.373389	-0.000216
C170	C	0.947478	-0.123389	0.249784
C171	C	1.197478	0.126611	0.499784
C172	C	1.447478	0.376611	0.749784
C173	C	0.698225	-0.322969	-0.000217
C174	C	0.948225	-0.072969	0.249783
C175	C	1.198225	0.177031	0.499783
C176	C	1.448225	0.427031	0.749783
C177	C	0.762267	-0.303653	-0.000226
C178	C	1.012267	-0.053653	0.249774
C179	C	1.262267	0.196347	0.499774
C180	C	1.512267	0.446347	0.749774
C181	C	0.763005	-0.253247	-0.000205
C182	C	1.013005	-0.003247	0.249795
C183	C	1.263005	0.246753	0.499795
C184	C	1.513005	0.496753	0.749795
N185	N	0.827043	-0.233928	-0.000221
N186	N	1.077043	0.016072	0.249779
N187	N	1.327043	0.266072	0.499779
N188	N	1.577043	0.516072	0.749779
C189	C	0.890340	-0.265025	-0.000237
C190	C	1.140340	-0.015025	0.249763
C191	C	1.390340	0.234975	0.499763
C192	C	1.640340	0.484975	0.749763
C193	C	0.756265	-0.712036	-0.000230
C194	C	1.006265	-0.462036	0.249770
C195	C	1.256265	-0.212036	0.499770
C196	C	1.506265	0.037964	0.749770
C197	C	0.755524	-0.762452	-0.000230
C198	C	1.005524	-0.512452	0.249770
C199	C	1.255524	-0.262452	0.499770
C200	C	1.505524	-0.012452	0.749770
C201	C	0.882865	-0.774231	-0.000261
C202	C	1.132865	-0.524231	0.249739
C203	C	1.382865	-0.274231	0.499739
C204	C	1.632865	-0.024231	0.749739
C205	C	0.883605	-0.723813	-0.000256
C206	C	1.133605	-0.473813	0.249744
C207	C	1.383605	-0.223813	0.499744
C208	C	1.633605	0.026187	0.749744
C209	C	0.820303	-0.692716	-0.000246
C210	C	1.070303	-0.442716	0.249754
C211	C	1.320303	-0.192716	0.499754
C212	C	1.570303	0.057284	0.749754
C213	C	0.891889	-0.159151	-0.000223
C214	C	1.141889	0.090849	0.249777
C215	C	1.391889	0.340849	0.499777
C216	C	1.641889	0.590849	0.749777
C217	C	0.892623	-0.108732	-0.000214
C218	C	1.142623	0.141268	0.249786
C219	C	1.392623	0.391268	0.499786
C220	C	1.642623	0.641268	0.749786
C221	C	0.765283	-0.096958	-0.000186
C222	C	1.015283	0.153042	0.249814
C223	C	1.265283	0.403042	0.499814
C224	C	1.515283	0.653042	0.749814
C225	C	0.764549	-0.147373	-0.000192
C226	C	1.014549	0.102627	0.249808
C227	C	1.264549	0.352627	0.499808
C228	C	1.514549	0.602627	0.749808
C229	C	0.827857	-0.178468	-0.000213
C230	C	1.077857	0.071532	0.249787
C231	C	1.327857	0.321532	0.499787
C232	C	1.577857	0.571532	0.749787
O233	O	0.709272	-0.222127	-0.000168
O234	O	0.959272	0.027873	0.249832
O235	O	1.209272	0.277873	0.499832
O236	O	1.459272	0.527873	0.749832
O237	O	0.944868	-0.243956	-0.000259
O238	O	1.194868	0.006044	0.249741
O239	O	1.444868	0.256044	0.499741
O240	O	1.694868	0.506044	0.749741
C241	C	0.887379	-0.466684	-0.000256
C242	C	1.137379	-0.216684	0.249744
C243	C	1.387379	0.033316	0.499744
C244	C	1.637379	0.283316	0.749744
C245	C	0.823342	-0.486001	-0.000246
C246	C	1.073342	-0.236001	0.249754
C247	C	1.323342	0.013999	0.499754
C248	C	1.573342	0.263999	0.749754
C249	C	0.760045	-0.454904	-0.000230
C250	C	1.010045	-0.204904	0.249770
C251	C	1.260045	0.045096	0.499770
C252	C	1.510045	0.295096	0.749770
C253	C	0.822601	-0.536418	-0.000246
C254	C	1.072601	-0.286418	0.249754
C255	C	1.322601	-0.036418	0.499754
C256	C	1.572601	0.213582	0.749754
C257	C	0.885898	-0.567515	-0.000262
C258	C	1.135898	-0.317515	0.249738
C259	C	1.385898	-0.067515	0.499738
C260	C	1.635898	0.182485	0.749738
C261	C	0.949936	-0.548195	-0.000278
C262	C	1.199936	-0.298195	0.249722
C263	C	1.449936	-0.048195	0.499722
C264	C	1.699936	0.201805	0.749722
C265	C	0.950676	-0.497781	-0.000272
C266	C	1.200676	-0.247781	0.249728
C267	C	1.450676	0.002219	0.499728
C268	C	1.700676	0.252219	0.749728
C269	C	0.696007	-0.474223	-0.000214
C270	C	0.946007	-0.224223	0.249786
C271	C	1.196007	0.025777	0.499786
C272	C	1.446007	0.275777	0.749786
C273	C	0.695272	-0.524638	-0.000220
C274	C	0.945272	-0.274638	0.249780
C275	C	1.195272	-0.024638	0.499780
C276	C	1.445272	0.225362	0.749780
C277	C	0.758569	-0.555735	-0.000236
C278	C	1.008569	-0.305735	0.249764
C279	C	1.258569	-0.055735	0.499764
C280	C	1.508569	0.194265	0.749764
C281	C	0.951765	0.060609	-0.000251
C282	C	1.201765	0.310609	0.249749
C283	C	1.451765	0.560609	0.499749
C284	C	1.701765	0.810609	0.749749
C285	C	1.029264	0.061399	-0.000275
C286	C	1.279264	0.311399	0.249725
C287	C	1.529264	0.561399	0.499725
C288	C	1.779264	0.811399	0.749725
C289	C	0.818023	0.152793	-0.000235
C290	C	1.068023	0.402793	0.249765
C291	C	1.318023	0.652793	0.499765
C292	C	1.568023	0.902793	0.749765
C293	C	0.818821	0.206450	-0.000246
C294	C	1.068821	0.456450	0.249754
C295	C	1.318821	0.706450	0.499754
C296	C	1.568821	0.956450	0.749754
N297	N	0.824051	0.064402	0.189482
N298	N	1.074051	0.314402	0.439482
N299	N	1.324051	0.564402	0.689482
N300	N	1.574051	0.814402	0.939482
N301	N	0.824103	0.064410	-0.189919
N302	N	1.074103	0.314410	0.060081
N303	N	1.324103	0.564410	0.310081
N304	N	1.574103	0.814410	0.560081
C305	C	0.871887	0.031456	0.227785
C306	C	1.121887	0.281456	0.477785
C307	C	1.371887	0.531456	0.727785
C308	C	1.621887	0.781456	0.977785
C309	C	0.871892	0.031454	0.304430
C310	C	1.121892	0.281454	0.554430
C311	C	1.371892	0.531454	0.804430
C312	C	1.621892	0.781454	1.054430
C313	C	0.824066	0.064406	0.342769
C314	C	1.074066	0.314406	0.592769
C315	C	1.324066	0.564406	0.842769
C316	C	1.574066	0.814406	1.092769
C317	C	0.776220	0.097354	0.304456
C318	C	1.026220	0.347354	0.554456
C319	C	1.276220	0.597354	0.804456
C320	C	1.526220	0.847354	1.054456
C321	C	0.776213	0.097352	0.227813
C322	C	1.026213	0.347352	0.477813
C323	C	1.276213	0.597352	0.727813
C324	C	1.526213	0.847352	0.977813
N325	N	0.814718	0.107196	0.463095
N326	N	1.064718	0.357196	0.713095
N327	N	1.314718	0.607196	0.963095
N328	N	1.564718	0.857196	1.213095
N329	N	0.814729	0.107196	0.535903
N330	N	1.064729	0.357196	0.785903
N331	N	1.314729	0.607196	1.035903
N332	N	1.564729	0.857196	1.285903
C333	C	0.824086	0.064413	0.573691
C334	C	1.074086	0.314413	0.823691
C335	C	1.324086	0.564413	1.073691
C336	C	1.574086	0.814413	1.323691
N337	N	0.833444	0.021627	0.535921
N338	N	1.083444	0.271627	0.785921
N339	N	1.333444	0.521627	1.035921
N340	N	1.583444	0.771627	1.285921
N341	N	0.833436	0.021628	0.463106
N342	N	1.083436	0.271628	0.713106
N343	N	1.333436	0.521628	0.963106
N344	N	1.583436	0.771628	1.213106
C345	C	0.824069	0.064411	0.425876
C346	C	1.074069	0.314411	0.675876
C347	C	1.324069	0.564411	0.925876
C348	C	1.574069	0.814411	1.175876
C349	C	0.871930	0.031462	0.695102
C350	C	1.121930	0.281462	0.945102
C351	C	1.371930	0.531462	1.195102
C352	C	1.621930	0.781462	1.445102
C353	C	0.871929	0.031459	0.771748
C354	C	1.121929	0.281459	1.021748
C355	C	1.371929	0.531459	1.271748
C356	C	1.621929	0.781459	1.521748
C357	C	0.776261	0.097363	0.771772
C358	C	1.026261	0.347363	1.021772
C359	C	1.276261	0.597363	1.271772
C360	C	1.526261	0.847363	1.521772
C361	C	0.776258	0.097362	0.695127
C362	C	1.026258	0.347362	0.945127
C363	C	1.276258	0.597362	1.195127
C364	C	1.526258	0.847362	1.445127
C365	C	0.824096	0.064412	0.656797
C366	C	1.074096	0.314412	0.906797
C367	C	1.324096	0.564412	1.156797
C368	C	1.574096	0.814412	1.406797
H369	H	0.051991	-0.018456	-0.000309
H370	H	0.301991	0.231544	0.249691
H371	H	0.551991	0.481544	0.499691
H372	H	0.801991	0.731544	0.749691
Cl373	Cl	1.033411	-0.322263	-0.000285
Cl374	Cl	1.283411	-0.072263	0.249715
Cl375	Cl	1.533411	0.177737	0.499715
Cl376	Cl	1.783411	0.427737	0.749715
Cl377	Cl	0.962438	-0.813333	-0.000285
Cl378	Cl	1.212438	-0.563333	0.249715
Cl379	Cl	1.462438	-0.313333	0.499715
Cl380	Cl	1.712438	-0.063333	0.749715
H381	H	0.910880	0.004630	0.663892
H382	H	1.160880	0.254630	0.913892
H383	H	1.410880	0.504630	1.163892
H384	H	1.660880	0.754630	1.413892
Cl385	Cl	0.676677	-0.672949	-0.000217
Cl386	Cl	0.926677	-0.422949	0.249783
Cl387	Cl	1.176677	-0.172949	0.499783
Cl388	Cl	1.426677	0.077051	0.749783
Cl389	Cl	0.716122	0.138783	0.646970
Cl390	Cl	0.966122	0.388783	0.896970
Cl391	Cl	1.216122	0.638783	1.146970
Cl392	Cl	1.466122	0.888783	1.396970
H393	H	0.703375	-0.778175	-0.000210
H394	H	0.953375	-0.528175	0.249790
H395	H	1.203375	-0.278175	0.499790
H396	H	1.453375	-0.028175	0.749790
Cl397	Cl	0.932068	-0.009965	0.819904
Cl398	Cl	1.182068	0.240035	1.069904
Cl399	Cl	1.432068	0.490035	1.319904
Cl400	Cl	1.682068	0.740035	1.569904
Cl401	Cl	0.204121	-0.036455	-0.000230
Cl402	Cl	0.454121	0.213545	0.249770
Cl403	Cl	0.704121	0.463545	0.499770
Cl404	Cl	0.954121	0.713545	0.749770
H405	H	0.645328	-0.389107	-0.000214
H406	H	0.895328	-0.139107	0.249786
H407	H	1.145328	0.110893	0.499786
H408	H	1.395328	0.360893	0.749786
H409	H	0.737318	0.124191	0.802987
H410	H	0.987318	0.374191	1.052987
H411	H	1.237318	0.624191	1.302987
H412	H	1.487318	0.874191	1.552987
Cl413	Cl	0.444025	0.165268	-0.000218
Cl414	Cl	0.694025	0.415268	0.249782
Cl415	Cl	0.944025	0.665268	0.499782
Cl416	Cl	1.194025	0.915268	0.749782
H417	H	0.944776	-0.093007	-0.000219
H418	H	1.194776	0.156993	0.249781
H419	H	1.444776	0.406993	0.499781
H420	H	1.694776	0.656993	0.749781
Cl421	Cl	0.971478	-0.198235	-0.000248
Cl422	Cl	1.221478	0.051765	0.249752
Cl423	Cl	1.471478	0.301765	0.499752
Cl424	Cl	1.721478	0.551765	0.749752
H425	H	0.646676	-0.297652	-0.000210
H426	H	0.896676	-0.047652	0.249790
H427	H	1.146676	0.202348	0.499790
H428	H	1.396676	0.452348	0.749790
Cl429	Cl	0.483748	-0.033600	-0.000175
Cl430	Cl	0.733748	0.216400	0.249825
Cl431	Cl	0.983748	0.466400	0.499825
Cl432	Cl	1.233748	0.716400	0.749825
Cl433	Cl	0.684038	-0.171657	-0.000167
Cl434	Cl	0.934038	0.078343	0.249833
Cl435	Cl	1.184038	0.328343	0.499833
Cl436	Cl	1.434038	0.578343	0.749833
Cl437	Cl	0.685714	-0.057855	-0.000168
Cl438	Cl	0.935714	0.192145	0.249832
Cl439	Cl	1.185714	0.442145	0.499832
Cl440	Cl	1.435714	0.692145	0.749832
H441	H	0.644461	-0.448908	-0.000203
H442	H	0.894461	-0.198908	0.249797
H443	H	1.144461	0.051092	0.499797
H444	H	1.394461	0.301092	0.749797
Cl445	Cl	1.031741	-0.436038	-0.000278
Cl446	Cl	1.281741	-0.186038	0.249722
Cl447	Cl	1.531741	0.063962	0.499722
Cl448	Cl	1.781741	0.313962	0.749722
Cl449	Cl	0.614753	-0.548915	-0.000205
Cl450	Cl	0.864753	-0.298915	0.249795
Cl451	Cl	1.114753	-0.048915	0.499795
Cl452	Cl	1.364753	0.201085	0.749795
Cl453	Cl	0.608381	0.166947	-0.000194
Cl454	Cl	0.858381	0.416947	0.249806
Cl455	Cl	1.108381	0.666947	0.499806
Cl456	Cl	1.358381	0.916947	0.749806
H457	H	1.002826	-0.482059	-0.000279
H458	H	1.252826	-0.232059	0.249721
H459	H	1.502826	0.017941	0.499721
H460	H	1.752826	0.267941	0.749721
Cl461	Cl	0.164399	0.162416	-0.000273
Cl462	Cl	0.414399	0.412416	0.249727
Cl463	Cl	0.664399	0.662416	0.499727
Cl464	Cl	0.914399	0.912416	0.749727
H465	H	1.001475	-0.573524	-0.000288
H466	H	1.251475	-0.323524	0.249712
H467	H	1.501475	-0.073524	0.499712
H468	H	1.751475	0.176476	0.749712
H469	H	0.910838	0.004625	0.196579
H470	H	1.160838	0.254625	0.446579
H471	H	1.410838	0.504625	0.696579
H472	H	1.660838	0.754625	0.946579
H473	H	0.020068	0.141392	-0.000285
H474	H	0.270068	0.391392	0.249715
H475	H	0.520068	0.641392	0.499715
H476	H	0.770068	0.891392	0.749715
Cl477	Cl	0.932036	-0.009967	0.352591
Cl478	Cl	1.182036	0.240033	0.602591
Cl479	Cl	1.432036	0.490033	0.852591
Cl480	Cl	1.682036	0.740033	1.102591
Cl481	Cl	0.716093	0.138777	0.352651
Cl482	Cl	0.966093	0.388777	0.602651
Cl483	Cl	1.216093	0.638777	0.852651
Cl484	Cl	1.466093	0.888777	1.102651
Cl485	Cl	0.964118	-0.699535	-0.000268
Cl486	Cl	1.214118	-0.449535	0.249732
Cl487	Cl	1.464118	-0.199535	0.499732
Cl488	Cl	1.714118	0.050465	0.749732
H489	H	0.628083	-0.012580	-0.000145
H490	H	0.878083	0.237420	0.249855
H491	H	1.128083	0.487420	0.499855
H492	H	1.378083	0.737420	0.749855
H493	H	0.737257	0.124181	0.196625
H494	H	0.987257	0.374181	0.446625
H495	H	1.237257	0.624181	0.696625
H496	H	1.487257	0.874181	0.946625
