data_functionalizedCrystal
_audit_creation_method	'MofGen! by Chris Wilmer'
_symmetry_space_group_name_H-M	'P1'
_symmetry_Int_Tables_number	1
_symmetry_cell_setting	triclinic
loop_
_symmetry_equiv_pos_as_xyz
  x,y,z
_cell_length_a	15.944551
_cell_length_b	14.044220
_cell_length_c	12.503572
_cell_angle_alpha	93.835250
_cell_angle_beta	93.522593
_cell_angle_gamma	91.656192
loop_
_atom_site_label
_atom_site_type_symbol
_atom_site_fract_x
_atom_site_fract_y
_atom_site_fract_z
O1	O	0.198062	-1.263178	-0.089210
O2	O	0.448062	-1.013178	0.160790
O3	O	0.698062	-0.763178	0.410790
O4	O	0.948062	-0.513178	0.660790
O5	O	0.190753	-0.987210	-0.089237
O6	O	0.440753	-0.737210	0.160763
O7	O	0.690753	-0.487210	0.410763
O8	O	0.940753	-0.237210	0.660763
O9	O	0.072697	-1.132730	-0.089213
O10	O	0.322697	-0.882730	0.160787
O11	O	0.572697	-0.632730	0.410787
O12	O	0.822697	-0.382730	0.660787
O13	O	0.316117	-1.117659	-0.089234
O14	O	0.566117	-0.867659	0.160766
O15	O	0.816117	-0.617659	0.410766
O16	O	1.066117	-0.367659	0.660766
O17	O	0.081592	-1.121786	0.089427
O18	O	0.331592	-0.871786	0.339427
O19	O	0.581592	-0.621786	0.589427
O20	O	0.831592	-0.371786	0.839427
O21	O	0.199647	-0.976267	0.089403
O22	O	0.449647	-0.726267	0.339403
O23	O	0.699647	-0.476267	0.589403
O24	O	0.949647	-0.226267	0.839403
O25	O	0.206956	-1.252235	0.089430
O26	O	0.456956	-1.002235	0.339430
O27	O	0.706956	-0.752235	0.589430
O28	O	0.956956	-0.502235	0.839430
Cu29	Cu	0.204114	-1.113251	0.105728
Cu30	Cu	0.454114	-0.863251	0.355728
Cu31	Cu	0.704114	-0.613251	0.605728
Cu32	Cu	0.954114	-0.363251	0.855728
Cu33	Cu	0.193595	-1.126194	-0.105535
Cu34	Cu	0.443595	-0.876194	0.144465
Cu35	Cu	0.693595	-0.626194	0.394465
Cu36	Cu	0.943595	-0.376194	0.644465
O37	O	0.325012	-1.106715	0.089406
O38	O	0.575012	-0.856715	0.339406
O39	O	0.825012	-0.606715	0.589406
O40	O	1.075012	-0.356715	0.839406
C41	C	0.192001	-0.946424	0.000079
C42	C	0.442001	-0.696424	0.250079
C43	C	0.692001	-0.446424	0.500079
C44	C	0.942001	-0.196424	0.750079
C45	C	0.182459	-0.841198	0.000069
C46	C	0.432459	-0.591198	0.250069
C47	C	0.682459	-0.341198	0.500069
C48	C	0.932459	-0.091198	0.750069
C49	C	0.045804	-1.126632	0.000107
C50	C	0.295804	-0.876632	0.250107
C51	C	0.545804	-0.626632	0.500107
C52	C	0.795804	-0.376632	0.750107
C53	C	-0.047583	-1.124756	0.000107
C54	C	0.202417	-0.874756	0.250107
C55	C	0.452417	-0.624756	0.500107
C56	C	0.702417	-0.374756	0.750107
C57	C	0.205708	-1.293021	0.000111
C58	C	0.455708	-1.043021	0.250111
C59	C	0.705708	-0.793021	0.500111
C60	C	0.955708	-0.543021	0.750111
C61	C	0.215249	-1.398247	0.000114
C62	C	0.465249	-1.148247	0.250114
C63	C	0.715249	-0.898247	0.500114
C64	C	0.965249	-0.648247	0.750114
C65	C	-0.269530	-1.030073	0.000083
C66	C	-0.019530	-0.780073	0.250083
C67	C	0.230470	-0.530073	0.500083
C68	C	0.480470	-0.280073	0.750083
C69	C	-0.322870	-1.068645	0.088168
C70	C	-0.072870	-0.818645	0.338168
C71	C	0.177130	-0.568645	0.588168
C72	C	0.427130	-0.318645	0.838168
C73	C	-0.218563	-1.121363	0.000099
C74	C	0.031437	-0.871363	0.250099
C75	C	0.281437	-0.621363	0.500099
C76	C	0.531437	-0.371363	0.750099
C77	C	-0.331621	-1.079457	-0.087957
C78	C	-0.081621	-0.829457	0.162043
C79	C	0.168379	-0.579457	0.412043
C80	C	0.418379	-0.329457	0.662043
C81	C	-0.383722	-1.118079	0.000086
C82	C	-0.133722	-0.868079	0.250086
C83	C	0.116278	-0.618079	0.500086
C84	C	0.366278	-0.368079	0.750086
C85	C	-0.270669	-1.159956	0.088256
C86	C	-0.020669	-0.909956	0.338256
C87	C	0.229331	-0.659956	0.588256
C88	C	0.479331	-0.409956	0.838256
C89	C	-0.279418	-1.170759	-0.087948
C90	C	-0.029418	-0.920759	0.162052
C91	C	0.220582	-0.670759	0.412052
C92	C	0.470582	-0.420759	0.662052
C93	C	-0.332734	-1.209396	0.000158
C94	C	-0.082734	-0.959396	0.250158
C95	C	0.167266	-0.709396	0.500158
C96	C	0.417266	-0.459396	0.750158
C97	C	-0.123419	-1.123252	0.000107
C98	C	0.126581	-0.873252	0.250107
C99	C	0.376581	-0.623252	0.500107
C100	C	0.626581	-0.373252	0.750107
C101	C	-0.478865	-1.116197	0.000085
C102	C	-0.228865	-0.866197	0.250085
C103	C	0.021135	-0.616197	0.500085
C104	C	0.271135	-0.366197	0.750085
C105	C	0.351905	-1.112813	0.000083
C106	C	0.601905	-0.862813	0.250083
C107	C	0.851905	-0.612813	0.500083
C108	C	1.101905	-0.362813	0.750083
C109	C	0.445291	-1.114689	0.000076
C110	C	0.695291	-0.864689	0.250076
C111	C	0.945291	-0.614689	0.500076
C112	C	1.195291	-0.364689	0.750076
N113	N	0.211512	-1.104155	0.254318
N114	N	0.461512	-0.854155	0.504318
N115	N	0.711512	-0.604155	0.754318
N116	N	0.961512	-0.354155	1.004318
C117	C	0.165017	-0.648534	0.000092
C118	C	0.415017	-0.398534	0.250092
C119	C	0.665017	-0.148534	0.500092
C120	C	0.915017	0.101466	0.750092
C121	C	0.232688	-0.590906	0.000091
C122	C	0.482688	-0.340906	0.250091
C123	C	0.732688	-0.090906	0.500091
C124	C	0.982688	0.159094	0.750091
C125	C	0.222983	-0.483701	0.000104
C126	C	0.472983	-0.233701	0.250104
C127	C	0.722983	0.016299	0.500104
C128	C	0.972983	0.266299	0.750104
C129	C	0.174721	-0.755749	0.000079
C130	C	0.424721	-0.505749	0.250079
C131	C	0.674721	-0.255749	0.500079
C132	C	0.924721	-0.005749	0.750079
N133	N	0.186191	-1.135297	-0.254126
N134	N	0.436191	-0.885297	-0.004126
N135	N	0.686191	-0.635297	0.245874
N136	N	0.936191	-0.385297	0.495874
C137	C	0.222403	-1.090774	0.473431
C138	C	0.472403	-0.840774	0.723431
C139	C	0.722403	-0.590774	0.973431
C140	C	0.972403	-0.340774	1.223431
C141	C	0.175303	-1.148675	0.526768
C142	C	0.425303	-0.898675	0.776768
C143	C	0.675303	-0.648675	1.026768
C144	C	0.925303	-0.398675	1.276768
C145	C	0.181362	-1.141230	0.648690
C146	C	0.431362	-0.891230	0.898690
C147	C	0.681362	-0.641230	1.148690
C148	C	0.931362	-0.391230	1.398690
C149	C	0.216344	-1.098218	0.351498
C150	C	0.466344	-0.848218	0.601498
C151	C	0.716344	-0.598218	0.851498
C152	C	0.966344	-0.348218	1.101498
H153	H	-0.342162	-1.025471	0.162629
H154	H	-0.092162	-0.775471	0.412629
H155	H	0.157838	-0.525471	0.662629
H156	H	0.407838	-0.275471	0.912629
C157	C	0.283028	-1.016268	0.535435
C158	C	0.533028	-0.766268	0.785435
C159	C	0.783028	-0.516268	1.035435
C160	C	1.033028	-0.266268	1.285435
H161	H	0.279204	-1.020985	0.610433
H162	H	0.529204	-0.770985	0.860433
H163	H	0.779204	-0.520985	1.110433
H164	H	1.029204	-0.270985	1.360433
H165	H	0.268341	-0.954079	0.517080
H166	H	0.518341	-0.704079	0.767080
H167	H	0.768341	-0.454079	1.017080
H168	H	1.018341	-0.204079	1.267080
H169	H	0.338949	-1.027793	0.517065
H170	H	0.588949	-0.777793	0.767065
H171	H	0.838949	-0.527793	1.017065
H172	H	1.088949	-0.277793	1.267065
C173	C	-0.234753	-1.205896	0.188973
C174	C	0.015247	-0.955896	0.438973
C175	C	0.265247	-0.705896	0.688973
C176	C	0.515247	-0.455896	0.938973
H177	H	-0.175226	-1.206771	0.188383
H178	H	0.074774	-0.956771	0.438383
H179	H	0.324774	-0.706771	0.688383
H180	H	0.574774	-0.456771	0.938383
H181	H	-0.256913	-1.269390	0.189239
H182	H	-0.006913	-1.019390	0.439239
H183	H	0.243087	-0.769390	0.689239
H184	H	0.493087	-0.519390	0.939239
H185	H	-0.249950	-1.169847	0.251438
H186	H	0.000050	-0.919847	0.501438
H187	H	0.250050	-0.669847	0.751438
H188	H	0.500050	-0.419847	1.001438
H189	H	-0.241893	-0.954293	0.000164
H190	H	0.008107	-0.704293	0.250164
H191	H	0.258107	-0.454293	0.500164
H192	H	0.508107	-0.204293	0.750164
H193	H	-0.360211	-1.285235	0.000215
H194	H	-0.110211	-1.035235	0.250215
H195	H	0.139789	-0.785235	0.500215
H196	H	0.389789	-0.535235	0.750215
H197	H	-0.260107	-1.213901	-0.162413
H198	H	-0.010107	-0.963901	0.087587
H199	H	0.239893	-0.713901	0.337587
H200	H	0.489893	-0.463901	0.587587
C201	C	-0.367669	-1.033444	-0.188557
C202	C	-0.117669	-0.783444	0.061443
C203	C	0.132331	-0.533444	0.311443
C204	C	0.382331	-0.283444	0.561443
H205	H	-0.345916	-0.969740	-0.188448
H206	H	-0.095916	-0.719740	0.061552
H207	H	0.154084	-0.469740	0.311552
H208	H	0.404084	-0.219740	0.561552
H209	H	-0.427219	-1.033107	-0.188190
H210	H	-0.177219	-0.783107	0.061810
H211	H	0.072781	-0.533107	0.311810
H212	H	0.322781	-0.283107	0.561810
H213	H	-0.352092	-1.069088	-0.251101
H214	H	-0.102092	-0.819088	-0.001101
H215	H	0.147908	-0.569088	0.248899
H216	H	0.397908	-0.319088	0.498899
H217	H	0.297911	-0.622081	0.000080
H218	H	0.547911	-0.372081	0.250080
H219	H	0.797911	-0.122081	0.500080
H220	H	1.047911	0.127919	0.750080
C221	C	0.076911	-0.606426	0.000093
C222	C	0.326911	-0.356426	0.250093
C223	C	0.576911	-0.106426	0.500093
C224	C	0.826911	0.143574	0.750093
H225	H	0.081865	-0.538851	0.000089
H226	H	0.331865	-0.288851	0.250089
H227	H	0.581865	-0.038851	0.500089
H228	H	0.831865	0.211149	0.750089
H229	H	0.050351	-0.623406	0.062384
H230	H	0.300351	-0.373406	0.312384
H231	H	0.550351	-0.123406	0.562384
H232	H	0.800351	0.126594	0.812384
H233	H	0.044164	-0.631023	-0.062216
H234	H	0.294164	-0.381023	0.187784
H235	H	0.544164	-0.131023	0.437784
H236	H	0.794164	0.118977	0.687784
H237	H	0.130429	-1.203838	0.480864
H238	H	0.380429	-0.953838	0.730864
H239	H	0.630429	-0.703838	0.980864
H240	H	0.880429	-0.453838	1.230864
