data_functionalizedCrystal
_audit_creation_method	'MofGen! by Chris Wilmer'
_symmetry_space_group_name_H-M	'P1'
_symmetry_Int_Tables_number	1
_symmetry_cell_setting	triclinic
loop_
_symmetry_equiv_pos_as_xyz
  x,y,z
_cell_length_a	16.974755
_cell_length_b	14.971482
_cell_length_c	13.448316
_cell_angle_alpha	90.007954
_cell_angle_beta	93.659118
_cell_angle_gamma	83.499692
loop_
_atom_site_label
_atom_site_type_symbol
_atom_site_fract_x
_atom_site_fract_y
_atom_site_fract_z
O1	O	0.103025	1.186693	0.090973
O2	O	0.115368	0.926262	0.091972
O3	O	-0.005902	1.063746	0.082200
O4	O	0.224294	1.049209	0.100745
O5	O	-0.005899	1.063723	-0.083184
O6	O	0.115371	0.926239	-0.073412
O7	O	0.103028	1.186670	-0.074410
Cu8	Cu	0.109200	1.056452	-0.089012
Cu9	Cu	0.109196	1.056480	0.106573
O10	O	0.224297	1.049186	-0.064638
C11	C	0.114818	0.892927	0.009236
C12	C	0.113165	0.793634	0.009105
C13	C	0.112389	0.746978	-0.081110
C14	C	0.110823	0.653684	-0.081237
C15	C	0.110040	0.607046	0.008852
C16	C	0.110814	0.653708	0.099073
C17	C	0.112374	0.747001	0.099199
C18	C	0.107565	0.459254	0.098805
C19	C	0.106007	0.365954	0.098680
C20	C	0.106014	0.365936	-0.081631
C21	C	0.107574	0.459230	-0.081505
C22	C	0.108350	0.505886	0.008717
C23	C	-0.035359	1.063185	-0.002863
C24	C	-0.123139	1.061534	-0.009929
C25	C	-0.617236	1.052164	-0.059336
C26	C	-0.534758	1.053723	-0.052702
C27	C	-0.493514	1.054522	0.040767
C28	C	-0.534749	1.053753	0.127609
C29	C	-0.617224	1.052187	0.120974
C30	C	-0.246849	1.059200	0.070278
C31	C	-0.164369	1.060768	0.076906
C32	C	-0.164384	1.060736	-0.103406
C33	C	-0.246861	1.059176	-0.110033
C34	C	-0.288088	1.058403	-0.023191
N35	N	-0.409209	1.056119	0.047551
N36	N	-0.372391	1.056800	-0.029975
C37	C	0.253755	1.049747	0.020427
C38	C	0.341534	1.051398	0.027499
C39	C	0.103578	1.220005	0.008327
C40	C	0.105230	1.319298	0.008465
N41	N	0.109202	1.056440	-0.226576
C42	C	0.055511	1.117386	-0.708121
C43	C	0.055517	1.117379	-0.604017
C44	C	0.109195	1.056480	-0.547658
C45	C	0.162877	0.995590	-0.595407
C46	C	0.162875	0.995602	-0.699509
C47	C	0.162876	0.995567	-0.378427
C48	C	0.162878	0.995553	-0.274318
C49	C	0.055518	1.117343	-0.282936
C50	C	0.055516	1.117356	-0.387037
C51	C	0.109197	1.056465	-0.434779
N52	N	0.109188	1.056500	0.244137
H53	H	0.113033	0.784944	-0.154470
H54	H	0.108217	0.497200	-0.154863
H55	H	0.206589	0.945963	-0.228435
Br56	Br	0.109717	0.590419	0.221335
Br57	Br	-0.108427	1.061784	-0.221256
H58	H	-0.650811	1.051517	-0.135450
H59	H	-0.650792	1.051558	0.191685
H60	H	0.206592	0.945985	-0.417294
Br61	Br	0.108614	0.522572	0.221249
Br62	Br	0.104965	0.302619	-0.204074
Br63	Br	-0.302830	1.058092	-0.236889
H64	H	-0.130790	1.061418	0.153024
Br65	Br	-0.302792	1.058156	0.188135
H66	H	-0.501161	1.054399	0.203714
H67	H	0.206587	0.946007	-0.549513
H68	H	0.110178	0.615703	-0.154700
H69	H	0.011797	1.166974	-0.754003
H70	H	0.011810	1.166958	-0.565146
Br71	Br	0.235729	0.912972	-0.764301
H72	H	0.105370	0.327983	0.172038
Br73	Br	-0.017339	1.199997	-0.463529
Br74	Br	-0.478803	1.054739	-0.170555
Br75	Br	-0.017336	1.199976	-0.218141
Br76	Br	0.113421	0.810322	0.221637
