data_functionalizedCrystal
_audit_creation_method	'MofGen! by Chris Wilmer'
_symmetry_space_group_name_H-M	'P1'
_symmetry_Int_Tables_number	1
_symmetry_cell_setting	triclinic
loop_
_symmetry_equiv_pos_as_xyz
  x,y,z
_cell_length_a	15.995292
_cell_length_b	17.019294
_cell_length_c	15.072220
_cell_angle_alpha	86.119892
_cell_angle_beta	89.986330
_cell_angle_gamma	83.431263
loop_
_atom_site_label
_atom_site_type_symbol
_atom_site_fract_x
_atom_site_fract_y
_atom_site_fract_z
O1	O	1.110906	0.101456	-0.081557
O2	O	0.867109	0.114060	-0.082516
O3	O	0.995808	-0.007076	-0.073259
O4	O	0.982208	0.222591	-0.090814
O5	O	0.995776	-0.007069	0.074306
O6	O	0.867078	0.114066	0.065049
O7	O	1.110874	0.101462	0.066008
Zn8	Zn	0.988971	0.107765	0.088957
Zn9	Zn	0.989013	0.107757	-0.105465
O10	O	0.982176	0.222598	0.056751
C11	C	0.835898	0.113550	-0.008694
C12	C	0.742947	0.112012	-0.008575
C13	C	0.995275	-0.036461	0.002768
C14	C	0.993727	-0.124031	0.009457
C15	C	0.405216	0.106358	-0.008153
C16	C	0.428424	0.193791	-0.015165
C17	C	0.525098	0.195452	-0.014956
C18	C	0.572768	0.109164	-0.008363
C19	C	0.543700	0.065456	0.079242
C20	C	0.446911	0.064403	0.079389
C21	C	0.447093	0.062610	-0.088283
C22	C	0.543582	0.065850	-0.089640
C23	C	0.667462	0.110745	-0.008478
C24	C	0.310522	0.104775	-0.008031
C25	C	0.993019	-0.165171	-0.067838
C26	C	0.991559	-0.247451	-0.061551
C27	C	0.990813	-0.288591	0.022031
C28	C	0.991519	-0.247445	0.099332
C29	C	0.992973	-0.165166	0.093044
C30	C	0.986416	-0.537022	0.045041
C31	C	0.984965	-0.619307	0.051323
C32	C	0.985003	-0.619307	-0.109561
C33	C	0.986463	-0.537027	-0.115842
C34	C	0.987164	-0.495888	-0.038541
C35	C	0.989323	-0.372695	0.028460
C36	C	0.988647	-0.411784	-0.044970
C37	C	1.142085	0.101972	-0.007816
C38	C	1.235036	0.103510	-0.007941
C39	C	0.982708	0.251983	-0.019278
C40	C	0.984256	0.339553	-0.025972
N41	N	0.988948	0.107771	0.221646
N42	N	0.989042	0.107745	-0.238153
C43	C	0.989011	0.107753	0.580849
C44	C	0.919916	0.172353	0.538305
C45	C	0.920074	0.172589	0.435461
C46	C	0.988979	0.107762	0.402644
C47	C	1.076325	0.125722	0.438561
C48	C	1.075938	0.126181	0.541384
C49	C	0.971539	0.025002	0.549275
C50	C	0.969534	0.025554	0.446369
C51	C	0.988967	0.107766	0.301930
C52	C	0.989029	0.107752	0.681562
H53	H	0.544097	0.229679	-0.077978
C54	C	0.390562	0.239319	-0.100281
N55	N	0.362039	0.273612	-0.164394
C56	C	1.096742	0.207716	0.567551
N57	N	1.112405	0.269132	0.587255
C58	C	1.097642	0.206328	0.397599
N59	N	1.113691	0.267045	0.366750
C60	C	0.887350	0.001682	0.586138
N61	N	0.823934	-0.015874	0.613902
C62	C	0.568643	0.108837	-0.177144
N63	N	0.587528	0.141215	-0.243051
C64	C	0.882728	0.007141	0.414859
N65	N	0.817345	-0.006725	0.391121
C66	C	1.033128	-0.042430	0.416853
N67	N	1.081039	-0.093634	0.394629
H68	H	0.930909	0.233417	0.559476
H69	H	0.989249	-0.378284	-0.113023
C70	C	0.586881	-0.020315	0.090053
N71	N	0.619416	-0.084914	0.098201
H72	H	0.563709	0.095814	0.139632
H73	H	0.399353	0.227307	0.042363
H74	H	0.988719	-0.406201	0.096513
H75	H	0.931221	0.233998	0.406153
H76	H	1.021928	-0.023071	0.577267
C77	C	0.408903	0.099615	-0.177396
N78	N	0.380139	0.127497	-0.244513
H79	H	0.984353	-0.652801	0.119389
H80	H	0.543448	0.229895	0.042918
H81	H	0.420044	0.094679	0.140066
C82	C	0.990857	-0.292710	-0.146582
N83	N	0.990356	-0.326803	-0.210630
C84	C	1.147494	0.065054	0.579663
N85	N	1.201399	0.019023	0.608489
H86	H	1.128965	0.079922	0.417592
H87	H	0.993538	-0.131669	0.155986
C88	C	0.831916	0.158154	0.572864
N89	N	0.765633	0.147462	0.598905
C90	C	0.588216	-0.019242	-0.090009
N91	N	0.621833	-0.083337	-0.090279
C92	C	0.427352	-0.022199	0.091182
N93	N	0.412625	-0.087426	0.100069
H94	H	0.987071	-0.503536	-0.183903
H95	H	0.433177	-0.001746	-0.083935
C96	C	0.993840	-0.119924	-0.159787
N97	N	0.994454	-0.085847	-0.229045
C98	C	0.990692	-0.292702	0.191274
N99	N	0.990071	-0.326788	0.260527
H100	H	0.987004	-0.503538	0.107985
H101	H	0.984431	-0.652811	-0.172495
C102	C	0.832354	0.158151	0.402505
N103	N	0.766277	0.147281	0.377687
