data_functionalizedCrystal
_audit_creation_method	'MofGen! by Chris Wilmer'
_symmetry_space_group_name_H-M	'P1'
_symmetry_Int_Tables_number	1
_symmetry_cell_setting	triclinic
loop_
_symmetry_equiv_pos_as_xyz
  x,y,z
_cell_length_a	10.654545
_cell_length_b	19.288865
_cell_length_c	9.130313
_cell_angle_alpha	89.990494
_cell_angle_beta	89.996437
_cell_angle_gamma	83.809663
loop_
_atom_site_label
_atom_site_type_symbol
_atom_site_fract_x
_atom_site_fract_y
_atom_site_fract_z
O1	O	1.665756	0.097539	-0.121804
O2	O	1.300078	0.106837	-0.121812
O3	O	1.493483	0.001127	-0.121778
O4	O	1.472350	0.203249	-0.121837
O5	O	1.493468	0.001124	0.121821
O6	O	1.300063	0.106834	0.121787
O7	O	1.665741	0.097537	0.121795
Cu8	Cu	1.482900	0.102185	0.144034
Cu9	Cu	1.482918	0.102188	-0.144050
O10	O	1.472335	0.203247	0.121762
C11	C	1.253287	0.106154	-0.000013
C12	C	1.113887	0.104113	-0.000014
C13	C	1.048395	0.103151	0.132772
C14	C	0.917416	0.101223	0.132773
C15	C	0.917433	0.101221	-0.132812
C16	C	1.048410	0.103144	-0.132811
C17	C	1.492796	-0.024755	0.000025
C18	C	1.490754	-0.101872	0.000038
C19	C	1.604236	-0.145826	0.000048
C20	C	1.602318	-0.218286	0.000025
C21	C	1.486913	-0.246788	0.000021
C22	C	1.373416	-0.202824	0.000003
C23	C	1.375337	-0.130366	0.000012
C24	C	1.396185	-0.355670	0.085347
C25	C	1.394269	-0.428127	0.085347
C26	C	1.480983	-0.470272	-0.000012
C27	C	1.569635	-0.439954	-0.085352
C28	C	1.571556	-0.367496	-0.085344
C29	C	1.484817	-0.325356	0.000011
C30	C	1.592393	-0.592796	-0.000029
C31	C	1.590471	-0.665257	-0.000062
C32	C	1.361565	-0.649793	-0.000068
C33	C	1.363491	-0.577334	-0.000051
C34	C	1.478908	-0.548840	-0.000024
C35	C	1.712532	0.098220	-0.000007
C36	C	1.851932	0.100261	-0.000015
C37	C	1.473023	0.229129	-0.000045
C38	C	1.475064	0.306246	-0.000067
N39	N	1.482897	0.102183	0.346656
C40	C	1.568565	0.055395	0.423323
C41	C	1.568575	0.055395	0.576660
C42	C	1.397247	0.148978	0.576650
C43	C	1.397231	0.148974	0.423316
N44	N	1.482923	0.102188	0.653327
H45	H	1.698218	-0.122632	0.000064
H46	H	1.638332	0.017295	0.639078
H47	H	1.327501	0.187076	0.639082
H48	H	1.101701	0.103940	0.240904
O49	O	1.261201	-0.230393	-0.000064
C50	C	1.161446	-0.176055	-0.000033
H51	H	1.196371	-0.126667	-0.046145
H52	H	1.080854	-0.191578	-0.070764
H53	H	1.126448	-0.165983	0.116831
O54	O	1.712675	-0.260894	0.000104
C55	C	1.814954	-0.220206	0.000085
H56	H	1.782772	-0.166292	0.046202
H57	H	1.894431	-0.246557	0.070819
H58	H	1.850368	-0.214869	-0.116776
H59	H	1.638317	0.017294	0.360910
H60	H	1.327464	0.187075	0.360890
H61	H	0.864098	0.100439	0.240901
O62	O	1.265129	-0.087637	-0.000249
C63	C	1.259417	-0.045233	-0.126383
H64	H	1.323791	-0.071446	-0.214565
H65	H	1.158219	-0.037568	-0.168736
H66	H	1.291620	0.007600	-0.097844
H67	H	1.101736	0.103926	-0.240948
O68	O	0.853914	0.100167	-0.261843
C69	C	0.900512	0.040600	-0.342631
H70	H	0.946689	-0.000846	-0.264926
H71	H	0.819269	0.019186	-0.402868
H72	H	0.973254	0.055293	-0.425427
H73	H	1.267600	-0.672999	-0.000078
H74	H	1.643737	-0.342813	-0.154833
H75	H	1.640246	-0.474268	-0.154860
H76	H	1.686373	-0.569595	-0.000014
H77	H	1.682885	-0.701044	-0.000062
H78	H	1.271082	-0.541546	-0.000050
H79	H	1.322078	-0.452806	0.154828
H80	H	1.325568	-0.321360	0.154864
