data_functionalizedCrystal
_audit_creation_method	'MofGen! by Chris Wilmer'
_symmetry_space_group_name_H-M	'P1'
_symmetry_Int_Tables_number	1
_symmetry_cell_setting	triclinic
loop_
_symmetry_equiv_pos_as_xyz
  x,y,z
_cell_length_a	19.805407
_cell_length_b	19.077068
_cell_length_c	19.805399
_cell_angle_alpha	92.269429
_cell_angle_beta	89.980427
_cell_angle_gamma	92.327086
loop_
_atom_site_label
_atom_site_type_symbol
_atom_site_fract_x
_atom_site_fract_y
_atom_site_fract_z
Zn1	Zn	1.023904	-0.280218	-0.393534
Zn2	Zn	1.523904	0.219782	0.106466
Zn3	Zn	1.019269	-0.397917	-0.284888
Zn4	Zn	1.519269	0.102083	0.215112
Zn5	Zn	0.910718	-0.280237	-0.280359
Zn6	Zn	1.410718	0.219763	0.219641
Zn7	Zn	0.906134	-0.397880	-0.398033
Zn8	Zn	1.406134	0.102120	0.101967
O9	O	0.965006	-0.339063	-0.339204
O10	O	1.465006	0.160937	0.160796
O11	O	1.118005	-0.295839	-0.379134
O12	O	1.618005	0.204161	0.120866
O13	O	1.004848	-0.382330	-0.189571
O14	O	1.504848	0.117670	0.310429
O15	O	0.929590	-0.181744	-0.291594
O16	O	1.429590	0.318256	0.208406
O17	O	1.114600	-0.382312	-0.299312
O18	O	1.614600	0.117688	0.200688
O19	O	1.012748	-0.181729	-0.374743
O20	O	1.512748	0.318271	0.125257
O21	O	0.925096	-0.295872	-0.186244
O22	O	1.425096	0.204128	0.313756
O23	O	0.815394	-0.295835	-0.295957
O24	O	1.315394	0.204165	0.204043
O25	O	0.921778	-0.382248	-0.492152
O26	O	1.421778	0.117752	0.007848
O27	O	0.812026	-0.382267	-0.382411
O28	O	1.312026	0.117733	0.117589
O29	O	1.008303	-0.295802	-0.488846
O30	O	1.508303	0.204198	0.011154
O31	O	1.000404	-0.496403	-0.303675
O32	O	1.500404	0.003597	0.196325
O33	O	0.917284	-0.496376	-0.386802
O34	O	1.417284	0.003624	0.113198
C35	C	0.789151	-0.339050	-0.339181
C36	C	1.289151	0.160950	0.160819
C37	C	0.713918	-0.339061	-0.339188
C38	C	1.213918	0.160939	0.160812
C39	C	0.676836	-0.384133	-0.384138
C40	C	1.176836	0.115867	0.115862
C41	C	0.606147	-0.384135	-0.384147
C42	C	1.106147	0.115865	0.115853
C43	C	0.572543	-0.339066	-0.339204
C44	C	1.072543	0.160934	0.160796
C45	C	0.609630	-0.293989	-0.294252
C46	C	1.109630	0.206011	0.205748
C47	C	0.680318	-0.293985	-0.294246
C48	C	1.180318	0.206015	0.205754
C49	C	0.324556	-0.294004	-0.294275
C50	C	0.824556	0.205996	0.205725
C51	C	0.253864	-0.294014	-0.294283
C52	C	0.753864	0.205986	0.205717
C53	C	0.250386	-0.384154	-0.384176
C54	C	0.750386	0.115846	0.115824
C55	C	0.321073	-0.384150	-0.384170
C56	C	0.821073	0.115850	0.115830
C57	C	0.358155	-0.339070	-0.339221
C58	C	0.858155	0.160930	0.160779
C59	C	0.434804	-0.339069	-0.339212
C60	C	0.934804	0.160931	0.160788
C61	C	0.495895	-0.339071	-0.339209
C62	C	0.995895	0.160929	0.160791
C63	C	0.957862	-0.521927	-0.346233
C64	C	1.457862	-0.021927	0.153767
C65	C	0.954867	-0.600157	-0.349263
C66	C	1.454867	-0.100157	0.150737
C67	C	0.996770	-0.636901	-0.307443
C68	C	1.496770	-0.136901	0.192557
C69	C	0.993957	-0.710406	-0.310296
C70	C	1.493957	-0.210406	0.189704
C71	C	0.949238	-0.747167	-0.354968
C72	C	1.449238	-0.247167	0.145032
C73	C	0.907333	-0.710418	-0.396793
C74	C	1.407333	-0.210418	0.103207
C75	C	0.910150	-0.636914	-0.393942
C76	C	1.410150	-0.136914	0.106058
C77	C	0.936174	-0.967002	-0.368135
C78	C	1.436174	-0.467002	0.131865
C79	C	0.933359	-1.040511	-0.370981
C80	C	1.433359	-0.540511	0.129019
C81	C	1.019984	-1.040494	-0.284485
C82	C	1.519984	-0.540494	0.215515
C83	C	1.022794	-0.966989	-0.281635
C84	C	1.522794	-0.466989	0.218365
C85	C	0.980892	-0.930246	-0.323463
C86	C	1.480892	-0.430246	0.176537
N87	N	0.946361	-0.822301	-0.357884
N88	N	1.446361	-0.322301	0.142116
N89	N	0.983773	-0.855113	-0.320549
N90	N	1.483773	-0.355113	0.179451
C91	C	1.141548	-0.339077	-0.339226
C92	C	1.641548	0.160923	0.160774
C93	C	1.216780	-0.339083	-0.339236
C94	C	1.716780	0.160917	0.160764
C95	C	0.965046	-0.339019	-0.515745
C96	C	1.465046	0.160981	-0.015745
C97	C	0.965063	-0.339000	-0.590976
C98	C	1.465063	0.161000	-0.090976
C99	C	0.972197	-0.155485	-0.332161
C100	C	1.472197	0.344515	0.167839
C101	C	0.975262	-0.077255	-0.329160
C102	C	1.475262	0.422745	0.170840
C103	C	1.010118	-0.293985	-0.624600
C104	C	1.510118	0.206015	-0.124600
C105	C	1.010125	-0.293965	-0.695288
C106	C	1.510125	0.206035	-0.195288
C107	C	0.965081	-0.338963	-0.732350
C108	C	1.465081	0.161037	-0.232350
C109	C	0.920022	-0.383980	-0.698721
C110	C	1.420022	0.116020	-0.198721
C111	C	0.920011	-0.383996	-0.628035
C112	C	1.420011	0.116004	-0.128035
C113	C	0.920062	-0.383914	-0.983792
C114	C	1.420062	0.116086	-0.483792
C115	C	0.920078	-0.383896	-1.054484
C116	C	1.420078	0.116104	-0.554484
C117	C	1.010177	-0.293883	-1.051045
C118	C	1.510177	0.206117	-0.551045
C119	C	1.010166	-0.293899	-0.980358
C120	C	1.510166	0.206101	-0.480358
C121	C	0.965104	-0.338913	-0.946736
C122	C	1.465104	0.161087	-0.446736
C123	C	0.965096	-0.338934	-0.870088
C124	C	1.465096	0.161066	-0.370088
C125	C	0.965093	-0.338947	-0.808997
C126	C	1.465093	0.161053	-0.308997
C127	C	0.965008	-0.339056	-0.163347
C128	C	1.465008	0.160944	0.336653
C129	C	0.965130	-0.338877	-0.088109
C130	C	1.465130	0.161123	0.411891
H131	H	0.348430	-0.420852	-0.420766
H132	H	0.848430	0.079148	0.079234
H133	H	1.033182	-0.606975	-0.271063
H134	H	1.533182	-0.106975	0.228937
O135	O	0.221142	-0.250202	-0.250714
O136	O	0.721142	0.249798	0.249286
C137	C	0.182046	-0.204794	-0.287578
C138	C	0.682046	0.295206	0.212422
H139	H	0.170515	-0.229687	-0.339793
H140	H	0.670515	0.270313	0.160207
H141	H	0.132693	-0.195342	-0.259666
H142	H	0.632693	0.304658	0.240334
H143	H	0.211317	-0.152637	-0.293085
H144	H	0.711317	0.347363	0.206915
O145	O	0.895492	-0.931397	-0.408854
O146	O	1.395492	-0.431397	0.091146
C147	C	0.909562	-0.949289	-0.477023
C148	C	1.409562	-0.449289	0.022977
H149	H	0.933544	-1.002631	-0.480519
H150	H	1.433544	-0.502631	0.019481
H151	H	0.860593	-0.951834	-0.507418
H152	H	1.360593	-0.451834	-0.007418
H153	H	0.945924	-0.907871	-0.498255
H154	H	1.445924	-0.407871	0.001745
O155	O	1.060764	-1.076215	-0.243961
O156	O	1.560764	-0.576215	0.256039
C157	C	1.102819	-1.118678	-0.284188
C158	C	1.602819	-0.618678	0.215812
H159	H	1.107809	-1.096486	-0.336641
H160	H	1.607809	-0.596486	0.163359
H161	H	1.154896	-1.119478	-0.259794
H162	H	1.654896	-0.619478	0.240206
H163	H	1.079761	-1.174404	-0.288657
H164	H	1.579761	-0.674404	0.211343
O165	O	1.034803	-0.745969	-0.269701
O166	O	1.534803	-0.245969	0.230299
C167	C	1.102917	-0.727874	-0.283917
C168	C	1.602917	-0.227874	0.216083
H169	H	1.106269	-0.674502	-0.307903
H170	H	1.606269	-0.174502	0.192097
H171	H	1.133420	-0.725294	-0.235016
H172	H	1.633420	-0.225294	0.264984
H173	H	1.124140	-0.769194	-0.320326
H174	H	1.624140	-0.269194	0.179674
H175	H	0.354740	-0.257303	-0.257670
H176	H	0.854740	0.242697	0.242330
O177	O	0.863910	-0.746234	-0.440128
O178	O	1.363910	-0.246234	0.059872
C179	C	0.870419	-0.818990	-0.433688
C180	C	1.370419	-0.318990	0.066312
H181	H	0.892232	-0.829047	-0.381864
H182	H	1.392232	-0.329047	0.118136
H183	H	0.818644	-0.846964	-0.439315
H184	H	1.318644	-0.346964	0.060685
H185	H	0.905641	-0.839792	-0.474676
H186	H	1.405641	-0.339792	0.025324
O187	O	0.570227	-0.427993	-0.427828
O188	O	1.070227	0.072007	0.072172
C189	C	0.615045	-0.467764	-0.467499
C190	C	1.115045	0.032236	0.032501
H191	H	0.665330	-0.470150	-0.439860
H192	H	1.165330	0.029850	0.060140
H193	H	0.592462	-0.523232	-0.476753
H194	H	1.092462	-0.023232	0.023247
H195	H	0.623585	-0.442072	-0.517963
H196	H	1.123585	0.057928	-0.017963
H197	H	0.876029	-0.606998	-0.427998
H198	H	1.376029	-0.106998	0.072002
H199	H	0.883380	-0.420577	-0.956426
H200	H	1.383380	0.079423	-0.456426
H201	H	0.896951	-1.070439	-0.407369
H202	H	1.396951	-0.570439	0.092631
H203	H	0.220186	-0.420858	-0.420778
H204	H	0.720186	0.079142	0.079222
H205	H	0.883343	-0.420615	-0.728903
H206	H	1.383343	0.079385	-0.228903
O207	O	1.066142	-0.931254	-0.238168
O208	O	1.566142	-0.431254	0.261832
C209	C	1.029261	-0.888787	-0.192778
C210	C	1.529261	-0.388787	0.307222
H211	H	0.975103	-0.910985	-0.189410
H212	H	1.475103	-0.410985	0.310590
H213	H	1.053802	-0.887973	-0.140680
H214	H	1.553802	-0.387973	0.359320
H215	H	1.029054	-0.833066	-0.211540
H216	H	1.529054	-0.333066	0.288460
H217	H	0.582264	-0.257290	-0.257661
H218	H	1.082264	0.242710	0.242339
H219	H	0.710510	-0.257278	-0.257647
H220	H	1.210510	0.242722	0.242353
H221	H	0.883316	-0.420644	-0.600659
H222	H	1.383316	0.079356	-0.100659
H223	H	1.046800	-0.257345	-0.594428
H224	H	1.546800	0.242655	-0.094428
O225	O	1.053959	-0.250218	-0.727844
O226	O	1.553959	0.249782	-0.227844
C227	C	1.093705	-0.210497	-0.679974
C228	C	1.593705	0.289503	-0.179974
H229	H	1.094910	-0.239340	-0.630693
H230	H	1.594910	0.260660	-0.130693
H231	H	1.147331	-0.202993	-0.700120
H232	H	1.647331	0.297007	-0.200120
H233	H	1.071017	-0.157041	-0.670400
H234	H	1.571017	0.342959	-0.170400
O235	O	1.053853	-0.250082	-0.944388
O236	O	1.553853	0.249918	-0.444388
C237	C	1.041815	-0.179934	-0.958988
C238	C	1.541815	0.320066	-0.458988
H239	H	0.987884	-0.176379	-0.978271
H240	H	1.487884	0.323621	-0.478271
H241	H	1.048999	-0.145167	-0.911173
H242	H	1.548999	0.354833	-0.411173
H243	H	1.078827	-0.161531	-0.999324
H244	H	1.578827	0.338469	-0.499324
O245	O	0.709555	-0.427815	-0.427827
O246	O	1.209555	0.072185	0.072173
C247	C	0.752011	-0.387800	-0.470075
C248	C	1.252011	0.112200	0.029925
H249	H	0.764675	-0.334429	-0.444234
H250	H	1.264675	0.165571	0.055766
H251	H	0.800602	-0.416478	-0.480201
H252	H	1.300602	0.083522	0.019799
H253	H	0.725088	-0.380135	-0.519953
H254	H	1.225088	0.119865	-0.019953
O255	O	1.054039	-0.250224	-1.083680
O256	O	1.554039	0.249776	-0.583680
C257	C	1.120892	-0.265607	-1.066999
C258	C	1.620892	0.234393	-0.566999
H259	H	1.122103	-0.321840	-1.049727
H260	H	1.622103	0.178160	-0.549727
H261	H	1.154576	-0.259534	-1.113259
H262	H	1.654576	0.240466	-0.613259
H263	H	1.140058	-0.227887	-1.024523
H264	H	1.640058	0.272113	-0.524523
O265	O	0.876251	-0.427628	-1.090384
O266	O	1.376251	0.072372	-0.590384
C267	C	0.836486	-0.467374	-1.045551
C268	C	1.336486	0.032626	-0.545551
H269	H	0.835262	-0.438559	-0.994057
H270	H	1.335262	0.061441	-0.494057
H271	H	0.782868	-0.474866	-1.066257
H272	H	1.282868	0.025134	-0.566257
H273	H	0.859171	-0.520835	-1.040088
H274	H	1.359171	-0.020835	-0.540088
