data_functionalizedCrystal
_audit_creation_method	'MofGen! by Chris Wilmer'
_symmetry_space_group_name_H-M	'P1'
_symmetry_Int_Tables_number	1
_symmetry_cell_setting	triclinic
loop_
_symmetry_equiv_pos_as_xyz
  x,y,z
_cell_length_a	16.120484
_cell_length_b	12.759401
_cell_length_c	12.759393
_cell_angle_alpha	89.980324
_cell_angle_beta	92.864008
_cell_angle_gamma	92.925831
loop_
_atom_site_label
_atom_site_type_symbol
_atom_site_fract_x
_atom_site_fract_y
_atom_site_fract_z
Zn1	Zn	-0.331856	1.584983	-0.615149
Zn2	Zn	-0.471292	1.575931	-0.448362
Zn3	Zn	-0.331898	1.409279	-0.439491
Zn4	Zn	-0.471231	1.400335	-0.623999
O5	O	-0.401569	1.492632	-0.531750
O6	O	-0.350361	1.730803	-0.593033
O7	O	-0.452844	1.553780	-0.300167
O8	O	-0.215227	1.440118	-0.455376
O9	O	-0.452803	1.724153	-0.470496
O10	O	-0.215196	1.569207	-0.584432
O11	O	-0.350432	1.431341	-0.293649
O12	O	-0.350373	1.261072	-0.463958
O13	O	-0.452699	1.424874	-0.769844
O14	O	-0.452740	1.254501	-0.599515
O15	O	-0.350302	1.560534	-0.763342
O16	O	-0.587949	1.545107	-0.479077
O17	O	-0.587904	1.416097	-0.608117
C18	C	-0.401555	1.219666	-0.531735
C19	C	-0.401569	1.102888	-0.531754
C20	C	-0.348323	1.051483	-0.595669
C21	C	-0.348332	0.941759	-0.595677
C22	C	-0.454838	0.934853	-0.467851
C23	C	-0.454825	1.044576	-0.467839
C24	C	-0.618176	1.478678	-0.545543
C25	C	-0.710842	1.472804	-0.551478
C26	C	-0.880503	1.462086	-0.562337
C27	C	-0.921795	1.523366	-0.501181
C28	C	-1.016200	1.517403	-0.507223
C29	C	-0.786089	1.468048	-0.556297
C30	C	-0.184116	1.506670	-0.517927
C31	C	-0.091450	1.512652	-0.512036
C32	C	-0.401489	1.492716	-0.805779
C33	C	-0.401455	1.492751	-0.922553
C34	C	-0.401584	1.766664	-0.531767
C35	C	-0.401591	1.883441	-0.531774
C36	C	-0.348128	1.563395	-0.974031
C37	C	-0.348092	1.563415	-1.083753
C38	C	-0.454717	1.422144	-1.090510
C39	C	-0.454748	1.422120	-0.980790
C40	C	-0.401589	1.492613	-0.258784
C41	C	-0.401388	1.492796	-0.141995
H42	H	-0.498185	1.086430	-0.415786
C43	C	-0.502156	0.763588	-0.411120
C44	C	-0.513383	0.870752	-0.397609
H45	H	-0.538306	0.724018	-0.367760
H46	H	-0.446136	0.749203	-0.392292
H47	H	-0.514428	0.744862	-0.482473
H48	H	-0.501106	0.889479	-0.326257
H49	H	-0.569417	0.885142	-0.416430
C50	C	-0.235904	1.585279	-1.199995
C51	C	-0.289469	1.641068	-1.140332
H52	H	-0.199707	1.633222	-1.234917
H53	H	-0.267638	1.543237	-1.250383
H54	H	-0.204032	1.541557	-1.155143
H55	H	-0.321346	1.684785	-1.185186
H56	H	-0.257732	1.683129	-1.089938
C57	C	-0.788222	1.591324	-0.433161
C58	C	-0.873811	1.600226	-0.424361
H59	H	-0.758598	1.638765	-0.385729
H60	H	-0.773946	1.607560	-0.502857
H61	H	-0.774075	1.521610	-0.416845
H62	H	-0.887958	1.669938	-0.440685
H63	H	-0.888092	1.583996	-0.354650
C64	C	-1.014075	1.394108	-0.630312
C65	C	-0.928487	1.385210	-0.639129
H66	H	-1.043703	1.346641	-0.677714
H67	H	-1.028228	1.463804	-0.646649
H68	H	-1.028337	1.377896	-0.560596
H69	H	-0.914223	1.401431	-0.708844
H70	H	-0.914327	1.315499	-0.622800
C71	C	-0.236183	1.182093	-0.603350
C72	C	-0.289780	1.115583	-0.665915
H73	H	-0.200043	1.221667	-0.646720
H74	H	-0.204257	1.141322	-0.555622
H75	H	-0.267902	1.228411	-0.565290
H76	H	-0.258061	1.069261	-0.703970
H77	H	-0.321709	1.156359	-0.713662
H78	H	-0.304731	1.620905	-0.926617
H79	H	-0.498109	1.364641	-1.137940
C80	C	-0.595931	1.361820	-0.955958
C81	C	-0.513372	1.344467	-0.924195
H82	H	-0.632118	1.313885	-0.921011
H83	H	-0.603538	1.351720	-1.029627
H84	H	-0.608130	1.431623	-0.938758
H85	H	-0.501171	1.274667	-0.941402
H86	H	-0.505761	1.354559	-0.850509
C87	C	-0.243064	0.959613	-0.722035
C88	C	-0.289807	0.885255	-0.665940
H89	H	-0.206936	0.924727	-0.765418
H90	H	-0.211126	1.004439	-0.674292
H91	H	-0.279434	1.000089	-0.764453
H92	H	-0.253437	0.844783	-0.623517
H93	H	-0.321748	0.840410	-0.713690
