data_functionalizedCrystal
_audit_creation_method	'MofGen! by Chris Wilmer'
_symmetry_space_group_name_H-M	'P1'
_symmetry_Int_Tables_number	1
_symmetry_cell_setting	triclinic
loop_
_symmetry_equiv_pos_as_xyz
  x,y,z
_cell_length_a	10.908937
_cell_length_b	15.995292
_cell_length_c	9.482900
_cell_angle_alpha	99.335510
_cell_angle_beta	83.036371
_cell_angle_gamma	71.777286
loop_
_atom_site_label
_atom_site_type_symbol
_atom_site_fract_x
_atom_site_fract_y
_atom_site_fract_z
O1	O	1.723909	-0.145225	-0.120950
O2	O	2.223909	0.354775	0.379050
O3	O	1.350025	-0.079836	-0.120938
O4	O	1.850025	0.420164	0.379062
O5	O	1.547227	-0.235850	-0.120947
O6	O	2.047227	0.264150	0.379053
O7	O	1.526707	0.010789	-0.120942
O8	O	2.026707	0.510789	0.379058
O9	O	1.507171	-0.204056	0.120848
O10	O	2.007171	0.295944	0.620848
O11	O	1.309969	-0.048041	0.120856
O12	O	1.809969	0.451959	0.620856
O13	O	1.683853	-0.113430	0.120844
O14	O	2.183853	0.386570	0.620844
Cu15	Cu	1.493254	-0.077833	0.142928
Cu16	Cu	1.993254	0.422167	0.642928
Cu17	Cu	1.540625	-0.115434	-0.143022
Cu18	Cu	2.040625	0.384566	0.356978
O19	O	1.486651	0.042584	0.120853
O20	O	1.986651	0.542584	0.620853
C21	C	1.282154	-0.057828	-0.000039
C22	C	1.782154	0.442172	0.499961
C23	C	1.139596	-0.039629	-0.000035
C24	C	1.639596	0.460371	0.499965
C25	C	0.943274	-0.087235	-0.000062
C26	C	1.443274	0.412765	0.499938
C27	C	1.090611	-0.106043	-0.000045
C28	C	1.590611	0.393957	0.499955
C29	C	1.526364	-0.251033	-0.000053
C30	C	2.026364	0.248967	0.499947
C31	C	1.523862	-0.343639	-0.000064
C32	C	2.023862	0.156361	0.499936
C33	C	1.514656	-0.680094	-0.000050
C34	C	2.014656	-0.180094	0.499950
C35	C	1.656901	-0.676530	0.000485
C36	C	2.156901	-0.176530	0.500485
C37	C	1.659697	-0.580303	-0.000065
C38	C	2.159697	-0.080303	0.499935
C39	C	1.519224	-0.513174	-0.000056
C40	C	2.019224	-0.013174	0.499944
C41	C	1.470937	-0.550523	-0.138126
C42	C	1.970937	-0.050523	0.361874
C43	C	1.469242	-0.647089	-0.138236
C44	C	1.969242	-0.147089	0.361764
C45	C	1.420784	-0.610385	0.136729
C46	C	1.920784	-0.110385	0.636729
C47	C	1.425757	-0.514387	0.138549
C48	C	1.925757	-0.014387	0.638549
C49	C	1.521799	-0.418838	-0.000065
C50	C	2.021799	0.081162	0.499935
C51	C	1.512079	-0.774431	-0.000052
C52	C	2.012079	-0.274431	0.499948
C53	C	1.751725	-0.135439	-0.000058
C54	C	2.251725	0.364561	0.499942
C55	C	1.894284	-0.153639	-0.000072
C56	C	2.394284	0.346361	0.499928
C57	C	1.507514	0.057766	-0.000044
C58	C	2.007514	0.557766	0.499956
C59	C	1.510018	0.150370	-0.000043
C60	C	2.010018	0.650370	0.499957
N61	N	1.459945	-0.051388	0.344049
N62	N	1.959945	0.448612	0.844049
N63	N	1.573944	-0.141887	-0.344144
N64	N	2.073944	0.358113	0.155856
C65	C	1.530791	-0.107637	0.416245
C66	C	2.030791	0.392363	0.916245
C67	C	1.503087	-0.085629	0.583664
C68	C	2.003087	0.414371	1.083664
H69	H	1.699032	-0.556024	0.098906
H70	H	2.199032	-0.056024	0.598906
H71	H	1.727770	-0.726091	-0.097979
H72	H	2.227770	-0.226091	0.402021
Cl73	Cl	1.699539	-0.241260	0.559947
Cl74	Cl	2.199539	0.258740	1.059947
H75	H	1.157746	-0.176823	-0.000049
H76	H	1.657746	0.323177	0.499951
H77	H	1.695360	-0.699146	0.099500
H78	H	2.195360	-0.199146	0.599500
Cl79	Cl	1.035960	0.069650	-0.000050
Cl80	Cl	1.535960	0.569650	0.499950
Cl81	Cl	0.997930	-0.262915	-0.000075
Cl82	Cl	1.497930	0.237085	0.499925
H83	H	1.368417	-0.504936	-0.143253
H84	H	1.868417	-0.004936	0.356747
H85	H	1.732182	-0.582742	-0.099216
H86	H	2.232182	-0.082742	0.400784
Cl87	Cl	1.377760	0.013880	0.679578
Cl88	Cl	1.877760	0.513880	1.179578
Cl89	Cl	1.571738	-0.720046	-0.297586
Cl90	Cl	2.071738	-0.220046	0.202414
Cl91	Cl	1.334623	0.048117	0.439969
Cl92	Cl	1.834623	0.548117	0.939969
H93	H	0.876139	-0.016461	-0.000076
H94	H	1.376139	0.483539	0.499924
Cl95	Cl	1.309727	-0.648397	-0.147913
Cl96	Cl	1.809727	-0.148397	0.352087
H97	H	1.537375	-0.550855	-0.240883
H98	H	2.037375	-0.050855	0.259117
H99	H	1.448270	-0.630953	0.241386
H100	H	1.948270	-0.130953	0.741386
Cl101	Cl	1.479617	-0.476116	0.296255
Cl102	Cl	1.979617	0.023884	0.796255
Cl103	Cl	1.265317	-0.439752	0.151435
Cl104	Cl	1.765317	0.060248	0.651435
H105	H	1.315860	-0.609664	0.137666
H106	H	1.815860	-0.109664	0.637666
Cl107	Cl	1.655816	-0.207292	0.320327
Cl108	Cl	2.155816	0.292708	0.820327
