data_functionalizedCrystal
_audit_creation_method	'MofGen! by Chris Wilmer'
_symmetry_space_group_name_H-M	'P1'
_symmetry_Int_Tables_number	1
_symmetry_cell_setting	triclinic
loop_
_symmetry_equiv_pos_as_xyz
  x,y,z
_cell_length_a	17.699083
_cell_length_b	17.699083
_cell_length_c	11.804610
_cell_angle_alpha	76.682845
_cell_angle_beta	103.309045
_cell_angle_gamma	96.716985
loop_
_atom_site_label
_atom_site_type_symbol
_atom_site_fract_x
_atom_site_fract_y
_atom_site_fract_z
O1	O	0.990490	-0.082106	-0.098860
O2	O	0.770106	-0.094553	-0.098899
O3	O	0.886526	0.021858	-0.098868
O4	O	0.874070	-0.198518	-0.098891
O5	O	0.913733	-0.005394	0.099181
O6	O	0.797313	-0.121805	0.099150
O7	O	1.017697	-0.109358	0.099189
Cu8	Cu	0.909989	-0.118070	0.117253
Cu9	Cu	0.877814	-0.085842	-0.116963
O10	O	0.901277	-0.225769	0.099158
C11	C	0.755512	-0.107732	0.000120
C12	C	0.671492	-0.106392	0.000106
C13	C	0.899683	0.036429	0.000157
C14	C	0.898345	0.120447	0.000157
C15	C	0.622870	-0.174724	0.000099
C16	C	0.543929	-0.173464	0.000114
C17	C	0.513610	-0.103869	0.000128
C18	C	0.562238	-0.035532	0.000139
C19	C	0.641179	-0.036794	0.000132
C20	C	0.243880	-0.030441	0.000169
C21	C	0.164932	-0.029184	0.000172
C22	C	0.146629	-0.167111	0.000151
C23	C	0.225570	-0.168373	0.000144
C24	C	0.274192	-0.100037	0.000161
C25	C	0.359790	-0.101404	0.000146
C26	C	0.428013	-0.102500	0.000134
C27	C	1.032291	-0.096179	0.000167
C28	C	1.116310	-0.097518	0.000174
N29	N	0.932625	-0.140736	0.281987
C30	C	0.888120	-0.240340	0.000131
C31	C	0.889457	-0.324357	0.000123
C32	C	0.966680	0.169066	0.000171
C33	C	0.965416	0.248011	0.000160
C34	C	0.895817	0.278334	0.000144
C35	C	0.827476	0.229709	0.000126
C36	C	0.828740	0.150767	0.000129
C37	C	0.822380	0.548074	0.000116
C38	C	0.821122	0.627021	0.000117
C39	C	0.959056	0.645317	0.000147
C40	C	0.960319	0.566375	0.000149
C41	C	0.891978	0.517758	0.000126
C42	C	0.893349	0.432158	0.000135
C43	C	0.894447	0.363932	0.000143
N44	N	0.855185	-0.063169	-0.281697
C45	C	0.987010	-0.195156	0.344319
C46	C	1.004156	-0.212291	0.468976
C47	C	0.966915	-0.175012	0.531314
C48	C	0.912524	-0.120595	0.468982
C49	C	0.895380	-0.103454	0.344313
C50	C	0.875285	-0.083310	0.531308
C51	C	0.820895	-0.028893	0.468976
C52	C	0.803753	-0.011756	0.344319
C53	C	0.840995	-0.049035	0.281981
C54	C	0.892429	-0.100451	0.655977
C55	C	0.800799	-0.008749	0.655971
C56	C	0.783653	0.008386	0.531314
H57	H	0.647549	-0.231396	0.000087
Cl58	Cl	1.054182	0.130953	0.000203
Cl59	Cl	1.072528	-0.280699	0.547326
Cl60	Cl	1.051328	0.309129	0.000181
H61	H	0.504343	-0.229107	0.000107
Cl62	Cl	0.733619	0.665140	0.000094
Cl63	Cl	1.044972	0.706442	0.000172
H64	H	1.016995	0.541690	0.000168
H65	H	0.980879	-0.188966	0.632815
H66	H	0.766732	0.508499	0.000097
Cl67	Cl	1.033828	-0.242007	0.265946
Cl68	Cl	0.702305	0.049112	0.000146
H69	H	0.827035	-0.035087	0.180475
Cl70	Cl	0.524124	0.051958	0.000164
H71	H	0.770807	0.254405	0.000106
H72	H	0.773094	0.111181	0.000117
Cl73	Cl	0.263679	-0.255865	0.000120
Cl74	Cl	0.960802	-0.168858	0.734321
Cl75	Cl	0.735371	0.056648	0.265963
Cl76	Cl	0.715278	0.076794	0.452941
H77	H	0.770474	0.021607	0.706726
Cl78	Cl	0.126819	0.058313	0.000190
H79	H	0.107032	-0.222754	0.000144
Cl80	Cl	0.304995	0.055468	0.000188
