data_functionalizedCrystal
_audit_creation_method	'MofGen! by Chris Wilmer'
_symmetry_space_group_name_H-M	'P1'
_symmetry_Int_Tables_number	1
_symmetry_cell_setting	triclinic
loop_
_symmetry_equiv_pos_as_xyz
  x,y,z
_cell_length_a	12.759401
_cell_length_b	18.215406
_cell_length_c	18.215399
_cell_angle_alpha	89.984834
_cell_angle_beta	89.983502
_cell_angle_gamma	90.000960
loop_
_atom_site_label
_atom_site_type_symbol
_atom_site_fract_x
_atom_site_fract_y
_atom_site_fract_z
Zn1	Zn	1.606336	-0.292989	-0.416116
Zn2	Zn	2.106336	0.207011	0.083884
Zn3	Zn	1.606279	-0.416060	-0.293077
Zn4	Zn	2.106279	0.083940	0.206923
Zn5	Zn	1.430644	-0.293012	-0.293070
Zn6	Zn	1.930644	0.206988	0.206930
Zn7	Zn	1.430669	-0.416018	-0.416109
Zn8	Zn	1.930669	0.083982	0.083891
O9	O	1.518482	-0.354520	-0.354593
O10	O	2.018482	0.145480	0.145407
O11	O	1.753350	-0.309322	-0.399800
O12	O	2.253350	0.190678	0.100200
O13	O	1.582947	-0.399765	-0.190092
O14	O	2.082947	0.100235	0.309908
O15	O	1.453963	-0.190025	-0.309393
O16	O	1.953963	0.309975	0.190607
O17	O	1.753308	-0.399742	-0.309404
O18	O	2.253308	0.100258	0.190596
O19	O	1.583044	-0.190007	-0.399794
O20	O	2.083044	0.309993	0.100206
O21	O	1.453908	-0.309362	-0.190087
O22	O	1.953908	0.190638	0.309913
O23	O	1.283627	-0.309322	-0.309386
O24	O	1.783627	0.190678	0.190614
O25	O	1.454006	-0.399671	-0.519094
O26	O	1.954006	0.100329	-0.019094
O27	O	1.283645	-0.399694	-0.399782
O28	O	1.783645	0.100306	0.100218
O29	O	1.583068	-0.309282	-0.519099
O30	O	2.083068	0.190718	-0.019099
O31	O	1.582971	-0.519039	-0.309397
O32	O	2.082971	-0.019039	0.190603
O33	O	1.453951	-0.519008	-0.399789
O34	O	1.953951	-0.019008	0.100211
C35	C	1.245515	-0.354506	-0.354583
C36	C	1.745515	0.145494	0.145417
C37	C	1.128738	-0.354518	-0.354596
C38	C	1.628738	0.145482	0.145404
C39	C	1.518486	-0.545726	-0.354609
C40	C	2.018486	-0.045726	0.145391
C41	C	1.518584	-0.627525	-0.354640
C42	C	2.018584	-0.127525	0.145360
C43	C	1.518546	-0.354469	-0.546546
C44	C	2.018546	0.145531	-0.046546
C45	C	1.518574	-0.354447	-0.628345
C46	C	2.018574	0.145553	-0.128345
C47	C	1.073913	-0.401650	-0.401588
C48	C	1.573913	0.098350	0.098412
C49	C	0.964189	-0.401659	-0.401596
C50	C	1.464189	0.098341	0.098404
C51	C	0.964125	-0.307403	-0.307615
C52	C	1.464125	0.192597	0.192385
C53	C	1.073847	-0.307390	-0.307611
C54	C	1.573847	0.192610	0.192389
C55	C	1.128805	-0.448778	-0.448573
C56	C	1.628805	0.051222	0.051427
C57	C	1.073980	-0.495915	-0.495568
C58	C	1.573980	0.004085	0.004432
C59	C	0.964256	-0.495924	-0.495576
C60	C	1.464256	0.004076	0.004424
C61	C	0.909357	-0.448797	-0.448589
C62	C	1.409357	0.051203	0.051411
C63	C	1.792516	-0.354534	-0.354603
C64	C	2.292516	0.145466	0.145397
C65	C	1.909292	-0.354540	-0.354608
C66	C	2.409292	0.145460	0.145392
C67	C	1.518507	-0.162567	-0.354593
C68	C	2.018507	0.337433	0.145407
C69	C	1.518518	-0.080768	-0.354593
C70	C	2.018518	0.419232	0.145407
C71	C	1.451339	0.107418	-0.307548
C72	C	1.951339	0.607418	0.192452
C73	C	1.451348	0.184277	-0.307557
C74	C	1.951348	0.684277	0.192443
C75	C	1.585765	0.184284	-0.401691
C76	C	2.085765	0.684284	0.098309
C77	C	1.585751	0.107426	-0.401685
C78	C	2.085751	0.607426	0.098315
C79	C	1.518539	0.068996	-0.354609
C80	C	2.018539	0.568996	0.145391
C81	C	1.518562	0.222712	-0.354624
C82	C	2.018562	0.722712	0.145376
C83	C	1.518572	0.306045	-0.354634
C84	C	2.018572	0.806045	0.145366
C85	C	1.518527	-0.014343	-0.354600
C86	C	2.018527	0.485657	0.145400
C87	C	1.585800	-0.307338	-0.816543
C88	C	2.085800	0.192662	-0.316543
C89	C	1.585813	-0.307316	-0.893402
C90	C	2.085813	0.192684	-0.393402
C91	C	1.451421	-0.401443	-0.893385
C92	C	1.951421	0.098557	-0.393385
C93	C	1.451404	-0.401460	-0.816528
C94	C	1.951404	0.098540	-0.316528
C95	C	1.518600	-0.354409	-0.778109
C96	C	2.018600	0.145591	-0.278109
C97	C	1.518629	-0.354370	-0.931825
C98	C	2.018629	0.145630	-0.431825
C99	C	1.518642	-0.354347	-1.015158
C100	C	2.018642	0.145653	-0.515158
C101	C	1.518585	-0.354430	-0.694770
C102	C	2.018585	0.145570	-0.194770
C103	C	1.518479	-0.354517	-0.163387
C104	C	2.018479	0.145483	0.336613
C105	C	1.518655	-0.354331	-0.081588
C106	C	2.018655	0.145669	0.418412
H107	H	1.218148	-0.448777	-0.448570
H108	H	1.718148	0.051223	0.051430
H109	H	1.396608	0.076130	-0.269217
H110	H	1.896608	0.576130	0.230783
H111	H	1.640473	0.076142	-0.440013
H112	H	2.140473	0.576142	0.059987
H113	H	1.396715	-0.439753	-0.924675
H114	H	1.896715	0.060247	-0.424675
H115	H	0.820012	-0.448802	-0.448606
H116	H	1.320012	0.051198	0.051394
H117	H	1.396674	-0.439791	-0.785234
H118	H	1.896674	0.060209	-0.285234
O119	O	1.378877	0.225716	-0.256787
O120	O	1.878877	0.725716	0.243213
H121	H	1.296422	0.210967	-0.269396
H122	H	1.796422	0.710967	0.230604
O123	O	1.658270	0.225733	-0.452455
O124	O	2.158270	0.725733	0.047545
H125	H	1.647002	0.285632	-0.444547
H126	H	2.147002	0.785632	0.055453
O127	O	1.658267	-0.256590	-0.775100
O128	O	2.158267	0.243410	-0.275100
H129	H	1.640249	-0.198827	-0.789846
H130	H	2.140249	0.301173	-0.289846
O131	O	1.133182	-0.546728	-0.546260
O132	O	1.633182	-0.046728	-0.046260
H133	H	1.218690	-0.538805	-0.538362
H134	H	1.718690	-0.038805	-0.038362
O135	O	0.904920	-0.256595	-0.256917
O136	O	1.404920	0.243405	0.243083
H137	H	0.819412	-0.264533	-0.264804
H138	H	1.319412	0.235467	0.235196
H139	H	0.919620	-0.534299	-0.533846
H140	H	1.419620	-0.034299	-0.033846
O141	O	1.658298	-0.256551	-0.934859
O142	O	2.158298	0.243449	-0.434859
H143	H	1.705023	-0.223843	-0.895228
H144	H	2.205023	0.276157	-0.395228
H145	H	1.118486	-0.269006	-0.269352
H146	H	1.618486	0.230994	0.230648
