data_functionalizedCrystal
_audit_creation_method	'MofGen! by Chris Wilmer'
_symmetry_space_group_name_H-M	'P1'
_symmetry_Int_Tables_number	1
_symmetry_cell_setting	triclinic
loop_
_symmetry_equiv_pos_as_xyz
  x,y,z
_cell_length_a	14.809374
_cell_length_b	23.196402
_cell_length_c	23.196401
_cell_angle_alpha	60.008822
_cell_angle_beta	90.013004
_cell_angle_gamma	52.847629
loop_
_atom_site_label
_atom_site_type_symbol
_atom_site_fract_x
_atom_site_fract_y
_atom_site_fract_z
Zr1	Zr	0.991025	0.491766	-0.006014
O2	O	0.826731	0.635115	-0.109601
O3	O	1.041386	0.364425	0.025737
O4	O	1.041340	0.484698	-0.094532
O5	O	0.826817	0.514834	0.105541
O6	O	1.210633	0.460913	-0.082640
O7	O	0.826776	0.514841	0.010667
O8	O	1.210714	0.245766	0.132498
O9	O	0.826735	0.729981	-0.109597
O10	O	1.189210	0.393123	0.048158
O11	O	1.062899	0.410868	0.110087
O12	O	1.062846	0.552474	-0.031514
O13	O	0.936535	0.570219	0.030415
Zr14	Zr	1.261091	0.453820	0.164265
Zr15	Zr	1.261027	0.453832	0.012952
Zr16	Zr	0.991089	0.491754	0.145299
Zr17	Zr	0.991032	0.643067	-0.006007
Zr18	Zr	1.261084	0.302519	0.164258
O19	O	1.210731	0.581162	0.132514
O20	O	1.210639	0.581178	-0.082634
O21	O	0.826823	0.635098	0.105547
O22	O	1.425386	0.310471	0.267852
O23	O	1.425294	0.310488	0.052704
O24	O	1.041478	0.364408	0.240885
O25	O	1.425300	0.430752	0.052710
O26	O	1.210776	0.460888	0.252782
O27	O	1.041484	0.484673	0.240891
O28	O	1.425340	0.430745	0.147584
O29	O	1.041351	0.699829	-0.094522
O30	O	1.210765	0.245757	0.252772
O31	O	1.425381	0.215605	0.267848
O32	O	1.425330	0.215614	0.147574
O33	O	0.826787	0.729972	0.010677
O34	O	1.041402	0.699820	0.025752
O35	O	1.189271	0.393112	0.189765
O36	O	1.315581	0.375367	0.127836
O37	O	1.189217	0.534719	0.048164
O38	O	1.062906	0.552463	0.110093
C39	C	1.126049	0.283538	0.079117
C40	C	1.126046	0.219307	0.079114
C41	C	0.788327	0.520242	0.055402
C42	C	0.673704	0.536346	0.047350
C43	C	1.191970	0.179875	0.046784
C44	C	1.191982	0.119512	0.046791
C45	C	1.126045	0.098599	0.079116
C46	C	1.060118	0.138035	0.111453
C47	C	1.060118	0.198389	0.111452
C48	C	1.015577	0.052089	0.066081
C49	C	1.015574	-0.008259	0.066077
C50	C	1.126047	-0.087556	0.079123
C51	C	1.236523	-0.106490	0.092159
C52	C	1.236523	-0.046135	0.092158
C53	C	1.126039	0.033155	0.079121
C54	C	1.191990	-0.192442	0.046799
C55	C	1.192006	-0.252810	0.046811
C56	C	1.060130	-0.234279	0.111468
C57	C	1.060127	-0.173920	0.111461
C58	C	1.126054	-0.153002	0.079123
C59	C	0.685287	0.464477	0.083283
C60	C	0.566819	0.481119	0.074963
C61	C	1.463789	0.425344	0.102849
C62	C	1.578412	0.409240	0.110900
C63	C	1.125977	0.472807	-0.110145
C64	C	1.125950	0.472812	-0.174381
C65	C	1.126067	0.662048	0.079134
C66	C	1.126071	0.726279	0.079137
C67	C	1.059995	0.555989	-0.246141
C68	C	1.060027	0.555985	-0.306495
C69	C	1.125997	0.472804	-0.295084
C70	C	1.191966	0.389615	-0.223311
C71	C	1.191943	0.389619	-0.162959
C72	C	1.116626	0.417492	-0.363062
C73	C	1.116640	0.417492	-0.423415
C74	C	1.126077	0.472786	-0.481226
C75	C	1.135473	0.528097	-0.478687
C76	C	1.135449	0.528102	-0.418335
C77	C	1.126030	0.472789	-0.360521
C78	C	1.060153	0.555965	-0.618431
C79	C	1.060194	0.555957	-0.678783
C80	C	1.192125	0.389586	-0.595598
C81	C	1.192092	0.389594	-0.535247
C82	C	1.126100	0.472787	-0.546669
C83	C	1.126139	0.472779	0.268396
C84	C	1.126166	0.472774	0.332632
C85	C	1.463780	0.236089	0.102840
C86	C	1.578400	0.155753	0.110889
C87	C	1.126130	0.283524	0.268387
C88	C	1.126154	0.219288	0.332620
C89	C	1.463861	0.236074	0.292110
C90	C	1.578508	0.155734	0.364395
C91	C	0.788255	0.709512	-0.133859
C92	C	0.673608	0.789852	-0.206144
C93	C	0.788336	0.709497	0.055411
C94	C	0.673716	0.789833	0.047362
C95	C	1.125987	0.662062	-0.110136
C96	C	1.125962	0.726299	-0.174369
C97	C	1.566262	0.127295	0.073071
C98	C	1.673949	0.051822	0.080618
C99	C	1.793773	0.004803	0.125988
C100	C	1.805908	0.033268	0.163807
C101	C	1.698222	0.108744	0.156255
C102	C	1.192130	0.179853	0.404383
C103	C	1.192148	0.119506	0.464742
C104	C	1.126197	0.098588	0.453339
C105	C	1.060213	0.138030	0.381569
C106	C	1.060188	0.198381	0.321210
C107	C	1.698292	0.108742	0.366016
C108	C	1.806026	0.033260	0.433930
C109	C	1.793972	0.004770	0.500223
C110	C	1.674176	0.051770	0.498601
C111	C	1.566445	0.127254	0.430687
C112	C	0.553824	0.836852	-0.207765
C113	C	0.446091	0.912352	-0.275679
C114	C	0.458144	0.940846	-0.341972
C115	C	0.577940	0.893841	-0.340350
C116	C	0.685671	0.818347	-0.272436
C117	C	0.685854	0.818297	0.085174
C118	C	0.578167	0.893787	0.077610
C119	C	0.458343	0.940808	0.032237
C120	C	0.446208	0.912341	-0.005579
C121	C	0.553894	0.836856	0.001982
C122	C	1.191926	0.747195	-0.162942
C123	C	1.191928	0.807540	-0.223289
C124	C	1.125958	0.846993	-0.295063
C125	C	1.059992	0.826091	-0.306489
C126	C	1.059998	0.765742	-0.246142
H127	H	1.245655	0.196901	0.020455
H128	H	1.664044	0.028657	0.049820
H129	H	1.126227	0.049445	0.502493
H130	H	1.245836	0.196876	0.413682
H131	H	0.543986	0.813659	-0.153793
H132	H	0.588073	0.916952	0.108408
H133	H	1.468705	0.165577	0.036118
O134	O	0.316891	0.963027	-0.277422
H135	H	0.326620	0.930511	-0.219912
H136	H	1.006280	0.858223	-0.364935
H137	H	0.370669	1.002271	0.026088
O138	O	1.935150	-0.017455	0.212748
H139	H	2.007980	-0.074725	0.211648
O140	O	0.437516	0.578954	0.026049
H141	H	0.426470	0.615972	-0.031537
H142	H	1.881448	-0.056654	0.132132
H143	H	1.903559	-0.005001	0.435238
H144	H	1.125963	0.896133	-0.344194
O145	O	0.544401	0.634176	-0.001560
H146	H	0.533355	0.671194	-0.059147
O147	O	0.989038	0.240900	0.146343
H148	H	1.000132	0.286370	0.140921
H149	H	1.708123	0.131905	0.187056
H150	H	1.006277	0.748736	-0.255457
H151	H	0.587739	0.917051	-0.394334
O152	O	1.263075	0.076980	0.011912
H153	H	1.308909	0.101671	-0.010580
H154	H	1.881704	-0.056696	0.555518
H155	H	0.370412	1.002319	-0.397267
O156	O	1.263108	-0.169888	0.011927
H157	H	1.196506	-0.093958	-0.033606
O158	O	1.355671	-0.066554	0.106225
H159	H	1.432498	-0.131835	0.115303
O160	O	0.316962	0.963065	-0.054514
H161	H	0.305999	0.913949	-0.033931
H162	H	1.006264	0.623730	-0.255448
H163	H	0.782908	0.390626	0.120210
H164	H	1.326485	-0.171063	0.102791
O165	O	0.988877	0.645701	-0.383907
H166	H	0.942977	0.703551	-0.381710
H167	H	1.245697	-0.284922	0.020488
O168	O	0.707715	0.311405	0.159810
H169	H	0.759926	0.300580	0.204299
H170	H	1.006443	-0.251306	0.137787
H171	H	0.783202	0.780080	-0.271125
O172	O	1.661184	0.021033	0.570105
H173	H	1.608895	0.000880	0.572571
H174	H	1.708130	0.131927	0.312043
H175	H	1.245884	0.087398	0.523175
H176	H	1.006439	-0.141809	0.137784
O177	O	1.263105	0.704638	-0.085532
H178	H	1.225023	0.760647	-0.082065
H179	H	1.006517	0.120989	0.372294
O180	O	0.815087	0.767591	0.134111
H181	H	0.867291	0.771833	0.100462
H182	H	0.925616	0.007166	0.055459
H183	H	0.543993	0.813684	-0.028808
H184	H	1.245644	0.824552	-0.213971
H185	H	1.468916	0.165508	0.429378
O186	O	1.145610	0.587737	-0.415582
H187	H	1.152189	0.626182	-0.465915
H188	H	1.143151	0.573126	-0.525760
O189	O	0.989228	0.240771	0.243823
H190	H	0.943458	0.216025	0.246047
H191	H	1.006433	0.121002	0.137773
O192	O	0.896415	0.137622	0.052005
H193	H	0.819592	0.140658	0.042927
H194	H	1.006491	0.623691	-0.737215
O195	O	0.988998	0.645685	-0.630739
H196	H	0.943157	0.703522	-0.690781
H197	H	1.245794	0.321864	-0.476815
O198	O	1.263279	0.299864	-0.583278
H199	H	1.252210	0.313834	-0.637301
H200	H	1.108982	0.372459	-0.425478
H201	H	1.108933	0.372467	-0.315994
O202	O	1.263115	0.299895	-0.210997
H203	H	1.252039	0.313867	-0.265020
O204	O	1.263069	0.299906	-0.085554
H205	H	1.308944	0.242062	-0.087755
