data_functionalizedCrystal
_audit_creation_method	'MofGen! by Chris Wilmer'
_symmetry_space_group_name_H-M	'P1'
_symmetry_Int_Tables_number	1
_symmetry_cell_setting	triclinic
loop_
_symmetry_equiv_pos_as_xyz
  x,y,z
_cell_length_a	18.215405
_cell_length_b	11.169417
_cell_length_c	11.169409
_cell_angle_alpha	90.021683
_cell_angle_beta	89.960202
_cell_angle_gamma	89.976177
loop_
_atom_site_label
_atom_site_type_symbol
_atom_site_fract_x
_atom_site_fract_y
_atom_site_fract_z
Zn1	Zn	-0.292946	-1.834841	-0.678540
Zn2	Zn	-0.416037	-1.834679	-0.477831
Zn3	Zn	-0.292986	-1.634127	-0.477868
Zn4	Zn	-0.415973	-1.634083	-0.678469
O5	O	-0.354485	-1.734433	-0.578177
O6	O	-0.309284	-2.002769	-0.651930
O7	O	-0.399758	-1.808026	-0.309886
O8	O	-0.189997	-1.660838	-0.504533
O9	O	-0.399718	-2.002651	-0.504469
O10	O	-0.189967	-1.808302	-0.651966
O11	O	-0.309353	-1.660681	-0.309913
O12	O	-0.309291	-1.466171	-0.504464
O13	O	-0.399609	-1.660764	-0.846428
O14	O	-0.399648	-1.466140	-0.651845
O15	O	-0.309221	-1.808260	-0.846480
O16	O	-0.519012	-1.807984	-0.504401
O17	O	-0.518965	-1.660607	-0.651809
C18	C	-0.354468	-1.422608	-0.578151
C19	C	-0.354478	-1.289208	-0.578169
C20	C	-0.545692	-1.734306	-0.578119
C21	C	-0.627490	-1.734362	-0.578135
C22	C	-0.815684	-1.811281	-0.501520
C23	C	-0.892543	-1.811335	-0.501550
C24	C	-0.892534	-1.657738	-0.654920
C25	C	-0.815677	-1.657691	-0.654896
C26	C	-0.777254	-1.734461	-0.578189
C27	C	-0.930970	-1.734561	-0.578242
C28	C	-1.014304	-1.734619	-0.578274
C29	C	-0.693915	-1.734405	-0.578159
C30	C	-0.162532	-1.734593	-0.578261
C31	C	-0.080733	-1.734661	-0.578297
C32	C	-0.354404	-1.734525	-0.891220
C33	C	-0.354369	-1.734564	-1.024620
C34	C	-0.354497	-1.047475	-0.578194
C35	C	-0.354487	-1.180875	-0.578177
C36	C	-0.354514	-1.734410	-0.266352
C37	C	-0.354341	-1.734603	-0.132953
H38	H	-0.784402	-1.873793	-0.439063
H39	H	-0.923830	-1.873891	-0.439120
H40	H	-0.923827	-1.595233	-0.717369
H41	H	-0.784385	-1.595135	-0.717335
