data_functionalizedCrystal
_audit_creation_method	'MofGen! by Chris Wilmer'
_symmetry_space_group_name_H-M	'P1'
_symmetry_Int_Tables_number	1
_symmetry_cell_setting	triclinic
loop_
_symmetry_equiv_pos_as_xyz
  x,y,z
_cell_length_a	6.817900
_cell_length_b	17.982959
_cell_length_c	17.982968
_cell_angle_alpha	95.926238
_cell_angle_beta	102.451960
_cell_angle_gamma	102.451857
loop_
_atom_site_label
_atom_site_type_symbol
_atom_site_fract_x
_atom_site_fract_y
_atom_site_fract_z
V1	V	-4.009936	-0.106127	-0.237869
V2	V	-3.509936	0.393873	0.262131
O3	O	-4.003034	0.004365	-0.233013
O4	O	-3.503034	0.504365	0.266987
O5	O	-3.956505	-0.209726	-0.236557
O6	O	-3.456505	0.290274	0.263443
O7	O	-3.956507	-0.104817	-0.341468
O8	O	-3.456507	0.395183	0.158532
O9	O	-4.003032	-0.101270	-0.127376
O10	O	-3.503032	0.398730	0.372624
V11	V	-4.494867	-0.092873	-0.224615
V12	V	-3.994867	0.407127	0.275385
O13	O	-4.268105	-0.135201	-0.266943
O14	O	-3.768105	0.364799	0.233057
O15	O	-4.686896	-0.063799	-0.195541
O16	O	-4.186896	0.436201	0.304459
O17	O	-4.325092	0.010726	-0.225927
O18	O	-3.825092	0.510726	0.274073
O19	O	-4.619167	-0.203366	-0.229470
O20	O	-4.119167	0.296634	0.270530
O21	O	-4.619168	-0.097730	-0.335108
O22	O	-4.119168	0.402270	0.164892
O23	O	-4.325090	-0.094183	-0.121016
O24	O	-3.825090	0.405817	0.378984
C25	C	-3.800445	-0.234971	-0.232886
C26	C	-3.300445	0.265029	0.267114
C27	C	-3.838012	-0.319667	-0.232503
C28	C	-3.338012	0.180333	0.267497
C29	C	-3.800446	-0.101148	-0.366709
C30	C	-3.300446	0.398852	0.133291
C31	C	-3.838012	-0.100762	-0.451404
C32	C	-3.338012	0.399238	0.048596
C33	C	-4.037393	-0.363349	-0.236136
C34	C	-3.537393	0.136651	0.263864
C35	C	-4.072682	-0.442930	-0.235781
C36	C	-3.572682	0.057070	0.264219
C37	C	-3.908585	-0.478826	-0.231789
C38	C	-3.408585	0.021174	0.268211
C39	C	-3.709188	-0.435138	-0.228158
C40	C	-3.209188	0.064862	0.271842
C41	C	-3.673905	-0.355560	-0.228518
C42	C	-3.173905	0.144440	0.271482
C43	C	-3.851479	-0.756070	-0.226707
C44	C	-3.351479	-0.256070	0.273293
C45	C	-3.886778	-0.835654	-0.226345
C46	C	-3.386778	-0.335654	0.273655
C47	C	-4.250256	-0.843439	-0.233970
C48	C	-3.750256	-0.343439	0.266030
C49	C	-4.214973	-0.763861	-0.234330
C50	C	-3.714973	-0.263861	0.265670
C51	C	-4.015583	-0.720181	-0.230704
C52	C	-3.515583	-0.220181	0.269296
C53	C	-3.977322	-0.633891	-0.231090
C54	C	-3.477322	-0.133891	0.268910
C55	C	-3.946841	-0.565114	-0.231397
C56	C	-3.446841	-0.065114	0.268603
C57	C	-4.037396	-0.104399	-0.495087
C58	C	-3.537396	0.395601	0.004913
C59	C	-4.072681	-0.104036	-0.574666
C60	C	-3.572681	0.395964	-0.074666
C61	C	-3.908583	-0.100042	-0.610563
C62	C	-3.408583	0.399958	-0.110563
C63	C	-3.709182	-0.096403	-0.566874
C64	C	-3.209182	0.403597	-0.066874
C65	C	-3.673896	-0.096760	-0.487295
C66	C	-3.173896	0.403240	0.012705
C67	C	-3.851479	-0.094960	-0.887806
C68	C	-3.351479	0.405040	-0.387806
C69	C	-3.886782	-0.094605	-0.967391
C70	C	-3.386782	0.405395	-0.467391
C71	C	-4.250264	-0.102236	-0.975178
C72	C	-3.750264	0.397764	-0.475178
C73	C	-4.214978	-0.102593	-0.895599
C74	C	-3.714978	0.397407	-0.395599
C75	C	-4.015580	-0.098950	-0.851916
C76	C	-3.515580	0.401050	-0.351916
C77	C	-3.977321	-0.099342	-0.765627
C78	C	-3.477321	0.400658	-0.265627
C79	C	-3.946842	-0.099655	-0.696851
C80	C	-3.446842	0.400345	-0.196851
C81	C	-4.144494	0.035967	-0.229596
C82	C	-3.644494	0.535967	0.270404
C83	C	-4.086164	0.120662	-0.229983
C84	C	-3.586164	0.620662	0.270017
C85	C	-4.144493	-0.097854	-0.095770
C86	C	-3.644493	0.402146	0.404230
C87	C	-4.086166	-0.098236	-0.011075
C88	C	-3.586166	0.401764	0.488925
H89	H	-4.171022	-0.334127	-0.239380
H90	H	-3.671022	0.165873	0.260620
H91	H	-3.575570	-0.093146	-0.596106
H92	H	-3.075570	0.406854	-0.096106
H93	H	-3.689136	-0.092020	-0.852254
H94	H	-3.189136	0.407980	-0.352254
N95	N	-3.532185	-0.473849	-0.223840
N96	N	-3.032185	0.026151	0.276160
H97	H	-3.584783	-0.530889	-0.224155
H98	H	-3.084783	-0.030889	0.275845
H99	H	-3.422003	-0.450687	-0.174761
H100	H	-2.922003	0.049313	0.325239
N101	N	-3.458851	-0.308443	-0.224593
N102	N	-2.958851	0.191557	0.275407
H103	H	-3.461399	-0.252584	-0.225430
H104	H	-2.961399	0.247416	0.274570
H105	H	-3.410331	-0.328196	-0.270338
H106	H	-2.910331	0.171804	0.229662
N107	N	-4.214380	-0.108707	-0.456367
N108	N	-3.714380	0.391293	0.043633
H109	H	-4.324653	-0.157783	-0.479460
H110	H	-3.824653	0.342217	0.020540
H111	H	-4.275134	-0.062805	-0.464386
H112	H	-3.775134	0.437195	0.035614
N113	N	-4.465336	-0.106162	-1.022292
N114	N	-3.965336	0.393838	-0.522292
H115	H	-4.462799	-0.105327	-1.078152
H116	H	-3.962799	0.394673	-0.578152
H117	H	-4.513867	-0.060420	-1.002540
H118	H	-4.013867	0.439580	-0.502540
H119	H	-4.348609	-0.105850	-0.866377
H120	H	-3.848609	0.394150	-0.366377
N121	N	-3.709751	-0.090294	-1.006094
N122	N	-3.209751	0.409706	-0.506094
H123	H	-3.691616	-0.042507	-1.031401
H124	H	-3.191616	0.457493	-0.531401
H125	H	-3.741056	-0.137484	-1.046437
H126	H	-3.241056	0.362516	-0.546437
N127	N	-3.458841	-0.092839	-0.440182
N128	N	-2.958841	0.407161	0.059818
H129	H	-3.460760	-0.140286	-0.414528
H130	H	-2.960760	0.359714	0.085472
H131	H	-3.411555	-0.045314	-0.399494
H132	H	-2.911555	0.454686	0.100506
H133	H	-4.235035	-0.478493	-0.238741
H134	H	-3.735035	0.021507	0.261259
N135	N	-4.287722	-0.107944	-0.621780
N136	N	-3.787722	0.392056	-0.121780
H137	H	-4.386322	-0.110529	-0.586964
H138	H	-3.886322	0.389471	-0.086964
H139	H	-4.334968	-0.155430	-0.662515
H140	H	-3.834968	0.344570	-0.162515
H141	H	-4.348600	-0.734638	-0.237577
H142	H	-3.848600	-0.234638	0.262423
H143	H	-4.412613	-0.879014	-0.236924
H144	H	-3.912613	-0.379014	0.263076
H145	H	-3.753141	-0.864879	-0.223099
H146	H	-3.253141	-0.364879	0.276901
H147	H	-3.689127	-0.720514	-0.223750
H148	H	-3.189127	-0.220514	0.276250
