data_functionalizedCrystal
_audit_creation_method	'MofGen! by Chris Wilmer'
_symmetry_space_group_name_H-M	'P1'
_symmetry_Int_Tables_number	1
_symmetry_cell_setting	triclinic
loop_
_symmetry_equiv_pos_as_xyz
  x,y,z
_cell_length_a	12.784905
_cell_length_b	17.038274
_cell_length_c	11.295501
_cell_angle_alpha	85.676500
_cell_angle_beta	94.952437
_cell_angle_gamma	97.890448
loop_
_atom_site_label
_atom_site_type_symbol
_atom_site_fract_x
_atom_site_fract_y
_atom_site_fract_z
O1	O	1.417526	-0.009106	0.099035
O2	O	1.111081	-0.042385	0.099043
O3	O	1.262479	0.087948	0.099006
O4	O	1.266127	-0.139439	0.099071
O5	O	1.248925	0.096425	-0.099047
O6	O	1.097526	-0.033908	-0.099010
O7	O	1.403971	-0.000629	-0.099019
Cu8	Cu	1.249511	-0.016494	-0.117098
Cu9	Cu	1.265541	-0.026520	0.117122
O10	O	1.252573	-0.130962	-0.098982
C11	C	1.064900	-0.040311	0.000017
C12	C	0.947488	-0.046751	0.000018
C13	C	0.739239	0.084454	0.000002
C14	C	0.628921	0.078406	0.000003
C15	C	0.616533	-0.064892	0.000031
C16	C	0.726851	-0.058845	0.000030
C17	C	0.788200	0.015831	0.000013
C18	C	0.898520	0.021877	0.000003
C19	C	0.886130	-0.121421	0.000040
C20	C	0.775812	-0.127468	0.000041
C21	C	1.252389	0.121090	-0.000027
C22	C	1.242503	0.207214	-0.000044
C23	C	1.333252	0.263480	-0.000057
C24	C	1.323958	0.344401	-0.000063
C25	C	1.223913	0.369054	-0.000063
C26	C	1.133157	0.312780	-0.000047
C27	C	1.142453	0.231861	-0.000033
C28	C	1.191073	0.612587	-0.000097
C29	C	1.181784	0.693513	-0.000115
C30	C	1.372586	0.725129	-0.000129
C31	C	1.381872	0.644207	-0.000122
C32	C	1.291117	0.587940	-0.000099
C33	C	1.214410	0.451767	-0.000073
C34	C	1.300621	0.505228	-0.000081
C35	C	1.450152	-0.002703	0.000010
C36	C	1.567564	0.003736	0.000016
N37	N	1.238245	-0.009442	-0.281837
C38	C	1.262659	0.835898	0.000002
C39	C	1.272533	0.749780	-0.000128
C40	C	1.357910	-0.084370	-0.531105
C41	C	1.349404	-0.079034	-0.655770
C42	C	1.212731	0.006571	-0.655834
C43	C	1.221237	0.001235	-0.531169
C44	C	1.293828	-0.044238	-0.468809
C45	C	1.302329	-0.049579	-0.344142
C46	C	1.165662	0.036030	-0.344208
C47	C	1.157155	0.041367	-0.468873
N48	N	1.276815	-0.033565	0.281861
H49	H	0.926005	-0.177299	0.000043
H50	H	0.725847	-0.188266	0.000060
F51	F	0.804533	0.163928	-0.000031
H52	H	1.417008	-0.121404	-0.480330
H53	H	1.132952	0.471849	-0.000076
F54	F	1.097452	0.078740	-0.277899
F55	F	1.488356	0.617975	-0.000091
H56	H	1.414719	0.243416	-0.000064
F57	F	1.417611	-0.121746	-0.722066
H58	H	1.397855	0.390212	-0.000076
F59	F	1.075297	0.719747	-0.000121
F60	F	1.469167	0.785017	-0.000151
H61	H	1.098057	0.078392	-0.519664
H62	H	1.051699	0.332858	-0.000040
F63	F	0.963810	0.101353	-0.000019
H64	H	1.117173	0.566783	-0.000079
H65	H	1.068555	0.186047	-0.000022
H66	H	1.382079	0.485151	-0.000054
H67	H	0.589061	0.134286	-0.000004
F68	F	1.135483	0.054965	-0.722223
F69	F	0.551225	-0.144361	0.000072
H70	H	1.361432	-0.086609	-0.293370
