data_functionalizedCrystal
_audit_creation_method	'MofGen! by Chris Wilmer'
_symmetry_space_group_name_H-M	'P1'
_symmetry_Int_Tables_number	1
_symmetry_cell_setting	triclinic
loop_
_symmetry_equiv_pos_as_xyz
  x,y,z
_cell_length_a	23.532407
_cell_length_b	14.853567
_cell_length_c	13.330367
_cell_angle_alpha	90.008763
_cell_angle_beta	90.001508
_cell_angle_gamma	96.758196
loop_
_atom_site_label
_atom_site_type_symbol
_atom_site_fract_x
_atom_site_fract_y
_atom_site_fract_z
O1	O	0.755740	-0.109425	0.083290
O2	O	1.255740	0.390575	0.583290
O3	O	0.589946	-0.125260	0.083319
O4	O	1.089946	0.374740	0.583319
O5	O	0.677272	0.013936	0.083307
O6	O	1.177272	0.513936	0.583307
O7	O	0.668414	-0.248621	0.083302
O8	O	1.168414	0.251379	0.583302
O9	O	0.677258	0.013914	-0.083540
O10	O	1.177258	0.513914	0.416460
O11	O	0.589932	-0.125282	-0.083528
O12	O	1.089932	0.374718	0.416472
O13	O	0.755727	-0.109447	-0.083557
O14	O	1.255727	0.390553	0.416443
Cu15	Cu	0.672828	-0.117367	-0.098777
Cu16	Cu	1.172828	0.382633	0.401223
Cu17	Cu	0.672844	-0.117340	0.098539
Cu18	Cu	1.172844	0.382660	0.598539
O19	O	0.668401	-0.248643	-0.083545
O20	O	1.168401	0.251357	0.416455
C21	C	0.568721	-0.124868	-0.000101
C22	C	1.068721	0.375132	0.499899
C23	C	0.505499	-0.123655	-0.000090
C24	C	1.005499	0.376345	0.499910
C25	C	0.106722	-0.198424	-0.000137
C26	C	0.606722	0.301576	0.499863
C27	C	0.047317	-0.197298	-0.000143
C28	C	0.547317	0.302702	0.499857
O29	O	0.010875	-0.266610	-0.000180
O30	O	0.510875	0.233390	0.499820
N31	N	0.024330	-0.114546	-0.000140
N32	N	0.524330	0.385454	0.499860
C33	C	0.060751	-0.032916	-0.000141
C34	C	0.560751	0.467084	0.499859
O35	O	0.035744	0.037575	-0.000140
O36	O	0.535744	0.537575	0.499860
C37	C	0.120155	-0.034043	-0.000142
C38	C	0.620155	0.465957	0.499858
C39	C	0.143139	-0.116800	-0.000135
C40	C	0.643139	0.383200	0.499865
C41	C	0.129707	-0.281175	-0.000131
C42	C	0.629707	0.218825	0.499869
C43	C	0.189108	-0.282300	-0.000123
C44	C	0.689108	0.217700	0.499877
C45	C	0.225524	-0.200676	-0.000121
C46	C	0.725524	0.299324	0.499879
C47	C	0.202540	-0.117926	-0.000127
C48	C	0.702540	0.382074	0.499873
C49	C	0.156575	0.047587	-0.000150
C50	C	0.656575	0.547587	0.499850
C51	C	0.215983	0.046453	-0.000152
C52	C	0.715983	0.546453	0.499848
C53	C	0.238966	-0.036304	-0.000145
C54	C	0.738966	0.463696	0.499855
C55	C	0.298358	-0.037427	-0.000117
C56	C	0.798358	0.462573	0.499883
N57	N	0.321345	-0.120179	-0.000120
N58	N	0.821345	0.379821	0.499880
C59	C	0.284928	-0.201803	-0.000122
C60	C	0.784928	0.298197	0.499878
C61	C	-0.064002	-0.030555	-0.000140
C62	C	0.435998	0.469445	0.499860
C63	C	-0.123405	-0.029427	-0.000132
C64	C	0.376595	0.470573	0.499868
C65	C	-0.136834	-0.193810	-0.000136
C66	C	0.363166	0.306190	0.499864
C67	C	-0.077431	-0.194937	-0.000137
C68	C	0.422569	0.305063	0.499863
C69	C	-0.041014	-0.113306	-0.000143
C70	C	0.458986	0.386694	0.499857
C71	C	0.409675	-0.204161	-0.000104
C72	C	0.909675	0.295839	0.499896
C73	C	0.469082	-0.205280	-0.000092
C74	C	0.969082	0.294720	0.499908
C75	C	0.482507	-0.040897	-0.000093
C76	C	0.982507	0.459103	0.499907
C77	C	0.423105	-0.039778	-0.000100
C78	C	0.923105	0.460222	0.499900
C79	C	0.386690	-0.121418	-0.000109
C80	C	0.886690	0.378582	0.499891
O81	O	0.334835	0.031848	-0.000083
O82	O	0.834835	0.531848	0.499917
O83	O	0.309944	-0.272282	-0.000136
O84	O	0.809944	0.227718	0.499864
C85	C	0.676864	0.047509	-0.000114
C86	C	1.176864	0.547509	0.499886
C87	C	0.675661	0.147580	-0.000105
C88	C	1.175661	0.647580	0.499895
C89	C	0.776951	-0.109839	-0.000135
C90	C	1.276951	0.390161	0.499865
C91	C	0.840174	-0.111052	-0.000139
C92	C	1.340174	0.388948	0.499861
C93	C	0.668809	-0.282216	-0.000122
C94	C	1.168809	0.217784	0.499878
C95	C	0.670012	-0.382286	-0.000124
C96	C	1.170012	0.117714	0.499876
N97	N	0.672821	-0.117385	-0.237559
N98	N	1.172821	0.382615	0.262441
C99	C	0.618704	0.559490	-0.000114
C100	C	1.118704	1.059490	0.499886
C101	C	0.722449	0.581906	-0.000132
C102	C	1.222449	1.081906	0.499868
C103	C	0.723580	0.487885	-0.000126
C104	C	1.223580	0.987885	0.499874
C105	C	0.672272	0.429662	-0.000116
C106	C	1.172272	0.929662	0.499884
C107	C	0.619833	0.465460	-0.000112
C108	C	1.119833	0.965460	0.499888
C109	C	0.776017	0.452079	-0.000141
C110	C	1.276017	0.952079	0.499859
C111	C	0.777150	0.358053	-0.000136
C112	C	1.277150	0.858053	0.499864
C113	C	0.725842	0.299828	-0.000119
C114	C	1.225842	0.799828	0.499881
C115	C	0.673401	0.335631	-0.000113
C116	C	1.173401	0.835631	0.499887
C117	C	0.622093	0.277408	-0.000103
C118	C	1.122093	0.777408	0.499897
C119	C	0.569652	0.313210	-0.000090
C120	C	1.069652	0.813210	0.499910
C121	C	0.568524	0.407235	-0.000094
C122	C	1.068524	0.907235	0.499906
C123	C	0.726969	0.205803	-0.000115
C124	C	1.226969	0.705803	0.499885
C125	C	0.623222	0.183378	-0.000100
C126	C	1.123222	0.683378	0.499900
C127	C	0.707433	-0.171725	-0.710178
C128	C	1.207433	0.328275	-0.210178
C129	C	0.638273	-0.062919	-0.710153
C130	C	1.138273	0.437081	-0.210153
C131	C	0.638264	-0.062933	-0.605134
C132	C	1.138264	0.437067	-0.105134
C133	C	0.672841	-0.117343	-0.552633
C134	C	1.172841	0.382657	-0.052633
C135	C	0.707427	-0.171739	-0.605150
C136	C	1.207427	0.328261	-0.105150
C137	C	0.603684	-0.008531	-0.552610
C138	C	1.103684	0.491469	-0.052610
C139	C	0.603675	-0.008542	-0.447585
C140	C	1.103675	0.491458	0.052415
C141	C	0.638249	-0.062958	-0.395082
C142	C	1.138249	0.437042	0.104918
C143	C	0.672836	-0.117357	-0.447605
C144	C	1.172836	0.382643	0.052395
C145	C	0.707413	-0.171767	-0.395104
C146	C	1.207413	0.328233	0.104896
C147	C	0.741996	-0.226171	-0.447625
C148	C	1.241996	0.273829	0.052375
C149	C	0.742001	-0.226155	-0.552647
C150	C	1.242001	0.273845	-0.052647
C151	C	0.638244	-0.062975	-0.290060
C152	C	1.138244	0.437025	0.209940
C153	C	0.707407	-0.171780	-0.290076
C154	C	1.207407	0.328220	0.209924
N155	N	0.672856	-0.117315	0.237321
N156	N	1.172856	0.382685	0.737321
H157	H	-0.142112	0.037962	-0.000122
H158	H	0.357888	0.537962	0.499878
H159	H	0.770159	-0.270446	-0.595419
H160	H	1.270159	0.229554	-0.095419
H161	H	0.581440	0.135978	-0.000088
H162	H	1.081440	0.635978	0.499912
H163	H	0.770152	-0.270468	-0.404865
H164	H	1.270152	0.229532	0.095135
Cl165	Cl	0.843075	0.313053	-0.000135
Cl166	Cl	1.343075	0.813053	0.499865
H167	H	0.512168	0.025559	-0.000088
H168	H	1.012168	0.525559	0.499912
H169	H	0.100061	-0.347647	-0.000136
H170	H	0.600061	0.152353	0.499864
Cl171	Cl	0.750874	-0.240192	-0.224082
Cl172	Cl	1.250874	0.259808	0.275918
Cl173	Cl	0.750903	-0.240122	-0.776201
Cl174	Cl	1.250903	0.259878	-0.276201
Cl175	Cl	0.261760	0.149081	-0.000161
Cl176	Cl	0.761760	0.649081	0.499839
H177	H	0.527877	0.265793	-0.000089
H178	H	1.027877	0.765793	0.499911
H179	H	0.575538	0.035774	-0.595364
H180	H	1.075538	0.535774	-0.095364
H181	H	0.610125	-0.018615	-0.752906
H182	H	1.110125	0.481385	-0.252906
H183	H	0.576007	0.588645	-0.000100
H184	H	1.076007	1.088645	0.499900
Cl185	Cl	0.502605	0.452250	-0.000075
Cl186	Cl	1.002605	0.952250	0.499925
Cl187	Cl	0.560189	0.059834	-0.381567
Cl188	Cl	1.060189	0.559834	0.118433
Cl189	Cl	0.786946	0.655101	-0.000161
Cl190	Cl	1.286946	1.155101	0.499839
Cl191	Cl	-0.018227	0.072077	-0.000136
Cl192	Cl	0.481773	0.572077	0.499864
Cl193	Cl	0.594782	0.005430	-0.224037
Cl194	Cl	1.094782	0.505430	0.275963
Cl195	Cl	-0.048543	-0.298978	-0.000132
Cl196	Cl	0.451457	0.201022	0.499868
Cl197	Cl	0.840514	0.525276	-0.000175
Cl198	Cl	1.340514	1.025276	0.499825
H199	H	0.137873	0.114977	-0.000156
H200	H	0.637873	0.614977	0.499844
Cl201	Cl	0.394210	0.064260	-0.000114
Cl202	Cl	0.894210	0.564260	0.499886
H203	H	0.487792	-0.272673	-0.000086
H204	H	0.987792	0.227327	0.499914
Cl205	Cl	0.217992	-0.386344	-0.000121
Cl206	Cl	0.717992	0.113656	0.499879
Cl207	Cl	0.363906	-0.306795	-0.000114
Cl208	Cl	0.863906	0.193205	0.499886
H209	H	-0.166496	-0.260273	-0.000142
H210	H	0.333504	0.239727	0.499858
Cl211	Cl	0.792889	0.160798	-0.000150
Cl212	Cl	1.292889	0.660798	0.499850
