data_functionalizedCrystal
_audit_creation_method	'MofGen! by Chris Wilmer'
_symmetry_space_group_name_H-M	'P1'
_symmetry_Int_Tables_number	1
_symmetry_cell_setting	triclinic
loop_
_symmetry_equiv_pos_as_xyz
  x,y,z
_cell_length_a	16.176319
_cell_length_b	17.699083
_cell_length_c	17.699083
_cell_angle_alpha	96.716985
_cell_angle_beta	89.992304
_cell_angle_gamma	90.001389
loop_
_atom_site_label
_atom_site_type_symbol
_atom_site_fract_x
_atom_site_fract_y
_atom_site_fract_z
O1	O	-0.068632	-1.004079	0.095713
O2	O	0.431368	-0.504079	0.595713
O3	O	-0.068660	-0.783700	0.108166
O4	O	0.431340	-0.283700	0.608166
O5	O	-0.068638	-0.900116	-0.008250
O6	O	0.431362	-0.400116	0.491750
O7	O	-0.068654	-0.887663	0.212129
O8	O	0.431346	-0.387663	0.712129
O9	O	0.068855	-0.900100	-0.008257
O10	O	0.568855	-0.400100	0.491743
O11	O	0.068834	-0.783684	0.108158
O12	O	0.568834	-0.283684	0.608158
O13	O	0.068861	-1.004063	0.095706
O14	O	0.568861	-0.504063	0.595706
Cu15	Cu	0.081401	-0.893872	0.101931
Cu16	Cu	0.581401	-0.393872	0.601931
Cu17	Cu	-0.081200	-0.893891	0.101940
Cu18	Cu	0.418800	-0.393891	0.601940
O19	O	0.068839	-0.887647	0.212121
O20	O	0.568839	-0.387647	0.712121
C21	C	0.000084	-0.755495	0.107716
C22	C	0.500084	-0.255495	0.607716
C23	C	0.000073	-0.671477	0.106377
C24	C	0.500073	-0.171477	0.606377
N25	N	0.195767	-0.893864	0.101925
N26	N	0.695767	-0.393864	0.601925
N27	N	-0.195565	-0.893905	0.101941
N28	N	0.304435	-0.393905	0.601941
C29	C	0.000109	-0.899662	-0.036451
C30	C	0.500109	-0.399662	0.463549
C31	C	0.000109	-0.898323	-0.120469
C32	C	0.500109	-0.398323	0.379531
C33	C	0.239040	-0.945429	0.050397
C34	C	0.739040	-0.445429	0.550397
C35	C	0.325588	-0.945432	0.050396
C36	C	0.825588	-0.445432	0.550396
C37	C	0.368859	-0.893875	0.101927
C38	C	0.868859	-0.393875	0.601927
C39	C	0.325579	-0.842305	0.153457
C40	C	0.825579	-0.342305	0.653457
C41	C	0.239034	-0.842299	0.153454
C42	C	0.739034	-0.342299	0.653454
C43	C	0.674608	-0.842331	0.153472
C44	C	1.174608	-0.342331	0.653472
C45	C	0.761159	-0.842344	0.153473
C46	C	1.261159	-0.342344	0.653473
C47	C	0.761161	-0.945465	0.050414
C48	C	1.261161	-0.445465	0.550414
C49	C	0.674616	-0.945458	0.050410
C50	C	1.174616	-0.445458	0.550410
C51	C	0.631344	-0.893886	0.101937
C52	C	1.131344	-0.393886	0.601937
C53	C	0.537499	-0.893882	0.101937
C54	C	1.037499	-0.393882	0.601937
C55	C	0.462702	-0.893883	0.101932
C56	C	0.962702	-0.393883	0.601932
C57	C	0.000116	-1.032268	0.096156
C58	C	0.500116	-0.532268	0.596156
C59	C	0.000121	-1.116286	0.097494
C60	C	0.500121	-0.616286	0.597494
C61	C	0.000069	-0.622856	0.174710
C62	C	0.500069	-0.122856	0.674710
C63	C	0.000079	-0.543913	0.173448
C64	C	0.500079	-0.043913	0.673448
C65	C	0.000089	-0.513592	0.103852
C66	C	0.500089	-0.013592	0.603852
C67	C	0.000096	-0.562219	0.035513
C68	C	0.500096	-0.062219	0.535513
C69	C	0.000091	-0.641161	0.036776
C70	C	0.500091	-0.141161	0.536776
C71	C	0.000117	-0.243856	0.030418
C72	C	0.500117	0.256144	0.530418
C73	C	0.000120	-0.164908	0.029160
C74	C	0.500120	0.335092	0.529160
C75	C	0.000105	-0.146608	0.167090
C76	C	0.500105	0.353392	0.667090
C77	C	0.000100	-0.225550	0.168353
C78	C	0.500100	0.274450	0.668353
C79	C	0.000112	-0.274170	0.100015
C80	C	0.500112	0.225830	0.600015
C81	C	0.000102	-0.359769	0.101384
C82	C	0.500102	0.140231	0.601384
C83	C	0.000093	-0.427995	0.102481
C84	C	0.500093	0.072005	0.602481
C85	C	0.000119	-0.966656	-0.169090
C86	C	0.500119	-0.466656	0.330910
C87	C	0.000111	-0.965394	-0.248033
C88	C	0.500111	-0.465394	0.251967
C89	C	0.000100	-0.895798	-0.278354
C90	C	0.500100	-0.395798	0.221646
C91	C	0.000088	-0.827459	-0.229727
C92	C	0.500088	-0.327459	0.270273
C93	C	0.000089	-0.828722	-0.150785
C94	C	0.500089	-0.328722	0.349215
C95	C	0.000080	-0.822364	-0.548090
C96	C	0.500080	-0.322364	-0.048090
C97	C	0.000081	-0.821106	-0.627038
C98	C	0.500081	-0.321106	-0.127038
C99	C	0.000102	-0.959036	-0.645338
C100	C	0.500102	-0.459036	-0.145338
C101	C	0.000104	-0.960299	-0.566396
C102	C	0.500104	-0.460299	-0.066396
C103	C	0.000087	-0.891961	-0.517776
C104	C	0.500087	-0.391961	-0.017776
C105	C	0.000094	-0.893330	-0.432177
C106	C	0.500094	-0.393330	0.067823
C107	C	0.000099	-0.894427	-0.363951
C108	C	0.500099	-0.394427	0.136049
C109	C	0.000091	-0.888102	0.240322
C110	C	0.500091	-0.388102	0.740322
C111	C	0.000085	-0.889440	0.324340
C112	C	0.500085	-0.389440	0.824340
H113	H	0.203814	-0.987416	0.008438
H114	H	0.703814	-0.487416	0.508438
H115	H	0.000074	-0.764429	-0.651721
H116	H	0.500074	-0.264429	-0.151721
F117	F	0.000061	-0.749632	-0.496354
F118	F	0.500061	-0.249632	0.003646
F119	F	0.807221	-1.000351	-0.004429
F120	F	1.307221	-0.500351	0.495571
H121	H	0.000128	-0.140225	-0.027517
H122	H	0.500128	0.359775	0.472483
F123	F	0.000099	-0.692907	-0.035954
F124	F	0.500099	-0.192907	0.464046
F125	F	0.000129	-0.295592	-0.042314
F126	F	0.500129	0.204408	0.457686
H127	H	0.000116	-0.537526	-0.021154
H128	H	0.500116	-0.037526	0.478846
H129	H	0.360816	-0.800323	0.195413
H130	H	0.860816	-0.300323	0.695413
H131	H	0.639387	-0.987444	0.008451
H132	H	1.139387	-0.487444	0.508451
F133	F	0.807211	-0.787466	0.208321
F134	F	1.307211	-0.287466	0.708321
F135	F	0.628561	-0.787447	0.208312
F136	F	1.128561	-0.287447	0.708312
F137	F	0.192980	-0.787414	0.208295
F138	F	0.692980	-0.287414	0.708295
F139	F	0.000138	-1.040732	-0.136828
F140	F	0.500138	-0.540732	0.363172
F141	F	0.000123	-1.038124	-0.299776
F142	F	0.500123	-0.538124	0.200224
F143	F	0.000115	-1.034373	-0.534131
F144	F	0.500115	-0.534373	-0.034131
H145	H	0.000060	-0.647537	0.231384
H146	H	0.500060	-0.147537	0.731384
F147	F	0.000117	-1.031768	-0.697089
F148	F	0.500117	-0.531768	-0.197089
H149	H	0.000075	-0.504328	0.229092
H150	H	0.500075	-0.004328	0.729092
F151	F	0.000067	-0.753389	-0.261998
F152	F	0.500067	-0.253389	0.238002
H153	H	0.000089	-0.250232	0.225025
H154	H	0.500089	0.249768	0.725025
H155	H	0.000081	-0.773078	-0.111198
H156	H	0.500081	-0.273078	0.388802
H157	H	0.360821	-0.987419	0.008438
H158	H	0.860821	-0.487419	0.508438
H159	H	0.000100	-0.107012	0.222734
H160	H	0.500100	0.392988	0.722734
