data_functionalizedCrystal
_audit_creation_method	'MofGen! by Chris Wilmer'
_symmetry_space_group_name_H-M	'P1'
_symmetry_Int_Tables_number	1
_symmetry_cell_setting	triclinic
loop_
_symmetry_equiv_pos_as_xyz
  x,y,z
_cell_length_a	18.101398
_cell_length_b	18.101397
_cell_length_c	16.120297
_cell_angle_alpha	87.130973
_cell_angle_beta	87.116993
_cell_angle_gamma	90.018618
loop_
_atom_site_label
_atom_site_type_symbol
_atom_site_fract_x
_atom_site_fract_y
_atom_site_fract_z
Zn1	Zn	1.110955	-0.316111	0.471263
Zn2	Zn	1.117152	-0.433675	0.331844
Zn3	Zn	0.993390	-0.309849	0.331878
Zn4	Zn	0.987090	-0.439909	0.471222
O5	O	1.052147	-0.374886	0.401552
O6	O	1.215410	-0.331718	0.452772
O7	O	1.105965	-0.412019	0.215186
O8	O	1.009029	-0.207048	0.350399
O9	O	1.219963	-0.418091	0.350342
O10	O	1.095403	-0.211649	0.452805
O11	O	1.015038	-0.321045	0.215211
O12	O	0.888922	-0.327090	0.350359
O13	O	0.998290	-0.428717	0.587890
O14	O	0.884293	-0.422645	0.452734
O15	O	1.089294	-0.337763	0.587921
O16	O	1.099855	-0.538133	0.350302
O17	O	1.004299	-0.542714	0.452701
C18	C	0.859737	-0.374865	0.401546
C19	C	0.777422	-0.374875	0.401563
C20	C	0.626713	-0.374889	0.401562
C21	C	0.592476	-0.435093	0.465874
C22	C	0.506867	-0.435316	0.465683
C23	C	0.478331	-0.374903	0.401562
C24	C	0.513349	-0.391765	0.313594
C25	C	0.598977	-0.392189	0.313966
C26	C	0.594147	-0.297646	0.424450
C27	C	0.508410	-0.298162	0.426387
C28	C	0.394471	-0.374909	0.401557
C29	C	0.710573	-0.374884	0.401561
C30	C	1.052085	-0.567295	0.401511
C31	C	1.052125	-0.649609	0.401522
C32	C	1.052217	-0.948704	0.401598
C33	C	1.112186	-0.914458	0.336998
C34	C	1.112376	-0.828847	0.337166
C35	C	1.052171	-0.800319	0.401560
C36	C	1.069370	-0.835287	0.489433
C37	C	1.069828	-0.920916	0.489081
C38	C	0.974861	-0.916196	0.379085
C39	C	0.975337	-0.830458	0.377123
C40	C	1.052144	-0.716459	0.401543
C41	C	1.052245	-1.032564	0.401620
C42	C	1.245308	-0.374907	0.401558
C43	C	1.327622	-0.374916	0.401561
C44	C	1.042398	-0.384634	0.619001
C45	C	1.038244	-0.388788	0.711664
C46	C	1.052228	-0.181727	0.401611
C47	C	1.052263	-0.099414	0.401636
C48	C	1.061900	-0.365122	0.184949
C49	C	1.066198	-0.360760	0.092286
C50	C	1.030632	-0.396356	0.881322
C51	C	1.073808	-0.353194	0.922633
C52	C	1.069572	-0.357405	1.017037
C53	C	1.034866	-0.392146	0.786910
H54	H	0.485199	-0.285369	0.491127
C55	C	0.474805	-0.421891	0.552575
C56	C	0.397466	-0.422089	0.552353
C57	C	0.367910	-0.409719	0.632385
H58	H	0.490599	-0.459899	0.590387
H59	H	0.491415	-0.375346	0.569198
H60	H	0.380863	-0.468628	0.535741
H61	H	0.381651	-0.384081	0.514558
H62	H	0.384520	-0.363174	0.649008
H63	H	0.383709	-0.447729	0.670190
H64	H	0.315433	-0.409844	0.632243
C65	C	0.616144	-0.421804	0.553040
C66	C	0.661915	-0.359282	0.550562
C67	C	0.683744	-0.347022	0.630843
H68	H	0.573643	-0.414028	0.588498
H69	H	0.642420	-0.463673	0.573716
H70	H	0.635640	-0.317423	0.529897
H71	H	0.704426	-0.367042	0.515120
H72	H	0.710019	-0.388891	0.651520
H73	H	0.641239	-0.339249	0.666296
H74	H	0.714807	-0.304605	0.629172
H75	H	1.113952	-0.313079	0.887102
C76	C	0.977184	-0.449825	0.928842
C77	C	0.983581	-0.443440	1.014384
C78	C	0.934367	-0.492693	1.058196
H79	H	0.928019	-0.438418	0.914719
H80	H	0.988636	-0.498981	0.914666
H81	H	0.972124	-0.394296	1.028555
H82	H	1.032736	-0.454854	1.028532
H83	H	0.945820	-0.541848	1.044020
H84	H	0.885205	-0.481281	1.044066
H85	H	0.938706	-0.488372	1.116241
H86	H	0.614651	-0.492089	0.450872
H87	H	0.487039	-0.492637	0.450498
C88	C	0.952830	-0.941233	0.295157
C89	C	0.883798	-0.911342	0.277085
C90	C	0.863485	-0.934399	0.199781
H91	H	0.988728	-0.924690	0.253322
H92	H	0.949967	-0.993699	0.296819
H93	H	0.886666	-0.858888	0.275417
H94	H	0.847885	-0.927882	0.318900
H95	H	0.860622	-0.986864	0.201443
H96	H	0.899387	-0.917855	0.157952
H97	H	0.816642	-0.914127	0.187513
H98	H	0.612930	-0.281461	0.487516
C99	C	0.629574	-0.336065	0.247728
C100	C	0.606977	-0.355075	0.169761
C101	C	0.635157	-0.303406	0.108715
H102	H	0.611529	-0.288243	0.259479
H103	H	0.682072	-0.335953	0.247447
H104	H	0.554490	-0.355179	0.170044
H105	H	0.625021	-0.402888	0.157983
H106	H	0.687654	-0.303294	0.108434
H107	H	0.617109	-0.255588	0.120475
H108	H	0.619834	-0.316301	0.055807
H109	H	0.495211	-0.349086	0.264361
C110	C	0.626602	-0.467365	0.288203
C111	C	0.566188	-0.511973	0.272444
C112	C	0.591603	-0.581235	0.248722
H113	H	0.658004	-0.461309	0.239322
H114	H	0.653412	-0.490152	0.331695
H115	H	0.539390	-0.489191	0.228956
H116	H	0.534780	-0.518051	0.321314
H117	H	0.618413	-0.604022	0.292214
H118	H	0.623005	-0.575171	0.199843
H119	H	0.550617	-0.611512	0.238034
H120	H	0.492765	-0.447462	0.293921
C121	C	0.482466	-0.235722	0.368412
C122	C	0.438624	-0.264800	0.308710
C123	C	0.414724	-0.207306	0.255273
H124	H	0.454283	-0.201485	0.399576
H125	H	0.524181	-0.211238	0.341481
H126	H	0.396914	-0.289272	0.335638
H127	H	0.466790	-0.299031	0.277526
H128	H	0.456439	-0.182822	0.228342
H129	H	0.386545	-0.173072	0.286444
H130	H	0.384980	-0.227028	0.214755
H131	H	0.616525	-0.252843	0.377613
C132	C	1.098679	-0.797117	0.250219
C133	C	1.090149	-0.855034	0.197062
C134	C	1.077548	-0.825837	0.116953
H135	H	1.055046	-0.767977	0.251800
H136	H	1.139563	-0.767172	0.230348
H137	H	1.049270	-0.884967	0.216928
H138	H	1.133776	-0.884178	0.195456
H139	H	1.118431	-0.795891	0.097083
H140	H	1.033915	-0.796697	0.118543
H141	H	1.071766	-0.865128	0.080875
H142	H	1.169257	-0.936591	0.351722
C143	C	1.188921	-0.802493	0.357091
C144	C	1.235179	-0.863680	0.369024
C145	C	1.305696	-0.839433	0.387396
H146	H	1.208803	-0.771366	0.312256
H147	H	1.185495	-0.775674	0.406308
H148	H	1.238607	-0.890487	0.319812
H149	H	1.215321	-0.894814	0.413861
H150	H	1.302271	-0.812615	0.436613
H151	H	1.325571	-0.808306	0.342559
H152	H	1.337089	-0.880945	0.395503
C153	C	0.913082	-0.804517	0.435376
C154	C	0.942366	-0.760624	0.494906
C155	C	0.885042	-0.736723	0.548595
H156	H	0.878720	-0.776369	0.404370
H157	H	0.888701	-0.846230	0.462434
H158	H	0.966735	-0.718917	0.467850
H159	H	0.976721	-0.788756	0.525931
H160	H	0.860661	-0.778437	0.575653
H161	H	0.850683	-0.708579	0.517582
H162	H	0.904903	-0.706946	0.588996
C163	C	1.145123	-0.948483	0.514478
C164	C	1.189774	-0.888034	0.530001
C165	C	1.259146	-0.913395	0.553386
H166	H	1.139255	-0.979867	0.563386
H167	H	1.167769	-0.975299	0.470893
H168	H	1.167134	-0.861230	0.573583
H169	H	1.195664	-0.856644	0.481104
H170	H	1.281791	-0.940211	0.509800
H171	H	1.253270	-0.944779	0.602292
H172	H	1.289452	-0.872384	0.563913
C173	C	1.013830	-0.951407	0.555525
C174	C	0.979733	-0.892718	0.595807
C175	C	0.928158	-0.920774	0.657031
H176	H	0.977475	-0.979463	0.530396
H177	H	1.038336	-0.982185	0.594874
H178	H	0.955227	-0.861952	0.556465
H179	H	1.016069	-0.864656	0.620953
H180	H	0.952664	-0.951553	0.696380
H181	H	0.891808	-0.948830	0.631895
H182	H	0.905022	-0.880959	0.684375
H183	H	1.102053	-0.932155	0.271646
C184	C	0.957790	-0.799582	0.290936
C185	C	0.892034	-0.758982	0.296028
C186	C	0.875842	-0.730560	0.216638
H187	H	0.997007	-0.768239	0.269323
H188	H	0.952179	-0.839193	0.255243
H189	H	0.897650	-0.719377	0.331708
H190	H	0.852803	-0.790309	0.317626
H191	H	0.870232	-0.770170	0.180944
H192	H	0.915064	-0.699220	0.195031
H193	H	0.831223	-0.703015	0.220080
H194	H	1.026855	-0.817154	0.538859
H195	H	0.930228	-0.938580	0.426136
H196	H	1.125140	-0.814656	0.508827
