data_functionalizedCrystal
_audit_creation_method	'MofGen! by Chris Wilmer'
_symmetry_space_group_name_H-M	'P1'
_symmetry_Int_Tables_number	1
_symmetry_cell_setting	triclinic
loop_
_symmetry_equiv_pos_as_xyz
  x,y,z
_cell_length_a	14.971491
_cell_length_b	11.792254
_cell_length_c	13.448316
_cell_angle_alpha	89.993237
_cell_angle_beta	89.991393
_cell_angle_gamma	83.907416
loop_
_atom_site_label
_atom_site_type_symbol
_atom_site_fract_x
_atom_site_fract_y
_atom_site_fract_z
O1	O	1.187543	0.147936	-0.082735
O2	O	0.927215	0.165643	-0.082728
O3	O	1.063690	-0.008421	-0.082724
O4	O	1.051067	0.322000	-0.082738
O5	O	1.063673	-0.008431	0.082659
O6	O	0.927197	0.165632	0.082656
O7	O	1.187525	0.147926	0.082649
Cu8	Cu	1.057360	0.156778	0.097753
Cu9	Cu	1.057380	0.156790	-0.097832
O10	O	1.051050	0.321989	0.082646
C11	C	0.893878	0.164844	-0.000035
C12	C	0.794572	0.162468	-0.000032
C13	C	1.062886	-0.050712	-0.000033
C14	C	1.060506	-0.176709	-0.000034
C15	C	0.366834	0.152221	-0.090205
C16	C	0.460143	0.154450	-0.090201
C17	C	0.506784	0.155566	-0.000047
C18	C	0.460112	0.154442	0.090109
C19	C	0.366805	0.152205	0.090104
C20	C	0.654593	0.159108	0.090113
C21	C	0.747906	0.161347	0.090118
C22	C	0.747931	0.161353	-0.090193
C23	C	0.654624	0.159116	-0.090198
C24	C	0.607958	0.157994	-0.000041
C25	C	1.058572	-0.279033	-0.000037
C26	C	1.056154	-0.407405	-0.000046
C27	C	1.220862	0.148724	-0.000046
C28	C	1.320168	0.151100	-0.000056
C29	C	1.051854	0.364280	-0.000048
C30	C	1.054234	0.490278	-0.000054
N31	N	1.057352	0.156768	0.235318
N32	N	1.057395	0.156791	-0.235396
C33	C	1.117802	0.079725	0.287359
C34	C	1.117808	0.079724	0.391463
C35	C	1.057367	0.156773	0.443522
C36	C	0.996910	0.233820	0.391473
C37	C	0.996901	0.233814	0.287372
C38	C	0.996935	0.233827	0.608453
C39	C	0.996945	0.233835	0.712562
C40	C	1.117842	0.079737	0.712544
C41	C	1.117833	0.079731	0.608443
C42	C	1.057377	0.156780	0.556401
H43	H	0.498135	0.155356	-0.163610
H44	H	0.616651	0.158215	-0.163609
H45	H	0.328865	0.151320	-0.163619
C46	C	1.184340	-0.005022	0.769788
C47	C	1.182222	-0.134273	0.755492
C48	C	1.248721	-0.219023	0.812742
C49	C	1.317338	-0.174521	0.884290
C50	C	1.319459	-0.045263	0.898589
C51	C	1.252960	0.039487	0.841339
H52	H	1.131426	-0.167222	0.702526
H53	H	1.247151	-0.314709	0.802156
H54	H	1.366564	-0.237258	0.926670
H55	H	1.370255	-0.012315	0.951556
H56	H	1.254530	0.135172	0.851925
H57	H	0.328810	0.151303	0.163513
C58	C	1.184317	-0.005019	0.551172
C59	C	1.252923	0.039479	0.479577
C60	C	1.319406	-0.045274	0.422304
C61	C	1.317283	-0.174525	0.436627
C62	C	1.248674	-0.219030	0.508225
C63	C	1.182191	-0.134277	0.565498
H64	H	1.254497	0.135164	0.468971
H65	H	1.370194	-0.012329	0.369302
H66	H	1.366497	-0.237265	0.394230
H67	H	1.247100	-0.314715	0.518831
H68	H	1.131403	-0.167223	0.618500
H69	H	1.167024	0.016987	0.244979
H70	H	0.947702	0.296565	0.566084
C71	C	0.930405	0.318566	0.230123
C72	C	0.863952	0.403359	0.287383
C73	C	0.797451	0.488109	0.230135
C74	C	0.797404	0.488067	0.115628
C75	C	0.863860	0.403271	0.058361
C76	C	0.930361	0.318521	0.115609
H77	H	0.863985	0.403393	0.372154
H78	H	0.748257	0.550881	0.272528
H79	H	0.748176	0.550805	0.073250
H80	H	0.863827	0.403237	-0.026409
H81	H	0.979555	0.255749	0.073216
C82	C	0.799256	0.162573	-0.189371
C83	C	0.873075	0.065622	-0.214161
C84	C	0.924402	0.066843	-0.313335
C85	C	0.901911	0.165016	-0.387720
C86	C	0.828088	0.261974	-0.362933
C87	C	0.776761	0.260753	-0.263758
H88	H	0.889727	-0.007058	-0.159095
H89	H	0.979050	-0.004932	-0.331685
H90	H	0.939906	0.165921	-0.461136
H91	H	0.811436	0.334654	-0.417998
H92	H	0.722113	0.332528	-0.245409
H93	H	0.498095	0.155343	0.163514
H94	H	0.947726	0.296575	0.754943
C95	C	0.799235	0.162583	0.189272
C96	C	0.853697	0.262612	0.214027
C97	C	0.905036	0.263856	0.313175
C98	C	0.901914	0.165070	0.387568
C99	C	0.847450	0.065033	0.362815
C100	C	0.796111	0.063790	0.263667
H101	H	0.856010	0.335746	0.158955
H102	H	0.945354	0.337911	0.331498
H103	H	0.939919	0.165991	0.460963
H104	H	0.845137	-0.008101	0.417887
H105	H	0.755793	-0.010265	0.245343
C106	C	0.603255	0.157880	0.189284
C107	C	0.606391	0.256674	0.263644
C108	C	0.555052	0.255456	0.362811
C109	C	0.500576	0.155443	0.387618
C110	C	0.497438	0.056642	0.313255
C111	C	0.548778	0.057860	0.214088
H112	H	0.646719	0.330716	0.245282
H113	H	0.557375	0.328596	0.417859
H114	H	0.462571	0.154541	0.461027
H115	H	0.457110	-0.017401	0.331617
H116	H	0.546455	-0.015280	0.159040
H117	H	0.947693	0.296551	0.433866
H118	H	1.167030	0.016988	0.433835
