data_functionalizedCrystal
_audit_creation_method	'MofGen! by Chris Wilmer'
_symmetry_space_group_name_H-M	'P1'
_symmetry_Int_Tables_number	1
_symmetry_cell_setting	triclinic
loop_
_symmetry_equiv_pos_as_xyz
  x,y,z
_cell_length_a	19.188930
_cell_length_b	15.538191
_cell_length_c	14.185569
_cell_angle_alpha	82.124202
_cell_angle_beta	76.885558
_cell_angle_gamma	114.791562
loop_
_atom_site_label
_atom_site_type_symbol
_atom_site_fract_x
_atom_site_fract_y
_atom_site_fract_z
O1	O	-0.205739	-1.229395	-0.083403
O2	O	0.294261	-0.729395	0.416597
O3	O	-0.125034	-0.954801	-0.083413
O4	O	0.374966	-0.454801	0.416587
O5	O	-0.269037	-1.100027	-0.083388
O6	O	0.230963	-0.600027	0.416612
O7	O	-0.061735	-1.084169	-0.083427
O8	O	0.438265	-0.584169	0.416573
O9	O	-0.311574	-1.142929	0.083454
O10	O	0.188426	-0.642929	0.583454
O11	O	-0.167570	-0.997702	0.083429
O12	O	0.332430	-0.497702	0.583429
O13	O	-0.248275	-1.272296	0.083439
O14	O	0.251725	-0.772296	0.583439
Cu15	Cu	-0.211807	-1.138916	0.098668
Cu16	Cu	0.288193	-0.638916	0.598668
Cu17	Cu	-0.161503	-1.088181	-0.098642
Cu18	Cu	0.338497	-0.588181	0.401358
O19	O	-0.104272	-1.127070	0.083415
O20	O	0.395728	-0.627070	0.583415
C21	C	-0.137858	-0.941121	0.000007
C22	C	0.362142	-0.441121	0.500007
C23	C	-0.112707	-0.836443	0.000004
C24	C	0.387293	-0.336443	0.500004
C25	C	-0.316188	-1.120966	0.000036
C26	C	0.183812	-0.620966	0.500036
C27	C	-0.393308	-1.119427	0.000045
C28	C	0.106692	-0.619427	0.500045
C29	C	-0.235450	-1.285976	0.000017
C30	C	0.264550	-0.785976	0.500017
C31	C	-0.260600	-1.390652	0.000014
C32	C	0.239400	-0.890652	0.500014
C33	C	-0.459636	-1.204639	0.000053
C34	C	0.040364	-0.704639	0.500053
C35	C	-0.532092	-1.203188	0.000037
C36	C	-0.032092	-0.703188	0.500037
C37	C	-0.538221	-1.116524	0.000033
C38	C	-0.038221	-0.616524	0.500033
C39	C	-0.471879	-1.031299	0.000019
C40	C	0.028121	-0.531299	0.500019
C41	C	-0.399423	-1.032751	0.000025
C42	C	0.100577	-0.532751	0.500025
N43	N	-0.644063	-1.064881	0.056810
N44	N	-0.144063	-0.564881	0.556810
N45	N	-0.712897	-1.063508	0.056806
N46	N	-0.212897	-0.563508	0.556806
C47	C	-0.756526	-1.112146	0.000012
C48	C	-0.256526	-0.612146	0.500012
N49	N	-0.728730	-1.162225	-0.056765
N50	N	-0.228730	-0.662225	0.443235
N51	N	-0.659893	-1.163601	-0.056757
N52	N	-0.159893	-0.663601	0.443243
C53	C	-0.616785	-1.114941	0.000025
C54	C	-0.116785	-0.614941	0.500025
C55	C	-0.901421	-1.195790	0.000001
C56	C	-0.401421	-0.695790	0.500001
C57	C	-0.973876	-1.194333	-0.000021
C58	C	-0.473876	-0.694333	0.499979
C59	C	-0.913663	-1.022445	-0.000028
C60	C	-0.413663	-0.522445	0.499972
C61	C	-0.841208	-1.023901	-0.000016
C62	C	-0.341208	-0.523901	0.499984
C63	C	-0.835093	-1.110577	0.000003
C64	C	-0.335093	-0.610577	0.500003
C65	C	-0.057120	-1.106131	-0.000012
C66	C	0.442880	-0.606131	0.499988
C67	C	0.020001	-1.107668	-0.000027
C68	C	0.520001	-0.607668	0.499973
N69	N	-0.247190	-1.174608	0.237446
N70	N	0.252810	-0.674608	0.737446
C71	C	-0.362580	-0.549690	0.000037
C72	C	0.137420	-0.049690	0.500037
C73	C	-0.338928	-0.451326	0.000032
C74	C	0.161072	0.048674	0.500032
C75	C	-0.205894	-0.428328	0.000006
C76	C	0.294106	0.071672	0.500006
C77	C	-0.229535	-0.526694	0.000016
C78	C	0.270465	-0.026694	0.500016
C79	C	-0.307879	-0.587368	0.000031
C80	C	0.192121	-0.087368	0.500031
C81	C	-0.174835	-0.564371	0.000010
C82	C	0.325165	-0.064371	0.500010
C83	C	-0.198474	-0.662727	0.000015
C84	C	0.301526	-0.162727	0.500015
C85	C	-0.276813	-0.723406	0.000026
C86	C	0.223187	-0.223406	0.500026
C87	C	-0.331518	-0.685724	0.000035
C88	C	0.168482	-0.185724	0.500035
C89	C	-0.096489	-0.503694	-0.000011
C90	C	0.403511	-0.003694	0.499989
C91	C	-0.041789	-0.541372	-0.000017
C92	C	0.458211	-0.041372	0.499983
C93	C	-0.065429	-0.639731	-0.000005
C94	C	0.434571	-0.139731	0.499995
C95	C	-0.143769	-0.700410	0.000006
C96	C	0.356231	-0.200410	0.500006
C97	C	-0.010724	-0.677414	-0.000015
C98	C	0.489276	-0.177414	0.499985
C99	C	-0.034363	-0.775770	-0.000010
C100	C	0.465637	-0.275770	0.499990
C101	C	-0.167408	-0.798766	0.000011
C102	C	0.332592	-0.298766	0.500011
N103	N	-0.126126	-1.052497	-0.237419
N104	N	0.373874	-0.552497	0.262581
C105	C	-0.022200	-0.947635	0.605057
C106	C	0.477800	-0.447635	1.105057
C107	C	-0.049000	-0.974678	0.710083
C108	C	0.451000	-0.474678	1.210083
C109	C	-0.176486	-1.103301	0.710066
C110	C	0.323514	-0.603301	1.210066
C111	C	-0.149699	-1.076267	0.605037
C112	C	0.350301	-0.576267	1.105037
C113	C	-0.072555	-0.998434	0.552541
C114	C	0.427445	-0.498434	1.052541
C115	C	-0.200053	-1.127065	0.552522
C116	C	0.299947	-0.627065	1.052522
C117	C	-0.173266	-1.100036	0.447503
C118	C	0.326734	-0.600036	0.947503
C119	C	-0.096124	-1.022208	0.394999
C120	C	0.403876	-0.522208	0.894999
C121	C	-0.045768	-0.971404	0.447522
C122	C	0.454232	-0.471404	0.947522
C123	C	-0.277194	-1.204902	0.605020
C124	C	0.222806	-0.704902	1.105020
C125	C	-0.327549	-1.255701	0.552505
C126	C	0.172451	-0.755701	1.052505
C127	C	-0.300764	-1.228667	0.447484
C128	C	0.199236	-0.728667	0.947484
C129	C	-0.223623	-1.150839	0.394980
C130	C	0.276377	-0.650839	0.894980
C131	C	-0.351121	-1.279470	0.394961
C132	C	0.148879	-0.779470	0.894961
C133	C	-0.324334	-1.252441	0.289942
C134	C	0.175666	-0.752441	0.789942
C135	C	-0.196836	-1.123810	0.289961
C136	C	0.303164	-0.623810	0.789961
H137	H	-0.454664	-1.275217	0.000065
H138	H	0.045336	-0.775217	0.500065
F139	F	-0.409648	-1.338537	0.608384
F140	F	0.090352	-0.838537	1.108384
H141	H	-1.027882	-1.263724	-0.000020
H142	H	-0.527882	-0.763724	0.499980
H143	H	-0.142105	-0.378914	-0.000009
H144	H	0.357895	0.121086	0.499991
H145	H	-0.365338	-1.293808	0.247183
H146	H	0.134662	-0.793808	0.747183
F147	F	-0.328827	-0.942052	0.000016
F148	F	0.171173	-0.442052	0.500016
F149	F	-0.602694	-1.293886	0.000043
F150	F	-0.102694	-0.793886	0.500043
H151	H	-0.896442	-1.266365	0.000013
H152	H	-0.396442	-0.766365	0.500013
F153	F	-0.478401	-0.939064	0.000008
F154	F	0.021599	-0.439064	0.500008
H155	H	-0.787202	-0.954513	-0.000017
H156	H	-0.287202	-0.454513	0.499983
H157	H	-0.395315	-0.735130	0.000053
H158	H	0.104685	-0.235130	0.500053
H159	H	-0.007987	-0.933305	0.752836
H160	H	0.492013	-0.433305	1.252836
H161	H	-0.077244	-0.423606	-0.000018
H162	H	0.422756	0.076394	0.499982
H163	H	-0.426377	-0.599096	0.000054
H164	H	0.073623	-0.099096	0.500054
H165	H	-0.074314	-1.000204	0.309486
H166	H	0.425686	-0.500204	0.809486
F167	F	-0.301971	-0.828085	0.000025
F168	F	0.198029	-0.328085	0.500025
H169	H	-0.918651	-0.951880	-0.000037
H170	H	-0.418651	-0.451880	0.499963
H171	H	-0.383478	-0.420654	0.000035
H172	H	0.116522	0.079346	0.500035
H173	H	0.053066	-0.627997	-0.000036
H174	H	0.553066	-0.127997	0.499964
F175	F	0.036334	-0.888556	0.391649
F176	F	0.536334	-0.388556	0.891649
H177	H	-0.231205	-0.848172	0.000028
H178	H	0.268795	-0.348172	0.500028
H179	H	0.022000	-0.491957	-0.000033
H180	H	0.522000	0.008043	0.499967
H181	H	0.010177	-0.806449	-0.000006
H182	H	0.510177	-0.306449	0.499994
F183	F	-0.114734	-1.040961	0.234088
F184	F	0.385266	-0.540961	0.734088
F185	F	0.059902	-0.864787	0.549183
F186	F	0.559902	-0.364787	1.049183
F187	F	-0.433217	-1.362312	0.450843
F188	F	0.066783	-0.862312	0.950843
F189	F	-0.258585	-1.186137	0.765945
F190	F	0.241415	-0.686137	1.265945
F191	F	-0.305698	-1.233669	0.716792
F192	F	0.194302	-0.733669	1.216792
