data_functionalizedCrystal
_audit_creation_method	'MofGen! by Chris Wilmer'
_symmetry_space_group_name_H-M	'P1'
_symmetry_Int_Tables_number	1
_symmetry_cell_setting	triclinic
loop_
_symmetry_equiv_pos_as_xyz
  x,y,z
_cell_length_a	6.817900
_cell_length_b	9.582860
_cell_length_c	9.170709
_cell_angle_alpha	82.672509
_cell_angle_beta	112.460645
_cell_angle_gamma	111.206767
loop_
_atom_site_label
_atom_site_type_symbol
_atom_site_fract_x
_atom_site_fract_y
_atom_site_fract_z
V1	V	-4.136766	-0.142860	-0.486161
V2	V	-3.636766	0.357140	0.013839
O3	O	-4.081129	0.072962	-0.477201
O4	O	-3.581129	0.572962	0.022799
O5	O	-4.127018	-0.346838	-0.482553
O6	O	-3.627018	0.153162	0.017447
O7	O	-4.118328	-0.111661	-0.698322
O8	O	-3.618328	0.388339	-0.198322
O9	O	-4.089879	-0.163843	-0.259938
O10	O	-3.589879	0.336157	0.240062
V11	V	-4.611504	-0.120472	-0.459137
V12	V	-4.111504	0.379528	0.040863
O13	O	-4.417297	-0.191970	-0.545440
O14	O	-3.917297	0.308030	-0.045440
O15	O	-4.781170	-0.071362	-0.399859
O16	O	-4.281170	0.428638	0.100141
O17	O	-4.398046	0.083505	-0.462745
O18	O	-3.898046	0.583505	0.037255
O19	O	-4.784538	-0.336295	-0.468098
O20	O	-4.284538	0.163705	0.031902
O21	O	-4.775788	-0.099490	-0.685360
O22	O	-4.275788	0.400510	-0.185360
O23	O	-4.406736	-0.151672	-0.246977
O24	O	-3.906736	0.348328	0.253023
C25	C	-3.980452	-0.397469	-0.474811
C26	C	-3.480452	0.102531	0.025189
C27	C	-4.053968	-0.564037	-0.473275
C28	C	-3.553968	-0.064037	0.026725
C29	C	-3.969365	-0.097476	-0.750043
C30	C	-3.469365	0.402524	-0.250043
C31	C	-4.035829	-0.073316	-0.923483
C32	C	-3.535829	0.426684	-0.423483
C33	C	-4.207954	0.134128	-0.470483
C34	C	-3.707954	0.634128	0.029517
C35	C	-4.113678	0.300695	-0.472029
C36	C	-3.613678	0.800695	0.027971
C37	C	-4.219040	-0.165863	-0.195247
C38	C	-3.719040	0.334137	0.304753
C39	C	-4.131814	-0.190015	-0.021805
C40	C	-3.631814	0.309985	0.478195
H41	H	-4.163157	-0.308414	-0.973296
H42	H	-3.663157	0.191586	-0.473296
Br43	Br	-3.983617	0.124039	-1.004333
Br44	Br	-3.483617	0.624039	-0.504333
