data_functionalizedCrystal
_audit_creation_method	'MofGen! by Chris Wilmer'
_symmetry_space_group_name_H-M	'P1'
_symmetry_Int_Tables_number	1
_symmetry_cell_setting	triclinic
loop_
_symmetry_equiv_pos_as_xyz
  x,y,z
_cell_length_a	13.032831
_cell_length_b	13.897447
_cell_length_c	13.033109
_cell_angle_alpha	97.154634
_cell_angle_beta	76.665514
_cell_angle_gamma	82.824382
loop_
_atom_site_label
_atom_site_type_symbol
_atom_site_fract_x
_atom_site_fract_y
_atom_site_fract_z
Zn1	Zn	1.700091	-0.678105	-0.806414
Zn2	Zn	2.200091	-0.178105	-0.306414
Zn3	Zn	1.677419	-0.815942	-0.628799
Zn4	Zn	2.177419	-0.315942	-0.128799
Zn5	Zn	1.499917	-0.631188	-0.606307
Zn6	Zn	1.999917	-0.131188	-0.106307
Zn7	Zn	1.522433	-0.815857	-0.783843
Zn8	Zn	2.022433	-0.315857	-0.283843
O9	O	1.599965	-0.735273	-0.706341
O10	O	2.099965	-0.235273	-0.206341
O11	O	1.845719	-0.716059	-0.801712
O12	O	2.345719	-0.216059	-0.301712
O13	O	1.634961	-0.771835	-0.477183
O14	O	2.134961	-0.271835	0.022817
O15	O	1.526536	-0.502442	-0.632885
O16	O	2.026536	-0.002442	-0.132885
O17	O	1.829062	-0.817328	-0.671219
O18	O	2.329062	-0.317328	-0.171219
O19	O	1.673603	-0.536911	-0.779903
O20	O	2.173603	-0.036911	-0.279903
O21	O	1.504551	-0.636097	-0.460659
O22	O	2.004551	-0.136097	0.039341
O23	O	1.354268	-0.636015	-0.610999
O24	O	1.854268	-0.136015	-0.110999
O25	O	1.564912	-0.817183	-0.935469
O26	O	2.064912	-0.317183	-0.435469
O27	O	1.370811	-0.771690	-0.741433
O28	O	1.870811	-0.271690	-0.241433
O29	O	1.695436	-0.715977	-0.952052
O30	O	2.195436	-0.215977	-0.452052
O31	O	1.656794	-0.950901	-0.649332
O32	O	2.156794	-0.450901	-0.149332
O33	O	1.542927	-0.950839	-0.763242
O34	O	2.042927	-0.450839	-0.263242
C35	C	1.324000	-0.698753	-0.671327
C36	C	1.824000	-0.198753	-0.171327
C37	C	1.205945	-0.683156	-0.656372
C38	C	1.705945	-0.183156	-0.156372
C39	C	1.599876	-0.985873	-0.706305
C40	C	2.099876	-0.485873	-0.206305
C41	C	1.599939	-1.093098	-0.706338
C42	C	2.099939	-0.593098	-0.206338
C43	C	1.161512	-0.743413	-0.714145
C44	C	1.661512	-0.243413	-0.214145
C45	C	1.039495	-0.727295	-0.698691
C46	C	1.539495	-0.227295	-0.198691
C47	C	1.599993	-1.180178	-0.706369
C48	C	2.099993	-0.680178	-0.206369
C49	C	1.600071	-1.289424	-0.706405
C50	C	2.100071	-0.789424	-0.206405
C51	C	1.877008	-0.771937	-0.741492
C52	C	2.377008	-0.271937	-0.241492
C53	C	1.995066	-0.787560	-0.756472
C54	C	2.495066	-0.287560	-0.256472
C55	C	1.635215	-0.771804	-0.983377
C56	C	2.135215	-0.271804	-0.483377
C57	C	1.650236	-0.787371	-1.101433
C58	C	2.150236	-0.287371	-0.601433
C59	C	1.600087	-0.483702	-0.706403
C60	C	2.100087	0.016298	-0.206403
C61	C	1.600139	-0.376497	-0.706430
C62	C	2.100139	0.123503	-0.206430
C63	C	1.592409	-0.727151	-1.145890
C64	C	2.092409	-0.227151	-0.645890
C65	C	1.607933	-0.743239	-1.267907
C66	C	2.107933	-0.243239	-0.767907
C67	C	1.564913	-0.698823	-0.430390
C68	C	2.064913	-0.198823	0.069610
C69	C	1.550098	-0.683011	-0.312361
C70	C	2.050098	-0.183011	0.187639
H71	H	1.213804	-0.806932	-0.775052
H72	H	1.713804	-0.306932	-0.275052
H73	H	1.153653	-0.619631	-0.595474
H74	H	1.653653	-0.119631	-0.095474
H75	H	1.531404	-0.663688	-1.093618
H76	H	2.031404	-0.163688	-0.593618
C77	C	0.968859	-0.641472	-0.616408
C78	C	1.468859	-0.141472	-0.116408
N79	N	0.915655	-0.576833	-0.554434
N80	N	1.415655	-0.076833	-0.054434
C81	C	1.065700	-0.873383	-0.838756
C82	C	1.565700	-0.373383	-0.338756
N83	N	1.118902	-0.938024	-0.900730
N84	N	1.618902	-0.438024	-0.400730
H85	H	1.711236	-0.850839	-1.153704
H86	H	2.211236	-0.350839	-0.653704
H87	H	1.668937	-0.806712	-1.320175
H88	H	2.168937	-0.306712	-0.820175
H89	H	1.489090	-0.619541	-1.260094
H90	H	1.989090	-0.119541	-0.760094
