data_functionalizedCrystal
_audit_creation_method	'MofGen! by Chris Wilmer'
_symmetry_space_group_name_H-M	'P1'
_symmetry_Int_Tables_number	1
_symmetry_cell_setting	triclinic
loop_
_symmetry_equiv_pos_as_xyz
  x,y,z
_cell_length_a	10.654562
_cell_length_b	8.559648
_cell_length_c	7.681187
_cell_angle_alpha	85.101156
_cell_angle_beta	84.201185
_cell_angle_gamma	102.865616
loop_
_atom_site_label
_atom_site_type_symbol
_atom_site_fract_x
_atom_site_fract_y
_atom_site_fract_z
O1	O	1.631307	-0.239224	0.146493
O2	O	1.263629	-0.260559	0.146465
O3	O	1.479857	-0.017655	0.146525
O4	O	1.415080	-0.482128	0.146433
O5	O	1.506544	0.012228	-0.146338
O6	O	1.290316	-0.230676	-0.146398
O7	O	1.657994	-0.209341	-0.146370
Zn8	Zn	1.478392	-0.215264	-0.192882
Zn9	Zn	1.443231	-0.254636	0.192977
O10	O	1.441766	-0.452245	-0.146430
C11	C	1.230338	-0.244046	0.000031
C12	C	1.091381	-0.239345	0.000024
C13	C	1.040623	-0.220865	-0.159601
C14	C	0.910053	-0.216465	-0.159571
C15	C	0.881008	-0.249033	0.159724
C16	C	1.011579	-0.253421	0.159692
C17	C	1.057389	-0.202069	-0.343944
C18	C	0.926819	-0.197669	-0.343914
C19	C	1.498109	0.056760	0.000108
C20	C	1.512719	0.233973	0.000154
C21	C	1.691286	-0.225854	0.000067
C22	C	1.830241	-0.230556	0.000086
C23	C	1.423510	0.473335	0.000040
C24	C	1.408885	0.296106	0.000152
N25	N	1.419237	-0.281494	0.456316
N26	N	1.502398	-0.188393	-0.456221
H27	H	0.816018	-0.260493	0.289720
O28	O	0.910445	-0.035761	-0.419677
H29	H	0.955941	0.058845	-0.340277
O30	O	1.087572	-0.348513	-0.419748
H31	H	1.162261	-0.309304	-0.536201
O32	O	1.306812	-0.407339	0.555949
H33	H	1.248715	-0.472399	0.461024
H34	H	1.587271	-0.093404	0.468565
H35	H	1.121492	-0.084542	-0.414714
O36	O	1.066335	-0.273338	0.331857
H37	H	0.988902	-0.282402	0.442882
H38	H	1.612802	0.316363	0.000162
O39	O	0.858936	-0.334223	-0.437654
H40	H	0.929249	-0.404577	-0.483554
H41	H	1.308811	0.213727	0.000124
