data_functionalizedCrystal
_audit_creation_method	'MofGen! by Chris Wilmer'
_symmetry_space_group_name_H-M	'P1'
_symmetry_Int_Tables_number	1
_symmetry_cell_setting	triclinic
loop_
_symmetry_equiv_pos_as_xyz
  x,y,z
_cell_length_a	17.019284
_cell_length_b	17.699083
_cell_length_c	16.098524
_cell_angle_alpha	86.936415
_cell_angle_beta	89.189528
_cell_angle_gamma	96.663576
loop_
_atom_site_label
_atom_site_type_symbol
_atom_site_fract_x
_atom_site_fract_y
_atom_site_fract_z
O1	O	-0.102558	1.006832	-0.061779
O2	O	0.397442	1.506832	0.438221
O3	O	-0.115496	0.786423	-0.060878
O4	O	0.384504	1.286423	0.439122
O5	O	0.005445	0.903137	-0.069538
O6	O	0.505445	1.403137	0.430462
O7	O	-0.223499	0.890117	-0.053119
O8	O	0.276501	1.390117	0.446881
O9	O	0.011714	0.897111	0.068525
O10	O	0.511714	1.397111	0.568525
O11	O	-0.109227	0.780397	0.077185
O12	O	0.390773	1.280397	0.577185
O13	O	-0.096290	1.000806	0.076284
O14	O	0.403710	1.500806	0.576284
Zn15	Zn	-0.101763	0.889645	0.098655
Zn16	Zn	0.398237	1.389645	0.598655
Zn17	Zn	-0.110022	0.897584	-0.083249
Zn18	Zn	0.389978	1.397584	0.416751
O19	O	-0.217230	0.884091	0.084944
O20	O	0.282770	1.384091	0.584944
C21	C	-0.111898	0.755214	0.008117
C22	C	0.388102	1.255214	0.508117
C23	C	-0.110508	0.671200	0.008007
C24	C	0.389492	1.171200	0.508007
C25	C	-0.181497	0.622403	0.013098
C26	C	0.318503	1.122403	0.513098
C27	C	-0.180185	0.543462	0.013015
C28	C	0.319815	1.043462	0.513015
C29	C	-0.107884	0.513321	0.007834
C30	C	0.392116	1.013321	0.507834
C31	C	-0.036889	0.562124	0.002745
C32	C	0.463111	1.062124	0.502745
C33	C	-0.038201	0.641062	0.002834
C34	C	0.461799	1.141062	0.502834
C35	C	-0.031595	0.243773	0.002386
C36	C	0.468405	0.743773	0.502386
C37	C	-0.030288	0.164828	0.002295
C38	C	0.469712	0.664828	0.502295
C39	C	-0.173579	0.146173	0.012566
C40	C	0.326421	0.646173	0.512566
C41	C	-0.174891	0.225111	0.012656
C42	C	0.325109	0.725111	0.512656
C43	C	-0.103897	0.273907	0.007571
C44	C	0.396103	0.773907	0.507571
C45	C	-0.105320	0.359503	0.007663
C46	C	0.394680	0.859503	0.507663
C47	C	-0.106460	0.427726	0.007736
C48	C	0.393540	0.927726	0.507736
C49	C	-0.249658	0.887478	0.018013
C50	C	0.250342	1.387478	0.518013
C51	C	-0.336941	0.888600	0.024273
C52	C	0.163059	1.388600	0.524273
C53	C	-0.381361	0.892413	-0.048044
C54	C	0.118639	1.392413	0.451956
C55	C	-0.463372	0.893477	-0.042162
C56	C	0.036628	1.393477	0.457838
C57	C	-0.500962	0.890723	0.036038
C58	C	-0.000962	1.390723	0.536038
C59	C	-0.456536	0.886912	0.108361
C60	C	0.043464	1.386912	0.608361
C61	C	-0.374526	0.885853	0.102478
C62	C	0.125474	1.385853	0.602478
C63	C	-0.748408	0.893760	0.057566
C64	C	-0.248408	1.393760	0.557566
C65	C	-0.830424	0.894816	0.063443
C66	C	-0.330424	1.394816	0.563443
C67	C	-0.837255	0.901382	-0.087081
C68	C	-0.337255	1.401382	0.412919
C69	C	-0.755244	0.900319	-0.092957
C70	C	-0.255244	1.400319	0.407043
C71	C	-0.710824	0.896512	-0.020634
C72	C	-0.210824	1.396512	0.479366
C73	C	-0.584791	0.891808	0.042052
C74	C	-0.084791	1.391808	0.542052
C75	C	-0.626996	0.895433	-0.026649
C76	C	-0.126996	1.395433	0.473351
C77	C	0.037872	0.899751	-0.002609
C78	C	0.537872	1.399751	0.497391
C79	C	0.125155	0.898629	-0.008875
C80	C	0.625155	1.398629	0.491125
C81	C	-0.099887	1.032015	0.007287
C82	C	0.400113	1.532015	0.507287
C83	C	-0.101278	1.116029	0.007392
C84	C	0.398722	1.616029	0.507392
N85	N	-0.096126	0.884232	0.222800
N86	N	0.403874	1.384232	0.722800
N87	N	-0.115653	0.903003	-0.207394
N88	N	0.384347	1.403003	0.292606
C89	C	-0.141784	0.928037	0.269661
C90	C	0.358216	1.428037	0.769661
C91	C	-0.137836	0.924261	0.356567
C92	C	0.362164	1.424261	0.856567
C93	C	-0.088232	0.876675	0.396610
C94	C	0.411768	1.376675	0.896610
C95	C	-0.042569	0.832869	0.349742
C96	C	0.457431	1.332869	0.849742
C97	C	-0.046514	0.836649	0.262837
C98	C	0.453486	1.336649	0.762837
C99	C	-0.073935	0.862977	0.658834
C100	C	0.426065	1.362977	1.158834
C101	C	-0.069995	0.859198	0.745744
C102	C	0.430005	1.359198	1.245744
C103	C	-0.165261	0.950591	0.752564
C104	C	0.334739	1.450591	1.252564
C105	C	-0.169205	0.954365	0.665658
C106	C	0.330795	1.454365	1.165658
C107	C	-0.123538	0.910561	0.618797
C108	C	0.376462	1.410561	1.118797
C109	C	-0.084197	0.872812	0.485441
C110	C	0.415803	1.372812	0.985441
C111	C	-0.127570	0.914429	0.529967
C112	C	0.372430	1.414429	1.029967
H113	H	-0.240374	0.646937	0.017316
H114	H	0.259626	1.146937	0.517316
H115	H	-0.237992	0.503734	0.017160
H116	H	0.262008	1.003734	0.517160
H117	H	-0.233767	0.249648	0.016870
H118	H	0.266233	0.749648	0.516870
H119	H	0.021981	0.537576	-0.001461
H120	H	0.521981	1.037576	0.498539
H121	H	-0.167954	0.953175	0.497360
H122	H	0.332046	1.453175	0.997360
H123	H	-0.596386	0.897679	-0.090320
H124	H	-0.096386	1.397679	0.409680
H125	H	0.028592	0.140290	-0.001923
H126	H	0.528592	0.640290	0.498077
O127	O	-0.621371	0.888988	0.117993
O128	O	-0.121371	1.388988	0.617993
C129	C	-0.677653	0.823868	0.126506
C130	C	-0.177653	1.323868	0.626506
H131	H	-0.661178	0.779606	0.082472
H132	H	-0.161178	1.279606	0.582472
H133	H	-0.678613	0.798965	0.193349
H134	H	-0.178613	1.298965	0.693349
H135	H	-0.738678	0.840374	0.110583
H136	H	-0.238678	1.340374	0.610583
O137	O	-0.331320	0.882281	0.172702
O138	O	0.168680	1.382281	0.672702
C139	C	-0.274632	0.947009	0.173152
C140	C	0.225368	1.447009	0.673152
H141	H	-0.294973	0.995005	0.131771
H142	H	0.205027	1.495005	0.631771
H143	H	-0.267645	0.966093	0.239435
H144	H	0.232355	1.466093	0.739435
H145	H	-0.215439	0.932270	0.148618
H146	H	0.284561	1.432270	0.648618
H147	H	-0.036749	0.827309	0.620690
H148	H	0.463251	1.327309	1.120690
O149	O	-0.189985	0.974326	0.230898
O150	O	0.310015	1.474326	0.730898
C151	C	-0.229451	1.012165	0.290900
C152	C	0.270549	1.512165	0.790900
H153	H	-0.194081	1.014026	0.350513
H154	H	0.305919	1.514026	0.850513
H155	H	-0.235392	1.072750	0.266133
H156	H	0.264608	1.572750	0.766133
H157	H	-0.290791	0.980319	0.304573
H158	H	0.209209	1.480319	0.804573
H159	H	-0.499535	0.896583	-0.101051
H160	H	0.000465	1.396583	0.398949
O161	O	-0.217284	1.000632	0.626657
O162	O	0.282716	1.500632	1.126657
C163	C	-0.171559	1.054678	0.572952
C164	C	0.328441	1.554678	1.072952
H165	H	-0.113832	1.031950	0.555761
H166	H	0.386168	1.531950	1.055761
H167	H	-0.205931	1.065616	0.514102
H168	H	0.294069	1.565616	1.014102
H169	H	-0.157939	1.110170	0.605564
H170	H	0.342061	1.610170	1.105564
H171	H	0.019606	0.680793	-0.001312
H172	H	0.519606	1.180793	0.498688
O173	O	-0.209690	0.993171	0.797960
O174	O	0.290310	1.493171	1.297960
C175	C	-0.254298	1.035999	0.743980
C176	C	0.245702	1.535999	1.243980
H177	H	-0.261742	1.007341	0.682367
H178	H	0.238258	1.507341	1.182367
H179	H	-0.314982	1.039340	0.773521
H180	H	0.185018	1.539340	1.273521
H181	H	-0.222244	1.095944	0.732404
H182	H	0.277756	1.595944	1.232404
H183	H	-0.029602	0.820444	0.778344
H184	H	0.470398	1.320444	1.278344
O185	O	-0.705204	0.890162	0.127783
O186	O	-0.205204	1.390162	0.627783
C187	C	-0.648496	0.954874	0.128258
C188	C	-0.148496	1.454874	0.628258
H189	H	-0.668829	1.002896	0.086908
H190	H	-0.168829	1.502896	0.586908
H191	H	-0.641493	0.973924	0.194552
H192	H	-0.141493	1.473924	0.694552
H193	H	-0.589314	0.940130	0.103700
H194	H	-0.089314	1.440130	0.603700
O195	O	-0.002253	0.793979	0.217357
O196	O	0.497747	1.293979	0.717357
C197	C	-0.023159	0.716142	0.240179
C198	C	0.476841	1.216142	0.740179
H199	H	-0.085494	0.707511	0.268615
H200	H	0.414506	1.207511	0.768615
H201	H	-0.021219	0.681416	0.182704
H202	H	0.478781	1.181416	0.682704
H203	H	0.020328	0.696559	0.287672
H204	H	0.520328	1.196559	0.787672
O205	O	-0.182227	0.966700	0.402186
O206	O	0.317773	1.466700	0.902186
C207	C	-0.233667	0.918134	0.456299
C208	C	0.266333	1.418134	0.956299
H209	H	-0.208677	0.861518	0.467570
H210	H	0.291323	1.361518	0.967570
H211	H	-0.239608	0.945863	0.518033
H212	H	0.260392	1.445863	1.018033
H213	H	-0.294311	0.907749	0.427051
H214	H	0.205689	1.407749	0.927051
H215	H	-0.002177	0.794127	0.382351
H216	H	0.497823	1.294127	0.882351
H217	H	-0.231386	0.106433	0.016711
H218	H	0.268614	0.606433	0.516711
H219	H	-0.043810	0.834067	0.518054
H220	H	0.456190	1.334067	1.018054
H221	H	0.026214	0.283494	-0.001754
H222	H	0.526214	0.783494	0.498246
O223	O	-0.867006	0.892006	0.139389
O224	O	-0.367006	1.392006	0.639389
C225	C	-0.923282	0.826881	0.147909
C226	C	-0.423282	1.326881	0.647909
H227	H	-0.906802	0.782616	0.103881
H228	H	-0.406802	1.282616	0.603881
H229	H	-0.924239	0.801985	0.214755
H230	H	-0.424239	1.301985	0.714755
H231	H	-0.984309	0.843379	0.131983
H232	H	-0.484309	1.343379	0.631983
H233	H	-0.724643	0.902567	-0.156637
H234	H	-0.224643	1.402567	0.343363
H235	H	-0.350763	0.894648	-0.111724
H236	H	0.149237	1.394648	0.388276
H237	H	-0.487147	0.884675	0.172034
H238	H	0.012853	1.384675	0.672034
O239	O	-0.880500	0.904980	-0.157273
O240	O	-0.380500	1.404980	0.342727
C241	C	-0.937161	0.840232	-0.157746
C242	C	-0.437161	1.340232	0.342254
H243	H	-0.949496	0.815688	-0.091308
H244	H	-0.449496	1.315688	0.408692
H245	H	-0.994244	0.857105	-0.185613
H246	H	-0.494244	1.357105	0.314387
H247	H	-0.913562	0.795546	-0.196701
H248	H	-0.413562	1.295546	0.303299
