data_functionalizedCrystal
_audit_creation_method	'MofGen! by Chris Wilmer'
_symmetry_space_group_name_H-M	'P1'
_symmetry_Int_Tables_number	1
_symmetry_cell_setting	triclinic
loop_
_symmetry_equiv_pos_as_xyz
  x,y,z
_cell_length_a	21.295418
_cell_length_b	21.295417
_cell_length_c	21.295412
_cell_angle_alpha	89.969332
_cell_angle_beta	89.957310
_cell_angle_gamma	90.046319
loop_
_atom_site_label
_atom_site_type_symbol
_atom_site_fract_x
_atom_site_fract_y
_atom_site_fract_z
Zn1	Zn	0.962349	-0.250359	-0.356234
Zn2	Zn	0.962254	-0.355628	-0.250959
Zn3	Zn	0.857074	-0.250405	-0.250943
Zn4	Zn	0.857042	-0.355623	-0.356155
O5	O	0.909680	-0.303004	-0.303573
O6	O	1.050426	-0.264306	-0.342308
O7	O	0.948275	-0.341691	-0.162868
O8	O	0.871093	-0.162310	-0.264937
O9	O	1.050356	-0.341646	-0.264963
O10	O	0.948438	-0.162276	-0.342293
O11	O	0.871000	-0.264384	-0.162856
O12	O	0.768981	-0.264380	-0.264861
O13	O	0.871038	-0.341639	-0.444255
O14	O	0.768957	-0.341684	-0.342160
O15	O	0.948406	-0.264302	-0.444313
O16	O	0.948243	-0.443716	-0.264887
O17	O	0.870945	-0.443713	-0.342175
C18	C	0.746128	-0.303037	-0.303500
C19	C	0.676160	-0.303066	-0.303484
C20	C	0.643297	-0.343371	-0.343674
C21	C	0.577555	-0.343356	-0.343702
C22	C	0.544678	-0.303042	-0.303530
C23	C	0.577548	-0.262729	-0.263337
C24	C	0.643289	-0.262741	-0.263315
N25	N	0.441403	-0.298123	-0.248472
N26	N	0.378951	-0.298116	-0.248495
C27	C	0.346603	-0.303002	-0.303596
N28	N	0.379065	-0.307908	-0.358675
N29	N	0.441522	-0.307920	-0.358650
C30	C	0.473392	-0.303024	-0.303550
C31	C	0.242455	-0.343292	-0.343820
C32	C	0.176711	-0.343272	-0.343849
C33	C	0.176706	-0.262649	-0.263479
C34	C	0.242448	-0.262665	-0.263455
C35	C	0.275319	-0.302990	-0.303625
C36	C	0.909597	-0.466556	-0.303538
C37	C	0.909620	-0.536524	-0.303544
C38	C	0.949905	-0.569371	-0.263342
C39	C	0.949934	-0.635113	-0.263356
C40	C	0.909667	-0.668006	-0.303566
C41	C	0.869379	-0.635151	-0.343776
C42	C	0.869355	-0.569410	-0.343765
N43	N	0.854600	-0.771287	-0.308340
N44	N	0.854625	-0.833739	-0.308347
C45	C	0.909738	-0.866081	-0.303602
N46	N	0.964827	-0.833612	-0.298838
N47	N	0.964802	-0.771155	-0.298828
C48	C	0.909689	-0.739291	-0.303582
C49	C	0.950058	-0.970214	-0.263413
C50	C	0.950089	-1.035957	-0.263431
C51	C	0.869528	-1.035993	-0.343848
C52	C	0.869504	-0.970251	-0.343833
C53	C	0.909768	-0.937365	-0.303612
C54	C	1.073870	-0.302971	-0.303646
C55	C	1.143838	-0.302957	-0.303677
C56	C	0.909729	-0.302965	-0.467763
C57	C	0.909750	-0.302948	-0.537731
C58	C	0.909780	-0.138814	-0.303622
C59	C	0.909822	-0.068845	-0.303642
C60	C	0.869524	-0.262690	-0.570582
C61	C	0.869522	-0.262678	-0.636325
C62	C	0.909757	-0.302918	-0.669214
C63	C	0.949986	-0.343184	-0.636355
C64	C	0.949983	-0.343199	-0.570614
N65	N	0.964861	-0.307710	-0.772471
N66	N	0.964863	-0.307692	-0.834922
C67	C	0.909768	-0.302876	-0.867289
N68	N	0.854671	-0.298066	-0.834845
N69	N	0.854671	-0.298081	-0.772387
C70	C	0.909765	-0.302906	-0.740499
C71	C	0.869536	-0.262603	-0.971425
C72	C	0.869533	-0.262596	-1.037169
C73	C	0.950003	-0.343098	-1.037198
C74	C	0.950001	-0.343109	-0.971456
C75	C	0.909768	-0.302858	-0.938573
C76	C	0.909667	-0.302997	-0.140021
C77	C	0.909768	-0.302837	-0.070054
H78	H	0.149955	-0.376092	-0.376580
O79	O	0.542093	-0.219259	-0.219993
H80	H	0.490858	-0.226031	-0.226751
H81	H	0.982759	-0.375890	-0.944708
O82	O	0.826146	-0.219247	-0.671775
H83	H	0.776728	-0.230038	-0.659127
O84	O	0.678747	-0.386862	-0.387003
H85	H	0.729983	-0.380104	-0.380233
H86	H	0.836550	-0.542665	-0.376503
O87	O	0.826147	-0.219171	-1.072606
H88	H	0.798177	-0.191181	-1.038693
O89	O	0.993383	-0.386614	-0.535181
H90	H	0.982564	-0.436020	-0.547776
H91	H	0.982846	-0.943437	-0.230664
H92	H	0.836595	-0.661936	-0.376516
H93	H	0.836697	-0.943505	-0.376567
H94	H	0.269205	-0.229847	-0.230726
H95	H	0.836776	-0.229829	-0.944651
H96	H	0.982741	-0.661863	-0.230619
O97	O	0.678741	-0.219280	-0.219954
H98	H	0.644837	-0.191247	-0.192019
H99	H	0.982765	-0.375861	-1.063976
O100	O	0.542103	-0.386832	-0.387051
H101	H	0.490866	-0.380046	-0.380320
O102	O	0.826099	-1.071465	-0.387219
H103	H	0.798082	-1.037576	-0.415175
H104	H	0.149937	-0.229821	-0.230773
O105	O	0.993339	-0.533899	-0.219972
H106	H	1.021362	-0.567789	-0.192024
H107	H	0.982898	-1.062700	-0.230695
H108	H	0.836761	-0.229917	-0.543813
O109	O	0.277916	-0.386774	-0.387150
H110	H	0.244016	-0.414791	-0.415111
H111	H	0.982746	-0.375947	-0.663138
