data_functionalizedCrystal
_audit_creation_method	'MofGen! by Chris Wilmer'
_symmetry_space_group_name_H-M	'P1'
_symmetry_Int_Tables_number	1
_symmetry_cell_setting	triclinic
loop_
_symmetry_equiv_pos_as_xyz
  x,y,z
_cell_length_a	10.654549
_cell_length_b	11.026607
_cell_length_c	9.482900
_cell_angle_alpha	78.636152
_cell_angle_beta	80.573542
_cell_angle_gamma	83.463533
loop_
_atom_site_label
_atom_site_type_symbol
_atom_site_fract_x
_atom_site_fract_y
_atom_site_fract_z
O1	O	0.511464	-1.633390	0.120894
O2	O	0.451468	-1.279578	0.120896
O3	O	0.300493	-1.464615	0.120889
O4	O	0.662439	-1.448353	0.120900
O5	O	0.331317	-1.427031	-0.120902
O6	O	0.482292	-1.241995	-0.120895
O7	O	0.542288	-1.595806	-0.120897
Cu8	Cu	0.515104	-1.415469	-0.142974
Cu9	Cu	0.478651	-1.459916	0.142972
O10	O	0.693263	-1.410770	-0.120891
C11	C	0.455812	-1.215482	0.000000
C12	C	0.422817	-1.080490	0.000001
C13	C	0.268847	-1.444628	-0.000005
C14	C	0.128627	-1.441052	0.000000
C15	C	0.537944	-1.659903	0.000001
C16	C	0.570937	-1.794896	0.000010
C17	C	-0.114784	-1.655600	-0.000009
C18	C	-0.038867	-1.767914	-0.000012
C19	C	0.092881	-1.771279	-0.000010
C20	C	0.148714	-1.662317	-0.000009
C21	C	0.072797	-1.550002	-0.000006
C22	C	-0.058954	-1.546650	-0.000003
C23	C	0.052709	-1.328738	0.000004
C24	C	-0.079040	-1.325372	0.000012
C25	C	0.108542	-1.219775	0.000005
C26	C	0.032623	-1.107459	0.000019
C27	C	-0.099133	-1.104099	0.000019
C28	C	-0.154958	-1.213057	0.000016
C29	C	0.724908	-1.430757	0.000006
C30	C	0.865127	-1.434334	0.000011
N31	N	0.540744	-1.384216	-0.344093
C32	C	0.513920	-1.007453	0.000005
C33	C	0.479821	-0.867932	0.000006
C34	C	0.486206	-1.450689	-0.416295
C35	C	0.507550	-1.424695	-0.583711
N36	N	0.453003	-1.491178	0.344091
H37	H	-0.222062	-1.652874	0.000009
H38	H	0.390499	-1.567333	-0.593787
H39	H	0.319571	-1.039733	0.000035
O40	O	0.403417	-1.551562	-0.334008
H41	H	0.366704	-1.596295	-0.412363
O42	O	0.250643	-1.223405	0.000005
H43	H	0.293608	-1.161221	-0.098551
O44	O	-0.181017	-0.982958	0.000013
H45	H	-0.173113	-0.945872	0.098567
O46	O	0.092837	-0.989944	0.000017
H47	H	0.197204	-1.011153	0.000015
O48	O	0.623558	-1.283357	-0.426364
H49	H	0.582632	-1.192863	-0.397272
O50	O	-0.297057	-1.209435	0.000015
H51	H	-0.323565	-1.145465	-0.098533
H52	H	-0.084340	-1.856628	-0.000018
H53	H	0.570044	-1.348531	-0.645833
H54	H	0.674187	-0.835650	0.000003
O55	O	0.650682	-1.061431	-0.000006
H56	H	0.685618	-1.045978	0.098538
O57	O	0.174768	-1.892420	0.000001
H58	H	0.166859	-1.929517	-0.098543
O59	O	0.343053	-0.813962	-0.000007
H60	H	0.311104	-0.772131	0.098546
O61	O	0.290818	-1.665939	-0.000036
H62	H	0.308674	-1.634382	0.098507
