data_functionalizedCrystal
_audit_creation_method	'MofGen! by Chris Wilmer'
_symmetry_space_group_name_H-M	'P1'
_symmetry_Int_Tables_number	1
_symmetry_cell_setting	triclinic
loop_
_symmetry_equiv_pos_as_xyz
  x,y,z
_cell_length_a	19.077236
_cell_length_b	12.759400
_cell_length_c	19.077271
_cell_angle_alpha	87.677958
_cell_angle_beta	90.072744
_cell_angle_gamma	92.308201
loop_
_atom_site_label
_atom_site_type_symbol
_atom_site_fract_x
_atom_site_fract_y
_atom_site_fract_z
Zn1	Zn	1.058330	-0.328522	-0.440570
Zn2	Zn	1.062988	-0.510986	-0.323072
Zn3	Zn	0.945546	-0.342634	-0.318348
Zn4	Zn	0.940808	-0.511477	-0.435812
O5	O	1.001918	-0.423405	-0.379451
O6	O	1.157281	-0.346615	-0.428952
O7	O	1.051341	-0.494355	-0.224113
O8	O	0.960540	-0.193738	-0.334576
O9	O	1.160703	-0.480671	-0.342626
O10	O	1.043402	-0.183370	-0.424372
O11	O	0.965057	-0.370666	-0.220643
O12	O	0.846584	-0.371143	-0.329962
O13	O	0.952466	-0.481508	-0.534776
O14	O	0.843104	-0.495191	-0.416263
O15	O	1.038808	-0.347091	-0.538271
O16	O	1.046747	-0.658075	-0.338013
O17	O	0.956983	-0.658436	-0.420843
C18	C	0.819347	-0.434752	-0.372084
C19	C	0.741242	-0.439631	-0.368949
C20	C	0.702764	-0.372230	-0.412490
C21	C	0.629376	-0.376810	-0.409539
C22	C	0.594467	-0.448796	-0.363049
C23	C	0.632951	-0.516200	-0.319504
C24	C	0.706337	-0.511615	-0.322452
C25	C	0.375176	-0.469978	-0.349401
C26	C	0.301784	-0.474561	-0.346457
C27	C	0.298215	-0.335168	-0.436492
C28	C	0.371603	-0.330594	-0.439439
C29	C	0.410080	-0.397994	-0.395891
N30	N	0.519453	-0.453481	-0.360033
N31	N	0.485093	-0.393303	-0.398904
C32	C	1.001875	-0.696375	-0.379440
C33	C	1.001920	-0.813148	-0.379461
C34	C	0.955214	-0.977966	-0.422568
C35	C	0.955172	-0.868246	-0.422557
C36	C	1.048717	-0.867776	-0.336380
C37	C	1.048762	-0.977495	-0.336396
C38	C	0.926625	-0.715058	-0.504371
C39	C	0.879822	-0.660434	-0.547443
C40	C	0.810833	-0.699776	-0.555415
C41	C	0.788634	-0.793741	-0.520303
C42	C	0.835433	-0.848360	-0.477225
C43	C	0.904431	-0.809018	-0.469267
C44	C	1.077302	-1.130685	-0.254581
C45	C	1.124098	-1.185306	-0.211499
C46	C	1.193088	-1.145966	-0.203520
C47	C	1.215286	-1.051999	-0.238619
C48	C	1.168489	-0.997378	-0.281701
C49	C	1.099500	-1.036725	-0.289681
C50	C	1.185202	-0.412014	-0.386846
C51	C	1.263306	-0.407160	-0.389998
C52	C	0.994589	-0.412780	-0.562733
C53	C	0.991465	-0.408252	-0.640837
C54	C	1.001980	-0.149366	-0.379478
C55	C	1.002006	-0.032587	-0.379489
C56	C	0.969065	-0.375861	-1.080287
C57	C	0.972003	-0.380111	-1.006900
C58	C	1.018391	-0.446640	-0.972012
C59	C	1.061850	-0.508914	-1.010515
C60	C	1.058915	-0.504658	-1.083901
C61	C	1.031989	-0.466270	-0.752726
C62	C	1.034919	-0.470524	-0.679335
C63	C	0.945072	-0.341719	-0.675725
C64	C	0.942139	-0.337473	-0.749112
C65	C	0.985600	-0.399744	-0.787609
N66	N	1.021394	-0.450988	-0.896999
N67	N	0.982600	-0.395389	-0.862621
C68	C	1.009259	-0.433910	-0.196883
C69	C	1.012518	-0.438133	-0.118785
H70	H	0.817359	-0.924865	-0.448639
H71	H	0.936617	-0.329404	-0.975558
N72	N	0.587874	-0.304094	-0.456487
H73	H	0.621125	-0.257794	-0.486384
H74	H	0.556121	-0.346937	-0.487736
H75	H	0.400020	-0.271978	-0.477298
H76	H	0.406495	-0.524861	-0.313941
N77	N	0.892103	-0.265721	-0.786739
H78	H	0.865020	-0.226916	-0.751214
H79	H	0.919500	-0.213559	-0.818347
N80	N	0.595295	-0.593840	-0.269364
H81	H	0.607630	-0.667507	-0.280704
H82	H	0.610077	-0.579427	-0.219707
N83	N	0.747842	-0.584305	-0.275487
H84	H	0.714594	-0.630606	-0.245589
H85	H	0.777153	-0.629436	-0.305256
H86	H	0.266879	-0.280294	-0.471945
H87	H	0.273364	-0.533186	-0.308599
H88	H	0.917147	-1.022819	-0.457662
N89	N	1.289693	-1.009556	-0.229994
H90	H	1.289219	-0.937754	-0.209614
H91	H	1.315915	-1.058494	-0.197386
N92	N	0.898200	-0.274557	-0.634204
H93	H	0.907097	-0.287345	-0.582420
H94	H	0.908646	-0.198100	-0.647481
H95	H	1.086784	-0.822909	-0.301294
H96	H	0.732456	-0.825769	-0.526800
H97	H	0.772726	-0.655293	-0.590486
H98	H	0.897903	-0.583927	-0.576032
H99	H	0.982804	-0.683024	-0.497894
H100	H	0.931288	-0.321689	-1.108687
N101	N	1.192426	-0.896024	-0.319559
H102	H	1.243233	-0.879385	-0.307969
H103	H	1.187245	-0.903623	-0.371821
N104	N	1.243562	-1.204870	-0.157045
H105	H	1.219033	-1.270364	-0.136013
H106	H	1.284971	-1.224950	-0.185828
H107	H	1.106020	-1.261823	-0.182921
N108	N	1.002889	-1.173122	-0.263194
H109	H	0.995927	-1.240934	-0.234417
H110	H	0.969239	-1.120196	-0.246685
N111	N	0.740410	-0.294592	-0.462639
H112	H	0.769555	-0.333584	-0.496379
H113	H	0.704850	-0.252614	-0.489723
N114	N	1.084955	-0.542289	-0.641708
H115	H	1.112040	-0.581087	-0.677235
H116	H	1.118700	-0.499271	-0.612573
H117	H	1.067377	-0.516978	-0.784062
N118	N	1.111889	-0.580665	-0.972891
H119	H	1.107080	-0.574031	-0.920556
H120	H	1.100487	-0.655619	-0.985353
H121	H	1.094301	-0.555365	-1.115246
