data_functionalizedCrystal
_audit_creation_method	'MofGen! by Chris Wilmer'
_symmetry_space_group_name_H-M	'P1'
_symmetry_Int_Tables_number	1
_symmetry_cell_setting	triclinic
loop_
_symmetry_equiv_pos_as_xyz
  x,y,z
_cell_length_a	11.169417
_cell_length_b	11.169416
_cell_length_c	11.169409
_cell_angle_alpha	89.972296
_cell_angle_beta	89.978351
_cell_angle_gamma	90.010304
loop_
_atom_site_label
_atom_site_type_symbol
_atom_site_fract_x
_atom_site_fract_y
_atom_site_fract_z
Zn1	Zn	-1.834948	0.477767	0.678640
Zn2	Zn	-1.501614	0.811100	1.011973
Zn3	Zn	-1.168281	1.144434	1.345306
Zn4	Zn	-1.834831	0.678507	0.477973
Zn5	Zn	-1.501498	1.011841	0.811306
Zn6	Zn	-1.168164	1.345174	1.144640
Zn7	Zn	-1.634234	0.477831	0.477968
Zn8	Zn	-1.300900	0.811164	0.811301
Zn9	Zn	-0.967567	1.144497	1.144634
Zn10	Zn	-1.634235	0.678400	0.678611
Zn11	Zn	-1.300902	1.011734	1.011945
Zn12	Zn	-0.967568	1.345067	1.345278
O13	O	-1.734562	0.578126	0.578298
O14	O	-1.401229	0.911460	0.911631
O15	O	-1.067895	1.244793	1.244965
O16	O	-2.002882	0.504414	0.652035
O17	O	-1.669549	0.837747	0.985368
O18	O	-1.336215	1.171080	1.318702
O19	O	-1.808172	0.651959	0.310022
O20	O	-1.474839	0.985292	0.643356
O21	O	-1.141505	1.318625	0.976689
O22	O	-1.660907	0.309873	0.504597
O23	O	-1.327574	0.643206	0.837930
O24	O	-0.994240	0.976539	1.171264
O25	O	-2.002796	0.651897	0.504606
O26	O	-1.669463	0.985230	0.837939
O27	O	-1.336130	1.318563	1.171272
O28	O	-1.808371	0.309826	0.652030
O29	O	-1.475038	0.643159	0.985363
O30	O	-1.141704	0.976492	1.318697
O31	O	-1.660794	0.504522	0.310019
O32	O	-1.327461	0.837856	0.643352
O33	O	-0.994127	1.171189	0.976685
O34	O	-1.466284	0.504419	0.504570
O35	O	-1.132951	0.837752	0.837903
O36	O	-0.799618	1.171085	1.171236
O37	O	-1.660909	0.651714	0.846565
O38	O	-1.327576	0.985048	1.179898
O39	O	-0.994243	1.318381	1.513232
O40	O	-1.466285	0.651776	0.651982
O41	O	-1.132952	0.985110	0.985315
O42	O	-0.799619	1.318443	1.318648
O43	O	-1.808372	0.504310	0.846586
O44	O	-1.475039	0.837643	1.179919
O45	O	-1.141706	1.170976	1.513252
O46	O	-1.808173	0.846443	0.504578
O47	O	-1.474840	1.179776	0.837912
O48	O	-1.141507	1.513110	1.171245
O49	O	-1.660796	0.846364	0.651987
O50	O	-1.327463	1.179698	0.985320
O51	O	-0.994130	1.513031	1.318653
C52	C	-1.422737	0.578094	0.578273
C53	C	-1.089404	0.911427	0.911606
C54	C	-0.756071	1.244760	1.244939
C55	C	-1.289337	0.578109	0.578290
C56	C	-0.956004	0.911442	0.911624
C57	C	-0.622671	1.244775	1.244957
C58	C	-1.734505	0.889951	0.578306
C59	C	-1.401172	1.223284	0.911639
C60	C	-1.067838	1.556618	1.244973
C61	C	-1.734590	1.023351	0.578350
C62	C	-1.401257	1.356684	0.911683
C63	C	-1.067924	1.690018	1.245016
C64	C	-1.047604	0.578148	0.578316
C65	C	-0.714271	0.911482	0.911649
C66	C	-0.380938	1.244815	1.244983
C67	C	-1.181004	0.578128	0.578303
C68	C	-0.847671	0.911461	0.911637
C69	C	-0.514338	1.244795	1.244970
C70	C	-1.734654	0.577993	0.891341
C71	C	-1.401321	0.911326	1.224674
C72	C	-1.067987	1.244660	1.558007
C73	C	-1.734693	0.577936	1.024741
C74	C	-1.401360	0.911270	1.358074
C75	C	-1.068027	1.244603	1.691407
C76	C	-1.734643	1.265084	0.578332
C77	C	-1.401310	1.598417	0.911665
C78	C	-1.067977	1.931751	1.244999
C79	C	-1.734657	1.131684	0.578388
C80	C	-1.401323	1.465017	0.911721
C81	C	-1.067990	1.798351	1.245054
C82	C	-1.734539	0.578172	0.266473
C83	C	-1.401206	0.911506	0.599807
C84	C	-1.067873	1.244839	0.933140
C85	C	-1.734732	0.577891	0.133074
C86	C	-1.401399	0.911225	0.466407
C87	C	-1.068066	1.244558	0.799740
