data_functionalizedCrystal
_audit_creation_method	'MofGen! by Chris Wilmer'
_symmetry_space_group_name_H-M	'P1'
_symmetry_Int_Tables_number	1
_symmetry_cell_setting	triclinic
loop_
_symmetry_equiv_pos_as_xyz
  x,y,z
_cell_length_a	14.560438
_cell_length_b	19.851628
_cell_length_c	14.560438
_cell_angle_alpha	90.002389
_cell_angle_beta	60.005846
_cell_angle_gamma	59.997752
loop_
_atom_site_label
_atom_site_type_symbol
_atom_site_fract_x
_atom_site_fract_y
_atom_site_fract_z
Zr1	Zr	1.005088	0.649008	-0.120270
O2	O	1.196690	0.541449	-0.266908
O3	O	0.813498	0.681977	-0.075338
O4	O	1.005083	0.681986	-0.266912
O5	O	1.005105	0.541439	0.075807
O6	O	1.005065	0.792847	-0.266894
O7	O	1.005105	0.541441	-0.075333
O8	O	0.662354	0.792832	0.075798
O9	O	1.347816	0.541454	-0.266885
O10	O	0.892284	0.778777	-0.056137
O11	O	0.892297	0.696041	0.056643
O12	O	1.117864	0.696051	-0.168912
O13	O	1.117877	0.613314	-0.056131
Zr14	Zr	1.005059	0.825817	0.120809
Zr15	Zr	1.005059	0.825820	-0.120241
Zr16	Zr	1.005087	0.649005	0.120780
Zr17	Zr	1.246115	0.649015	-0.120235
Zr18	Zr	0.764031	0.825809	0.120774
O19	O	1.196649	0.792848	0.075877
O20	O	1.196650	0.792853	-0.266866
O21	O	1.196689	0.541444	0.075835
O22	O	0.813457	0.933376	0.267447
O23	O	0.813457	0.933381	-0.075296
O24	O	0.813497	0.681972	0.267405
O25	O	1.005042	0.933386	-0.075268
O26	O	1.005064	0.792839	0.267451
O27	O	1.005082	0.681978	0.267433
O28	O	1.005042	0.933384	0.075872
O29	O	1.347793	0.681996	-0.266862
O30	O	0.662354	0.792829	0.267401
O31	O	0.662331	0.933371	0.267425
O32	O	0.662332	0.933374	0.075822
O33	O	1.347815	0.541451	-0.075282
O34	O	1.347793	0.681993	-0.075259
O35	O	0.892283	0.778774	0.169451
O36	O	0.892270	0.861511	0.056671
O37	O	1.117850	0.778784	-0.056104
O38	O	1.117863	0.696047	0.056676
C39	C	0.703585	0.737404	0.000225
C40	C	0.601262	0.737401	0.000210
C41	C	0.636399	0.676332	-0.083021
C42	C	0.540210	0.676345	-0.082964
C43	C	0.373748	0.798499	0.083564
C44	C	0.469937	0.798488	0.083502
C45	C	0.767724	0.615244	-0.166313
C46	C	0.802867	0.554170	-0.249550
C47	C	0.706678	0.554183	-0.249494
C48	C	0.575346	0.615271	-0.166200
C49	C	1.005109	0.516248	0.000233
C50	C	1.005121	0.441187	0.000220
C51	C	1.128088	0.214736	-0.061231
C52	C	1.066606	0.192373	-0.105808
C53	C	1.005087	0.303780	0.000253
C54	C	1.066577	0.192402	0.044808
C55	C	1.005064	0.171048	0.000283
C56	C	0.943605	0.282406	-0.044386
C57	C	0.943593	0.282432	0.106289
C58	C	0.882022	0.260123	0.061739
C59	C	1.005104	0.380242	0.000233
C60	C	1.005037	0.094591	0.000302
C61	C	1.306562	0.737421	0.000314
C62	C	1.408885	0.737424	0.000329
C63	C	1.005074	0.737417	-0.301248
C64	C	1.005074	0.737418	-0.403580
C65	C	1.005038	0.958577	0.000306
C66	C	1.005026	1.033638	0.000319
C67	C	1.005070	0.798489	-0.451654
C68	C	1.005064	0.798485	-0.547803
C69	C	1.005073	0.676332	-0.547798
C70	C	1.005069	0.676340	-0.451646
C71	C	1.005075	0.859567	-0.403587
C72	C	1.005072	0.920643	-0.451662
C73	C	1.005067	0.920639	-0.547811
C74	C	1.005064	0.859559	-0.595886
C75	C	1.005073	0.737408	0.301787
C76	C	1.005073	0.737407	0.404119
C77	C	0.703549	0.958568	0.000262
C78	C	0.601215	1.033626	0.000259
C79	C	0.703584	0.737399	0.301743
C80	C	0.601261	0.737395	0.404060
C81	C	0.703549	0.958564	0.301779
C82	C	0.601214	1.033620	0.404109
C83	C	1.306598	0.516261	-0.301240
C84	C	1.408933	0.441204	-0.403570
C85	C	1.306598	0.516257	0.000277
C86	C	1.408932	0.441199	0.000280
C87	C	1.306563	0.737426	-0.301203
C88	C	1.408886	0.737430	-0.403521
C89	C	0.553164	1.025689	-0.058636
C90	C	0.457023	1.096207	-0.058661
C91	C	0.408928	1.174662	0.000217
C92	C	0.456988	1.182599	0.059114
C93	C	0.553134	1.112081	0.059132
C94	C	0.553149	1.112063	0.393294
C95	C	0.457008	1.182593	0.489434
C96	C	0.408927	1.174680	0.596388
C97	C	0.457001	1.096229	0.607201
C98	C	0.553147	1.025700	0.511062
C99	C	1.457009	0.362762	-0.392755
C100	C	1.553180	0.292231	-0.488895
C101	C	1.601266	0.300145	-0.595849
C102	C	1.553186	0.378596	-0.606662
C103	C	1.457024	0.449125	-0.510523
C104	C	1.456993	0.449136	0.059165
C105	C	1.553160	0.378618	0.059164
C106	C	1.601259	0.300162	0.000282
C107	C	1.553194	0.292226	-0.058611
C108	C	1.457035	0.362744	-0.058615
C109	C	0.553178	0.780580	0.511013
C110	C	0.457040	0.780569	0.607147
C111	C	0.457073	0.694187	0.489361
C112	C	0.553216	0.694193	0.393229
C113	C	0.601223	0.823781	0.521844
C114	C	0.553139	0.866970	0.628802
C115	C	0.457001	0.866960	0.724936
C116	C	0.408947	0.823759	0.714112
H117	H	0.735298	0.504459	-0.317276
H118	H	1.417881	0.512994	-0.519342
Cl119	Cl	0.613551	0.927089	0.524678
H120	H	1.005071	0.626612	-0.412503
H121	H	1.005073	0.626604	-0.586948
H122	H	1.417862	0.356303	-0.305676
Cl123	Cl	1.005059	0.997430	-0.391220
Cl124	Cl	1.146864	0.132455	-0.244235
H125	H	1.417838	0.513012	0.107121
H126	H	0.417905	1.089729	-0.106622
Cl127	Cl	0.425768	0.875266	0.188133
H128	H	0.417839	1.089798	0.694296
H129	H	1.005083	0.859575	-0.325300
H130	H	0.417939	0.659016	0.480558
H131	H	0.592322	0.961813	-0.106596
H132	H	1.679568	0.242709	-0.674123
H133	H	0.777934	0.278726	0.113735
Cl134	Cl	0.288055	1.263306	0.000186
H135	H	1.592278	0.385096	0.107126
Cl136	Cl	1.613670	0.193590	-0.132622
Cl137	Cl	0.288054	1.263354	0.717240
H138	H	0.592364	0.659030	0.306142
Cl139	Cl	1.722143	0.211519	0.000302
Cl140	Cl	0.208652	0.875286	0.188273
Cl141	Cl	0.613519	1.122074	0.133189
H142	H	1.005046	0.859566	-0.674170
Cl143	Cl	1.613598	0.193618	-0.475276
Cl144	Cl	0.288097	0.823740	0.834969
Cl145	Cl	1.396619	0.352750	-0.132642
Cl146	Cl	1.613647	0.388531	-0.741128
Cl147	Cl	1.288655	0.186261	-0.141617
Cl148	Cl	0.613583	1.122033	0.258849
H149	H	0.679501	0.823796	0.443573
Cl150	Cl	0.613559	0.921267	0.642407
Cl151	Cl	0.396565	0.921245	0.859393
Cl152	Cl	0.967962	0.477385	-0.354264
Cl153	Cl	0.863436	0.342130	-0.102736
Cl154	Cl	0.888653	0.615220	-0.166385
H155	H	0.891653	0.321237	0.195932
Cl156	Cl	0.454424	0.615292	-0.166142
H157	H	1.005052	0.970373	-0.586946
Cl158	Cl	1.146871	0.132497	0.102968
H159	H	0.417815	1.246486	0.107050
Cl160	Cl	0.396587	1.281207	0.475815
