data_functionalizedCrystal
_audit_creation_method	'MofGen! by Chris Wilmer'
_symmetry_space_group_name_H-M	'P1'
_symmetry_Int_Tables_number	1
_symmetry_cell_setting	triclinic
loop_
_symmetry_equiv_pos_as_xyz
  x,y,z
_cell_length_a	21.295418
_cell_length_b	14.908750
_cell_length_c	14.908308
_cell_angle_alpha	83.240757
_cell_angle_beta	93.264907
_cell_angle_gamma	93.267061
loop_
_atom_site_label
_atom_site_type_symbol
_atom_site_fract_x
_atom_site_fract_y
_atom_site_fract_z
Zn1	Zn	-0.322511	-1.354160	-0.431800
Zn2	Zn	-0.422040	-1.362778	-0.280443
Zn3	Zn	-0.311052	-1.211538	-0.289204
Zn4	Zn	-0.422000	-1.202751	-0.440502
O5	O	-0.369401	-1.282807	-0.360487
O6	O	-0.340526	-1.481964	-0.404414
O7	O	-0.402538	-1.349999	-0.154943
O8	O	-0.224486	-1.230528	-0.308144
O9	O	-0.413650	-1.488295	-0.293213
O10	O	-0.232906	-1.335312	-0.412908
O11	O	-0.320995	-1.238884	-0.161379
O12	O	-0.320957	-1.083712	-0.316582
O13	O	-0.413582	-1.215552	-0.566010
O14	O	-0.402470	-1.077256	-0.427741
O15	O	-0.340488	-1.326792	-0.559617
O16	O	-0.510120	-1.341479	-0.301651
O17	O	-0.510091	-1.223908	-0.419246
C18	C	-0.360466	-1.047642	-0.374057
C19	C	-0.356660	-0.947037	-0.379883
C20	C	-0.313298	-0.801933	-0.446075
C21	C	-0.316869	-0.896460	-0.440605
C22	C	-0.392883	-0.903079	-0.324629
C23	C	-0.389312	-0.808552	-0.330099
C24	C	-0.349517	-0.757982	-0.390823
C25	C	-0.345943	-0.663453	-0.396288
C26	C	-0.421961	-0.670073	-0.280317
C27	C	-0.425532	-0.764600	-0.274847
C28	C	-0.532947	-1.282699	-0.360461
C29	C	-0.602917	-1.282733	-0.360475
C30	C	-1.106718	-1.337474	-0.415148
C31	C	-1.040974	-1.337448	-0.415135
C32	C	-1.003767	-1.282927	-0.360537
C33	C	-1.032309	-1.228444	-0.305930
C34	C	-1.098052	-1.228478	-0.305937
N35	N	-0.897323	-1.204053	-0.358087
N36	N	-0.834870	-1.204023	-0.358085
C37	C	-0.805687	-1.282822	-0.360509
N38	N	-0.841316	-1.361653	-0.362952
N39	N	-0.903775	-1.361682	-0.362959
C40	C	-0.932479	-1.282884	-0.360522
C41	C	-0.705865	-1.337278	-0.415094
C42	C	-0.640120	-1.337254	-0.415075
C43	C	-0.631456	-1.228242	-0.305874
C44	C	-0.697200	-1.228274	-0.305888
C45	C	-0.734401	-1.282791	-0.360503
C46	C	-0.205218	-1.282939	-0.360533
C47	C	-0.135253	-1.282995	-0.360552
C48	C	-0.378309	-1.269230	-0.596574
C49	C	-0.382105	-1.263445	-0.697180
C50	C	-0.378364	-0.518889	-0.346859
C51	C	-0.382167	-0.619495	-0.341034
C52	C	-0.313111	-1.368405	-0.879573
C53	C	-0.316675	-1.362972	-0.974101
C54	C	-0.392795	-1.247142	-0.980766
C55	C	-0.389231	-1.252575	-0.886238
C56	C	-0.349388	-1.313209	-0.835645
C57	C	-0.345827	-1.318646	-0.741115
C58	C	-0.421943	-1.202812	-0.747781
C59	C	-0.425508	-1.197379	-0.842309
C60	C	-0.360484	-1.296382	-0.125316
C61	C	-0.356517	-1.302343	-0.024701
H62	H	-0.287375	-0.932242	-0.485597
H63	H	-0.313538	-0.622280	-0.445729
O64	O	-0.457217	-1.149319	-0.705006
C65	C	-0.497782	-1.203963	-0.647364
H66	H	-0.477651	-1.273385	-0.629243
H67	H	-0.546179	-1.211781	-0.683215
C68	C	-0.528634	-1.074046	-0.582703
C69	C	-0.503906	-1.159310	-0.560440
H70	H	-0.532415	-1.046502	-0.529086
H71	H	-0.501307	-1.037231	-0.621539
H72	H	-0.568963	-1.080573	-0.612580
H73	H	-0.463575	-1.152781	-0.530574
H74	H	-0.531227	-1.196124	-0.521596
H75	H	-1.137003	-1.381873	-0.459612
O76	O	-0.281458	-1.416495	-1.016919
C77	C	-0.293158	-1.398717	-1.111200
H78	H	-0.311612	-1.328110	-1.128139
H79	H	-0.329726	-1.450841	-1.134919
C80	C	-0.208946	-1.490983	-1.138463
C81	C	-0.231607	-1.404259	-1.159268
H82	H	-0.170980	-1.494406	-1.168114
H83	H	-0.201065	-1.502964	-1.074943
H84	H	-0.239425	-1.534410	-1.158229
H85	H	-0.201131	-1.360835	-1.139491
H86	H	-0.239481	-1.392271	-1.222785
H87	H	-0.313385	-1.368020	-0.699923
H88	H	-0.457933	-0.805787	-0.225409
H89	H	-0.280889	-0.760758	-0.495510
O90	O	-0.595228	-1.175303	-0.252920
C91	C	-0.531082	-1.186974	-0.264599
H92	H	-0.525827	-1.212535	-0.332768
H93	H	-0.512216	-1.238296	-0.208165
C94	C	-0.500048	-1.064471	-0.177778
C95	C	-0.493593	-1.095858	-0.261509
H96	H	-0.476922	-1.008268	-0.175868
H97	H	-0.543264	-1.056610	-0.169907
H98	H	-0.484327	-1.107247	-0.130759
H99	H	-0.509321	-1.053087	-0.308525
H100	H	-0.450379	-1.103710	-0.269388
O101	O	-0.457220	-0.627333	-0.226774
C102	C	-0.497797	-0.569670	-0.281364
H103	H	-0.505527	-0.594063	-0.350996
H104	H	-0.475751	-0.497855	-0.288672
C105	C	-0.551964	-0.540781	-0.151541
C106	C	-0.561463	-0.570746	-0.237061
H107	H	-0.591235	-0.541441	-0.124212
H108	H	-0.524625	-0.579627	-0.114761
H109	H	-0.533590	-0.480938	-0.157642
H110	H	-0.579828	-0.630592	-0.230958
H111	H	-0.588806	-0.531910	-0.273839
H112	H	-0.457946	-1.148010	-0.883515
H113	H	-0.425284	-0.944269	-0.275193
O114	O	-0.724821	-1.175261	-0.252837
C115	C	-0.677886	-1.127149	-0.204625
H116	H	-0.632294	-1.121828	-0.241873
H117	H	-0.669558	-1.164300	-0.133993
C118	C	-0.755452	-1.038132	-0.151312
C119	C	-0.699456	-1.031589	-0.197064
H120	H	-0.768757	-0.979187	-0.146643
H121	H	-0.787073	-1.070547	-0.183790
H122	H	-0.748504	-1.069095	-0.092456
H123	H	-0.706406	-1.000637	-0.255921
H124	H	-0.667836	-0.999166	-0.164595
O125	O	-1.013274	-1.390258	-0.468314
C126	C	-1.031992	-1.365221	-0.559652
H127	H	-1.047541	-1.292663	-0.568319
H128	H	-1.072848	-1.412387	-0.580571
C129	C	-0.957148	-1.461288	-0.608814
C130	C	-0.976240	-1.372168	-0.619461
H131	H	-0.922759	-1.465577	-0.645708
H132	H	-0.944538	-1.478160	-0.547278
H133	H	-0.991200	-1.500583	-0.626245
H134	H	-0.942191	-1.332877	-0.602019
H135	H	-0.988843	-1.355290	-0.680995
O136	O	-0.996141	-1.175376	-0.253030
C137	C	-0.957850	-1.113906	-0.307885
H138	H	-0.980127	-1.104165	-0.379495
H139	H	-0.909188	-1.141681	-0.309410
C140	C	-0.924304	-1.034362	-0.181057
C141	C	-0.951668	-1.022392	-0.269008
H142	H	-0.920488	-0.977913	-0.157075
H143	H	-0.950099	-1.075777	-0.144099
H144	H	-0.883755	-1.057511	-0.182340
H145	H	-0.992219	-0.999255	-0.267723
H146	H	-0.925879	-0.980970	-0.305965
H147	H	-1.121284	-1.184113	-0.261477
H148	H	-0.736156	-1.381662	-0.459571
H149	H	-0.280672	-1.417781	-0.838379
H150	H	-0.616887	-1.381623	-0.459530
H151	H	-0.425233	-1.197775	-1.021975
