data_functionalizedCrystal
_audit_creation_method	'MofGen! by Chris Wilmer'
_symmetry_space_group_name_H-M	'P1'
_symmetry_Int_Tables_number	1
_symmetry_cell_setting	triclinic
loop_
_symmetry_equiv_pos_as_xyz
  x,y,z
_cell_length_a	17.699083
_cell_length_b	17.000383
_cell_length_c	16.176319
_cell_angle_alpha	89.997209
_cell_angle_beta	90.000480
_cell_angle_gamma	79.441659
loop_
_atom_site_label
_atom_site_type_symbol
_atom_site_fract_x
_atom_site_fract_y
_atom_site_fract_z
O1	O	-0.997555	-0.100664	0.068621
O2	O	-0.497555	0.399336	0.568621
O3	O	-0.776328	-0.113761	0.068650
O4	O	-0.276328	0.386239	0.568650
O5	O	-0.900677	0.008681	0.068631
O6	O	-0.400677	0.508681	0.568631
O7	O	-0.873206	-0.223105	0.068641
O8	O	-0.373206	0.276895	0.568641
O9	O	-0.900663	0.008681	-0.068862
O10	O	-0.400663	0.508681	0.431138
O11	O	-0.776315	-0.113760	-0.068843
O12	O	-0.276315	0.386240	0.431157
O13	O	-0.997542	-0.100663	-0.068872
O14	O	-0.497542	0.399337	0.431128
Cu15	Cu	-0.886927	-0.107212	-0.081412
Cu16	Cu	-0.386927	0.392788	0.418588
Cu17	Cu	-0.886943	-0.107212	0.081190
Cu18	Cu	-0.386943	0.392788	0.581190
O19	O	-0.873193	-0.223104	-0.068853
O20	O	-0.373193	0.276896	0.431147
C21	C	-0.748155	-0.113291	-0.000093
C22	C	-0.248155	0.386709	0.499907
C23	C	-0.664228	-0.111883	-0.000082
C24	C	-0.164228	0.388117	0.499918
C25	C	-0.902146	0.038337	-0.000115
C26	C	-0.402146	0.538337	0.499885
C27	C	-0.906533	0.126704	-0.000113
C28	C	-0.406533	0.626704	0.499887
C29	C	-0.610950	-0.183754	-0.000079
C30	C	-0.110950	0.316246	0.499921
C31	C	-0.532093	-0.182426	-0.000089
C32	C	-0.032093	0.317574	0.499911
C33	C	-0.506515	-0.109227	-0.000096
C34	C	-0.006515	0.390773	0.499904
C35	C	-0.559799	-0.037351	-0.000102
C36	C	-0.059799	0.462649	0.499898
C37	C	-0.638655	-0.038680	-0.000098
C38	C	-0.138655	0.461320	0.499902
C39	C	-0.241783	-0.031992	-0.000120
C40	C	0.258217	0.468008	0.499880
C41	C	-0.162921	-0.030669	-0.000122
C42	C	0.337079	0.469331	0.499878
C43	C	-0.135221	-0.175739	-0.000111
C44	C	0.364779	0.324261	0.499889
C45	C	-0.214077	-0.177067	-0.000107
C46	C	0.285923	0.322933	0.499893
C47	C	-0.267354	-0.105192	-0.000117
C48	C	0.232646	0.394808	0.499883
C49	C	-0.352860	-0.106632	-0.000108
C50	C	0.147140	0.393368	0.499892
C51	C	-0.421011	-0.107786	-0.000100
C52	C	0.078989	0.392214	0.499900
C53	C	-0.025715	-0.101133	-0.000125
C54	C	0.474285	0.398867	0.499875
C55	C	-0.109642	-0.102541	-0.000124
C56	C	0.390358	0.397459	0.499876
C57	C	-0.871724	-0.252761	-0.000105
C58	C	-0.371724	0.247239	0.499895
C59	C	-0.867337	-0.341128	-0.000102
C60	C	-0.367337	0.158872	0.499898
C61	C	-0.934861	0.626976	-0.000113
C62	C	-0.434861	1.126976	0.499887
C63	C	-0.930733	0.543945	-0.000118
C64	C	-0.430733	1.043945	0.499882
C65	C	-0.859080	0.492812	-0.000105
C66	C	-0.359080	0.992812	0.499895
C67	C	-0.791551	0.524713	-0.000095
C68	C	-0.291551	1.024713	0.499905
C69	C	-0.795680	0.607742	-0.000097
C70	C	-0.295680	1.107742	0.499903
C71	C	-0.843133	0.241635	-0.000105
C72	C	-0.343133	0.741635	0.499895
C73	C	-0.839009	0.158600	-0.000101
C74	C	-0.339009	0.658600	0.499899
C75	C	-0.978191	0.177838	-0.000125
C76	C	-0.478191	0.677838	0.499875
C77	C	-0.982313	0.260868	-0.000122
C78	C	-0.482313	0.760868	0.499878
C79	C	-0.914785	0.292762	-0.000117
C80	C	-0.414785	0.792762	0.499883
C81	C	-0.854859	0.407940	-0.000107
C82	C	-0.354859	0.907940	0.499893
C83	C	-0.919007	0.377632	-0.000121
C84	C	-0.419007	0.877632	0.499879
N85	N	-0.886921	-0.107211	-0.195777
N86	N	-0.386921	0.392789	0.304223
C87	C	-0.929611	-0.155433	-0.239042
C88	C	-0.429611	0.344567	0.260958
C89	C	-0.929620	-0.155430	-0.325589
C90	C	-0.429620	0.344570	0.174411
C91	C	-0.886933	-0.107209	-0.368870
C92	C	-0.386933	0.392791	0.131130
C93	C	-0.844241	-0.058981	-0.325599
C94	C	-0.344241	0.441019	0.174401
C95	C	-0.844238	-0.058981	-0.239053
C96	C	-0.344238	0.441019	0.260947
C97	C	-0.844255	-0.058982	-0.674627
C98	C	-0.344255	0.441018	-0.174627
C99	C	-0.844260	-0.058988	-0.761179
C100	C	-0.344260	0.441012	-0.261179
C101	C	-0.929637	-0.155431	-0.761163
C102	C	-0.429637	0.344569	-0.261163
C103	C	-0.929634	-0.155431	-0.674617
C104	C	-0.429634	0.344569	-0.174617
C105	C	-0.886945	-0.107201	-0.631354
C106	C	-0.386945	0.392799	-0.131354
C107	C	-0.886938	-0.107203	-0.537510
C108	C	-0.386938	0.392797	-0.037510
C109	C	-0.886935	-0.107210	-0.462712
C110	C	-0.386935	0.392790	0.037288
N111	N	-0.886955	-0.107207	0.195555
N112	N	-0.386955	0.392793	0.695555
H113	H	-0.631769	-0.243361	-0.000072
H114	H	-0.131769	0.256639	0.499928
O115	O	-0.474626	-0.259942	-0.000086
O116	O	0.025374	0.240058	0.499914
H117	H	-0.505660	-0.311065	-0.000070
H118	H	-0.005660	0.188935	0.499930
O119	O	-0.798242	-0.006952	-0.807866
O120	O	-0.298242	0.493048	-0.307866
H121	H	-0.768570	0.026599	-0.763243
H122	H	-0.268570	0.526599	-0.263243
H123	H	-0.234897	-0.236673	-0.000097
H124	H	0.265103	0.263327	0.499903
H125	H	-0.809496	-0.019710	-0.639412
H126	H	-0.309496	0.480290	-0.139412
O127	O	-0.975666	-0.207441	-0.372252
O128	O	-0.475666	0.292559	0.127748
H129	H	-0.936533	-0.250266	-0.411688
H130	H	-0.436533	0.249734	0.088312
O131	O	-0.077759	-0.253267	-0.000118
O132	O	0.422241	0.246733	0.499882
H133	H	-0.018627	-0.240051	-0.000135
H134	H	0.481373	0.259949	0.499865
H135	H	-0.285153	0.026533	-0.000129
H136	H	0.214847	0.526533	0.499871
O137	O	-0.975672	-0.207441	-0.627933
O138	O	-0.475672	0.292559	-0.127933
H139	H	-1.005365	-0.240969	-0.672559
H140	H	-0.505365	0.259031	-0.172559
H141	H	-0.142100	0.028941	-0.000129
H142	H	0.357900	0.528941	0.499871
H143	H	-0.740695	0.633710	-0.000094
H144	H	-0.240695	1.133710	0.499906
H145	H	-0.538968	0.022249	-0.000120
H146	H	-0.038968	0.522249	0.499880
H147	H	-0.993208	0.668604	-0.000117
H148	H	-0.493208	1.168604	0.499883
O149	O	-0.777578	0.352786	-0.000092
O150	O	-0.277578	0.852786	0.499908
H151	H	-0.745006	0.364107	0.055952
H152	H	-0.245006	0.864107	0.555952
O153	O	-0.975698	-0.207439	-0.807823
O154	O	-0.475698	0.292561	-0.307823
H155	H	-0.968542	-0.199332	-0.875275
H156	H	-0.468542	0.300668	-0.375275
O157	O	-0.798196	-0.006971	-0.372274
O158	O	-0.298196	0.493029	0.127726
H159	H	-0.805362	-0.015079	-0.439724
H160	H	-0.305362	0.484921	0.060276
H161	H	-0.682034	0.019845	-0.000100
H162	H	-0.182034	0.519845	0.499900
O163	O	-1.059599	0.316014	-0.000132
O164	O	-0.559599	0.816014	0.499868
H165	H	-1.051125	0.379108	-0.000121
H166	H	-0.551125	0.879108	0.499879
H167	H	-0.809474	-0.019714	-0.203828
H168	H	-0.309474	0.480286	0.296172
H169	H	-0.985718	0.517980	-0.000128
H170	H	-0.485718	1.017980	0.499872
O171	O	-1.051024	0.143440	-0.000140
O172	O	-0.551024	0.643440	0.499860
H173	H	-1.036119	0.077115	-0.000143
H174	H	-0.536119	0.577115	0.499857
O175	O	-0.761723	0.103444	-0.000095
O176	O	-0.261723	0.603444	0.499905
H177	H	-0.715459	0.139570	-0.000100
H178	H	-0.215459	0.639570	0.499900
H179	H	-0.733210	0.483073	-0.000089
H180	H	-0.233210	0.983073	0.499911
O181	O	-0.770302	0.276032	-0.000097
O182	O	-0.270302	0.776032	0.499903
H183	H	-0.719786	0.226524	-0.000080
H184	H	-0.219786	0.726524	0.499920
H185	H	-0.977346	0.419268	-0.000135
H186	H	-0.477346	0.919268	0.499865
H187	H	-0.964367	-0.194705	-0.203809
H188	H	-0.464367	0.305295	0.296191
