data_functionalizedCrystal
_audit_creation_method	'MofGen! by Chris Wilmer'
_symmetry_space_group_name_H-M	'P1'
_symmetry_Int_Tables_number	1
_symmetry_cell_setting	triclinic
loop_
_symmetry_equiv_pos_as_xyz
  x,y,z
_cell_length_a	12.594517
_cell_length_b	12.594516
_cell_length_c	12.594509
_cell_angle_alpha	89.973672
_cell_angle_beta	89.978379
_cell_angle_gamma	90.011616
loop_
_atom_site_label
_atom_site_type_symbol
_atom_site_fract_x
_atom_site_fract_y
_atom_site_fract_z
Zn1	Zn	1.627301	-0.423732	-0.601863
Zn2	Zn	1.627204	-0.601737	-0.423885
Zn3	Zn	1.449304	-0.423773	-0.423892
Zn4	Zn	1.449301	-0.601668	-0.601815
O5	O	1.538278	-0.512728	-0.512864
O6	O	1.776234	-0.447357	-0.578271
O7	O	1.603567	-0.578176	-0.274940
O8	O	1.472958	-0.274821	-0.447522
O9	O	1.776163	-0.578136	-0.447512
O10	O	1.603732	-0.274792	-0.578277
O11	O	1.472864	-0.447426	-0.274945
O12	O	1.300358	-0.447359	-0.447476
O13	O	1.472952	-0.578019	-0.750767
O14	O	1.300355	-0.578058	-0.578196
O15	O	1.603728	-0.447290	-0.750802
O16	O	1.603563	-0.750674	-0.447466
O17	O	1.472858	-0.750623	-0.578190
C18	C	1.261737	-0.512706	-0.512832
C19	C	1.143431	-0.512723	-0.512844
C20	C	1.538228	-0.789269	-0.512845
C21	C	1.538305	-0.907574	-0.512873
C22	C	1.074149	-0.441538	-0.441881
C23	C	1.003345	-0.538626	-0.415702
C24	C	1.003436	-0.415682	-0.539042
C25	C	1.074186	-0.609862	-0.486614
C26	C	1.074283	-0.486852	-0.609999
C27	C	1.003511	-0.584007	-0.583857
C28	C	1.609478	-0.976816	-0.441848
C29	C	1.635489	-1.047515	-0.538997
C30	C	1.512427	-1.047674	-0.415785
C31	C	1.564365	-0.976715	-0.610073
C32	C	1.441258	-0.976867	-0.486796
C33	C	1.467232	-1.047534	-0.584012
C34	C	1.815899	-0.512750	-0.512896
C35	C	1.934204	-0.512759	-0.512909
C36	C	1.538350	-0.512642	-0.790485
C37	C	1.538381	-0.512605	-0.908790
C38	C	1.538356	-0.235107	-0.512906
C39	C	1.538390	-0.116801	-0.512923
C40	C	1.467297	-0.583620	-1.048788
C41	C	1.441267	-0.486555	-0.977986
C42	C	1.564364	-0.609660	-0.978021
C43	C	1.512362	-0.415355	-1.048774
C44	C	1.635504	-0.538527	-1.048815
C45	C	1.609511	-0.441395	-0.978045
C46	C	1.538267	-0.512736	-0.236323
C47	C	1.538442	-0.512473	-0.118018
H48	H	1.105165	-0.381399	-0.381796
H49	H	1.586315	-0.691796	-0.946943
Cl50	Cl	1.478578	-1.095796	-0.288990
H51	H	0.972187	-0.560531	-0.333568
H52	H	1.359157	-0.464568	-0.946874
Cl53	Cl	1.702414	-0.928869	-0.349196
Cl54	Cl	0.955447	-0.288959	-0.573208
H55	H	1.669650	-0.381215	-0.947180
Cl56	Cl	1.762258	-1.095408	-0.573114
H57	H	1.586207	-0.945679	-0.692271
H58	H	1.490318	-0.333197	-1.079723
H59	H	1.105466	-0.464918	-0.692108
Cl60	Cl	1.374362	-1.095180	-0.676882
Cl61	Cl	1.314523	-0.928919	-0.452658
Cl62	Cl	1.374381	-0.676308	-1.096754
H63	H	1.717589	-0.560542	-1.079950
H64	H	0.972690	-0.644290	-0.643895
Cl65	Cl	1.121959	-0.736626	-0.452297
