data_functionalizedCrystal
_audit_creation_method	'MofGen! by Chris Wilmer'
_symmetry_space_group_name_H-M	'P1'
_symmetry_Int_Tables_number	1
_symmetry_cell_setting	triclinic
loop_
_symmetry_equiv_pos_as_xyz
  x,y,z
_cell_length_a	12.837942
_cell_length_b	12.837943
_cell_length_c	11.295483
_cell_angle_alpha	94.538773
_cell_angle_beta	94.530417
_cell_angle_gamma	85.171060
loop_
_atom_site_label
_atom_site_type_symbol
_atom_site_fract_x
_atom_site_fract_y
_atom_site_fract_z
O1	O	0.265788	-1.408689	-0.099003
O2	O	0.252345	-1.105556	-0.099010
O3	O	0.107500	-1.250401	-0.098999
O4	O	0.410633	-1.263845	-0.099013
O5	O	0.120201	-1.237676	0.099051
O6	O	0.265045	-1.092832	0.099040
O7	O	0.278489	-1.395965	0.099047
Cu8	Cu	0.272927	-1.243237	0.117127
Cu9	Cu	0.257907	-1.258285	-0.117090
O10	O	0.423333	-1.251121	0.099037
C11	C	0.254153	-1.060125	0.000014
C12	C	0.240609	-0.943710	0.000012
C13	C	0.074781	-1.239497	0.000025
C14	C	-0.041634	-1.225953	0.000023
C15	C	0.276680	-1.441396	0.000021
C16	C	0.290224	-1.557812	0.000015
C17	C	-0.266509	-1.388784	0.000002
C18	C	-0.375892	-1.376062	-0.000000
C19	C	-0.369784	-1.187791	0.000008
C20	C	-0.260402	-1.200512	0.000010
C21	C	-0.208768	-1.301011	0.000009
C22	C	-0.099383	-1.313731	0.000020
C23	C	-0.093278	-1.125461	0.000019
C24	C	-0.202660	-1.112740	0.000017
C25	C	0.456052	-1.262024	0.000010
C26	C	0.572467	-1.275569	0.000004
N27	N	0.283491	-1.232661	0.281863
C28	C	0.403439	-0.718835	0.000021
C29	C	0.390717	-0.609453	0.000020
C30	C	0.202446	-0.615561	0.000016
C31	C	0.215167	-0.724943	0.000017
C32	C	0.315667	-0.776576	0.000018
C33	C	0.328387	-0.885961	0.000011
C34	C	0.140117	-0.892066	0.000016
C35	C	0.127396	-0.782684	0.000015
N36	N	0.247335	-1.268868	-0.281825
C37	C	0.171231	-1.344996	0.531161
C38	C	0.179223	-1.337012	0.655824
C39	C	0.307459	-1.208702	0.655854
C40	C	0.299467	-1.216687	0.531191
C41	C	0.231353	-1.284837	0.468849
C42	C	0.223367	-1.292826	0.344183
C43	C	0.351597	-1.164512	0.344216
C44	C	0.359589	-1.156528	0.468879
H45	H	-0.224468	-1.470613	0.000013
C46	C	0.381250	-1.134529	0.723498
C47	C	0.352089	-1.031923	0.693219
C48	C	0.420027	-0.963561	0.755524
H49	H	0.450979	-1.153955	0.703134
H50	H	0.377374	-1.138320	0.806677
H51	H	0.355976	-1.028136	0.610059
H52	H	0.282372	-1.012465	0.713586
H53	H	0.416151	-0.967352	0.838702
H54	H	0.489752	-0.982997	0.735155
H55	H	0.400245	-0.893934	0.734997
H56	H	-0.046252	-1.053990	0.000034
H57	H	0.400555	-1.115530	0.293468
H58	H	-0.057344	-1.395563	0.000023
H59	H	0.410219	-0.928000	0.000014
H60	H	-0.422901	-1.447536	-0.000010
H61	H	0.045572	-0.740628	0.000028
C62	C	0.093328	-0.559535	0.000264
C63	C	0.046170	-0.581422	0.102168
C64	C	-0.054345	-0.529820	0.102444
H65	H	0.052185	-0.583102	-0.068722
H66	H	0.098282	-0.486108	0.000332
H67	H	0.041211	-0.654833	0.102090
H68	H	0.087283	-0.557852	0.171170
H69	H	-0.049391	-0.456393	0.102512
H70	H	-0.095479	-0.553391	0.033455
H71	H	-0.086351	-0.544655	0.171590
C72	C	0.044758	-0.954718	-0.000232
C73	C	-0.021641	-0.936512	-0.102141
C74	C	-0.109487	-0.994218	-0.102423
H75	H	0.008295	-0.933665	0.068751
H76	H	0.066676	-1.027274	-0.000298
H77	H	-0.043559	-0.863971	-0.102063
H78	H	0.014789	-0.957569	-0.171139
H79	H	-0.087569	-1.066774	-0.102489
H80	H	-0.145940	-0.973161	-0.033436
H81	H	-0.154545	-0.981881	-0.171572
C82	C	0.433395	-1.082363	0.536512
C83	C	0.404246	-0.979754	0.506233
C84	C	0.472205	-0.911404	0.568523
H85	H	0.503117	-1.101802	0.516134
H86	H	0.429530	-1.086151	0.619692
H87	H	0.408122	-0.975970	0.423071
H88	H	0.334535	-0.960283	0.526614
H89	H	0.468339	-0.915191	0.651703
H90	H	0.541923	-0.930852	0.548140
H91	H	0.452431	-0.841775	0.547996
C92	C	-0.425821	-1.078679	-0.000251
C93	C	-0.403920	-1.031538	-0.102158
C94	C	-0.455537	-0.931031	-0.102449
H95	H	-0.402275	-1.037516	0.068732
H96	H	-0.499247	-1.083644	-0.000325
H97	H	-0.330510	-1.026568	-0.102073
H98	H	-0.427469	-1.072670	-0.171158
H99	H	-0.528963	-0.935996	-0.102523
H100	H	-0.431986	-0.889878	-0.033461
H101	H	-0.440692	-0.899037	-0.171597
H102	H	-0.244716	-1.030916	0.000013
H103	H	0.485269	-0.760876	0.000020
H104	H	0.462191	-0.562444	0.000025
C105	C	0.149216	-1.366667	0.276588
C106	C	0.046618	-1.337534	0.306935
C107	C	-0.021735	-1.405519	0.244696
H108	H	0.168680	-1.436382	0.296962
H109	H	0.152969	-1.362814	0.193400
H110	H	0.042868	-1.341397	0.390104
H111	H	0.027121	-1.267830	0.286558
H112	H	-0.017981	-1.401667	0.161508
H113	H	-0.002261	-1.475231	0.265074
H114	H	-0.091356	-1.385757	0.265269
C115	C	0.113898	-1.402453	0.723263
C116	C	0.052556	-1.463858	0.641978
C117	C	-0.007629	-1.524166	0.704058
H118	H	0.069613	-1.357486	0.771907
H119	H	0.158975	-1.446695	0.771858
H120	H	0.007483	-1.419621	0.593403
H121	H	0.096814	-1.508846	0.593331
H122	H	0.037448	-1.568408	0.752654
H123	H	-0.051908	-1.479191	0.752700
H124	H	-0.049250	-1.565844	0.648916
H125	H	0.115777	-1.400494	0.480401
