data_functionalizedCrystal
_audit_creation_method	'MofGen! by Chris Wilmer'
_symmetry_space_group_name_H-M	'P1'
_symmetry_Int_Tables_number	1
_symmetry_cell_setting	triclinic
loop_
_symmetry_equiv_pos_as_xyz
  x,y,z
_cell_length_a	15.995292
_cell_length_b	19.188930
_cell_length_c	14.472311
_cell_angle_alpha	90.014772
_cell_angle_beta	90.005304
_cell_angle_gamma	83.306699
loop_
_atom_site_label
_atom_site_type_symbol
_atom_site_fract_x
_atom_site_fract_y
_atom_site_fract_z
O1	O	1.110686	0.089808	0.076877
O2	O	1.610686	0.589808	0.576877
O3	O	0.866863	0.100964	0.076874
O4	O	1.366863	0.600964	0.576874
O5	O	0.995811	-0.006253	0.076857
O6	O	1.495811	0.493747	0.576857
O7	O	0.981738	0.197025	0.076893
O8	O	1.481738	0.697025	0.576893
O9	O	0.995802	-0.006267	-0.076825
O10	O	1.495802	0.493733	0.423175
O11	O	0.866854	0.100950	-0.076808
O12	O	1.366854	0.600950	0.423192
O13	O	1.110677	0.089794	-0.076805
O14	O	1.610677	0.589794	0.423195
Cu15	Cu	0.988765	0.095371	-0.090839
Cu16	Cu	1.488765	0.595371	0.409161
Cu17	Cu	0.988775	0.095387	0.090908
Cu18	Cu	1.488775	0.595387	0.590908
O19	O	0.981729	0.197011	-0.076789
O20	O	1.481729	0.697011	0.423211
C21	C	0.835665	0.100503	0.000033
C22	C	1.335665	0.600503	0.500033
C23	C	0.742717	0.099142	0.000031
C24	C	1.242717	0.599142	0.500031
C25	C	0.404997	0.094138	0.000041
C26	C	0.904997	0.594138	0.500041
C27	C	0.428026	0.171524	0.000397
C28	C	0.928026	0.671524	0.500397
C29	C	0.524696	0.172995	0.000047
C30	C	1.024696	0.672995	0.500047
C31	C	0.572543	0.096621	0.000036
C32	C	1.072543	0.596621	0.500036
C33	C	0.543578	0.057923	-0.087727
C34	C	1.043578	0.557923	0.412273
C35	C	0.446791	0.056992	-0.087797
C36	C	0.946791	0.556992	0.412203
C37	C	0.446952	0.055427	0.086968
C38	C	0.946952	0.555427	0.586968
C39	C	0.543434	0.058295	0.088124
C40	C	1.043434	0.558295	0.588124
C41	C	0.667234	0.098020	0.000031
C42	C	1.167234	0.598020	0.500031
C43	C	0.310306	0.092736	0.000040
C44	C	0.810306	0.592736	0.500040
C45	C	0.995351	-0.032272	0.000014
C46	C	1.495351	0.467728	0.500014
C47	C	0.993983	-0.109780	0.000006
C48	C	1.493983	0.390220	0.500006
C49	C	1.069645	-0.154524	0.000002
C50	C	1.569645	0.345476	0.500002
C51	C	1.068360	-0.227351	0.000017
C52	C	1.568360	0.272649	0.500017
C53	C	0.991408	-0.255430	0.000017
C54	C	1.491408	0.244570	0.500017
C55	C	0.915736	-0.210676	0.000026
C56	C	1.415736	0.289324	0.500026
C57	C	0.917023	-0.137851	0.000020
C58	C	1.417023	0.362149	0.500020
N59	N	0.932584	-0.363579	-0.052285
N60	N	1.432584	0.136421	0.447715
N61	N	0.931367	-0.432761	-0.052281
N62	N	1.431367	0.067239	0.447719
C63	C	0.987524	-0.474848	0.000035
C64	C	1.487524	0.025152	0.500035
N65	N	1.044959	-0.445142	0.052337
N66	N	1.544959	0.054858	0.552337
N67	N	1.046179	-0.375954	0.052330
N68	N	1.546179	0.124046	0.552330
C69	C	0.990003	-0.334396	0.000023
C70	C	1.490003	0.165604	0.500023
C71	C	1.061798	-0.598560	0.000049
C72	C	1.561798	-0.098560	0.500049
C73	C	1.060510	-0.671388	0.000070
C74	C	1.560510	-0.171388	0.500070
C75	C	0.907884	-0.654711	0.000069
C76	C	1.407884	-0.154711	0.500069
C77	C	0.909174	-0.581885	0.000058
C78	C	1.409174	-0.081885	0.500058
C79	C	0.986134	-0.553814	0.000044
C80	C	1.486134	-0.053814	0.500044
C81	C	1.141875	0.090255	0.000038
C82	C	1.641875	0.590255	0.500038
C83	C	1.234823	0.091616	0.000046
C84	C	1.734823	0.591616	0.500046
C85	C	0.982190	0.223030	0.000057
C86	C	1.482190	0.723030	0.500057
C87	C	0.983558	0.300538	0.000071
C88	C	1.483558	0.800538	0.500071
N89	N	0.988764	0.095359	-0.218670
N90	N	1.488764	0.595359	0.281330
C91	C	0.988776	0.095382	-0.592761
C92	C	1.488776	0.595382	-0.092761
C93	C	1.057996	0.038204	-0.553575
C94	C	1.557996	0.538204	-0.053575
C95	C	1.057817	0.037993	-0.446488
C96	C	1.557817	0.537993	0.053512
C97	C	0.988771	0.095371	-0.407170
C98	C	1.488771	0.595371	0.092830
C99	C	0.901469	0.079475	-0.446065
C100	C	1.401469	0.579475	0.053935
C101	C	0.901879	0.079071	-0.553187
C102	C	1.401879	0.579071	-0.053187
C103	C	1.006070	0.168624	-0.553253
C104	C	1.506070	0.668624	-0.053253
C105	C	1.008055	0.168133	-0.446124
C106	C	1.508055	0.668133	0.053876
C107	C	0.988762	0.095366	-0.302282
C108	C	1.488762	0.595366	0.197718
C109	C	0.988779	0.095385	-0.697649
C110	C	1.488779	0.595385	-0.197649
N111	N	0.988783	0.095393	0.218739
N112	N	1.488783	0.595393	0.718739
H113	H	0.543615	0.203296	0.062962
H114	H	1.043615	0.703296	0.562962
Br115	Br	0.811300	-0.248781	0.000037
Br116	Br	1.311300	0.251219	0.500037
Br117	Br	0.806484	-0.521156	0.000062
Br118	Br	1.306484	-0.021156	0.500062
Br119	Br	0.803447	-0.692811	0.000078
Br120	Br	1.303447	-0.192811	0.500078
H121	H	1.122720	0.047456	-0.420189
H122	H	1.622720	0.547456	0.079811
H123	H	0.433167	-0.001534	0.087553
H124	H	0.933167	0.498466	0.587553
Br125	Br	0.576838	0.102692	-0.196578
Br126	Br	1.076838	0.602692	0.303422
Br127	Br	0.814330	-0.077122	0.000028
Br128	Br	1.314330	0.422878	0.500028
H129	H	1.047137	-0.015842	-0.580516
H130	H	1.547137	0.484158	-0.080516
H131	H	0.419872	0.083781	-0.153394
H132	H	0.919872	0.583781	0.346606
H133	H	1.129975	-0.263789	0.000018
H134	H	1.629975	0.236211	0.500018
H135	H	0.561904	0.086470	0.153051
H136	H	1.061904	0.586470	0.653051
H137	H	1.124463	-0.575704	0.000042
H138	H	1.624463	-0.075704	0.500042
H139	H	0.418540	0.079621	0.153487
H140	H	0.918540	0.579621	0.653487
H141	H	1.132311	-0.131674	-0.000006
H142	H	1.632311	0.368326	0.499994
H143	H	0.398895	0.201181	-0.062178
H144	H	0.898895	0.701181	0.437822
Br145	Br	0.381189	0.221254	0.105303
Br146	Br	0.881189	0.721254	0.605303
H147	H	1.123118	0.047514	-0.579327
H148	H	1.623118	0.547514	-0.079327
Br149	Br	1.039435	-0.052598	-0.403798
Br150	Br	1.539435	0.447402	0.096202
H151	H	0.886596	0.025656	-0.578192
H152	H	1.386596	0.525656	-0.078192
Br153	Br	0.598719	-0.034622	0.096946
Br154	Br	1.098719	0.465378	0.596946
Br155	Br	0.813474	0.145841	-0.596399
Br156	Br	1.313474	0.645841	-0.096399
H157	H	1.122126	-0.707819	0.000072
H158	H	1.622126	-0.207819	0.500072
Br159	Br	0.813563	0.147038	-0.403624
Br160	Br	1.313563	0.647038	0.096376
Br161	Br	0.875355	-0.008539	-0.401385
Br162	Br	1.375355	0.491461	0.098615
Br163	Br	0.555186	0.223788	-0.104977
Br164	Br	1.055186	0.723788	0.395023
H165	H	1.068354	0.183906	-0.580258
H166	H	1.568354	0.683906	-0.080258
H167	H	1.072276	0.180196	-0.420702
H168	H	1.572276	0.680196	0.079298
Br169	Br	0.422879	-0.037573	-0.094513
Br170	Br	0.922879	0.462427	0.405487
H171	H	0.960885	0.212674	-0.419357
H172	H	1.460885	0.712674	0.080643
Br173	Br	0.597023	-0.035754	-0.093178
Br174	Br	1.097023	0.464246	0.406822
H175	H	0.955590	0.211175	-0.578598
H176	H	1.455590	0.711175	-0.078598
