data_functionalizedCrystal
_audit_creation_method	'MofGen! by Chris Wilmer'
_symmetry_space_group_name_H-M	'P1'
_symmetry_Int_Tables_number	1
_symmetry_cell_setting	triclinic
loop_
_symmetry_equiv_pos_as_xyz
  x,y,z
_cell_length_a	12.837943
_cell_length_b	9.482900
_cell_length_c	10.967874
_cell_angle_alpha	111.341420
_cell_angle_beta	89.655823
_cell_angle_gamma	79.713792
loop_
_atom_site_label
_atom_site_type_symbol
_atom_site_fract_x
_atom_site_fract_y
_atom_site_fract_z
O1	O	1.383197	-0.041019	0.318679
O2	O	1.081831	-0.045198	0.302032
O3	O	1.245716	-0.090124	0.122681
O4	O	1.219312	0.003907	0.498030
O5	O	1.212423	0.160835	0.159273
O6	O	1.048539	0.205760	0.338624
O7	O	1.349904	0.209940	0.355271
Cu8	Cu	1.196181	0.230764	0.350289
Cu9	Cu	1.235554	-0.066023	0.307014
O10	O	1.186019	0.254865	0.534622
C11	C	1.026713	0.078871	0.314704
C12	C	0.912079	0.074665	0.297933
N13	N	1.168496	0.439509	0.380726
N14	N	1.263248	-0.274770	0.276567
C15	C	0.665798	0.125196	0.499556
C16	C	0.558088	0.121247	0.483804
C17	C	0.588946	0.062830	0.250678
C18	C	0.696656	0.066779	0.266431
C19	C	0.735078	0.097960	0.390873
C20	C	0.842791	0.101898	0.406623
C21	C	0.873645	0.043492	0.173500
C22	C	0.765935	0.039543	0.157748
C23	C	1.405023	0.085867	0.342598
C24	C	1.519658	0.090063	0.359368
C25	C	1.229664	0.023233	0.092600
C26	C	1.231424	-0.012888	-0.051550
C27	C	1.227381	0.495491	0.315984
C28	C	1.204354	0.669254	0.341319
C29	C	1.202071	0.141505	0.564703
C30	C	1.200313	0.177617	0.708851
C31	C	1.216776	0.063712	0.754161
C32	C	1.214959	0.101032	0.903146
H33	H	0.697082	0.150583	0.600881
O34	O	1.115002	0.776169	0.439608
H35	H	1.129729	0.771636	0.537854
O36	O	1.251861	-0.178683	0.853766
H37	H	1.324149	-0.201332	0.788265
H38	H	1.184879	0.302763	0.780357
O39	O	1.316740	0.388605	0.217701
H40	H	1.302006	0.393142	0.119457
O41	O	0.948366	0.014122	0.056265
H42	H	1.029719	0.022113	0.088121
O43	O	0.724494	0.005913	0.023531
H44	H	0.637958	0.007736	0.030833
O45	O	0.547491	0.029212	0.116469
H46	H	0.561990	0.118260	0.078521
O47	O	1.237222	-0.102063	0.659451
H48	H	1.249009	-0.179825	0.715304
O49	O	1.352611	0.618341	0.178284
H50	H	1.356679	0.498634	0.173806
O51	O	1.079136	0.546404	0.479002
H52	H	1.075078	0.666113	0.483488
O53	O	1.194504	0.266821	0.997843
H54	H	1.196280	0.270118	1.100001
O55	O	0.483358	0.150624	0.601022
H56	H	0.510194	0.063098	0.645026
O57	O	0.884238	0.135547	0.540838
H58	H	0.817960	0.153844	0.613767
