data_functionalizedCrystal
_audit_creation_method	'MofGen! by Chris Wilmer'
_symmetry_space_group_name_H-M	'P1'
_symmetry_Int_Tables_number	1
_symmetry_cell_setting	triclinic
loop_
_symmetry_equiv_pos_as_xyz
  x,y,z
_cell_length_a	27.732066
_cell_length_b	14.519709
_cell_length_c	26.809956
_cell_angle_alpha	89.989452
_cell_angle_beta	89.999882
_cell_angle_gamma	96.834878
loop_
_atom_site_label
_atom_site_type_symbol
_atom_site_fract_x
_atom_site_fract_y
_atom_site_fract_z
O1	O	-0.641450	0.109798	0.041373
O2	O	-0.500737	0.126466	0.041395
O3	O	-0.574824	-0.016171	0.041388
O4	O	-0.567363	0.252435	0.041380
O5	O	-0.574811	-0.016149	-0.041572
O6	O	-0.500723	0.126487	-0.041564
O7	O	-0.641436	0.109820	-0.041587
Zn8	Zn	-0.571077	0.118157	-0.054747
Zn9	Zn	-0.571096	0.118129	0.054555
O10	O	-0.567349	0.252457	-0.041579
C11	C	-0.482722	0.126124	-0.000082
C12	C	-0.429063	0.125063	-0.000073
C13	C	-0.051553	0.033546	-0.000092
C14	C	-0.253231	0.037452	-0.000083
O15	O	-0.284145	-0.033558	-0.000100
N16	N	-0.272763	0.122034	-0.000083
C17	C	-0.241872	0.205645	-0.000090
O18	O	-0.263112	0.277676	-0.000095
C19	C	-0.040194	0.201738	-0.000102
C20	C	-0.020665	0.117151	-0.000097
C21	C	-0.032023	-0.051034	-0.000087
C22	C	0.018393	-0.052009	-0.000086
C23	C	0.049281	0.031595	-0.000091
C24	C	0.029752	0.116175	-0.000096
C25	C	-0.009303	0.285348	-0.000112
C26	C	0.041119	0.284363	-0.000117
C27	C	0.060647	0.199776	-0.000111
C28	C	0.111056	0.198804	-0.000101
N29	N	0.130587	0.114223	-0.000100
C30	C	0.099700	0.030618	-0.000095
C31	C	-0.347756	0.207690	-0.000082
C32	C	-0.398175	0.208667	-0.000078
C33	C	-0.409531	0.040474	-0.000072
C34	C	-0.359111	0.039498	-0.000072
C35	C	-0.328224	0.123109	-0.000081
C36	C	0.205579	0.028575	-0.000094
C37	C	0.256001	0.027607	-0.000091
C38	C	0.267353	0.195800	-0.000100
C39	C	0.216935	0.196768	-0.000100
C40	C	0.186049	0.113149	-0.000099
O41	O	0.141998	0.269776	-0.000089
O42	O	0.120950	-0.041403	-0.000101
C43	C	-0.101969	0.034522	-0.000092
C44	C	-0.121499	0.119102	-0.000098
C45	C	-0.090611	0.202707	-0.000102
C46	C	-0.171918	0.120079	-0.000093
C47	C	-0.202805	0.036475	-0.000089
C48	C	-0.183274	-0.048107	-0.000088
C49	C	-0.132857	-0.049083	-0.000088
C50	C	-0.110143	0.287288	-0.000103
C51	C	-0.160560	0.288257	-0.000103
C52	C	-0.191448	0.204652	-0.000098
C53	C	0.340548	0.110159	-0.000104
C54	C	0.286888	0.111212	-0.000096
C55	C	-0.574470	-0.050514	-0.000090
C56	C	-0.573428	-0.152877	-0.000083
C57	C	-0.567704	0.286800	-0.000101
C58	C	-0.568746	0.389163	-0.000105
N59	N	-0.571068	0.118176	-0.129343
C60	C	-0.572582	0.763992	-0.000085
C61	C	-0.571517	0.659703	-0.000091
C62	C	-0.570664	0.576581	-0.000095
C63	C	-0.569598	0.472285	-0.000100
C64	C	-0.603897	0.054985	-0.473972
C65	C	-0.603909	0.054970	-0.682850
O66	O	-0.631802	0.001249	-0.709856
N67	N	-0.571099	0.118108	-0.708970
C68	C	-0.538281	0.181250	-0.682868
O69	O	-0.510370	0.234946	-0.709877
C70	C	-0.538267	0.181259	-0.473991
C71	C	-0.571083	0.118123	-0.447874
C72	C	-0.636710	-0.008146	-0.447855
C73	C	-0.636709	-0.008139	-0.395638
C74	C	-0.603895	0.055000	-0.369540
C75	C	-0.571082	0.118131	-0.395657
C76	C	-0.505448	0.244396	-0.447890
C77	C	-0.505447	0.244391	-0.395667
C78	C	-0.538262	0.181255	-0.369550
C79	C	-0.538266	0.181277	-0.317342
N80	N	-0.571077	0.118139	-0.291222
C81	C	-0.603891	0.055001	-0.317321
C82	C	-0.538291	0.181242	-0.792531
C83	C	-0.538295	0.181241	-0.844750
C84	C	-0.603922	0.054960	-0.844729
C85	C	-0.603920	0.054966	-0.792509
C86	C	-0.571101	0.118104	-0.766411
C87	C	-0.603886	0.055022	-0.207663
C88	C	-0.603883	0.055038	-0.155442
C89	C	-0.538254	0.181315	-0.155468
C90	C	-0.538258	0.181303	-0.207684
C91	C	-0.571076	0.118149	-0.233780
O92	O	-0.510384	0.234964	-0.290303
O93	O	-0.631790	0.001299	-0.290302
C94	C	-0.603899	0.054977	-0.526189
C95	C	-0.571086	0.118108	-0.552306
C96	C	-0.538272	0.181247	-0.526207
C97	C	-0.571090	0.118107	-0.604525
C98	C	-0.603904	0.054969	-0.630624
C99	C	-0.636715	-0.008169	-0.604504
C100	C	-0.636713	-0.008162	-0.552287
C101	C	-0.505462	0.244385	-0.552328
C102	C	-0.505466	0.244373	-0.604544
C103	C	-0.538280	0.181234	-0.630643
N104	N	-0.571109	0.118102	0.129151
H105	H	-0.116962	-0.117962	-0.000083
Cl106	Cl	-0.448370	-0.064628	-0.000066
H107	H	-0.343215	-0.029380	-0.000068
Cl108	Cl	0.192384	0.303107	-0.000101
H109	H	-0.478726	0.295806	-0.469147
Cl110	Cl	-0.645173	-0.024415	-0.877549
Cl111	Cl	-0.497008	0.260685	-0.240516
H112	H	0.034289	-0.120889	-0.000084
Cl113	Cl	-0.070845	-0.156152	-0.000081
Cl114	Cl	-0.497030	0.260626	-0.759728
Cl115	Cl	-0.308933	0.312812	-0.000089
H116	H	-0.511538	0.232724	-0.134210
H117	H	0.292510	0.263868	-0.000101
H118	H	-0.414071	0.277546	-0.000076
Cl119	Cl	-0.677968	-0.087531	-0.480656
Cl120	Cl	-0.677961	-0.087518	-0.362811
H121	H	-0.478720	0.295805	-0.374421
Cl122	Cl	-0.645175	-0.024409	-0.759681
H123	H	-0.208431	-0.116181	-0.000081
H124	H	0.066265	0.352451	-0.000126
Cl125	Cl	-0.033841	0.391693	-0.000120
Cl126	Cl	-0.645144	-0.024372	-0.240461
H127	H	-0.511578	0.232661	-0.866011
H128	H	0.180437	-0.039516	-0.000093
H129	H	-0.630607	0.003625	-0.134179
Cl130	Cl	-0.677969	-0.087537	-0.519461
H131	H	-0.663435	-0.059576	-0.625762
Cl132	Cl	-0.464210	0.323755	-0.637372
H133	H	0.271898	-0.041277	-0.000085
Cl134	Cl	-0.185104	0.394606	-0.000107
Cl135	Cl	-0.071320	0.392402	-0.000106
Cl136	Cl	-0.464206	0.323768	-0.519524
