data_functionalizedCrystal
_audit_creation_method	'MofGen! by Chris Wilmer'
_symmetry_space_group_name_H-M	'P1'
_symmetry_Int_Tables_number	1
_symmetry_cell_setting	triclinic
loop_
_symmetry_equiv_pos_as_xyz
  x,y,z
_cell_length_a	12.759401
_cell_length_b	18.050590
_cell_length_c	12.759393
_cell_angle_alpha	90.034679
_cell_angle_beta	90.020938
_cell_angle_gamma	90.020077
loop_
_atom_site_label
_atom_site_type_symbol
_atom_site_fract_x
_atom_site_fract_y
_atom_site_fract_z
Zn1	Zn	1.606238	-0.295593	0.593990
Zn2	Zn	1.606118	-0.419801	0.418297
Zn3	Zn	1.430537	-0.295633	0.418325
Zn4	Zn	1.430517	-0.419749	0.593934
O5	O	1.518352	-0.357694	0.506136
O6	O	1.753243	-0.312075	0.570695
O7	O	1.582784	-0.403368	0.271279
O8	O	1.453903	-0.191703	0.441662
O9	O	1.753155	-0.403330	0.441614
O10	O	1.582990	-0.191674	0.570722
O11	O	1.453786	-0.312142	0.271300
O12	O	1.283513	-0.312092	0.441608
O13	O	1.453869	-0.403241	0.740963
O14	O	1.283499	-0.403280	0.570628
O15	O	1.582971	-0.312025	0.741003
O16	O	1.582765	-0.523719	0.441561
O17	O	1.453752	-0.523681	0.570601
C18	C	1.245385	-0.357685	0.506115
C19	C	1.128608	-0.357699	0.506131
C20	C	1.518272	-0.550646	0.506094
C21	C	1.518333	-0.633192	0.506112
C22	C	1.073766	-0.405253	0.573206
C23	C	0.964042	-0.405256	0.573227
C24	C	0.964012	-0.310149	0.439089
C25	C	1.073734	-0.310143	0.439075
C26	C	1.588636	-0.832636	0.436038
C27	C	1.614306	-0.881961	0.531925
C28	C	1.518393	-0.784322	0.506154
C29	C	1.492831	-0.882079	0.410310
C30	C	1.518452	-0.930307	0.506186
C31	C	1.544111	-0.832560	0.602091
C32	C	1.422592	-0.832674	0.480411
C33	C	1.448224	-0.881976	0.576364
C34	C	1.518361	-0.700224	0.506134
C35	C	1.518484	-1.014404	0.506216
C36	C	1.792386	-0.357704	0.506158
C37	C	1.909162	-0.357708	0.506167
C38	C	1.518431	-0.357623	0.780170
C39	C	1.518465	-0.357592	0.896947
C40	C	1.518462	-0.163989	0.506201
C41	C	1.518509	-0.081443	0.506229
C42	C	1.518335	-0.357712	0.233169
C43	C	1.518505	-0.357533	0.116393
C44	C	1.585693	-0.310088	0.951831
C45	C	1.585711	-0.310056	1.061556
C46	C	1.451269	-0.405039	1.061500
C47	C	1.451247	-0.405067	0.951778
H48	H	1.118442	-0.443974	0.627811
O49	O	1.569879	-0.806764	0.698898
C50	C	1.496234	-0.832505	0.772760
H51	H	1.419747	-0.846719	0.731139
H52	H	1.528191	-0.884082	0.813182
C53	C	1.569882	-0.754294	0.906180
C54	C	1.475936	-0.771746	0.855062
H55	H	1.557364	-0.716817	0.956952
H56	H	1.619501	-0.736953	0.856420
H57	H	1.596504	-0.797280	0.939857
H58	H	1.449323	-0.728764	0.821376
H59	H	1.426312	-0.789079	0.904819
O60	O	1.377400	-0.907790	0.647116
C61	C	1.377624	-0.985895	0.645776
H62	H	1.408922	-1.006253	0.567202
H63	H	1.429813	-1.007404	0.711599
C64	C	1.226653	-0.989654	0.758042
C65	C	1.265085	-1.014657	0.661532
H66	H	1.157235	-1.007397	0.767766
H67	H	1.226504	-0.937033	0.758948
H68	H	1.270153	-1.007580	0.812884
H69	H	1.221593	-0.996723	0.606692
H70	H	1.265224	-1.067276	0.660617
O71	O	1.127130	-0.264050	0.373860
C72	C	1.190530	-0.306272	0.305872
H73	H	1.206959	-0.362584	0.342779
H74	H	1.148205	-0.314366	0.227996
C75	C	1.274584	-0.196228	0.241615
C76	C	1.294771	-0.265389	0.286950
H77	H	1.338883	-0.171009	0.229938
H78	H	1.231868	-0.167782	0.287417
H79	H	1.239311	-0.202983	0.176723
H80	H	1.330031	-0.258633	0.351846
H81	H	1.337495	-0.293834	0.241158
H82	H	0.919395	-0.443978	0.627847
H83	H	1.341572	-0.811006	0.458589
O84	O	1.710922	-0.907817	0.558117
C85	C	1.703631	-0.950727	0.650126
H86	H	1.630653	-0.933888	0.695807
H87	H	1.698233	-1.011876	0.628363
C88	C	1.891173	-0.958429	0.662214
C89	C	1.801544	-0.937742	0.718325
H90	H	1.951571	-0.950423	0.704281
H91	H	1.896086	-0.929522	0.600224
H92	H	1.886660	-1.009385	0.644082
H93	H	1.806052	-0.886785	0.736444
H94	H	1.796634	-0.966640	0.780320
H95	H	1.471186	-0.903830	0.329242
O96	O	1.659664	-0.806818	0.365490
C97	C	1.760592	-0.831947	0.393034
H98	H	1.762534	-0.845753	0.480185
H99	H	1.780339	-0.883647	0.345637
C100	C	1.839159	-0.753951	0.262382
C101	C	1.841546	-0.770903	0.369424
H102	H	1.889097	-0.716298	0.247814
H103	H	1.771162	-0.737024	0.243821
H104	H	1.855612	-0.797040	0.222896
H105	H	1.825081	-0.727817	0.408906
H106	H	1.909543	-0.787822	0.387990
H107	H	1.640423	-0.271430	0.907191
H108	H	1.640453	-0.271372	1.106238
O109	O	1.386081	-0.451133	1.114928
C110	C	1.400498	-0.440911	1.223542
H111	H	1.481596	-0.416590	1.238549
H112	H	1.338211	-0.401351	1.254684
C113	C	1.291229	-0.545910	1.261413
C114	C	1.390839	-0.516044	1.279846
H115	H	1.285266	-0.592254	1.296146
H116	H	1.281513	-0.552795	1.188238
H117	H	1.239334	-0.512936	1.287364
H118	H	1.442730	-0.549013	1.253883
H119	H	1.400564	-0.509166	1.353018
O120	O	0.910867	-0.263891	0.373913
C121	C	0.982805	-0.221930	0.314689
H122	H	1.061040	-0.219388	0.357721
H123	H	0.994427	-0.249059	0.234827
C124	C	0.843914	-0.146002	0.246898
C125	C	0.940001	-0.142875	0.299754
H126	H	0.817510	-0.097238	0.237680
H127	H	0.795447	-0.174273	0.286794
H128	H	0.853613	-0.168612	0.180352
H129	H	0.930299	-0.120273	0.366303
H130	H	0.988466	-0.114598	0.259868
H131	H	1.396494	-0.443750	0.907090
