data_functionalizedCrystal
_audit_creation_method	'MofGen! by Chris Wilmer'
_symmetry_space_group_name_H-M	'P1'
_symmetry_Int_Tables_number	1
_symmetry_cell_setting	triclinic
loop_
_symmetry_equiv_pos_as_xyz
  x,y,z
_cell_length_a	22.010155
_cell_length_b	23.532407
_cell_length_c	23.532407
_cell_angle_alpha	97.151284
_cell_angle_beta	89.999994
_cell_angle_gamma	90.005103
loop_
_atom_site_label
_atom_site_type_symbol
_atom_site_fract_x
_atom_site_fract_y
_atom_site_fract_z
O1	O	-0.050484	-0.755264	0.069127
O2	O	-0.050496	-0.589400	0.079130
O3	O	-0.050479	-0.677334	-0.008803
O4	O	-0.050502	-0.667330	0.157060
O5	O	0.050572	-0.677318	-0.008789
O6	O	0.050554	-0.589384	0.079144
O7	O	0.050566	-0.755248	0.069141
Cu8	Cu	0.059787	-0.672314	0.074144
Cu9	Cu	-0.059717	-0.672333	0.074127
O10	O	0.050549	-0.667314	0.157074
C11	C	0.000027	-0.568176	0.078882
C12	C	0.000023	-0.504959	0.078116
N13	N	0.143839	-0.672305	0.074155
C14	C	0.000044	-0.238792	0.022921
C15	C	0.000045	-0.298192	0.023632
O16	O	0.000072	-0.334937	-0.020153
N17	N	0.000033	-0.320818	0.075909
C18	C	0.000028	-0.284041	0.127477
O19	O	0.000019	-0.308740	0.172007
C20	C	0.000032	-0.224642	0.126765
C21	C	0.000037	-0.202019	0.074485
C22	C	0.000050	-0.216168	-0.029354
C23	C	0.000048	-0.156772	-0.030066
C24	C	0.000041	-0.119999	0.021499
C25	C	0.000035	-0.142623	0.073774
C26	C	0.000031	-0.187865	0.178333
C27	C	0.000035	-0.128463	0.177616
C28	C	0.000040	-0.105840	0.125336
C29	C	0.000027	-0.046454	0.124627
N30	N	0.000038	-0.023828	0.072351
C31	C	0.000045	-0.060600	0.020787
C32	C	0.000021	-0.408783	0.128968
C33	C	0.000013	-0.468181	0.129681
C34	C	0.000030	-0.482328	0.025836
C35	C	0.000034	-0.422929	0.025124
C36	C	0.000032	-0.386157	0.076692
C37	C	0.000041	0.064136	0.019297
C38	C	0.000037	0.123538	0.018590
C39	C	0.000023	0.137680	0.122435
C40	C	0.000023	0.078284	0.123142
C41	C	0.000035	0.041512	0.071568
O42	O	0.000002	-0.009675	0.168390
O43	O	0.000062	-0.035892	-0.023737
C44	C	0.563627	-0.711272	0.035200
C45	C	0.627234	-0.711274	0.035197
O46	O	0.660132	-0.744383	0.002081
N47	N	0.659047	-0.672332	0.074120
C48	C	0.627248	-0.633381	0.113046
O49	O	0.660147	-0.600258	0.146153
C50	C	0.563641	-0.633377	0.113046
C51	C	0.531832	-0.672325	0.074124
C52	C	0.531818	-0.750217	-0.003719
C53	C	0.468214	-0.750215	-0.003715
C54	C	0.436420	-0.711268	0.035209
C55	C	0.468229	-0.672323	0.074129
C56	C	0.531844	-0.594423	0.151969
C57	C	0.468233	-0.594421	0.151966
C58	C	0.436424	-0.633370	0.113043
C59	C	0.372832	-0.633374	0.113057
N60	N	0.341020	-0.672316	0.074133
C61	C	0.372814	-0.711263	0.035209
C62	C	0.760826	-0.633394	0.113042
C63	C	0.824431	-0.633401	0.113045
C64	C	0.824413	-0.711293	0.035195
C65	C	0.760807	-0.711289	0.035195
C66	C	0.729013	-0.672336	0.074118
C67	C	0.239242	-0.711256	0.035222
C68	C	0.175634	-0.711252	0.035231
C69	C	0.175657	-0.633358	0.113079
C70	C	0.239260	-0.633364	0.113072
C71	C	0.271052	-0.672315	0.074138
O72	O	0.339893	-0.600281	0.146154
O73	O	0.339907	-0.744376	0.002103
N74	N	0.856231	-0.672346	0.074119
C75	C	0.000048	-0.677071	-0.030012
C76	C	0.000053	-0.676305	-0.093229
C77	C	0.000038	0.223528	0.069389
C78	C	0.000030	0.160311	0.070155
C79	C	0.000023	-0.723538	-0.492332
C80	C	0.000018	-0.722827	-0.551733
O81	O	-0.000001	-0.766613	-0.588477
N82	N	0.000015	-0.670551	-0.574359
C83	C	0.000010	-0.618982	-0.537581
O84	O	0.000006	-0.574452	-0.562281
C85	C	0.000010	-0.619695	-0.478182
C86	C	0.000020	-0.671974	-0.455559
C87	C	0.000032	-0.775814	-0.469709
C88	C	0.000038	-0.776525	-0.410313
C89	C	0.000035	-0.724961	-0.373540
C90	C	0.000026	-0.672685	-0.396163
C91	C	0.000001	-0.568127	-0.441406
C92	C	0.000001	-0.568843	-0.382003
C93	C	0.000010	-0.621123	-0.359381
C94	C	0.000028	-0.621832	-0.299994
N95	N	0.000032	-0.674109	-0.277368
C96	C	0.000035	-0.725673	-0.314141
C97	C	0.000008	-0.617491	-0.662324
C98	C	0.000012	-0.616778	-0.721722
C99	C	0.000019	-0.720623	-0.735869
C100	C	0.000020	-0.721335	-0.676470
C101	C	0.000012	-0.669767	-0.639698
C102	C	0.000048	-0.727163	-0.189404
C103	C	0.000056	-0.727869	-0.130002
C104	C	0.000045	-0.624025	-0.115860
C105	C	0.000040	-0.623318	-0.175257
C106	C	0.000039	-0.674891	-0.212028
O107	O	0.000045	-0.578069	-0.263215
O108	O	0.000031	-0.770196	-0.289433
C109	C	0.000021	-0.667577	0.178283
C110	C	0.000012	-0.668343	0.241500
H111	H	0.000039	0.141954	-0.023984
H112	H	0.000065	-0.770443	-0.111586
H113	H	0.734943	-0.601675	0.144743
O114	O	0.000090	-0.567432	-0.626547
C115	C	0.052459	-0.507937	-0.551303
C116	C	0.052437	-0.564654	-0.591774
H117	H	0.094784	-0.505667	-0.523187
H118	H	0.010199	-0.505666	-0.523100
H119	H	0.052428	-0.470465	-0.577695
H120	H	0.052490	-0.602158	-0.565428
H121	H	0.094693	-0.566874	-0.619979
O122	O	-0.000038	-0.517292	-0.463277
C123	C	-0.000023	-0.414369	-0.442950
C124	C	0.000008	-0.471903	-0.418107
H125	H	0.000027	-0.377657	-0.406442
H126	H	-0.042326	-0.411406	-0.470381
H127	H	0.042253	-0.411453	-0.470425
H128	H	-0.042240	-0.474857	-0.390606
H129	H	0.042338	-0.474841	-0.390708
O130	O	-0.000081	-0.490083	0.180503
C131	C	-0.052469	-0.496179	0.269454
C132	C	-0.052434	-0.471331	0.211923
H133	H	-0.094798	-0.481037	0.294869
H134	H	-0.010213	-0.480985	0.294964
H135	H	-0.052438	-0.544949	0.261102
H136	H	-0.052486	-0.422560	0.220223
H137	H	-0.094686	-0.486570	0.186432
H138	H	0.850311	-0.743005	0.003500
O139	O	0.562639	-0.556532	0.189799
C140	C	0.555916	-0.479289	0.267030
C141	C	0.520967	-0.522164	0.224207
H142	H	0.522239	-0.451500	0.294868
H143	H	0.585680	-0.450940	0.242615
H144	H	0.585709	-0.503718	0.295337
H145	H	0.491141	-0.497782	0.195889
H146	H	0.491241	-0.550513	0.248658
H147	H	0.000050	0.034204	-0.022699
H148	H	0.000045	-0.582043	-0.085909
O149	O	0.270184	-0.749118	-0.002519
C150	C	0.341943	-0.827001	-0.015047
C151	C	0.306952	-0.784143	0.027753
H152	H	0.371669	-0.855337	0.009411
H153	H	0.371765	-0.802615	-0.043374
H154	H	0.308260	-0.854805	-0.042869
H155	H	0.340591	-0.756327	0.055613
H156	H	0.277122	-0.808564	0.056041
H157	H	0.149737	-0.742971	0.003536
O158	O	-0.000073	-0.373007	0.179028
C159	C	-0.052457	-0.297769	0.238506
C160	C	-0.052420	-0.338239	0.181788
H161	H	-0.094781	-0.269657	0.240761
H162	H	-0.010197	-0.269562	0.240791
H163	H	-0.052438	-0.324162	0.275977
H164	H	-0.052460	-0.311892	0.144285
H165	H	-0.094676	-0.366448	0.179552
O166	O	-0.000050	-0.092685	0.227674
C167	C	-0.052429	-0.017443	0.287152
C168	C	-0.052398	-0.057918	0.230436
H169	H	-0.094753	0.010668	0.289409
H170	H	-0.010169	0.010764	0.289429
H171	H	-0.052403	-0.043832	0.324626
H172	H	-0.052445	-0.031574	0.192930
H173	H	-0.094654	-0.086127	0.228209
H174	H	0.265160	-0.601654	0.144771
O175	O	0.000088	-0.134896	-0.080901
C176	C	0.000079	-0.155219	-0.183824
C177	C	0.000044	-0.180065	-0.126291
H178	H	0.000031	-0.191726	-0.220536
H179	H	0.042382	-0.127785	-0.186786
H180	H	-0.042197	-0.127747	-0.186737
H181	H	0.042292	-0.207563	-0.123338
H182	H	-0.042286	-0.207467	-0.123352
H183	H	-0.000007	-0.526850	-0.352065
H184	H	0.734911	-0.743003	0.003501
O185	O	-0.000004	-0.772169	-0.654591
C186	C	0.000038	-0.875093	-0.674909
C187	C	0.000054	-0.817561	-0.699758
H188	H	0.000098	-0.911807	-0.711414
H189	H	-0.042263	-0.878070	-0.647479
H190	H	0.042316	-0.877989	-0.647432
H191	H	-0.042196	-0.814627	-0.727261
H192	H	0.042383	-0.814609	-0.727156
H193	H	0.000057	-0.246104	-0.071347
O194	O	0.000069	-0.401051	-0.025710
C195	C	0.000046	-0.421369	-0.128633
C196	C	0.000019	-0.446217	-0.071102
H197	H	-0.000008	-0.457873	-0.165348
H198	H	0.042348	-0.393934	-0.131600
H199	H	-0.042231	-0.393895	-0.131540
H200	H	0.042266	-0.473717	-0.068157
H201	H	-0.042312	-0.473619	-0.068160
O202	O	0.000117	-0.825870	-0.505484
C203	C	0.052498	-0.885351	-0.580722
C204	C	0.052465	-0.828632	-0.540254
H205	H	0.094823	-0.887608	-0.608836
H206	H	0.010238	-0.887637	-0.608927
H207	H	0.052474	-0.922821	-0.554328
H208	H	0.052510	-0.791130	-0.566603
H209	H	0.094720	-0.826396	-0.512048
O210	O	0.000058	-0.209736	0.229168
C211	C	0.000023	-0.189409	0.332091
C212	C	0.000004	-0.164566	0.274556
H213	H	-0.000033	-0.152902	0.368802
H214	H	0.042324	-0.216838	0.335065
H215	H	-0.042255	-0.216888	0.334995
H216	H	0.042254	-0.137062	0.271613
H217	H	-0.042324	-0.137171	0.271607
O218	O	0.437414	-0.788067	-0.041584
C219	C	0.444133	-0.865342	-0.118782
C220	C	0.479084	-0.822497	-0.075931
H221	H	0.477808	-0.893199	-0.146555
H222	H	0.414376	-0.840946	-0.147150
H223	H	0.414332	-0.893629	-0.094333
H224	H	0.508918	-0.794199	-0.100334
H225	H	0.508802	-0.846929	-0.047564
H226	H	0.000043	-0.819097	-0.391899
H227	H	0.000044	-0.769159	-0.219337
O228	O	-0.000045	-0.572571	-0.197305
C229	C	-0.052433	-0.511496	-0.256122
C230	C	-0.052398	-0.568992	-0.231205
H231	H	-0.094763	-0.508578	-0.283525
H232	H	-0.010178	-0.508551	-0.283620
H233	H	-0.052402	-0.474773	-0.219625
H234	H	-0.052451	-0.605748	-0.267665
H235	H	-0.094649	-0.571887	-0.203691
O236	O	0.562724	-0.787976	-0.041588
C237	C	0.634551	-0.800572	-0.119417
C238	C	0.599584	-0.757739	-0.076573
H239	H	0.664370	-0.776142	-0.147706
H240	H	0.600907	-0.828394	-0.147271
H241	H	0.664295	-0.828896	-0.094961
H242	H	0.569839	-0.729378	-0.100982
H243	H	0.633260	-0.729957	-0.048720
O244	O	-0.000089	0.056274	0.173909
C245	C	-0.052408	-0.002622	0.234960
C246	C	-0.052375	0.022272	0.177453
H247	H	-0.094671	-0.030128	0.237839
H248	H	-0.052453	0.033841	0.271717
H249	H	-0.010094	-0.030043	0.237880
H250	H	-0.094682	0.049686	0.174477
H251	H	-0.052299	-0.014218	0.140723
H252	H	0.000036	-0.512280	-0.016150
H253	H	0.850325	-0.601691	0.144745
O254	O	0.437283	-0.556661	0.189802
C255	C	0.365510	-0.544085	0.267676
C256	C	0.400510	-0.586908	0.224849
H257	H	0.335780	-0.568523	0.296031
H258	H	0.335692	-0.515782	0.243264
H259	H	0.399187	-0.516241	0.295466
H260	H	0.366877	-0.614790	0.197049
H261	H	0.430337	-0.615171	0.249296
H262	H	0.000014	0.167631	0.164417
H263	H	0.000020	-0.762610	-0.765821
O264	O	0.144834	-0.595448	0.150864
C265	C	0.125351	-0.496232	0.184704
C266	C	0.160308	-0.539106	0.141893
H267	H	0.137839	-0.450670	0.177458
H268	H	0.137865	-0.503339	0.230298
H269	H	0.074429	-0.502951	0.178024
H270	H	0.211237	-0.532413	0.148521
H271	H	0.147743	-0.531988	0.096315
H272	H	0.000015	-0.574207	-0.740135
