data_functionalizedCrystal
_audit_creation_method	'MofGen! by Chris Wilmer'
_symmetry_space_group_name_H-M	'P1'
_symmetry_Int_Tables_number	1
_symmetry_cell_setting	triclinic
loop_
_symmetry_equiv_pos_as_xyz
  x,y,z
_cell_length_a	9.065215
_cell_length_b	13.339071
_cell_length_c	8.140239
_cell_angle_alpha	90.001431
_cell_angle_beta	90.002215
_cell_angle_gamma	100.321988
loop_
_atom_site_label
_atom_site_type_symbol
_atom_site_fract_x
_atom_site_fract_y
_atom_site_fract_z
O1	O	0.742383	1.349075	0.136633
O2	O	0.644941	1.053656	0.136631
O3	O	0.481401	1.207473	0.136625
O4	O	0.905923	1.195258	0.136639
O5	O	0.481397	1.207468	-0.136602
O6	O	0.644937	1.053651	-0.136596
O7	O	0.742380	1.349070	-0.136594
Zn8	Zn	0.693658	1.201360	-0.179976
Zn9	Zn	0.693663	1.201366	0.180012
O10	O	0.905920	1.195253	-0.136588
C11	C	0.628479	1.015814	0.000017
C12	C	0.579415	0.903063	0.000016
C13	C	0.425955	1.206298	0.000013
C14	C	0.260744	1.202789	0.000018
C15	C	0.426414	0.860964	0.000005
C16	C	0.380312	0.755029	0.000012
C17	C	0.487206	0.691183	0.000017
C18	C	0.640211	0.733281	0.000016
C19	C	0.686318	0.839226	0.000022
C20	C	0.747110	0.669445	0.000034
C21	C	0.900114	0.711544	0.000034
C22	C	0.946213	0.817479	0.000038
C23	C	0.839319	0.881325	0.000033
C24	C	0.701003	0.563500	0.000028
C25	C	0.960906	0.541762	0.000046
C26	C	1.007008	0.647697	0.000039
C27	C	0.961366	1.196429	0.000027
C28	C	1.126577	1.199937	0.000033
C29	C	0.758842	1.386913	0.000023
C30	C	0.807905	1.499664	0.000035
N31	N	0.693657	1.201363	-0.425659
N32	N	0.693655	1.201371	0.425695
H33	H	0.576426	0.529234	0.000030
Cl34	Cl	1.095297	0.461506	0.000060
H35	H	0.876848	0.967587	0.000020
H36	H	1.070799	0.851751	0.000062
H37	H	0.255737	0.720760	0.000015
H38	H	0.449661	0.604926	0.000022
H39	H	0.339398	0.912956	0.000012
H40	H	1.131587	0.681989	0.000039
