data_functionalizedCrystal
_audit_creation_method	'MofGen! by Chris Wilmer'
_symmetry_space_group_name_H-M	'P1'
_symmetry_Int_Tables_number	1
_symmetry_cell_setting	triclinic
loop_
_symmetry_equiv_pos_as_xyz
  x,y,z
_cell_length_a	15.995292
_cell_length_b	27.732048
_cell_length_c	15.072220
_cell_angle_alpha	89.993868
_cell_angle_beta	89.986330
_cell_angle_gamma	83.055635
loop_
_atom_site_label
_atom_site_type_symbol
_atom_site_fract_x
_atom_site_fract_y
_atom_site_fract_z
O1	O	1.110222	0.062168	-0.073816
O2	O	1.610222	0.562168	0.426184
O3	O	0.866340	0.069891	-0.073814
O4	O	1.366340	0.569891	0.426186
O5	O	0.995855	-0.004336	-0.073798
O6	O	1.495855	0.495664	0.426202
O7	O	0.980706	0.136394	-0.073832
O8	O	1.480706	0.636394	0.426168
O9	O	0.995823	-0.004332	0.073767
O10	O	1.495823	0.495668	0.573767
O11	O	0.866308	0.069895	0.073751
O12	O	1.366308	0.569895	0.573751
O13	O	1.110190	0.062172	0.073749
O14	O	1.610190	0.562172	0.573749
Zn15	Zn	0.988244	0.066034	0.097179
Zn16	Zn	1.488244	0.566034	0.597179
Zn17	Zn	0.988286	0.066029	-0.097244
Zn18	Zn	1.488286	0.566029	0.402756
O19	O	0.980675	0.136398	0.073733
O20	O	1.480675	0.636398	0.573733
C21	C	0.835133	0.069579	-0.000031
C22	C	1.335133	0.569579	0.499969
C23	C	0.742192	0.068636	-0.000029
C24	C	1.242192	0.568636	0.499971
C25	C	0.404498	0.065172	-0.000039
C26	C	0.904498	0.565172	0.499961
C27	C	0.427117	0.118746	-0.000381
C28	C	0.927117	0.618746	0.499619
C29	C	0.523780	0.119765	-0.000045
C30	C	1.023780	0.619765	0.499955
C31	C	0.572032	0.066891	-0.000034
C32	C	1.072032	0.566891	0.499966
C33	C	0.543258	0.040108	0.084236
C34	C	1.043258	0.540108	0.584236
C35	C	0.446476	0.039463	0.084303
C36	C	0.946476	0.539463	0.584303
C37	C	0.446671	0.038365	-0.083506
C38	C	0.946671	0.538365	0.416494
C39	C	0.543138	0.040350	-0.084616
C40	C	1.043138	0.540350	0.415384
C41	C	0.666715	0.067859	-0.000029
C42	C	1.166715	0.567859	0.499971
C43	C	0.309815	0.064201	-0.000038
C44	C	0.809815	0.564201	0.499962
C45	C	0.995521	-0.022342	-0.000013
C46	C	1.495521	0.477658	0.499987
C47	C	0.994564	-0.076001	-0.000006
C48	C	1.494564	0.423999	0.499994
C49	C	1.065071	-0.414520	-0.000052
C50	C	1.565071	0.085480	0.499948
C51	C	1.061518	-0.616195	-0.000065
C52	C	1.561518	-0.116195	0.499935
O53	O	1.125992	-0.647180	-0.000104
O54	O	1.625992	-0.147180	0.499896
N55	N	0.984721	-0.635641	-0.000063
N56	N	1.484721	-0.135641	0.499937
C57	C	0.908806	-0.604664	-0.000064
C58	C	1.408806	-0.104664	0.499936
O59	O	0.843404	-0.625831	-0.000072
O60	O	1.343404	-0.125831	0.499928
C61	C	0.912360	-0.402991	-0.000058
C62	C	1.412360	0.097009	0.499942
C63	C	0.989162	-0.383548	-0.000051
C64	C	1.489162	0.116452	0.499949
C65	C	1.141867	-0.395077	-0.000046
C66	C	1.641867	0.104923	0.499954
C67	C	1.142754	-0.344662	-0.000038
C68	C	1.642754	0.155338	0.499962
C69	C	1.066845	-0.313689	-0.000036
C70	C	1.566845	0.186311	0.499964
C71	C	0.990049	-0.333132	-0.000043
C72	C	1.490049	0.166868	0.499957
C73	C	0.836446	-0.372015	-0.000066
C74	C	1.336446	0.127985	0.499934
C75	C	0.837342	-0.321594	-0.000067
C76	C	1.337342	0.178406	0.499933
C77	C	0.914144	-0.302151	-0.000059
C78	C	1.414144	0.197849	0.499941
C79	C	0.915028	-0.251744	-0.000033
C80	C	1.415028	0.248256	0.499967
N81	N	0.991825	-0.232298	-0.000035
N82	N	1.491825	0.267702	0.499965
C83	C	1.067734	-0.263271	-0.000036
C84	C	1.567734	0.236729	0.499964
C85	C	0.906946	-0.710546	-0.000066
C86	C	1.406946	-0.210546	0.499934
C87	C	0.906057	-0.760964	-0.000066
C88	C	1.406057	-0.260964	0.499934
C89	C	1.058770	-0.772492	-0.000068
C90	C	1.558770	-0.272492	0.499932
C91	C	1.059657	-0.722072	-0.000061
C92	C	1.559657	-0.222072	0.499939
C93	C	0.983743	-0.691100	-0.000067
C94	C	1.483743	-0.191100	0.499933
C95	C	1.069592	-0.157394	-0.000019
C96	C	1.569592	0.342606	0.499981
C97	C	1.070473	-0.106973	-0.000007
C98	C	1.570473	0.393027	0.499993
C99	C	0.917761	-0.095450	-0.000010
C100	C	1.417761	0.404550	0.499990
C101	C	0.916880	-0.145867	-0.000017
C102	C	1.416880	0.354133	0.499983
C103	C	0.992802	-0.176838	-0.000025
C104	C	1.492802	0.323162	0.499975
O105	O	0.850589	-0.220730	-0.000004
O106	O	1.350589	0.279270	0.499996
O107	O	1.133127	-0.242094	-0.000048
O108	O	1.633127	0.257906	0.499952
C109	C	1.064183	-0.464936	-0.000060
C110	C	1.564183	0.035064	0.499940
C111	C	0.987387	-0.484379	-0.000067
C112	C	1.487387	0.015621	0.499933
C113	C	0.911479	-0.453407	-0.000065
C114	C	1.411479	0.046593	0.499935
C115	C	0.986499	-0.534797	-0.000067
C116	C	1.486499	-0.034797	0.499933
C117	C	1.062407	-0.565770	-0.000068
C118	C	1.562407	-0.065770	0.499932
C119	C	1.139205	-0.546324	-0.000070
C120	C	1.639205	-0.046324	0.499930
C121	C	1.140092	-0.495909	-0.000062
C122	C	1.640092	0.004091	0.499938
C123	C	0.834682	-0.472852	-0.000064
C124	C	1.334682	0.027148	0.499936
C125	C	0.833800	-0.523269	-0.000071
C126	C	1.333800	-0.023269	0.499929
C127	C	0.909709	-0.554241	-0.000072
C128	C	1.409709	-0.054241	0.499928
C129	C	1.141397	0.062484	-0.000036
C130	C	1.641397	0.562484	0.499964
C131	C	1.234338	0.063426	-0.000044
C132	C	1.734338	0.563426	0.499956
C133	C	0.981008	0.154404	-0.000054
C134	C	1.481008	0.654404	0.499946
C135	C	0.981966	0.208063	-0.000067
C136	C	1.481966	0.708063	0.499933
N137	N	0.988221	0.066037	0.229868
N138	N	1.488221	0.566037	0.729868
N139	N	0.988315	0.066021	-0.229933
N140	N	1.488315	0.566021	0.270067
C141	C	0.988284	0.066027	0.589069
C142	C	1.488284	0.566027	1.089069
C143	C	0.918754	0.105611	0.551454
C144	C	1.418754	0.605611	1.051454
C145	C	0.918910	0.105755	0.448628
C146	C	1.418910	0.605755	0.948628
C147	C	0.988252	0.066032	0.410865
C148	C	1.488252	0.566032	0.910865
C149	C	1.075477	0.077037	0.448153
C150	C	1.575477	0.577037	0.948153
C151	C	1.075087	0.077318	0.551010
C152	C	1.575087	0.577318	1.051010
C153	C	0.971370	0.015320	0.551182
C154	C	1.471370	0.515320	1.051182
C155	C	0.969361	0.015659	0.448319
C156	C	1.469361	0.515659	0.948319
C157	C	0.988240	0.066034	0.310152
C158	C	1.488240	0.566034	0.810152
C159	C	0.988302	0.066026	0.689783
C160	C	1.488302	0.566026	1.189783
H161	H	0.397820	0.139284	0.059704
H162	H	0.897820	0.639284	0.559704
H163	H	0.905201	0.007307	0.423950
H164	H	1.405201	0.507307	0.923950
Cl165	Cl	1.239311	-0.320227	-0.000054
Cl166	Cl	1.739311	0.179773	0.499946
Cl167	Cl	1.042556	-0.031951	0.408652
Cl168	Cl	1.542556	0.468049	0.908652
H169	H	0.855958	-0.070224	-0.000006
H170	H	1.355958	0.429776	0.499994
Cl171	Cl	1.237308	-0.434006	-0.000046
Cl172	Cl	1.737308	0.065994	0.499954
Cl173	Cl	0.571478	0.070441	-0.180873
Cl174	Cl	1.071478	0.570441	0.319127
H175	H	0.418141	0.055108	-0.147377
H176	H	0.918141	0.555108	0.352623
H177	H	0.563063	0.058710	0.146942
H178	H	1.063063	0.558710	0.646942
H179	H	1.128408	0.049623	0.575891
H180	H	1.628408	0.549623	1.075891
H181	H	0.433188	-0.001070	-0.084068
H182	H	0.933188	0.498930	0.415932
H183	H	0.576609	0.001757	-0.089698
H184	H	1.076609	0.501757	0.410302
H185	H	0.772866	-0.447639	-0.000064
H186	H	1.272866	0.052361	0.499936
Cl187	Cl	0.551758	0.152345	0.093370
Cl188	Cl	1.051758	0.652345	0.593370
Cl189	Cl	1.236649	-0.471474	-0.000060
Cl190	Cl	1.736649	0.028526	0.499940
H191	H	1.133017	-0.091146	0.000001
H192	H	1.633017	0.408854	0.500001
H193	H	0.773906	-0.387836	-0.000077
H194	H	1.273906	0.112164	0.499923
H195	H	1.022083	-0.014137	0.575507
H196	H	1.522083	0.485863	1.075507
H197	H	1.128426	0.048973	0.423689
H198	H	1.628426	0.548973	0.923689
Cl199	Cl	1.099226	0.133480	0.408356
Cl200	Cl	1.599226	0.633480	0.908356
Cl201	Cl	0.818286	0.095651	0.589666
Cl202	Cl	1.318286	0.595651	1.089666
Cl203	Cl	0.552759	0.152148	-0.093311
Cl204	Cl	1.052759	0.652148	0.406689
H205	H	0.775522	-0.296378	-0.000073
H206	H	1.275522	0.203622	0.499927
Cl207	Cl	0.935098	0.163382	0.591312
Cl208	Cl	1.435098	0.663382	1.091312
H209	H	1.122196	-0.706246	-0.000056
H210	H	1.622196	-0.206246	0.499944
Cl211	Cl	1.098250	0.134412	0.588026
Cl212	Cl	1.598250	0.634412	1.088026
H213	H	0.575629	0.001200	0.087377
H214	H	1.075629	0.501200	0.587377
H215	H	0.854341	-0.161697	0.000002
H216	H	1.354341	0.338303	0.500002
H217	H	0.909183	0.004735	0.577176
H218	H	1.409183	0.504735	1.077176
H219	H	0.843517	-0.776790	-0.000056
H220	H	1.343517	-0.276790	0.499944
Cl221	Cl	0.811501	-0.671616	-0.000072
Cl222	Cl	1.311501	-0.171616	0.499928
Cl223	Cl	0.818760	0.095666	0.409705
Cl224	Cl	1.318760	0.595666	0.909705
Cl225	Cl	1.234632	-0.585271	-0.000067
Cl226	Cl	1.734632	-0.085271	0.499933
H227	H	0.419406	0.058015	0.147289
H228	H	0.919406	0.558015	0.647289
H229	H	0.398867	0.139395	-0.060816
H230	H	0.898867	0.639395	0.439184
H231	H	1.120577	-0.797718	-0.000068
H232	H	1.620577	-0.297718	0.499932
Cl233	Cl	1.165039	-0.196321	-0.000027
Cl234	Cl	1.665039	0.303679	0.499973
Cl235	Cl	0.935447	0.163857	0.410605
Cl236	Cl	1.435447	0.663857	0.910605
H237	H	0.432433	0.000182	0.088138
H238	H	0.932433	0.500182	0.588138
Cl239	Cl	0.737239	-0.547704	-0.000076
Cl240	Cl	1.237239	-0.047704	0.499924
