data_functionalizedCrystal
_audit_creation_method	'MofGen! by Chris Wilmer'
_symmetry_space_group_name_H-M	'P1'
_symmetry_Int_Tables_number	1
_symmetry_cell_setting	triclinic
loop_
_symmetry_equiv_pos_as_xyz
  x,y,z
_cell_length_a	12.759395
_cell_length_b	18.050589
_cell_length_c	12.759387
_cell_angle_alpha	89.970013
_cell_angle_beta	89.980569
_cell_angle_gamma	90.028066
loop_
_atom_site_label
_atom_site_type_symbol
_atom_site_fract_x
_atom_site_fract_y
_atom_site_fract_z
Zn1	Zn	1.606170	-0.295623	-0.593981
Zn2	Zn	1.606019	-0.419832	-0.418304
Zn3	Zn	1.430468	-0.295660	-0.418321
Zn4	Zn	1.430419	-0.419776	-0.593946
O5	O	1.518269	-0.357723	-0.506138
O6	O	1.753171	-0.312108	-0.570684
O7	O	1.582689	-0.403400	-0.271285
O8	O	1.453859	-0.191731	-0.441644
O9	O	1.753060	-0.403364	-0.441615
O10	O	1.582946	-0.191704	-0.570701
O11	O	1.453713	-0.312171	-0.271297
O12	O	1.283441	-0.312116	-0.441611
O13	O	1.453775	-0.403268	-0.740972
O14	O	1.283404	-0.403303	-0.570642
O15	O	1.582899	-0.312053	-0.740997
O16	O	1.582642	-0.523749	-0.441581
O17	O	1.453629	-0.523708	-0.570625
C18	C	1.245302	-0.357708	-0.506125
C19	C	1.128525	-0.357720	-0.506144
C20	C	1.518142	-0.550675	-0.506120
C21	C	1.518184	-0.633221	-0.506148
C22	C	1.128621	-0.262849	-0.640761
C23	C	1.073808	-0.215422	-0.708078
C24	C	0.964087	-0.215435	-0.708091
C25	C	0.909175	-0.262879	-0.640778
C26	C	0.963988	-0.310305	-0.573461
C27	C	1.073712	-0.310288	-0.573457
C28	C	0.963892	-0.405171	-0.438840
C29	C	1.073614	-0.405163	-0.438831
C30	C	0.908981	-0.452614	-0.371527
C31	C	0.963793	-0.500046	-0.304214
C32	C	1.073522	-0.500031	-0.304204
C33	C	1.128426	-0.452589	-0.371514
C34	C	1.448096	-0.832676	-0.576298
C35	C	1.422480	-0.882124	-0.480429
C36	C	1.518287	-0.784351	-0.506162
C37	C	1.543955	-0.881985	-0.602041
C38	C	1.518385	-0.930336	-0.506183
C39	C	1.492621	-0.832712	-0.410243
C40	C	1.614141	-0.832569	-0.531919
C41	C	1.588561	-0.881994	-0.435985
C42	C	1.518228	-0.700253	-0.506151
C43	C	1.518444	-1.014433	-0.506184
C44	C	1.792302	-0.357738	-0.506151
C45	C	1.909079	-0.357745	-0.506157
C46	C	1.518348	-0.357650	-0.780171
C47	C	1.518382	-0.357619	-0.896948
C48	C	1.518425	-0.164017	-0.506178
C49	C	1.518491	-0.081471	-0.506196
C50	C	1.652848	-0.262644	-0.896995
C51	C	1.720095	-0.215145	-0.951879
C52	C	1.720121	-0.215118	-1.061600
C53	C	1.652889	-0.262593	-1.116440
C54	C	1.585642	-0.310092	-1.061556
C55	C	1.585626	-0.310116	-0.951832
C56	C	1.451173	-0.405062	-1.061510
C57	C	1.451151	-0.405094	-0.951788
C58	C	1.383942	-0.452537	-1.116350
C59	C	1.316698	-0.500041	-1.061466
C60	C	1.316676	-0.500067	-0.951738
C61	C	1.383904	-0.452593	-0.896905
C62	C	1.518250	-0.357742	-0.233170
C63	C	1.518420	-0.357564	-0.116394
H64	H	1.217962	-0.262830	-0.640753
O65	O	1.246769	-0.452565	-0.371507
H66	H	1.275696	-0.508590	-0.392601
H67	H	1.652907	-0.262561	-1.205782
H68	H	1.341466	-0.903907	-0.458663
H69	H	1.383897	-0.452612	-0.807563
O70	O	1.572671	-0.910653	-0.709432
H71	H	1.514238	-0.890900	-0.767482
O72	O	1.652821	-0.262678	-0.778652
H73	H	1.710862	-0.221685	-0.749739
H74	H	1.470856	-0.811157	-0.329145
H75	H	1.118529	-0.176794	-0.762881
H76	H	1.774831	-0.176491	-0.907216
O77	O	1.792652	-0.163892	-1.120807
H78	H	1.839402	-0.130887	-1.064246
H79	H	0.919458	-0.176812	-0.762900
H80	H	0.819639	-0.452620	-0.371540
H81	H	0.919076	-0.538667	-0.249409
H82	H	1.118144	-0.538649	-0.249383
H83	H	1.388650	-0.811020	-0.635525
H84	H	1.261904	-0.538738	-0.907058
O85	O	0.790832	-0.262886	-0.640775
H86	H	0.761917	-0.277972	-0.719978
O87	O	1.667249	-0.910505	-0.357353
H88	H	1.645737	-0.890664	-0.277886
H89	H	1.383963	-0.452509	-1.205692
O90	O	1.721453	-0.803798	-0.560889
H91	H	1.720727	-0.742314	-0.559923
H92	H	1.261958	-0.538687	-1.106126
