data_functionalizedCrystal
_audit_creation_method	'MofGen! by Chris Wilmer'
_symmetry_space_group_name_H-M	'P1'
_symmetry_Int_Tables_number	1
_symmetry_cell_setting	triclinic
loop_
_symmetry_equiv_pos_as_xyz
  x,y,z
_cell_length_a	14.044220
_cell_length_b	12.837942
_cell_length_c	11.892095
_cell_angle_alpha	85.697431
_cell_angle_beta	94.249598
_cell_angle_gamma	94.008909
loop_
_atom_site_label
_atom_site_type_symbol
_atom_site_fract_x
_atom_site_fract_y
_atom_site_fract_z
O1	O	-1.285971	-0.245911	-0.093880
O2	O	-1.009182	-0.236815	-0.093908
O3	O	-1.141439	-0.089893	-0.093888
O4	O	-1.153714	-0.392833	-0.093900
O5	O	-1.130409	-0.102123	0.094118
O6	O	-0.998153	-0.249045	0.094097
O7	O	-1.274942	-0.258141	0.094126
Zn8	Zn	-1.134796	-0.255535	0.123962
Zn9	Zn	-1.149328	-0.239422	-0.123744
O10	O	-1.142685	-0.405063	0.094105
C11	C	-0.967994	-0.238949	0.000091
C12	C	-0.861696	-0.227074	0.000080
C13	C	-1.131777	-0.057004	0.000114
C14	C	-1.119410	0.059217	0.000111
C15	C	-1.316130	-0.256007	0.000124
C16	C	-1.422428	-0.267882	0.000128
C17	C	-0.667072	-0.205367	0.000103
C18	C	-0.617046	-0.289584	0.000104
C19	C	-0.508751	-0.277506	0.000117
C20	C	-0.775377	-0.217443	0.000090
C21	C	-1.152347	-0.437952	0.000101
C22	C	-1.164714	-0.554172	0.000097
N23	N	-1.124886	-0.266531	0.293014
C24	C	-1.268090	0.286428	0.000103
C25	C	-1.256474	0.395628	0.000100
C26	C	-1.084564	0.386820	0.000094
C27	C	-1.096180	0.277620	0.000097
C28	C	-1.187946	0.227427	0.000103
C29	C	-1.199560	0.118225	0.000114
C30	C	-1.027652	0.109419	0.000100
C31	C	-1.016036	0.218619	0.000097
N32	N	-1.159245	-0.228418	-0.292797
C33	C	-1.228200	-0.151838	0.529678
C34	C	-1.221281	-0.159533	0.648019
C35	C	-1.104122	-0.289609	0.648039
C36	C	-1.111042	-0.281915	0.529698
C37	C	-1.173084	-0.213028	0.470522
C38	C	-1.180008	-0.205339	0.352179
C39	C	-1.062846	-0.335410	0.352201
C40	C	-1.055926	-0.343104	0.470542
H41	H	-0.655549	-0.370756	0.000096
F42	F	-1.004189	-0.400540	0.289231
H43	H	-1.005410	-0.399188	0.518736
H44	H	-0.628571	-0.124202	0.000113
H45	H	-1.274280	0.077360	0.000123
F46	F	-1.365750	0.233005	0.000133
F47	F	-1.294239	-0.078535	0.466698
F48	F	-1.038087	-0.362909	0.711031
F49	F	-1.246041	-0.132028	0.289202
F50	F	-1.341775	0.458417	0.000096
H51	H	-1.009854	0.427706	0.000076
H52	H	-0.941323	0.259501	0.000087
F53	F	-0.942350	0.046618	0.000112
H54	H	-1.266160	-0.109705	0.696181
