data_functionalizedCrystal
_audit_creation_method	'MofGen! by Chris Wilmer'
_symmetry_space_group_name_H-M	'P1'
_symmetry_Int_Tables_number	1
_symmetry_cell_setting	triclinic
loop_
_symmetry_equiv_pos_as_xyz
  x,y,z
_cell_length_a	14.519709
_cell_length_b	10.489741
_cell_length_c	12.996460
_cell_angle_alpha	89.994152
_cell_angle_beta	90.000034
_cell_angle_gamma	84.109659
loop_
_atom_site_label
_atom_site_type_symbol
_atom_site_fract_x
_atom_site_fract_y
_atom_site_fract_z
O1	O	1.224780	0.167204	-0.085432
O2	O	1.724780	0.667204	0.414568
O3	O	0.956410	0.186894	-0.085464
O4	O	1.456410	0.686894	0.414536
O5	O	1.096702	-0.008613	-0.085441
O6	O	1.596702	0.491387	0.414559
O7	O	1.084488	0.362710	-0.085455
O8	O	1.584488	0.862710	0.414545
O9	O	1.096687	-0.008624	0.085693
O10	O	1.596687	0.491376	0.585693
O11	O	0.956395	0.186883	0.085670
O12	O	1.456395	0.686883	0.585670
O13	O	1.224765	0.167193	0.085702
O14	O	1.724765	0.667193	0.585702
Cu15	Cu	1.090579	0.177037	0.101312
Cu16	Cu	1.590579	0.677037	0.601312
Cu17	Cu	1.090596	0.177050	-0.101074
Cu18	Cu	1.590596	0.677050	0.398926
O19	O	1.084474	0.362699	0.085679
O20	O	1.584474	0.862699	0.585679
C21	C	0.922038	0.185971	0.000099
C22	C	1.422038	0.685971	0.500099
C23	C	0.819642	0.183221	0.000088
C24	C	1.319642	0.683221	0.500088
C25	C	0.444691	0.173098	0.000135
C26	C	0.944691	0.673098	0.500135
C27	C	0.549014	0.175909	0.000121
C28	C	1.049014	0.675909	0.500121
C29	C	0.632163	0.178159	0.000110
C30	C	1.132163	0.678159	0.500110
C31	C	0.736493	0.180971	0.000099
C32	C	1.236493	0.680971	0.500099
C33	C	1.095772	-0.056140	0.000125
C34	C	1.595772	0.443860	0.500125
C35	C	1.093012	-0.197741	0.000123
C36	C	1.593012	0.302259	0.500123
C37	C	1.003749	-0.264951	0.000105
C38	C	1.503749	0.235049	0.500105
C39	C	1.045909	-0.357518	0.084488
C40	C	1.545909	0.142482	0.584488
C41	C	1.045944	-0.357482	-0.084237
C42	C	1.545944	0.142518	0.415763
C43	C	1.135209	-0.288443	0.084575
C44	C	1.635209	0.211557	0.584575
C45	C	1.135232	-0.288398	-0.084225
C46	C	1.635232	0.211602	0.415775
C47	C	1.177457	-0.380938	0.000178
C48	C	1.677457	0.119062	0.500178
C49	C	1.259137	0.168116	0.000136
C50	C	1.759137	0.668116	0.500136
C51	C	1.361533	0.170866	0.000142
C52	C	1.861533	0.670866	0.500142
C53	C	1.085403	0.410227	0.000111
C54	C	1.585403	0.910227	0.500111
C55	C	1.088163	0.551828	0.000106
C56	C	1.588163	1.051828	0.500106
N57	N	1.090573	0.177027	0.243659
N58	N	1.590573	0.677027	0.743659
N59	N	1.090609	0.177049	-0.243421
N60	N	1.590609	0.677049	0.256579
C61	C	1.090595	0.177051	0.663473
C62	C	1.590595	0.677051	1.163473
C63	C	1.090586	0.177049	0.546668
C64	C	1.590586	0.677049	1.046668
C65	C	1.090585	0.177040	0.453570
C66	C	1.590585	0.677040	0.953570
C67	C	1.090575	0.177036	0.336757
C68	C	1.590575	0.677036	0.836757
H69	H	0.930357	-0.214534	0.000181
H70	H	1.430357	0.285466	0.500181
C71	C	0.994881	-0.398895	0.180846
C72	C	1.494881	0.101105	0.680846
H73	H	0.933167	-0.358790	0.180739
H74	H	1.433167	0.141210	0.680739
H75	H	1.025995	-0.374105	0.240769
H76	H	1.525995	0.125895	0.740769
H77	H	0.993983	-0.489323	0.180463
H78	H	1.493983	0.010677	0.680463
C79	C	1.276685	-0.448755	0.000252
C80	C	1.776685	0.051245	0.500252
H81	H	1.308234	-0.425134	0.060249
H82	H	1.808234	0.074866	0.560249
H83	H	1.308638	-0.424045	-0.059114
H84	H	1.808638	0.075955	0.440886
H85	H	1.274396	-0.538937	-0.000310
H86	H	1.774396	-0.038937	0.499690
C87	C	0.994919	-0.398799	-0.180610
C88	C	1.494919	0.101201	0.319390
H89	H	1.035639	-0.455915	-0.220344
H90	H	1.535639	0.044085	0.279656
H91	H	0.974826	-0.325371	-0.220606
H92	H	1.474826	0.174629	0.279394
H93	H	0.942810	-0.440623	-0.160328
H94	H	1.442810	0.059377	0.339672
C95	C	1.186171	-0.247339	0.181062
C96	C	1.686171	0.252661	0.681062
H97	H	1.187584	-0.156995	0.180498
H98	H	1.687584	0.343005	0.680498
H99	H	1.247694	-0.288095	0.181317
H100	H	1.747694	0.211905	0.681317
H101	H	1.154657	-0.271548	0.240902
H102	H	1.654657	0.228452	0.740902
C103	C	1.186186	-0.246890	-0.180584
C104	C	1.686186	0.253110	0.319416
H105	H	1.238936	-0.206463	-0.160313
H106	H	1.738936	0.293537	0.339687
H107	H	1.145763	-0.188528	-0.219583
H108	H	1.645763	0.311472	0.280417
H109	H	1.205294	-0.320060	-0.221302
H110	H	1.705294	0.179940	0.278698
