data_functionalizedCrystal
_audit_creation_method	'MofGen! by Chris Wilmer'
_symmetry_space_group_name_H-M	'P1'
_symmetry_Int_Tables_number	1
_symmetry_cell_setting	triclinic
loop_
_symmetry_equiv_pos_as_xyz
  x,y,z
_cell_length_a	19.077142
_cell_length_b	19.805406
_cell_length_c	19.805399
_cell_angle_alpha	89.985648
_cell_angle_beta	92.317588
_cell_angle_gamma	92.304021
loop_
_atom_site_label
_atom_site_type_symbol
_atom_site_fract_x
_atom_site_fract_y
_atom_site_fract_z
Zn1	Zn	-1.076116	-0.311139	-0.424334
Zn2	Zn	-0.742783	0.022194	-0.091001
Zn3	Zn	-0.409449	0.355528	0.242332
Zn4	Zn	-1.076082	-0.424326	-0.311171
Zn5	Zn	-0.742748	-0.090993	0.022162
Zn6	Zn	-0.409415	0.242341	0.355496
Zn7	Zn	-0.958418	-0.306601	-0.306614
Zn8	Zn	-0.625085	0.026732	0.026719
Zn9	Zn	-0.291752	0.360066	0.360052
Zn10	Zn	-0.958435	-0.419735	-0.419775
Zn11	Zn	-0.625101	-0.086402	-0.086442
Zn12	Zn	-0.291768	0.246931	0.246892
O13	O	-1.017263	-0.365450	-0.365474
O14	O	-0.683929	-0.032117	-0.032140
O15	O	-0.350596	0.301216	0.301193
O16	O	-1.174604	-0.329974	-0.413138
O17	O	-0.841271	0.003360	-0.079805
O18	O	-0.507937	0.336693	0.253529
O19	O	-1.060452	-0.408732	-0.215849
O20	O	-0.727119	-0.075398	0.117484
O21	O	-0.393786	0.257935	0.450818
O22	O	-0.974039	-0.212487	-0.322231
O23	O	-0.640705	0.120847	0.011102
O24	O	-0.307372	0.454180	0.344435
O25	O	-1.174579	-0.413132	-0.329997
O26	O	-0.841246	-0.079798	0.003336
O27	O	-0.507912	0.253535	0.336669
O28	O	-1.060511	-0.215821	-0.408720
O29	O	-0.727177	0.117513	-0.075386
O30	O	-0.393844	0.450846	0.257947
O31	O	-0.974005	-0.322240	-0.212501
O32	O	-0.640672	0.011094	0.120832
O33	O	-0.307339	0.344427	0.454165
O34	O	-0.859928	-0.317788	-0.317810
O35	O	-0.526595	0.015545	0.015523
O36	O	-0.193261	0.348878	0.348857
O37	O	-0.974067	-0.405308	-0.515097
O38	O	-0.640733	-0.071975	-0.181764
O39	O	-0.307400	0.261359	0.151569
O40	O	-0.859940	-0.400908	-0.400949
O41	O	-0.526607	-0.067574	-0.067615
O42	O	-0.193273	0.265759	0.265718
O43	O	-1.060526	-0.325522	-0.518447
O44	O	-0.727193	0.007811	-0.185114
O45	O	-0.393860	0.341144	0.148220
O46	O	-1.060468	-0.518433	-0.325576
O47	O	-0.727135	-0.185100	0.007757
O48	O	-0.393801	0.148233	0.341090
O49	O	-0.974033	-0.515061	-0.405367
O50	O	-0.640700	-0.181727	-0.072034
O51	O	-0.307367	0.151606	0.261299
C52	C	-0.834396	-0.358358	-0.358391
C53	C	-0.501063	-0.025025	-0.025057
C54	C	-0.167729	0.308309	0.308276
C55	C	-0.756165	-0.355340	-0.355377
C56	C	-0.422831	-0.022007	-0.022043
C57	C	-0.089498	0.311326	0.311290
C58	C	-1.017268	-0.541307	-0.365487
C59	C	-0.683935	-0.207973	-0.032154
C60	C	-0.350601	0.125360	0.301180
C61	C	-1.017335	-0.616541	-0.365518
C62	C	-0.684001	-0.283208	-0.032184
C63	C	-0.350668	0.050126	0.301149
C64	C	-1.017302	-0.365409	-0.542018
C65	C	-0.683969	-0.032076	-0.208685
C66	C	-0.350635	0.301257	0.124649
C67	C	-1.017319	-0.365392	-0.617251
C68	C	-0.683986	-0.032058	-0.283917
C69	C	-0.350652	0.301275	0.049416
C70	C	-0.719436	-0.397263	-0.397178
C71	C	-0.386103	-0.063930	-0.063845
C72	C	-0.052770	0.269403	0.269488
C73	C	-0.645930	-0.394419	-0.394350
C74	C	-0.312596	-0.061086	-0.061016
C75	C	0.020737	0.272248	0.272317
C76	C	-0.609153	-0.349654	-0.349715
C77	C	-0.275820	-0.016321	-0.016382
C78	C	0.057514	0.317013	0.316952
C79	C	-0.645887	-0.307726	-0.307912
C80	C	-0.312553	0.025607	0.025422
C81	C	0.020780	0.358940	0.358755
C82	C	-0.719392	-0.310568	-0.310744
C83	C	-0.386059	0.022765	0.022589
C84	C	-0.052725	0.356099	0.355922
C85	C	-0.389313	-0.336505	-0.336612
C86	C	-0.055980	-0.003171	-0.003279
C87	C	0.277353	0.330162	0.330055
C88	C	-0.315803	-0.333668	-0.333781
C89	C	0.017530	-0.000335	-0.000448
C90	C	0.350864	0.332999	0.332886
C91	C	-0.315851	-0.420360	-0.420220
C92	C	0.017482	-0.087027	-0.086887
C93	C	0.350815	0.246307	0.246446
C94	C	-0.389358	-0.423200	-0.423046
C95	C	-0.056025	-0.089867	-0.089713
C96	C	0.277309	0.243466	0.243620
C97	C	-0.426085	-0.381270	-0.381245
C98	C	-0.092752	-0.047937	-0.047912
C99	C	0.240582	0.285397	0.285421
N100	N	-0.534018	-0.346747	-0.346821
N101	N	-0.200684	-0.013414	-0.013488
N102	N	0.132649	0.319920	0.319846
N103	N	-0.501219	-0.384174	-0.384143
N104	N	-0.167886	-0.050841	-0.050810
N105	N	0.165447	0.282492	0.282523
C106	C	-0.200843	-0.372567	-0.372577
C107	C	0.132490	-0.039234	-0.039243
C108	C	0.465823	0.294099	0.294090
C109	C	-0.279075	-0.375591	-0.375583
C110	C	0.054259	-0.042258	-0.042250
C111	C	0.387592	0.291076	0.291084
C112	C	-1.017277	-0.188908	-0.365476
C113	C	-0.683943	0.144425	-0.032142
C114	C	-0.350610	0.477758	0.301191
C115	C	-1.017283	-0.113676	-0.365477
C116	C	-0.683949	0.219657	-0.032143
C117	C	-0.350616	0.552990	0.301190
C118	C	-0.972267	-0.076596	-0.320449
C119	C	-0.638934	0.256738	0.012885
C120	C	-0.305600	0.590071	0.346218
C121	C	-0.972271	-0.005907	-0.320456
C122	C	-0.638938	0.327426	0.012877
C123	C	-0.305605	0.660759	0.346210
C124	C	-1.017296	0.027699	-0.365489
C125	C	-0.683962	0.361032	-0.032156
C126	C	-0.350629	0.694365	0.301178
C127	C	-1.062313	-0.009387	-0.410522
C128	C	-0.728980	0.323946	-0.077189
C129	C	-0.395647	0.657279	0.256145
C130	C	-1.062305	-0.080074	-0.410517
C131	C	-0.728971	0.253259	-0.077184
C132	C	-0.395638	0.586593	0.256150
C133	C	-1.062348	0.275685	-0.410543
C134	C	-0.729015	0.609018	-0.077210
C135	C	-0.395681	0.942351	0.256124
C136	C	-1.062354	0.346377	-0.410543
C137	C	-0.729021	0.679710	-0.077210
C138	C	-0.395688	1.013043	0.256124
C139	C	-0.972314	0.349851	-0.320482
C140	C	-0.638981	0.683185	0.012851
C141	C	-0.305648	1.016518	0.346184
C142	C	-0.972306	0.279165	-0.320477
C143	C	-0.638973	0.612498	0.012856
C144	C	-0.305639	0.945831	0.346189
C145	C	-1.017321	0.242085	-0.365512
C146	C	-0.683987	0.575418	-0.032179
C147	C	-0.350654	0.908752	0.301154
C148	C	-1.017314	0.165437	-0.365504
C149	C	-0.683981	0.498770	-0.032171
C150	C	-0.350648	0.832104	0.301162
C151	C	-1.017306	0.104345	-0.365494
C152	C	-0.683973	0.437679	-0.032161
C153	C	-0.350639	0.771012	0.301172
C154	C	-1.062340	-0.323845	-0.654340
C155	C	-0.729006	0.009488	-0.321007
C156	C	-0.395673	0.342821	0.012327
C157	C	-1.062347	-0.323826	-0.725029
C158	C	-0.729014	0.009507	-0.391696
C159	C	-0.395680	0.342841	-0.058362
C160	C	-1.017336	-0.365357	-0.758627
C161	C	-0.684003	-0.032024	-0.425294
C162	C	-0.350670	0.301310	-0.091960
C163	C	-0.972311	-0.406905	-0.721532
C164	C	-0.638977	-0.073572	-0.388199
C165	C	-0.305644	0.259762	-0.054866
C166	C	-0.972301	-0.406920	-0.650845
C167	C	-0.638967	-0.073587	-0.317511
C168	C	-0.305634	0.259746	0.015822
C169	C	-0.972350	-0.406844	-1.006607
C170	C	-0.639017	-0.073510	-0.673274
C171	C	-0.305684	0.259823	-0.339941
C172	C	-0.972366	-0.406827	-1.077300
C173	C	-0.639032	-0.073493	-0.743967
C174	C	-0.305699	0.259840	-0.410633
C175	C	-1.062397	-0.323749	-1.080791
C176	C	-0.729063	0.009584	-0.747458
C177	C	-0.395730	0.342918	-0.414125
C178	C	-1.062387	-0.323764	-1.010104
C179	C	-0.729053	0.009569	-0.676771
C180	C	-0.395720	0.342902	-0.343437
C181	C	-1.017359	-0.365310	-0.973015
C182	C	-0.684025	-0.031976	-0.639682
C183	C	-0.350692	0.301357	-0.306349
C184	C	-1.017350	-0.365329	-0.896366
C185	C	-0.684017	-0.031996	-0.563033
C186	C	-0.350684	0.301337	-0.229700
C187	C	-1.017348	-0.365342	-0.835275
C188	C	-0.684014	-0.032008	-0.501941
C189	C	-0.350681	0.301325	-0.168608
C190	C	-1.017264	-0.365444	-0.189618
C191	C	-0.683931	-0.032111	0.143716
C192	C	-0.350597	0.301223	0.477049
C193	C	-1.017383	-0.365276	-0.114391
C194	C	-0.684050	-0.031943	0.218943
C195	C	-0.350717	0.301391	0.552276
H196	H	-0.749375	-0.433718	-0.433522
H197	H	-0.416041	-0.100385	-0.100189
H198	H	-0.082708	0.232949	0.233144
Br199	Br	-0.769239	-0.253666	-0.254015
Br200	Br	-0.435905	0.079667	0.079319
Br201	Br	-0.102572	0.413001	0.412652
Br202	Br	-0.595976	-0.246967	-0.247342
Br203	Br	-0.262643	0.086367	0.085992
Br204	Br	0.070690	0.419700	0.419325
H205	H	-1.098956	-0.110264	-0.447188
H206	H	-0.765622	0.223069	-0.113855
H207	H	-0.432289	0.556402	0.219478
Br208	Br	-0.911165	-0.122197	-0.259324
Br209	Br	-0.577831	0.211136	0.074009
Br210	Br	-0.244498	0.544470	0.407343
Br211	Br	-1.123482	-0.267472	-0.775364
Br212	Br	-0.790149	0.065861	-0.442030
Br213	Br	-0.456815	0.399195	-0.108697
H214	H	-0.935616	0.024284	-0.283792
H215	H	-0.602282	0.357617	0.049542
H216	H	-0.268949	0.690950	0.382875
H217	H	-1.099020	0.373737	-0.447217
H218	H	-0.765686	0.707071	-0.113883
H219	H	-0.432353	1.040404	0.219450
H220	H	-0.935645	0.251806	-0.283805
H221	H	-0.602312	0.585139	0.049528
H222	H	-0.268978	0.918473	0.382862
H223	H	-0.419296	-0.459654	-0.459391
H224	H	-0.085963	-0.126321	-0.126057
H225	H	0.247370	0.207012	0.207276
Br226	Br	-0.266004	-0.477265	-0.476944
Br227	Br	0.067330	-0.143931	-0.143611
Br228	Br	0.400663	0.189402	0.189722
H229	H	-1.098970	0.017979	-0.447192
H230	H	-0.765637	0.351312	-0.113859
H231	H	-0.432304	0.684646	0.219475
H232	H	-0.419208	-0.302367	-0.302570
H233	H	-0.085875	0.030966	0.030764
H234	H	0.247459	0.364299	0.364097
H235	H	-0.935658	0.380049	-0.283814
H236	H	-0.602325	0.713383	0.049519
H237	H	-0.268992	1.046716	0.382852
Br238	Br	-1.123434	-0.267484	-0.608750
Br239	Br	-0.790101	0.065849	-0.275417
Br240	Br	-0.456768	0.399183	0.057917
Br241	Br	-1.123431	0.225372	-0.471670
Br242	Br	-0.790097	0.558705	-0.138337
Br243	Br	-0.456764	0.892038	0.194997
Br244	Br	-1.123478	-0.267403	-0.964510
Br245	Br	-0.790145	0.065930	-0.631177
Br246	Br	-0.456811	0.399264	-0.297843
Br247	Br	-0.911240	-0.463225	-0.956281
Br248	Br	-0.577906	-0.129892	-0.622948
Br249	Br	-0.244573	0.203442	-0.289615
H250	H	-1.099058	-0.289919	-1.110997
H251	H	-0.765725	0.043415	-0.777664
H252	H	-0.432392	0.376748	-0.444331
Br253	Br	-0.911277	-0.463195	-1.122897
Br254	Br	-0.577944	-0.129862	-0.789564
Br255	Br	-0.244610	0.203472	-0.456231
H256	H	-0.935633	-0.440745	-0.620647
H257	H	-0.602300	-0.107411	-0.287313
H258	H	-0.268966	0.225922	0.046020
Br259	Br	-0.596086	-0.451316	-0.451085
Br260	Br	-0.262753	-0.117982	-0.117752
Br261	Br	0.070580	0.215351	0.215582
Br262	Br	-0.265892	-0.272919	-0.273194
Br263	Br	0.067441	0.060414	0.060139
Br264	Br	0.400775	0.393748	0.393472
Br265	Br	-0.911220	-0.463265	-0.767129
Br266	Br	-0.577887	-0.129932	-0.433795
Br267	Br	-0.244553	0.203401	-0.100462
