data_functionalizedCrystal
_audit_creation_method	'MofGen! by Chris Wilmer'
_symmetry_space_group_name_H-M	'P1'
_symmetry_Int_Tables_number	1
_symmetry_cell_setting	triclinic
loop_
_symmetry_equiv_pos_as_xyz
  x,y,z
_cell_length_a	21.395364
_cell_length_b	19.805405
_cell_length_c	19.805407
_cell_angle_alpha	90.010665
_cell_angle_beta	90.004597
_cell_angle_gamma	90.041677
loop_
_atom_site_label
_atom_site_type_symbol
_atom_site_fract_x
_atom_site_fract_y
_atom_site_fract_z
Zn1	Zn	0.957753	-0.269315	0.382707
Zn2	Zn	1.207753	-0.019315	0.632707
Zn3	Zn	1.457753	0.230685	0.882707
Zn4	Zn	1.707753	0.480685	1.132707
Zn5	Zn	0.957699	-0.382472	0.269521
Zn6	Zn	1.207699	-0.132472	0.519521
Zn7	Zn	1.457699	0.117528	0.769521
Zn8	Zn	1.707699	0.367528	1.019521
Zn9	Zn	0.853005	-0.269332	0.269534
Zn10	Zn	1.103005	-0.019332	0.519534
Zn11	Zn	1.353005	0.230668	0.769534
Zn12	Zn	1.603005	0.480668	1.019534
Zn13	Zn	0.852945	-0.382497	0.382669
Zn14	Zn	1.102945	-0.132497	0.632669
Zn15	Zn	1.352945	0.117503	0.882669
Zn16	Zn	1.602945	0.367503	1.132669
O17	O	0.905350	-0.325904	0.326108
O18	O	1.155350	-0.075904	0.576108
O19	O	1.405350	0.174096	0.826108
O20	O	1.655350	0.424096	1.076108
O21	O	1.045424	-0.284308	0.367703
O22	O	1.295424	-0.034308	0.617703
O23	O	1.545424	0.215692	0.867703
O24	O	1.795424	0.465692	1.117703
O25	O	0.943814	-0.367461	0.174806
O26	O	1.193814	-0.117461	0.424806
O27	O	1.443814	0.132539	0.674806
O28	O	1.693814	0.382539	0.924806
O29	O	0.866947	-0.174613	0.284567
O30	O	1.116947	0.075387	0.534567
O31	O	1.366947	0.325387	0.784567
O32	O	1.616947	0.575387	1.034567
O33	O	1.045384	-0.367444	0.284546
O34	O	1.295384	-0.117444	0.534546
O35	O	1.545384	0.132556	0.784546
O36	O	1.795384	0.382556	1.034546
O37	O	0.943906	-0.174601	0.367716
O38	O	1.193906	0.075399	0.617716
O39	O	1.443906	0.325399	0.867716
O40	O	1.693906	0.575399	1.117716
O41	O	0.866895	-0.284337	0.174815
O42	O	1.116895	-0.034337	0.424815
O43	O	1.366895	0.215663	0.674815
O44	O	1.616895	0.465663	0.924815
O45	O	0.765319	-0.284361	0.284531
O46	O	1.015319	-0.034361	0.534531
O47	O	1.265319	0.215639	0.784531
O48	O	1.515319	0.465639	1.034531
O49	O	0.866845	-0.367487	0.477391
O50	O	1.116845	-0.117487	0.727391
O51	O	1.366845	0.132513	0.977391
O52	O	1.616845	0.382513	1.227391
O53	O	0.765275	-0.367503	0.367651
O54	O	1.015275	-0.117503	0.617651
O55	O	1.265275	0.132497	0.867651
O56	O	1.515275	0.382497	1.117651
O57	O	0.943847	-0.284333	0.477419
O58	O	1.193847	-0.034333	0.727419
O59	O	1.443847	0.215667	0.977419
O60	O	1.693847	0.465667	1.227419
O61	O	0.943756	-0.477192	0.284509
O62	O	1.193756	-0.227192	0.534509
O63	O	1.443756	0.022808	0.784509
O64	O	1.693756	0.272808	1.034509
O65	O	0.866793	-0.477211	0.367639
O66	O	1.116793	-0.227211	0.617639
O67	O	1.366793	0.022789	0.867639
O68	O	1.616793	0.272789	1.117639
C69	C	0.742563	-0.325937	0.326089
C70	C	0.992563	-0.075937	0.576089
C71	C	1.242563	0.174063	0.826089
C72	C	1.492563	0.424063	1.076089
C73	C	0.672922	-0.325968	0.326097
C74	C	0.922922	-0.075968	0.576097
C75	C	1.172922	0.174032	0.826097
C76	C	1.422922	0.424032	1.076097
C77	C	0.640251	-0.282750	0.369464
C78	C	0.890251	-0.032750	0.619464
C79	C	1.140251	0.217250	0.869464
C80	C	1.390251	0.467250	1.119464
C81	C	0.574816	-0.282732	0.369466
C82	C	0.824816	-0.032732	0.619466
C83	C	1.074816	0.217268	0.869466
C84	C	1.324816	0.467268	1.119466
C85	C	0.542053	-0.325944	0.326109
C86	C	0.792053	-0.075944	0.576109
C87	C	1.042053	0.174056	0.826109
C88	C	1.292053	0.424056	1.076109
C89	C	0.574731	-0.369165	0.282734
C90	C	0.824731	-0.119165	0.532734
C91	C	1.074731	0.130835	0.782734
C92	C	1.324731	0.380835	1.032734
C93	C	0.640166	-0.369177	0.282727
C94	C	0.890166	-0.119177	0.532727
C95	C	1.140166	0.130823	0.782727
C96	C	1.390166	0.380823	1.032727
C97	C	0.438335	-0.386897	0.320668
C98	C	0.688335	-0.136897	0.570668
C99	C	0.938335	0.113103	0.820668
C100	C	1.188335	0.363103	1.070668
C101	C	0.372902	-0.386887	0.320679
C102	C	0.622902	-0.136887	0.570679
C103	C	0.872902	0.113113	0.820679
C104	C	1.122902	0.363113	1.070679
C105	C	0.340232	-0.325906	0.326124
C106	C	0.590232	-0.075906	0.576124
C107	C	0.840232	0.174094	0.826124
C108	C	1.090232	0.424094	1.076124
C109	C	0.373004	-0.264935	0.331572
C110	C	0.623004	-0.014935	0.581572
C111	C	0.873004	0.235065	0.831572
C112	C	1.123004	0.485065	1.081572
C113	C	0.438439	-0.264947	0.331566
C114	C	0.688439	-0.014947	0.581566
C115	C	0.938439	0.235053	0.831566
C116	C	1.188439	0.485053	1.081566
C117	C	0.471101	-0.325935	0.326110
C118	C	0.721101	-0.075935	0.576110
C119	C	0.971101	0.174065	0.826110
C120	C	1.221101	0.424065	1.076110
C121	C	0.236610	-0.282665	0.369496
C122	C	0.486610	-0.032665	0.619496
C123	C	0.736610	0.217335	0.869496
C124	C	0.986610	0.467335	1.119496
C125	C	0.171173	-0.282646	0.369494
C126	C	0.421173	-0.032646	0.619494
C127	C	0.671173	0.217354	0.869494
C128	C	0.921173	0.467354	1.119494
C129	C	0.171090	-0.369085	0.282765
C130	C	0.421090	-0.119085	0.532765
C131	C	0.671090	0.130915	0.782765
C132	C	0.921090	0.380915	1.032765
C133	C	0.236525	-0.369098	0.282763
C134	C	0.486525	-0.119098	0.532763
C135	C	0.736525	0.130902	0.782763
C136	C	0.986525	0.380902	1.032763
C137	C	0.269281	-0.325889	0.326133
C138	C	0.519281	-0.075889	0.576133
C139	C	0.769281	0.174111	0.826133
C140	C	1.019281	0.424111	1.076133
C141	C	0.905279	-0.501760	0.326083
C142	C	1.155279	-0.251760	0.576083
C143	C	1.405279	-0.001760	0.826083
C144	C	1.655279	0.248240	1.076083
C145	C	0.905306	-0.576992	0.326095
C146	C	1.155306	-0.326992	0.576095
C147	C	1.405306	-0.076992	0.826095
C148	C	1.655306	0.173008	1.076095
C149	C	0.945354	-0.612272	0.369425
C150	C	1.195354	-0.362272	0.619425
C151	C	1.445354	-0.112272	0.869425
C152	C	1.695354	0.137728	1.119425
C153	C	0.945377	-0.682960	0.369437
C154	C	1.195377	-0.432960	0.619437
C155	C	1.445377	-0.182960	0.869437
C156	C	1.695377	0.067040	1.119437
C157	C	0.905354	-0.718368	0.326117
C158	C	1.155354	-0.468368	0.576117
C159	C	1.405354	-0.218368	0.826117
C160	C	1.655354	0.031632	1.076117
C161	C	0.865301	-0.683083	0.282786
C162	C	1.115301	-0.433083	0.532786
C163	C	1.365301	-0.183083	0.782786
C164	C	1.615301	0.066917	1.032786
C165	C	0.865276	-0.612396	0.282777
C166	C	1.115276	-0.362396	0.532777
C167	C	1.365276	-0.112396	0.782777
C168	C	1.615276	0.137604	1.032777
C169	C	0.865401	-0.968157	0.282820
C170	C	1.115401	-0.718157	0.532820
C171	C	1.365401	-0.468157	0.782820
C172	C	1.615401	-0.218157	1.032820
C173	C	0.865431	-1.038849	0.282831
C174	C	1.115431	-0.788849	0.532831
C175	C	1.365431	-0.538849	0.782831
C176	C	1.615431	-0.288849	1.032831
C177	C	0.945503	-1.038721	0.369480
C178	C	1.195503	-0.788721	0.619480
C179	C	1.445503	-0.538721	0.869480
C180	C	1.695503	-0.288721	1.119480
C181	C	0.945478	-0.968034	0.369472
C182	C	1.195478	-0.718034	0.619472
C183	C	1.445478	-0.468034	0.869472
C184	C	1.695478	-0.218034	1.119472
C185	C	0.905423	-0.932755	0.326144
C186	C	1.155423	-0.682755	0.576144
C187	C	1.405423	-0.432755	0.826144
C188	C	1.655423	-0.182755	1.076144
C189	C	0.905398	-0.856107	0.326131
C190	C	1.155398	-0.606107	0.576131
C191	C	1.405398	-0.356107	0.826131
C192	C	1.655398	-0.106107	1.076131
C193	C	0.905381	-0.795015	0.326125
C194	C	1.155381	-0.545015	0.576125
C195	C	1.405381	-0.295015	0.826125
C196	C	1.655381	-0.045015	1.076125
C197	C	1.068774	-0.325872	0.326127
C198	C	1.318774	-0.075872	0.576127
C199	C	1.568774	0.174128	0.826127
C200	C	1.818774	0.424128	1.076127
C201	C	1.138415	-0.325858	0.326135
C202	C	1.388415	-0.075858	0.576135
C203	C	1.638415	0.174142	0.826135
C204	C	1.888415	0.424142	1.076135
C205	C	0.905346	-0.325911	0.502650
C206	C	1.155346	-0.075911	0.752650
C207	C	1.405346	0.174089	1.002650
C208	C	1.655346	0.424089	1.252650
C209	C	0.905343	-0.325914	0.577882
C210	C	1.155343	-0.075914	0.827882
C211	C	1.405343	0.174086	1.077882
C212	C	1.655343	0.424086	1.327882
C213	C	0.905439	-0.149362	0.326147
C214	C	1.155439	0.100638	0.576147
C215	C	1.405439	0.350638	0.826147
C216	C	1.655439	0.600638	1.076147
C217	C	0.905477	-0.074130	0.326164
C218	C	1.155477	0.175870	0.576164
C219	C	1.405477	0.425870	0.826164
C220	C	1.655477	0.675870	1.076164
C221	C	0.945437	-0.282611	1.039689
C222	C	1.195437	-0.032611	1.289689
C223	C	1.445437	0.217389	1.539689
C224	C	1.695437	0.467389	1.789689
C225	C	0.945439	-0.282614	0.969000
C226	C	1.195439	-0.032614	1.219000
C227	C	1.445439	0.217386	1.469000
C228	C	1.695439	0.467386	1.719000
C229	C	0.905348	-0.325908	0.933644
C230	C	1.155348	-0.075908	1.183644
C231	C	1.405348	0.174092	1.433644
C232	C	1.655348	0.424092	1.683644
C233	C	0.865257	-0.369207	0.968980
C234	C	1.115257	-0.119207	1.218980
C235	C	1.365257	0.130793	1.468980
C236	C	1.615257	0.380793	1.718980
C237	C	0.865259	-0.369207	1.039667
C238	C	1.115259	-0.119207	1.289667
C239	C	1.365259	0.130793	1.539667
C240	C	1.615259	0.380793	1.789667
C241	C	0.865251	-0.369210	0.683907
C242	C	1.115251	-0.119210	0.933907
C243	C	1.365251	0.130790	1.183907
C244	C	1.615251	0.380790	1.433907
C245	C	0.865251	-0.369205	0.613214
C246	C	1.115251	-0.119205	0.863214
C247	C	1.365251	0.130795	1.113214
C248	C	1.615251	0.380795	1.363214
C249	C	0.945430	-0.282616	0.613240
C250	C	1.195430	-0.032616	0.863240
C251	C	1.445430	0.217384	1.113240
C252	C	1.695430	0.467384	1.363240
C253	C	0.945432	-0.282616	0.683927
C254	C	1.195432	-0.032616	0.933927
C255	C	1.445432	0.217384	1.183927
C256	C	1.695432	0.467384	1.433927
C257	C	0.905344	-0.325917	0.719257
C258	C	1.155344	-0.075917	0.969257
C259	C	1.405344	0.174083	1.219257
C260	C	1.655344	0.424083	1.469257
C261	C	0.905343	-0.325914	0.795905
C262	C	1.155343	-0.075914	1.045905
C263	C	1.405343	0.174086	1.295905
C264	C	1.655343	0.424086	1.545905
C265	C	0.905345	-0.325908	0.856997
C266	C	1.155345	-0.075908	1.106997
C267	C	1.405345	0.174092	1.356997
C268	C	1.655345	0.424092	1.606997
C269	C	0.905349	-0.325912	1.150252
C270	C	1.155349	-0.075912	1.400252
C271	C	1.405349	0.174088	1.650252
C272	C	1.655349	0.424088	1.900252
C273	C	0.905348	-0.325905	1.075020
C274	C	1.155348	-0.075905	1.325020
C275	C	1.405348	0.174095	1.575020
C276	C	1.655348	0.424095	1.825020
H277	H	0.465119	-0.215302	0.336000
H278	H	0.715119	0.034698	0.586000
H279	H	0.965119	0.284698	0.836000
H280	H	1.215119	0.534698	1.086000
F281	F	0.822579	-0.415288	0.575587
F282	F	1.072579	-0.165288	0.825587
F283	F	1.322579	0.084712	1.075587
F284	F	1.572579	0.334712	1.325587
F285	F	0.988108	-0.236534	0.931402
F286	F	1.238108	0.013466	1.181402
F287	F	1.488108	0.263466	1.431402
F288	F	1.738108	0.513466	1.681402
H289	H	0.346224	-0.436533	0.316246
H290	H	0.596224	-0.186533	0.566246
H291	H	0.846224	0.063467	0.816246
H292	H	1.096224	0.313467	1.066246
H293	H	0.346407	-0.215279	0.336006
H294	H	0.596407	0.034721	0.586006
H295	H	0.846407	0.284721	0.836006
H296	H	1.096407	0.534721	1.086006
F297	F	0.822592	-0.415288	1.077268
F298	F	1.072592	-0.165288	1.327268
F299	F	1.322592	0.084712	1.577268
F300	F	1.572592	0.334712	1.827268
F301	F	0.988077	-0.930354	0.415577
F302	F	1.238077	-0.680354	0.665577
F303	F	1.488077	-0.430354	0.915577
F304	F	1.738077	-0.180354	1.165577
F305	F	0.822587	-0.415297	0.721498
F306	F	1.072587	-0.165297	0.971498
F307	F	1.322587	0.084703	1.221498
F308	F	1.572587	0.334703	1.471498
H309	H	0.977993	-0.711682	0.404715
H310	H	1.227993	-0.461682	0.654715
H311	H	1.477993	-0.211682	0.904715
H312	H	1.727993	0.038318	1.154715
H313	H	0.978076	-0.247359	0.712711
H314	H	1.228076	0.002641	0.962711
H315	H	1.478076	0.252641	1.212711
H316	H	1.728076	0.502641	1.462711
F317	F	0.136403	-0.236642	0.415651
F318	F	0.386403	0.013358	0.665651
F319	F	0.636403	0.263358	0.915651
F320	F	0.886403	0.513358	1.165651
H321	H	0.144415	-0.404269	0.247462
H322	H	0.394415	-0.154269	0.497462
H323	H	0.644415	0.095731	0.747462
H324	H	0.894415	0.345731	0.997462
F325	F	0.473097	-0.451805	0.314865
F326	F	0.723097	-0.201805	0.564865
F327	F	0.973097	0.048195	0.814865
F328	F	1.223097	0.298195	1.064865
F329	F	0.539862	-0.415152	0.236587
F330	F	0.789862	-0.165152	0.486587
F331	F	1.039862	0.084848	0.736587
F332	F	1.289862	0.334848	0.986587
H333	H	0.978115	-1.067453	0.404763
H334	H	1.228115	-0.817453	0.654763
H335	H	1.478115	-0.567453	0.904763
H336	H	1.728115	-0.317453	1.154763
H337	H	0.832837	-1.067676	0.247553
H338	H	1.082837	-0.817676	0.497553
H339	H	1.332837	-0.567676	0.747553
H340	H	1.582837	-0.317676	0.997553
F341	F	0.271473	-0.236675	0.415649
F342	F	0.521473	0.013325	0.665649
F343	F	0.771473	0.263325	0.915649
F344	F	1.021473	0.513325	1.165649
F345	F	0.674937	-0.415176	0.236566
F346	F	0.924937	-0.165176	0.486566
F347	F	1.174937	0.084824	0.736566
F348	F	1.424937	0.334824	0.986566
H349	H	0.977948	-0.583448	0.404698
H350	H	1.227948	-0.333448	0.654698
H351	H	1.477948	-0.083448	0.904698
H352	H	1.727948	0.166552	1.154698
H353	H	0.832618	-0.404462	0.940187
H354	H	1.082618	-0.154462	1.190187
H355	H	1.332618	0.095538	1.440187
H356	H	1.582618	0.345538	1.690187
F357	F	0.822767	-0.930620	0.236712
F358	F	1.072767	-0.680620	0.486712
F359	F	1.322767	-0.430620	0.736712
F360	F	1.572767	-0.180620	0.986712
H361	H	0.978079	-0.247351	1.068471
H362	H	1.228079	0.002649	1.318471
H363	H	1.478079	0.252649	1.568471
H364	H	1.728079	0.502649	1.818471
H365	H	0.832711	-0.711918	0.247516
H366	H	1.082711	-0.461918	0.497516
H367	H	1.332711	-0.211918	0.747516
H368	H	1.582711	0.038082	0.997516
F369	F	0.271297	-0.415095	0.236603
F370	F	0.521297	-0.165095	0.486603
F371	F	0.771297	0.084905	0.736603
F372	F	1.021297	0.334905	0.986603
F373	F	0.988096	-0.236529	0.575634
F374	F	1.238096	0.013471	0.825634
F375	F	1.488096	0.263471	1.075634
F376	F	1.738096	0.513471	1.325634
F377	F	0.675109	-0.236762	0.415620
F378	F	0.925109	0.013238	0.665620
F379	F	1.175109	0.263238	0.915620
F380	F	1.425109	0.513238	1.165620
F381	F	0.822650	-0.574849	0.236661
F382	F	1.072650	-0.324849	0.486661
F383	F	1.322650	-0.074849	0.736661
F384	F	1.572650	0.175151	0.986661
H385	H	0.548211	-0.247535	0.404780
H386	H	0.798211	0.002465	0.654780
H387	H	1.048211	0.252465	0.904780
H388	H	1.298211	0.502465	1.154780
