data_functionalizedCrystal
_audit_creation_method	'MofGen! by Chris Wilmer'
_symmetry_space_group_name_H-M	'P1'
_symmetry_Int_Tables_number	1
_symmetry_cell_setting	triclinic
loop_
_symmetry_equiv_pos_as_xyz
  x,y,z
_cell_length_a	16.992694
_cell_length_b	27.731996
_cell_length_c	15.455313
_cell_angle_alpha	92.636264
_cell_angle_beta	87.142206
_cell_angle_gamma	86.644806
loop_
_atom_site_label
_atom_site_type_symbol
_atom_site_fract_x
_atom_site_fract_y
_atom_site_fract_z
O1	O	1.042576	0.100468	-0.072041
O2	O	1.542576	0.600468	0.427959
O3	O	0.814306	0.099344	-0.072066
O4	O	1.314306	0.599344	0.427934
O5	O	0.935551	0.029815	-0.072034
O6	O	1.435551	0.529815	0.427966
O7	O	0.921331	0.169996	-0.072073
O8	O	1.421331	0.669996	0.427927
O9	O	0.928618	0.033774	0.072226
O10	O	1.428618	0.533774	0.572226
O11	O	0.807373	0.103302	0.072194
O12	O	1.307373	0.603302	0.572194
O13	O	1.035643	0.104427	0.072219
O14	O	1.535643	0.604427	0.572219
Cu15	Cu	0.920875	0.104226	0.085379
Cu16	Cu	1.420875	0.604226	0.585379
Cu17	Cu	0.929074	0.099544	-0.085226
Cu18	Cu	1.429074	0.599544	0.414774
O19	O	0.914398	0.173955	0.072187
O20	O	1.414398	0.673955	0.572187
C21	C	0.781645	0.099877	0.000061
C22	C	1.281645	0.599877	0.500061
C23	C	0.694655	0.095563	0.000052
C24	C	1.194655	0.595563	0.500052
C25	C	0.643898	0.137186	0.000041
C26	C	1.143898	0.637186	0.500041
C27	C	0.562161	0.133130	0.000054
C28	C	1.062161	0.633130	0.500054
C29	C	0.531183	0.087450	0.000072
C30	C	1.031183	0.587450	0.500072
C31	C	0.581946	0.045824	0.000086
C32	C	1.081946	0.545824	0.500086
C33	C	0.663681	0.049880	0.000079
C34	C	1.163681	0.549880	0.500079
C35	C	0.287793	0.070637	0.000100
C36	C	0.787793	0.570637	0.500100
C37	C	0.206051	0.066584	0.000104
C38	C	0.706051	0.566584	0.500104
C39	C	0.186272	0.153891	0.000075
C40	C	0.686272	0.653891	0.500075
C41	C	0.268009	0.157943	0.000063
C42	C	0.768009	0.657943	0.500063
C43	C	0.318765	0.116317	0.000081
C44	C	0.818765	0.616317	0.500081
N45	N	0.447635	0.083303	0.000083
N46	N	0.947635	0.583303	0.500083
N47	N	0.402311	0.120464	0.000076
N48	N	0.902311	0.620464	0.500076
C49	C	0.931792	0.013775	0.000099
C50	C	1.431792	0.513775	0.500099
C51	C	0.930912	-0.039919	0.000108
C52	C	1.430912	0.460081	0.500108
C53	C	0.929157	-0.375034	-0.078571
C54	C	1.429157	0.124966	0.421429
C55	C	0.925816	-0.576837	-0.078587
C56	C	1.425816	-0.076837	0.421413
O57	O	0.928564	-0.604763	-0.145465
O58	O	1.428564	-0.104763	0.354535
N59	N	0.921622	-0.599915	0.000048
N60	N	1.421622	-0.099915	0.500048
C61	C	0.918257	-0.572538	0.078693
C62	C	1.418257	-0.072538	0.578693
O63	O	0.914605	-0.596796	0.145577
O64	O	1.414605	-0.096796	0.645577
C65	C	0.921592	-0.370735	0.078708
C66	C	1.421592	0.129265	0.578708
C67	C	0.925795	-0.347661	0.000068
C68	C	1.425795	0.152339	0.500068
C69	C	0.933358	-0.351960	-0.157206
C70	C	1.433358	0.148040	0.342794
C71	C	0.934197	-0.301512	-0.157201
C72	C	1.434197	0.198488	0.342799
C73	C	0.930835	-0.274139	-0.078562
C74	C	1.430835	0.225861	0.421438
C75	C	0.926634	-0.297213	0.000072
C76	C	1.426634	0.202787	0.500072
C77	C	0.918222	-0.343359	0.157352
C78	C	1.418222	0.156641	0.657352
C79	C	0.919055	-0.292905	0.157349
C80	C	1.419055	0.207095	0.657349
C81	C	0.923257	-0.269831	0.078708
C82	C	1.423257	0.230169	0.578708
C83	C	0.924112	-0.219393	0.078716
C84	C	1.424112	0.280607	0.578716
N85	N	0.928306	-0.196315	0.000080
N86	N	1.428306	0.303685	0.500080
C87	C	0.931668	-0.223688	-0.078559
C88	C	1.431668	0.276312	0.421441
C89	C	0.916508	-0.678487	0.078680
C90	C	1.416508	-0.178487	0.578680
C91	C	0.915676	-0.728937	0.078677
C92	C	1.415676	-0.228937	0.578677
C93	C	0.923233	-0.733234	-0.078604
C94	C	1.423233	-0.233234	0.421396
C95	C	0.924071	-0.682782	-0.078600
C96	C	1.424071	-0.182782	0.421400
C97	C	0.920702	-0.655410	0.000045
C98	C	1.420702	-0.155410	0.500045
C99	C	0.933431	-0.117745	-0.078543
C100	C	1.433431	0.382255	0.421457
C101	C	0.934273	-0.067293	-0.078531
C102	C	1.434273	0.432707	0.421469
C103	C	0.926712	-0.063001	0.078749
C104	C	1.426712	0.436999	0.578749
C105	C	0.925874	-0.113449	0.078738
C106	C	1.425874	0.386551	0.578738
C107	C	0.929231	-0.140819	0.000085
C108	C	1.429231	0.359181	0.500085
O109	O	0.921357	-0.191436	0.145558
O110	O	1.421357	0.308564	0.645558
O111	O	0.935302	-0.199420	-0.145433
O112	O	1.435302	0.300580	0.354567
C113	C	0.928317	-0.425482	-0.078576
C114	C	1.428317	0.074518	0.421424
C115	C	0.924116	-0.448556	0.000058
C116	C	1.424116	0.051444	0.500058
C117	C	0.920754	-0.421183	0.078697
C118	C	1.420754	0.078817	0.578697
C119	C	0.923284	-0.499007	0.000055
C120	C	1.423284	0.000993	0.500055
C121	C	0.926645	-0.526380	-0.078584
C122	C	1.426645	-0.026380	0.421416
C123	C	0.930840	-0.503302	-0.157220
C124	C	1.430840	-0.003302	0.342780
C125	C	0.931679	-0.452855	-0.157215
C126	C	1.431679	0.047145	0.342785
C127	C	0.916560	-0.444260	0.157333
C128	C	1.416560	0.055740	0.657333
C129	C	0.915722	-0.494708	0.157321
C130	C	1.415722	0.005292	0.657321
C131	C	0.919084	-0.522081	0.078682
C132	C	1.419084	-0.022081	0.578682
C133	C	1.068304	0.103893	0.000090
C134	C	1.568304	0.603893	0.500090
C135	C	1.155294	0.108207	0.000093
C136	C	1.655294	0.608207	0.500093
C137	C	0.918157	0.189996	0.000052
C138	C	1.418157	0.689996	0.500052
C139	C	0.919037	0.243689	0.000038
C140	C	1.419037	0.743689	0.500038
N141	N	0.915114	0.107518	0.205373
N142	N	1.415114	0.607518	0.705373
N143	N	0.934841	0.096248	-0.205220
N144	N	1.434841	0.596248	0.294780
C145	C	0.966640	0.077992	0.250781
C146	C	1.466640	0.577992	0.750781
C147	C	0.962291	0.080487	0.341587
C148	C	1.462291	0.580487	0.841587
C149	C	0.906417	0.112511	0.386985
C150	C	1.406417	0.612511	0.886985
C151	C	0.854885	0.142037	0.341571
C152	C	1.354885	0.642037	0.841571
C153	C	0.859232	0.139540	0.250765
C154	C	1.359232	0.639540	0.750765
C155	C	0.887656	0.123278	0.658561
C156	C	1.387656	0.623278	1.158561
C157	C	0.883315	0.125774	0.749373
C158	C	1.383315	0.625774	1.249373
C159	C	0.990720	0.064223	0.749383
C160	C	1.490720	0.564223	1.249383
C161	C	0.995065	0.061730	0.658576
C162	C	1.495065	0.561730	1.158576
C163	C	0.943530	0.091255	0.613170
C164	C	1.443530	0.591255	1.113170
N165	N	0.901971	0.115062	0.479804
N166	N	1.401971	0.615062	0.979804
N167	N	0.947972	0.088701	0.520353
N168	N	1.447972	0.588701	1.020353
H169	H	0.329109	0.036742	0.000116
H170	H	0.829109	0.536742	0.500116
H171	H	0.937616	-0.282729	-0.221238
H172	H	1.437616	0.217271	0.278762
H173	H	0.914802	-0.362137	0.221390
H174	H	1.414802	0.137863	0.721390
H175	H	0.705007	0.015986	0.000087
H176	H	1.205007	0.515986	0.500087
C177	C	0.140700	0.229094	0.074210
C178	C	0.640700	0.729094	0.574210
C179	C	0.130482	0.199646	0.000062
C180	C	0.630482	0.699646	0.500062
H181	H	0.106260	0.257343	0.074199
H182	H	0.606260	0.757343	0.574199
H183	H	0.128953	0.211874	0.124513
H184	H	0.628953	0.711874	0.624513
H185	H	0.193815	0.238041	0.074194
H186	H	0.693815	0.738041	0.574194
H187	H	0.077368	0.190696	0.000081
H188	H	0.577368	0.690696	0.500081
H189	H	0.142223	0.216869	-0.050254
H190	H	0.642223	0.716869	0.449746
H191	H	1.032676	0.040184	0.786361
H192	H	1.532676	0.540184	1.286361
H193	H	0.925971	-0.755529	-0.142635
H194	H	1.425971	-0.255529	0.357365
H195	H	0.293225	0.195140	0.000038
H196	H	0.793225	0.695140	0.500038
C197	C	0.233809	-0.019312	0.000142
C198	C	0.733809	0.480688	0.500142
C199	C	0.171999	0.016369	0.000126
C200	C	0.671999	0.516369	0.500126
H201	H	0.212783	-0.050310	0.000158
H202	H	0.712783	0.449690	0.500158
H203	H	0.267689	-0.017298	-0.050161
H204	H	0.767689	0.482702	0.449839
H205	H	0.262864	-0.014531	0.050452
H206	H	0.762864	0.485469	0.550452
H207	H	0.142947	0.011589	-0.050188
H208	H	0.642947	0.511589	0.449812
H209	H	0.138105	0.014352	0.050435
H210	H	0.638105	0.514352	0.550435
H211	H	0.556717	0.008630	0.000113
H212	H	1.056717	0.508630	0.500113
C213	C	0.911477	-0.293729	0.312816
C214	C	1.411477	0.206271	0.812816
C215	C	0.915345	-0.262818	0.243800
C216	C	1.415345	0.237182	0.743800
H217	H	0.909190	-0.275154	0.366185
H218	H	1.409190	0.224846	0.866185
H219	H	0.865595	-0.311574	0.309525
H220	H	1.365595	0.188426	0.809525
H221	H	0.957033	-0.315419	0.309549
H222	H	1.457033	0.184581	0.809549
H223	H	0.869786	-0.241131	0.247063
H224	H	1.369786	0.258869	0.747063
H225	H	0.961232	-0.244965	0.247092
H226	H	1.461232	0.255035	0.747092
H227	H	0.669113	0.174384	0.000026
H228	H	1.169113	0.674384	0.500026
H229	H	0.937698	-0.048508	-0.142573
H230	H	1.437698	0.451492	0.357427
C231	C	0.940968	-0.116909	-0.234008
C232	C	1.440968	0.383091	0.265992
C233	C	0.937109	-0.147825	-0.164999
C234	C	1.437109	0.352175	0.335001
H235	H	0.943241	-0.135480	-0.287381
H236	H	1.443241	0.364520	0.212619
H237	H	0.895426	-0.095217	-0.230726
H238	H	1.395426	0.404783	0.269274
H239	H	0.986865	-0.099069	-0.230726
H240	H	1.486865	0.400931	0.269274
H241	H	0.891209	-0.165663	-0.168277
H242	H	1.391209	0.334337	0.331723
H243	H	0.982656	-0.169526	-0.168283
H244	H	1.482656	0.330474	0.331717
C245	C	1.100786	0.001135	0.667712
C246	C	1.600786	0.501135	1.167712
C247	C	1.056478	0.026526	0.608678
C248	C	1.556478	0.526526	1.108678
H249	H	1.138697	-0.020600	0.636905
H250	H	1.638697	0.479400	1.136905
H251	H	1.127029	0.023319	0.703112
H252	H	1.627029	0.523319	1.203112
H253	H	1.066678	-0.016541	0.703145
H254	H	1.566678	0.483459	1.203145
H255	H	1.090586	0.044205	0.573249
H256	H	1.590586	0.544205	1.073249
H257	H	1.030234	0.004340	0.573263
H258	H	1.530234	0.504340	1.073263
C259	C	0.781063	0.184372	0.667685
C260	C	1.281063	0.684372	1.167685
C261	C	0.831015	0.155736	0.608658
C262	C	1.331015	0.655736	1.108658
H263	H	0.746098	0.204414	0.636872
H264	H	1.246098	0.704414	1.136872
H265	H	0.751432	0.164136	0.703115
H266	H	1.251432	0.664136	1.203115
H267	H	0.811784	0.203995	0.703089
H268	H	1.311784	0.703995	1.203089
H269	H	0.800295	0.136110	0.573258
H270	H	1.300295	0.636110	1.073258
H271	H	0.860649	0.175974	0.573213
H272	H	1.360649	0.675974	1.073213
H273	H	0.936093	-0.374242	-0.221246
H274	H	1.436093	0.125758	0.278754
H275	H	0.520837	0.167025	0.000044
H276	H	1.020837	0.667025	0.500044
H277	H	0.837813	0.151853	0.786331
H278	H	1.337813	0.651853	1.286331
C279	C	0.800538	0.173200	0.480762
C280	C	1.300538	0.673200	0.980762
C281	C	0.793469	0.177240	0.391469
C282	C	1.293469	0.677240	0.891469
H283	H	0.762625	0.194936	0.511564
H284	H	1.262625	0.694936	1.011564
H285	H	0.791714	0.141037	0.495658
H286	H	1.291714	0.641037	0.995658
H287	H	0.852066	0.180896	0.495621
H288	H	1.352066	0.680896	0.995621
H289	H	0.741942	0.169540	0.376609
H290	H	1.241942	0.669540	0.876609
H291	H	0.802287	0.209410	0.376567
H292	H	1.302287	0.709410	0.876567
H293	H	0.817272	0.163582	0.213795
H294	H	1.317272	0.663582	0.713795
H295	H	0.912266	-0.747721	0.142714
H296	H	1.412266	-0.247721	0.642714
C297	C	0.931456	-0.692108	-0.234062
C298	C	1.431456	-0.192108	0.265938
C299	C	0.928681	-0.657421	-0.165043
C300	C	1.428681	-0.157421	0.334957
H301	H	0.934295	-0.676452	-0.287429
H302	H	1.434295	-0.176452	0.212571
H303	H	0.976692	-0.713614	-0.230783
H304	H	1.476692	-0.213614	0.269217
H305	H	0.885253	-0.709776	-0.230785
H306	H	1.385253	-0.209776	0.269215
H307	H	0.974887	-0.639755	-0.168316
H308	H	1.474887	-0.139755	0.331684
H309	H	0.883440	-0.635906	-0.168323
H310	H	1.383440	-0.135906	0.331677
H311	H	0.913768	-0.656205	0.142726
H312	H	1.413768	-0.156205	0.642726
C313	C	0.918487	-0.104132	0.234203
C314	C	1.418487	0.395868	0.734203
C315	C	0.921258	-0.138815	0.165180
C316	C	1.421258	0.361185	0.665180
H317	H	0.915627	-0.119790	0.287568
H318	H	1.415627	0.380210	0.787568
H319	H	0.964691	-0.086472	0.230941
H320	H	1.464691	0.413528	0.730941
H321	H	0.873253	-0.082616	0.230918
H322	H	1.373253	0.417384	0.730918
H323	H	0.966495	-0.160329	0.168461
H324	H	1.466495	0.339671	0.668461
H325	H	0.875049	-0.156483	0.168444
H326	H	1.375049	0.343517	0.668444
C327	C	0.924628	0.016248	0.148574
C328	C	1.424628	0.516248	0.648574
C329	C	0.923011	-0.032905	0.165187
C330	C	1.423011	0.467095	0.665187
H331	H	0.922334	0.034828	0.201938
H332	H	1.422334	0.534828	0.701938
H333	H	0.972037	0.021706	0.116280
H334	H	1.472037	0.521706	0.616280
H335	H	0.880599	0.025547	0.116247
H336	H	1.380599	0.525547	0.616247
H337	H	0.967043	-0.042205	0.197508
H338	H	1.467043	0.457795	0.697508
H339	H	0.875597	-0.038366	0.197494
H340	H	1.375597	0.461634	0.697494
H341	H	0.935101	-0.434072	-0.221252
H342	H	1.435101	0.065928	0.278748
C343	C	0.841608	-0.503723	0.291364
C344	C	1.341608	-0.003723	0.791364
C345	C	0.911095	-0.520064	0.243775
C346	C	1.411095	-0.020064	0.743775
H347	H	0.838745	-0.519377	0.344733
H348	H	1.338745	-0.019377	0.844733
H349	H	0.841638	-0.469763	0.302604
H350	H	1.341638	0.030237	0.802604
H351	H	0.797315	-0.510956	0.259031
H352	H	1.297315	-0.010956	0.759031
H353	H	0.955389	-0.512829	0.276106
H354	H	1.455389	-0.012829	0.776106
H355	H	0.911073	-0.554032	0.232537
H356	H	1.411073	-0.054032	0.732537
C357	C	0.866874	-0.559700	-0.248449
C358	C	1.366874	-0.059700	0.251551
C359	C	0.934527	-0.533400	-0.243659
C360	C	1.434527	-0.033400	0.256341
H361	H	0.869145	-0.578281	-0.301811
H362	H	1.369145	-0.078281	0.198189
H363	H	0.864263	-0.580654	-0.201612
H364	H	1.364263	-0.080654	0.298388
H365	H	0.821333	-0.537999	-0.245186
H366	H	1.321333	-0.037999	0.254814
H367	H	0.980068	-0.555102	-0.246915
H368	H	1.480068	-0.055102	0.253085
H369	H	0.937145	-0.512444	-0.290509
H370	H	1.437145	-0.012444	0.209491
C371	C	0.845725	-0.382203	0.248599
C372	C	1.345725	0.117797	0.748599
C373	C	0.912869	-0.414178	0.243782
C374	C	1.412869	0.085822	0.743782
H375	H	0.843449	-0.363636	0.301976
H376	H	1.343449	0.136364	0.801976
H377	H	0.848349	-0.361236	0.201782
H378	H	1.348349	0.138764	0.701782
H379	H	0.799840	-0.400053	0.245319
H380	H	1.299840	0.099947	0.745319
H381	H	0.958755	-0.396328	0.247055
H382	H	1.458755	0.103672	0.747055
H383	H	0.910252	-0.435148	0.290612
H384	H	1.410252	0.064852	0.790612
C385	C	1.008047	-0.000586	0.369564
C386	C	1.508047	0.499414	0.869564
C387	C	1.018943	0.048035	0.391493
C388	C	1.518943	0.548035	0.891493
H389	H	1.043030	-0.020620	0.400368
H390	H	1.543030	0.479380	0.900368
H391	H	0.955109	-0.007466	0.384467
H392	H	1.455109	0.492534	0.884467
H393	H	1.018628	-0.006647	0.308984
H394	H	1.518628	0.493353	0.808984
H395	H	1.008356	0.054097	0.452072
H396	H	1.508356	0.554097	0.952072
H397	H	1.071893	0.054919	0.376595
H398	H	1.571893	0.554919	0.876595
H399	H	1.012142	0.051918	0.213824
H400	H	1.512142	0.551918	0.713824
