data_functionalizedCrystal
_audit_creation_method	'MofGen! by Chris Wilmer'
_symmetry_space_group_name_H-M	'P1'
_symmetry_Int_Tables_number	1
_symmetry_cell_setting	triclinic
loop_
_symmetry_equiv_pos_as_xyz
  x,y,z
_cell_length_a	13.262508
_cell_length_b	13.185407
_cell_length_c	12.377034
_cell_angle_alpha	82.595086
_cell_angle_beta	85.803211
_cell_angle_gamma	68.867216
loop_
_atom_site_label
_atom_site_type_symbol
_atom_site_fract_x
_atom_site_fract_y
_atom_site_fract_z
O1	O	-0.227757	1.409446	0.163991
O2	O	-0.129824	1.099089	0.133890
O3	O	-0.321690	1.252525	0.192869
O4	O	-0.035890	1.256010	0.105012
O5	O	-0.369582	1.290853	0.019595
O6	O	-0.177715	1.137417	-0.039384
O7	O	-0.275648	1.447773	-0.009283
Zn8	Zn	-0.234285	1.298680	-0.051845
Zn9	Zn	-0.171187	1.248182	0.176452
O10	O	-0.083782	1.294337	-0.068262
C11	C	-0.143841	1.078348	0.044202
C12	C	-0.114269	0.959444	0.035113
C13	C	-0.396490	0.649609	0.121866
C14	C	-0.424279	0.761327	0.130399
C15	C	-0.346779	0.810862	0.106579
C16	C	-0.241485	0.748667	0.074223
C17	C	-0.213695	0.636940	0.065680
C18	C	-0.163984	0.798193	0.050393
C19	C	-0.058690	0.735999	0.018037
C20	C	-0.030905	0.624283	0.009497
C21	C	-0.108405	0.574748	0.033317
C22	C	-0.191774	0.909920	0.058936
C23	C	-0.008979	0.897252	0.002750
C24	C	0.018810	0.785534	-0.005783
C25	C	-0.381444	1.268359	0.117242
C26	C	-0.488136	1.258426	0.150048
C27	C	-0.893321	1.313991	-0.135298
C28	C	-0.793075	1.323316	-0.166123
C29	C	-0.716836	1.307094	-0.087083
C30	C	-0.740851	1.281546	0.022787
C31	C	-0.841103	1.272211	0.053614
C32	C	-0.664618	1.265315	0.101829
C33	C	-0.688634	1.239766	0.211699
C34	C	-0.788877	1.230434	0.242520
C35	C	-0.865116	1.246655	0.163480
C36	C	-0.564366	1.274649	0.071003
C37	C	-0.512149	1.232870	0.259914
C38	C	-0.612394	1.223545	0.290739
C39	C	-0.024028	1.278503	0.007367
C40	C	0.082667	1.288435	-0.025432
C41	C	-0.261630	1.468514	0.080408
C42	C	-0.291200	1.587416	0.089503
N43	N	-0.277351	1.333152	-0.207650
C44	C	-0.377371	1.413176	-0.236054
C45	C	-0.407541	1.437298	-0.345109
C46	C	-0.337691	1.381406	-0.425772
C47	C	-0.237666	1.301386	-0.397370
C48	C	-0.207496	1.277254	-0.288302
C49	C	-0.167816	1.245485	-0.478021
C50	C	-0.067791	1.165465	-0.449618
C51	C	-0.037626	1.141338	-0.340561
C52	C	-0.107476	1.197231	-0.259898
C53	C	-0.197986	1.269616	-0.587088
C54	C	-0.028111	1.133695	-0.639336
C55	C	0.002060	1.109572	-0.530281
N56	N	-0.128130	1.213719	0.332260
H57	H	0.054127	0.937583	-0.016650
H58	H	-0.277505	0.960548	0.085282
H59	H	0.028767	1.088180	-0.705012
H60	H	0.043815	1.076173	-0.317435
H61	H	-0.631962	1.202741	0.380196
H62	H	0.054829	0.573649	-0.016860
H63	H	-0.488981	1.502449	-0.368231
H64	H	-0.635212	1.314687	-0.112187
H65	H	-0.434238	1.458670	-0.170372
H66	H	0.104542	0.734880	-0.032129
H67	H	-0.459587	0.609273	0.141228
H68	H	-0.773534	1.344129	-0.255577
H69	H	-0.082911	1.177594	-0.171096
H70	H	-0.362260	1.401050	-0.514569
H71	H	0.083502	1.044418	-0.507141
H72	H	-0.369412	0.901828	0.113529
H73	H	-0.955398	1.327188	-0.199641
H74	H	-0.450070	1.219653	0.324275
H75	H	-0.510011	0.811958	0.156740
H76	H	-0.946749	1.239069	0.188572
H77	H	-0.085783	0.483777	0.026376
H78	H	-0.544820	1.295442	-0.018455
H79	H	-0.279426	1.334768	-0.610203
H80	H	-0.808421	1.209621	0.331982
