data_functionalizedCrystal
_audit_creation_method	'MofGen! by Chris Wilmer'
_symmetry_space_group_name_H-M	'P1'
_symmetry_Int_Tables_number	1
_symmetry_cell_setting	triclinic
loop_
_symmetry_equiv_pos_as_xyz
  x,y,z
_cell_length_a	16.992695
_cell_length_b	16.992694
_cell_length_c	16.053802
_cell_angle_alpha	87.240756
_cell_angle_beta	92.750682
_cell_angle_gamma	90.668223
loop_
_atom_site_label
_atom_site_type_symbol
_atom_site_fract_x
_atom_site_fract_y
_atom_site_fract_z
O1	O	0.170018	1.047735	0.069326
O2	O	0.670018	1.547735	0.569326
O3	O	0.168188	0.819334	0.069351
O4	O	0.668188	1.319334	0.569351
O5	O	0.054902	0.932619	0.069332
O6	O	0.554902	1.432619	0.569332
O7	O	0.283303	0.934450	0.069345
O8	O	0.783303	1.434450	0.569345
O9	O	0.048686	0.938849	-0.069528
O10	O	0.548686	1.438849	0.430472
O11	O	0.161972	0.825563	-0.069509
O12	O	0.661972	1.325563	0.430491
O13	O	0.163802	1.053965	-0.069534
O14	O	0.663802	1.553965	0.430466
Zn15	Zn	0.161900	0.940753	-0.091569
Zn16	Zn	0.661900	1.440753	0.408431
Zn17	Zn	0.170090	0.932546	0.091385
Zn18	Zn	0.670090	1.432546	0.591385
O19	O	0.277087	0.940679	-0.069515
O20	O	0.777087	1.440679	0.430485
C21	C	0.162724	0.793088	-0.000076
C22	C	0.662724	1.293088	0.499924
C23	C	0.155696	0.705603	-0.000067
C24	C	0.655696	1.205603	0.499933
C25	C	0.223514	0.659612	-0.000064
C26	C	0.723514	1.159612	0.499936
C27	C	0.216904	0.577412	-0.000076
C28	C	0.716904	1.077412	0.499924
C29	C	0.142476	0.541204	-0.000085
C30	C	0.642476	1.041204	0.499915
C31	C	0.074653	0.587202	-0.000091
C32	C	0.574653	1.087202	0.499909
C33	C	0.081263	0.669401	-0.000085
C34	C	0.581263	1.169401	0.499915
C35	C	0.115081	0.295891	-0.000109
C36	C	0.615081	0.795891	0.499891
C37	C	0.108476	0.213686	-0.000112
C38	C	0.608476	0.713686	0.499888
C39	C	0.250728	0.203902	-0.000099
C40	C	0.750728	0.703902	0.499901
C41	C	0.257332	0.286103	-0.000088
C42	C	0.757332	0.786103	0.499912
C43	C	0.189508	0.332093	-0.000098
C44	C	0.689508	0.832093	0.499902
N45	N	0.135719	0.457183	-0.000094
N46	N	0.635719	0.957183	0.499906
N47	N	0.196266	0.416114	-0.000094
N48	N	0.696266	0.916114	0.499906
C49	C	0.022434	0.933378	-0.000098
C50	C	0.522434	1.433378	0.499902
C51	C	-0.065050	0.926349	-0.000097
C52	C	0.434950	1.426349	0.499903
C53	C	-0.111042	0.994168	-0.000105
C54	C	0.388958	1.494168	0.499895
C55	C	-0.193242	0.987558	-0.000096
C56	C	0.306758	1.487558	0.499904
C57	C	-0.229450	0.913130	-0.000086
C58	C	0.270550	1.413130	0.499914
C59	C	-0.183452	0.845307	-0.000075
C60	C	0.316548	1.345307	0.499925
C61	C	-0.101253	0.851917	-0.000078
C62	C	0.398747	1.351917	0.499922
C63	C	-0.474763	0.885735	-0.000071
C64	C	0.025237	1.385735	0.499929
C65	C	-0.556969	0.879131	-0.000071
C66	C	-0.056969	1.379131	0.499929
C67	C	-0.566753	1.021383	-0.000091
C68	C	-0.066753	1.521383	0.499909
C69	C	-0.484552	1.027986	-0.000099
C70	C	0.015448	1.527986	0.499901
C71	C	-0.438561	0.960163	-0.000083
C72	C	0.061439	1.460163	0.499917
N73	N	-0.313472	0.906373	-0.000079
N74	N	0.186528	1.406373	0.499921
N75	N	-0.354541	0.966921	-0.000084
N76	N	0.145459	1.466921	0.499916
C77	C	0.309555	0.939920	-0.000084
C78	C	0.809555	1.439920	0.499916
C79	C	0.397040	0.946949	-0.000079
C80	C	0.897040	1.446949	0.499921
C81	C	0.169265	1.080210	-0.000105
C82	C	0.669265	1.580210	0.499895
C83	C	0.176294	1.167695	-0.000109
C84	C	0.676294	1.667695	0.499891
N85	N	0.175673	0.926944	0.216247
N86	N	0.675673	1.426944	0.716247
N87	N	0.156310	0.946360	-0.216430
N88	N	0.656310	1.446360	0.283570
C89	C	0.127575	0.975252	0.259933
C90	C	0.627575	1.475252	0.759933
C91	C	0.131479	0.971332	0.347340
C92	C	0.631479	1.471332	0.847340
C93	C	0.183478	0.919100	0.391060
C94	C	0.683478	1.419100	0.891060
C95	C	0.231581	0.870790	0.347368
C96	C	0.731581	1.370790	0.847368
C97	C	0.227681	0.874714	0.259962
C98	C	0.727681	1.374714	0.759962
C99	C	0.200514	0.901975	0.652472
C100	C	0.700514	1.401975	1.152472
C101	C	0.204409	0.898053	0.739884
C102	C	0.704409	1.398053	1.239884
C103	C	0.104307	0.998596	0.739850
C104	C	0.604307	1.498596	1.239850
C105	C	0.100407	1.002513	0.652443
C106	C	0.600407	1.502513	1.152443
C107	C	0.148514	0.954206	0.608758
C108	C	0.648514	1.454206	1.108758
N109	N	0.187468	0.915090	0.480404
N110	N	0.687468	1.415090	0.980404
N111	N	0.144528	0.958221	0.519416
N112	N	0.644528	1.458221	1.019416
H113	H	0.026038	0.706846	-0.000087
H114	H	0.526038	1.206846	0.499913
H115	H	-0.604207	1.076601	-0.000102
H116	H	-0.104207	1.576601	0.499898
H117	H	0.272129	0.539969	-0.000072
H118	H	0.772129	1.039969	0.499928
H119	H	0.239683	0.862640	0.616911
H120	H	0.739683	1.362640	1.116911
H121	H	-0.230685	1.042784	-0.000105
H122	H	0.269315	1.542784	0.499895
H123	H	-0.455077	1.088593	-0.000108
H124	H	0.044923	1.588593	0.499892
H125	H	-0.586447	0.818520	-0.000076
H126	H	-0.086447	1.318520	0.499924
H127	H	0.047865	0.184209	-0.000119
H128	H	0.547865	0.684209	0.499881
H129	H	0.059854	0.333327	-0.000118
H130	H	0.559854	0.833327	0.499882
H131	H	-0.437328	0.830508	-0.000059
H132	H	0.062672	1.330508	0.499941
H133	H	-0.212939	0.784705	-0.000061
H134	H	0.287061	1.284705	0.499939
H135	H	-0.081568	1.054775	-0.000119
H136	H	0.418432	1.554775	0.499881
H137	H	-0.063808	0.796691	-0.000071
H138	H	0.436192	1.296691	0.499929
H139	H	0.305946	0.166449	-0.000092
H140	H	0.805946	0.666449	0.499908
H141	H	0.085228	1.017782	0.224342
H142	H	0.585228	1.517782	0.724342
H143	H	0.092314	1.010668	0.382909
H144	H	0.592314	1.510668	0.882909
H145	H	0.058066	1.045044	0.616848
H146	H	0.558066	1.545044	1.116848
H147	H	0.014051	0.557715	-0.000110
H148	H	0.514051	1.057715	0.499890
H149	H	0.065141	1.037926	0.775426
H150	H	0.565141	1.537926	1.275426
H151	H	0.273924	0.828264	0.382970
H152	H	0.773924	1.328264	0.882970
H153	H	0.246755	0.855515	0.775477
H154	H	0.746755	1.355515	1.275477
H155	H	0.284121	0.689086	-0.000056
H156	H	0.784121	1.189086	0.499944
H157	H	0.266849	0.835378	0.224394
H158	H	0.766849	1.335378	0.724394
H159	H	0.317939	0.315577	-0.000071
H160	H	0.817939	0.815577	0.499929
