data_functionalizedCrystal
_audit_creation_method	'MofGen! by Chris Wilmer'
_symmetry_space_group_name_H-M	'P1'
_symmetry_Int_Tables_number	1
_symmetry_cell_setting	triclinic
loop_
_symmetry_equiv_pos_as_xyz
  x,y,z
_cell_length_a	14.044220
_cell_length_b	16.109301
_cell_length_c	14.586319
_cell_angle_alpha	89.996867
_cell_angle_beta	90.000961
_cell_angle_gamma	91.674821
loop_
_atom_site_label
_atom_site_type_symbol
_atom_site_fract_x
_atom_site_fract_y
_atom_site_fract_z
O1	O	0.121829	-1.112198	0.076185
O2	O	0.136991	-0.871264	0.076199
O3	O	-0.008573	-0.988115	0.076183
O4	O	0.267394	-0.995348	0.076201
O5	O	-0.008565	-0.988100	-0.076298
O6	O	0.137000	-0.871249	-0.076281
O7	O	0.121838	-1.112183	-0.076296
Cu8	Cu	0.129420	-0.991715	-0.090212
Cu9	Cu	0.129409	-0.991733	0.090115
O10	O	0.267402	-0.995333	-0.076280
C11	C	-0.043882	-0.984941	-0.000058
C12	C	-0.149105	-0.975498	-0.000058
C13	C	0.136381	-0.840236	-0.000039
C14	C	0.134540	-0.747804	-0.000034
C15	C	0.122448	-1.143211	-0.000056
C16	C	0.124289	-1.235644	-0.000055
C17	C	-0.341761	-0.958232	-0.000044
C18	C	-0.399415	-1.025212	-0.000045
C19	C	-0.506616	-1.015605	-0.000037
C20	C	-0.234551	-0.967838	-0.000052
C21	C	0.302711	-0.998506	-0.000037
C22	C	0.407934	-1.007950	-0.000031
N23	N	0.129426	-0.991709	-0.217043
C24	C	0.216634	-0.531640	-0.000039
C25	C	0.214896	-0.444790	-0.000045
C26	C	0.042189	-0.451815	-0.000052
C27	C	0.043927	-0.538663	-0.000053
C28	C	0.131153	-0.578573	-0.000042
C29	C	0.127677	-0.404875	-0.000047
C30	C	0.125792	-0.310709	-0.000054
C31	C	0.133038	-0.672745	-0.000037
C32	C	0.186918	-1.046409	-0.452049
C33	C	0.186912	-1.046417	-0.548030
C34	C	0.071897	-0.937042	-0.548041
C35	C	0.071899	-0.937039	-0.452062
C36	C	0.129415	-0.991721	-0.404068
C37	C	0.129406	-0.991733	-0.596029
C38	C	0.129399	-0.991741	-0.700096
C39	C	0.129422	-0.991714	-0.299994
N40	N	0.129395	-0.991745	0.216946
H41	H	-0.368264	-1.089769	0.000012
H42	H	0.025068	-0.892504	-0.412994
H43	H	0.233735	-1.090950	-0.587092
O44	O	-0.051885	-0.408766	-0.000064
H45	H	-0.092966	-0.427128	0.062078
H46	H	0.025070	-0.892521	-0.587129
H47	H	-0.372911	-0.893680	-0.000038
H48	H	0.287658	-0.564132	-0.000037
H49	H	-0.025686	-0.576877	-0.000058
O50	O	0.248942	-1.105390	-0.400280
H51	H	0.288920	-1.143424	-0.449773
H52	H	0.284504	-0.406580	-0.000045
