data_functionalizedCrystal
_audit_creation_method	'MofGen! by Chris Wilmer'
_symmetry_space_group_name_H-M	'P1'
_symmetry_Int_Tables_number	1
_symmetry_cell_setting	triclinic
loop_
_symmetry_equiv_pos_as_xyz
  x,y,z
_cell_length_a	13.262390
_cell_length_b	13.339070
_cell_length_c	9.130313
_cell_angle_alpha	90.000326
_cell_angle_beta	74.082461
_cell_angle_gamma	99.429367
loop_
_atom_site_label
_atom_site_type_symbol
_atom_site_fract_x
_atom_site_fract_y
_atom_site_fract_z
O1	O	1.432392	0.136404	-0.692410
O2	O	1.131129	0.151242	-0.572400
O3	O	1.247186	-0.003586	-0.618627
O4	O	1.316336	0.291231	-0.646183
O5	O	1.247185	-0.003582	-0.375028
O6	O	1.131129	0.151246	-0.328801
O7	O	1.432392	0.136408	-0.448811
Cu8	Cu	1.281760	0.143827	-0.366564
Cu9	Cu	1.281761	0.143822	-0.654648
O10	O	1.316335	0.291236	-0.402584
C11	C	1.091783	0.150413	-0.434927
C12	C	0.974540	0.147925	-0.388222
C13	C	1.235504	-0.041322	-0.492177
C14	C	1.200686	-0.153770	-0.478313
C15	C	0.644060	0.140889	-0.787735
C16	C	0.754214	0.143222	-0.831618
C17	C	0.809301	0.144398	-0.720773
C18	C	0.754223	0.143241	-0.566037
C19	C	0.644057	0.140900	-0.522149
C20	C	0.809298	0.144409	-0.455187
C21	C	0.754220	0.143252	-0.300451
C22	C	0.644065	0.140912	-0.256571
C23	C	0.588977	0.139736	-0.367416
C24	C	0.919464	0.146750	-0.499075
C25	C	0.919461	0.146760	-0.233489
C26	C	0.809307	0.144428	-0.189606
C27	C	1.471412	-0.517426	-0.586158
C28	C	1.504129	-0.411776	-0.599177
C29	C	1.428271	-0.347270	-0.568962
C30	C	1.319691	-0.388423	-0.525726
C31	C	1.286971	-0.494084	-0.512694
C32	C	1.243830	-0.323927	-0.495498
C33	C	1.135250	-0.365080	-0.452262
C34	C	1.102536	-0.470731	-0.439233
C35	C	1.178394	-0.535237	-0.469447
C36	C	1.276550	-0.218267	-0.508530
C37	C	1.092109	-0.194924	-0.435066
C38	C	1.059392	-0.300574	-0.422047
C39	C	1.471738	0.137237	-0.586288
C40	C	1.588981	0.139725	-0.633002
C41	C	1.328017	0.328972	-0.529038
C42	C	1.362835	0.441420	-0.542911
N43	N	1.281767	0.143830	-0.163944
N44	N	1.281760	0.143812	-0.857270
C45	C	1.333181	0.075296	-0.107771
C46	C	1.333175	0.075284	0.045568
C47	C	1.230339	0.212349	0.086549
C48	C	1.230339	0.212356	-0.066785
C49	C	1.384609	0.006770	-0.204930
C50	C	1.436029	-0.061769	-0.148759
C51	C	1.436023	-0.061781	0.004580
C52	C	1.384596	0.006746	0.101749
H53	H	0.898994	0.146298	-0.756512
C54	C	1.065706	0.270948	0.199372
C55	C	1.173819	0.287672	0.193356
H56	H	1.030816	0.317448	0.265316
H57	H	1.058354	0.280767	0.100024
H58	H	1.034626	0.203289	0.236881
H59	H	1.204902	0.355329	0.155835
H60	H	1.181179	0.277861	0.292724
H61	H	1.364956	-0.184770	-0.543733
H62	H	0.964299	0.147694	-0.625062
C63	C	0.444658	0.223279	-0.382292
C64	C	0.467881	0.137119	-0.319220
H65	H	0.369894	0.221643	-0.352559
H66	H	0.478700	0.282804	-0.346790
H67	H	0.469615	0.223812	-0.490307
H68	H	0.442931	0.136589	-0.211204
H69	H	0.433826	0.077578	-0.354714
C70	C	1.219680	0.387409	-0.109757
C71	C	1.173832	0.287692	-0.128550
H72	H	1.184794	0.433915	-0.147898
H73	H	1.212312	0.397212	-0.004543
H74	H	1.293026	0.398731	-0.164107
H75	H	1.100486	0.276367	-0.074190
H76	H	1.181190	0.277885	-0.233783
H77	H	0.799050	0.144159	-0.957603
H78	H	0.599220	0.139951	-0.130574
H79	H	1.151761	-0.621268	-0.458855
C80	C	0.475186	0.137294	-0.838359
C81	C	0.583507	0.139594	-0.909562
H82	H	0.437806	0.136499	-0.913580
H83	H	0.447971	0.077923	-0.772958
H84	H	0.466321	0.195911	-0.780270
H85	H	0.592373	0.080973	-0.967643
H86	H	0.610731	0.198971	-0.974990
H87	H	1.030339	-0.142402	-0.410456
C88	C	0.880360	-0.266895	-0.350753
C89	C	0.940042	-0.345816	-0.374519
H90	H	0.806680	-0.294829	-0.321422
H91	H	0.896946	-0.226177	-0.272412
H92	H	0.896969	-0.226167	-0.442319
H93	H	0.923439	-0.386541	-0.282950
H94	H	0.923450	-0.386552	-0.452866
H95	H	0.764447	0.143485	-0.063618
C96	C	1.575552	-0.208637	-0.627629
C97	C	1.464231	-0.231137	-0.583290
H98	H	1.597753	-0.136938	-0.636489
H99	H	1.602195	-0.236840	-0.553292
H100	H	1.602203	-0.236860	-0.723192
H101	H	1.437580	-0.202920	-0.487720
H102	H	1.437577	-0.202921	-0.657631
H103	H	1.477891	-0.117567	-0.227878
H104	H	1.592534	-0.378277	-0.634378
C105	C	1.088325	0.150361	-0.182830
C106	C	0.980002	0.148055	-0.111634
H107	H	1.125703	0.151163	-0.107606
H108	H	1.097197	0.091753	-0.240914
H109	H	1.115541	0.209741	-0.248237
H110	H	0.952784	0.088671	-0.046235
H111	H	0.971124	0.206669	-0.053524
C112	C	1.541608	-0.649794	-0.739336
C113	C	1.554786	-0.588331	-0.619362
H114	H	1.593089	-0.693564	-0.759838
H115	H	1.472268	-0.689416	-0.711706
H116	H	1.550550	-0.608084	-0.827838
H117	H	1.545837	-0.630042	-0.530856
H118	H	1.624143	-0.548707	-0.646985
C119	C	0.958749	-0.576007	-0.507189
C120	C	0.983185	-0.515969	-0.391699
H121	H	0.885068	-0.603937	-0.477837
H122	H	0.975346	-0.535273	-0.598731
H123	H	0.999251	-0.629539	-0.523304
H124	H	0.942689	-0.462432	-0.375592
H125	H	0.966576	-0.556705	-0.300131
C126	C	1.418696	-0.199539	0.183890
C127	C	1.492535	-0.137121	0.066327
H128	H	1.453589	-0.246054	0.221997
H129	H	1.388083	-0.158732	0.263691
H130	H	1.364347	-0.236176	0.145700
H131	H	1.546880	-0.100478	0.104520
H132	H	1.523165	-0.177934	-0.013489
H133	H	1.384621	0.006776	-0.329789
H134	H	1.384587	0.006724	0.226610
