data_functionalizedCrystal
_audit_creation_method	'MofGen! by Chris Wilmer'
_symmetry_space_group_name_H-M	'P1'
_symmetry_Int_Tables_number	1
_symmetry_cell_setting	triclinic
loop_
_symmetry_equiv_pos_as_xyz
  x,y,z
_cell_length_a	21.395362
_cell_length_b	11.169409
_cell_length_c	21.395362
_cell_angle_alpha	89.960205
_cell_angle_beta	90.043376
_cell_angle_gamma	89.956700
loop_
_atom_site_label
_atom_site_type_symbol
_atom_site_fract_x
_atom_site_fract_y
_atom_site_fract_z
Zn1	Zn	0.957870	-0.679208	-0.249122
Zn2	Zn	1.457870	-0.179208	0.250878
Zn3	Zn	0.957779	-0.478499	-0.353919
Zn4	Zn	1.457779	0.021501	0.146081
Zn5	Zn	0.853086	-0.478463	-0.249188
Zn6	Zn	1.353086	0.021537	0.250812
Zn7	Zn	0.853060	-0.679064	-0.353895
Zn8	Zn	1.353060	-0.179064	0.146105
O9	O	0.905448	-0.578809	-0.301531
O10	O	1.405448	-0.078809	0.198469
O11	O	1.045535	-0.652659	-0.263006
O12	O	1.545535	-0.152659	0.236994
O13	O	0.943864	-0.310544	-0.340063
O14	O	1.443864	0.189456	0.159937
O15	O	0.867034	-0.505138	-0.161501
O16	O	1.367034	-0.005138	0.338499
O17	O	1.045469	-0.505199	-0.340000
O18	O	1.545469	-0.005199	0.160000
O19	O	0.944019	-0.652625	-0.161453
O20	O	1.444019	-0.152625	0.338547
O21	O	0.866947	-0.310518	-0.263118
O22	O	1.366947	0.189482	0.236882
O23	O	0.765404	-0.504998	-0.263095
O24	O	1.265404	-0.004998	0.236905
O25	O	0.866990	-0.847033	-0.339960
O26	O	1.366990	-0.347033	0.160040
O27	O	0.765385	-0.652379	-0.340023
O28	O	1.265385	-0.152379	0.159977
O29	O	0.943993	-0.847139	-0.262984
O30	O	1.443993	-0.347139	0.237016
O31	O	0.943839	-0.505059	-0.441593
O32	O	1.443839	-0.005059	0.058407
O33	O	0.866902	-0.652413	-0.441576
O34	O	1.366902	-0.152413	0.058424
C35	C	0.742661	-0.578669	-0.301564
C36	C	1.242661	-0.078669	0.198436
C37	C	0.673020	-0.578638	-0.301594
C38	C	1.173020	-0.078638	0.198406
C39	C	0.640313	-0.655265	-0.341703
C40	C	1.140313	-0.155265	0.158297
C41	C	0.574877	-0.655318	-0.341688
C42	C	1.074877	-0.155318	0.158312
C43	C	0.542151	-0.578724	-0.301569
C44	C	1.042151	-0.078724	0.198431
C45	C	0.574866	-0.502092	-0.261452
C46	C	1.074866	-0.002092	0.238548
C47	C	0.640300	-0.502050	-0.261464
C48	C	1.140300	-0.002050	0.238536
C49	C	0.438427	-0.470678	-0.296541
C50	C	0.938427	0.029322	0.203459
C51	C	0.372994	-0.470719	-0.296534
C52	C	0.872994	0.029281	0.203466
C53	C	0.340331	-0.578856	-0.301528
C54	C	0.840331	-0.078856	0.198472
C55	C	0.373108	-0.686957	-0.306544
C56	C	0.873108	-0.186957	0.193456
C57	C	0.438542	-0.686914	-0.306556
C58	C	0.938542	-0.186914	0.193444
C59	C	0.471199	-0.578762	-0.301552
C60	C	0.971199	-0.078762	0.198448
C61	C	0.236671	-0.655547	-0.341623
C62	C	0.736671	-0.155547	0.158377
C63	C	0.171235	-0.655603	-0.341604
C64	C	0.671235	-0.155603	0.158396
C65	C	0.171224	-0.502366	-0.261371
C66	C	0.671224	-0.002366	0.238629
C67	C	0.236660	-0.502321	-0.261388
C68	C	0.736660	-0.002321	0.238612
C69	C	0.269379	-0.578910	-0.301517
C70	C	0.769379	-0.078910	0.198483
C71	C	0.905499	-0.891851	-0.301462
C72	C	1.405499	-0.391851	0.198538
C73	C	0.905520	-1.025251	-0.301432
C74	C	1.405520	-0.525251	0.198568
C75	C	1.068872	-0.578949	-0.301498
C76	C	1.568872	-0.078949	0.198502
C77	C	1.138513	-0.579009	-0.301484
C78	C	1.638513	-0.079009	0.198516
C79	C	0.905375	-0.578751	-0.464319
C80	C	1.405375	-0.078751	0.035681
C81	C	0.905401	-0.578766	-0.533960
C82	C	1.405401	-0.078766	-0.033960
C83	C	0.905435	-0.266984	-0.301555
C84	C	1.405435	0.233016	0.198445
C85	C	0.905535	-0.133585	-0.301408
C86	C	1.405535	0.366415	0.198592
C87	C	0.945660	-0.502276	-1.035744
C88	C	1.445660	-0.002276	-0.535744
C89	C	0.945637	-0.502248	-0.970309
C90	C	1.445637	-0.002248	-0.470309
C91	C	0.905537	-0.578895	-0.937598
C92	C	1.405537	-0.078895	-0.437598
C93	C	0.865447	-0.655553	-0.970328
C94	C	1.365447	-0.155553	-0.470328
C95	C	0.865468	-0.655570	-1.035763
C96	C	1.365468	-0.155570	-0.535763
C97	C	0.900529	-0.686986	-0.833889
C98	C	1.400529	-0.186986	-0.333889
C99	C	0.900513	-0.686970	-0.768456
C100	C	1.400513	-0.186970	-0.268456
C101	C	0.905471	-0.578840	-0.735777
C102	C	1.405471	-0.078840	-0.235777
C103	C	0.910458	-0.470722	-0.768540
C104	C	1.410458	0.029278	-0.268540
C105	C	0.910478	-0.470740	-0.833974
C106	C	1.410478	0.029260	-0.333974
C107	C	0.905510	-0.578884	-0.866646
C108	C	1.405510	-0.078884	-0.366646
C109	C	0.945529	-0.502150	-0.632103
C110	C	1.445529	-0.002150	-0.132103
C111	C	0.945501	-0.502120	-0.566666
C112	C	1.445501	-0.002120	-0.066666
C113	C	0.865315	-0.655436	-0.566687
C114	C	1.365315	-0.155436	-0.066687
C115	C	0.865340	-0.655455	-0.632122
C116	C	1.365340	-0.155455	-0.132122
C117	C	0.905450	-0.578814	-0.664826
C118	C	1.405450	-0.078814	-0.164826
C119	C	0.905539	-0.578893	-0.138108
C120	C	1.405539	-0.078893	0.361892
C121	C	0.905578	-0.578929	-0.068466
C122	C	1.405578	-0.078929	0.431534
H123	H	0.465016	-0.382614	-0.292472
H124	H	0.965016	0.117386	0.207528
Cl125	Cl	0.130117	-0.751949	-0.392028
Cl126	Cl	0.630117	-0.251949	0.107972
Cl127	Cl	0.681419	-0.405711	-0.211037
Cl128	Cl	1.181419	0.094289	0.288963
H129	H	0.832702	-0.717878	-0.658765
H130	H	1.332702	-0.217878	-0.158765
H131	H	0.666949	-0.717631	-0.374379
H132	H	1.166949	-0.217631	0.125621
H133	H	0.144579	-0.440007	-0.228703
H134	H	0.644579	0.059993	0.271297
Cl135	Cl	0.331794	-0.334824	-0.290228
Cl136	Cl	0.831794	0.165176	0.209772
H137	H	0.978139	-0.439693	-0.540023
H138	H	1.478139	0.060307	-0.040023
H139	H	0.465227	-0.774933	-0.310638
H140	H	0.965227	-0.274933	0.189362
Cl141	Cl	0.815076	-0.751946	-1.076901
Cl142	Cl	1.315076	-0.251946	-0.576901
Cl143	Cl	0.533725	-0.405808	-0.211015
Cl144	Cl	1.033725	0.094192	0.288985
Cl145	Cl	0.332053	-0.822912	-0.312820
Cl146	Cl	0.832053	-0.322912	0.187180
H147	H	0.832797	-0.717958	-0.943692
H148	H	1.332797	-0.217958	-0.443692
Cl149	Cl	0.894249	-0.822888	-0.727276
Cl150	Cl	1.394249	-0.322888	-0.227276
H151	H	0.978319	-0.439865	-1.062368
H152	H	1.478319	0.060135	-0.562368
Cl153	Cl	0.996027	-0.405871	-0.929163
Cl154	Cl	1.496027	0.094129	-0.429163
Cl155	Cl	0.995949	-0.405796	-0.673219
Cl156	Cl	1.495949	0.094204	-0.173219
Cl157	Cl	0.533752	-0.751655	-0.392115
Cl158	Cl	1.033752	-0.251655	0.107885
Cl159	Cl	0.894208	-0.822919	-0.874964
Cl160	Cl	1.394208	-0.322919	-0.374964
Cl161	Cl	0.814896	-0.751778	-0.525571
Cl162	Cl	1.314896	-0.251778	-0.025571
H163	H	0.914537	-0.382707	-0.860646
H164	H	1.414537	0.117293	-0.360646
Cl165	Cl	0.277779	-0.405982	-0.210963
Cl166	Cl	0.777779	0.094018	0.289037
Cl167	Cl	0.277807	-0.751835	-0.392067
Cl168	Cl	0.777807	-0.251835	0.107933
H169	H	0.914496	-0.382674	-0.741933
H170	H	1.414496	0.117326	-0.241933
