data_functionalizedCrystal
_audit_creation_method	'MofGen! by Chris Wilmer'
_symmetry_space_group_name_H-M	'P1'
_symmetry_Int_Tables_number	1
_symmetry_cell_setting	triclinic
loop_
_symmetry_equiv_pos_as_xyz
  x,y,z
_cell_length_a	17.699077
_cell_length_b	11.026607
_cell_length_c	16.776229
_cell_angle_alpha	89.991871
_cell_angle_beta	90.003019
_cell_angle_gamma	95.933297
loop_
_atom_site_label
_atom_site_type_symbol
_atom_site_fract_x
_atom_site_fract_y
_atom_site_fract_z
O1	O	1.025147	0.153342	0.066275
O2	O	0.807511	0.173307	0.066279
O3	O	0.898292	-0.013275	0.066274
O4	O	0.934367	0.339923	0.066280
O5	O	0.898286	-0.013242	-0.066302
O6	O	0.807505	0.173339	-0.066298
O7	O	1.025141	0.153374	-0.066301
Zn8	Zn	0.916322	0.163362	-0.087349
Zn9	Zn	0.916330	0.163319	0.087326
O10	O	0.934360	0.339956	-0.066297
C11	C	0.779213	0.172609	-0.000009
C12	C	0.694900	0.170466	-0.000008
C13	C	0.655291	0.169475	-0.072276
C14	C	0.576069	0.167442	-0.072277
C15	C	0.536459	0.166410	-0.000008
C16	C	0.576074	0.167398	0.072265
C17	C	0.655293	0.169422	0.072266
C18	C	0.256589	0.159235	0.072267
C19	C	0.177363	0.157215	0.072261
C20	C	0.177364	0.157255	-0.072275
C21	C	0.256584	0.159279	-0.072275
C22	C	0.296192	0.160261	-0.000002
C23	C	0.382093	0.162462	-0.000002
C24	C	0.450559	0.164217	-0.000008
C25	C	0.891634	-0.058450	-0.000013
C26	C	0.871794	-0.193105	-0.000010
C27	C	0.926574	-0.267074	-0.000009
C28	C	0.906070	-0.406247	-0.000006
C29	C	1.053439	0.154072	-0.000012
C30	C	1.137752	0.156215	-0.000008
N31	N	0.916322	0.163390	-0.206560
C32	C	0.941019	0.385131	-0.000008
C33	C	0.960858	0.519786	-0.000006
C34	C	0.860423	0.089814	-0.751732
C35	C	0.860423	0.089824	-0.668280
C36	C	0.916332	0.163309	-0.626559
C37	C	0.972250	0.236779	-0.668295
C38	C	0.972252	0.236761	-0.751746
C39	C	0.972240	0.236850	-0.331748
C40	C	0.972231	0.236865	-0.248292
C41	C	0.860410	0.089913	-0.248282
C42	C	0.860413	0.089896	-0.331733
C43	C	0.916333	0.163360	-0.373462
C44	C	0.916333	0.163346	-0.463950
C45	C	0.916329	0.163330	-0.536073
N46	N	0.916335	0.163281	0.206538
H47	H	0.145115	0.156374	0.131114
H48	H	0.814884	0.030062	-0.365698
H49	H	1.022941	-0.440516	0.000053
F50	F	0.697440	0.170581	-0.149195
H51	H	0.809716	-0.232811	-0.000003
F52	F	0.298732	0.160281	0.149187
F53	F	0.533913	0.166263	0.149179
F54	F	0.135204	0.156205	-0.149196
H55	H	0.988652	-0.227367	-0.000015
F56	F	0.533918	0.166403	-0.149195
H57	H	1.017782	0.296585	-0.785722
F58	F	0.697448	0.170473	0.149183
F59	F	0.824924	-0.458133	0.000003
F60	F	0.800913	0.011606	-0.796127
H61	H	0.814896	0.029997	-0.634307
H62	H	0.814880	0.030091	-0.214297
H63	H	1.017762	0.296708	-0.214325
F64	F	1.031751	0.315045	-0.376148
H65	H	1.017774	0.296605	-0.634320
H66	H	0.288831	0.160125	-0.131124
