data_functionalizedCrystal
_audit_creation_method	'MofGen! by Chris Wilmer'
_symmetry_space_group_name_H-M	'P1'
_symmetry_Int_Tables_number	1
_symmetry_cell_setting	triclinic
loop_
_symmetry_equiv_pos_as_xyz
  x,y,z
_cell_length_a	14.853554
_cell_length_b	10.654545
_cell_length_c	9.730223
_cell_angle_alpha	90.002833
_cell_angle_beta	89.996207
_cell_angle_gamma	95.943736
loop_
_atom_site_label
_atom_site_type_symbol
_atom_site_fract_x
_atom_site_fract_y
_atom_site_fract_z
O1	O	-0.126607	1.666519	0.114274
O2	O	-0.138676	1.300913	0.114280
O3	O	-0.001463	1.493490	0.114270
O4	O	-0.263820	1.473941	0.114284
O5	O	-0.001459	1.493478	-0.114310
O6	O	-0.138672	1.300901	-0.114300
O7	O	-0.126603	1.666506	-0.114306
Zn8	Zn	-0.132637	1.483702	-0.150595
Zn9	Zn	-0.132642	1.483718	0.150569
O10	O	-0.263816	1.473929	-0.114296
C11	C	-0.137788	1.254118	-0.000009
C12	C	-0.135140	1.114702	-0.000007
C13	C	-0.133891	1.049204	-0.124607
C14	C	-0.131387	0.918211	-0.124607
C15	C	-0.131386	0.918225	0.124603
C16	C	-0.133883	1.049217	0.124602
C17	C	-0.297412	1.474818	-0.000004
C18	C	-0.397510	1.477463	0.000002
C19	C	-0.820751	1.488714	0.124590
C20	C	-0.820732	1.488701	-0.124616
C21	C	-0.726686	1.486200	-0.124615
C22	C	-0.679667	1.484958	-0.000009
C23	C	-0.726695	1.486217	0.124595
C24	C	-0.679649	1.484954	-0.249218
C25	C	-0.585597	1.482454	-0.249221
C26	C	-0.538578	1.481203	-0.124614
C27	C	-0.585612	1.482461	-0.000004
C28	C	-0.538594	1.481219	0.124601
C29	C	-0.585627	1.482468	0.249213
C30	C	-0.679676	1.484966	0.249203
C31	C	-0.444528	1.478705	-0.124604
C32	C	-0.444538	1.478722	0.124606
C33	C	0.032132	1.492602	-0.000019
C34	C	0.132231	1.489956	-0.000015
C35	C	-0.127491	1.713301	-0.000013
C36	C	-0.130139	1.852717	-0.000006
N37	N	-0.132633	1.483700	-0.356131
C38	C	-0.071901	1.569002	-0.428062
C39	C	-0.071902	1.569014	-0.571945
C40	C	-0.193374	1.398418	-0.571954
C41	C	-0.193368	1.398401	-0.428074
N42	N	-0.132639	1.483730	0.356105
H43	H	-0.130363	0.864891	0.226055
H44	H	-0.022446	1.638455	-0.369489
H45	H	-0.242824	1.328972	-0.630544
H46	H	-0.717978	1.485988	0.350654
N47	N	-0.006405	1.661032	-0.649523
H48	H	-0.015620	1.648102	-0.751588
H49	H	0.057652	1.646429	-0.624386
H50	H	-0.406238	1.477693	-0.226061
N51	N	-0.258867	1.306382	-0.350479
H52	H	-0.297347	1.252353	-0.417885
H53	H	-0.299044	1.354507	-0.290758
H54	H	-0.134915	1.102518	-0.226072
H55	H	-0.859050	1.489726	0.226046
H56	H	-0.130371	0.864888	-0.226069
H57	H	-0.406263	1.477702	0.226077
N58	N	-0.135219	1.119875	0.258998
H59	H	-0.134048	1.058515	0.337937
H60	H	-0.192042	1.164138	0.264435
N61	N	-0.534910	1.481146	0.383607
H62	H	-0.502709	1.402330	0.389170
H63	H	-0.579027	1.482368	0.462464
H64	H	-0.717938	1.485975	-0.350665
N65	N	-0.871437	1.490060	-0.259006
H66	H	-0.938153	1.491840	-0.240102
H67	H	-0.861828	1.411831	-0.313422
N68	N	-0.534880	1.481104	-0.383621
H69	H	-0.558076	1.403748	-0.438091
H70	H	-0.468176	1.479378	-0.364607
