data_functionalizedCrystal
_audit_creation_method	'MofGen! by Chris Wilmer'
_symmetry_space_group_name_H-M	'P1'
_symmetry_Int_Tables_number	1
_symmetry_cell_setting	triclinic
loop_
_symmetry_equiv_pos_as_xyz
  x,y,z
_cell_length_a	14.044220
_cell_length_b	18.266242
_cell_length_c	14.044220
_cell_angle_alpha	89.993114
_cell_angle_beta	86.811122
_cell_angle_gamma	90.003954
loop_
_atom_site_label
_atom_site_type_symbol
_atom_site_fract_x
_atom_site_fract_y
_atom_site_fract_z
O1	O	1.277174	0.060806	-0.230170
O2	O	1.000503	0.060824	-0.221864
O3	O	1.134686	0.060808	-0.087681
O4	O	1.142991	0.060822	-0.364352
O5	O	1.134660	-0.060954	-0.087671
O6	O	1.000477	-0.060938	-0.221854
O7	O	1.277149	-0.060956	-0.230160
Zn8	Zn	1.138809	-0.080279	-0.226006
Zn9	Zn	1.138843	0.080148	-0.226018
O10	O	1.142966	-0.060940	-0.364343
C11	C	0.964868	-0.000054	-0.218223
C12	C	0.858725	-0.000047	-0.207379
N13	N	1.138793	-0.189766	-0.225997
C14	C	0.664388	-0.000063	-0.187553
C15	C	0.613258	-0.000062	-0.264467
C16	C	0.505122	-0.000071	-0.253435
C17	C	0.772534	-0.000054	-0.198583
C18	C	1.198233	-0.228082	-0.166614
C19	C	1.198239	-0.304727	-0.166610
C20	C	1.138815	-0.343053	-0.226006
C21	C	1.079363	-0.304728	-0.285393
C22	C	1.079352	-0.228084	-0.285388
N23	N	1.133806	-0.463381	-0.309456
N24	N	1.133822	-0.536189	-0.309458
C25	C	1.138843	-0.573975	-0.226022
N26	N	1.143866	-0.536203	-0.142584
N27	N	1.143855	-0.463389	-0.142583
C28	C	1.138820	-0.426160	-0.226017
C29	C	1.198292	-0.695399	-0.166630
C30	C	1.198291	-0.772045	-0.166625
C31	C	1.079420	-0.772044	-0.285416
C32	C	1.079416	-0.695399	-0.285413
C33	C	1.138857	-0.657081	-0.226022
C34	C	1.312783	-0.000076	-0.233800
C35	C	1.418926	-0.000078	-0.244645
C36	C	1.131037	-0.000073	-0.052054
C37	C	1.120193	-0.000073	0.054088
N38	N	1.138865	0.189634	-0.226020
C39	C	1.146614	-0.000057	-0.399969
C40	C	1.157459	-0.000052	-0.506112
C41	C	1.100366	-0.000061	0.248426
C42	C	1.177281	-0.000064	0.299556
C43	C	1.166249	-0.000057	0.407692
C44	C	1.111397	-0.000068	0.140280
H45	H	0.626951	-0.000071	-0.113425
C46	C	1.014902	-0.346240	-0.350036
C47	C	1.038287	-0.327566	-0.445169
C48	C	0.978910	-0.365783	-0.504742
H49	H	1.023364	-0.397386	-0.341666
H50	H	0.950294	-0.333674	-0.334294
H51	H	1.102879	-0.340136	-0.460906
H52	H	1.029820	-0.276426	-0.453570
H53	H	0.914302	-0.353217	-0.489000
H54	H	0.987377	-0.416927	-0.496363
H55	H	0.994763	-0.353113	-0.569296
C56	C	1.262792	-0.186613	-0.102022
C57	C	1.314830	-0.236580	-0.049997
C58	C	1.374300	-0.198404	0.009526
H59	H	1.305513	-0.156699	-0.139641
H60	H	1.225105	-0.156742	-0.059301
H61	H	1.352514	-0.266437	-0.092713
H62	H	1.272134	-0.266495	-0.012359
H63	H	1.336613	-0.168533	0.052247
H64	H	1.417014	-0.168491	-0.028101
H65	H	1.409608	-0.232300	0.044838
H66	H	1.030947	-0.196887	-0.333745
H67	H	0.650697	-0.000055	-0.338600
C68	C	1.276190	-0.000196	0.249767
C69	C	1.325633	-0.062836	0.276413
C70	C	1.416750	-0.062981	0.230572
H71	H	1.270700	-0.000238	0.182659
H72	H	1.309958	0.042239	0.267720
H73	H	1.291872	-0.105260	0.258454
H74	H	1.331149	-0.062807	0.343513
H75	H	1.450518	-0.020546	0.248525
H76	H	1.411250	-0.063022	0.163466
H77	H	1.450311	-0.105478	0.248651
H78	H	1.246691	-0.803242	-0.118263
C79	C	1.015012	-0.653835	-0.350062
C80	C	1.038444	-0.672452	-0.445198
C81	C	0.979139	-0.634171	-0.504781
H82	H	0.950389	-0.666374	-0.334397
H83	H	1.023524	-0.602693	-0.341620
H84	H	1.029924	-0.723583	-0.453635
H85	H	1.103056	-0.659910	-0.460892
H86	H	0.987651	-0.583029	-0.496340
H87	H	0.914520	-0.646714	-0.489108
H88	H	0.995035	-0.646793	-0.569338
H89	H	1.246690	-0.664199	-0.118267
C90	C	1.001603	-0.000096	0.298516
C91	C	1.010161	-0.000112	0.397367
C92	C	0.919203	-0.000157	0.443552
H93	H	0.967820	0.042352	0.280678
H94	H	0.967885	-0.042575	0.280638
H95	H	1.043865	0.042363	0.415237
H96	H	1.043928	-0.042557	0.415232
H97	H	0.885484	-0.042637	0.425674
H98	H	0.885426	0.042291	0.425707
H99	H	0.924997	-0.000175	0.510626
H100	H	1.031032	-0.803248	-0.333773
H101	H	1.246644	-0.335930	-0.118252
