data_functionalizedCrystal
_audit_creation_method	'MofGen! by Chris Wilmer'
_symmetry_space_group_name_H-M	'P1'
_symmetry_Int_Tables_number	1
_symmetry_cell_setting	triclinic
loop_
_symmetry_equiv_pos_as_xyz
  x,y,z
_cell_length_a	17.640112
_cell_length_b	21.295417
_cell_length_c	21.295395
_cell_angle_alpha	89.893622
_cell_angle_beta	101.141588
_cell_angle_gamma	101.255243
loop_
_atom_site_label
_atom_site_type_symbol
_atom_site_fract_x
_atom_site_fract_y
_atom_site_fract_z
Zn1	Zn	1.208502	-0.055620	-0.161663
Zn2	Zn	1.208276	-0.161065	-0.056426
Zn3	Zn	1.076232	-0.077069	-0.077669
Zn4	Zn	1.076300	-0.182135	-0.182872
O5	O	1.142328	-0.118972	-0.119657
O6	O	1.319059	-0.051813	-0.129937
O7	O	1.190637	-0.150082	0.028826
O8	O	1.093844	0.013877	-0.088825
O9	O	1.318894	-0.129284	-0.052620
O10	O	1.191022	0.029635	-0.150535
O11	O	1.093625	-0.088370	0.013219
O12	O	0.965654	-0.108800	-0.109390
O13	O	1.093960	-0.165194	-0.268128
O14	O	0.965704	-0.185992	-0.186683
O15	O	1.191088	-0.072243	-0.252546
O16	O	1.190703	-0.251960	-0.073185
O17	O	1.093741	-0.267440	-0.166085
C18	C	0.937004	-0.152010	-0.152643
C19	C	0.849166	-0.166159	-0.166770
C20	C	0.560038	-0.011473	-0.012346
C21	C	0.477501	-0.024781	-0.025628
C22	C	0.477607	-0.105271	-0.105974
C23	C	0.560146	-0.091968	-0.092700
C24	C	0.601355	-0.045069	-0.045885
C25	C	0.601463	-0.125564	-0.126240
C26	C	0.683995	-0.112264	-0.112965
C27	C	0.725210	-0.065368	-0.066150
C28	C	0.683887	-0.031769	-0.032610
C29	C	0.560253	-0.172467	-0.173052
C30	C	0.601570	-0.206062	-0.206591
C31	C	0.684103	-0.192759	-0.193320
C32	C	0.725318	-0.145863	-0.146505
C33	C	0.725426	-0.226359	-0.226860
C34	C	0.807957	-0.213059	-0.213585
C35	C	0.807849	-0.132563	-0.133230
C36	C	1.142227	-0.282540	-0.119642
C37	C	1.142256	-0.352503	-0.119644
C38	C	1.192828	-0.377112	-0.151810
C39	C	1.192855	-0.442850	-0.151821
C40	C	1.142320	-0.483976	-0.119654
C41	C	1.091739	-0.459361	-0.087487
C42	C	1.091707	-0.393625	-0.087482
N43	N	1.136290	-0.588281	-0.065532
N44	N	1.136325	-0.650727	-0.065538
C45	C	1.142412	-0.682035	-0.119668
N46	N	1.148479	-0.648537	-0.173790
N47	N	1.148448	-0.586084	-0.173784
C48	C	1.142349	-0.555256	-0.119656
C49	C	1.193017	-0.777924	-0.151848
C50	C	1.193039	-0.843664	-0.151861
C51	C	1.091927	-0.860173	-0.087520
C52	C	1.091900	-0.794435	-0.087514
C53	C	1.142450	-0.753314	-0.119676
C54	C	1.348452	-0.085805	-0.086543
C55	C	1.436290	-0.071672	-0.072432
C56	C	1.142557	-0.118676	-0.283811
C57	C	1.142654	-0.118550	-0.353764
C58	C	1.142450	0.045238	-0.119683
C59	C	1.142503	0.115215	-0.119695
C60	C	1.142145	-0.119214	0.043865
C61	C	1.142200	-0.119138	0.113842
C62	C	1.091351	-0.087330	0.138499
C63	C	1.091410	-0.087252	0.204251
C64	C	1.142309	-0.118996	0.245342
C65	C	1.193168	-0.150806	0.220679
C66	C	1.193114	-0.150877	0.154929
N67	N	1.148915	-0.172901	0.349768
N68	N	1.148963	-0.172832	0.412227
C69	C	1.142478	-0.118782	0.443443
N70	N	1.135928	-0.064805	0.409839
N71	N	1.135877	-0.064875	0.347373
C72	C	1.142374	-0.118922	0.316638
C73	C	1.091689	-0.086887	0.539395
C74	C	1.091753	-0.086807	0.605149
C75	C	1.193508	-0.150366	0.621575
C76	C	1.193448	-0.150440	0.555823
C77	C	1.142534	-0.118701	0.514737
H78	H	0.792412	-0.054541	-0.055342
C79	C	1.035697	-0.051969	0.494199
H80	H	1.005429	-0.033004	0.518305
H81	H	1.001443	-0.081782	0.463168
H82	H	1.065682	-0.019566	0.473251
C83	C	1.035817	-0.051815	0.632272
H84	H	1.005485	-0.032929	0.598382
H85	H	1.065836	-0.019355	0.662618
H86	H	1.001609	-0.081579	0.652539
C87	C	1.248610	-0.732687	-0.187230
H88	H	1.241356	-0.690011	-0.182613
H89	H	1.237065	-0.745240	-0.231374
H90	H	1.301711	-0.734896	-0.169519
C91	C	1.035335	-0.052436	0.093302
H92	H	1.042573	-0.057042	0.050610
H93	H	1.046531	-0.008257	0.105733
H94	H	0.982330	-0.070496	0.095671
C95	C	1.036280	-0.767362	-0.052122
H96	H	1.006191	-0.801267	-0.032960
H97	H	1.001844	-0.747234	-0.081705
H98	H	1.066496	-0.736888	-0.019854
H99	H	0.443864	0.002585	0.001683
C100	C	1.249495	-0.185285	0.666767
H101	H	1.242242	-0.180691	0.709457
H102	H	1.302505	-0.167249	0.664408
H103	H	1.238266	-0.229465	0.654324
C104	C	1.248671	-0.870733	-0.187246
H105	H	1.278775	-0.836825	-0.206393
H106	H	1.218468	-0.901207	-0.219513
H107	H	1.283106	-0.890860	-0.157653
C108	C	0.729222	0.019828	0.018878
H109	H	0.692796	0.037935	0.036953
H110	H	0.761467	0.052448	-0.000073
H111	H	0.761364	0.000928	0.051524
C112	C	1.248429	-0.331883	-0.187188
H113	H	1.278549	-0.355958	-0.206349
H114	H	1.282837	-0.300722	-0.157596
H115	H	1.218197	-0.311070	-0.219455
H116	H	0.493050	-0.183294	-0.183859
H117	H	1.050003	-0.061347	0.224331
C118	C	1.249046	-0.185869	0.127802
H119	H	1.241726	-0.181363	0.082759
H120	H	1.237848	-0.230022	0.136912
H121	H	1.302077	-0.167800	0.146992
H122	H	1.234612	-0.176650	0.254140
C123	C	1.249372	-0.185439	0.528697
H124	H	1.279691	-0.204339	0.562584
H125	H	1.283582	-0.155684	0.508429
H126	H	1.219342	-0.217899	0.498350
C127	C	1.248494	-0.469926	-0.187198
H128	H	1.278599	-0.436020	-0.206347
H129	H	1.218296	-0.500403	-0.219463
H130	H	1.282928	-0.490047	-0.157599
C131	C	1.036149	-0.504593	-0.052103
H132	H	1.006020	-0.480520	-0.032949
H133	H	1.066379	-0.525406	-0.019841
H134	H	1.001737	-0.535754	-0.081699
C135	C	0.605374	0.040124	0.039142
H136	H	0.568948	0.058231	0.057217
H137	H	0.637618	0.072744	0.020191
H138	H	0.637515	0.021224	0.071789
C139	C	0.432274	-0.156855	-0.157470
H140	H	0.377203	-0.159962	-0.160576
H141	H	0.445768	-0.196977	-0.146015
H142	H	0.445875	-0.145439	-0.197595
C143	C	0.853188	-0.080971	-0.081738
H144	H	0.908258	-0.077861	-0.078641
H145	H	0.839590	-0.092372	-0.041612
H146	H	0.839696	-0.040848	-0.093206
H147	H	0.568006	-0.244250	-0.244706
C148	C	1.036079	-0.366550	-0.052097
H149	H	1.043296	-0.321511	-0.056704
H150	H	1.047629	-0.375542	-0.007955
H151	H	0.982987	-0.385888	-0.069813
C152	C	0.680090	-0.277946	-0.278351
H153	H	0.625019	-0.281054	-0.281454
H154	H	0.693587	-0.318066	-0.266893
H155	H	0.693686	-0.266535	-0.318479
H156	H	0.841599	-0.240415	-0.240897
C157	C	1.036334	-0.905404	-0.052141
H158	H	1.043597	-0.948079	-0.056749
H159	H	0.983236	-0.903194	-0.069850
H160	H	1.047881	-0.892850	-0.007993
