data_functionalizedCrystal
_audit_creation_method	'MofGen! by Chris Wilmer'
_symmetry_space_group_name_H-M	'P1'
_symmetry_Int_Tables_number	1
_symmetry_cell_setting	triclinic
loop_
_symmetry_equiv_pos_as_xyz
  x,y,z
_cell_length_a	16.120530
_cell_length_b	18.050590
_cell_length_c	16.120256
_cell_angle_alpha	92.872767
_cell_angle_beta	90.128265
_cell_angle_gamma	87.114013
loop_
_atom_site_label
_atom_site_type_symbol
_atom_site_fract_x
_atom_site_fract_y
_atom_site_fract_z
Zn1	Zn	1.247477	-0.376264	-0.534555
Zn2	Zn	1.254440	-0.494486	-0.395493
Zn3	Zn	1.115466	-0.363711	-0.388473
Zn4	Zn	1.108396	-0.493805	-0.527463
O5	O	1.181445	-0.432067	-0.461496
O6	O	1.364767	-0.397485	-0.522014
O7	O	1.241877	-0.472169	-0.278196
O8	O	1.133023	-0.261455	-0.407881
O9	O	1.369883	-0.484342	-0.419846
O10	O	1.230011	-0.270678	-0.515207
O11	O	1.139774	-0.376089	-0.273038
O12	O	0.998161	-0.375430	-0.401004
O13	O	1.120972	-0.483182	-0.644770
O14	O	0.992967	-0.471010	-0.503120
O15	O	1.223155	-0.396825	-0.649980
O16	O	1.235021	-0.598317	-0.412969
O17	O	1.127724	-0.597817	-0.509927
C18	C	0.965392	-0.421784	-0.450531
C19	C	0.872962	-0.417404	-0.445860
C20	C	0.703732	-0.409390	-0.437339
C21	C	0.659995	-0.454800	-0.485714
C22	C	0.565829	-0.450341	-0.480973
C23	C	0.797906	-0.413848	-0.442079
C24	C	1.181382	-0.625014	-0.461460
C25	C	1.181430	-0.707563	-0.461476
C26	C	1.239891	-0.907267	-0.408834
C27	C	1.256356	-0.960823	-0.485756
C28	C	1.181476	-0.858697	-0.461511
C29	C	1.165094	-0.952229	-0.384628
C30	C	1.181522	-1.004685	-0.461539
C31	C	1.197978	-0.911169	-0.538475
C32	C	1.106683	-0.902566	-0.437294
C33	C	1.123117	-0.956100	-0.514267
C34	C	1.181452	-0.774597	-0.461494
C35	C	1.181546	-1.088784	-0.461565
C36	C	1.398341	-0.442390	-0.472505
C37	C	1.490770	-0.446789	-0.477196
C38	C	1.170498	-0.441328	-0.678391
C39	C	1.165834	-0.445275	-0.770819
C40	C	1.181529	-0.238367	-0.461552
C41	C	1.181565	-0.155824	-0.461576
C42	C	1.205769	-0.411465	-0.983804
C43	C	1.157289	-0.452449	-0.940038
C44	C	1.162045	-0.448456	-0.845876
C45	C	1.201015	-0.415457	-1.077975
C46	C	1.192396	-0.422790	-0.245448
C47	C	1.197222	-0.418641	-0.153029
H48	H	0.693271	-0.497025	-0.530692
Br49	Br	0.648272	-0.339015	-0.362379
H50	H	1.289303	-0.885822	-0.364335
H51	H	1.319625	-0.986266	-0.506256
H52	H	1.211787	-0.893084	-0.603559
H53	H	1.112208	-0.490530	-0.973288
H54	H	1.043433	-0.877107	-0.416773
Br55	Br	1.141967	-0.982527	-0.276241
H56	H	1.250842	-0.373384	-0.950556
H57	H	1.073735	-0.977415	-0.558881
