data_functionalizedCrystal
_audit_creation_method	'MofGen! by Chris Wilmer'
_symmetry_space_group_name_H-M	'P1'
_symmetry_Int_Tables_number	1
_symmetry_cell_setting	triclinic
loop_
_symmetry_equiv_pos_as_xyz
  x,y,z
_cell_length_a	15.297327
_cell_length_b	12.827893
_cell_length_c	12.827885
_cell_angle_alpha	90.021379
_cell_angle_beta	99.642748
_cell_angle_gamma	80.294845
loop_
_atom_site_label
_atom_site_type_symbol
_atom_site_fract_x
_atom_site_fract_y
_atom_site_fract_z
Zn1	Zn	-0.359158	-1.525596	-0.662833
Zn2	Zn	-0.510042	-1.495210	-0.518312
Zn3	Zn	-0.359197	-1.350829	-0.488109
Zn4	Zn	-0.509970	-1.320557	-0.692992
O5	O	-0.434592	-1.423048	-0.590562
O6	O	-0.379187	-1.667798	-0.643681
O7	O	-0.490079	-1.476009	-0.368079
O8	O	-0.232947	-1.399397	-0.486025
O9	O	-0.490041	-1.645474	-0.537502
O10	O	-0.232919	-1.527798	-0.614394
O11	O	-0.379254	-1.369933	-0.345889
O12	O	-0.379184	-1.200580	-0.515268
O13	O	-0.489918	-1.347804	-0.835218
O14	O	-0.489956	-1.178339	-0.665795
O15	O	-0.379117	-1.498445	-0.813061
O16	O	-0.636277	-1.446656	-0.566746
O17	O	-0.636224	-1.318340	-0.695082
C18	C	-0.434567	-1.151543	-0.590528
C19	C	-0.434579	-1.035387	-0.590542
C20	C	-0.379820	-0.994630	-0.643199
C21	C	-0.379831	-0.874578	-0.643216
C22	C	-0.668985	-1.375944	-0.637487
C23	C	-0.769259	-1.355889	-0.657596
C24	C	-1.051900	-1.566818	-0.447191
C25	C	-0.957687	-1.585660	-0.428292
C26	C	-0.910575	-1.528219	-0.485616
C27	C	-0.957685	-1.451932	-0.561843
C28	C	-1.051907	-1.433082	-0.580739
C29	C	-0.910583	-1.394484	-0.619164
C30	C	-0.957693	-1.318196	-0.695391
C31	C	-1.051906	-1.299350	-0.714284
C32	C	-1.099017	-1.356791	-0.656959
C33	C	-0.816361	-1.413334	-0.600269
C34	C	-0.816369	-1.279598	-0.733816
C35	C	-0.910582	-1.260755	-0.752716
C36	C	-0.199284	-1.470364	-0.543476
C37	C	-0.099010	-1.490527	-0.523411
C38	C	-0.434505	-1.423137	-0.863115
C39	C	-0.434468	-1.423175	-0.979260
C40	C	-0.434610	-0.695614	-0.590586
C41	C	-0.434599	-0.811770	-0.590572
C42	C	-0.379618	-1.370708	-1.020063
C43	C	-0.379578	-1.370746	-1.140105
C44	C	-0.434613	-1.423032	-0.319056
C45	C	-0.434396	-1.423247	-0.202860
H46	H	-0.481465	-0.981403	-0.545470
O47	O	-0.317369	-1.311248	-1.186634
H48	H	-0.277215	-1.272791	-1.122396
O49	O	-1.102715	-1.217063	-0.796494
H50	H	-1.145698	-1.155314	-0.758291
O51	O	-0.496600	-1.482756	-1.156333
H52	H	-0.481136	-1.567905	-1.174132
O53	O	-0.317720	-0.828110	-0.702930
H54	H	-0.327468	-0.741110	-0.693563
H55	H	-0.332691	-1.325755	-0.966125
H56	H	-0.481487	-0.846854	-0.545495
H57	H	-0.833863	-1.543565	-0.470223
O58	O	-0.317704	-1.066124	-0.702903
H59	H	-0.327447	-1.149198	-0.693526
O60	O	-0.765550	-1.495624	-0.518074
H61	H	-0.783698	-1.474127	-0.439678
H62	H	-0.481400	-1.468121	-1.033199
H63	H	-0.919333	-1.647772	-0.366227
O64	O	-1.102725	-1.628777	-0.385399
H65	H	-1.145731	-1.573438	-0.340822
O66	O	-1.200636	-1.336453	-0.677337
H67	H	-1.225476	-1.389209	-0.624664
H68	H	-0.948952	-1.198641	-0.814780
H69	H	-0.778011	-1.232822	-0.780493
