data_functionalizedCrystal
_audit_creation_method	'MofGen! by Chris Wilmer'
_symmetry_space_group_name_H-M	'P1'
_symmetry_Int_Tables_number	1
_symmetry_cell_setting	triclinic
loop_
_symmetry_equiv_pos_as_xyz
  x,y,z
_cell_length_a	10.723024
_cell_length_b	14.853567
_cell_length_c	9.798715
_cell_angle_alpha	90.000647
_cell_angle_beta	89.996609
_cell_angle_gamma	84.051400
loop_
_atom_site_label
_atom_site_type_symbol
_atom_site_fract_x
_atom_site_fract_y
_atom_site_fract_z
O1	O	1.655908	0.126445	-0.113470
O2	O	1.292633	0.138549	-0.113473
O3	O	1.483974	0.001318	-0.113475
O4	O	1.464567	0.263675	-0.113467
O5	O	1.483960	0.001318	0.113507
O6	O	1.292619	0.138548	0.113509
O7	O	1.655894	0.126445	0.113513
Zn8	Zn	1.474254	0.132497	0.149549
Zn9	Zn	1.474273	0.132497	-0.149510
O10	O	1.464553	0.263675	0.113515
C11	C	1.246136	0.137668	0.000017
C12	C	1.107608	0.135032	0.000016
C13	C	1.031849	0.211819	0.000017
C14	C	0.888673	0.209097	0.000015
C15	C	1.483088	-0.032275	0.000012
C16	C	1.480453	-0.132373	-0.000000
C17	C	1.355653	-0.545565	0.000025
C18	C	1.582971	-0.565646	0.000027
C19	C	1.585448	-0.471599	0.000019
C20	C	1.473027	-0.414531	0.000016
C21	C	1.358127	-0.451510	0.000021
C22	C	1.700345	-0.434614	0.000028
C23	C	1.702828	-0.340562	0.000021
C24	C	1.590405	-0.283491	0.000008
C25	C	1.475501	-0.320475	0.000012
C26	C	1.363079	-0.263407	0.000009
C27	C	1.248174	-0.300389	0.000003
C28	C	1.245704	-0.394440	0.000008
C29	C	1.592874	-0.189441	0.000003
C30	C	1.365554	-0.169351	0.000005
C31	C	1.702392	0.127326	0.000019
C32	C	1.840919	0.129961	0.000012
C33	C	1.465439	0.297269	0.000025
C34	C	1.468075	0.397366	0.000028
N35	N	1.474251	0.132496	0.353649
N36	N	1.474287	0.132491	-0.353609
C37	C	1.554592	0.074623	0.421425
C38	C	1.554612	0.074619	0.578588
H39	H	1.066471	0.067277	-0.000021
C40	C	1.119324	-0.435122	0.000020
H41	H	1.133954	-0.499308	0.000042
H42	H	1.073024	-0.415591	-0.079131
H43	H	1.073032	-0.415578	0.079187
H44	H	1.686428	-0.159334	0.000017
H45	H	1.262100	-0.575681	0.000014
C46	C	1.647494	0.007688	0.342644
H47	H	1.635297	0.016474	0.247347
H48	H	1.633631	-0.052541	0.365996
H49	H	1.730878	0.017849	0.365973
C50	C	1.706623	-0.628417	0.000033
H51	H	1.688693	-0.689727	0.000031
H52	H	1.753728	-0.617126	0.079183
H53	H	1.753730	-0.617136	-0.079134
H54	H	1.405477	0.182038	0.411974
H55	H	1.796390	-0.310459	0.000024
H56	H	1.072985	0.279574	0.000027
C57	C	1.824000	-0.497383	0.000030
H58	H	1.892785	-0.461890	0.000045
H59	H	1.827763	-0.534489	-0.079125
H60	H	1.827749	-0.534489	0.079192
C61	C	0.800746	0.297907	0.000011
H62	H	0.849280	0.347908	0.000002
H63	H	0.749350	0.300307	0.079160
H64	H	0.749373	0.300302	-0.079158
H65	H	1.623400	0.025075	0.636872
H66	H	1.405504	0.182044	0.588115
C67	C	0.928839	0.041148	0.000003
H68	H	0.880305	-0.008853	-0.000010
H69	H	0.980224	0.038747	0.079153
H70	H	0.980221	0.038754	-0.079164
H71	H	1.274005	-0.122892	-0.000003
C72	C	1.124518	-0.237609	-0.000003
H73	H	1.142457	-0.176301	-0.000009
H74	H	1.077398	-0.248892	0.079145
H75	H	1.077422	-0.248891	-0.079172
