data_functionalizedCrystal
_audit_creation_method	'MofGen! by Chris Wilmer'
_symmetry_space_group_name_H-M	'P1'
_symmetry_Int_Tables_number	1
_symmetry_cell_setting	triclinic
loop_
_symmetry_equiv_pos_as_xyz
  x,y,z
_cell_length_a	21.395364
_cell_length_b	12.645329
_cell_length_c	21.395355
_cell_angle_alpha	90.013708
_cell_angle_beta	90.024516
_cell_angle_gamma	90.013742
loop_
_atom_site_label
_atom_site_type_symbol
_atom_site_fract_x
_atom_site_fract_y
_atom_site_fract_z
Zn1	Zn	0.957914	-0.422282	0.354282
Zn2	Zn	0.957840	-0.599531	0.249513
Zn3	Zn	0.853129	-0.422269	0.249519
Zn4	Zn	0.853122	-0.599491	0.354253
O5	O	0.905502	-0.510893	0.301892
O6	O	1.045582	-0.445817	0.340394
O7	O	0.943922	-0.576028	0.161836
O8	O	0.867064	-0.273924	0.263430
O9	O	1.045528	-0.576041	0.263420
O10	O	0.944049	-0.273933	0.340399
O11	O	0.866992	-0.445795	0.161840
O12	O	0.765451	-0.445756	0.263402
O13	O	0.867051	-0.575972	0.441935
O14	O	0.765445	-0.575960	0.340350
O15	O	0.944041	-0.445778	0.441956
O16	O	0.943915	-0.747873	0.263393
O17	O	0.866979	-0.747843	0.340345
C18	C	0.742714	-0.510853	0.301874
C19	C	0.673073	-0.510861	0.301882
C20	C	0.905455	-0.786323	0.301879
C21	C	0.905492	-0.904153	0.301895
C22	C	0.171304	-0.443246	0.342046
C23	C	0.236740	-0.443238	0.342046
C24	C	0.269434	-0.510926	0.301906
C25	C	0.236688	-0.578646	0.261774
C26	C	0.171254	-0.578659	0.261780
C27	C	0.373072	-0.519135	0.245439
C28	C	0.438505	-0.519114	0.245432
C29	C	0.471255	-0.510890	0.301888
C30	C	0.438564	-0.502666	0.358353
C31	C	0.373130	-0.502679	0.358359
C32	C	0.340387	-0.510919	0.301895
C33	C	0.574946	-0.443171	0.342020
C34	C	0.640383	-0.443171	0.342021
C35	C	0.640330	-0.578573	0.261744
C36	C	0.574894	-0.578579	0.261749
C37	C	0.542206	-0.510873	0.301886
C38	C	0.857069	-0.949061	0.350277
C39	C	0.857270	-1.071620	0.350487
C40	C	0.971643	-1.071935	0.319689
C41	C	0.971305	-0.949337	0.320020
C42	C	0.888464	-0.949417	0.235639
C43	C	0.887065	-1.072025	0.236012
C44	C	1.068925	-0.510935	0.301910
C45	C	1.138566	-0.510953	0.301917
C46	C	0.905554	-0.510872	0.465315
C47	C	0.905576	-0.510863	0.534956
C48	C	0.905565	-0.234388	0.301918
C49	C	0.905592	-0.116558	0.301929
C50	C	0.905486	-0.510838	0.139104
C51	C	0.905585	-0.510549	0.069463
C52	C	0.945663	-0.443067	0.567681
C53	C	0.945662	-0.443022	0.633117
C54	C	0.905581	-0.510790	0.665825
C55	C	0.865485	-0.578590	0.633092
C56	C	0.865483	-0.578626	0.567658
C57	C	0.900617	-0.606242	0.769495
C58	C	0.900624	-0.606208	0.834928
C59	C	0.905584	-0.510678	0.867646
C60	C	0.910551	-0.415180	0.834922
C61	C	0.910549	-0.415217	0.769488
C62	C	0.905578	-0.510758	0.736777
C63	C	0.945673	-0.442828	0.971323
C64	C	0.945668	-0.442781	1.036760
C65	C	0.865494	-0.578359	1.036734
C66	C	0.865496	-0.578396	0.971298
C67	C	0.905589	-0.510633	0.938597
H68	H	0.144694	-0.388118	0.374731
H69	H	0.346516	-0.495985	0.404334
H70	H	1.008626	-0.919621	0.286304
F71	F	0.540051	-0.650630	0.219030
F72	F	0.929822	-1.112005	0.186401
F73	F	0.990848	-1.111987	0.382305
H74	H	0.978315	-0.387645	0.944696
H75	H	0.978309	-0.387888	0.541060
F76	F	1.020127	-1.109952	0.275052
H77	H	0.263400	-0.388098	0.374722
H78	H	0.978305	-0.387809	0.659767
F79	F	0.473414	-0.493901	0.418442
H80	H	0.914591	-0.337459	0.742847
F81	F	0.675122	-0.650620	0.219028
F82	F	0.473291	-0.527850	0.185337
H83	H	0.868604	-1.100894	0.399585
F84	F	0.915833	-0.313503	0.869737
F85	F	0.822815	-0.650786	0.532828
H86	H	0.868218	-0.918202	0.399091
H87	H	0.808297	-1.101798	0.339387
F88	F	0.271485	-0.650688	0.219057
H89	H	0.978311	-0.387568	1.063403
H90	H	0.838455	-1.101204	0.222616
H91	H	0.548330	-0.388040	0.374702
F92	F	0.136411	-0.650722	0.219066
F93	F	0.792820	-0.910638	0.335937
F94	F	0.822831	-0.650476	1.071539
F95	F	0.826541	-0.909125	0.214458
H96	H	0.832857	-0.633609	0.944653
H97	H	0.346412	-0.525836	0.199462
H98	H	0.667037	-0.388039	0.374703
F99	F	0.895352	-0.707927	0.734681
F100	F	0.895343	-0.707844	0.869749
F101	F	0.990145	-0.911880	0.383318
H102	H	0.923729	-0.920361	0.199592
H103	H	0.832849	-0.633764	0.659727
