data_functionalizedCrystal
_audit_creation_method	'MofGen! by Chris Wilmer'
_symmetry_space_group_name_H-M	'P1'
_symmetry_Int_Tables_number	1
_symmetry_cell_setting	triclinic
loop_
_symmetry_equiv_pos_as_xyz
  x,y,z
_cell_length_a	10.540535
_cell_length_b	23.532407
_cell_length_c	9.616153
_cell_angle_alpha	89.989530
_cell_angle_beta	89.999627
_cell_angle_gamma	83.686160
loop_
_atom_site_label
_atom_site_type_symbol
_atom_site_fract_x
_atom_site_fract_y
_atom_site_fract_z
O1	O	1.683254	0.080242	-0.115586
O2	O	1.313592	0.087806	-0.115607
O3	O	1.509570	0.001166	-0.115570
O4	O	1.487276	0.166883	-0.115622
O5	O	1.509560	0.001161	0.115721
O6	O	1.313582	0.087802	0.115685
O7	O	1.683244	0.080237	0.115706
Zn8	Zn	1.498411	0.084019	0.152418
Zn9	Zn	1.498424	0.084025	-0.152319
O10	O	1.487266	0.166878	0.115669
C11	C	1.266302	0.087237	0.000037
C12	C	1.125410	0.085542	0.000030
C13	C	1.090815	0.022284	0.000056
C14	C	0.944273	0.020500	0.000595
C15	C	0.915121	0.114415	0.131859
C16	C	1.061842	0.115761	0.131956
C17	C	1.061707	0.116687	-0.131075
C18	C	0.915456	0.113762	-0.132793
C19	C	1.508997	-0.020056	0.000079
C20	C	1.507290	-0.083284	0.000090
C21	C	1.612560	-0.481693	0.000020
C22	C	1.610975	-0.541103	0.000009
O23	O	1.708561	-0.577204	-0.000037
N24	N	1.494466	-0.564498	0.000003
C25	C	1.379535	-0.528479	-0.000006
O26	O	1.280289	-0.553834	-0.000013
C27	C	1.381122	-0.469070	-0.000005
C28	C	1.497638	-0.445678	0.000015
C29	C	1.729067	-0.458301	0.000038
C30	C	1.730652	-0.398894	0.000051
C31	C	1.615730	-0.362880	0.000046
C32	C	1.499223	-0.386272	0.000028
C33	C	1.266192	-0.433051	-0.000024
C34	C	1.267789	-0.373638	-0.000024
C35	C	1.384306	-0.350247	-0.000005
C36	C	1.385887	-0.290850	0.000036
N37	N	1.502395	-0.267455	0.000042
C38	C	1.617317	-0.303470	0.000047
C39	C	1.376211	-0.653244	-0.000010
C40	C	1.374623	-0.712652	-0.000000
C41	C	1.606063	-0.725272	0.000012
C42	C	1.607650	-0.665863	0.000012
C43	C	1.492720	-0.629849	-0.000004
C44	C	1.620638	-0.178711	0.000076
C45	C	1.622212	-0.119299	0.000095
C46	C	1.390773	-0.106684	0.000075
C47	C	1.389197	-0.166091	0.000064
C48	C	1.504140	-0.202104	0.000059
O49	O	1.288352	-0.254715	0.000076
O50	O	1.716547	-0.278107	0.000036
C51	C	1.730533	0.080807	0.000059
C52	C	1.871426	0.082502	0.000057
C53	C	1.487838	0.188100	0.000017
C54	C	1.489545	0.251328	-0.000003
N55	N	1.498412	0.084014	0.360392
C56	C	1.603305	0.037673	0.419411
C57	C	1.603687	0.037801	0.580578
C58	C	1.526057	0.143632	0.581155
C59	C	1.526796	0.143355	0.419937
C60	C	1.365579	0.071283	0.419824
C61	C	1.366502	0.069943	0.581053
N62	N	1.498435	0.084025	0.639707
H63	H	1.104818	0.096950	-0.231013
N64	N	1.744608	-0.217548	0.000071
H65	H	1.818646	-0.193707	0.000088
H66	H	1.748991	-0.242481	0.085811
N67	N	1.853032	-0.497138	0.000065
H68	H	1.834371	-0.538326	0.000067
H69	H	1.903852	-0.489501	-0.085668
N70	N	1.338688	0.011856	0.631749
H71	H	1.256895	0.015916	0.687343
H72	H	1.329363	-0.013964	0.549349
H73	H	1.297207	-0.077350	0.000076
H74	H	1.587431	-0.006483	0.620169
H75	H	0.884933	0.092516	0.230339
N76	N	1.089087	0.178334	-0.132793
H77	H	1.137091	0.186039	-0.220484
H78	H	1.005991	0.204151	-0.129878
N79	N	1.856324	-0.373669	0.000067
H80	H	1.928875	-0.405506	0.000065
H81	H	1.862033	-0.349288	-0.085674
N82	N	0.850415	0.174886	0.137856
H83	H	0.792013	0.182193	0.054994
H84	H	0.798880	0.180333	0.226328
H85	H	1.102716	0.094205	0.230872
N86	N	1.258387	0.111673	0.634371
H87	H	1.293556	0.140428	0.697579
H88	H	1.212997	0.132211	0.553249
H89	H	0.864923	0.159013	-0.141177
H90	H	1.083350	0.162134	0.137573
H91	H	1.451640	0.178982	0.619451
N92	N	1.747888	-0.094070	0.000124
H93	H	1.820447	-0.125903	0.000121
H94	H	1.753596	-0.069686	-0.085612
N95	N	1.262196	0.116033	0.369271
H96	H	1.301141	0.144419	0.308171
H97	H	1.197093	0.096992	0.314181
H98	H	1.294320	-0.185137	0.000086
N99	N	1.329997	0.014875	0.366029
H100	H	1.244481	0.007551	0.405456
H101	H	1.324815	0.016200	0.261185
N102	N	1.652851	0.158680	0.634619
H103	H	1.692571	0.126975	0.696753
H104	H	1.711460	0.163680	0.553493
N105	N	0.878590	0.083003	-0.261964
H106	H	0.833552	0.048963	-0.234556
H107	H	0.819721	0.109928	-0.320801
H108	H	1.701348	0.045768	0.378871
H109	H	1.587346	-0.006758	0.380639
N110	N	1.248950	-0.737876	-0.000018
H111	H	1.265369	-0.780977	-0.000025
H112	H	1.198692	-0.724742	0.085723
N113	N	1.147478	-0.009896	-0.125115
H114	H	1.124146	-0.050382	-0.123084
H115	H	1.112803	0.009720	-0.212776
N116	N	1.734312	0.048657	0.631673
H117	H	1.791866	0.053384	0.549467
H118	H	1.726802	0.084611	0.689802
N119	N	0.906490	-0.012563	-0.124519
H120	H	0.985099	-0.026107	-0.180519
H121	H	0.863748	-0.046644	-0.092559
N122	N	0.907637	-0.012399	0.126505
H123	H	0.952079	-0.052644	0.122789
H124	H	0.934105	0.007148	0.213649
N125	N	1.733319	-0.640635	0.000035
H126	H	1.805874	-0.672470	0.000042
H127	H	1.739031	-0.616256	-0.085709
H128	H	1.699639	-0.754607	0.000010
H129	H	1.623631	0.154456	0.382325
H130	H	1.282615	-0.623924	-0.000011
N131	N	1.149407	-0.009363	0.125084
H132	H	1.198262	0.017099	0.181708
H133	H	1.079652	-0.023146	0.184077
N134	N	1.140520	-0.458271	-0.000028
H135	H	1.067971	-0.426433	-0.000033
H136	H	1.134812	-0.482638	-0.085770
H137	H	1.174197	-0.344318	-0.000040
N138	N	1.429366	0.190457	0.368202
H139	H	1.386132	0.211310	0.450128
H140	H	1.473372	0.218153	0.309954
