data_functionalizedCrystal
_audit_creation_method	'MofGen! by Chris Wilmer'
_symmetry_space_group_name_H-M	'P1'
_symmetry_Int_Tables_number	1
_symmetry_cell_setting	triclinic
loop_
_symmetry_equiv_pos_as_xyz
  x,y,z
_cell_length_a	16.959455
_cell_length_b	12.645035
_cell_length_c	16.959447
_cell_angle_alpha	89.879473
_cell_angle_beta	89.983056
_cell_angle_gamma	89.853239
loop_
_atom_site_label
_atom_site_type_symbol
_atom_site_fract_x
_atom_site_fract_y
_atom_site_fract_z
Zn1	Zn	1.207692	0.422116	-0.447738
Zn2	Zn	1.207309	0.599413	-0.315907
Zn3	Zn	1.075514	0.422150	-0.315575
Zn4	Zn	1.075186	0.599334	-0.448046
O5	O	1.141425	0.510753	-0.381816
O6	O	1.318252	0.445654	-0.430260
O7	O	1.189803	0.575946	-0.205252
O8	O	1.093345	0.273794	-0.332839
O9	O	1.317971	0.575913	-0.333405
O10	O	1.190456	0.273769	-0.429938
O11	O	1.092974	0.445711	-0.205008
O12	O	0.964860	0.445634	-0.333138
O13	O	1.092786	0.575778	-0.558616
O14	O	0.964619	0.575810	-0.430463
O15	O	1.190137	0.445577	-0.558389
O16	O	1.189485	0.747754	-0.333703
O17	O	1.092415	0.747696	-0.430785
C18	C	0.936059	0.510718	-0.381798
C19	C	0.848202	0.510729	-0.381809
C20	C	1.141980	0.234240	-0.381317
C21	C	1.142216	0.116406	-0.381104
C22	C	0.476828	0.442915	-0.331244
C23	C	0.476625	0.578679	-0.432434
C24	C	0.559171	0.578663	-0.432429
C25	C	0.600549	0.510774	-0.381830
C26	C	0.559382	0.442900	-0.331236
C27	C	0.600345	0.646544	-0.483016
C28	C	0.682896	0.646532	-0.483013
C29	C	0.724276	0.578637	-0.432417
C30	C	0.683103	0.510759	-0.381822
C31	C	0.724481	0.442869	-0.331223
C32	C	0.683310	0.374985	-0.280632
C33	C	0.600761	0.375004	-0.280641
C34	C	0.806824	0.578618	-0.432408
C35	C	0.807035	0.442854	-0.331215
C36	C	1.201939	-0.051149	-0.443566
C37	C	1.203031	0.071392	-0.442537
C38	C	1.164508	0.070285	-0.298132
C39	C	1.164097	-0.052302	-0.299337
C40	C	1.057414	-0.049146	-0.403517
C41	C	1.058707	0.073468	-0.404505
C42	C	1.347593	0.510789	-0.381835
C43	C	1.435450	0.510804	-0.381843
C44	C	1.140894	0.786191	-0.382331
C45	C	1.140739	0.904024	-0.382577
C46	C	1.141468	0.510665	-0.587984
C47	C	1.141486	0.510627	-0.675841
C48	C	1.091141	0.442708	-1.047196
C49	C	1.191970	0.578323	-1.047437
C50	C	1.191956	0.578348	-0.964892
C51	C	1.141533	0.510553	-0.923494
C52	C	1.091124	0.442733	-0.964642
C53	C	1.242359	0.646174	-0.923737
C54	C	1.242347	0.646202	-0.841186
C55	C	1.191927	0.578401	-0.799787
C56	C	1.141516	0.510578	-0.840940
C57	C	1.091094	0.442783	-0.799543
C58	C	1.040686	0.374954	-0.840695
C59	C	1.040705	0.374932	-0.923243
C60	C	1.191909	0.578422	-0.717239
C61	C	1.091077	0.442808	-0.716989
C62	C	1.141428	0.510764	-0.176450
C63	C	1.141564	0.510503	-0.088593
H64	H	0.717011	0.319714	-0.239431
N65	N	1.000241	-0.085511	-0.347776
N66	N	0.942307	-0.138104	-0.370624
H67	H	0.901933	-0.163793	-0.331256
H68	H	0.999629	0.319759	-0.806978
H69	H	0.840342	0.633891	-0.473596
H70	H	1.011127	0.104211	-0.362899
N71	N	1.185547	0.110585	-0.519747
N72	N	1.172452	0.047414	-0.574773
H73	H	1.160105	0.075088	-0.629308
H74	H	1.283390	0.701434	-0.807687
N75	N	0.558694	0.305675	-0.228972
N76	N	0.484990	0.305704	-0.228986
H77	H	0.455276	0.256743	-0.192494
H78	H	1.036626	-0.078830	-0.463412
N79	N	0.989224	0.305660	-0.965291
N80	N	0.989245	0.305654	-1.038995
H81	H	0.952885	0.256734	-1.068695
H82	H	1.050019	0.387595	-0.683289
H83	H	1.187750	-0.079454	-0.505720
N84	N	1.278966	-0.091282	-0.426399
N85	N	1.288985	-0.152756	-0.369442
H86	H	1.343386	-0.181100	-0.357314
H87	H	1.265204	0.099522	-0.428266
N88	N	1.039664	0.373425	-1.089238
N89	N	1.039686	0.373402	-1.162942
H90	H	1.003331	0.324470	-1.192636
N91	N	1.240541	-0.089735	-0.276976
N92	N	1.268152	-0.066637	-0.210908
H93	H	1.322143	-0.093068	-0.195114
N94	N	1.110663	-0.089617	-0.240324
N95	N	1.100857	-0.186727	-0.230687
H96	H	1.063133	-0.213079	-0.188997
N97	N	1.110844	0.106789	-0.239038
N98	N	1.055440	0.167351	-0.257459
H99	H	1.017537	0.193134	-0.215725
H100	H	1.233016	0.633526	-1.081148
H101	H	1.225191	0.099748	-0.279589
N102	N	1.037590	0.111457	-0.481141
N103	N	1.083828	0.169942	-0.518428
H104	H	1.068917	0.196776	-0.572554
H105	H	0.443303	0.387642	-0.290056
H106	H	1.283401	0.701381	-0.957449
H107	H	1.232955	0.633641	-0.683736
N108	N	0.434350	0.648023	-0.484105
N109	N	0.360646	0.648030	-0.484102
H110	H	0.330785	0.697006	-0.520598
N111	N	0.558077	0.715899	-0.534686
N112	N	0.511877	0.783408	-0.506922
H113	H	0.482020	0.832392	-0.543416
N114	N	0.849300	0.373488	-0.279542
N115	N	0.840262	0.275676	-0.284730
H116	H	0.870112	0.226684	-0.248237
N117	N	0.724935	0.715878	-0.534692
N118	N	0.687980	0.776490	-0.579863
H119	H	0.717670	0.825465	-0.616364
