data_functionalizedCrystal
_audit_creation_method	'MofGen! by Chris Wilmer'
_symmetry_space_group_name_H-M	'P1'
_symmetry_Int_Tables_number	1
_symmetry_cell_setting	triclinic
loop_
_symmetry_equiv_pos_as_xyz
  x,y,z
_cell_length_a	14.044220
_cell_length_b	14.971486
_cell_length_c	14.048226
_cell_angle_alpha	89.993360
_cell_angle_beta	90.001356
_cell_angle_gamma	91.598497
loop_
_atom_site_label
_atom_site_type_symbol
_atom_site_fract_x
_atom_site_fract_y
_atom_site_fract_z
O1	O	1.257954	-0.215664	0.079060
O2	O	0.981976	-0.207881	0.079084
O3	O	1.127361	-0.082155	0.079065
O4	O	1.112568	-0.341390	0.079080
O5	O	1.127344	-0.082146	-0.079256
O6	O	0.981958	-0.207872	-0.079237
O7	O	1.257936	-0.215654	-0.079261
Zn8	Zn	1.119944	-0.211762	-0.104386
Zn9	Zn	1.119967	-0.211774	0.104209
O10	O	1.112550	-0.341380	-0.079241
C11	C	0.946648	-0.204470	-0.000073
C12	C	0.841411	-0.194309	-0.000064
C13	C	1.126691	-0.048774	-0.000095
C14	C	1.124708	0.050680	-0.000094
N15	N	1.119935	-0.211753	-0.246746
C16	C	0.648729	-0.175732	-0.000084
C17	C	0.591177	-0.247799	-0.000084
C18	C	0.483962	-0.237463	-0.000095
C19	C	0.755954	-0.186067	-0.000073
C20	C	1.293263	-0.219065	-0.000101
C21	C	1.398500	-0.229227	-0.000104
C22	C	1.113220	-0.374762	-0.000079
C23	C	1.115203	-0.474215	-0.000074
C24	C	1.210119	0.101176	-0.000102
C25	C	1.208250	0.194623	-0.000093
C26	C	1.120970	0.237571	-0.000082
C27	C	1.035554	0.187067	-0.000071
C28	C	1.037423	0.093623	-0.000074
C29	C	1.031663	0.381836	-0.000067
C30	C	1.029793	0.475288	-0.000066
C31	C	1.202490	0.482837	-0.000086
C32	C	1.204360	0.389392	-0.000089
C33	C	1.118942	0.338895	-0.000080
C34	C	1.184333	-0.156108	-0.296573
C35	C	1.184339	-0.156108	-0.396231
C36	C	1.119952	-0.211758	-0.446060
C37	C	1.055548	-0.267406	-0.396226
C38	C	1.055538	-0.267400	-0.296570
C39	C	1.055575	-0.267414	-0.603941
C40	C	1.055587	-0.267421	-0.703603
C41	C	1.184377	-0.156122	-0.703601
C42	C	1.184366	-0.156117	-0.603945
C43	C	1.119963	-0.211766	-0.554118
N44	N	1.119984	-0.211776	0.246570
H45	H	0.617481	-0.106277	-0.000093
O46	O	1.289084	0.347571	0.000027
C47	C	1.295348	0.293752	0.082033
H48	H	1.220661	0.276474	0.109376
H49	H	1.333201	0.229640	0.063587
H50	H	1.337247	0.331620	0.139447
H51	H	1.003155	-0.312736	-0.744169
H52	H	1.281192	0.066215	-0.000117
O53	O	0.950746	0.228745	0.000111
C54	C	0.898674	0.203587	0.082101
H55	H	0.949718	0.180102	0.139406
H56	H	0.858283	0.263324	0.109630
H57	H	0.845916	0.146994	0.063569
O58	O	0.954481	0.044527	0.000100
C59	C	0.950419	-0.009776	0.082085
H60	H	0.998863	0.020523	0.139390
H61	H	0.874076	-0.014181	0.109618
H62	H	0.975033	-0.079579	0.063544
H63	H	1.277800	0.235734	-0.000101
H64	H	1.236768	-0.110795	-0.256009
O65	O	0.992869	-0.321362	-0.444587
C66	C	0.899017	-0.299290	-0.420236
H67	H	0.898477	-0.227631	-0.392852
H68	H	0.851463	-0.305756	-0.485780
H69	H	0.871217	-0.346632	-0.362387
H70	H	1.272040	0.523957	-0.000090
O71	O	0.993111	-0.321603	-0.555579
C72	C	1.008606	-0.411393	-0.579931
H73	H	1.084502	-0.417925	-0.607317
H74	H	0.997749	-0.455408	-0.514386
H75	H	0.956099	-0.433451	-0.637777
O76	O	0.628607	-0.330603	-0.000007
C77	C	0.728876	-0.322627	-0.000011
H78	H	0.751894	-0.254631	0.029935
H79	H	0.759383	-0.377663	0.045987
H80	H	0.756433	-0.329139	-0.075956
O81	O	0.944929	0.516867	0.000002
C82	C	0.869937	0.452262	-0.000001
H83	H	0.896588	0.386752	0.029960
H84	H	0.809025	0.476617	0.045986
H85	H	0.843559	0.441177	-0.075948
O86	O	1.246997	-0.102039	-0.444484
C87	C	1.303816	-0.052913	-0.379134
H88	H	1.304905	-0.089670	-0.308088
H89	H	1.379509	-0.045368	-0.407916
H90	H	1.272983	0.016021	-0.368556
H91	H	1.236799	-0.110807	-0.563374
H92	H	0.962107	0.340724	-0.000057
O93	O	1.246843	-0.102086	-0.752145
C94	C	1.233061	-0.114033	-0.850788
H95	H	1.157734	-0.141408	-0.864404
H96	H	1.243541	-0.047136	-0.888670
H97	H	1.286762	-0.163213	-0.879056
O98	O	0.993079	-0.321587	-0.248208
C99	C	1.008568	-0.411379	-0.272557
H100	H	1.084464	-0.417917	-0.299940
H101	H	0.997705	-0.455392	-0.207011
H102	H	0.956062	-0.433435	-0.330405
