data_functionalizedCrystal
_audit_creation_method	'MofGen! by Chris Wilmer'
_symmetry_space_group_name_H-M	'P1'
_symmetry_Int_Tables_number	1
_symmetry_cell_setting	triclinic
loop_
_symmetry_equiv_pos_as_xyz
  x,y,z
_cell_length_a	21.295420
_cell_length_b	21.295417
_cell_length_c	16.959447
_cell_angle_alpha	89.969420
_cell_angle_beta	89.981229
_cell_angle_gamma	90.027953
loop_
_atom_site_label
_atom_site_type_symbol
_atom_site_fract_x
_atom_site_fract_y
_atom_site_fract_z
Zn1	Zn	0.962322	-0.250648	-0.446915
Zn2	Zn	1.295655	0.082685	-0.113581
Zn3	Zn	1.628989	0.416018	0.219752
Zn4	Zn	0.962237	-0.355918	-0.314727
Zn5	Zn	1.295570	-0.022585	0.018606
Zn6	Zn	1.628904	0.310748	0.351939
Zn7	Zn	0.857056	-0.250664	-0.314749
Zn8	Zn	1.190390	0.082669	0.018584
Zn9	Zn	1.523723	0.416003	0.351917
Zn10	Zn	0.857016	-0.355880	-0.446863
Zn11	Zn	1.190350	-0.022547	-0.113530
Zn12	Zn	1.523683	0.310786	0.219804
O13	O	0.909658	-0.303278	-0.380813
O14	O	1.242991	0.030056	-0.047480
O15	O	1.576324	0.363389	0.285853
O16	O	1.050400	-0.264622	-0.429392
O17	O	1.383733	0.068711	-0.096059
O18	O	1.717067	0.402045	0.237275
O19	O	0.948265	-0.341979	-0.204119
O20	O	1.281599	-0.008645	0.129214
O21	O	1.614932	0.324688	0.462547
O22	O	0.871072	-0.162572	-0.332312
O23	O	1.204406	0.170761	0.001021
O24	O	1.537739	0.504094	0.334355
O25	O	1.050338	-0.341964	-0.332275
O26	O	1.383671	-0.008630	0.001059
O27	O	1.717004	0.324703	0.334392
O28	O	0.948411	-0.162561	-0.429413
O29	O	1.281744	0.170772	-0.096080
O30	O	1.615077	0.504106	0.237253
O31	O	0.870990	-0.264649	-0.204135
O32	O	1.204323	0.068685	0.129198
O33	O	1.537656	0.402018	0.462531
O34	O	0.768962	-0.264612	-0.332262
O35	O	1.102295	0.068722	0.001071
O36	O	1.435628	0.402055	0.334405
O37	O	0.871004	-0.341899	-0.557481
O38	O	1.204337	-0.008565	-0.224147
O39	O	1.537671	0.324768	0.109186
O40	O	0.768932	-0.341914	-0.429325
O41	O	1.102265	-0.008580	-0.095992
O42	O	1.435599	0.324753	0.237341
O43	O	0.948372	-0.264585	-0.557519
O44	O	1.281705	0.068748	-0.224185
O45	O	1.615039	0.402082	0.109148
O46	O	0.948227	-0.444003	-0.332224
O47	O	1.281560	-0.110669	0.001109
O48	O	1.614893	0.222664	0.334442
O49	O	0.870922	-0.443975	-0.429304
O50	O	1.204255	-0.110641	-0.095971
O51	O	1.537588	0.222692	0.237363
C52	C	0.746106	-0.303261	-0.380791
C53	C	1.079440	0.030073	-0.047457
C54	C	1.412773	0.363406	0.285876
C55	C	0.676138	-0.303269	-0.380800
C56	C	1.009471	0.030065	-0.047466
C57	C	1.342805	0.363398	0.285867
C58	C	0.176681	-0.343603	-0.431305
C59	C	0.510015	-0.010270	-0.097972
C60	C	0.843348	0.323064	0.235361
C61	C	0.242424	-0.343603	-0.431297
C62	C	0.575757	-0.010270	-0.097964
C63	C	0.909091	0.323063	0.235370
C64	C	0.275299	-0.303292	-0.380838
C65	C	0.608632	0.030041	-0.047505
C66	C	0.941965	0.363375	0.285828
C67	C	0.242426	-0.262989	-0.330370
C68	C	0.575759	0.070344	0.002964
C69	C	0.909092	0.403678	0.336297
C70	C	0.176684	-0.262994	-0.330374
C71	C	0.510018	0.070339	0.002959
C72	C	0.843351	0.403672	0.336293
N73	N	0.378539	-0.248175	-0.374894
N74	N	0.711872	0.085158	-0.041561
N75	N	1.045206	0.418491	0.291772
N76	N	0.440991	-0.248172	-0.374895
N77	N	0.774324	0.085161	-0.041562
N78	N	1.107657	0.418495	0.291772
C79	C	0.473373	-0.303274	-0.380821
C80	C	0.806707	0.030059	-0.047488
C81	C	1.140040	0.363392	0.285845
N82	N	0.440946	-0.358381	-0.386763
N83	N	0.774279	-0.025048	-0.053429
N84	N	1.107612	0.308285	0.279904
N85	N	0.378488	-0.358384	-0.386766
N86	N	0.711822	-0.025051	-0.053433
N87	N	1.045155	0.308283	0.279901
C88	C	0.346584	-0.303282	-0.380828
C89	C	0.679917	0.030051	-0.047494
C90	C	1.013251	0.363385	0.285839
C91	C	0.577524	-0.343578	-0.431274
C92	C	0.910857	-0.010245	-0.097940
C93	C	1.244191	0.323088	0.235393
C94	C	0.643268	-0.343580	-0.431260
C95	C	0.976601	-0.010246	-0.097927
C96	C	1.309935	0.323087	0.235407
C97	C	0.643268	-0.262960	-0.330337
C98	C	0.976602	0.070374	0.002996
C99	C	1.309935	0.403707	0.336330
C100	C	0.577526	-0.262964	-0.330347
C101	C	0.910859	0.070369	0.002987
C102	C	1.244192	0.403703	0.336320
C103	C	0.544658	-0.303272	-0.380819
C104	C	0.877991	0.030061	-0.047486
C105	C	1.211324	0.363394	0.285847
C106	C	0.909578	-0.466829	-0.380773
C107	C	1.242911	-0.133496	-0.047440
C108	C	1.576244	0.199837	0.285893
C109	C	0.909601	-0.536797	-0.380783
C110	C	1.242934	-0.203464	-0.047449
C111	C	1.576268	0.129869	0.285884
C112	C	0.949848	-0.569601	-0.431380
C113	C	1.283181	-0.236268	-0.098046
C114	C	1.616515	0.097066	0.235287
C115	C	0.949870	-0.635344	-0.431399
C116	C	1.283203	-0.302010	-0.098066
C117	C	1.616537	0.031323	0.235268
C118	C	0.909652	-0.668280	-0.380808
C119	C	1.242985	-0.334947	-0.047474
C120	C	1.576319	-0.001613	0.285859
C121	C	0.869397	-0.635469	-0.330207
C122	C	1.202730	-0.302135	0.003126
C123	C	1.536064	0.031198	0.336459
C124	C	0.869371	-0.569727	-0.330195
C125	C	1.202705	-0.236394	0.003138
C126	C	1.536038	0.096939	0.336472
N127	N	0.904898	-0.771542	-0.311632
N128	N	1.238231	-0.438208	0.021702
N129	N	1.571565	-0.104875	0.355035
N130	N	0.904926	-0.833993	-0.311646
N131	N	1.238259	-0.500660	0.021688
N132	N	1.571593	-0.167327	0.355021
C133	C	0.909725	-0.866355	-0.380843
C134	C	1.243059	-0.533021	-0.047510
C135	C	1.576392	-0.199688	0.285823
N136	N	0.914508	-0.833905	-0.450028
N137	N	1.247841	-0.500572	-0.116695
N138	N	1.581175	-0.167239	0.216639
N139	N	0.914483	-0.771448	-0.450013
N140	N	1.247817	-0.438115	-0.116680
N141	N	1.581150	-0.104782	0.216654
C142	C	0.909675	-0.739565	-0.380816
C143	C	1.243008	-0.406232	-0.047483
C144	C	1.576341	-0.072899	0.285851
C145	C	0.949999	-0.970444	-0.431466
C146	C	1.283332	-0.637110	-0.098132
C147	C	1.616665	-0.303777	0.235201
C148	C	0.950017	-1.036187	-0.431486
C149	C	1.283350	-0.702854	-0.098153
C150	C	1.616683	-0.369521	0.235180
C151	C	0.869547	-1.036311	-0.330288
C152	C	1.202880	-0.702978	0.003046
C153	C	1.536213	-0.369645	0.336379
C154	C	0.869526	-0.970569	-0.330274
C155	C	1.202859	-0.637235	0.003060
C156	C	1.536192	-0.303902	0.336393
C157	C	0.909755	-0.937639	-0.380862
C158	C	1.243088	-0.604306	-0.047528
C159	C	1.576422	-0.270972	0.285805
C160	C	1.073848	-0.303295	-0.380837
C161	C	1.407181	0.030038	-0.047503
C162	C	1.740515	0.363371	0.285830
C163	C	1.143816	-0.303303	-0.380847
C164	C	1.477149	0.030031	-0.047513
C165	C	1.810483	0.363364	0.285820
C166	C	0.909693	-0.303236	-0.586982
C167	C	1.243026	0.030097	-0.253648
C168	C	1.576360	0.363431	0.079685
C169	C	0.909708	-0.303218	-0.674838
C170	C	1.243041	0.030115	-0.341505
C171	C	1.576375	0.363449	-0.008172
C172	C	0.909756	-0.139087	-0.380871
C173	C	1.243089	0.194246	-0.047538
C174	C	1.576422	0.527579	0.285796
C175	C	0.909797	-0.069119	-0.380895
C176	C	1.243130	0.264214	-0.047562
C177	C	1.576464	0.597547	0.285771
C178	C	0.869434	-0.343464	-0.716094
C179	C	1.202767	-0.010131	-0.382761
C180	C	1.536101	0.323203	-0.049428
C181	C	0.949993	-0.262951	-0.716136
C182	C	1.283326	0.070382	-0.382803
C183	C	1.616659	0.403715	-0.049470
C184	C	0.950006	-0.262931	-0.798682
C185	C	1.283339	0.070403	-0.465349
C186	C	1.616672	0.403736	-0.132016
C187	C	0.909732	-0.303177	-0.839938
C188	C	1.243065	0.030157	-0.506605
C189	C	1.576398	0.363490	-0.173271
C190	C	0.869445	-0.343443	-0.798648
C191	C	1.202778	-0.010110	-0.465314
C192	C	1.536111	0.323223	-0.131981
C193	C	0.990288	-0.222661	-0.839979
C194	C	1.323621	0.110673	-0.506645
C195	C	1.656954	0.444006	-0.173312
C196	C	0.990302	-0.222638	-0.922530
C197	C	1.323635	0.110696	-0.589196
C198	C	1.656968	0.444029	-0.255863
C199	C	0.950030	-0.262887	-0.963787
C200	C	1.283364	0.070446	-0.630454
C201	C	1.616697	0.403779	-0.297120
C202	C	0.909742	-0.303156	-0.922492
C203	C	1.243076	0.030177	-0.589158
C204	C	1.576409	0.363511	-0.255825
C205	C	0.869468	-0.343402	-0.963747
C206	C	1.202802	-0.010068	-0.630414
C207	C	1.536135	0.323265	-0.297081
C208	C	0.829183	-0.383674	-0.922453
C209	C	1.162516	-0.050341	-0.589120
C210	C	1.495849	0.282993	-0.255787
C211	C	0.829173	-0.383693	-0.839905
C212	C	1.162507	-0.050359	-0.506572
C213	C	1.495840	0.282974	-0.173238
C214	C	0.950040	-0.262869	-1.046335
C215	C	1.283373	0.070465	-0.713002
C216	C	1.616707	0.403798	-0.379669
C217	C	0.869479	-0.343381	-1.046301
C218	C	1.202812	-0.010048	-0.712968
C219	C	1.536145	0.323286	-0.379634
C220	C	0.909659	-0.303274	-0.175447
C221	C	1.242992	0.030059	0.157886
C222	C	1.576326	0.363393	0.491219
C223	C	0.909766	-0.303115	-0.087591
C224	C	1.243099	0.030219	0.245742
C225	C	1.576433	0.363552	0.579076
H226	H	0.550767	-0.230145	-0.289260
H227	H	0.884100	0.103188	0.044073
H228	H	1.217433	0.436522	0.377406
H229	H	0.269196	-0.230168	-0.289285
H230	H	0.602530	0.103165	0.044049
H231	H	0.935863	0.436498	0.377382
Cl232	Cl	0.536201	-0.394254	-0.494720
Cl233	Cl	0.869535	-0.060920	-0.161386
Cl234	Cl	1.202868	0.272413	0.171947
H235	H	0.836597	-0.543018	-0.288992
H236	H	1.169930	-0.209685	0.044341
H237	H	1.503263	0.123649	0.377675
Cl238	Cl	1.000666	-0.212231	-1.098244
Cl239	Cl	1.333999	0.121102	-0.764911
Cl240	Cl	1.667333	0.454436	-0.431577
H241	H	0.670026	-0.376401	-0.472347
H242	H	1.003359	-0.043068	-0.139014
H243	H	1.336692	0.290265	0.194319
H244	H	0.670034	-0.230139	-0.289250
H245	H	1.003368	0.103194	0.044084
H246	H	1.336701	0.436527	0.377417
Cl247	Cl	0.818793	-0.394090	-0.664185
Cl248	Cl	1.152126	-0.060757	-0.330852
Cl249	Cl	1.485460	0.272577	0.002482
Cl250	Cl	1.000475	-0.676591	-0.495006
Cl251	Cl	1.333808	-0.343258	-0.161673
Cl252	Cl	1.667141	-0.009924	0.171660
Cl253	Cl	0.778551	-0.434263	-0.974328
Cl254	Cl	1.111884	-0.100929	-0.640994
Cl255	Cl	1.445217	0.232404	-0.307661
H256	H	0.149924	-0.376428	-0.472401
H257	H	0.483257	-0.043094	-0.139068
H258	H	0.816591	0.290239	0.194265
H259	H	0.982603	-0.542791	-0.472573
H260	H	1.315937	-0.209458	-0.139240
H261	H	1.649270	0.123875	0.194094
H262	H	0.796375	-0.416480	-0.806276
H263	H	1.129708	-0.083146	-0.472943
H264	H	1.463041	0.250187	-0.139610
Cl265	Cl	1.000598	-0.212338	-0.664271
Cl266	Cl	1.333931	0.120996	-0.330938
Cl267	Cl	1.667265	0.454329	0.002395
H268	H	1.023074	-0.189892	-0.806382
H269	H	1.356408	0.143441	-0.473049
H270	H	1.689741	0.476774	-0.139715
H271	H	0.269188	-0.376421	-0.472389
H272	H	0.602521	-0.043087	-0.139056
H273	H	0.935855	0.290246	0.194278
H274	H	0.836685	-0.376157	-1.079886
H275	H	1.170018	-0.042824	-0.746552
H276	H	1.503351	0.290510	-0.413219
H277	H	0.982754	-0.943631	-0.472660
H278	H	1.316087	-0.610298	-0.139327
H279	H	1.649421	-0.276965	0.194007
H280	H	0.149926	-0.230175	-0.289284
H281	H	0.483259	0.103158	0.044049
H282	H	0.816592	0.436491	0.377383
H283	H	1.023106	-0.189847	-0.956144
H284	H	1.356439	0.143487	-0.622811
H285	H	1.689772	0.476820	-0.289477
H286	H	0.836650	-0.662290	-0.289017
H287	H	1.169983	-0.328956	0.044316
H288	H	1.503316	0.004377	0.377649
H289	H	0.836796	-1.063127	-0.289100
H290	H	1.170130	-0.729794	0.044233
H291	H	1.503463	-0.396461	0.377567
Cl292	Cl	0.818926	-0.929328	-0.266662
Cl293	Cl	1.152260	-0.595994	0.066671
Cl294	Cl	1.485593	-0.262661	0.400004
Cl295	Cl	1.000610	-1.077427	-0.495110
Cl296	Cl	1.333943	-0.744093	-0.161776
Cl297	Cl	1.667277	-0.410760	0.171557
