data_functionalizedCrystal
_audit_creation_method	'MofGen! by Chris Wilmer'
_symmetry_space_group_name_H-M	'P1'
_symmetry_Int_Tables_number	1
_symmetry_cell_setting	triclinic
loop_
_symmetry_equiv_pos_as_xyz
  x,y,z
_cell_length_a	17.019282
_cell_length_b	17.038272
_cell_length_c	14.750779
_cell_angle_alpha	76.426773
_cell_angle_beta	106.379547
_cell_angle_gamma	87.241387
loop_
_atom_site_label
_atom_site_type_symbol
_atom_site_fract_x
_atom_site_fract_y
_atom_site_fract_z
O1	O	1.054843	0.097971	0.007401
O2	O	0.822178	0.114778	-0.011841
O3	O	0.937129	-0.007417	-0.002326
O4	O	0.939892	0.220166	-0.002113
O5	O	0.969625	-0.041956	0.160014
O6	O	0.854674	0.080238	0.150499
O7	O	1.087339	0.063432	0.169741
Zn8	Zn	0.976166	0.066351	0.185895
Zn9	Zn	0.933351	0.111858	-0.027995
O10	O	0.972387	0.185627	0.160227
C11	C	0.808509	0.097554	0.066855
C12	C	0.719366	0.097683	0.059483
C13	C	0.695205	0.078913	0.144513
C14	C	0.611447	0.079021	0.137589
C15	C	0.551851	0.097904	0.045634
C16	C	0.576017	0.116672	-0.039403
C17	C	0.659774	0.116559	-0.032478
C18	C	0.298072	0.099183	0.020297
C19	C	0.214310	0.099298	0.013379
C20	C	0.249746	0.061645	0.190372
C21	C	0.333503	0.061538	0.197289
C22	C	0.357662	0.080302	0.112252
C23	C	0.466236	0.098017	0.038554
C24	C	0.443276	0.080183	0.119333
C25	C	0.950862	-0.053768	0.078636
C26	C	0.943357	-0.140423	0.078015
C27	C	1.012258	-0.191811	0.083714
C28	C	1.005200	-0.273229	0.083121
C29	C	0.929242	-0.303259	0.076836
C30	C	0.860335	-0.251863	0.071133
C31	C	0.867392	-0.170445	0.071719
C32	C	0.904308	-0.548553	0.074761
C33	C	0.897257	-0.629978	0.074178
C34	C	1.042123	-0.651338	0.086164
C35	C	1.049175	-0.569918	0.086756
C36	C	0.980267	-0.518529	0.081048
C37	C	0.922026	-0.386481	0.076233
C38	C	0.987481	-0.435306	0.081644
C39	C	1.101007	0.080656	0.091043
C40	C	1.190149	0.080529	0.098409
C41	C	0.958655	0.231978	0.079263
C42	C	0.966158	0.318634	0.079877
N43	N	1.005391	0.035293	0.331870
N44	N	0.904132	0.142910	-0.173969
C45	C	0.822507	0.229615	0.668551
C46	C	0.842992	0.207857	0.770746
C47	C	0.944807	0.099692	0.779135
C48	C	0.924327	0.121439	0.676939
C49	C	0.863177	0.186402	0.621655
C50	C	0.964997	0.078226	0.630043
C51	C	0.944522	0.099974	0.527856
C52	C	0.883376	0.164935	0.472565
C53	C	0.842702	0.208150	0.519468
C54	C	1.026151	0.013267	0.685330
C55	C	1.066821	-0.029947	0.638433
C56	C	1.046342	-0.008203	0.536244
C57	C	0.985196	0.056759	0.480953
C58	C	1.087016	-0.051417	0.489341
C59	C	1.066541	-0.029669	0.387154
C60	C	0.964721	0.078507	0.378766
H61	H	0.679443	0.131844	-0.101719
Cl62	Cl	0.581076	0.055438	0.244490
H63	H	0.317731	0.114460	-0.048946
H64	H	0.848198	-0.506721	0.070113
Cl65	Cl	0.791856	0.262195	0.829693
H66	H	0.743723	0.063543	0.219393
H67	H	1.074113	-0.167369	0.088838
Cl68	Cl	0.408419	0.037804	0.312894
H69	H	0.792901	0.261044	0.474452
Cl70	Cl	0.857638	0.192279	0.344100
Cl71	Cl	0.501097	0.140382	-0.155005
Cl72	Cl	1.128743	-0.715945	0.093336
Cl73	Cl	1.117674	-0.083995	0.328198
H74	H	0.798486	-0.276318	0.066010
H75	H	0.417704	0.113391	-0.036316
H76	H	0.835403	-0.654427	0.069076
Cl77	Cl	0.826537	-0.424239	0.068327
Cl78	Cl	1.143695	-0.111610	0.707940
H79	H	0.491803	0.064805	0.194202
H80	H	0.811285	-0.128605	0.067078
Cl81	Cl	1.021681	0.018029	0.848642
Cl82	Cl	0.219370	0.038053	0.297268
Cl83	Cl	0.139389	0.123041	-0.102231
Cl84	Cl	1.091824	-0.337829	0.090289
H85	H	1.042822	-0.004435	0.768537
H86	H	1.136811	-0.104305	0.534367
Cl87	Cl	0.745621	0.311277	0.599046
Cl88	Cl	1.144663	-0.532167	0.094626
H89	H	1.049322	-0.410848	0.086740
H90	H	0.914920	0.131401	0.333751
