data_functionalizedCrystal
_audit_creation_method	'MofGen! by Chris Wilmer'
_symmetry_space_group_name_H-M	'P1'
_symmetry_Int_Tables_number	1
_symmetry_cell_setting	triclinic
loop_
_symmetry_equiv_pos_as_xyz
  x,y,z
_cell_length_a	16.120484
_cell_length_b	10.686220
_cell_length_c	10.686551
_cell_angle_alpha	89.691918
_cell_angle_beta	88.707809
_cell_angle_gamma	82.929033
loop_
_atom_site_label
_atom_site_type_symbol
_atom_site_fract_x
_atom_site_fract_y
_atom_site_fract_z
Zn1	Zn	-0.203137	-1.957921	-0.579045
Zn2	Zn	-0.353948	-1.931025	-0.381655
Zn3	Zn	-0.224452	-1.730532	-0.387111
Zn4	Zn	-0.352260	-1.737575	-0.607294
O5	O	-0.283449	-1.839263	-0.488776
O6	O	-0.214929	-2.130476	-0.538756
O7	O	-0.346397	-1.890226	-0.207623
O8	O	-0.105021	-1.769004	-0.403033
O9	O	-0.325729	-2.110716	-0.393734
O10	O	-0.089361	-1.936065	-0.544046
O11	O	-0.251257	-1.742924	-0.211631
O12	O	-0.249619	-1.555343	-0.430424
O13	O	-0.322851	-1.781008	-0.778303
O14	O	-0.343519	-1.560518	-0.592192
O15	O	-0.213292	-1.942895	-0.757549
O16	O	-0.470327	-1.897056	-0.421125
O17	O	-0.469087	-1.754928	-0.586902
C18	C	-0.298700	-1.512264	-0.514966
C19	C	-0.305242	-1.372373	-0.526202
C20	C	-0.499938	-1.823874	-0.506511
C21	C	-0.592545	-1.817409	-0.514131
C22	C	-0.265505	-1.865737	-0.814505
C23	C	-0.257859	-1.877019	-0.953311
C24	C	-0.762098	-1.805615	-0.528067
C25	C	-0.803948	-1.873138	-0.449488
C26	C	-0.898293	-1.866576	-0.457242
C27	C	-0.667744	-1.812176	-0.520315
C28	C	-0.066112	-1.854749	-0.470997
C29	C	0.026504	-1.861348	-0.463420
C30	C	-0.268140	-2.167539	-0.462485
C31	C	-0.261616	-2.307431	-0.451281
C32	C	-0.301259	-1.812969	-0.164304
C33	C	-0.308660	-1.801948	-0.025460
H34	H	-0.768923	-1.935874	-0.376390
H35	H	-0.797121	-1.742882	-0.601158
H36	H	-0.219261	-1.358852	-0.378542
H37	H	-0.358005	-1.729049	-0.981039
H38	H	-0.347606	-1.320945	-0.598938
H39	H	-0.208516	-1.949930	-0.997738
