data_functionalizedCrystal
_audit_creation_method	'MofGen! by Chris Wilmer'
_symmetry_space_group_name_H-M	'P1'
_symmetry_Int_Tables_number	1
_symmetry_cell_setting	triclinic
loop_
_symmetry_equiv_pos_as_xyz
  x,y,z
_cell_length_a	12.594517
_cell_length_b	21.295417
_cell_length_c	12.594509
_cell_angle_alpha	90.035198
_cell_angle_beta	90.011478
_cell_angle_gamma	90.025589
loop_
_atom_site_label
_atom_site_type_symbol
_atom_site_fract_x
_atom_site_fract_y
_atom_site_fract_z
Zn1	Zn	1.627166	-0.250659	0.601529
Zn2	Zn	1.960499	0.082674	0.934862
Zn3	Zn	2.293833	0.416007	1.268195
Zn4	Zn	1.627014	-0.355938	0.423529
Zn5	Zn	1.960348	-0.022605	0.756862
Zn6	Zn	2.293681	0.310729	1.090195
Zn7	Zn	1.449170	-0.250679	0.423588
Zn8	Zn	1.782503	0.082654	0.756921
Zn9	Zn	2.115836	0.415988	1.090255
Zn10	Zn	1.449110	-0.355887	0.601489
Zn11	Zn	1.782443	-0.022554	0.934823
Zn12	Zn	2.115776	0.310780	1.268156
O13	O	1.538115	-0.303291	0.512534
O14	O	1.871448	0.030042	0.845867
O15	O	2.204782	0.363376	1.179200
O16	O	1.776092	-0.264638	0.577908
O17	O	2.109425	0.068695	0.911242
O18	O	2.442758	0.402029	1.244575
O19	O	1.603385	-0.342005	0.274591
O20	O	1.936718	-0.008671	0.607924
O21	O	2.270051	0.324662	0.941257
O22	O	1.472870	-0.162587	0.447234
O23	O	1.806203	0.170746	0.780567
O24	O	2.139537	0.504080	1.113901
O25	O	1.775980	-0.341986	0.447132
O26	O	2.109314	-0.008652	0.780466
O27	O	2.442647	0.324681	1.113799
O28	O	1.603643	-0.162573	0.577966
O29	O	1.936976	0.170761	0.911299
O30	O	2.270310	0.504094	1.244633
O31	O	1.472723	-0.264672	0.274634
O32	O	1.806056	0.068662	0.607968
O33	O	2.139390	0.401995	0.941301
O34	O	1.300216	-0.264622	0.447196
O35	O	1.633549	0.068711	0.780529
O36	O	1.966883	0.402045	1.113862
O37	O	1.472767	-0.341899	0.750440
O38	O	1.806101	-0.008566	1.083774
O39	O	2.139434	0.324768	1.417107
O40	O	1.300172	-0.341918	0.577899
O41	O	1.633505	-0.008585	0.911232
O42	O	1.966838	0.324749	1.244565
O43	O	1.603585	-0.264589	0.750469
O44	O	1.936918	0.068745	1.083803
O45	O	2.270251	0.402078	1.417136
O46	O	1.603326	-0.444021	0.447094
O47	O	1.936660	-0.110687	0.780427
O48	O	2.269993	0.222646	1.113761
O49	O	1.472620	-0.443983	0.577841
O50	O	1.805954	-0.110650	0.911174
O51	O	2.139287	0.222683	1.244507
C52	C	1.261574	-0.303267	0.512550
C53	C	1.594907	0.030066	0.845883
C54	C	1.928241	0.363400	1.179217
C55	C	1.143269	-0.303272	0.512582
C56	C	1.476602	0.030061	0.845915
C57	C	1.809935	0.363395	1.179249
C58	C	1.074022	-0.345396	0.583534
C59	C	1.407355	-0.012062	0.916867
C60	C	1.740689	0.321271	1.250201
C61	C	1.003237	-0.288001	0.609724
C62	C	1.336570	0.045332	0.943057
C63	C	1.669903	0.378666	1.276391
C64	C	1.003255	-0.360714	0.486368
C65	C	1.336588	-0.027381	0.819702
C66	C	1.669922	0.305952	1.153035
C67	C	1.074041	-0.245847	0.538823
C68	C	1.407375	0.087487	0.872156
C69	C	1.740708	0.420820	1.205490
C70	C	1.074066	-0.318599	0.415422
C71	C	1.407399	0.014734	0.748755
C72	C	1.740732	0.348068	1.082089
C73	C	1.003312	-0.261164	0.441575
C74	C	1.336646	0.072169	0.774909
C75	C	1.669979	0.405502	1.108242
C76	C	1.537979	-0.466843	0.512480
C77	C	1.871313	-0.133509	0.845813
C78	C	2.204646	0.199824	1.179146
C79	C	1.538019	-0.536811	0.512492
C80	C	1.871352	-0.203477	0.845826
C81	C	2.204685	0.129856	1.179159
C82	C	1.606073	-0.569613	0.580613
C83	C	1.939406	-0.236279	0.913947
C84	C	2.272740	0.097054	1.247280
C85	C	1.606111	-0.635355	0.580639
C86	C	1.939444	-0.302022	0.913973
C87	C	2.272777	0.031312	1.247306
C88	C	1.538105	-0.668293	0.512526
C89	C	1.871438	-0.334960	0.845859
C90	C	2.204772	-0.001626	1.179193
C91	C	1.470037	-0.635483	0.444400
C92	C	1.803370	-0.302150	0.777734
C93	C	2.136704	0.031183	1.111067
C94	C	1.469994	-0.569742	0.444383
C95	C	1.803327	-0.236409	0.777717
C96	C	2.136661	0.096925	1.111050
N97	N	1.530063	-0.771559	0.419377
N98	N	1.863396	-0.438226	0.752710
N99	N	2.196730	-0.104892	1.086043
N100	N	1.530110	-0.834011	0.419396
N101	N	1.863444	-0.500677	0.752729
N102	N	2.196777	-0.167344	1.086062
C103	C	1.538229	-0.866368	0.512574
C104	C	1.871563	-0.533034	0.845907
C105	C	2.204896	-0.199701	1.179241
N106	N	1.546320	-0.833914	0.605735
N107	N	1.879653	-0.500581	0.939068
N108	N	2.212987	-0.167248	1.272401
N109	N	1.546278	-0.771457	0.605714
N110	N	1.879612	-0.438124	0.939048
N111	N	2.212945	-0.104791	1.272381
C112	C	1.538144	-0.739579	0.512537
C113	C	1.871477	-0.406245	0.845870
C114	C	2.204810	-0.072912	1.179204
C115	C	1.606328	-0.970455	0.580729
C116	C	1.939661	-0.637122	0.914062
C117	C	2.272995	-0.303789	1.247396
C118	C	1.606358	-1.036199	0.580757
C119	C	1.939692	-0.702866	0.914090
C120	C	2.273025	-0.369532	1.247424
C121	C	1.470290	-1.036326	0.444508
C122	C	1.803624	-0.702993	0.777842
C123	C	2.136957	-0.369659	1.111175
C124	C	1.470255	-0.970583	0.444490
C125	C	1.803588	-0.637250	0.777823
C126	C	2.136921	-0.303917	1.111156
C127	C	1.538279	-0.937652	0.512599
C128	C	1.871613	-0.604319	0.845932
C129	C	2.204946	-0.270985	1.179265
C130	C	1.815736	-0.303315	0.512518
C131	C	2.149069	0.030018	0.845851
C132	C	2.482402	0.363351	1.179185
C133	C	1.934041	-0.303326	0.512511
C134	C	2.267374	0.030008	0.845845
C135	C	2.600708	0.363341	1.179178
C136	C	1.538186	-0.303236	0.790155
C137	C	1.871520	0.030098	1.123488
C138	C	2.204853	0.363431	1.456821
C139	C	1.538217	-0.303212	0.908460
C140	C	1.871550	0.030121	1.241794
C141	C	2.204883	0.363454	1.575127
C142	C	1.538280	-0.139101	0.512611
C143	C	1.871613	0.194233	0.845944
C144	C	2.204947	0.527566	1.179278
C145	C	1.538350	-0.069133	0.512644
C146	C	1.871684	0.264201	0.845977
C147	C	2.205017	0.597534	1.179311
C148	C	1.538105	-0.303300	0.235993
C149	C	1.871438	0.030033	0.569326
C150	C	2.204772	0.363366	0.902659
C151	C	1.538281	-0.303147	0.117688
C152	C	1.871614	0.030187	0.451021
C153	C	2.204948	0.363520	0.784354
C154	C	1.467087	-0.345238	0.977698
C155	C	1.800421	-0.011904	1.311031
C156	C	2.133754	0.321429	1.644364
C157	C	1.564202	-0.360622	1.048468
C158	C	1.897535	-0.027289	1.381802
C159	C	2.230869	0.306045	1.715135
C160	C	1.441178	-0.287790	1.048489
C161	C	1.774511	0.045544	1.381822
C162	C	2.107845	0.378877	1.715155
C163	C	1.635382	-0.318627	0.977673
C164	C	1.968715	0.014706	1.311006
C165	C	2.302048	0.348040	1.644339
C166	C	1.512292	-0.245768	0.977687
C167	C	1.845626	0.087565	1.311020
C168	C	2.178959	0.420899	1.644354
C169	C	1.609474	-0.261131	1.048426
C170	C	1.942807	0.072203	1.381759
C171	C	2.276140	0.405536	1.715092
H172	H	0.972460	-0.225524	0.381543
H173	H	1.305794	0.107809	0.714877
H174	H	1.639127	0.441143	1.048210
Cl175	Cl	1.478341	-0.170829	0.929643
Cl176	Cl	1.811674	0.162504	1.262976
Cl177	Cl	2.145008	0.495837	1.596310
H178	H	1.669722	-0.225563	1.079285
H179	H	2.003056	0.107770	1.412618
H180	H	2.336389	0.441103	1.745951
H181	H	1.586164	-0.409174	1.079559
H182	H	1.919497	-0.075840	1.412893
H183	H	2.252830	0.257493	1.746226
H184	H	1.661520	-0.662068	0.636124
H185	H	1.994853	-0.328734	0.969457
H186	H	2.328187	0.004599	1.302791
H187	H	1.105005	-0.197277	0.561057
H188	H	1.438338	0.136057	0.894391
H189	H	1.771671	0.469390	1.227724
H190	H	1.661776	-1.062905	0.636234
H191	H	1.995109	-0.729572	0.969567
H192	H	2.328443	-0.396239	1.302901
H193	H	1.414843	-0.943874	0.389015
H194	H	1.748176	-0.610541	0.722348
H195	H	2.081509	-0.277208	1.055681
H196	H	1.414912	-1.063143	0.389055
H197	H	1.748245	-0.729810	0.722389
H198	H	2.081579	-0.396477	1.055722
H199	H	1.717497	-0.331699	0.946697
H200	H	2.050830	0.001634	1.280030
H201	H	2.384164	0.334967	1.613363
Cl202	Cl	1.314438	-0.267691	1.096516
Cl203	Cl	1.647771	0.065643	1.429849
Cl204	Cl	1.981104	0.398976	1.763183
Cl205	Cl	1.384538	-0.676890	0.358778
Cl206	Cl	1.717871	-0.343557	0.692111
Cl207	Cl	2.051204	-0.010223	1.025445
H208	H	1.105073	-0.380949	0.643613
H209	H	1.438406	-0.047616	0.976946
H210	H	1.771740	0.285717	1.310279
H211	H	0.972125	-0.275056	0.691860
H212	H	1.305458	0.058277	1.025193
H213	H	1.638792	0.391611	1.358527
Cl214	Cl	1.374291	-0.400190	0.929745
Cl215	Cl	1.707624	-0.066856	1.263078
Cl216	Cl	2.040957	0.266477	1.596412
H217	H	0.972156	-0.409270	0.464229
H218	H	1.305490	-0.075936	0.797563
H219	H	1.638823	0.257397	1.130896
Cl220	Cl	1.122102	-0.338600	0.288626
Cl221	Cl	1.455435	-0.005266	0.621959
Cl222	Cl	1.788768	0.328067	0.955293
H223	H	1.661460	-0.542802	0.636074
H224	H	1.994793	-0.209468	0.969407
H225	H	2.328127	0.123865	1.302741
Cl226	Cl	1.384432	-0.528503	0.358739
Cl227	Cl	1.717765	-0.195170	0.692072
Cl228	Cl	2.051098	0.138164	1.025406
H229	H	1.661715	-0.943641	0.636191
H230	H	1.995048	-0.610308	0.969524
H231	H	2.328381	-0.276975	1.302858
