data_functionalizedCrystal
_audit_creation_method	'MofGen! by Chris Wilmer'
_symmetry_space_group_name_H-M	'P1'
_symmetry_Int_Tables_number	1
_symmetry_cell_setting	triclinic
loop_
_symmetry_equiv_pos_as_xyz
  x,y,z
_cell_length_a	12.759401
_cell_length_b	16.625546
_cell_length_c	16.625548
_cell_angle_alpha	90.013404
_cell_angle_beta	90.005065
_cell_angle_gamma	90.022629
loop_
_atom_site_label
_atom_site_type_symbol
_atom_site_fract_x
_atom_site_fract_y
_atom_site_fract_z
Zn1	Zn	1.606059	-0.321132	0.455829
Zn2	Zn	1.939393	0.012201	0.789162
Zn3	Zn	2.272726	0.345535	1.122496
Zn4	Zn	1.605971	-0.455935	0.320991
Zn5	Zn	1.939304	-0.122602	0.654325
Zn6	Zn	2.272638	0.210732	0.987658
Zn7	Zn	1.430403	-0.321121	0.321017
Zn8	Zn	1.763736	0.012213	0.654351
Zn9	Zn	2.097069	0.345546	0.987684
Zn10	Zn	1.430326	-0.455927	0.455789
Zn11	Zn	1.763659	-0.122593	0.789122
Zn12	Zn	2.096993	0.210740	1.122455
O13	O	1.518190	-0.388529	0.388407
O14	O	1.851523	-0.055195	0.721740
O15	O	2.184856	0.278138	1.055073
O16	O	1.753069	-0.339022	0.437949
O17	O	2.086402	-0.005689	0.771282
O18	O	2.419735	0.327644	1.104615
O19	O	1.582677	-0.438050	0.208163
O20	O	1.916010	-0.104717	0.541496
O21	O	2.249343	0.228616	0.874829
O22	O	1.453773	-0.208290	0.338928
O23	O	1.787106	0.125044	0.672261
O24	O	2.120439	0.458377	1.005595
O25	O	1.753004	-0.438061	0.338884
O26	O	2.086337	-0.104728	0.672217
O27	O	2.419670	0.228605	1.005551
O28	O	1.582827	-0.208298	0.437974
O29	O	1.916160	0.125035	0.771307
O30	O	2.249494	0.458369	1.104640
O31	O	1.453687	-0.339003	0.208181
O32	O	1.787020	-0.005669	0.541515
O33	O	2.120354	0.327664	0.874848
O34	O	1.283371	-0.338995	0.338889
O35	O	1.616705	-0.005661	0.672222
O36	O	1.950038	0.327672	1.005555
O37	O	1.453643	-0.438047	0.568626
O38	O	1.786976	-0.104714	0.901960
O39	O	2.120309	0.228620	1.235293
O40	O	1.283315	-0.438036	0.437905
O41	O	1.616649	-0.104703	0.771238
O42	O	1.949982	0.228631	1.104572
O43	O	1.582753	-0.339014	0.568656
O44	O	1.916086	-0.005681	0.901989
O45	O	2.249420	0.327653	1.235323
O46	O	1.582602	-0.568766	0.338845
O47	O	1.915936	-0.235433	0.672178
O48	O	2.249269	0.097900	1.005512
O49	O	1.453557	-0.568760	0.437880
O50	O	1.786890	-0.235427	0.771213
O51	O	2.120224	0.097906	1.104547
C52	C	1.245222	-0.388514	0.388396
C53	C	1.578556	-0.055180	0.721729
C54	C	1.911889	0.278153	1.055062
C55	C	1.128446	-0.388527	0.388410
C56	C	1.461779	-0.055193	0.721743
C57	C	1.795112	0.278140	1.055077
C58	C	1.073582	-0.440180	0.439882
C59	C	1.406915	-0.106847	0.773216
C60	C	1.740249	0.226486	1.106549
C61	C	0.963858	-0.440190	0.439891
C62	C	1.297191	-0.106857	0.773225
C63	C	1.630525	0.226476	1.106558
C64	C	0.963871	-0.336892	0.336948
C65	C	1.297204	-0.003558	0.670282
C66	C	1.630538	0.329775	1.003615
C67	C	1.073593	-0.336878	0.336944
C68	C	1.406926	-0.003545	0.670278
C69	C	1.740260	0.329789	1.003611
C70	C	1.073574	-0.499821	0.499313
C71	C	1.406907	-0.166488	0.832647
C72	C	1.740240	0.166845	1.165980
C73	C	0.963850	-0.499832	0.499322
C74	C	1.297183	-0.166498	0.832656
C75	C	1.630516	0.166835	1.165989
C76	C	1.518090	-0.598019	0.388373
C77	C	1.851424	-0.264686	0.721706
C78	C	2.184757	0.068647	1.055040
C79	C	1.518144	-0.687641	0.388385
C80	C	1.851477	-0.354307	0.721719
C81	C	2.184811	-0.020974	1.055052
C82	C	1.518327	-1.015816	0.388469
C83	C	1.851661	-0.682483	0.721803
C84	C	2.184994	-0.349149	1.055136
C85	C	1.518273	-0.924508	0.388448
C86	C	1.851606	-0.591174	0.721782
C87	C	2.184939	-0.257841	1.055115
C88	C	1.518235	-0.851731	0.388427
C89	C	1.851568	-0.518398	0.721760
C90	C	2.184901	-0.185065	1.055094
C91	C	1.518182	-0.760417	0.388407
C92	C	1.851515	-0.427084	0.721740
C93	C	2.184849	-0.093750	1.055073
C94	C	1.792223	-0.388544	0.388418
C95	C	2.125556	-0.055211	0.721751
C96	C	2.458890	0.278123	1.055085
C97	C	1.909000	-0.388551	0.388423
C98	C	2.242333	-0.055217	0.721756
C99	C	2.575666	0.278116	1.055090
C100	C	1.518199	-0.388531	0.598715
C101	C	1.851532	-0.055198	0.932049
C102	C	2.184866	0.278136	1.265382
C103	C	1.518203	-0.388532	0.688337
C104	C	1.851536	-0.055199	1.021670
C105	C	2.184870	0.278135	1.355003
C106	C	1.518318	-0.178220	0.388458
C107	C	1.851652	0.155114	0.721791
C108	C	2.184985	0.488447	1.055125
C109	C	1.518373	-0.088599	0.388480
C110	C	1.851706	0.244735	0.721813
C111	C	2.185040	0.578068	1.055147
C112	C	1.518159	-0.388539	1.016512
C113	C	1.851493	-0.055206	1.349846
C114	C	2.184826	0.278128	1.683179
C115	C	1.518169	-0.388540	0.925204
C116	C	1.851502	-0.055206	1.258537
C117	C	2.184835	0.278127	1.591870
C118	C	1.518182	-0.388536	0.852427
C119	C	1.851515	-0.055203	1.185761
C120	C	2.184848	0.278131	1.519094
C121	C	1.518190	-0.388535	0.761113
C122	C	1.851523	-0.055202	1.094446
C123	C	2.184857	0.278131	1.427780
C124	C	1.518170	-0.388543	1.178916
C125	C	1.851504	-0.055209	1.512249
C126	C	2.184837	0.278124	1.845582
C127	C	1.518160	-0.388537	1.089295
C128	C	1.851493	-0.055203	1.422628
C129	C	2.184827	0.278130	1.755961
H130	H	1.107584	-0.559100	0.476834
H131	H	1.440917	-0.225767	0.810167
H132	H	1.774251	0.107566	1.143501
O133	O	0.923090	-0.473260	0.570079
O134	O	1.256423	-0.139927	0.903413
O135	O	1.589757	0.193407	1.236746
C136	C	0.812741	-0.474863	0.565905
C137	C	1.146074	-0.141529	0.899238
C138	C	1.479407	0.191804	1.232571
H139	H	0.787071	-0.472437	0.500271
H140	H	1.120404	-0.139104	0.833605
H141	H	1.453738	0.194229	1.166938
H142	H	0.779458	-0.420800	0.599464
H143	H	1.112792	-0.087467	0.932798
H144	H	1.446125	0.245866	1.266131
H145	H	0.782461	-0.532644	0.594603
H146	H	1.115794	-0.199310	0.927936
H147	H	1.449128	0.134023	1.261269
H148	H	0.934048	-0.562257	0.482485
H149	H	1.267381	-0.228924	0.815818
H150	H	1.600715	0.104409	1.149152
H151	H	0.919197	-0.294840	0.295047
H152	H	1.252530	0.038493	0.628381
H153	H	1.585863	0.371826	0.961714
O154	O	1.126839	-0.286780	0.286835
O155	O	1.460172	0.046553	0.620168
O156	O	1.793505	0.379887	0.953502
C157	C	1.099988	-0.304252	0.206440
C158	C	1.433322	0.029081	0.539774
C159	C	1.766655	0.362415	0.873107
H160	H	1.069811	-0.368664	0.202243
H161	H	1.403144	-0.035331	0.535576
H162	H	1.736478	0.298002	0.868909
H163	H	1.172140	-0.297224	0.166616
H164	H	1.505473	0.036109	0.499949
H165	H	1.838806	0.369443	0.833283
H166	H	1.036305	-0.260997	0.185453
H167	H	1.369638	0.072336	0.518786
H168	H	1.702971	0.405669	0.852120
H169	H	1.103366	-0.483193	0.561791
H170	H	1.436699	-0.149860	0.895124
H171	H	1.770032	0.183474	1.228458
