data_functionalizedCrystal
_audit_creation_method	'MofGen! by Chris Wilmer'
_symmetry_space_group_name_H-M	'P1'
_symmetry_Int_Tables_number	1
_symmetry_cell_setting	triclinic
loop_
_symmetry_equiv_pos_as_xyz
  x,y,z
_cell_length_a	19.121241
_cell_length_b	19.120786
_cell_length_c	19.120904
_cell_angle_alpha	89.866497
_cell_angle_beta	89.875472
_cell_angle_gamma	94.790376
loop_
_atom_site_label
_atom_site_type_symbol
_atom_site_fract_x
_atom_site_fract_y
_atom_site_fract_z
Zn1	Zn	1.044531	-0.253560	-0.430924
Zn2	Zn	1.544531	0.246440	0.069076
Zn3	Zn	1.044875	-0.365791	-0.308698
Zn4	Zn	1.544875	0.134209	0.191302
Zn5	Zn	0.932315	-0.253144	-0.308712
Zn6	Zn	1.432315	0.246856	0.191288
Zn7	Zn	0.922279	-0.375740	-0.420443
Zn8	Zn	1.422279	0.124260	0.079557
O9	O	0.986000	-0.312059	-0.367194
O10	O	1.486000	0.187941	0.132806
O11	O	1.142847	-0.264459	-0.419091
O12	O	1.642847	0.235541	0.080909
O13	O	1.034288	-0.346510	-0.210788
O14	O	1.534288	0.153490	0.289212
O15	O	0.951257	-0.154923	-0.329315
O16	O	1.451257	0.345077	0.170685
O17	O	1.143100	-0.346914	-0.329292
O18	O	1.643100	0.153086	0.170708
O19	O	1.033702	-0.155230	-0.419104
O20	O	1.533702	0.344770	0.080896
O21	O	0.951590	-0.263748	-0.210798
O22	O	1.451590	0.236252	0.289202
O23	O	0.832713	-0.273396	-0.319152
O24	O	1.332713	0.226604	0.180848
O25	O	0.934152	-0.363870	-0.519745
O26	O	1.434152	0.136130	-0.019745
O27	O	0.825340	-0.363466	-0.401241
O28	O	1.325340	0.136534	0.098759
O29	O	1.023970	-0.274106	-0.527445
O30	O	1.523970	0.225894	-0.027445
O31	O	1.024557	-0.465386	-0.319129
O32	O	1.524557	0.034614	0.180871
O33	O	0.934485	-0.472695	-0.401228
O34	O	1.434485	0.027305	0.098772
C35	C	0.803546	-0.319466	-0.359061
C36	C	1.303546	0.180534	0.140939
C37	C	0.725490	-0.322652	-0.355598
C38	C	1.225490	0.177348	0.144402
C39	C	0.688682	-0.281294	-0.400789
C40	C	1.188682	0.218706	0.099211
C41	C	0.615341	-0.284284	-0.397529
C42	C	1.115341	0.215716	0.102471
C43	C	0.578808	-0.328637	-0.349080
C44	C	1.078808	0.171363	0.150920
C45	C	0.615621	-0.369997	-0.303884
C46	C	1.115621	0.130003	0.196116
C47	C	0.688962	-0.367003	-0.307141
C48	C	1.188962	0.132997	0.192859
C49	C	0.357374	-0.339820	-0.336900
C50	C	0.857374	0.160180	0.163100
C51	C	0.284029	-0.342813	-0.333647
C52	C	0.784029	0.157187	0.166353
C53	C	0.283753	-0.257098	-0.427291
C54	C	0.783753	0.242902	0.072709
C55	C	0.357095	-0.254111	-0.430547
C56	C	0.857095	0.245889	0.069453
C57	C	0.393902	-0.295468	-0.385349
C58	C	0.893902	0.204532	0.114651
C59	C	0.503841	-0.331697	-0.345748
C60	C	1.003841	0.168303	0.154252
C61	C	0.468868	-0.292404	-0.388678
C62	C	0.968868	0.207596	0.111322
C63	C	0.978488	-0.494522	-0.359056
C64	C	1.478488	0.005478	0.140944
C65	C	0.975337	-0.572579	-0.355600
C66	C	1.475337	-0.072579	0.144400
C67	C	1.016747	-0.609353	-0.400760
C68	C	1.516747	-0.109353	0.099240
C69	C	1.013783	-0.682696	-0.397514
C70	C	1.513783	-0.182696	0.102486
C71	C	0.969414	-0.719264	-0.349105
C72	C	1.469414	-0.219264	0.150895
C73	C	0.928000	-0.682486	-0.303944
C74	C	1.428000	-0.182486	0.196056
C75	C	0.930960	-0.609144	-0.307193
C76	C	1.430960	-0.109144	0.192807
C77	C	0.958328	-0.940703	-0.336957
C78	C	1.458328	-0.440703	0.163043
C79	C	0.955372	-1.014050	-0.333709
C80	C	1.455372	-0.514050	0.166291
C81	C	1.041155	-1.014255	-0.427281
C82	C	1.541155	-0.514255	0.072719
C83	C	1.044114	-0.940912	-0.430523
C84	C	1.544114	-0.440912	0.069477
C85	C	1.002698	-0.904140	-0.385364
C86	C	1.502698	-0.404140	0.114636
C87	C	0.966386	-0.794233	-0.345785
C88	C	1.466386	-0.294233	0.154215
C89	C	1.005723	-0.829174	-0.388688
C90	C	1.505723	-0.329174	0.111312
C91	C	1.169166	-0.304623	-0.375359
C92	C	1.669166	0.195377	0.124641
C93	C	1.247221	-0.301454	-0.378839
C94	C	1.747221	0.198546	0.121161
C95	C	0.977903	-0.320145	-0.549692
C96	C	1.477903	0.179855	-0.049692
C97	C	0.974452	-0.323590	-0.627462
C98	C	1.474452	0.176410	-0.127462
C99	C	0.993560	-0.128882	-0.375380
C100	C	1.493560	0.371118	0.124620
C101	C	0.996782	-0.050823	-0.378869
C102	C	1.496782	0.449177	0.121131
C103	C	1.019593	-0.278476	-0.668008
C104	C	1.519593	0.221524	-0.168008
C105	C	1.016342	-0.281711	-0.741081
C106	C	1.516342	0.218289	-0.241081
C107	C	0.967954	-0.330065	-0.773605
C108	C	1.467954	0.169935	-0.273605
C109	C	0.922809	-0.375181	-0.733054
C110	C	1.422809	0.124819	-0.233054
C111	C	0.926057	-0.371942	-0.659982
C112	C	1.426057	0.128058	-0.159982
C113	C	0.955806	-0.342180	-0.994033
C114	C	1.455806	0.157820	-0.494033
C115	C	0.952563	-0.345417	-1.067109
C116	C	1.452563	0.154583	-0.567109
C117	C	1.046095	-0.251946	-1.075131
C118	C	1.546095	0.248054	-0.575131
C119	C	1.049341	-0.248714	-1.002058
C120	C	1.549341	0.251286	-0.502058
C121	C	1.004194	-0.293828	-0.961513
C122	C	1.504194	0.206172	-0.461513
C123	C	0.964632	-0.333374	-0.848297
C124	C	1.464632	0.166626	-0.348297
C125	C	1.007513	-0.290514	-0.886822
C126	C	1.507513	0.209486	-0.386822
C127	C	0.994108	-0.303952	-0.185410
C128	C	1.494108	0.196048	0.314590
C129	C	0.997703	-0.300303	-0.107656
C130	C	1.497703	0.199697	0.392344
H131	H	0.718930	-0.400681	-0.270341
H132	H	1.218930	0.099319	0.229659
F133	F	0.913137	-0.384837	-0.882919
F134	F	1.413137	0.115163	-0.382919
H135	H	1.047509	-0.712633	-0.434283
H136	H	1.547509	-0.212633	0.065717
F137	F	1.064410	-0.233717	-0.784230
F138	F	1.564410	0.266283	-0.284230
F139	F	0.245148	-0.390035	-0.282092
F140	F	0.745148	0.109965	0.217908
F141	F	1.100843	-0.197249	-0.967449
F142	F	1.600843	0.302751	-0.467449
F143	F	0.244576	-0.213085	-0.475391
F144	F	0.744576	0.286915	0.024609
H145	H	1.074874	-1.044203	-0.464048
H146	H	1.574874	-0.544203	0.035952
H147	H	0.718422	-0.245179	-0.440243
H148	H	1.218422	0.254821	0.059757
F149	F	0.871308	-0.426641	-0.767671
F150	F	1.371308	0.073359	-0.267671
F151	F	0.576170	-0.240266	-0.445629
F152	F	1.076170	0.259734	0.054371
F153	F	1.094139	-0.203934	-1.118288
F154	F	1.594139	0.296066	-0.618288
F155	F	0.901057	-0.396882	-1.101723
F156	F	1.401057	0.103118	-0.601723
H157	H	0.919238	-1.043822	-0.294288
H158	H	1.419238	-0.543822	0.205712
H159	H	0.386835	-0.217996	-0.470002
H160	H	0.886835	0.282004	0.029998
H161	H	0.919053	-0.378925	-0.961029
H162	H	1.419053	0.121075	-0.461029
F163	F	0.919162	-0.833158	-0.294269
F164	F	1.419162	-0.333158	0.205731
H165	H	0.897239	-0.579204	-0.270420
H166	H	1.397239	-0.079204	0.229580
H167	H	0.889292	-0.408673	-0.626970
H168	H	1.389292	0.091327	-0.126970
F169	F	1.059003	-0.239048	-0.852206
F170	F	1.559003	0.260952	-0.352206
H171	H	1.058997	-0.239103	-0.641532
H172	H	1.558997	0.260897	-0.141532
H173	H	0.924606	-0.910769	-0.300185
H174	H	1.424606	-0.410769	0.199815
F175	F	0.576739	-0.417198	-0.252318
F176	F	1.076739	0.082802	0.247682
F177	F	0.396539	-0.383824	-0.288784
F178	F	0.896539	0.116176	0.211216
H179	H	0.474088	-0.367809	-0.306301
H180	H	0.974088	0.132191	0.193699
F181	F	0.507750	-0.245200	-0.440237
F182	F	1.007750	0.254800	0.059763
H183	H	1.052880	-0.579584	-0.440177
H184	H	1.552880	-0.079584	0.059823
H185	H	1.080243	-0.911140	-0.469942
H186	H	1.580243	-0.411140	0.030058
H187	H	0.891870	-0.712266	-0.264531
H188	H	1.391870	-0.212266	0.235469
H189	H	1.041846	-0.799398	-0.428106
H190	H	1.541846	-0.299398	0.071894
