data_functionalizedCrystal
_audit_creation_method	'MofGen! by Chris Wilmer'
_symmetry_space_group_name_H-M	'P1'
_symmetry_Int_Tables_number	1
_symmetry_cell_setting	triclinic
loop_
_symmetry_equiv_pos_as_xyz
  x,y,z
_cell_length_a	18.215405
_cell_length_b	21.395364
_cell_length_c	21.395355
_cell_angle_alpha	89.975273
_cell_angle_beta	89.980149
_cell_angle_gamma	90.023218
loop_
_atom_site_label
_atom_site_type_symbol
_atom_site_fract_x
_atom_site_fract_y
_atom_site_fract_z
Zn1	Zn	-0.293102	0.957884	-0.354259
Zn2	Zn	-0.416151	0.957798	-0.249479
Zn3	Zn	-0.293099	0.853099	-0.249495
Zn4	Zn	-0.416128	0.853079	-0.354218
O5	O	-0.354620	0.905465	-0.301863
O6	O	-0.309436	1.045551	-0.340369
O7	O	-0.399835	0.943881	-0.161803
O8	O	-0.190115	0.867044	-0.263416
O9	O	-0.399839	1.045487	-0.263388
O10	O	-0.190118	0.944029	-0.340385
O11	O	-0.309430	0.866960	-0.161815
O12	O	-0.309408	0.765419	-0.263377
O13	O	-0.399800	0.867010	-0.441902
O14	O	-0.399797	0.765404	-0.340317
O15	O	-0.309414	0.944010	-0.441931
O16	O	-0.519132	0.943862	-0.263349
O17	O	-0.519115	0.866926	-0.340301
C18	C	-0.354600	0.742678	-0.301845
C19	C	-0.354610	0.673036	-0.301852
C20	C	-0.545826	0.905399	-0.301832
C21	C	-0.627625	0.905428	-0.301841
C22	C	-0.401772	0.171249	-0.341886
C23	C	-0.401772	0.236684	-0.341880
C24	C	-0.354636	0.269398	-0.301882
C25	C	-0.307510	0.236671	-0.261877
C26	C	-0.307516	0.171237	-0.261880
C27	C	-0.288313	0.373081	-0.297033
C28	C	-0.288306	0.438514	-0.297034
C29	C	-0.354617	0.471219	-0.301869
C30	C	-0.420937	0.438482	-0.306716
C31	C	-0.420944	0.373048	-0.306719
C32	C	-0.354624	0.340350	-0.301874
C33	C	-0.401744	0.574890	-0.341861
C34	C	-0.401745	0.640327	-0.341850
C35	C	-0.307476	0.640312	-0.261851
C36	C	-0.307482	0.574877	-0.261859
C37	C	-0.354614	0.542170	-0.301867
C38	C	-0.815803	0.945583	-0.261845
C39	C	-0.892662	0.945611	-0.261861
C40	C	-0.892685	0.865428	-0.341925
C41	C	-0.815827	0.865403	-0.341912
C42	C	-0.777389	0.905480	-0.301869
C43	C	-0.931105	0.905532	-0.301897
C44	C	-1.014438	0.905562	-0.301913
C45	C	-0.694050	0.905451	-0.301853
C46	C	-0.162667	0.905549	-0.301907
C47	C	-0.080868	0.905584	-0.301925
C48	C	-0.354605	0.905517	-0.465286
C49	C	-0.354599	0.905539	-0.534927
C50	C	-0.354640	1.068888	-0.301881
C51	C	-0.354649	1.138530	-0.301889
C52	C	-0.307532	0.945631	-0.567657
C53	C	-0.307501	0.945631	-0.633092
C54	C	-0.354549	0.905544	-0.665796
C55	C	-0.401618	0.865444	-0.633058
C56	C	-0.401643	0.865442	-0.567624
C57	C	-0.420812	0.900574	-0.769460
C58	C	-0.420789	0.900581	-0.834893
C59	C	-0.354471	0.905548	-0.867616
C60	C	-0.288175	0.910522	-0.834899
C61	C	-0.288200	0.910519	-0.769465
C62	C	-0.354526	0.905542	-0.736748
C63	C	-0.307366	0.945641	-0.971299
C64	C	-0.307333	0.945636	-1.036735
C65	C	-0.401457	0.865453	-1.036700
C66	C	-0.401483	0.865455	-0.971265
C67	C	-0.354439	0.905553	-0.938568
C68	C	-0.354582	0.905449	-0.139075
C69	C	-0.354381	0.905549	-0.069434
H70	H	-0.440153	0.144623	-0.374462
H71	H	-0.784508	0.978216	-0.229241
F72	F	-0.451908	0.540079	-0.384439
H73	H	-0.269141	0.144597	-0.229309
F74	F	-0.451524	0.822785	-1.071501
F75	F	-0.451740	0.822768	-0.532790
F76	F	-0.933542	0.988295	-0.219263
F77	F	-0.933600	0.822777	-0.384538
H78	H	-0.439922	0.832804	-0.659690
H79	H	-0.474934	0.465109	-0.310658
H80	H	-0.784548	0.832747	-0.374507
H81	H	-0.269224	0.978281	-0.541039
H82	H	-0.474802	0.896361	-0.742822
F83	F	-0.451928	0.271513	-0.384453
H84	H	-0.474944	0.346397	-0.310664
H85	H	-0.440123	0.666966	-0.374419
F86	F	-0.257316	0.675124	-0.219277
H87	H	-0.234303	0.465163	-0.293094
F88	F	-0.257321	0.540054	-0.219291
F89	F	-0.257245	0.988317	-1.071568
H90	H	-0.234312	0.346458	-0.293085
H91	H	-0.269133	0.263311	-0.229310
F92	F	-0.257392	0.988294	-0.667932
H93	H	-0.234173	0.914567	-0.861541
F94	F	-0.217645	0.915809	-0.734647
F95	F	-0.257295	0.988313	-0.936498
F96	F	-0.451581	0.822785	-0.936430
H97	H	-0.474771	0.896535	-0.861526
