data_functionalizedCrystal
_audit_creation_method	'MofGen! by Chris Wilmer'
_symmetry_space_group_name_H-M	'P1'
_symmetry_Int_Tables_number	1
_symmetry_cell_setting	triclinic
loop_
_symmetry_equiv_pos_as_xyz
  x,y,z
_cell_length_a	27.440280
_cell_length_b	27.440280
_cell_length_c	17.917603
_cell_angle_alpha	63.029410
_cell_angle_beta	89.997815
_cell_angle_gamma	60.002656
loop_
_atom_site_label
_atom_site_type_symbol
_atom_site_fract_x
_atom_site_fract_y
_atom_site_fract_z
Zr1	Zr	0.472363	0.527782	-0.093959
O2	O	0.397950	0.622667	-0.208177
O3	O	0.495165	0.428195	-0.058936
O4	O	0.499609	0.520991	-0.208169
O5	O	0.390012	0.536866	0.058764
O6	O	0.579811	0.520983	-0.208173
O7	O	0.393506	0.529870	-0.058943
O8	O	0.571861	0.354988	0.058778
O9	O	0.397962	0.702862	-0.208187
O10	O	0.564756	0.470892	-0.044013
O11	O	0.502294	0.476119	0.043834
O12	O	0.507527	0.585374	-0.131869
O13	O	0.445066	0.590601	-0.044022
Zr14	Zr	0.594704	0.538926	0.093764
Zr15	Zr	0.600277	0.527769	-0.093965
Zr16	Zr	0.466791	0.538939	0.093771
Zr17	Zr	0.472383	0.655684	-0.093975
Zr18	Zr	0.594685	0.411024	0.093781
O19	O	0.571903	0.638513	0.058741
O20	O	0.579826	0.622648	-0.208186
O21	O	0.390027	0.638531	0.058751
O22	O	0.669118	0.444041	0.207982
O23	O	0.677041	0.428177	-0.058945
O24	O	0.487242	0.444060	0.207992
O25	O	0.677056	0.529842	-0.058958
O26	O	0.567459	0.545717	0.207975
O27	O	0.487257	0.545725	0.207979
O28	O	0.673562	0.536838	0.058749
O29	O	0.499636	0.702851	-0.208192
O30	O	0.567432	0.363856	0.207998
O31	O	0.669106	0.363846	0.207993
O32	O	0.673535	0.354977	0.058772
O33	O	0.393533	0.711730	-0.058967
O34	O	0.495207	0.711720	-0.058972
O35	O	0.559541	0.481334	0.131675
O36	O	0.622002	0.476107	0.043828
O37	O	0.564774	0.590589	-0.044028
O38	O	0.502312	0.595816	0.043819
C39	C	0.533510	0.373368	-0.000077
C40	C	0.533502	0.319070	-0.000070
C41	C	0.373534	0.533370	-0.000089
C42	C	0.319232	0.533376	-0.000086
C43	C	0.575792	0.044036	0.064756
C44	C	0.575787	0.095058	0.064759
O45	O	0.611730	0.087154	0.119894
N46	N	0.533528	0.160899	-0.000087
C47	C	0.491275	0.175718	-0.064946
O48	O	0.455331	0.236406	-0.120103
C49	C	0.491284	0.124696	-0.064952
C50	C	0.533542	0.058855	-0.000097
C51	C	0.618047	-0.021802	0.129606
C52	C	0.618052	-0.072821	0.129603
C53	C	0.575802	-0.058001	0.064751
C54	C	0.533547	0.007836	-0.000099
C55	C	0.449035	0.139515	-0.129814
C56	C	0.449047	0.088486	-0.129816
C57	C	0.491305	0.022645	-0.064960
C58	C	0.491301	-0.028363	-0.064955
N59	N	0.533560	-0.094204	-0.000108
C60	C	0.575811	-0.109023	0.064744
C61	C	0.491261	0.282864	-0.064929
C62	C	0.491249	0.333886	-0.064920
C63	C	0.575762	0.253222	0.064785
C64	C	0.575770	0.202200	0.064779
C65	C	0.533520	0.217023	-0.000083
C66	C	0.575817	-0.216162	0.064734
C67	C	0.575816	-0.267182	0.064728
C68	C	0.491306	-0.186514	-0.064979
C69	C	0.491305	-0.135499	-0.064971
C70	C	0.533565	-0.150328	-0.000110
O71	O	0.455378	-0.020509	-0.120063
O72	O	0.611754	-0.169712	0.119885
C73	C	-0.015541	0.529484	-0.064945
C74	C	-0.066559	0.529480	-0.064945
O75	O	-0.091297	0.526177	-0.120076
N76	N	-0.094001	0.533335	-0.000100
C77	C	-0.070420	0.537189	0.064755
O78	O	-0.098446	0.540467	0.119911
C79	C	-0.019401	0.537189	0.064758
C80	C	0.008036	0.533340	-0.000096
C81	C	0.011896	0.525635	-0.129793
C82	C	0.062910	0.525641	-0.129793
C83	C	0.086487	0.529497	-0.064945
C84	C	0.059050	0.533346	-0.000096
C85	C	0.004182	0.541038	0.129616
C86	C	0.055205	0.541037	0.129614
C87	C	0.082642	0.537188	0.064760
C88	C	0.133640	0.537208	0.064752
N89	N	0.161083	0.533352	-0.000093
C90	C	0.137506	0.529497	-0.064942
C91	C	-0.177563	0.537187	0.064744
C92	C	-0.228584	0.537191	0.064738
C93	C	-0.224719	0.529481	-0.064962
C94	C	-0.173699	0.529481	-0.064958
C95	C	-0.150121	0.533331	-0.000101
C96	C	0.244638	0.529511	-0.064938
C97	C	0.295655	0.529520	-0.064934
C98	C	0.291787	0.537227	0.064767
C99	C	0.240773	0.537221	0.064762
C100	C	0.217201	0.533361	-0.000095
O101	O	0.158413	0.540506	0.119856
O102	O	0.165543	0.526211	-0.120082
C103	C	0.693534	0.533338	-0.000106
C104	C	0.747836	0.533332	-0.000109
C105	C	0.540504	0.519398	-0.234919
C106	C	0.542869	0.514661	-0.314615
C107	C	0.533558	0.693340	-0.000118
C108	C	0.533566	0.747638	-0.000125
C109	C	0.547203	0.506009	-0.460546
C110	C	0.519867	0.560696	-0.539651
C111	C	0.522278	0.555882	-0.620852
C112	C	0.544792	0.510822	-0.379336
C113	C	0.526564	0.547310	0.234724
C114	C	0.524199	0.552047	0.314420
C115	C	0.693510	0.373352	-0.000085
C116	C	0.747804	0.319049	-0.000081
C117	C	0.526540	0.387324	0.234745
C118	C	0.524167	0.337763	0.314448
C119	C	0.686540	0.387308	0.234736
C120	C	0.738469	0.337742	0.314437
C121	C	0.380528	0.679400	-0.234931
C122	C	0.328599	0.728966	-0.314631
C123	C	0.373558	0.693356	-0.000109
C124	C	0.319264	0.747659	-0.000113
C125	C	0.540528	0.679383	-0.234939
C126	C	0.542901	0.728945	-0.314642
C127	C	0.743419	0.290825	-0.045939
C128	C	0.794430	0.239807	-0.045952
C129	C	0.849825	0.217011	-0.000103
C130	C	0.854209	0.245240	0.045756
C131	C	0.803199	0.296260	0.045765
C132	C	0.552934	0.317212	0.397737
C133	C	0.550701	0.270651	0.472634
C134	C	0.519704	0.244640	0.464240
C135	C	0.490933	0.265196	0.380942
C136	C	0.493163	0.311759	0.306047
C137	C	0.795465	0.311736	0.306009
C138	C	0.844262	0.265170	0.380889
C139	C	0.836063	0.244607	0.464195
C140	C	0.779061	0.270617	0.472621
C141	C	0.730265	0.317186	0.397742
C142	C	0.271603	0.754978	-0.306204
C143	C	0.222806	0.801560	-0.381084
C144	C	0.231005	0.822126	-0.464390
C145	C	0.288007	0.796113	-0.472815
C146	C	0.336803	0.749535	-0.397936
C147	C	0.323649	0.775888	0.045737
C148	C	0.272638	0.826918	0.045730
C149	C	0.217244	0.849716	-0.000123
C150	C	0.212860	0.821485	-0.045978
C151	C	0.263870	0.770458	-0.045976
C152	C	0.573903	0.754941	-0.306220
C153	C	0.576145	0.801503	-0.381102
C154	C	0.547381	0.822070	-0.464406
C155	C	0.516378	0.796069	-0.472827
C156	C	0.514140	0.749504	-0.397945
H157	H	0.610229	-0.320793	0.117545
H158	H	0.890671	0.243997	0.374013
N159	N	0.259133	0.740006	-0.095416
H160	H	0.299850	0.704219	-0.088461
H161	H	0.238478	0.775160	-0.159545
N162	N	0.888696	0.194378	0.544954
H163	H	0.926046	0.181026	0.526966
H164	H	0.887597	0.154217	0.580969
H165	H	0.294676	0.812864	-0.540651
N166	N	0.581742	0.248475	0.562471
H167	H	0.552112	0.259328	0.595591
H168	H	0.601723	0.272020	0.556346
N169	N	0.457508	0.237134	0.371892
H170	H	0.425209	0.247737	0.400921
H171	H	0.485345	0.187651	0.400921
H172	H	0.891356	0.175467	-0.000116
H173	H	0.383211	0.728356	-0.404808
H174	H	0.772394	0.253867	0.540458
H175	H	0.806777	0.319234	0.083113
N176	N	0.668791	0.345229	0.406837
H177	H	0.671007	0.325131	0.470975
H178	H	0.647124	0.334618	0.377778
H179	H	0.085247	0.522505	-0.182601
H180	H	-0.018150	0.544171	0.182426
H181	H	0.317992	0.526388	-0.117749
H182	H	0.074401	0.544170	0.182431
N183	N	0.445672	0.404896	-0.134875
H184	H	0.405026	0.415498	-0.132052
H185	H	0.449434	0.411738	-0.194367
H186	H	0.494652	0.611131	-0.546392
H187	H	0.572414	0.455578	-0.453807
H188	H	0.264916	0.738235	-0.238379
H189	H	0.414628	0.193118	-0.182633
N190	N	0.621334	0.237241	0.134735
H191	H	0.614914	0.279557	0.124891
H192	H	0.661961	0.208868	0.131867
N193	N	0.683676	0.315404	-0.095393
H194	H	0.688648	0.289779	-0.124444
H195	H	0.662522	0.363881	-0.141493
H196	H	0.176397	0.822733	-0.374206
N197	N	0.789695	0.209367	-0.095418
H198	H	0.746861	0.231549	-0.124452
H199	H	0.808247	0.160652	-0.053316
N200	N	0.913958	0.220651	0.095206
H201	H	0.945602	0.184046	0.088239
H202	H	0.916782	0.203325	0.159336
N203	N	0.663640	-0.143831	0.199545
H204	H	0.657241	-0.173912	0.189711
H205	H	0.659921	-0.150678	0.259053
N206	N	0.586370	0.345259	0.406804
H207	H	0.604250	0.325171	0.470937
H208	H	0.558552	0.394749	0.377723
H209	H	0.469739	0.328486	0.238232
N210	N	-0.013532	0.521489	-0.199753
H211	H	-0.050019	0.522075	-0.189931
H212	H	0.016547	0.479168	-0.196890
H213	H	0.517893	0.206726	0.525231
N214	N	0.804317	0.333904	0.216164
H215	H	0.847831	0.310359	0.222201
H216	H	0.785495	0.383155	0.183086
H217	H	0.368749	0.757331	0.083081
N218	N	0.445687	0.298856	-0.134889
H219	H	0.418918	0.348308	-0.175963
H220	H	0.421673	0.281291	-0.106536
H221	H	-0.158371	0.540327	0.117557
N222	N	0.178372	0.872363	-0.545148
H223	H	0.141022	0.885716	-0.527161
H224	H	0.179462	0.852431	-0.581156
N225	N	0.277374	0.857361	0.095191
H226	H	0.320207	0.835168	0.124244
H227	H	0.256195	0.851228	0.141291
N228	N	0.162228	0.904752	-0.000121
H229	H	0.173417	0.919170	0.035887
H230	H	0.136916	0.888511	0.025961
N231	N	-0.258181	0.541350	0.134678
H232	H	-0.270464	0.583675	0.131842
H233	H	-0.229799	0.502366	0.194179
N234	N	0.604941	0.732755	-0.216378
H235	H	0.598825	0.699310	-0.170210
H236	H	0.588345	0.772130	-0.209441
N237	N	0.153111	0.846066	-0.095415
H238	H	0.121466	0.882669	-0.088444
H239	H	0.147669	0.808530	-0.071314
H240	H	0.601390	0.822669	-0.374229
N241	N	0.549804	0.872287	-0.545168
H242	H	0.573811	0.885631	-0.527184
H243	H	0.508551	0.912455	-0.581189
H244	H	0.492959	0.812822	-0.540663
H245	H	0.610181	0.148592	0.117590
N246	N	0.480697	0.721474	-0.407044
H247	H	0.437980	0.758446	-0.440133
H248	H	0.483684	0.688845	-0.346945
N249	N	0.621396	-0.232166	0.134696
H250	H	0.601107	-0.210950	0.168776
H251	H	0.645443	-0.214651	0.106350
N252	N	0.663625	-0.037801	0.199562
H253	H	0.659922	-0.062468	0.259092
H254	H	0.657192	0.004531	0.189663
N255	N	0.403479	0.104474	-0.199778
H256	H	0.376711	0.153926	-0.240859
H257	H	0.379463	0.086913	-0.171426
H258	H	0.456905	-0.174458	-0.117778
N259	N	0.445723	-0.064479	-0.134904
H260	H	0.405079	-0.053880	-0.132066
H261	H	0.449470	-0.057616	-0.194409
N262	N	0.219211	0.525353	-0.134887
H263	H	0.249252	0.483032	-0.132058
H264	H	0.208610	0.564342	-0.194386
N265	N	-0.144109	0.525331	-0.134907
H266	H	-0.166793	0.522891	-0.175987
H267	H	-0.102539	0.484521	-0.106547
H268	H	0.218428	0.540365	0.117565
N269	N	-0.250153	0.525324	-0.134909
H270	H	-0.286636	0.525906	-0.125063
H271	H	-0.220076	0.483000	-0.132039
H272	H	0.310990	0.540369	0.117564
