data_functionalizedCrystal
_audit_creation_method	'MofGen! by Chris Wilmer'
_symmetry_space_group_name_H-M	'P1'
_symmetry_Int_Tables_number	1
_symmetry_cell_setting	triclinic
loop_
_symmetry_equiv_pos_as_xyz
  x,y,z
_cell_length_a	13.635800
_cell_length_b	17.253917
_cell_length_c	11.102291
_cell_angle_alpha	82.484787
_cell_angle_beta	108.605752
_cell_angle_gamma	77.340689
loop_
_atom_site_label
_atom_site_type_symbol
_atom_site_fract_x
_atom_site_fract_y
_atom_site_fract_z
V1	V	2.044086	-0.111304	0.408323
O2	O	2.035846	0.005338	0.388137
O3	O	2.020992	-0.220688	0.417468
O4	O	2.032657	-0.109597	0.580960
O5	O	2.024100	-0.106522	0.223514
V6	V	2.284101	-0.097352	0.384768
O7	O	2.178545	-0.141910	0.459992
O8	O	2.374741	-0.066746	0.333098
O9	O	2.195592	0.012031	0.375622
O10	O	2.351040	-0.213995	0.404953
O11	O	2.362786	-0.102135	0.569577
O12	O	2.183927	-0.099060	0.212131
V13	V	2.544086	-0.111304	0.408323
O14	O	2.535846	0.005338	0.388137
O15	O	2.520992	-0.220688	0.417468
O16	O	2.532657	-0.109597	0.580960
O17	O	2.524100	-0.106522	0.223514
V18	V	2.784101	-0.097352	0.384768
O19	O	2.678545	-0.141910	0.459992
O20	O	2.874741	-0.066746	0.333098
O21	O	2.695592	0.012031	0.375622
O22	O	2.851040	-0.213995	0.404953
O23	O	2.862786	-0.102135	0.569577
O24	O	2.683927	-0.099060	0.212131
C25	C	1.943349	-0.247353	0.414107
C26	C	1.965196	-0.336776	0.422735
C27	C	1.946578	-0.367296	0.309158
C28	C	1.967116	-0.451319	0.317269
C29	C	2.006264	-0.504820	0.438959
C30	C	2.024885	-0.474294	0.552545
C31	C	2.004354	-0.390273	0.544433
C32	C	2.070769	-0.757340	0.475835
C33	C	2.091296	-0.841365	0.483938
C34	C	2.033528	-0.818384	0.248661
C35	C	2.012994	-0.734362	0.240560
C36	C	2.031621	-0.703845	0.354146
N37	N	2.027254	-0.590705	0.447252
N38	N	2.010638	-0.617961	0.345851
C39	C	1.958228	-0.105644	0.622655
C40	C	1.989533	-0.104972	0.763865
C41	C	2.104906	0.038692	0.378980
C42	C	2.072679	0.128114	0.370361
C43	C	2.090027	-0.103015	0.170429
C44	C	2.048341	-0.103683	0.029217
C45	C	2.443349	-0.247353	0.414107
C46	C	2.465196	-0.336776	0.422735
C47	C	2.458228	-0.105644	0.622655
C48	C	2.489533	-0.104972	0.763865
C49	C	2.095822	-0.108668	0.837114
C50	C	2.125226	-0.108021	0.969790
C51	C	1.942041	-0.099984	0.955958
C52	C	1.912638	-0.100626	0.823282
C53	C	2.201584	-0.113311	0.845102
C54	C	2.230988	-0.112664	0.977778
C55	C	2.604906	0.038692	0.378980
C56	C	2.572679	0.128114	0.370361
C57	C	2.590027	-0.103015	0.170429
C58	C	2.548341	-0.103683	0.029217
C59	C	2.567042	-0.382871	0.433581
C60	C	2.587588	-0.466896	0.441708
C61	C	2.506285	-0.504822	0.438979
C62	C	2.404431	-0.458721	0.428136
C63	C	2.383888	-0.374699	0.420018
C64	C	2.643327	0.174209	0.359518
C65	C	2.613053	0.258233	0.351397
C66	C	2.512133	0.296159	0.354129
C67	C	2.441480	0.250059	0.364969
C68	C	2.471751	0.166037	0.373080
C69	C	2.595822	-0.108668	0.837114
C70	C	2.625226	-0.108021	0.969790
C71	C	2.442041	-0.099984	0.955958
C72	C	2.412638	-0.100626	0.823282
C73	C	2.701584	-0.113311	0.845102
C74	C	2.730988	-0.112664	0.977778
H75	H	1.914694	-0.323740	0.210064
H76	H	2.300951	-0.337173	0.411180
H77	H	2.123171	-0.884925	0.583037
H78	H	2.487497	0.364576	0.347523
C79	C	2.699627	-0.517593	0.453618
C80	C	2.799870	-0.520342	0.570139
C81	C	2.911907	-0.571035	0.582045
C82	C	2.923699	-0.618980	0.477430
C83	C	2.823452	-0.616233	0.360900
C84	C	2.711416	-0.565539	0.348994
H85	H	2.791144	-0.484849	0.647590
H86	H	2.986116	-0.573068	0.668309
H87	H	3.006635	-0.656506	0.486243
H88	H	2.832178	-0.651726	0.283450
H89	H	2.637206	-0.563506	0.262730
H90	H	2.414219	0.128511	0.381920
H91	H	2.326089	-0.097617	0.763648
C92	C	2.763724	-0.035513	1.008747
C93	C	2.798694	-0.023804	1.149873
C94	C	2.831421	0.053348	1.180844
C95	C	2.829179	0.118791	1.070689
C96	C	2.794209	0.107085	0.929554
C97	C	2.761481	0.029933	0.898583
H98	H	2.800354	-0.072251	1.231425
H99	H	2.857309	0.062013	1.285322
H100	H	2.853406	0.175903	1.093616
H101	H	2.792548	0.155532	0.848002
H102	H	2.735594	0.021267	0.794104
H103	H	2.338239	-0.489614	0.425915
C104	C	2.819794	-0.191237	1.057707
C105	C	2.930368	-0.186398	1.145706
C106	C	3.019166	-0.264968	1.225637
C107	C	2.997389	-0.348378	1.217568
C108	C	2.886810	-0.353220	1.129565
C109	C	2.798012	-0.274650	1.049634
H110	H	2.946493	-0.124650	1.151682
H111	H	3.101024	-0.261383	1.290782
H112	H	3.063123	-0.406541	1.276738
H113	H	2.870685	-0.414968	1.123589
H114	H	2.716154	-0.278235	0.984489
H115	H	2.255214	-0.055550	1.000690
H116	H	2.019526	-0.365427	0.636920
C117	C	2.757511	-0.194349	0.820826
C118	C	2.881317	-0.223564	0.868438
C119	C	2.937240	-0.304603	0.844163
C120	C	2.869357	-0.356428	0.772276
C121	C	2.745544	-0.327214	0.724660
C122	C	2.689621	-0.246175	0.748935
H123	H	2.931574	-0.185199	0.921657
H124	H	3.028895	-0.326229	0.879412
H125	H	2.910754	-0.416419	0.754306
H126	H	2.695286	-0.365579	0.671441
H127	H	2.597965	-0.224549	0.713686
H128	H	2.379440	-0.096444	1.004351
H129	H	1.951957	-0.476164	0.224782
C130	C	2.013052	-0.851957	0.123724
C131	C	2.073643	-0.834824	0.032030
C132	C	2.053170	-0.868396	-0.092913
C133	C	1.972107	-0.919100	-0.126161
C134	C	1.911511	-0.936235	-0.034465
C135	C	1.931983	-0.902663	0.090478
H136	H	2.133655	-0.797288	0.056640
H137	H	2.098028	-0.855712	-0.160793
H138	H	1.956952	-0.943952	-0.218651
H139	H	1.851499	-0.973772	-0.059075
H140	H	1.887126	-0.915348	0.158358
H141	H	1.981124	-0.690807	0.141467
H142	H	2.296731	-0.170827	1.036929
H143	H	2.717052	-0.058714	0.792089
C144	C	2.528889	-0.597247	0.447895
C145	C	2.640921	-0.647943	0.459813
C146	C	2.663531	-0.740366	0.468724
C147	C	2.574108	-0.782094	0.465715
C148	C	2.462068	-0.731398	0.453796
C149	C	2.439458	-0.638974	0.444886
H150	H	2.707124	-0.617053	0.462041
H151	H	2.746471	-0.777895	0.477547
H152	H	2.590845	-0.850512	0.472311
H153	H	2.395865	-0.762287	0.451569
H154	H	2.356518	-0.601446	0.436063
C155	C	2.091242	-0.723772	0.600772
C156	C	2.172309	-0.673071	0.634026
C157	C	2.192777	-0.639498	0.758967
C158	C	2.132178	-0.656625	0.850654
C159	C	2.051106	-0.707328	0.817402
C160	C	2.030638	-0.740901	0.692460
H161	H	2.217173	-0.660391	0.566152
H162	H	2.252792	-0.601964	0.783582
H163	H	2.147329	-0.631772	0.943143
H164	H	2.006242	-0.720008	0.885275
H165	H	1.970622	-0.778435	0.667845
C166	C	2.222470	-0.039554	0.773470
C167	C	2.269010	0.020559	0.849771
C168	C	2.289894	0.094314	0.778139
C169	C	2.264238	0.107955	0.630206
C170	C	2.217695	0.047840	0.553897
C171	C	2.196811	-0.025915	0.625529
H172	H	2.288005	0.010462	0.959287
H173	H	2.324349	0.138815	0.834629
H174	H	2.279698	0.162553	0.577180
H175	H	2.198701	0.057937	0.444381
H176	H	2.162357	-0.070416	0.569039
H177	H	2.242985	-0.173300	0.827140
H178	H	2.056768	-0.517862	0.651628
H179	H	2.633255	-0.352002	0.435797
H180	H	1.826089	-0.097617	0.763648
H181	H	2.725505	0.143341	0.357293
H182	H	1.879440	-0.096444	1.004351
H183	H	2.670596	0.295757	0.342574
H184	H	2.359309	0.280951	0.367191
