data_functionalizedCrystal
_audit_creation_method	'MofGen! by Chris Wilmer'
_symmetry_space_group_name_H-M	'P1'
_symmetry_Int_Tables_number	1
_symmetry_cell_setting	triclinic
loop_
_symmetry_equiv_pos_as_xyz
  x,y,z
_cell_length_a	18.878441
_cell_length_b	14.560438
_cell_length_c	14.560438
_cell_angle_alpha	60.000713
_cell_angle_beta	90.001684
_cell_angle_gamma	60.000063
loop_
_atom_site_label
_atom_site_type_symbol
_atom_site_fract_x
_atom_site_fract_y
_atom_site_fract_z
Zr1	Zr	0.682383	1.005288	-0.120505
O2	O	0.569275	1.196892	-0.267153
O3	O	0.717058	0.813685	-0.075551
O4	O	0.717053	1.005291	-0.267153
O5	O	0.569282	1.005284	0.075590
O6	O	0.833623	1.005291	-0.267151
O7	O	0.569279	1.005287	-0.075551
O8	O	0.833631	0.662545	0.075589
O9	O	0.569274	1.348031	-0.267151
O10	O	0.818840	0.892494	-0.056376
O11	O	0.731848	0.892492	0.056418
O12	O	0.731842	1.118083	-0.169169
O13	O	0.644850	1.118080	-0.056375
Zr14	Zr	0.868303	1.005285	0.120550
Zr15	Zr	0.868298	1.005289	-0.120502
Zr16	Zr	0.682388	1.005284	0.120547
Zr17	Zr	0.682382	1.246337	-0.120502
Zr18	Zr	0.868304	0.764236	0.120547
O19	O	0.833629	1.196888	0.075596
O20	O	0.833622	1.196894	-0.267149
O21	O	0.569281	1.196886	0.075593
O22	O	0.981412	0.813681	0.267198
O23	O	0.981405	0.813687	-0.075548
O24	O	0.717065	0.813680	0.267194
O25	O	0.981404	1.005289	-0.075545
O26	O	0.833633	1.005282	0.267198
O27	O	0.717064	1.005282	0.267196
O28	O	0.981407	1.005287	0.075596
O29	O	0.717052	1.348032	-0.267149
O30	O	0.833635	0.662541	0.267194
O31	O	0.981413	0.662542	0.267196
O32	O	0.981409	0.662545	0.075591
O33	O	0.569278	1.348028	-0.075546
O34	O	0.717055	1.348029	-0.075544
O35	O	0.818844	0.892491	0.169214
O36	O	0.905837	0.892493	0.056420
O37	O	0.818839	1.118081	-0.056373
O38	O	0.731847	1.118079	0.056421
C39	C	0.775345	0.703771	0.000019
C40	C	0.775345	0.601439	0.000018
C41	C	0.820752	0.457202	-0.058852
C42	C	0.820752	0.553359	-0.058861
C43	C	0.729929	0.553367	0.058899
C44	C	0.729924	0.457219	0.058900
C45	C	0.542792	1.005285	0.000019
C46	C	0.463866	1.005285	0.000018
C47	C	0.426784	1.005290	-0.083249
C48	C	0.352628	1.005283	-0.083245
C49	C	0.315551	1.005280	0.000024
C50	C	0.352639	1.005271	0.083300
C51	C	0.426798	1.005269	0.083299
C52	C	0.198067	1.005279	0.083294
C53	C	0.123902	1.005284	0.083294
C54	C	0.123897	1.005293	-0.083249
C55	C	0.198056	1.005290	-0.083250
C56	C	0.235138	1.005284	0.000025
C57	C	1.007895	1.005288	0.000026
C58	C	1.086821	1.005288	0.000027
C59	C	0.775337	1.005292	-0.301497
C60	C	0.775335	1.005293	-0.403830
C61	C	0.775342	1.306803	0.000026
C62	C	0.775341	1.409134	0.000027
C63	C	0.729924	1.123046	-0.510783
C64	C	0.729934	1.123040	-0.606932
C65	C	0.820768	0.887518	-0.489161
C66	C	0.820762	0.887526	-0.393014
C67	C	0.775349	1.005282	0.301542
C68	C	0.775351	1.005280	0.403875
C69	C	1.007896	0.703772	0.000022
C70	C	1.086822	0.601441	0.000022
C71	C	0.775351	0.703766	0.301538
C72	C	0.775353	0.601432	0.403870
C73	C	1.007902	0.703767	0.301541
C74	C	1.086830	0.601434	0.403874
C75	C	0.542785	1.306806	-0.301496
C76	C	0.463856	1.409139	-0.403829
C77	C	0.542790	1.306801	0.000023
C78	C	0.463864	1.409132	0.000023
C79	C	0.775336	1.306808	-0.301493
C80	C	0.775334	1.409141	-0.403825
C81	C	1.078476	0.553386	-0.058867
C82	C	1.152628	0.457248	-0.058890
C83	C	1.235127	0.409160	-0.000017
C84	C	1.243472	0.457225	0.058874
C85	C	1.169320	0.553368	0.058889
C86	C	1.169313	0.553379	0.393054
C87	C	1.243481	0.457239	0.489197
C88	C	1.235166	0.409150	0.596159
C89	C	1.152675	0.457215	0.606978
C90	C	1.078508	0.553359	0.510836
C91	C	0.381374	1.457206	-0.393009
C92	C	0.307205	1.553376	-0.489152
C93	C	0.315521	1.601469	-0.596114
C94	C	0.398012	1.553398	-0.606933
C95	C	0.472179	1.457237	-0.510791
C96	C	0.472211	1.457198	0.058902
C97	C	0.398058	1.553362	0.058898
C98	C	0.315560	1.601453	0.000022
C99	C	0.307215	1.553384	-0.058864
C100	C	0.381367	1.457228	-0.058866
C101	C	0.820765	0.553353	0.510824
C102	C	0.820757	0.457209	0.606971
C103	C	0.729925	0.457228	0.489198
C104	C	0.729928	0.553377	0.393052
H105	H	0.857732	0.418056	-0.106792
H106	H	0.857735	0.418069	0.694055
C107	C	0.679962	1.252594	-0.522685
N108	N	0.642332	1.350173	-0.531654
H109	H	0.857728	0.592495	-0.106807
H110	H	0.692957	1.218926	-0.694015
H111	H	0.093718	1.005279	0.151101
H112	H	0.857752	0.791636	-0.480369
C113	C	0.562953	1.404322	0.123669
N114	N	0.631298	1.364508	0.172449
C115	C	0.870719	0.757982	-0.275355
N116	N	0.908347	0.660414	-0.186736
C117	C	1.143429	0.404383	-0.123664
N118	N	1.136498	0.364565	-0.172450
C119	C	0.870726	0.606220	0.522728
N120	N	0.908356	0.646040	0.531699
H121	H	0.692943	0.418087	0.480404
C122	C	0.216458	1.606280	-0.123606
N123	N	0.148098	1.646114	-0.172358
C124	C	0.679970	0.606265	0.275392
N125	N	0.642342	0.646102	0.186772
H126	H	0.692953	0.592527	0.106833
C127	C	0.372170	1.404352	-0.123626
N128	N	0.365237	1.364528	-0.172405
H129	H	1.176100	0.592518	0.305968
C130	C	1.334213	0.404374	0.477271
N131	N	1.402551	0.364555	0.468286
H132	H	1.295499	0.330874	-0.000037
H133	H	1.011308	0.592537	-0.106822
H134	H	0.404870	1.592484	0.106854
C135	C	0.216473	1.606234	-0.477226
N136	N	0.148136	1.646044	-0.468241
C137	C	1.178516	0.606205	0.123688
N138	N	1.185449	0.645996	0.172499
C139	C	0.467563	1.005292	-0.174852
N140	N	0.498278	1.005287	-0.243847
H141	H	0.322449	1.005261	0.151103
H142	H	0.692941	0.418084	0.106847
C143	C	0.407145	1.606304	-0.724603
N144	N	0.414021	1.646147	-0.813235
C145	C	0.233999	1.707222	0.000041
N146	N	0.172570	1.786884	0.000064
H147	H	1.295564	0.330863	0.674435
H148	H	0.322437	1.005285	-0.151046
H149	H	1.145917	0.418047	0.694080
H150	H	0.228241	1.005302	-0.151058
H151	H	1.310652	0.418058	0.106806
H152	H	1.011350	0.592474	0.519662
H153	H	0.228259	1.005267	0.151109
C154	C	0.083108	1.005292	-0.174849
N155	N	0.052381	1.005296	-0.243841
C156	C	0.233926	1.707239	-0.701864
N157	N	0.172466	1.786900	-0.781510
H158	H	0.456990	1.005263	0.151105
H159	H	0.374586	1.418054	-0.305923
H160	H	0.539338	1.418102	-0.519614
