data_functionalizedCrystal
_audit_creation_method	'MofGen! by Chris Wilmer'
_symmetry_space_group_name_H-M	'P1'
_symmetry_Int_Tables_number	1
_symmetry_cell_setting	triclinic
loop_
_symmetry_equiv_pos_as_xyz
  x,y,z
_cell_length_a	26.809956
_cell_length_b	14.971486
_cell_length_c	14.971486
_cell_angle_alpha	83.614129
_cell_angle_beta	90.004140
_cell_angle_gamma	89.996118
loop_
_atom_site_label
_atom_site_type_symbol
_atom_site_fract_x
_atom_site_fract_y
_atom_site_fract_z
O1	O	0.041422	-1.186952	-0.116550
O2	O	0.541422	-0.686952	0.383450
O3	O	0.041436	-0.926552	-0.130509
O4	O	0.541436	-0.426552	0.369491
O5	O	0.041425	-1.063731	0.006671
O6	O	0.541425	-0.563731	0.506671
O7	O	0.041433	-1.049772	-0.253730
O8	O	0.541433	-0.549772	0.246270
O9	O	-0.041534	-1.063705	0.006650
O10	O	0.458466	-0.563705	0.506650
O11	O	-0.041523	-0.926526	-0.130530
O12	O	0.458477	-0.426526	0.369470
O13	O	-0.041537	-1.186926	-0.116571
O14	O	0.458463	-0.686926	0.383429
Zn15	Zn	-0.054702	-1.056722	-0.123554
Zn16	Zn	0.445298	-0.556722	0.376446
Zn17	Zn	0.054601	-1.056756	-0.123526
Zn18	Zn	0.554601	-0.556756	0.376474
O19	O	-0.041526	-1.049746	-0.253750
O20	O	0.458474	-0.549746	0.246250
C21	C	-0.000042	-0.893214	-0.129895
C22	C	0.499958	-0.393214	0.370105
C23	C	-0.000037	-0.793917	-0.128024
C24	C	0.499963	-0.293917	0.371976
C25	C	-0.000054	-1.063094	0.039985
C26	C	0.499946	-0.563094	0.539985
C27	C	-0.000054	-1.061223	0.139282
C28	C	0.499946	-0.561223	0.639282
N29	N	-0.129298	-1.056705	-0.123572
N30	N	0.370702	-0.556705	0.376428
C31	C	-0.473928	-1.117491	-0.062798
C32	C	0.026072	-0.617491	0.437202
C33	C	-0.682806	-1.117512	-0.062785
C34	C	-0.182806	-0.617512	0.437215
O35	O	-0.709814	-1.169158	-0.011118
O36	O	-0.209814	-0.669158	0.488882
N37	N	-0.708925	-1.056761	-0.123506
N38	N	-0.208925	-0.556761	0.376494
C39	C	-0.682821	-0.995995	-0.184232
C40	C	-0.182821	-0.495995	0.315768
O41	O	-0.709829	-0.944317	-0.235873
O42	O	-0.209829	-0.444317	0.264127
C43	C	-0.473944	-0.995971	-0.184241
C44	C	0.026056	-0.495971	0.315759
C45	C	-0.447828	-1.056732	-0.123521
C46	C	0.052172	-0.556732	0.376479
C47	C	-0.447812	-1.178247	-0.002083
C48	C	0.052188	-0.678247	0.497917
C49	C	-0.395596	-1.178244	-0.002090
C50	C	0.104404	-0.678244	0.497910
C51	C	-0.369496	-1.117486	-0.062813
C52	C	0.130504	-0.617486	0.437187
C53	C	-0.395612	-1.056730	-0.123528
C54	C	0.104388	-0.556730	0.376472
C55	C	-0.447841	-0.935202	-0.244962
C56	C	0.052159	-0.435202	0.255038
C57	C	-0.395618	-0.935200	-0.244957
C58	C	0.104382	-0.435200	0.255043
C59	C	-0.369502	-0.995961	-0.184237
C60	C	0.130498	-0.495961	0.315763
C61	C	-0.317295	-0.995968	-0.184258
C62	C	0.182705	-0.495968	0.315742
N63	N	-0.291176	-1.056720	-0.123536
N64	N	0.208824	-0.556720	0.376464
C65	C	-0.317277	-1.117479	-0.062814
C66	C	0.182723	-0.617479	0.437186
C67	C	-0.792484	-0.996014	-0.184225
C68	C	-0.292484	-0.496014	0.315775
C69	C	-0.844703	-0.996021	-0.184224
C70	C	-0.344703	-0.496021	0.315776
C71	C	-0.844685	-1.117537	-0.062775
C72	C	-0.344685	-0.617537	0.437225
C73	C	-0.792465	-1.117533	-0.062781
C74	C	-0.292465	-0.617533	0.437219
C75	C	-0.766365	-1.056765	-0.123503
C76	C	-0.266365	-0.556765	0.376497
C77	C	-0.207619	-1.117469	-0.062834
C78	C	0.292381	-0.617469	0.437166
C79	C	-0.155398	-1.117464	-0.062849
C80	C	0.344602	-0.617464	0.437151
C81	C	-0.155421	-0.995945	-0.184295
C82	C	0.344579	-0.495945	0.315705
C83	C	-0.207637	-0.995953	-0.184283
C84	C	0.292363	-0.495953	0.315717
C85	C	-0.233735	-1.056719	-0.123545
C86	C	0.266265	-0.556719	0.376455
O87	O	-0.290255	-0.944342	-0.235891
O88	O	0.209745	-0.444342	0.264109
O89	O	-0.290259	-1.169136	-0.011167
O90	O	0.209741	-0.669136	0.488833
C91	C	-0.526145	-1.117494	-0.062791
C92	C	-0.026145	-0.617494	0.437209
C93	C	-0.552261	-1.056738	-0.123506
C94	C	-0.052261	-0.556738	0.376494
C95	C	-0.526160	-0.995979	-0.184229
C96	C	-0.026160	-0.495979	0.315771
C97	C	-0.604479	-1.056745	-0.123506
C98	C	-0.104479	-0.556745	0.376494
C99	C	-0.630580	-1.117503	-0.062783
C100	C	-0.130580	-0.617503	0.437217
C101	C	-0.604461	-1.178255	-0.002061
C102	C	-0.104461	-0.678255	0.497939
C103	C	-0.552245	-1.178252	-0.002068
C104	C	-0.052245	-0.678252	0.497932
C105	C	-0.552279	-0.935227	-0.244951
C106	C	-0.052279	-0.435227	0.255049
C107	C	-0.604495	-0.935236	-0.244940
C108	C	-0.104495	-0.435236	0.255060
C109	C	-0.630595	-0.995994	-0.184217
C110	C	-0.130595	-0.495994	0.315783
N111	N	0.129197	-1.056780	-0.123501
N112	N	0.629197	-0.556780	0.376499
C113	C	-0.000058	-1.220263	-0.117185
C114	C	0.499942	-0.720263	0.382815
C115	C	-0.000060	-1.319561	-0.119056
C116	C	0.499940	-0.819561	0.380944
C117	C	-0.000035	-0.736691	-0.208614
C118	C	0.499965	-0.236691	0.291386
C119	C	-0.000042	-0.643392	-0.206850
C120	C	0.499958	-0.143392	0.293150
C121	C	-0.000048	-0.607320	-0.124497
C122	C	0.499952	-0.107320	0.375503
C123	C	-0.000051	-0.664552	-0.043902
C124	C	0.499949	-0.164552	0.456098
C125	C	-0.000047	-0.757850	-0.045666
C126	C	0.499953	-0.257850	0.454334
C127	C	-0.000058	-0.470090	-0.040231
C128	C	0.499942	0.029910	0.459769
C129	C	-0.000061	-0.376786	-0.038466
C130	C	0.499939	0.123214	0.461534
C131	C	-0.000053	-0.355632	-0.201415
C132	C	0.499947	0.144368	0.298585
C133	C	-0.000049	-0.448930	-0.203179
C134	C	0.499951	0.051070	0.296821
C135	C	-0.000052	-0.506156	-0.122584
C136	C	0.499948	-0.006156	0.377416
C137	C	-0.000046	-1.050383	-0.287065
C138	C	0.499954	-0.550383	0.212935
C139	C	-0.000043	-1.052254	-0.386362
C140	C	0.499957	-0.552254	0.113638
C141	C	-0.000058	-1.141812	0.196507
C142	C	0.499942	-0.641812	0.696507
C143	C	-0.000053	-1.140049	0.289807
C144	C	0.499947	-0.640049	0.789807
C145	C	-0.000047	-1.057696	0.325879
C146	C	0.499953	-0.557696	0.825879
C147	C	-0.000041	-0.977101	0.268646
C148	C	0.499959	-0.477101	0.768646
C149	C	-0.000042	-0.978865	0.175349
C150	C	0.499958	-0.478865	0.675349
C151	C	-0.000039	-0.973430	0.463109
C152	C	0.499961	-0.473430	0.963109
C153	C	-0.000038	-0.971665	0.556413
C154	C	0.499962	-0.471665	1.056413
C155	C	-0.000049	-1.134614	0.577567
C156	C	0.499951	-0.634614	1.077567
C157	C	-0.000051	-1.136378	0.484269
C158	C	0.499949	-0.636378	0.984269
C159	C	-0.000046	-1.055782	0.427043
C160	C	0.499954	-0.555782	0.927043
H161	H	-0.134136	-1.166946	-0.013404
H162	H	0.365864	-0.666946	0.486596
H163	H	-0.000054	-0.309033	-0.267039
H164	H	0.499946	0.190967	0.232961
H165	H	-0.000067	-0.347419	0.028593
H166	H	0.499933	0.152581	0.528593
F167	F	-0.000029	-0.889454	0.307040
F168	F	0.499971	-0.389454	0.807040
H169	H	-0.228901	-0.946484	-0.233735
H170	H	0.271099	-0.446484	0.266265
F171	F	-0.475626	-0.870530	-0.309587
F172	F	0.024374	-0.370530	0.190413
H173	H	-0.000040	-0.478296	-0.270239
H174	H	0.499960	0.021704	0.229761
H175	H	-0.374371	-0.885712	-0.294403
H176	H	0.125629	-0.385712	0.205597
H177	H	-0.469059	-1.227724	0.047369
H178	H	0.030941	-0.727724	0.547369
H179	H	-0.000063	-0.635175	0.023152
H180	H	0.499937	-0.135175	0.523152
F181	F	-0.235386	-1.182143	0.001810
F182	F	0.264614	-0.682143	0.501810
H183	H	-0.000033	-0.907800	0.416517
H184	H	0.499967	-0.407800	0.916517
H185	H	-0.000061	-0.516682	0.025399
H186	H	0.499939	-0.016682	0.525399
F187	F	-0.524507	-0.870557	-0.309583
F188	F	-0.024507	-0.370557	0.190417
H189	H	-0.771237	-0.946528	-0.233674
H190	H	-0.271237	-0.446528	0.266326
H191	H	-0.000039	-0.913240	0.128756
H192	H	0.499961	-0.413240	0.628756
H193	H	-0.000049	-0.804443	0.019958
H194	H	0.499951	-0.304443	0.519958
F195	F	-0.000069	-1.229465	0.158125
F196	F	0.499931	-0.729465	0.658125
H197	H	-0.374336	-1.227719	0.047356
H198	H	0.125664	-0.727719	0.547356
F199	F	-0.000056	-1.224028	0.445880
F200	F	0.499944	-0.724028	0.945880
F201	F	-0.000032	-0.884016	0.594802
F202	F	0.499968	-0.384016	1.094802
H203	H	-0.000058	-1.205673	0.336396
H204	H	0.499942	-0.705673	0.836396
H205	H	-0.771204	-1.167010	-0.013337
H206	H	-0.271204	-0.667010	0.486663
F207	F	-0.000053	-1.220391	0.638472
F208	F	0.499947	-0.720391	1.138472
H209	H	-0.000041	-0.596802	-0.272475
H210	H	0.499959	-0.096802	0.227525
H211	H	-0.865944	-1.167010	-0.013333
H212	H	-0.365944	-0.667010	0.486667
F213	F	-0.000026	-0.775073	-0.296267
F214	F	0.499974	-0.275073	0.203733
H215	H	-0.625755	-0.885758	-0.294393
H216	H	-0.125755	-0.385758	0.205607
F217	F	-0.872492	-0.931361	-0.248861
F218	F	-0.372492	-0.431361	0.251139
H219	H	-0.134162	-0.946478	-0.233737
H220	H	0.365838	-0.446478	0.266263
H221	H	-0.530985	-1.227730	0.047376
H222	H	-0.030985	-0.727730	0.547376
H223	H	-0.625721	-1.227731	0.047379
H224	H	-0.125721	-0.727731	0.547379
