data_functionalizedCrystal
_audit_creation_method	'MofGen! by Chris Wilmer'
_symmetry_space_group_name_H-M	'P1'
_symmetry_Int_Tables_number	1
_symmetry_cell_setting	triclinic
loop_
_symmetry_equiv_pos_as_xyz
  x,y,z
_cell_length_a	12.759401
_cell_length_b	12.759400
_cell_length_c	19.805399
_cell_angle_alpha	90.022119
_cell_angle_beta	90.016625
_cell_angle_gamma	90.012280
loop_
_atom_site_label
_atom_site_type_symbol
_atom_site_fract_x
_atom_site_fract_y
_atom_site_fract_z
Zn1	Zn	1.606235	-0.418315	0.382692
Zn2	Zn	2.106235	0.081685	0.882692
Zn3	Zn	1.606143	-0.594009	0.269515
Zn4	Zn	2.106143	-0.094009	0.769515
Zn5	Zn	1.430546	-0.418342	0.269523
Zn6	Zn	1.930546	0.081658	0.769523
Zn7	Zn	1.430530	-0.593950	0.382667
Zn8	Zn	1.930530	-0.093950	0.882667
O9	O	1.518364	-0.506154	0.326099
O10	O	2.018364	-0.006154	0.826099
O11	O	1.753244	-0.441635	0.367686
O12	O	2.253244	0.058365	0.867686
O13	O	1.582818	-0.570742	0.174799
O14	O	2.082818	-0.070742	0.674799
O15	O	1.453897	-0.271317	0.284548
O16	O	1.953897	0.228683	0.784548
O17	O	1.753176	-0.570716	0.284535
O18	O	2.253176	-0.070716	0.784535
O19	O	1.582974	-0.271298	0.367694
O20	O	2.082974	0.228702	0.867694
O21	O	1.453808	-0.441680	0.174805
O22	O	1.953808	0.058320	0.674805
O23	O	1.283523	-0.441623	0.284524
O24	O	1.783523	0.058377	0.784524
O25	O	1.453869	-0.570616	0.477387
O26	O	1.953869	-0.070616	0.977387
O27	O	1.283511	-0.570642	0.367651
O28	O	1.783511	-0.070642	0.867651
O29	O	1.582959	-0.441578	0.477405
O30	O	2.082959	0.058422	0.977405
O31	O	1.582803	-0.741022	0.284511
O32	O	2.082803	-0.241022	0.784511
O33	O	1.453781	-0.740979	0.367644
O34	O	1.953781	-0.240979	0.867644
C35	C	1.245396	-0.506130	0.326086
C36	C	1.745396	-0.006130	0.826086
C37	C	1.128620	-0.506145	0.326097
C38	C	1.628620	-0.006145	0.826097
C39	C	1.073733	-0.438876	0.282892
C40	C	1.573733	0.061124	0.782892
C41	C	0.964009	-0.438901	0.282901
C42	C	1.464009	0.061099	0.782901
C43	C	0.964068	-0.573466	0.369325
C44	C	1.464068	-0.073466	0.869325
C45	C	1.073790	-0.573445	0.369312
C46	C	1.573790	-0.073445	0.869312
C47	C	1.128563	-0.371575	0.239677
C48	C	1.628563	0.128425	0.739677
C49	C	1.073676	-0.304300	0.196470
C50	C	1.573676	0.195700	0.696470
C51	C	0.963952	-0.304325	0.196478
C52	C	1.463952	0.195675	0.696478
C53	C	0.909114	-0.371625	0.239694
C54	C	1.409114	0.128375	0.739694
C55	C	1.518309	-0.779121	0.326088
C56	C	2.018309	-0.279121	0.826088
C57	C	1.518381	-0.895898	0.326106
C58	C	2.018381	-0.395898	0.826106
C59	C	1.585558	-0.950670	0.369436
C60	C	2.085558	-0.450670	0.869436
C61	C	1.585607	-1.060394	0.369452
C62	C	2.085607	-0.560394	0.869452
C63	C	1.451299	-1.060564	0.282804
C64	C	1.951299	-0.560564	0.782804
C65	C	1.451245	-0.950842	0.282792
C66	C	1.951245	-0.450842	0.782792
C67	C	1.652694	-0.895726	0.412750
C68	C	2.152694	-0.395726	0.912750
C69	C	1.719877	-0.950499	0.456082
C70	C	2.219877	-0.450499	0.956082
C71	C	1.719926	-1.060223	0.456099
C72	C	2.219926	-0.560223	0.956099
C73	C	1.652792	-1.115174	0.412783
C74	C	2.152792	-0.615174	0.912783
C75	C	1.792397	-0.506179	0.326112
C76	C	2.292397	-0.006179	0.826112
C77	C	1.909174	-0.506190	0.326118
C78	C	2.409174	-0.006190	0.826118
C79	C	1.518423	-0.506088	0.502642
C80	C	2.018423	-0.006088	1.002642
C81	C	1.518448	-0.506060	0.577874
C82	C	2.018448	-0.006060	1.077874
C83	C	1.518448	-0.232121	0.326125
C84	C	2.018448	0.267879	0.826125
C85	C	1.518483	-0.115344	0.326136
C86	C	2.018483	0.384656	0.826136
C87	C	1.518365	-0.506144	0.150243
C88	C	2.018365	-0.006144	0.650243
C89	C	1.518544	-0.505876	0.075012
C90	C	2.018544	-0.005876	0.575012
C91	C	1.585666	-0.438866	0.613229
C92	C	2.085666	0.061134	1.113229
C93	C	1.585677	-0.438836	0.683917
C94	C	2.085677	0.061164	1.183917
C95	C	1.518474	-0.506005	0.719250
C96	C	2.018474	-0.006005	1.219250
C97	C	1.451248	-0.573201	0.683890
C98	C	1.951248	-0.073201	1.183890
C99	C	1.451233	-0.573226	0.613203
C100	C	1.951233	-0.073226	1.113203
C101	C	1.451307	-0.573103	0.968963
C102	C	1.951307	-0.073103	1.468963
C103	C	1.451330	-0.573076	1.039655
C104	C	1.951330	-0.073076	1.539655
C105	C	1.585751	-0.438713	1.039678
C106	C	2.085751	0.061287	1.539678
C107	C	1.585736	-0.438738	0.968991
C108	C	2.085736	0.061262	1.468991
C109	C	1.518507	-0.505930	0.933637
C110	C	2.018507	-0.005930	1.433637
C111	C	1.518495	-0.505961	0.856989
C112	C	2.018495	-0.005961	1.356989
C113	C	1.518491	-0.505980	0.795897
C114	C	2.018491	-0.005980	1.295897
H115	H	0.919266	-0.249554	0.161292
H116	H	1.419266	0.250446	0.661292
C117	C	1.793719	-0.890050	0.503728
C118	C	2.293719	-0.390050	1.003728
N119	N	1.849338	-0.844521	0.539616
N120	N	2.349338	-0.344521	1.039616
H121	H	0.819770	-0.371645	0.239695
H122	H	1.319770	0.128355	0.739695
H123	H	1.396543	-0.906246	0.247510
H124	H	1.896543	-0.406246	0.747510
C125	C	0.903743	-0.647483	0.416864
C126	C	1.403743	-0.147483	0.916864
N127	N	0.858306	-0.703230	0.452674
N128	N	1.358306	-0.203230	0.952674
C129	C	1.249261	-0.371544	0.239662
C130	C	1.749261	0.128456	0.739662
N131	N	1.340171	-0.371521	0.239652
N132	N	1.840171	0.128479	0.739652
H133	H	1.118480	-0.628220	0.404494
H134	H	1.618480	-0.128220	0.904494
H135	H	1.774622	-1.104815	0.491387
H136	H	2.274622	-0.604815	0.991387
C137	C	1.652844	-1.235875	0.412808
C138	C	2.152844	-0.735875	0.912808
N139	N	1.652886	-1.326785	0.412825
N140	N	2.152886	-0.826785	0.912825
H141	H	1.640463	-0.384045	0.940226
H142	H	2.140463	0.115955	1.440226
H143	H	1.652664	-0.806383	0.412740
H144	H	2.152664	-0.306383	0.912740
C145	C	1.377504	-1.121015	0.235130
C146	C	1.877504	-0.621015	0.735130
N147	N	1.321939	-1.166547	0.199209
N148	N	1.821939	-0.666547	0.699209
H149	H	1.118331	-0.249514	0.161281
H150	H	1.618331	0.250486	0.661281
H151	H	1.396526	-0.627888	0.712663
H152	H	1.896526	-0.127888	1.212663
C153	C	1.659595	-0.364973	0.574370
C154	C	2.159595	0.135027	1.074370
N155	N	1.715277	-0.309310	0.545103
N156	N	2.215277	0.190690	1.045103
H157	H	1.640415	-0.384123	0.712700
H158	H	2.140415	0.115877	1.212700
C159	C	1.659693	-0.364787	1.078573
C160	C	2.159693	0.135213	1.578573
N161	N	1.715383	-0.309107	1.107868
N162	N	2.215383	0.190893	1.607868
H163	H	1.396601	-0.627775	1.068421
H164	H	1.896601	-0.127775	1.568421
C165	C	1.377350	-0.647013	0.930084
C166	C	1.877350	-0.147013	1.430084
N167	N	1.321639	-0.702684	0.900797
N168	N	1.821639	-0.202684	1.400797
H169	H	1.396486	-0.627931	0.584418
H170	H	1.896486	-0.127931	1.084418
