data_functionalizedCrystal
_audit_creation_method	'MofGen! by Chris Wilmer'
_symmetry_space_group_name_H-M	'P1'
_symmetry_Int_Tables_number	1
_symmetry_cell_setting	triclinic
loop_
_symmetry_equiv_pos_as_xyz
  x,y,z
_cell_length_a	11.026607
_cell_length_b	23.532357
_cell_length_c	9.482900
_cell_angle_alpha	99.268091
_cell_angle_beta	78.636152
_cell_angle_gamma	95.707154
loop_
_atom_site_label
_atom_site_type_symbol
_atom_site_fract_x
_atom_site_fract_y
_atom_site_fract_z
O1	O	1.626212	0.231208	-0.120961
O2	O	1.273242	0.204087	-0.120956
O3	O	1.460398	0.135838	-0.120929
O4	O	1.439057	0.299457	-0.120988
O5	O	1.422381	0.149772	0.120858
O6	O	1.235226	0.218021	0.120831
O7	O	1.588196	0.245142	0.120826
Cu8	Cu	1.408240	0.232854	0.142906
Cu9	Cu	1.453198	0.216375	-0.143036
O10	O	1.401040	0.313391	0.120799
C11	C	1.209085	0.206050	-0.000061
C12	C	1.074556	0.191135	-0.000057
C13	C	1.000241	0.232318	-0.000073
C14	C	0.861198	0.216904	-0.000070
C15	C	1.440855	0.121533	-0.000031
C16	C	1.439247	0.058146	-0.000017
C17	C	1.449902	-0.342525	-0.131894
C18	C	1.448377	-0.402086	-0.131902
O19	O	1.465171	-0.439349	-0.243991
N20	N	1.426898	-0.424281	-0.000105
C21	C	1.406930	-0.386913	0.131708
O22	O	1.388519	-0.411261	0.243810
C23	C	1.408446	-0.327354	0.131714
C24	C	1.429939	-0.305162	-0.000091
C25	C	1.471392	-0.320332	-0.263688
C26	C	1.472919	-0.260776	-0.263679
C27	C	1.452956	-0.223412	-0.131876
C28	C	1.431466	-0.245605	-0.000082
C29	C	1.388470	-0.289988	0.263526
C30	C	1.389987	-0.230425	0.263522
C31	C	1.411480	-0.208233	0.131717
C32	C	1.413031	-0.148685	0.131730
N33	N	1.434510	-0.126490	-0.000066
C34	C	1.454473	-0.163853	-0.131869
C35	C	1.403744	-0.511992	0.131683
C36	C	1.402236	-0.571549	0.131678
C37	C	1.443682	-0.586718	-0.131932
C38	C	1.445198	-0.527159	-0.131925
C39	C	1.425224	-0.489796	-0.000113
C40	C	1.457680	-0.038780	-0.131841
C41	C	1.459210	0.020783	-0.131820
C42	C	1.417758	0.035946	0.131789
C43	C	1.416234	-0.023611	0.131769
C44	C	1.436193	-0.060974	-0.000057
O45	O	1.396242	-0.111388	0.243762
O46	O	1.472865	-0.139498	-0.243953
C47	C	1.652353	0.243178	-0.000072
C48	C	1.786884	0.258093	-0.000085
C49	C	1.420584	0.327696	-0.000103
C50	C	1.422193	0.391082	-0.000126
N51	N	1.376627	0.244444	0.344021
N52	N	1.484821	0.204781	-0.344151
C53	C	1.443866	0.219790	0.416230
C54	C	1.417572	0.229439	0.583644
H55	H	1.476716	0.038848	-0.239156
N56	N	1.467118	-0.504494	-0.266560
N57	N	1.387141	-0.476466	-0.295975
H58	H	1.402618	-0.460462	-0.391067
N59	N	1.540381	0.184274	0.338338
N60	N	1.603522	0.161040	0.406141
H61	H	1.671638	0.135926	0.351134
N62	N	1.383348	-0.473820	0.266323
N63	N	1.294129	-0.442400	0.295749
H64	H	1.279721	-0.415442	0.390837
N65	N	1.397342	0.074109	0.266429
N66	N	1.378142	0.054291	0.384105
H67	H	1.363712	0.081244	0.479198
H68	H	0.821896	0.170228	-0.000090
H69	H	0.826189	0.304767	-0.000093
H70	H	1.299591	0.272693	0.406140
N71	N	1.025271	0.132584	-0.000021
N72	N	1.033379	0.106302	0.101911
H73	H	0.998576	0.064948	0.101938
H74	H	1.340531	0.257689	0.645757
N75	N	1.478063	-0.076931	-0.266509
N76	N	1.497248	-0.057098	-0.384163
H77	H	1.511650	-0.084041	-0.479273
H78	H	1.039553	0.278989	-0.000082
H79	H	1.561853	0.176526	0.593735
N80	N	1.464100	-0.624886	-0.266575
N81	N	1.553323	-0.656304	-0.295977
H82	H	1.567750	-0.683261	-0.391065
H83	H	1.490416	-0.242713	-0.371008
H84	H	1.487645	-0.350749	-0.371024
H85	H	1.384753	-0.589612	0.239007
H86	H	1.370970	-0.308046	0.370856
N87	N	1.369560	-0.192262	0.398168
N88	N	1.270065	-0.197342	0.486406
H89	H	1.255637	-0.170389	0.581499
N90	N	1.394289	-0.046274	0.266414
N91	N	1.376468	-0.012904	0.384085
H92	H	1.360955	-0.028906	0.479182
