data_functionalizedCrystal
_audit_creation_method	'MofGen! by Chris Wilmer'
_symmetry_space_group_name_H-M	'P1'
_symmetry_Int_Tables_number	1
_symmetry_cell_setting	triclinic
loop_
_symmetry_equiv_pos_as_xyz
  x,y,z
_cell_length_a	19.288864
_cell_length_b	7.540329
_cell_length_c	19.288857
_cell_angle_alpha	90.005736
_cell_angle_beta	83.134677
_cell_angle_gamma	90.016801
loop_
_atom_site_label
_atom_site_type_symbol
_atom_site_fract_x
_atom_site_fract_y
_atom_site_fract_z
O1	O	0.921344	0.148059	0.086647
O2	O	0.719083	0.147939	0.098336
O3	O	0.826061	0.147982	-0.008639
O4	O	0.814367	0.148017	0.193622
O5	O	0.826055	-0.146984	-0.008641
O6	O	0.719077	-0.147026	0.098335
O7	O	0.921338	-0.146906	0.086646
Cu8	Cu	0.820207	-0.173898	0.092490
Cu9	Cu	0.820215	0.174932	0.092491
O10	O	0.814360	-0.146948	0.193621
C11	C	0.693204	0.000441	0.097959
C12	C	0.616100	0.000394	0.096830
N13	N	0.820207	-0.419247	0.092488
C14	C	0.571402	0.000433	0.159598
C15	C	0.498955	0.000453	0.158537
C16	C	0.471209	0.000469	0.094705
C17	C	0.515917	0.000420	0.031929
C18	C	0.588363	0.000383	0.032991
C19	C	0.362951	0.103859	0.044526
C20	C	0.290507	0.103907	0.043466
C21	C	0.247764	0.000576	0.091425
C22	C	0.277473	-0.102781	0.140456
C23	C	0.349919	-0.102818	0.141519
C24	C	0.392656	0.000508	0.093546
C25	C	0.124510	0.000633	0.153048
C26	C	0.052062	0.000642	0.151984
C27	C	0.069026	0.000627	0.025374
C28	C	0.141472	0.000600	0.026439
C29	C	0.169210	0.000612	0.090278
C30	C	0.947218	0.000596	0.087022
C31	C	1.024321	0.000655	0.088151
C32	C	0.825683	0.000497	-0.034516
C33	C	0.824556	0.000491	-0.111620
N34	N	0.820220	0.420280	0.092487
C35	C	0.824033	0.161277	-0.147830
C36	C	0.822965	0.161289	-0.220276
C37	C	0.822432	0.000507	-0.256511
C38	C	0.822951	-0.160299	-0.220292
C39	C	0.824013	-0.160307	-0.147847
C40	C	0.861431	-0.122638	-0.376743
C41	C	0.860374	-0.122623	-0.449188
C42	C	0.819155	0.000525	-0.479957
C43	C	0.779002	0.123689	-0.438274
C44	C	0.780063	0.123681	-0.365828
C45	C	0.821281	0.000498	-0.335066
C46	C	0.817472	0.161336	-0.594721
C47	C	0.816399	0.161341	-0.667168
C48	C	0.816393	-0.160252	-0.667184
C49	C	0.817459	-0.160253	-0.594737
C50	C	0.818002	0.000546	-0.558511
C51	C	0.814739	0.000540	0.219498
C52	C	0.815866	0.000558	0.296602
H53	H	0.593981	0.000446	0.211581
H54	H	0.822535	0.292224	-0.249764
F55	F	0.381535	-0.212820	0.193697
H56	H	0.147095	0.000617	0.205029
F57	F	0.735127	0.254758	-0.471014
H58	H	0.242673	-0.186925	0.179509
H59	H	0.462555	0.000480	0.209652
F60	F	0.737329	0.254752	-0.321468
F61	F	0.189045	0.000568	-0.040368
H62	H	0.624757	0.000352	-0.018124
H63	H	0.397747	0.188015	0.005471
H64	H	0.894996	-0.222934	-0.351698
H65	H	0.015669	0.000663	0.203100
F66	F	0.258894	0.213923	-0.008710
H67	H	0.817910	0.292267	-0.565224
H68	H	0.815970	0.292278	-0.696649
F69	F	0.486387	0.000429	-0.036006
F70	F	0.815823	-0.331370	-0.705743
H71	H	0.046436	0.000750	-0.026600
H72	H	0.817890	-0.291182	-0.565256
H73	H	0.822516	-0.291209	-0.249799
F74	F	0.824608	0.332414	-0.109279
H75	H	0.824435	-0.291242	-0.118365
H76	H	0.893071	-0.222904	-0.483122
