data_functionalizedCrystal
_audit_creation_method	'MofGen! by Chris Wilmer'
_symmetry_space_group_name_H-M	'P1'
_symmetry_Int_Tables_number	1
_symmetry_cell_setting	triclinic
loop_
_symmetry_equiv_pos_as_xyz
  x,y,z
_cell_length_a	10.967926
_cell_length_b	23.532357
_cell_length_c	10.065875
_cell_angle_alpha	98.726510
_cell_angle_beta	93.120479
_cell_angle_gamma	83.791997
loop_
_atom_site_label
_atom_site_type_symbol
_atom_site_fract_x
_atom_site_fract_y
_atom_site_fract_z
O1	O	1.611670	0.099285	0.265538
O2	O	1.261606	0.100911	0.183202
O3	O	1.447221	0.017420	0.226888
O4	O	1.426055	0.182777	0.221853
O5	O	1.411826	0.033407	0.445546
O6	O	1.226211	0.116899	0.401861
O7	O	1.576275	0.115273	0.484197
Zn8	Zn	1.395623	0.118624	0.477746
Zn9	Zn	1.442258	0.097560	0.189654
O10	O	1.390660	0.198764	0.440512
C11	C	1.199131	0.107579	0.282000
C12	C	1.065710	0.103620	0.250621
C13	C	0.987890	0.110137	0.349902
C14	C	0.849992	0.106045	0.317472
C15	C	1.428994	0.004185	0.336096
C16	C	1.427399	-0.059071	0.335734
C17	C	1.436707	-0.460042	0.214121
C18	C	1.435195	-0.519478	0.213758
O19	O	1.450780	-0.557625	0.112197
N20	N	1.415151	-0.540492	0.332770
C21	C	1.396605	-0.502066	0.452151
O22	O	1.379416	-0.525398	0.553347
C23	C	1.398109	-0.442631	0.452511
C24	C	1.418167	-0.421621	0.333494
C25	C	1.456762	-0.439030	0.095113
C26	C	1.458277	-0.379598	0.095478
C27	C	1.439737	-0.341177	0.214850
C28	C	1.419682	-0.362189	0.333858
C29	C	1.379556	-0.404206	0.571889
C30	C	1.381061	-0.344767	0.572238
C31	C	1.401119	-0.323757	0.453221
C32	C	1.402656	-0.264336	0.453595
N33	N	1.422701	-0.243321	0.334583
C34	C	1.441241	-0.281742	0.215210
C35	C	1.393446	-0.626885	0.451385
C36	C	1.391950	-0.686320	0.451029
C37	C	1.430538	-0.703727	0.212634
C38	C	1.432042	-0.644292	0.212994
C39	C	1.413490	-0.605871	0.332373
C40	C	1.444421	-0.156930	0.215985
C41	C	1.445939	-0.097492	0.216362
C42	C	1.407346	-0.080090	0.454754
C43	C	1.405834	-0.139523	0.454380
C44	C	1.424369	-0.177942	0.334984
O45	O	1.387076	-0.226154	0.555103
O46	O	1.458411	-0.258401	0.114028
C47	C	1.638750	0.108605	0.385396
C48	C	1.772173	0.112564	0.416767
C49	C	1.408888	0.211999	0.331300
C50	C	1.410484	0.275254	0.331654
N51	N	1.363805	0.133000	0.674363
N52	N	1.474086	0.083180	-0.006961
C53	C	1.431180	0.102558	0.757998
C54	C	1.406701	0.113626	0.909404
H55	H	0.807632	0.121171	0.525783
H56	H	1.023358	0.118742	0.458909
H57	H	1.471856	-0.470308	-0.002101
C58	C	1.261381	0.179271	0.729032
H59	H	1.222274	0.196929	0.656924
H60	H	1.295824	0.207747	0.792872
H61	H	1.202831	0.161674	0.771007
C62	C	0.802098	0.094417	0.170202
H63	H	0.715697	0.093197	0.167724
H64	H	0.840090	0.058457	0.128274
H65	H	0.820942	0.124434	0.123760
C66	C	1.017816	0.091994	0.103356
H67	H	1.084522	0.088433	0.045273
H68	H	0.960124	0.123171	0.084709
H69	H	0.979273	0.057195	0.089227
H70	H	1.462276	-0.080389	0.119440
C71	C	1.533585	0.056278	0.703318
H72	H	1.536607	0.054913	0.608730
H73	H	1.517157	0.019659	0.722822
H74	H	1.610178	0.065719	0.744658
C75	C	1.454093	-0.621185	0.082074
H76	H	1.464912	-0.652584	0.010934
H77	H	1.525583	-0.601215	0.093740
H78	H	1.385367	-0.595509	0.060763
C79	C	1.369898	-0.709425	0.581950
H80	H	1.359065	-0.678026	0.653087
H81	H	1.438604	-0.735107	0.603262
H82	H	1.298391	-0.729388	0.570274
H83	H	1.459509	-0.188204	0.118760
H84	H	1.330887	0.147883	0.949882
H85	H	1.474605	-0.362498	-0.001440
C86	C	1.450918	-0.745997	0.081322
H87	H	1.447134	-0.784402	0.098159
H88	H	1.529193	-0.742695	0.048882
H89	H	1.388976	-0.736977	0.015921
H90	H	1.549891	0.048919	0.952559
C91	C	1.373061	-0.584627	0.582715
H92	H	1.360920	-0.605660	0.653537
H93	H	1.302744	-0.558222	0.571339
H94	H	1.442961	-0.563939	0.604303
H95	H	1.365936	-0.313486	0.669449
C96	C	1.357480	-0.427304	0.702807
H97	H	1.346639	-0.395901	0.773937
H98	H	1.426182	-0.452984	0.724136
H99	H	1.285973	-0.447267	0.691125
H100	H	1.389512	-0.156630	0.551296
H101	H	1.392256	-0.048797	0.551945
