data_functionalizedCrystal
_audit_creation_method	'MofGen! by Chris Wilmer'
_symmetry_space_group_name_H-M	'P1'
_symmetry_Int_Tables_number	1
_symmetry_cell_setting	triclinic
loop_
_symmetry_equiv_pos_as_xyz
  x,y,z
_cell_length_a	15.298114
_cell_length_b	15.297327
_cell_length_c	15.296720
_cell_angle_alpha	107.319222
_cell_angle_beta	69.221067
_cell_angle_gamma	91.577639
loop_
_atom_site_label
_atom_site_type_symbol
_atom_site_fract_x
_atom_site_fract_y
_atom_site_fract_z
Zn1	Zn	1.197182	0.637548	0.412745
Zn2	Zn	1.697182	1.137548	0.912745
Zn3	Zn	1.197080	0.766155	0.284154
Zn4	Zn	1.697080	1.266155	0.784154
Zn5	Zn	1.077899	0.593108	0.274907
Zn6	Zn	1.577899	1.093108	0.774907
Zn7	Zn	1.014723	0.766139	0.466573
Zn8	Zn	1.514723	1.266139	0.966573
O9	O	1.121721	0.690737	0.359594
O10	O	1.621721	1.190737	0.859594
O11	O	1.323406	0.673213	0.377030
O12	O	1.823406	1.173213	0.877030
O13	O	1.207666	0.724608	0.148899
O14	O	1.707666	1.224608	0.648899
O15	O	1.120204	0.472766	0.266794
O16	O	1.620204	0.972766	0.766794
O17	O	1.323331	0.767700	0.282554
O18	O	1.823331	1.267700	0.782554
O19	O	1.207841	0.505416	0.368063
O20	O	1.707841	1.005416	0.868063
O21	O	1.120104	0.597471	0.142105
O22	O	1.620104	1.097471	0.642105
O23	O	0.943281	0.597456	0.318989
O24	O	1.443281	1.097456	0.818989
O25	O	1.012531	0.767673	0.593461
O26	O	1.512531	1.267673	1.093461
O27	O	0.896866	0.724581	0.459805
O28	O	1.396866	1.224581	0.959805
O29	O	1.146582	0.673198	0.553913
O30	O	1.646582	1.173198	1.053913
O31	O	1.146408	0.892389	0.334749
O32	O	1.646408	1.392389	0.834749
O33	O	1.012431	0.892378	0.468772
O34	O	1.512431	1.392378	0.968772
C35	C	0.887341	0.656195	0.394235
C36	C	1.387341	1.156195	0.894235
C37	C	0.787064	0.641443	0.409082
C38	C	1.287064	1.141443	0.909082
C39	C	0.504390	0.796215	0.253720
C40	C	1.004390	1.296215	0.753720
C41	C	0.598608	0.810073	0.239763
C42	C	1.098608	1.310073	0.739763
C43	C	0.645726	0.767917	0.282092
C44	C	1.145726	1.267917	0.782092
C45	C	0.598618	0.711899	0.338379
C46	C	1.098618	1.211899	0.838379
C47	C	0.504394	0.698034	0.352331
C48	C	1.004394	1.198034	0.852331
C49	C	0.645730	0.669736	0.380703
C50	C	1.145730	1.169736	0.880703
C51	C	0.598622	0.613718	0.436990
C52	C	1.098622	1.113718	0.936990
C53	C	0.504406	0.599856	0.450940
C54	C	1.004406	1.099856	0.950940
C55	C	0.457288	0.642012	0.408611
C56	C	0.957288	1.142012	0.908611
C57	C	0.739954	0.683602	0.366751
C58	C	1.239954	1.183602	0.866751
C59	C	0.739958	0.585421	0.465362
C60	C	1.239958	1.085421	0.965362
C61	C	0.645740	0.571562	0.479319
C62	C	1.145740	1.071562	0.979319
C63	C	1.072573	0.925122	0.408622
C64	C	1.572573	1.425122	0.908622
C65	C	1.051624	1.025409	0.429616
C66	C	1.551624	1.525409	0.929616
C67	C	1.072521	0.725391	0.609411
C68	C	1.572521	1.225391	1.109411
C69	C	1.051555	0.740158	0.715868
C70	C	1.551555	1.240158	1.215868
C71	C	1.357016	0.725415	0.324819
C72	C	1.857016	1.225415	0.824819
C73	C	1.457284	0.740193	0.310000
C74	C	1.957284	1.240193	0.810000
C75	C	1.171081	0.455444	0.310393
C76	C	1.671081	0.955444	0.810393
C77	C	1.192115	0.355177	0.289426
C78	C	1.692115	0.855177	0.789426
C79	C	1.271756	1.308052	0.209818
C80	C	1.771756	1.808052	0.709818
C81	C	1.291440	1.213827	0.190088
C82	C	1.791440	1.713827	0.690088
C83	C	1.231488	1.166718	0.249969
C84	C	1.731488	1.666718	0.749969
C85	C	1.151849	1.213843	0.329582
C86	C	1.651849	1.713843	0.829582
C87	C	1.132159	1.308077	0.349309
C88	C	1.632159	1.808077	0.849309
C89	C	1.091891	1.166742	0.389460
C90	C	1.591891	1.666742	0.889460
C91	C	1.012251	1.213868	0.469073
C92	C	1.512251	1.713868	0.969073
C93	C	0.992566	1.308092	0.488797
C94	C	1.492566	1.808092	0.988797
C95	C	1.052518	1.355201	0.428917
C96	C	1.552518	1.855201	0.928917
C97	C	1.111580	1.072509	0.369733
C98	C	1.611580	1.572509	0.869733
C99	C	0.971983	1.072533	0.509224
C100	C	1.471983	1.572533	1.009224
C101	C	0.952299	1.166758	0.528954
C102	C	1.452299	1.666758	1.028954
C103	C	1.170795	0.656161	0.110729
C104	C	1.670795	1.156161	0.610729
C105	C	1.191989	0.641165	0.004193
C106	C	1.691989	1.141165	0.504193
C107	C	1.271636	0.585040	0.933592
C108	C	1.771636	1.085040	1.433592
C109	C	1.291340	0.571168	0.833570
C110	C	1.791340	1.071168	1.333570
C111	C	1.231395	0.613414	0.804139
C112	C	1.731395	1.113414	1.304139
C113	C	1.151743	0.669535	0.874741
C114	C	1.651743	1.169535	1.374741
C115	C	1.132041	0.683415	0.974773
C116	C	1.632041	1.183415	1.474773
C117	C	1.091801	0.711788	0.845320
C118	C	1.591801	1.211788	1.345320
C119	C	1.012149	0.767910	0.915922
C120	C	1.512149	1.267910	1.415922
C121	C	0.992450	0.781786	1.015944
C122	C	1.492450	1.281786	1.515944
C123	C	1.052395	0.739540	1.045374
C124	C	1.552395	1.239540	1.545374
C125	C	1.111503	0.697909	0.745288
C126	C	1.611503	1.197909	1.245288
C127	C	0.971908	0.796284	0.786469
C128	C	1.471908	1.296284	1.286469
C129	C	0.952204	0.810156	0.886491
C130	C	1.452204	1.310156	1.386491
H131	H	0.778300	0.729212	0.320922
H132	H	1.278300	1.229212	0.820922
O133	O	0.747345	0.782871	0.267039
O134	O	1.247345	1.282871	0.767039
H135	H	0.790243	0.715787	0.229882
H136	H	1.290243	1.215787	0.729882
H137	H	0.887351	0.855850	0.943989
H138	H	1.387351	1.355850	1.443989
O139	O	1.252635	0.598457	0.696261
O140	O	1.752635	1.098457	1.196261
H141	H	1.253868	0.524071	0.658354
H142	H	1.753868	1.024071	1.158354
O143	O	0.649420	0.870482	0.179053
O144	O	1.149420	1.370482	0.679053
H145	H	0.600828	0.897471	0.151967
H146	H	1.100828	1.397471	0.651967
O147	O	0.790763	0.539949	0.511027
O148	O	1.290763	1.039949	1.011027
H149	H	0.864190	0.559009	0.491879
H150	H	1.364190	1.059009	0.991879
O151	O	0.453576	0.841673	0.208061
O152	O	0.953576	1.341673	0.708061
H153	H	0.380146	0.822620	0.227221
H154	H	0.880146	1.322620	0.727221
O155	O	0.355667	0.627057	0.423651
O156	O	0.855667	1.127057	0.923651
H157	H	0.312773	0.694143	0.460797
H158	H	0.812773	1.194143	0.960797
H159	H	0.923098	0.830686	0.762509
H160	H	1.423098	1.330686	1.262509
H161	H	0.466056	0.554235	0.496765
H162	H	0.966056	1.054235	0.996765
O163	O	1.252718	1.065091	0.228703
O164	O	1.752718	1.565091	0.728703
H165	H	1.318173	1.040238	0.163290
H166	H	1.818173	1.540238	0.663290
O167	O	0.594934	0.511131	0.540014
O168	O	1.094934	1.011131	1.040014
H169	H	0.521506	0.508568	0.542592
H170	H	1.021506	1.008568	1.042592
O171	O	1.377328	1.162998	0.104226
O172	O	1.877328	1.662998	0.604226
H173	H	1.423720	1.132714	0.131352
H174	H	1.923720	1.632714	0.631352
O175	O	1.336419	1.358849	0.145230
O176	O	1.836419	1.858849	0.645230
H177	H	1.407754	1.353403	0.147451
H178	H	1.907754	1.853403	0.647451
O179	O	1.197480	1.021685	0.283883
O180	O	1.697480	1.521685	0.783883
H181	H	1.193096	1.027111	0.214768
H182	H	1.693096	1.527111	0.714768
H183	H	0.887456	1.205141	0.593775
H184	H	1.387456	1.705141	1.093775
O185	O	1.031276	1.456831	0.450193
O186	O	1.531276	1.956831	0.950193
H187	H	1.086343	1.481666	0.395175
H188	H	1.586343	1.981666	0.895175
O189	O	0.906668	1.358924	0.574659
O190	O	1.406668	1.858924	1.074659
H191	H	0.868290	1.310341	0.612990
H192	H	1.368290	1.810341	1.112990
H193	H	0.923163	1.034177	0.557982
H194	H	1.423163	1.534177	1.057982
H195	H	1.176356	0.652214	0.687813
H196	H	1.676356	1.152214	1.187813
O197	O	1.377244	0.510644	0.757422
O198	O	1.877244	1.010644	1.257422
H199	H	1.415614	0.483594	0.794689
H200	H	1.915614	0.983594	1.294689
O201	O	1.336267	0.539452	0.965331
O202	O	1.836267	1.039452	1.465331
H203	H	1.309175	0.558520	1.046746
H204	H	1.809175	1.058520	1.546746
H205	H	1.036356	0.750832	1.126819
H206	H	1.536356	1.250832	1.626819
H207	H	0.927598	0.827493	1.073427
H208	H	1.427598	1.327493	1.573427
