data_functionalizedCrystal
_audit_creation_method	'MofGen! by Chris Wilmer'
_symmetry_space_group_name_H-M	'P1'
_symmetry_Int_Tables_number	1
_symmetry_cell_setting	triclinic
loop_
_symmetry_equiv_pos_as_xyz
  x,y,z
_cell_length_a	17.699083
_cell_length_b	7.088929
_cell_length_c	17.699083
_cell_angle_alpha	96.211898
_cell_angle_beta	83.283015
_cell_angle_gamma	83.803027
loop_
_atom_site_label
_atom_site_type_symbol
_atom_site_fract_x
_atom_site_fract_y
_atom_site_fract_z
O1	O	0.996305	0.158727	0.103493
O2	O	0.775923	0.158790	0.115949
O3	O	0.892341	0.158740	-0.000469
O4	O	0.879887	0.158777	0.219911
O5	O	0.907899	-0.159242	-0.016062
O6	O	0.791481	-0.159192	0.100355
O7	O	1.011863	-0.159255	0.087900
Cu8	Cu	0.903093	-0.188258	0.092704
Cu9	Cu	0.884693	0.187792	0.111145
O10	O	0.895445	-0.159205	0.204318
C11	C	0.755505	-0.000193	0.107706
C12	C	0.671486	-0.000170	0.106369
N13	N	0.916039	-0.452752	0.079733
C14	C	0.622864	-0.000159	0.174703
C15	C	0.543922	-0.000184	0.173439
C16	C	0.513602	-0.000206	0.103842
C17	C	0.562230	-0.000223	0.035502
C18	C	0.641172	-0.000211	0.036766
C19	C	0.243870	-0.000271	0.030405
C20	C	0.164922	-0.000276	0.029146
C21	C	0.146620	-0.000243	0.167078
C22	C	0.225561	-0.000232	0.168342
C23	C	0.274183	-0.000259	0.100002
C24	C	0.359781	-0.000235	0.101373
C25	C	0.428005	-0.000216	0.102471
C26	C	1.032281	-0.000268	0.096142
C27	C	1.116300	-0.000279	0.097481
C28	C	0.899674	-0.000252	-0.036463
C29	C	0.898335	-0.000252	-0.120481
N30	N	0.871753	0.452286	0.124109
C31	C	0.966670	-0.000274	-0.169103
C32	C	0.965407	-0.000257	-0.248045
C33	C	0.895809	-0.000231	-0.278365
C34	C	0.827469	-0.000203	-0.229736
C35	C	0.828732	-0.000207	-0.150795
C36	C	0.822373	-0.000186	-0.548099
C37	C	0.821115	-0.000188	-0.627047
C38	C	0.959047	-0.000236	-0.645349
C39	C	0.960311	-0.000240	-0.566408
C40	C	0.891971	-0.000202	-0.517786
C41	C	0.893341	-0.000217	-0.432187
C42	C	0.894439	-0.000230	-0.363963
C43	C	0.888112	-0.000210	0.240312
C44	C	0.889450	-0.000197	0.324330
H45	H	0.647544	-0.000139	0.231377
H46	H	0.770801	-0.000170	-0.254428
N47	N	0.976850	-0.560919	0.018822
H48	H	0.975940	-0.702869	0.019742
H49	H	0.966437	-0.526044	-0.033143
H50	H	0.825855	-0.466048	0.170096
N51	N	0.755029	-0.000171	-0.098348
H52	H	0.710747	-0.000156	-0.129532
H53	H	0.758313	-0.118047	-0.070977
H54	H	0.504337	-0.000173	0.229084
H55	H	1.021052	-0.000279	-0.287631
N56	N	0.748666	-0.000153	-0.495665
H57	H	0.760020	-0.000144	-0.441054
H58	H	0.712567	0.117741	-0.499691
H59	H	1.023345	-0.000307	-0.144424
H60	H	0.250242	-0.000205	0.225015
H61	H	0.107023	-0.000232	0.222723
H62	H	0.140239	-0.000297	-0.027532
N63	N	1.035380	-0.000263	-0.533713
H64	H	1.033209	0.117610	-0.495584
H65	H	1.044706	-0.118220	-0.507194
H66	H	1.014693	-0.000258	-0.684947
H67	H	0.283448	-0.000294	-0.025242
H68	H	0.537539	-0.000268	-0.021167
N69	N	0.693613	-0.000234	-0.036940
H70	H	0.678105	0.117632	-0.061534
H71	H	0.748205	-0.000304	-0.025523
N72	N	0.746046	-0.000171	-0.659752
H73	H	0.702944	-0.000146	-0.616972
H74	H	0.736755	0.117704	-0.686327
