data_functionalizedCrystal
_audit_creation_method	'MofGen! by Chris Wilmer'
_symmetry_space_group_name_H-M	'P1'
_symmetry_Int_Tables_number	1
_symmetry_cell_setting	triclinic
loop_
_symmetry_equiv_pos_as_xyz
  x,y,z
_cell_length_a	15.698487
_cell_length_b	21.606444
_cell_length_c	21.606444
_cell_angle_alpha	59.998382
_cell_angle_beta	90.000958
_cell_angle_gamma	59.994134
loop_
_atom_site_label
_atom_site_type_symbol
_atom_site_fract_x
_atom_site_fract_y
_atom_site_fract_z
Zr1	Zr	0.820446	0.677571	-0.081319
O2	O	0.684400	0.806704	-0.180157
O3	O	0.862173	0.548433	-0.051008
O4	O	0.862142	0.677567	-0.180142
O5	O	0.684431	0.677574	0.050827
O6	O	1.002323	0.677570	-0.180144
O7	O	0.684431	0.677570	-0.051023
O8	O	1.002379	0.446572	0.050854
O9	O	0.684375	0.908572	-0.180171
O10	O	0.984558	0.601553	-0.038096
O11	O	0.879943	0.601554	0.037915
O12	O	0.879906	0.753593	-0.114124
O13	O	0.775290	0.753595	-0.038114
Zr14	Zr	1.044018	0.677582	0.081117
Zr15	Zr	1.044019	0.677575	-0.081321
Zr16	Zr	0.820446	0.677578	0.081120
Zr17	Zr	0.820406	0.840038	-0.081341
Zr18	Zr	1.044058	0.515114	0.081139
O19	O	1.002291	0.806719	0.050806
O20	O	1.002292	0.806710	-0.180161
O21	O	0.684400	0.806714	0.050810
O22	O	1.180064	0.548449	0.179955
O23	O	1.180065	0.548439	-0.051011
O24	O	0.862173	0.548443	0.179959
O25	O	1.180033	0.677578	-0.051029
O26	O	1.002322	0.677585	0.179940
O27	O	0.862141	0.677583	0.179942
O28	O	1.180033	0.677583	0.050821
O29	O	0.862086	0.908575	-0.180173
O30	O	1.002378	0.446578	0.179971
O31	O	1.180089	0.446581	0.179969
O32	O	1.180089	0.446575	0.050852
O33	O	0.684375	0.908577	-0.051054
O34	O	0.862086	0.908580	-0.051056
O35	O	0.984558	0.601559	0.113923
O36	O	1.089174	0.601558	0.037912
O37	O	0.984522	0.753598	-0.038116
O38	O	0.879906	0.753600	0.037894
C39	C	0.652577	0.677571	-0.000098
C40	C	0.557664	0.677570	-0.000097
C41	C	0.932232	0.677585	0.203085
C42	C	0.932232	0.677588	0.272044
C43	C	0.932183	0.880798	-0.000128
C44	C	0.932166	0.949770	-0.000137
C45	C	0.383879	0.677585	-0.000104
C46	C	0.480583	0.677580	-0.000102
C47	C	1.211887	0.677581	-0.000104
C48	C	1.306800	0.677583	-0.000105
C49	C	0.932281	0.474355	-0.000074
C50	C	0.932298	0.405383	-0.000065
C51	C	0.877564	0.982165	0.039543
C52	C	0.877586	1.046946	0.039557
C53	C	0.932205	1.079335	-0.000114
C54	C	0.986814	1.046933	-0.039796
C55	C	0.986797	0.982149	-0.039805
C56	C	0.986885	1.308200	-0.039760
C57	C	0.986895	1.372991	-0.039750
C58	C	0.877674	1.372997	0.039602
C59	C	0.877657	1.308213	0.039593
C60	C	0.932270	1.275814	-0.000085
C61	C	0.932246	1.205569	-0.000098
C62	C	0.932223	1.149582	-0.000106
C63	C	0.932232	0.677568	-0.203287
C64	C	0.932233	0.677565	-0.272246
C65	C	0.877606	0.756951	0.264758
C66	C	0.877601	0.756948	0.329555
C67	C	0.932229	0.677582	0.401638
C68	C	0.986856	0.598213	0.408924
C69	C	0.986854	0.598217	0.344127
C70	C	0.986865	0.598198	0.670242
C71	C	0.986865	0.598201	0.735040
C72	C	0.877612	0.756930	0.655670
C73	C	0.877610	0.756933	0.590873
C74	C	0.932232	0.677565	0.598164
C75	C	0.932235	0.677568	0.527903
C76	C	0.932233	0.677578	0.471899
C77	C	1.211937	0.474359	-0.000077
C78	C	1.306866	0.405389	-0.000069
C79	C	0.932281	0.474363	0.203112
C80	C	0.932298	0.405395	0.272081
C81	C	1.211936	0.474368	0.203109
C82	C	1.306866	0.405401	0.272077
C83	C	0.652528	0.880784	-0.203311
C84	C	0.557599	0.949751	-0.272278
C85	C	0.652527	0.880793	-0.000125
C86	C	0.557598	0.949763	-0.000133
C87	C	0.932183	0.880789	-0.203314
C88	C	0.932167	0.949758	-0.272283
C89	C	1.296838	0.372998	-0.039747
C90	C	1.386025	0.308202	-0.039755
C91	C	1.485240	0.275795	-0.000079
C92	C	1.495267	0.308193	0.039601
C93	C	1.406080	0.372992	0.039603
C94	C	0.986914	0.373009	0.344151
C95	C	0.986925	0.308215	0.408961
C96	C	0.932327	0.275803	0.401698
C97	C	0.877704	0.308195	0.329620
C98	C	0.877687	0.372992	0.264812
C99	C	1.406063	0.373013	0.264788
C100	C	1.495267	0.308220	0.329584
C101	C	1.485272	0.275812	0.401668
C102	C	1.386064	0.308207	0.408955
C103	C	1.296862	0.373003	0.344160
C104	C	0.458401	0.982148	-0.264990
C105	C	0.369197	1.046961	-0.329786
C106	C	0.379192	1.079372	-0.401870
C107	C	0.478400	1.046973	-0.409157
C108	C	0.567602	0.982165	-0.344362
C109	C	0.567627	0.982162	0.039539
C110	C	0.478439	1.046975	0.039528
C111	C	0.379224	1.079385	-0.000150
C112	C	0.369198	1.046983	-0.039826
C113	C	0.458384	0.982175	-0.039820
C114	C	0.986776	0.982149	-0.264995
C115	C	0.986781	1.046944	-0.329793
C116	C	0.932169	1.079351	-0.401876
C117	C	0.877558	1.046953	-0.409162
C118	C	0.877560	0.982155	-0.344365
H119	H	0.833130	1.073315	0.071874
H120	H	0.932349	0.223041	0.454475
C121	C	1.046984	1.408615	-0.083385
H122	H	1.039161	1.451845	-0.077701
H123	H	1.118835	1.362086	-0.063785
H124	H	1.020005	1.433910	-0.135594
H125	H	1.216060	0.399383	-0.072065
H126	H	1.576059	0.281798	0.071903
H127	H	1.031250	1.073315	-0.323846
C128	C	0.817521	0.844237	0.647648
H129	H	0.784999	0.891504	0.595437
H130	H	0.765840	0.847544	0.671271
H131	H	0.864668	0.847531	0.671276
C132	C	0.489381	1.082624	-0.488452
H133	H	0.422043	1.125851	-0.525992
H134	H	0.526429	1.107908	-0.494154
H135	H	0.526431	1.036099	-0.494134
H136	H	0.833176	1.281849	0.071895
C137	C	0.817664	0.272526	0.321641
H138	H	0.825515	0.229290	0.370564
H139	H	0.745804	0.319033	0.294714
H140	H	0.844656	0.247229	0.294732
C141	C	0.676754	0.946523	0.083184
H142	H	0.728444	0.903279	0.077516
H143	H	0.684563	0.993047	0.063579
H144	H	0.684581	0.921244	0.135389
C145	C	1.046978	0.510897	0.678268
H146	H	1.079527	0.463631	0.730478
H147	H	0.999863	0.507578	0.654644
H148	H	1.098657	0.507614	0.654640
H149	H	1.377841	0.281832	-0.072066
H150	H	1.414260	0.399357	0.071919
C151	C	0.676716	0.946502	-0.352385
H152	H	0.728419	0.903259	-0.303475
H153	H	0.684497	0.921233	-0.379309
H154	H	0.684553	0.993014	-0.379315
H155	H	1.216094	0.399365	0.350105
H156	H	1.031261	0.955772	-0.072116
H157	H	0.450204	0.955798	-0.072123
C158	C	0.260080	1.082586	-0.321760
H159	H	0.208378	1.125833	-0.370670
H160	H	0.252274	1.036060	-0.294836
H161	H	0.252266	1.107859	-0.294831
C162	C	0.281125	1.150668	-0.000150
H163	H	0.220595	1.165338	-0.029465
H164	H	0.281137	1.129424	0.050405
H165	H	0.281119	1.201229	-0.021403
H166	H	1.031375	0.399391	0.350079
C167	C	0.447386	0.946516	-0.185705
H168	H	0.375526	0.975109	-0.190656
H169	H	0.479910	0.885336	-0.158765
H170	H	0.479908	0.957146	-0.158788
H171	H	1.557853	0.223031	-0.000087
H172	H	1.031247	0.955774	-0.206307
H173	H	1.031409	0.281849	0.467644
H174	H	0.932176	1.132114	-0.454631
H175	H	0.833095	1.073349	-0.467861
C176	C	0.489487	1.082596	0.083183
H177	H	0.561350	1.053997	0.106823
H178	H	0.456970	1.143775	0.048937
H179	H	0.456969	1.071972	0.120733
C180	C	0.260061	1.082631	-0.083463
H181	H	0.266851	1.054061	-0.107096
H182	H	0.223016	1.072010	-0.049206
H183	H	0.222990	1.143816	-0.121019
H184	H	0.306549	1.132142	-0.454624
C185	C	1.417073	0.408655	0.185502
H186	H	1.349746	0.451881	0.147948
H187	H	1.454116	0.433941	0.179816
H188	H	1.454143	0.362128	0.179825
C189	C	0.817508	0.946525	0.083201
H190	H	0.785008	0.975087	0.106847
H191	H	0.765811	0.957150	0.048963
H192	H	0.864672	0.885338	0.120749
C193	C	0.817604	1.408635	0.083251
H194	H	0.825441	1.451852	0.077582
H195	H	0.745749	1.433932	0.063647
H196	H	0.844577	1.362105	0.135457
H197	H	1.031350	1.281827	-0.072069
H198	H	1.031292	1.073304	-0.072094
H199	H	1.576039	0.281851	0.323637
H200	H	0.833126	0.821580	0.206067
H201	H	1.031330	0.533592	0.467620
C202	C	1.583401	0.204531	0.472936
H203	H	1.643907	0.189881	0.458265
H204	H	1.583416	0.225764	0.502252
H205	H	1.583427	0.153961	0.502253
H206	H	1.377942	0.281811	0.467655
H207	H	0.833086	0.955789	-0.350309
H208	H	0.833121	0.821574	0.323615
C209	C	0.817516	0.844236	0.511585
H210	H	0.784972	0.891502	0.516525
H211	H	0.864645	0.847540	0.484655
H212	H	0.765833	0.847530	0.484663
C213	C	1.046941	0.510920	0.352138
H214	H	1.039107	0.522288	0.303225
H215	H	1.118794	0.478306	0.379063
H216	H	1.019970	0.478313	0.379061
C217	C	1.046949	0.510894	0.814333
H218	H	1.079471	0.463625	0.809395
H219	H	1.098629	0.507589	0.841263
H220	H	0.999800	0.507604	0.841253
H221	H	0.833215	0.399352	0.206131
