data_functionalizedCrystal
_audit_creation_method	'MofGen! by Chris Wilmer'
_symmetry_space_group_name_H-M	'P1'
_symmetry_Int_Tables_number	1
_symmetry_cell_setting	triclinic
loop_
_symmetry_equiv_pos_as_xyz
  x,y,z
_cell_length_a	15.297475
_cell_length_b	16.120484
_cell_length_c	15.297908
_cell_angle_alpha	102.994106
_cell_angle_beta	72.640407
_cell_angle_gamma	83.687474
loop_
_atom_site_label
_atom_site_type_symbol
_atom_site_fract_x
_atom_site_fract_y
_atom_site_fract_z
Zn1	Zn	1.479999	-0.697536	-0.803988
Zn2	Zn	1.979999	-0.197536	-0.303988
Zn3	Zn	1.447826	-0.807759	-0.653616
Zn4	Zn	1.947826	-0.307759	-0.153616
Zn5	Zn	1.300320	-0.639188	-0.618910
Zn6	Zn	1.800320	-0.139188	-0.118910
Zn7	Zn	1.319279	-0.807685	-0.782212
Zn8	Zn	1.819279	-0.307685	-0.282212
O9	O	1.386856	-0.738042	-0.714682
O10	O	1.886856	-0.238042	-0.214682
O11	O	1.604725	-0.736608	-0.807679
O12	O	2.104725	-0.236608	-0.307679
O13	O	1.406860	-0.761010	-0.517739
O14	O	1.906860	-0.261010	-0.017739
O15	O	1.329685	-0.530282	-0.638050
O16	O	1.829685	-0.030282	-0.138050
O17	O	1.581087	-0.817588	-0.697201
O18	O	2.081087	-0.317588	-0.197201
O19	O	1.461695	-0.573151	-0.774026
O20	O	1.961695	-0.073151	-0.274026
O21	O	1.298488	-0.637161	-0.492240
O22	O	1.798488	-0.137161	0.007760
O23	O	1.173841	-0.637089	-0.616935
O24	O	1.673841	-0.137089	-0.116935
O25	O	1.361998	-0.817462	-0.916375
O26	O	1.861998	-0.317462	-0.416375
O27	O	1.187771	-0.760883	-0.736912
O28	O	1.687771	-0.260883	-0.236912
O29	O	1.480079	-0.736536	-0.932373
O30	O	1.980079	-0.236536	-0.432373
O31	O	1.425244	-0.924395	-0.676086
O32	O	1.925244	-0.424395	-0.176086
O33	O	1.330801	-0.924340	-0.770565
O34	O	1.830801	-0.424340	-0.270565
C35	C	1.147359	-0.692647	-0.670795
C36	C	1.647359	-0.192647	-0.170795
C37	C	1.044904	-0.673251	-0.652043
C38	C	1.544904	-0.173251	-0.152043
C39	C	1.376617	-0.954621	-0.724754
C40	C	1.876617	-0.454621	-0.224754
C41	C	1.372326	-1.047296	-0.729109
C42	C	1.872326	-0.547296	-0.229109
C43	C	0.785135	-0.876674	-0.848706
C44	C	1.285135	-0.376674	-0.348706
C45	C	0.881396	-0.894903	-0.866322
C46	C	1.381396	-0.394903	-0.366322
C47	C	0.922278	-0.839492	-0.812754
C48	C	1.422278	-0.339492	-0.312754
C49	C	0.866889	-0.765848	-0.741567
C50	C	1.366889	-0.265848	-0.241567
C51	C	0.770618	-0.747621	-0.723944
C52	C	1.270618	-0.247621	-0.223944
C53	C	0.907761	-0.710439	-0.687992
C54	C	1.407761	-0.210439	-0.187992
C55	C	0.852372	-0.636795	-0.616805
C56	C	1.352372	-0.136795	-0.116805
C57	C	0.756111	-0.618571	-0.599186
C58	C	1.256111	-0.118571	-0.099186
C59	C	0.715229	-0.673982	-0.652754
C60	C	1.215229	-0.173982	-0.152754
C61	C	1.004032	-0.728666	-0.705615
C62	C	1.504032	-0.228666	-0.205615
C63	C	0.989515	-0.599613	-0.580853
C64	C	1.489515	-0.099613	-0.080853
C65	C	0.893254	-0.581384	-0.563237
C66	C	1.393254	-0.081384	-0.063237
C67	C	1.364500	-1.216979	-0.737082
C68	C	1.864500	-0.716979	-0.237082
C69	C	1.409380	-1.258299	-0.692327
C70	C	1.909380	-0.758299	-0.192327
C71	C	1.405026	-1.352716	-0.696763
C72	C	1.905026	-0.852716	-0.196763
C73	C	1.368853	-1.122553	-0.732647
C74	C	1.868853	-0.622553	-0.232647
C75	C	1.627288	-0.783615	-0.758741
C76	C	2.127288	-0.283615	-0.258741
C77	C	1.729746	-0.803035	-0.777516
C78	C	2.229746	-0.303035	-0.277516
C79	C	1.426742	-0.783499	-0.959363
C80	C	1.926742	-0.283499	-0.459363
C81	C	1.443739	-0.802871	-1.063632
C82	C	1.943739	-0.302871	-0.563632
C83	C	1.397164	-0.520626	-0.704596
C84	C	1.897164	-0.020626	-0.204596
C85	C	1.401556	-0.427976	-0.700298
C86	C	1.901556	0.072024	-0.200298
C87	C	1.265966	-0.599553	-1.304456
C88	C	1.765966	-0.099553	-0.804456
C89	C	1.249998	-0.581345	-1.206490
C90	C	1.749998	-0.081345	-0.706490
C91	C	1.298431	-0.636725	-1.170770
C92	C	1.798431	-0.136725	-0.670770
C93	C	1.362836	-0.710316	-1.233027
C94	C	1.862836	-0.210316	-0.733027
C95	C	1.378811	-0.728522	-1.331003
C96	C	1.878811	-0.228522	-0.831003
C97	C	1.411277	-0.765694	-1.197318
C98	C	1.911277	-0.265694	-0.697318
C99	C	1.475681	-0.839285	-1.259574
C100	C	1.975681	-0.339285	-0.759574
C101	C	1.491652	-0.857488	-1.357540
C102	C	1.991652	-0.357488	-0.857540
C103	C	1.443219	-0.802108	-1.393260
C104	C	1.943219	-0.302108	-0.893260
C105	C	1.395302	-0.747488	-1.099342
C106	C	1.895302	-0.247488	-0.599342
C107	C	1.508147	-0.876457	-1.125889
C108	C	2.008147	-0.376457	-0.625889
C109	C	1.524115	-0.894665	-1.223855
C110	C	2.024115	-0.394665	-0.723855
C111	C	1.347181	-0.692712	-0.470959
C112	C	1.847181	-0.192712	0.029041
C113	C	1.330374	-0.673139	-0.366712
C114	C	1.830374	-0.173139	0.133288
H115	H	1.049121	-0.788627	-0.763577
H116	H	1.549121	-0.288627	-0.263577
Br117	Br	1.478870	-1.199074	-0.622910
Br118	Br	1.978870	-0.699074	-0.122910
Br119	Br	0.680940	-0.518633	-0.502565
Br120	Br	1.180940	-0.018633	-0.002565
Br121	Br	0.818075	-0.481440	-0.466631
Br122	Br	1.318075	0.018560	0.033369
H123	H	1.322809	-1.252512	-0.778724
H124	H	1.822809	-0.752512	-0.278724
H125	H	1.342864	-0.687568	-1.048662
H126	H	1.842864	-0.187568	-0.548662
Br127	Br	0.584585	-0.649239	-0.628857
Br128	Br	1.084585	-0.149239	-0.128857
Br129	Br	1.573888	-0.951616	-1.077422
Br130	Br	2.073888	-0.451616	-0.577422
H131	H	1.285426	-0.621896	-1.091002
H132	H	1.785426	-0.121896	-0.591002
Br133	Br	1.200253	-0.524397	-1.352938
Br134	Br	1.700253	-0.024397	-0.852938
H135	H	1.197559	-0.521428	-1.155807
H136	H	1.697559	-0.021428	-0.655807
Br137	Br	1.464870	-0.826829	-1.526216
Br138	Br	1.964870	-0.326829	-1.026216
Br139	Br	1.052920	-0.864231	-0.836664
Br140	Br	1.552920	-0.364231	-0.336664
H141	H	1.576555	-0.954582	-1.274557
H142	H	2.076555	-0.454582	-0.774557
Br143	Br	0.956558	-0.994846	-0.962925
Br144	Br	1.456558	-0.494846	-0.462925
Br145	Br	0.729643	-0.951883	-0.921373
Br146	Br	1.229643	-0.451883	-0.421373
H147	H	1.544102	-0.917406	-1.408229
H148	H	2.044102	-0.417406	-0.908229
H149	H	1.022800	-0.554493	-0.537232
H150	H	1.522800	-0.054493	-0.037232
