data_functionalizedCrystal
_audit_creation_method	'MofGen! by Chris Wilmer'
_symmetry_space_group_name_H-M	'P1'
_symmetry_Int_Tables_number	1
_symmetry_cell_setting	triclinic
loop_
_symmetry_equiv_pos_as_xyz
  x,y,z
_cell_length_a	11.026607
_cell_length_b	9.016244
_cell_length_c	11.026660
_cell_angle_alpha	89.998325
_cell_angle_beta	108.585426
_cell_angle_gamma	90.007145
loop_
_atom_site_label
_atom_site_type_symbol
_atom_site_fract_x
_atom_site_fract_y
_atom_site_fract_z
O1	O	1.726732	0.123324	0.533615
O2	O	1.360153	0.123328	0.472852
O3	O	1.513063	0.123325	0.319945
O4	O	1.573822	0.123327	0.686522
O5	O	1.513035	-0.123355	0.319943
O6	O	1.360125	-0.123353	0.472850
O7	O	1.726705	-0.123356	0.533613
Cu8	Cu	1.543412	-0.145878	0.503232
Cu9	Cu	1.543445	0.145850	0.503234
O10	O	1.573795	-0.123353	0.686520
C11	C	1.312480	-0.000012	0.461642
C12	C	1.170466	-0.000010	0.428225
N13	N	1.543399	-0.351065	0.503232
C14	C	1.116816	-0.000008	0.520494
C15	C	0.970037	-0.000007	0.485958
C16	C	1.461211	-0.586096	0.584613
C17	C	1.461522	-0.414204	0.585047
C18	C	1.682710	-0.413404	0.561321
C19	C	1.682297	-0.585349	0.561933
C20	C	1.487524	-0.585608	0.363700
C21	C	1.484654	-0.413654	0.363926
C22	C	1.774378	-0.000013	0.544824
C23	C	1.916392	-0.000005	0.578241
C24	C	1.501840	-0.000012	0.272285
C25	C	1.468424	-0.000003	0.130272
N26	N	1.543467	0.351036	0.503226
C27	C	1.526166	-0.000009	-0.070154
C28	C	1.560705	-0.000006	0.076624
C29	C	1.585018	-0.000013	0.734180
C30	C	1.618433	-0.000012	0.876193
H31	H	1.179548	-0.000016	0.625056
H32	H	0.979118	-0.000015	0.682810
N33	N	0.886962	-0.000025	0.347442
H34	H	0.793885	-0.000028	0.342405
H35	H	0.905782	0.091420	0.303635
N36	N	1.699223	-0.000019	0.159695
H37	H	1.743120	0.091422	0.140989
H38	H	1.704154	-0.000075	0.252740
H39	H	1.746581	-0.372501	0.504836
N40	N	1.329907	-0.000031	0.047198
H41	H	1.273080	-0.000035	0.103171
H42	H	1.312031	0.091411	-0.008614
H43	H	1.107734	0.000028	0.323663
H44	H	1.421603	-0.000001	-0.132884
N45	N	1.325599	-0.358363	0.533533
H46	H	1.264940	-0.445445	0.510339
H47	H	1.305444	-0.296307	0.600927
H48	H	1.722996	0.000042	-0.061077
H49	H	1.386577	-0.629055	0.315051
H50	H	1.727885	-0.370326	0.662977
H51	H	1.358344	-0.627488	0.545932
N52	N	1.348679	-0.359793	0.306453
H53	H	1.325220	-0.295104	0.370370
H54	H	1.340901	-0.300566	0.226581
H55	H	1.499600	-0.629288	0.686938
N56	N	1.512515	-0.359682	0.721413
H57	H	1.534921	-0.447346	0.781474
H58	H	1.591523	-0.297538	0.732454
N59	N	1.555895	-0.356756	0.276959
H60	H	1.627580	-0.289300	0.326853
H61	H	1.592588	-0.443265	0.242015
N62	N	1.741707	-0.638480	0.697887
H63	H	1.832477	-0.600707	0.732667
H64	H	1.690326	-0.599832	0.752351
N65	N	1.767744	-0.640448	0.488353
H66	H	1.805522	-0.553036	0.455675
H67	H	1.838926	-0.702539	0.546518
N68	N	1.566521	-0.639451	0.283012
H69	H	1.638193	-0.704562	0.336506
H70	H	1.510442	-0.698243	0.208102
