data_functionalizedCrystal
_audit_creation_method	'MofGen! by Chris Wilmer'
_symmetry_space_group_name_H-M	'P1'
_symmetry_Int_Tables_number	1
_symmetry_cell_setting	triclinic
loop_
_symmetry_equiv_pos_as_xyz
  x,y,z
_cell_length_a	12.759401
_cell_length_b	21.295417
_cell_length_c	12.759393
_cell_angle_alpha	89.960626
_cell_angle_beta	89.982620
_cell_angle_gamma	90.030668
loop_
_atom_site_label
_atom_site_type_symbol
_atom_site_fract_x
_atom_site_fract_y
_atom_site_fract_z
Zn1	Zn	1.606128	-0.250568	-0.593926
Zn2	Zn	1.605978	-0.355853	-0.418223
Zn3	Zn	1.430434	-0.250601	-0.418265
Zn4	Zn	1.430371	-0.355804	-0.593864
O5	O	1.518228	-0.303206	-0.506069
O6	O	1.753129	-0.264541	-0.570626
O7	O	1.582655	-0.341925	-0.271207
O8	O	1.453830	-0.162508	-0.441611
O9	O	1.753019	-0.341893	-0.441538
O10	O	1.582912	-0.162483	-0.570668
O11	O	1.453683	-0.264598	-0.271238
O12	O	1.283404	-0.264550	-0.441551
O13	O	1.453722	-0.341810	-0.740893
O14	O	1.283358	-0.341842	-0.570562
O15	O	1.582850	-0.264493	-0.740939
O16	O	1.582593	-0.443935	-0.441478
O17	O	1.453576	-0.443900	-0.570521
C18	C	1.245260	-0.303195	-0.506055
C19	C	1.128484	-0.303205	-0.506074
C20	C	1.073625	-0.343515	-0.573139
C21	C	0.963901	-0.343523	-0.573151
C22	C	0.963904	-0.262909	-0.439022
C23	C	1.073626	-0.262898	-0.439017
C24	C	1.128483	-0.383822	-0.640196
C25	C	1.073624	-0.424136	-0.707266
C26	C	0.963900	-0.424144	-0.707277
C27	C	0.909034	-0.383838	-0.640219
C28	C	1.518090	-0.466758	-0.506011
C29	C	1.518127	-0.536726	-0.506021
C30	C	1.585366	-0.569591	-0.438898
C31	C	1.585416	-0.635333	-0.438921
C32	C	1.518207	-0.668209	-0.506058
C33	C	1.450963	-0.635336	-0.573195
C34	C	1.450923	-0.569595	-0.573177
N35	N	1.426299	-0.771474	-0.514062
N36	N	1.426340	-0.833925	-0.514073
C37	C	1.518324	-0.866283	-0.506118
N38	N	1.610268	-0.833831	-0.498130
N39	N	1.610226	-0.771373	-0.498114
C40	C	1.518243	-0.739494	-0.506085
C41	C	1.585623	-0.970433	-0.439016
C42	C	1.585674	-1.036177	-0.439047
C43	C	1.451212	-1.036179	-0.573315
C44	C	1.451170	-0.970437	-0.573289
C45	C	1.518374	-0.937568	-0.506134
C46	C	1.792261	-0.303219	-0.506084
C47	C	1.909037	-0.303224	-0.506091
C48	C	1.518296	-0.303142	-0.780103
C49	C	1.518325	-0.303115	-0.896880
C50	C	1.518395	-0.139016	-0.506151
C51	C	1.518466	-0.069048	-0.506185
C52	C	1.451198	-0.262843	-0.951764
C53	C	1.451230	-0.262824	-1.061488
C54	C	1.585524	-0.343351	-1.061434
C55	C	1.585487	-0.343373	-0.951712
C56	C	1.384036	-0.222586	-0.896932
C57	C	1.316905	-0.182310	-0.951816
C58	C	1.316937	-0.182291	-1.061541
C59	C	1.384100	-0.222548	-1.116380
C60	C	1.518220	-0.303225	-0.233102
C61	C	1.518395	-0.303075	-0.116326
H62	H	0.919224	-0.230094	-0.384426
H63	H	1.640174	-0.662097	-0.384261
H64	H	1.262217	-0.149538	-0.907159
O65	O	1.385891	-1.068009	-0.638632
C66	C	1.326508	-1.024900	-0.697851
H67	H	1.369509	-0.978012	-0.701511
H68	H	1.315266	-1.043857	-0.780625
H69	H	1.246733	-1.017972	-0.659305
H70	H	1.262268	-0.149501	-1.106225
H71	H	0.919236	-0.456965	-0.761896
H72	H	1.396243	-0.662108	-0.627859
O73	O	1.384029	-0.222433	-1.222967
C74	C	1.310354	-0.178270	-1.259654
H75	H	1.295659	-0.141501	-1.196449
H76	H	1.342104	-0.154372	-1.333076
H77	H	1.233727	-0.203223	-1.279106
O78	O	1.126799	-0.463372	-0.772355
C79	C	1.099954	-0.526098	-0.749185
H80	H	1.020273	-0.527380	-0.708800
H81	H	1.096210	-0.554378	-0.824923
H82	H	1.161672	-0.547258	-0.695100
H83	H	1.640208	-0.376125	-1.106093
O84	O	1.126760	-0.223728	-0.373762
C85	C	1.054816	-0.188150	-0.314585
H86	H	0.976581	-0.213934	-0.310876
H87	H	1.086494	-0.181380	-0.231826
H88	H	1.043197	-0.140366	-0.353199
H89	H	1.217825	-0.383821	-0.640192
H90	H	1.640090	-0.542831	-0.384219
O91	O	1.385651	-0.537736	-0.638526
C92	C	1.408582	-0.553719	-0.743265
H93	H	1.448999	-0.601428	-0.745495
H94	H	1.332734	-0.555983	-0.790311
H95	H	1.462555	-0.516669	-0.778683
O96	O	0.802448	-0.383924	-0.640362
C97	C	0.765789	-0.428122	-0.713976
H98	H	0.828978	-0.464923	-0.728542
H99	H	0.692323	-0.451973	-0.682239
H100	H	0.746421	-0.403212	-0.790672
O101	O	1.651004	-0.938597	-0.373756
C102	C	1.710352	-0.981706	-0.314501
H103	H	1.714001	-1.028542	-0.357555
H104	H	1.793121	-0.962669	-0.303354
H105	H	1.671924	-0.988764	-0.234679
O106	O	1.651192	-1.068103	-0.374038
C107	C	1.719025	-1.106032	-0.433994
H108	H	1.725329	-1.086172	-0.516749
H109	H	1.799944	-1.106699	-0.396154
H110	H	1.686657	-1.155893	-0.437559
H111	H	1.396413	-0.943677	-0.627944
H112	H	1.640161	-0.376157	-0.907024
H113	H	1.384005	-0.222595	-0.807589
