data_functionalizedCrystal
_audit_creation_method	'MofGen! by Chris Wilmer'
_symmetry_space_group_name_H-M	'P1'
_symmetry_Int_Tables_number	1
_symmetry_cell_setting	triclinic
loop_
_symmetry_equiv_pos_as_xyz
  x,y,z
_cell_length_a	12.759401
_cell_length_b	29.839125
_cell_length_c	12.759399
_cell_angle_alpha	89.988205
_cell_angle_beta	90.016641
_cell_angle_gamma	89.989553
loop_
_atom_site_label
_atom_site_type_symbol
_atom_site_fract_x
_atom_site_fract_y
_atom_site_fract_z
Zn1	Zn	1.606155	-0.254005	-0.418371
Zn2	Zn	1.606077	-0.178883	-0.594028
Zn3	Zn	1.430485	-0.178890	-0.418368
Zn4	Zn	1.430444	-0.253987	-0.594013
O5	O	1.518290	-0.216441	-0.506195
O6	O	1.753165	-0.244045	-0.441679
O7	O	1.582769	-0.116017	-0.570731
O8	O	1.453838	-0.188865	-0.271347
O9	O	1.753108	-0.188853	-0.570734
O10	O	1.582902	-0.244052	-0.271349
O11	O	1.453763	-0.116022	-0.441675
O12	O	1.283459	-0.188847	-0.441661
O13	O	1.453767	-0.316856	-0.570709
O14	O	1.283428	-0.244020	-0.570706
O15	O	1.582861	-0.316870	-0.441665
O16	O	1.582728	-0.188835	-0.741047
O17	O	1.453692	-0.244013	-0.741036
C18	C	1.245323	-0.216432	-0.506182
C19	C	1.128546	-0.216439	-0.506202
C20	C	1.518318	-0.333620	-0.506186
C21	C	1.518331	-0.383554	-0.506182
C22	C	1.073696	-0.245123	-0.573498
C23	C	0.963972	-0.245131	-0.573502
C24	C	0.963958	-0.187770	-0.438911
C25	C	1.073680	-0.187763	-0.438902
C26	C	0.814053	-0.298095	-0.611242
C27	C	0.759199	-0.326774	-0.678555
C28	C	0.794793	-0.333593	-0.781091
C29	C	0.885239	-0.311726	-0.816335
C30	C	0.940088	-0.283044	-0.749028
C31	C	0.904495	-0.276233	-0.646477
C32	C	1.223601	-0.134799	-0.401173
C33	C	1.278451	-0.106114	-0.333871
C34	C	1.242859	-0.099290	-0.231333
C35	C	1.152410	-0.121149	-0.196092
C36	C	1.097559	-0.149835	-0.263395
C37	C	1.133159	-0.156659	-0.365932
C38	C	1.585620	-0.693208	-0.438813
C39	C	1.585673	-0.880881	-0.438723
O40	O	1.642807	-0.905154	-0.381543
N41	N	1.518470	-0.904339	-0.505900
C42	C	1.451244	-0.880877	-0.573100
O43	O	1.394078	-0.905136	-0.630228
C44	C	1.451188	-0.693204	-0.573183
C45	C	1.518402	-0.669748	-0.506009
C46	C	1.652829	-0.669752	-0.371643
C47	C	1.652819	-0.622836	-0.371670
C48	C	1.585601	-0.599377	-0.438867
C49	C	1.518393	-0.622833	-0.506036
C50	C	1.383958	-0.669743	-0.640376
C51	C	1.383948	-0.622821	-0.640390
C52	C	1.451163	-0.599365	-0.573215
C53	C	1.451165	-0.552458	-0.573260
N54	N	1.518368	-0.529000	-0.506083
C55	C	1.585586	-0.552459	-0.438886
C56	C	1.451280	-0.979407	-0.573052
C57	C	1.451296	-1.026325	-0.573033
C58	C	1.585723	-1.026326	-0.438655
C59	C	1.585712	-0.979407	-0.438680
C60	C	1.518483	-0.955949	-0.505875
C61	C	1.585561	-0.453933	-0.438949
C62	C	1.585549	-0.407013	-0.438985
C63	C	1.451118	-0.407017	-0.573359
C64	C	1.451134	-0.453932	-0.573327
C65	C	1.518359	-0.477389	-0.506114
O66	O	1.394053	-0.528156	-0.630402
O67	O	1.642727	-0.528192	-0.381750
C68	C	1.585630	-0.740123	-0.438785
C69	C	1.518422	-0.763579	-0.505955
C70	C	1.451204	-0.740120	-0.573151
C71	C	1.518437	-0.810497	-0.505936
C72	C	1.585655	-0.833957	-0.438739
C73	C	1.652858	-0.810498	-0.371562
C74	C	1.652848	-0.763583	-0.371589
C75	C	1.384001	-0.763578	-0.640328
C76	C	1.384017	-0.810494	-0.640297
C77	C	1.451235	-0.833953	-0.573100
C78	C	1.792323	-0.216450	-0.506209
C79	C	1.909100	-0.216454	-0.506214
C80	C	1.518226	-0.216431	-0.779162
C81	C	1.518294	-0.216442	-0.895939
C82	C	1.518322	-0.099719	-0.506129
C83	C	1.518514	-0.049785	-0.505837
C84	C	1.585560	-0.187743	-0.950772
C85	C	1.585628	-0.187758	-1.060496
C86	C	1.451154	-0.245172	-1.060545
C87	C	1.451093	-0.245159	-0.950823
C88	C	1.709643	-0.171771	-1.210359
C89	C	1.776900	-0.143065	-1.265195
C90	C	1.793081	-0.099231	-1.229620
C91	C	1.741991	-0.084094	-1.139211
C92	C	1.674726	-0.112797	-1.084380
C93	C	1.658565	-0.156638	-1.119953
C94	C	1.327076	-0.261141	-0.800958
C95	C	1.259805	-0.289842	-0.746125
C96	C	1.243613	-0.333677	-0.781698
C97	C	1.294685	-0.348813	-0.872110
C98	C	1.361956	-0.320111	-0.926943
C99	C	1.378150	-0.276277	-0.891363
C100	C	1.518383	-0.216461	-0.232162
C101	C	1.518423	-0.216470	-0.115385
H102	H	1.118364	-0.268473	-0.628295
H103	H	1.329224	-0.688832	-0.695077
Br104	Br	1.360092	-1.058153	-0.664221
H105	H	1.023915	-0.167637	-0.234690
H106	H	1.329264	-0.744482	-0.695050
Br107	Br	1.744073	-0.731757	-0.280420
Br108	Br	1.317288	-0.060351	-0.140000
Br109	Br	1.605383	-0.092258	-0.961695
H110	H	0.914206	-0.317277	-0.899835
Br111	Br	1.676779	-0.375183	-0.347818
Br112	Br	1.676762	-0.148771	-0.876290
Br113	Br	1.292700	-0.590988	-0.731584
H114	H	1.818498	-0.155394	-1.338807
H115	H	1.755163	-0.048398	-1.110259
Br116	Br	1.104091	-0.111885	-0.056934
Br117	Br	1.676934	-0.947579	-0.347513
H118	H	0.750123	-0.356945	-0.835897
H119	H	1.847845	-0.075859	-1.274276
Br120	Br	1.359922	-0.485766	-0.664500
H121	H	1.696485	-0.207465	-1.239326
H122	H	1.340263	-0.225448	-0.771980
H123	H	1.396440	-0.268551	-1.105244
Br124	Br	1.152244	-0.372617	-0.707331
Br125	Br	1.292797	-0.842321	-0.731480
Br126	Br	0.765754	-0.288851	-0.472071
Br127	Br	1.401193	-0.076439	-0.381706
Br128	Br	1.431269	-0.340652	-1.049650
Br129	Br	1.676788	-0.485760	-0.347723
H130	H	1.013727	-0.265240	-0.777724
H131	H	1.218226	-0.277516	-0.672501
Br132	Br	0.636456	-0.356451	-0.630724
Br133	Br	1.271805	-0.143997	-0.540398
H134	H	1.281501	-0.384507	-0.901074
H135	H	1.707550	-0.603742	-0.316968
Br136	Br	1.676947	-1.058173	-0.347460
H137	H	1.396535	-0.960312	-0.627778
H138	H	0.919273	-0.164422	-0.384120
Br139	Br	1.359897	-0.375170	-0.664548
H140	H	1.707592	-0.829607	-0.316851
H141	H	1.707566	-0.688847	-0.316918
