data_functionalizedCrystal
_audit_creation_method	'MofGen! by Chris Wilmer'
_symmetry_space_group_name_H-M	'P1'
_symmetry_Int_Tables_number	1
_symmetry_cell_setting	triclinic
loop_
_symmetry_equiv_pos_as_xyz
  x,y,z
_cell_length_a	16.109302
_cell_length_b	16.109301
_cell_length_c	14.586319
_cell_angle_alpha	90.005770
_cell_angle_beta	90.006080
_cell_angle_gamma	83.461631
loop_
_atom_site_label
_atom_site_type_symbol
_atom_site_fract_x
_atom_site_fract_y
_atom_site_fract_z
O1	O	1.103131	0.106870	0.076284
O2	O	1.603131	0.606870	0.576284
O3	O	0.861069	0.120168	0.076278
O4	O	1.361069	0.620168	0.576278
O5	O	0.988750	-0.007512	0.076272
O6	O	1.488750	0.492488	0.576272
O7	O	0.975451	0.234550	0.076290
O8	O	1.475451	0.734550	0.576290
O9	O	0.988740	-0.007515	-0.076209
O10	O	1.488740	0.492485	0.423791
O11	O	0.861059	0.120165	-0.076203
O12	O	1.361059	0.620165	0.423797
O13	O	1.103121	0.106867	-0.076196
O14	O	1.603121	0.606867	0.423804
Cu15	Cu	0.982089	0.113516	-0.090122
Cu16	Cu	1.482089	0.613516	0.409878
Cu17	Cu	0.982101	0.113519	0.090204
Cu18	Cu	1.482101	0.613519	0.590204
O19	O	0.975440	0.234547	-0.076191
O20	O	1.475440	0.734547	0.423809
C21	C	0.830089	0.119628	0.000036
C22	C	1.330089	0.619628	0.500036
C23	C	0.737794	0.118013	0.000033
C24	C	1.237794	0.618013	0.500033
C25	C	0.525447	0.114276	-0.083075
C26	C	1.025447	0.614276	0.416925
C27	C	0.438727	0.112749	-0.083072
C28	C	0.938727	0.612749	0.416928
C29	C	0.438749	0.112757	0.083171
C30	C	0.938749	0.612757	0.583171
C31	C	0.525468	0.114277	0.083167
C32	C	1.025468	0.614277	0.583167
C33	C	0.568815	0.115041	0.000041
C34	C	1.068815	0.615041	0.500041
C35	C	0.395375	0.111994	0.000048
C36	C	0.895375	0.611994	0.500048
C37	C	0.301350	0.110338	0.000052
C38	C	0.801350	0.610338	0.500052
C39	C	0.662847	0.116695	0.000037
C40	C	1.162847	0.616695	0.500037
C41	C	0.988206	-0.038488	0.000031
C42	C	1.488206	0.461512	0.500031
C43	C	0.986591	-0.130784	0.000030
C44	C	1.486591	0.369216	0.500030
C45	C	1.058599	-0.353056	0.000046
C46	C	1.558599	0.146944	0.500046
C47	C	1.057074	-0.439776	0.000054
C48	C	1.557074	0.060224	0.500054
C49	C	0.905586	-0.419902	0.000046
C50	C	1.405586	0.080098	0.500046
C51	C	0.907111	-0.333184	0.000045
C52	C	1.407111	0.166816	0.500045
C53	C	0.983620	-0.299763	0.000040
C54	C	1.483620	0.200237	0.500040
C55	C	0.980571	-0.473202	0.000049
C56	C	1.480571	0.026798	0.500049
C57	C	0.978918	-0.567228	0.000057
C58	C	1.478918	-0.067228	0.500057
C59	C	0.985273	-0.205731	0.000034
C60	C	1.485273	0.294269	0.500034
C61	C	1.134101	0.107407	0.000047
C62	C	1.634101	0.607407	0.500047
C63	C	1.226396	0.109022	0.000056
C64	C	1.726396	0.609022	0.500056
C65	C	0.975984	0.265523	0.000052
C66	C	1.475984	0.765523	0.500052
C67	C	0.977599	0.357819	0.000060
C68	C	1.477599	0.857819	0.500060
N69	N	0.982087	0.113513	-0.216954
N70	N	1.482087	0.613513	0.283046
C71	C	1.038646	0.056994	-0.547951
C72	C	1.538646	0.556994	-0.047951
C73	C	1.038643	0.056995	-0.451969
C74	C	1.538643	0.556995	0.048031
C75	C	0.925548	0.170040	-0.451975
C76	C	1.425548	0.670040	0.048025
C77	C	0.925555	0.170043	-0.547954
C78	C	1.425555	0.670043	-0.047954
C79	C	0.982103	0.113515	-0.595940
C80	C	1.482103	0.613515	-0.095940
C81	C	0.982094	0.113513	-0.403979
C82	C	1.482094	0.613513	0.096021
C83	C	0.982091	0.113514	-0.299912
C84	C	1.482091	0.613514	0.200088
C85	C	0.982107	0.113515	-0.700014
C86	C	1.482107	0.613515	-0.200014
N87	N	0.982110	0.113516	0.217035
N88	N	1.482110	0.613516	0.717035
H89	H	0.560779	0.114898	0.150854
H90	H	1.060779	0.614898	0.650854
H91	H	1.084687	0.010971	-0.412899
H92	H	1.584687	0.510971	0.087101
O93	O	1.093462	0.002009	-0.594608
O94	O	1.593462	0.502009	-0.094608
C95	C	1.048957	-0.049281	-0.650160
C96	C	1.548957	0.450719	-0.150160
H97	H	0.983392	-0.050704	-0.621248
H98	H	1.483392	0.449296	-0.121248
H99	H	1.082895	-0.115355	-0.651253
H100	H	1.582895	0.384645	-0.151253
H101	H	1.044596	-0.023259	-0.722897
H102	H	1.544596	0.476741	-0.222897
H103	H	0.843295	-0.447124	0.000048
H104	H	1.343295	0.052876	0.500048
H105	H	0.846050	-0.289790	0.000043
H106	H	1.346050	0.210210	0.500043
H107	H	0.560738	0.114898	-0.150762
H108	H	1.060738	0.614898	0.349238
H109	H	0.879508	0.216062	-0.412896
H110	H	1.379508	0.716062	0.087104
H111	H	1.120897	-0.325848	0.000044
H112	H	1.620897	0.174152	0.500044
H113	H	0.879511	0.216073	-0.587030
H114	H	1.379511	0.716073	-0.087030
O115	O	1.129965	-0.491459	0.000179
O116	O	1.629965	0.008541	0.500179
C117	C	1.176411	-0.476315	0.079161
C118	C	1.676411	0.023685	0.579161
H119	H	1.155980	-0.410524	0.105485
H120	H	1.655980	0.089476	0.605485
H121	H	1.245753	-0.482438	0.061401
H122	H	1.745753	0.017562	0.561401
H123	H	1.165059	-0.523738	0.134462
H124	H	1.665059	-0.023738	0.634462
H125	H	0.403446	0.112136	0.150849
H126	H	0.903446	0.612136	0.650849
O127	O	0.396724	0.112048	-0.163893
O128	O	0.896724	0.612048	0.336107
C129	C	0.453585	0.113025	-0.237257
C130	C	0.953585	0.613025	0.262743
H131	H	0.511953	0.140418	-0.212889
H132	H	1.011953	0.640418	0.287111
H133	H	0.423231	0.152924	-0.295388
H134	H	0.923231	0.652924	0.204612
H135	H	0.471550	0.046526	-0.262820
H136	H	0.971550	0.546526	0.237180
