data_functionalizedCrystal
_audit_creation_method	'MofGen! by Chris Wilmer'
_symmetry_space_group_name_H-M	'P1'
_symmetry_Int_Tables_number	1
_symmetry_cell_setting	triclinic
loop_
_symmetry_equiv_pos_as_xyz
  x,y,z
_cell_length_a	15.698487
_cell_length_b	18.760492
_cell_length_c	18.760492
_cell_angle_alpha	89.998413
_cell_angle_beta	60.000133
_cell_angle_gamma	59.999370
loop_
_atom_site_label
_atom_site_type_symbol
_atom_site_fract_x
_atom_site_fract_y
_atom_site_fract_z
Zr1	Zr	0.932392	-0.093505	0.686689
O2	O	1.110104	-0.207321	0.572878
O3	O	0.754681	-0.058616	0.721578
O4	O	0.932392	-0.207320	0.721585
O5	O	0.932393	0.058686	0.572864
O6	O	0.932391	-0.207317	0.838889
O7	O	0.932393	-0.058617	0.572870
O8	O	0.614498	0.058687	0.838875
O9	O	1.250285	-0.207318	0.572877
O10	O	0.827775	-0.043732	0.824000
O11	O	0.827775	0.043808	0.736453
O12	O	1.037007	-0.131272	0.736462
O13	O	1.037008	-0.043733	0.648915
Zr14	Zr	0.932390	0.093585	0.873764
Zr15	Zr	0.932390	-0.093500	0.873774
Zr16	Zr	0.932392	0.093580	0.686679
Zr17	Zr	1.155965	-0.093501	0.686688
Zr18	Zr	0.708817	0.093581	0.873764
O19	O	1.110101	0.058697	0.838875
O20	O	1.110101	-0.207314	0.838888
O21	O	1.110103	0.058689	0.572864
O22	O	0.754678	0.207401	0.987575
O23	O	0.754678	-0.058609	0.987589
O24	O	0.754680	0.207394	0.721564
O25	O	0.932389	-0.058605	0.987589
O26	O	0.932390	0.207400	0.838867
O27	O	0.932391	0.207397	0.721564
O28	O	0.932389	0.058697	0.987583
O29	O	1.250284	-0.207314	0.721585
O30	O	0.614498	0.207394	0.838867
O31	O	0.614497	0.207399	0.987575
O32	O	0.614497	0.058691	0.987583
O33	O	1.250285	-0.058611	0.572870
O34	O	1.250283	-0.058607	0.721577
O35	O	0.827775	0.131352	0.823991
O36	O	0.827774	0.043813	0.911537
O37	O	1.037006	-0.043728	0.824000
O38	O	1.037007	0.043812	0.736453
C39	C	0.652735	0.000035	0.780227
C40	C	0.557823	0.000033	0.780227
C41	C	0.932393	0.000033	0.546211
C42	C	0.932394	0.000031	0.466789
C43	C	0.932390	0.234054	0.780214
C44	C	0.932390	0.313477	0.780210
C45	C	0.384040	0.000048	0.780225
C46	C	0.480745	0.000042	0.780224
C47	C	1.212047	0.000045	0.780226
C48	C	1.306959	0.000047	0.780226
C49	C	0.932391	-0.233974	0.780238
C50	C	0.932391	-0.313396	0.780243
C51	C	0.823169	0.694989	0.825935
C52	C	1.041612	0.603591	0.734545
C53	C	1.041614	0.528969	0.734536
C54	C	0.932392	0.537354	0.780229
C55	C	0.823168	0.620361	0.825930
C56	C	1.150835	0.445957	0.688843
C57	C	1.150842	0.371328	0.688833
C58	C	1.041618	0.379712	0.734521
C59	C	0.932390	0.462726	0.780224
C60	C	0.823168	0.471112	0.825917
C61	C	0.713939	0.554125	0.871615
C62	C	0.713945	0.628746	0.871619
C63	C	1.041612	0.305091	0.734517
C64	C	0.823167	0.396484	0.825912
C65	C	1.041615	-0.045668	0.383780
C66	C	0.823173	0.045734	0.475169
C67	C	0.823169	0.045737	0.400549
C68	C	0.932391	0.000038	0.317540
C69	C	1.041615	-0.045664	0.309152
C70	C	0.713947	0.091446	0.408931
C71	C	0.713940	0.091452	0.334308
C72	C	0.823162	0.045747	0.251298
C73	C	0.932391	0.000042	0.242912
C74	C	1.041612	-0.045657	0.159904
C75	C	1.150842	-0.091368	0.151516
C76	C	1.150838	-0.091369	0.226142
C77	C	0.823167	0.045748	0.176672
C78	C	1.041613	-0.045653	0.085275
C79	C	0.932389	0.000047	1.014241
C80	C	0.932388	0.000049	1.093664
C81	C	0.652733	0.000041	1.014242
C82	C	0.557820	0.000042	1.093664
C83	C	0.652735	0.234049	0.780214
C84	C	0.557822	0.313469	0.780210
C85	C	0.652733	0.234056	1.014229
C86	C	0.557819	0.313478	1.093648
C87	C	1.212049	-0.233975	0.546223
C88	C	1.306962	-0.313398	0.466805
C89	C	1.212049	0.000039	0.546211
C90	C	1.306962	0.000038	0.466788
C91	C	1.212047	-0.233969	0.780238
C92	C	1.306960	-0.313389	0.780242
C93	C	0.513248	-0.045663	1.085268
C94	C	0.424079	-0.045680	1.159887
C95	C	0.379478	0.000013	1.242901
C96	C	0.424058	0.045720	1.251295
C97	C	0.513232	0.045731	1.176677
C98	C	0.513250	0.396471	0.825902
C99	C	0.424082	0.471102	0.825895
C100	C	0.379481	0.462730	0.780201
C101	C	0.424063	0.379719	0.734503
C102	C	0.513235	0.305090	0.734506
C103	C	0.513247	0.305081	1.176650
C104	C	0.424078	0.379700	1.251279
C105	C	0.379477	0.462715	1.242905
C106	C	0.424059	0.471111	1.159894
C107	C	0.513232	0.396492	1.085266
C108	C	1.351546	-0.305001	0.383803
C109	C	1.440743	-0.379620	0.309173
C110	C	1.485348	-0.462635	0.317548
C111	C	1.440761	-0.471030	0.400559
C112	C	1.351572	-0.396412	0.475186
C113	C	1.351543	0.045735	0.475184
C114	C	1.440737	0.045732	0.400566
C115	C	1.485341	0.000036	0.317552
C116	C	1.440756	-0.045667	0.309157
C117	C	1.351571	-0.045668	0.383775
C118	C	1.351531	-0.304989	0.825945
C119	C	1.440700	-0.379606	0.825966
C120	C	1.485302	-0.462622	0.780278
C121	C	1.440721	-0.471021	0.734574
C122	C	1.351548	-0.396405	0.734558
H123	H	0.734224	0.403322	0.863117
H124	H	0.387731	0.082921	1.318895
O125	O	0.376016	0.370652	1.340813
H126	H	0.277634	0.402478	1.377024
O127	O	1.159405	0.594553	0.685265
H128	H	1.211779	0.558318	0.711673
H129	H	1.315267	-0.403257	0.697338
O130	O	1.488800	0.095040	0.409628
H131	H	1.442776	0.126827	0.479891
O132	O	0.283281	0.543226	0.780217
H133	H	0.259773	0.602346	0.819681
H134	H	1.557971	-0.523387	0.256775
H135	H	0.549511	0.403342	1.017685
O136	O	1.488812	-0.560554	0.685294
H137	H	1.587186	-0.596737	0.634786
O138	O	0.561356	0.215548	1.185693
H139	H	0.515383	0.222260	1.255953
O140	O	0.705381	0.095018	0.564698
H141	H	0.653011	0.165253	0.572292
O142	O	1.303477	-0.094949	0.374716
H143	H	1.349475	-0.126712	0.304453
O144	O	0.596148	0.140726	0.498456
H145	H	0.614501	0.133031	0.548936
H146	H	1.477087	-0.082871	0.241557
H147	H	1.130555	-0.082872	0.017689
O148	O	0.561348	-0.094959	0.995739
H149	H	0.659725	-0.145456	0.959560
H150	H	1.315233	-0.237413	0.376967
H151	H	1.476988	-0.372750	0.863183
O152	O	1.268628	0.436919	0.639558
H153	H	1.273844	0.468741	0.685692
H154	H	0.387736	0.372915	0.697300
H155	H	0.625010	0.560942	0.908822
H156	H	0.624998	0.128671	0.341147
O157	O	0.596139	0.718275	0.920978
H158	H	0.614493	0.768755	0.913337
H159	H	0.734237	0.762580	0.863139
O160	O	1.303421	-0.215454	0.875237
H161	H	1.349394	-0.222162	0.907028
O162	O	1.268645	0.281797	0.639540
H163	H	1.344592	0.288505	0.607764
H164	H	0.549514	0.237509	0.697301
H165	H	1.557962	0.000044	0.256800
O166	O	1.581497	-0.543099	0.780285
H167	H	1.605002	-0.523302	0.819734
O168	O	0.376006	0.560625	0.875193
H169	H	0.306516	0.611121	0.867512
O170	O	0.283284	0.543195	1.323399
H171	H	0.259778	0.523400	1.382519
O172	O	0.375933	0.560650	1.150865
H173	H	0.306425	0.611118	1.216708
H174	H	1.130545	0.237506	0.697314
O175	O	1.159420	-0.094969	0.374734
H176	H	1.235364	-0.126750	0.304476
H177	H	0.549553	0.403305	0.863112
H178	H	0.734233	0.082969	0.183504
O179	O	1.488802	-0.370557	0.219646
H180	H	1.442775	-0.300294	0.226368
O181	O	1.488866	-0.560570	0.409587
H182	H	1.558362	-0.611038	0.343745
H183	H	0.387792	-0.082899	1.153035
H184	H	1.315233	0.082952	0.542772
O185	O	1.268646	-0.140664	0.061984
H186	H	1.250286	-0.132983	0.011507
O187	O	1.268601	-0.140735	0.217157
H188	H	1.273894	-0.094658	0.248977
H189	H	0.306866	-0.000002	1.303653
O190	O	0.561286	0.095044	1.185737
H191	H	0.515272	0.126822	1.256000
O192	O	1.303471	-0.405473	0.564711
H193	H	1.349468	-0.475736	0.557987
