data_functionalizedCrystal
_audit_creation_method	'MofGen! by Chris Wilmer'
_symmetry_space_group_name_H-M	'P1'
_symmetry_Int_Tables_number	1
_symmetry_cell_setting	triclinic
loop_
_symmetry_equiv_pos_as_xyz
  x,y,z
_cell_length_a	13.032831
_cell_length_b	13.032721
_cell_length_c	11.169409
_cell_angle_alpha	97.146154
_cell_angle_beta	82.803848
_cell_angle_gamma	90.902885
loop_
_atom_site_label
_atom_site_type_symbol
_atom_site_fract_x
_atom_site_fract_y
_atom_site_fract_z
Zn1	Zn	1.520332	-0.609293	-0.988814
Zn2	Zn	1.498358	-0.781287	-0.809998
Zn3	Zn	1.348329	-0.587480	-0.759913
Zn4	Zn	1.326479	-0.759341	-0.982406
O5	O	1.423374	-0.684350	-0.885283
O6	O	1.661332	-0.650422	-0.988736
O7	O	1.478404	-0.755633	-0.635405
O8	O	1.389486	-0.446470	-0.771999
O9	O	1.645188	-0.776785	-0.857360
O10	O	1.515856	-0.462496	-0.940171
O11	O	1.368179	-0.613245	-0.598608
O12	O	1.201515	-0.591965	-0.765786
O13	O	1.352246	-0.739381	-1.151206
O14	O	1.185462	-0.718230	-0.929250
O15	O	1.494669	-0.629142	-1.155913
O16	O	1.457217	-0.922279	-0.851147
O17	O	1.330939	-0.906156	-0.977815
C18	C	1.156173	-0.650350	-0.841389
C19	C	1.041860	-0.635829	-0.822642
C20	C	0.982968	-0.691929	-0.895067
C21	C	0.864819	-0.676922	-0.875693
C22	C	1.389350	-0.951534	-0.919251
C23	C	1.374889	-1.065848	-0.933838
C24	C	1.430977	-1.124763	-0.877733
C25	C	1.416031	-1.242913	-0.892808
C26	C	1.691619	-0.718484	-0.929349
C27	C	1.805929	-0.733030	-0.948128
C28	C	1.423471	-0.684247	-1.198324
C29	C	1.423513	-0.684203	-1.331724
C30	C	1.457559	-0.416127	-0.851213
C31	C	1.472127	-0.301826	-0.836694
C32	C	1.423347	-0.684387	-0.573459
C33	C	1.423541	-0.684166	-0.440056
H34	H	0.827775	-0.617775	-0.799344
O35	O	1.304415	-1.110178	-1.004374
C36	C	1.225339	-1.268364	-1.083814
C37	C	1.305171	-1.218297	-1.003871
H38	H	1.225940	-1.355786	-1.083454
H39	H	1.145022	-1.236919	-1.046386
H40	H	1.246010	-1.249446	-1.180864
H41	H	1.284597	-1.237194	-0.906804
H42	H	1.385467	-1.249743	-1.041399
O43	O	1.027320	-0.762471	-0.986061
C44	C	1.185523	-0.841672	-1.088414
C45	C	1.135432	-0.761763	-0.985297
H46	H	1.272941	-0.841110	-1.087847
H47	H	1.153981	-0.921950	-1.074303
H48	H	1.166727	-0.821062	-1.179497
H49	H	1.154208	-0.782276	-0.894170
H50	H	1.166977	-0.681507	-0.999515
O51	O	0.850275	-0.803573	-1.039133
C52	C	1.008476	-0.882769	-1.141499
C53	C	0.958388	-0.802865	-1.038374
H54	H	1.095895	-0.882207	-1.140936
H55	H	0.976935	-0.963048	-1.127394
H56	H	0.989676	-0.862152	-1.232578
H57	H	0.977168	-0.823385	-0.947250
H58	H	0.989931	-0.722608	-1.052586
O59	O	0.997784	-0.565340	-0.731409
C60	C	0.970956	-0.511087	-0.515572
C61	C	1.020941	-0.590975	-0.618783
H62	H	0.989642	-0.531796	-0.424487
H63	H	1.002600	-0.430828	-0.529594
H64	H	0.883549	-0.511532	-0.516228
H65	H	1.108350	-0.590623	-0.618187
H66	H	0.989215	-0.671196	-0.604723
H67	H	1.356948	-1.279940	-0.952012
H68	H	1.490065	-1.087735	-0.818542
H69	H	1.531219	-1.264802	-0.777500
