data_functionalizedCrystal
_audit_creation_method	'MofGen! by Chris Wilmer'
_symmetry_space_group_name_H-M	'P1'
_symmetry_Int_Tables_number	1
_symmetry_cell_setting	triclinic
loop_
_symmetry_equiv_pos_as_xyz
  x,y,z
_cell_length_a	14.044220
_cell_length_b	13.101039
_cell_length_c	14.044220
_cell_angle_alpha	93.667477
_cell_angle_beta	86.811122
_cell_angle_gamma	93.659868
loop_
_atom_site_label
_atom_site_type_symbol
_atom_site_fract_x
_atom_site_fract_y
_atom_site_fract_z
O1	O	1.281968	0.085109	-0.225348
O2	O	1.781968	0.585109	0.274652
O3	O	1.005298	0.085135	-0.217041
O4	O	1.505298	0.585135	0.282959
O5	O	1.139480	0.085112	-0.082860
O6	O	1.639480	0.585112	0.417140
O7	O	1.147787	0.085132	-0.359530
O8	O	1.647787	0.585132	0.140470
O9	O	1.129854	-0.085316	-0.092504
O10	O	1.629854	0.414684	0.407496
O11	O	0.995673	-0.085293	-0.226686
O12	O	1.495673	0.414707	0.273314
O13	O	1.272343	-0.085319	-0.234993
O14	O	1.772343	0.414681	0.265007
Zn15	Zn	1.132479	-0.112365	-0.232371
Zn16	Zn	1.632479	0.387635	0.267629
Zn17	Zn	1.145162	0.112181	-0.219663
Zn18	Zn	1.645162	0.612181	0.280337
O19	O	1.138161	-0.085296	-0.369175
O20	O	1.638161	0.414704	0.130825
C21	C	0.964864	-0.000076	-0.218228
C22	C	1.464864	0.499924	0.281772
C23	C	0.858722	-0.000066	-0.207383
C24	C	1.358722	0.499934	0.292617
N25	N	1.123831	-0.265612	-0.241043
N26	N	1.623831	0.234388	0.258957
C27	C	0.664383	-0.000088	-0.187558
C28	C	1.164383	0.499912	0.312442
C29	C	0.613253	-0.000087	-0.264472
C30	C	1.113253	0.499913	0.235528
C31	C	0.505116	-0.000099	-0.253441
C32	C	1.005116	0.499901	0.246559
C33	C	0.772529	-0.000076	-0.198587
C34	C	1.272529	0.499924	0.301413
C35	C	1.112065	-0.474653	-0.252851
C36	C	1.612065	0.025347	0.247149
C37	C	1.165580	-0.525538	-0.199179
C38	C	1.665580	-0.025538	0.300821
C39	C	1.159034	-0.641855	-0.205749
C40	C	1.659034	-0.141855	0.294251
C41	C	1.118610	-0.358325	-0.246282
C42	C	1.618610	0.141675	0.253718
C43	C	1.312777	-0.000106	-0.233806
C44	C	1.812777	0.499894	0.266194
C45	C	1.418920	-0.000109	-0.244651
C46	C	1.918920	0.499891	0.255349
C47	C	1.131031	-0.000102	-0.052060
C48	C	1.631031	0.499898	0.447940
C49	C	1.120187	-0.000102	0.054083
C50	C	1.620187	0.499898	0.554083
N51	N	1.153817	0.265428	-0.210984
N52	N	1.653817	0.765428	0.289016
C53	C	1.146610	-0.000080	-0.399974
C54	C	1.646610	0.499920	0.100026
C55	C	1.157455	-0.000073	-0.506116
C56	C	1.657455	0.499927	-0.006116
C57	C	1.100362	-0.000086	0.248421
C58	C	1.600362	0.499914	0.748421
C59	C	1.177276	-0.000090	0.299551
C60	C	1.677276	0.499910	0.799551
C61	C	1.166245	-0.000080	0.407688
C62	C	1.666245	0.499920	0.907688
C63	C	1.111391	-0.000095	0.140275
C64	C	1.611391	0.499905	0.640275
H65	H	0.650693	-0.000077	-0.338605
H66	H	1.150693	0.499923	0.161395
H67	H	1.216314	-0.481744	-0.148295
H68	H	1.716314	0.018256	0.351705
C69	C	1.050286	-0.639219	-0.314846
C70	C	1.550286	-0.139219	0.185154
C71	C	1.043589	-0.533764	-0.321550
C72	C	1.543589	-0.033764	0.178450
H73	H	1.008018	-0.675719	-0.357264
H74	H	1.508018	-0.175719	0.142736
H75	H	1.033444	-0.656738	-0.251249
H76	H	1.533444	-0.156738	0.248751
H77	H	1.113937	-0.656720	-0.331494
H78	H	1.613937	-0.156720	0.168506
H79	H	0.979939	-0.516262	-0.304895
H80	H	1.479939	-0.016262	0.195105
H81	H	1.060425	-0.516238	-0.385161
H82	H	1.560425	-0.016238	0.114839
C83	C	0.994215	0.087528	0.361022
C84	C	1.494215	0.587528	0.861022
C85	C	1.000290	-0.000082	0.298959
C86	C	1.500290	0.499918	0.798959
H87	H	0.932437	0.087522	0.392234
H88	H	1.432437	0.587522	0.892234
H89	H	1.005045	0.146948	0.325630
H90	H	1.505045	0.646948	0.825630
H91	H	1.041034	0.087520	0.407303
H92	H	1.541034	0.587520	0.907303
H93	H	0.953475	-0.000070	0.252673
H94	H	1.453475	0.499930	0.752673
H95	H	0.989449	-0.059517	0.334352
H96	H	1.489449	0.440483	0.834352
C97	C	0.514954	-0.000092	-0.095791
C98	C	1.014954	0.499908	0.404209
C99	C	0.613849	-0.000089	-0.087484
C100	C	1.113849	0.499911	0.412516
H101	H	0.483751	-0.000082	-0.034009
H102	H	0.983751	0.499918	0.465991
H103	H	0.493670	-0.059524	-0.132844
H104	H	0.993670	0.440476	0.367156
H105	H	0.500372	0.059341	-0.126140
H106	H	1.000372	0.559341	0.373860
H107	H	0.628431	-0.059526	-0.057142
H108	H	1.128431	0.440474	0.442858
H109	H	0.635140	0.059349	-0.050416
H110	H	1.135140	0.559349	0.449584
H111	H	1.251413	-0.000028	0.262115
H112	H	1.751413	0.499972	0.762115
