data_functionalizedCrystal
_audit_creation_method	'MofGen! by Chris Wilmer'
_symmetry_space_group_name_H-M	'P1'
_symmetry_Int_Tables_number	1
_symmetry_cell_setting	triclinic
loop_
_symmetry_equiv_pos_as_xyz
  x,y,z
_cell_length_a	23.096457
_cell_length_b	23.096457
_cell_length_c	12.970454
_cell_angle_alpha	89.998137
_cell_angle_beta	60.000127
_cell_angle_gamma	60.004020
loop_
_atom_site_label
_atom_site_type_symbol
_atom_site_fract_x
_atom_site_fract_y
_atom_site_fract_z
Zr1	Zr	0.633717	0.557829	-0.135296
O2	O	0.754496	0.465393	-0.299906
O3	O	0.512935	0.586157	-0.084839
O4	O	0.633717	0.586170	-0.299921
O5	O	0.633716	0.465379	0.084843
O6	O	0.633718	0.681450	-0.299928
O7	O	0.633715	0.465380	-0.084824
O8	O	0.417663	0.681427	0.084815
O9	O	0.849771	0.465403	-0.299900
O10	O	0.562616	0.669355	-0.063318
O11	O	0.562615	0.598248	0.063307
O12	O	0.704820	0.598263	-0.189925
O13	O	0.704819	0.527156	-0.063300
Zr14	Zr	0.633720	0.709789	0.135293
Zr15	Zr	0.633719	0.709790	-0.135306
Zr16	Zr	0.633717	0.557828	0.135303
Zr17	Zr	0.785669	0.557844	-0.135286
Zr18	Zr	0.481768	0.709774	0.135283
O19	O	0.754501	0.681461	0.084836
O20	O	0.754500	0.681462	-0.299920
O21	O	0.754497	0.465392	0.084850
O22	O	0.512940	0.802225	0.299903
O23	O	0.512939	0.802226	-0.084853
O24	O	0.512937	0.586155	0.299917
O25	O	0.633721	0.802238	-0.084846
O26	O	0.633720	0.681448	0.299918
O27	O	0.633718	0.586167	0.299925
O28	O	0.633721	0.802238	0.084821
O29	O	0.849773	0.586192	-0.299908
O30	O	0.417664	0.681426	0.299905
O31	O	0.417666	0.802215	0.299897
O32	O	0.417665	0.802216	0.084807
O33	O	0.849772	0.465402	-0.084810
O34	O	0.849774	0.586191	-0.084818
O35	O	0.562617	0.669354	0.189922
O36	O	0.562618	0.740461	0.063297
O37	O	0.704821	0.669370	-0.063309
O38	O	0.704820	0.598262	0.063315
C39	C	0.443649	0.633790	-0.000013
C40	C	0.379142	0.633783	-0.000017
C41	C	0.296357	0.686274	0.093441
C42	C	0.235736	0.686279	0.093453
C43	C	0.257903	0.633798	-0.000013
C44	C	0.340702	0.581298	-0.093480
C45	C	0.401321	0.581291	-0.093482
N46	N	0.201793	0.617920	-0.110853
N47	N	0.144203	0.617932	-0.110846
C48	C	0.075264	0.633817	-0.000011
N49	N	0.066081	0.649704	0.110824
N50	N	0.123674	0.649696	0.110817
C51	C	0.192178	0.633800	-0.000021
C52	C	-0.073257	0.686316	0.093468
C53	C	-0.133877	0.686316	0.093481
C54	C	-0.028909	0.581338	-0.093463
C55	C	0.031709	0.581335	-0.093465
C56	C	0.009530	0.633828	-0.000000
C57	C	0.633715	0.443729	0.000011
C58	C	0.633714	0.379217	0.000015
C59	C	0.559488	0.386020	0.066090
C60	C	0.559486	0.325405	0.066096
C61	C	0.633716	0.257986	0.000001
C62	C	0.707952	0.251185	-0.066077
C63	C	0.707951	0.311801	-0.066070
N64	N	0.688969	0.135197	-0.107568
N65	N	0.688965	0.077617	-0.107572
C66	C	0.633723	0.075354	-0.000021
N67	N	0.578474	0.132851	0.107533
N68	N	0.578475	0.190437	0.107535
C69	C	0.633725	0.192255	-0.000013
C70	C	0.559490	0.016434	0.066066
C71	C	0.559492	-0.044184	0.066075
C72	C	0.707960	-0.118404	-0.066110
C73	C	0.707956	-0.057786	-0.066106
C74	C	0.633719	0.009630	-0.000021
C75	C	0.823787	0.633828	0.000011
C76	C	0.888295	0.633834	0.000015
C77	C	0.633717	0.633810	-0.338479
C78	C	0.633717	0.633811	-0.453355
C79	C	0.633721	0.823889	-0.000014
C80	C	0.633723	0.888401	-0.000018
C81	C	0.633719	0.633808	0.338476
C82	C	0.633720	0.633807	0.453352
C83	C	0.443652	0.823870	-0.000026
C84	C	0.379146	0.888375	-0.000034
C85	C	0.443650	0.633788	0.338464
C86	C	0.379143	0.633782	0.453336
C87	C	0.443653	0.823869	0.338452
C88	C	0.379147	0.888373	0.453320
C89	C	0.823783	0.443749	-0.338455
C90	C	0.888289	0.379244	-0.453322
C91	C	0.823784	0.443748	0.000023
C92	C	0.888291	0.379243	0.000031
C93	C	0.823786	0.633829	-0.338467
C94	C	0.888294	0.633836	-0.453339
C95	C	0.348852	0.881551	-0.066141
C96	C	0.288250	0.942154	-0.066174
C97	C	0.257938	1.009582	-0.000092
C98	C	0.288238	1.016405	0.066017
C99	C	0.348843	0.955802	0.066042
C100	C	0.348850	0.670895	0.573385
C101	C	0.288247	0.670886	0.681330
C102	C	0.257934	0.633767	0.669223
C103	C	0.288232	0.596649	0.549162
C104	C	0.348838	0.596654	0.441220
C105	C	0.348855	0.955789	0.441166
C106	C	0.288253	1.016404	0.549086
C107	C	0.257940	1.009601	0.669159
C108	C	0.288238	0.942179	0.681310
C109	C	0.348844	0.881565	0.573391
C110	C	0.918589	0.311829	-0.441169
C111	C	0.979210	0.251214	-0.549089
C112	C	1.009526	0.258016	-0.669162
C113	C	0.979224	0.325439	-0.681313
C114	C	0.918608	0.386052	-0.573394
C115	C	0.918591	0.386067	0.066127
C116	C	0.979210	0.325463	0.066130
C117	C	1.009524	0.258036	0.000044
C118	C	0.979221	0.251213	-0.066060
C119	C	0.918607	0.311816	-0.066070
C120	C	0.918588	0.670962	-0.441192
C121	C	0.979191	0.670983	-0.549116
C122	C	1.009504	0.633872	-0.669186
C123	C	0.979203	0.596745	-0.681331
C124	C	0.918597	0.596729	-0.573408
H125	H	0.468731	0.538543	-0.169587
H126	H	1.003872	0.196322	-0.539171
Cl127	Cl	0.880527	0.550044	-0.588700
H128	H	0.208588	1.058922	-0.000121
H129	H	0.373501	0.961368	0.119882
H130	H	0.373531	0.826653	-0.119969
Cl131	Cl	-0.237956	0.752307	0.210993
H132	H	0.768390	0.196289	-0.119890
H133	H	0.893938	0.306249	-0.119889
H134	H	1.058883	0.208655	-0.757026
H135	H	1.003872	0.331033	0.119965
Cl136	Cl	0.880518	0.470801	-0.588695
H137	H	1.003915	0.330969	-0.779089
H138	H	0.263586	0.701114	0.779078
Cl139	Cl	-0.001034	0.515358	-0.210959
Cl140	Cl	0.880499	0.470826	0.149211
H141	H	0.499040	0.330945	0.119903
Cl142	Cl	0.386955	0.964359	0.290230
Cl143	Cl	0.801279	-0.203154	-0.149191
H144	H	0.499046	-0.038638	0.119891
Cl145	Cl	0.386944	0.717566	0.588638
Cl146	Cl	-0.101135	0.752304	0.210967
H147	H	0.263590	1.071297	0.539170
H148	H	0.099118	0.538595	-0.169576
Cl149	Cl	0.880493	0.717622	-0.290260
H150	H	0.373500	0.826675	0.583305
H151	H	0.373495	0.566434	0.343475
H152	H	1.058879	0.208695	0.000063
Cl153	Cl	1.017335	0.166442	-0.149128
Cl154	Cl	0.466166	0.101187	0.149150
Cl155	Cl	1.017275	0.717656	-0.533820
Cl156	Cl	0.466161	0.470769	0.149178
Cl157	Cl	1.085698	0.633897	-0.804850
Cl158	Cl	0.250119	1.101176	0.149093
Cl159	Cl	0.801272	0.303246	-0.149145
H160	H	0.278291	0.729017	0.169549
Cl161	Cl	0.131651	0.752275	0.210950
Cl162	Cl	1.017326	0.550087	-0.832286
H163	H	0.208585	0.633768	0.757127
H164	H	0.263542	0.566428	0.539324
Cl165	Cl	0.880490	0.303258	-0.290233
H166	H	0.263587	0.936585	-0.120008
Cl167	Cl	0.368570	0.515319	-0.210976
Cl168	Cl	0.181748	1.085809	0.804818
Cl169	Cl	0.801275	-0.066340	-0.149185
H170	H	0.263549	0.936650	0.779088
