data_functionalizedCrystal
_audit_creation_method	'MofGen! by Chris Wilmer'
_symmetry_space_group_name_H-M	'P1'
_symmetry_Int_Tables_number	1
_symmetry_cell_setting	triclinic
loop_
_symmetry_equiv_pos_as_xyz
  x,y,z
_cell_length_a	19.805407
_cell_length_b	19.805404
_cell_length_c	19.805399
_cell_angle_alpha	89.972890
_cell_angle_beta	89.980427
_cell_angle_gamma	90.029593
loop_
_atom_site_label
_atom_site_type_symbol
_atom_site_fract_x
_atom_site_fract_y
_atom_site_fract_z
Zn1	Zn	1.034721	-0.269479	-0.382722
Zn2	Zn	1.534721	0.230521	0.117278
Zn3	Zn	1.034629	-0.382667	-0.269535
Zn4	Zn	1.534629	0.117333	0.230465
Zn5	Zn	0.921535	-0.269498	-0.269546
Zn6	Zn	1.421535	0.230502	0.230454
Zn7	Zn	0.921493	-0.382631	-0.382681
Zn8	Zn	1.421493	0.117369	0.117319
O9	O	0.978094	-0.326069	-0.326121
O10	O	1.478094	0.173931	0.173879
O11	O	1.129425	-0.284501	-0.367719
O12	O	1.629425	0.215499	0.132281
O13	O	1.019607	-0.367678	-0.174819
O14	O	1.519607	0.132322	0.325181
O15	O	0.936606	-0.174778	-0.284581
O16	O	1.436606	0.325222	0.215419
O17	O	1.129358	-0.367660	-0.284561
O18	O	1.629358	0.132340	0.215439
O19	O	1.019763	-0.174765	-0.367731
O20	O	1.519763	0.325235	0.132269
O21	O	0.936517	-0.284533	-0.174828
O22	O	1.436517	0.215467	0.325172
O23	O	0.826813	-0.284498	-0.284542
O24	O	1.326813	0.215502	0.215458
O25	O	0.936533	-0.367598	-0.477403
O26	O	1.436533	0.132402	0.022597
O27	O	0.826782	-0.367617	-0.367662
O28	O	1.326782	0.132383	0.132338
O29	O	1.019721	-0.284466	-0.477433
O30	O	1.519721	0.215534	0.022567
O31	O	1.019565	-0.477379	-0.284522
O32	O	1.519565	0.022621	0.215478
O33	O	0.936444	-0.477353	-0.367650
O34	O	1.436444	0.022647	0.132350
C35	C	0.802238	-0.326056	-0.326099
C36	C	1.302238	0.173944	0.173901
C37	C	0.727006	-0.326067	-0.326106
C38	C	1.227006	0.173933	0.173894
C39	C	0.978009	-0.501925	-0.326095
C40	C	1.478009	-0.001925	0.173905
C41	C	0.978034	-0.577157	-0.326107
C42	C	1.478034	-0.077157	0.173893
C43	C	1.021542	-1.038939	-0.282931
C44	C	1.521542	-0.538939	0.217069
C45	C	1.021510	-0.968251	-0.282918
C46	C	1.521510	-0.468251	0.217082
C47	C	0.978183	-0.932918	-0.326157
C48	C	1.478183	-0.432918	0.173843
C49	C	0.934880	-0.968278	-0.369407
C50	C	1.434880	-0.468278	0.130593
C51	C	0.934909	-1.038966	-0.369417
C52	C	1.434909	-0.538966	0.130583
C53	C	0.934763	-0.683205	-0.369370
C54	C	1.434763	-0.183205	0.130630
C55	C	0.934739	-0.612513	-0.369359
C56	C	1.434739	-0.112513	0.130641
C57	C	1.021364	-0.612490	-0.282871
C58	C	1.521364	-0.112490	0.217129
C59	C	1.021392	-0.683177	-0.282880
C60	C	1.521392	-0.183177	0.217120
C61	C	0.978087	-0.718531	-0.326128
C62	C	1.478087	-0.218531	0.173872
C63	C	0.978121	-0.795179	-0.326141
C64	C	1.478121	-0.295179	0.173859
C65	C	0.978152	-0.856271	-0.326148
C66	C	1.478152	-0.356271	0.173852
C67	C	0.691664	-0.369412	-0.369316
C68	C	1.191664	0.130588	0.130684
C69	C	0.620975	-0.369413	-0.369326
C70	C	1.120975	0.130587	0.130674
C71	C	0.585631	-0.326072	-0.326121
C72	C	1.085631	0.173928	0.173879
C73	C	0.620979	-0.282722	-0.282909
C74	C	1.120979	0.217278	0.217091
C75	C	0.691666	-0.282718	-0.282903
C76	C	1.191666	0.217282	0.217097
C77	C	0.335905	-0.282737	-0.282931
C78	C	0.835905	0.217263	0.217069
C79	C	0.265213	-0.282746	-0.282939
C80	C	0.765213	0.217254	0.217061
C81	C	0.265215	-0.369432	-0.369354
C82	C	0.765215	0.130568	0.130646
C83	C	0.335902	-0.369428	-0.369348
C84	C	0.835902	0.130572	0.130652
C85	C	0.371244	-0.326076	-0.326139
C86	C	0.871244	0.173924	0.173861
C87	C	0.447892	-0.326074	-0.326130
C88	C	0.947892	0.173926	0.173870
C89	C	0.508984	-0.326076	-0.326126
C90	C	1.008984	0.173924	0.173874
C91	C	1.154637	-0.326082	-0.326143
C92	C	1.654637	0.173918	0.173857
C93	C	1.229869	-0.326088	-0.326153
C94	C	1.729869	0.173912	0.173847
C95	C	0.978132	-0.326026	-0.502664
C96	C	1.478132	0.173974	-0.002664
C97	C	0.978149	-0.326008	-0.577896
C98	C	1.478149	0.173992	-0.077896
C99	C	0.978199	-0.149526	-0.326162
C100	C	1.478199	0.350474	0.173838
C101	C	0.978244	-0.074294	-0.326179
C102	C	1.478244	0.425706	0.173821
C103	C	1.021466	-0.282719	-0.613257
C104	C	1.521466	0.217281	-0.113257
C105	C	1.021473	-0.282699	-0.683945
C106	C	1.521473	0.217301	-0.183945
C107	C	0.978165	-0.325973	-0.719272
C108	C	1.478165	0.174027	-0.219272
C109	C	0.934844	-0.369264	-0.683906
C110	C	1.434844	0.130736	-0.183906
C111	C	0.934834	-0.369280	-0.613219
C112	C	1.434834	0.130720	-0.113219
C113	C	0.934882	-0.369201	-0.968979
C114	C	1.434882	0.130799	-0.468979
C115	C	0.934896	-0.369183	-1.039671
C116	C	1.434896	0.130817	-0.539671
C117	C	1.021521	-0.282620	-1.039706
C118	C	1.521521	0.217380	-0.539706
C119	C	1.021511	-0.282636	-0.969019
C120	C	1.521511	0.217364	-0.469019
C121	C	0.978187	-0.325924	-0.933659
C122	C	1.478187	0.174076	-0.433659
C123	C	0.978179	-0.325944	-0.857011
C124	C	1.478179	0.174056	-0.357011
C125	C	0.978176	-0.325957	-0.795919
C126	C	1.478176	0.174043	-0.295919
C127	C	0.978096	-0.326062	-0.150265
C128	C	1.478096	0.173938	0.349735
C129	C	0.978211	-0.325890	-0.075033
C130	C	1.478211	0.174110	0.424967
H131	H	1.056827	-1.067701	-0.247724
H132	H	1.556827	-0.567701	0.252276
H133	H	0.899599	-0.939507	-0.404611
H134	H	1.399599	-0.439507	0.095389
O135	O	0.892892	-0.411287	-0.934569
O136	O	1.392892	0.088713	-0.434569
C137	C	0.931385	-0.455034	-0.893688
C138	C	1.431385	0.044966	-0.393688
H139	H	0.982690	-0.431173	-0.883099
H140	H	1.482690	0.068827	-0.383099
H141	H	0.938799	-0.505185	-0.920924
H142	H	1.438799	-0.005185	-0.420924
C143	C	0.831097	-0.496617	-0.839547
C144	C	1.331097	0.003383	-0.339547
C145	C	0.894109	-0.467307	-0.826537
C146	C	1.394109	0.032693	-0.326537
H147	H	0.808103	-0.504190	-0.798127
H148	H	1.308103	-0.004190	-0.298127
H149	H	0.805163	-0.467146	-0.867092
H150	H	1.305163	0.032854	-0.367092
H151	H	0.837285	-0.538405	-0.862246
H152	H	1.337285	-0.038405	-0.362246
H153	H	0.887920	-0.425515	-0.803847
H154	H	1.387920	0.074485	-0.303847
H155	H	0.920041	-0.496771	-0.798987
H156	H	1.420041	0.003229	-0.298987
O157	O	1.063639	-0.934012	-0.240889
O158	O	1.563639	-0.434012	0.259111
C159	C	1.101879	-0.980354	-0.202721
C160	C	1.601879	-0.480354	0.297279
H161	H	1.104221	-1.030723	-0.230454
H162	H	1.604221	-0.530723	0.269546
H163	H	1.077134	-0.987926	-0.151289
H164	H	1.577134	-0.487926	0.348711
C165	C	1.171036	-0.890844	-0.158977
C166	C	1.671036	-0.390844	0.341023
C167	C	1.173917	-0.952706	-0.193043
C168	C	1.673917	-0.452706	0.306957
H169	H	1.215472	-0.873788	-0.153004
H170	H	1.715472	-0.373788	0.346996
H171	H	1.145271	-0.859621	-0.184690
H172	H	1.645271	-0.359621	0.315310
H173	H	1.150412	-0.897162	-0.116121
H174	H	1.650412	-0.397162	0.383879
H175	H	1.194533	-0.946386	-0.235901
H176	H	1.694533	-0.446386	0.264099
H177	H	1.199687	-0.983927	-0.167337
H178	H	1.699687	-0.483927	0.332663
O179	O	0.892679	-0.717437	-0.411446
O180	O	1.392679	-0.217437	0.088554
C181	C	0.854424	-0.671092	-0.449595
C182	C	1.354424	-0.171092	0.050405
H183	H	0.882130	-0.620679	-0.451958
H184	H	1.382130	-0.120679	0.048042
H185	H	0.803031	-0.663632	-0.424758
H186	H	1.303031	-0.163632	0.075242
C187	C	0.810603	-0.760560	-0.518726
C188	C	1.310603	-0.260560	-0.018726
C189	C	0.844635	-0.698644	-0.521632
C190	C	1.344635	-0.198644	-0.021632
H191	H	0.804562	-0.777556	-0.563160
H192	H	1.304562	-0.277556	-0.063160
H193	H	0.836374	-0.791785	-0.493022
H194	H	1.336374	-0.291785	0.006978
H195	H	0.767779	-0.754336	-0.498025
H196	H	1.267779	-0.254336	0.001975
H197	H	0.887460	-0.704871	-0.542324
H198	H	1.387460	-0.204871	-0.042324
H199	H	0.818870	-0.667421	-0.547341
H200	H	1.318870	-0.167421	-0.047341
O201	O	0.892758	-0.411240	-1.073884
O202	O	1.392758	0.088760	-0.573884
C203	C	0.854527	-0.449462	-1.027518
C204	C	1.354527	0.050538	-0.527518
H205	H	0.852191	-0.421751	-0.977135
H206	H	1.352191	0.078249	-0.477135
H207	H	0.879276	-0.500874	-1.019992
H208	H	1.379276	-0.000874	-0.519992
C209	C	0.785358	-0.493233	-1.116976
C210	C	1.285358	0.006767	-0.616976
C211	C	0.782485	-0.459195	-1.055097
C212	C	1.282485	0.040805	-0.555097
H213	H	0.740920	-0.499239	-1.133989
H214	H	1.240920	0.000761	-0.633989
H215	H	0.811117	-0.467484	-1.148215
H216	H	1.311117	0.032516	-0.648215
H217	H	0.805985	-0.536072	-1.110696
H218	H	1.305985	-0.036072	-0.610696
H219	H	0.761866	-0.416353	-1.061379
H220	H	1.261866	0.083647	-0.561379
H221	H	0.756721	-0.484937	-1.023860
H222	H	1.256721	0.015063	-0.523860
H223	H	0.592196	-0.247430	-0.247734
H224	H	1.092196	0.252570	0.252266
H225	H	1.056778	-0.247400	-0.940259
H226	H	1.556778	0.252600	-0.440259
O227	O	1.063501	-0.717393	-0.240814
O228	O	1.563501	-0.217393	0.259186
C229	C	1.101723	-0.671029	-0.202648
C230	C	1.601723	-0.171029	0.297352
H231	H	1.073982	-0.620667	-0.200272
H232	H	1.573982	-0.120667	0.299728
H233	H	1.153111	-0.663451	-0.227480
H234	H	1.653111	-0.163451	0.272520
C235	C	1.145602	-0.760508	-0.133542
C236	C	1.645602	-0.260508	0.366458
C237	C	1.111527	-0.698654	-0.130619
C238	C	1.611527	-0.198654	0.369381
H239	H	1.151652	-0.777549	-0.089112
H240	H	1.651652	-0.277549	0.410888
H241	H	1.119853	-0.791745	-0.159256
H242	H	1.619853	-0.291745	0.340744
H243	H	1.188422	-0.754184	-0.154239
H244	H	1.688422	-0.254184	0.345761
H245	H	1.068705	-0.704980	-0.109931
H246	H	1.568705	-0.204980	0.390069
H247	H	1.137268	-0.667419	-0.104900
H248	H	1.637268	-0.167419	0.395100
O249	O	0.725895	-0.240595	-0.240861
O250	O	1.225895	0.259405	0.259139
C251	C	0.679544	-0.202331	-0.202738
C252	C	1.179544	0.297669	0.297262
H253	H	0.629141	-0.230054	-0.200350
H254	H	1.129141	0.269946	0.299650
H255	H	0.672061	-0.150957	-0.227614
H256	H	1.172061	0.349043	0.272386
C257	C	0.769010	-0.158434	-0.133648
C258	C	1.269010	0.341566	0.366352
C259	C	0.707107	-0.192486	-0.130710
C260	C	1.207107	0.307514	0.369290
H261	H	0.786013	-0.152358	-0.089219
H262	H	1.286013	0.347642	0.410781
H263	H	0.800239	-0.184210	-0.159333
H264	H	1.300239	0.315790	0.340667
H265	H	0.762767	-0.115626	-0.154381
H266	H	1.262767	0.384374	0.345619
H267	H	0.713353	-0.235296	-0.109985
H268	H	1.213353	0.264704	0.390015
H269	H	0.675880	-0.166716	-0.105020
H270	H	1.175880	0.333284	0.394980
O271	O	0.892612	-0.578117	-0.411267
O272	O	1.392612	-0.078117	0.088733
C273	C	0.848898	-0.537302	-0.372680
C274	C	1.348898	-0.037302	0.127320
H275	H	0.872802	-0.526724	-0.321409
H276	H	1.372802	-0.026724	0.178591
H277	H	0.798752	-0.564591	-0.365195
H278	H	1.298752	-0.064591	0.134805
C279	C	0.807235	-0.483135	-0.472869
C280	C	1.307235	0.016865	0.027131
C281	C	0.836597	-0.470139	-0.409900
C282	C	1.336597	0.029861	0.090100
H283	H	0.799644	-0.441707	-0.495829
H284	H	1.299644	0.058293	0.004171
H285	H	0.836684	-0.510635	-0.498867
H286	H	1.336684	-0.010635	0.001133
H287	H	0.765451	-0.505878	-0.466623
H288	H	1.265451	-0.005878	0.033377
H289	H	0.878384	-0.447404	-0.416147
H290	H	1.378384	0.052596	0.083853
H291	H	0.807155	-0.442634	-0.383904
H292	H	1.307155	0.057366	0.116096
O293	O	0.586565	-0.411553	-0.411202
O294	O	1.086565	0.088447	0.088798
C295	C	0.545652	-0.455226	-0.372585
C296	C	1.045652	0.044774	0.127415
H297	H	0.535055	-0.431282	-0.321337
H298	H	1.035055	0.068718	0.178663
H299	H	0.572865	-0.505375	-0.365053
H300	H	1.072865	-0.005375	0.134947
C301	C	0.491530	-0.496942	-0.472750
C302	C	0.991530	0.003058	0.027250
C303	C	0.478510	-0.467531	-0.409808
C304	C	0.978510	0.032469	0.090192
H305	H	0.450115	-0.504536	-0.495711
H306	H	0.950115	-0.004536	0.004289
H307	H	0.519096	-0.467521	-0.498767
H308	H	1.019096	0.032479	0.001233
H309	H	0.514210	-0.538730	-0.466464
H310	H	1.014210	-0.038730	0.033536
H311	H	0.455839	-0.425741	-0.416095
H312	H	0.955839	0.074259	0.083905
H313	H	0.450939	-0.496946	-0.383792
H314	H	0.950939	0.003054	0.116208
O315	O	0.892924	-1.073282	-0.411527
O316	O	1.392924	-0.573282	0.088473
C317	C	0.907656	-1.055943	-0.478998
C318	C	1.407656	-0.555943	0.021002
H319	H	0.961718	-1.036459	-0.482465
H320	H	1.461718	-0.536459	0.017535
H321	H	0.871340	-1.014936	-0.496652
H322	H	1.371340	-0.514936	0.003348
C323	C	0.833378	-1.142648	-0.519911
C324	C	1.333378	-0.642648	-0.019911
C325	C	0.899780	-1.118723	-0.524171
C326	C	1.399780	-0.618723	-0.024171
H327	H	0.828516	-1.181372	-0.547777
H328	H	1.328516	-0.681372	-0.047777
H329	H	0.823450	-1.154328	-0.474455
H330	H	1.323450	-0.654328	0.025545
H331	H	0.803122	-1.108469	-0.534621
H332	H	1.303122	-0.608469	-0.034621
H333	H	0.930033	-1.152899	-0.509453
H334	H	1.430033	-0.652899	-0.009453
H335	H	0.909713	-1.107050	-0.569626
H336	H	1.409713	-0.607050	-0.069626
H337	H	1.056623	-0.583698	-0.247654
H338	H	1.556623	-0.083698	0.252346
O339	O	0.230778	-0.411477	-0.411313
O340	O	0.730778	0.088523	0.088687
C341	C	0.160809	-0.402200	-0.402047
C342	C	0.660809	0.097800	0.097953
H343	H	0.151167	-0.349936	-0.379977
H344	H	0.651167	0.150064	0.120023
H345	H	0.140714	-0.442301	-0.365932
H346	H	0.640714	0.057699	0.134068
C347	C	0.136390	-0.472690	-0.497632
C348	C	0.636390	0.027310	0.002368
C349	C	0.124547	-0.408496	-0.470530
C350	C	0.624547	0.091504	0.029470
H351	H	0.114021	-0.476577	-0.539874
H352	H	0.614021	0.023423	-0.039874
H353	H	0.183530	-0.478942	-0.503873
H354	H	0.683530	0.021058	-0.003873
H355	H	0.119644	-0.506100	-0.467530
H356	H	0.619644	-0.006100	0.032470
H357	H	0.141300	-0.375089	-0.500628
H358	H	0.641300	0.124911	-0.000628
H359	H	0.077409	-0.402239	-0.464295
H360	H	0.577409	0.097761	0.035705
H361	H	0.720436	-0.404707	-0.404496
H362	H	1.220436	0.095293	0.095504
O363	O	0.230983	-0.240574	-0.240949
O364	O	0.730983	0.259426	0.259051
C365	C	0.277333	-0.202320	-0.202799
C366	C	0.777333	0.297680	0.297201
H367	H	0.327735	-0.200008	-0.230521
H368	H	0.827735	0.299992	0.269479
H369	H	0.284818	-0.227032	-0.151345
H370	H	0.784818	0.272968	0.348655
C371	C	0.187864	-0.133112	-0.159134
C372	C	0.687864	0.366888	0.340866
C373	C	0.249766	-0.130268	-0.193185
C374	C	0.749766	0.369732	0.306815
H375	H	0.170858	-0.088668	-0.153200
H376	H	0.670858	0.411332	0.346800
H377	H	0.156636	-0.158886	-0.184834
H378	H	0.656636	0.341114	0.315166
H379	H	0.194110	-0.153709	-0.116260
H380	H	0.694110	0.346291	0.383740
H381	H	0.243518	-0.109680	-0.236061
H382	H	0.743518	0.390320	0.263939
H383	H	0.280993	-0.104489	-0.167492
H384	H	0.780993	0.395511	0.332508
H385	H	0.364676	-0.404723	-0.404528
H386	H	0.864676	0.095277	0.095472
O387	O	0.370301	-0.240724	-0.240920
O388	O	0.870301	0.259276	0.259080
C389	C	0.411142	-0.279196	-0.197118
C390	C	0.911142	0.220804	0.302882
H391	H	0.421727	-0.330518	-0.220897
H392	H	0.921727	0.169482	0.279103
H393	H	0.383871	-0.286573	-0.146950
H394	H	0.883871	0.213427	0.353050
C395	C	0.465292	-0.178891	-0.155709
C396	C	0.965292	0.321109	0.344291
C397	C	0.478298	-0.241924	-0.184918
C398	C	0.978298	0.258076	0.315082
H399	H	0.506716	-0.155900	-0.148181
H400	H	1.006716	0.344100	0.351819
H401	H	0.437775	-0.152971	-0.185218
H402	H	0.937775	0.347029	0.314782
H403	H	0.442564	-0.185048	-0.113906
H404	H	0.942564	0.314952	0.386094
H405	H	0.501017	-0.235766	-0.226724
H406	H	1.001017	0.264234	0.273276
H407	H	0.505820	-0.267842	-0.155416
H408	H	1.005820	0.232158	0.344584
O409	O	1.063557	-0.240618	-0.579048
O410	O	1.563557	0.259382	-0.079048
C411	C	1.101802	-0.202417	-0.625420
C412	C	1.601802	0.297583	-0.125420
H413	H	1.074086	-0.200062	-0.675803
H414	H	1.574086	0.299938	-0.175803
H415	H	1.153194	-0.227205	-0.632943
H416	H	1.653194	0.272795	-0.132943
C417	C	1.145637	-0.133280	-0.535973
C418	C	1.645637	0.366720	-0.035973
C419	C	1.111593	-0.130382	-0.597853
C420	C	1.611593	0.369618	-0.097853
H421	H	1.151680	-0.088846	-0.518968
H422	H	1.651680	0.411154	-0.018968
H423	H	1.119873	-0.159018	-0.504731
H424	H	1.619873	0.340982	-0.004731
H425	H	1.188460	-0.153939	-0.542250
H426	H	1.688460	0.346061	-0.042250
H427	H	1.068768	-0.109731	-0.591573
H428	H	1.568768	0.390269	-0.091573
H429	H	1.137350	-0.104639	-0.629094
H430	H	1.637350	0.395361	-0.129094
O431	O	1.063452	-0.240570	-0.718320
O432	O	1.563452	0.259430	-0.218320
C433	C	1.024946	-0.196847	-0.759215
C434	C	1.524946	0.303153	-0.259215
H435	H	0.971636	-0.192676	-0.737904
H436	H	1.471636	0.307324	-0.237904
H437	H	1.022613	-0.217752	-0.812787
H438	H	1.522613	0.282248	-0.312787
C439	C	1.123525	-0.131607	-0.786486
C440	C	1.623525	0.368393	-0.286486
C441	C	1.058051	-0.126479	-0.760307
C442	C	1.558051	0.373521	-0.260307
H443	H	1.143947	-0.088201	-0.787163
H444	H	1.643947	0.411799	-0.287163
H445	H	1.149469	-0.161065	-0.758936
H446	H	1.649469	0.338935	-0.258936
H447	H	1.121572	-0.149030	-0.831126
H448	H	1.621572	0.350970	-0.331126
H449	H	1.060006	-0.109065	-0.715665
H450	H	1.560006	0.390935	-0.215665
H451	H	1.032109	-0.097017	-0.787850
H452	H	1.532109	0.402983	-0.287850
H453	H	1.056795	-0.247370	-1.068504
H454	H	1.556795	0.252630	-0.568504
H455	H	0.899580	-0.404495	-0.712674
H456	H	1.399580	0.095505	-0.212674
H457	H	0.899554	-0.404523	-0.584429
H458	H	1.399554	0.095477	-0.084429
