data_functionalizedCrystal
_audit_creation_method	'MofGen! by Chris Wilmer'
_symmetry_space_group_name_H-M	'P1'
_symmetry_Int_Tables_number	1
_symmetry_cell_setting	triclinic
loop_
_symmetry_equiv_pos_as_xyz
  x,y,z
_cell_length_a	16.625546
_cell_length_b	10.685912
_cell_length_c	10.686551
_cell_angle_alpha	98.411230
_cell_angle_beta	85.590142
_cell_angle_gamma	85.613067
loop_
_atom_site_label
_atom_site_type_symbol
_atom_site_fract_x
_atom_site_fract_y
_atom_site_fract_z
Zn1	Zn	-0.180765	-1.995772	-0.866778
Zn2	Zn	-0.326838	-1.979317	-0.654493
Zn3	Zn	-0.203203	-1.767191	-0.638228
Zn4	Zn	-0.326756	-1.783439	-0.850393
O5	O	-0.259391	-1.881430	-0.752473
O6	O	-0.190786	-2.171227	-0.852281
O7	O	-0.319862	-1.937493	-0.474701
O8	O	-0.087388	-1.797600	-0.668595
O9	O	-0.298105	-2.159138	-0.696317
O10	O	-0.070903	-1.965537	-0.836510
O11	O	-0.229028	-1.781645	-0.462751
O12	O	-0.228948	-1.591709	-0.652708
O13	O	-0.297965	-1.825291	-1.030201
O14	O	-0.319722	-1.603646	-0.808585
O15	O	-0.190707	-1.981291	-1.042238
O16	O	-0.439666	-1.953247	-0.680429
O17	O	-0.439606	-1.809336	-0.824357
C18	C	-0.276762	-1.551618	-0.727104
C19	C	-0.284211	-1.410526	-0.716282
C20	C	-0.468891	-1.881306	-0.752410
C21	C	-0.558507	-1.881372	-0.752435
C22	C	-0.886664	-1.881604	-0.752584
C23	C	-0.795361	-1.881535	-0.752546
C24	C	-0.722589	-1.881487	-0.752509
C25	C	-0.631279	-1.881421	-0.752472
C26	C	-0.049069	-1.881591	-0.752566
C27	C	0.040557	-1.881660	-0.752605
C28	C	-0.241824	-1.906939	-1.083566
C29	C	-0.234338	-1.917810	-1.224658
C30	C	-0.241947	-1.212529	-0.777929
C31	C	-0.234500	-1.353621	-0.788748
C32	C	-0.276827	-1.856093	-0.422673
C33	C	-0.284072	-1.845469	-0.281601
H34	H	-0.332466	-1.351304	-0.645960
H35	H	-0.332381	-1.775222	-1.222413
C36	C	-0.169301	-1.433631	-0.883753
N37	N	-0.120194	-1.493895	-0.955310
H38	H	-0.186032	-1.988070	-1.283854
