data_functionalizedCrystal
_audit_creation_method	'MofGen! by Chris Wilmer'
_symmetry_space_group_name_H-M	'P1'
_symmetry_Int_Tables_number	1
_symmetry_cell_setting	triclinic
loop_
_symmetry_equiv_pos_as_xyz
  x,y,z
_cell_length_a	19.377372
_cell_length_b	19.377369
_cell_length_c	14.809374
_cell_angle_alpha	78.661537
_cell_angle_beta	87.767910
_cell_angle_gamma	62.069167
loop_
_atom_site_label
_atom_site_type_symbol
_atom_site_fract_x
_atom_site_fract_y
_atom_site_fract_z
Zr1	Zr	0.435931	0.938903	-0.001384
O2	O	0.331609	1.033929	-0.090623
O3	O	0.485328	0.808715	0.000935
O4	O	0.477335	0.929360	-0.143465
O5	O	0.326096	0.933074	0.196163
O6	O	0.572474	0.961829	-0.156666
O7	O	0.339603	0.913285	0.053777
O8	O	0.586773	0.746018	0.101640
O9	O	0.311797	1.148885	-0.062142
O10	O	0.556354	0.899517	0.022322
O11	O	0.475273	0.890054	0.138436
O12	O	0.465862	1.032098	-0.031577
O13	O	0.384781	1.022634	0.084536
Zr14	Zr	0.566126	1.022248	0.204652
Zr15	Zr	0.587667	0.990688	-0.022438
Zr16	Zr	0.414390	0.970464	0.225706
Zr17	Zr	0.404334	1.122244	0.044041
Zr18	Zr	0.597723	0.838908	0.159228
O19	O	0.516729	1.152436	0.202333
O20	O	0.547358	1.107560	-0.120560
O21	O	0.300980	1.078805	0.232269
O22	O	0.670448	0.927222	0.293892
O23	O	0.701077	0.882346	-0.029001
O24	O	0.454699	0.853591	0.323828
O25	O	0.675961	1.028078	0.007105
O26	O	0.524722	1.031791	0.346733
O27	O	0.429583	0.999322	0.359934
O28	O	0.662454	1.047866	0.149492
O29	O	0.432407	1.190047	-0.078877
O30	O	0.569650	0.771105	0.282146
O31	O	0.690260	0.812266	0.265411
O32	O	0.707382	0.787180	0.084904
O33	O	0.294675	1.173972	0.118364
O34	O	0.415284	1.215133	0.101629
O35	O	0.536195	0.929054	0.234845
O36	O	0.617276	0.938517	0.118732
O37	O	0.526784	1.071097	0.064833
O38	O	0.445702	1.061634	0.180946
C39	C	0.540553	0.751245	0.044816
C40	C	0.553967	0.673412	0.025532
C41	C	0.386739	0.392566	0.265418
C42	C	0.399433	0.319383	0.247360
C43	C	0.484076	0.329271	0.126147
C44	C	0.471391	0.402455	0.144198
C45	C	0.422722	0.434097	0.213834
C46	C	0.507374	0.443985	0.092613
C47	C	0.494687	0.517165	0.110659
C48	C	0.446018	0.548813	0.180290
C49	C	0.410035	0.507276	0.231880
C50	C	0.556039	0.412345	0.022973
C51	C	0.592022	0.453876	-0.028611
C52	C	0.579340	0.527053	-0.010561
C53	C	0.530671	0.558702	0.059070
C54	C	0.615323	0.568591	-0.062151
C55	C	0.602637	0.641770	-0.044104
C56	C	0.517984	0.631881	0.077116
C57	C	0.311230	0.915801	0.127970
C58	C	0.246814	0.893817	0.136908
C59	C	-0.201215	1.167533	0.025626
C60	C	-0.261731	1.146858	0.034033
C61	C	-0.167255	1.008454	0.090299
C62	C	-0.106730	1.029119	0.081901
C63	C	-0.123716	1.108659	0.049563
C64	C	-0.029231	0.970245	0.105839
C65	C	0.031289	0.990907	0.097436
C66	C	0.014310	1.070443	0.065097
C67	C	-0.063196	1.129322	0.041161
C68	C	-0.012245	0.890704	0.138171
C69	C	0.065253	0.831830	0.162108
C70	C	0.125774	0.852492	0.153712
C71	C	0.108796	0.932029	0.121373
C72	C	0.203281	0.793614	0.177648
C73	C	0.263801	0.814276	0.169246
C74	C	0.169316	0.952691	0.112970
C75	C	0.690827	1.045350	0.075299
C76	C	0.755243	1.067334	0.066361
C77	C	0.527974	0.941098	-0.182421
C78	C	0.537119	0.927699	-0.278826
C79	C	0.461504	1.209907	0.158453
C80	C	0.448090	1.287740	0.177737
C81	C	0.496306	0.987495	-0.348545
C82	C	0.505757	0.973648	-0.448186
C83	C	0.474083	1.020053	0.385689
C84	C	0.464938	1.033452	0.482095
C85	C	0.730351	0.816019	0.018480
C86	C	0.808181	0.760170	-0.009742
C87	C	0.513607	0.790722	0.328871
C88	C	0.517876	0.726288	0.405992
C89	C	0.703405	0.855497	0.302535
C90	C	0.772090	0.813046	0.370719
C91	C	0.298651	1.105654	-0.099267
C92	C	0.229967	1.148105	-0.167450
C93	C	0.271706	1.145132	0.184788
C94	C	0.193876	1.200981	0.213010
C95	C	0.488450	1.170429	-0.125602
C96	C	0.484181	1.234863	-0.202724
C97	C	0.812931	0.713584	-0.073329
C98	C	0.886055	0.661113	-0.099865
C99	C	0.954428	0.655226	-0.062806
C100	C	0.949675	0.701819	0.000785
C101	C	0.876552	0.754292	0.027314
C102	C	0.551680	0.716387	0.492544
C103	C	0.555686	0.655855	0.565020
C104	C	0.525893	0.605220	0.550940
C105	C	0.492084	0.615125	0.464380
C106	C	0.488073	0.675660	0.391908
C107	C	0.846675	0.798053	0.342128
C108	C	0.911217	0.758177	0.406187
C109	C	0.901173	0.733290	0.498835
C110	C	0.826580	0.748288	0.527427
C111	C	0.762039	0.788168	0.463370
C112	C	0.155380	1.163107	-0.138857
C113	C	0.090834	1.203006	-0.202911
C114	C	0.100878	1.227896	-0.295558
C115	C	0.175472	1.212894	-0.324151
C116	C	0.240015	1.173001	-0.260097
C117	C	0.189125	1.247573	0.276590
C118	C	0.116000	1.300061	0.303106
C119	C	0.047627	1.305951	0.266045
C120	C	0.052381	1.259355	0.202457
C121	C	0.125504	1.206873	0.175938
C122	C	0.513982	1.285482	-0.188617
C123	C	0.509986	1.346021	-0.261077
C124	C	0.476182	1.355944	-0.347641
C125	C	0.446381	1.305318	-0.361747
C126	C	0.450383	1.244777	-0.289290
H127	H	0.370126	0.285572	0.289369
H128	H	0.460549	0.683710	0.321435
H129	H	0.701311	0.800368	0.486661
F130	F	0.130549	1.157284	0.108272
H131	H	0.529163	0.555932	0.609960
H132	H	0.426111	1.203566	-0.300788
F133	F	-0.149186	0.923804	0.124713
H134	H	0.467827	0.573889	0.452930
F135	F	0.990598	0.742220	0.375739
H136	H	0.953733	0.700818	0.550986
H137	H	0.583219	0.647801	0.635493
H138	H	0.422998	1.094901	-0.503833
F139	F	0.535869	0.295590	0.052035
F140	F	0.549963	1.274935	-0.096495
H141	H	0.631647	0.428106	-0.085312
H142	H	0.300746	1.160785	-0.283390
H143	H	0.370403	0.533040	0.288585
F144	F	0.032178	1.270353	-0.363721
H145	H	0.757266	0.718375	-0.103522
H146	H	0.326903	0.766338	0.188756
H147	H	0.854869	0.818310	0.266692
F148	F	0.334944	0.426242	0.339538
H149	H	0.244790	1.242785	0.306781
H150	H	0.566363	0.352760	0.008278
F151	F	0.891097	0.611531	-0.167541
H152	H	0.112145	1.337993	0.354884
F153	F	0.591941	0.847387	-0.297223
H154	H	0.478352	0.657645	0.133821
H155	H	-0.011910	1.348688	0.287646
H156	H	0.435686	0.608402	0.194979
H157	H	0.147188	1.142840	-0.063424
F158	F	-0.219293	1.252192	-0.008781
F159	F	0.815902	0.721797	0.626035
H160	H	0.575942	0.757611	0.504026
H161	H	1.013965	0.612494	-0.084415
H162	H	0.654944	0.542822	-0.118854
H163	H	0.155479	1.017465	0.086668
F164	F	0.186150	1.239388	-0.422758
F165	F	0.011454	1.218962	-0.172463
H166	H	1.005354	0.697016	0.030952
F167	F	-0.020395	1.265630	0.163023
F168	F	0.541703	1.399896	-0.246044
F169	F	0.871508	0.803865	0.094998
H170	H	0.418858	1.313407	-0.432237
H171	H	0.631937	0.675585	-0.086111
F172	F	0.078722	1.092434	0.056151
H173	H	0.472928	1.405244	-0.406633
H174	H	-0.077033	1.194096	0.014858
H175	H	-0.324836	1.194806	0.014535
H176	H	0.454371	1.048940	-0.334467
H177	H	0.079074	0.767068	0.188435
F178	F	0.221349	0.708963	0.212053
F179	F	-0.076657	0.868713	0.147104
H180	H	0.547700	0.912201	-0.462259
