data_functionalizedCrystal
_audit_creation_method	'MofGen! by Chris Wilmer'
_symmetry_space_group_name_H-M	'P1'
_symmetry_Int_Tables_number	1
_symmetry_cell_setting	triclinic
loop_
_symmetry_equiv_pos_as_xyz
  x,y,z
_cell_length_a	29.839134
_cell_length_b	17.640280
_cell_length_c	17.640968
_cell_angle_alpha	114.317439
_cell_angle_beta	78.764696
_cell_angle_gamma	101.206663
loop_
_atom_site_label
_atom_site_type_symbol
_atom_site_fract_x
_atom_site_fract_y
_atom_site_fract_z
Zn1	Zn	0.759681	0.233925	-0.399943
Zn2	Zn	0.759644	0.399593	-0.234304
Zn3	Zn	0.671920	0.261803	-0.262116
Zn4	Zn	0.697176	0.371684	-0.372063
O5	O	0.722105	0.316751	-0.317106
O6	O	0.822548	0.255913	-0.377999
O7	O	0.737422	0.404662	-0.122659
O8	O	0.673007	0.142787	-0.303706
O9	O	0.822521	0.377630	-0.256305
O10	O	0.737485	0.122304	-0.404967
O11	O	0.672972	0.303429	-0.143093
O12	O	0.612398	0.276367	-0.276672
O13	O	0.716052	0.330063	-0.491095
O14	O	0.630954	0.357096	-0.357450
O15	O	0.761975	0.228851	-0.511578
O16	O	0.761912	0.511209	-0.229271
O17	O	0.716017	0.490705	-0.330482
C18	C	0.605374	0.316728	-0.317054
C19	C	0.555440	0.316734	-0.317047
C20	C	0.741715	0.530854	-0.273851
C21	C	0.750148	0.622443	-0.255374
C22	C	0.741835	0.273234	-0.532078
C23	C	0.750243	0.254690	-0.623686
C24	C	0.255477	0.358878	-0.359087
C25	C	0.067810	0.358894	-0.359119
O26	O	0.051770	0.394694	-0.394836
N27	N	0.034672	0.316769	-0.317162
C28	C	0.048453	0.274633	-0.275199
O29	O	0.015960	0.238796	-0.239520
C30	C	0.236119	0.274612	-0.275173
C31	C	0.269256	0.316747	-0.317125
C32	C	0.288613	0.401008	-0.401037
C33	C	0.335527	0.401008	-0.401025
C34	C	0.349305	0.358877	-0.359063
C35	C	0.316170	0.316746	-0.317113
C36	C	0.249899	0.232472	-0.233215
C37	C	0.296820	0.232469	-0.233214
C38	C	0.329956	0.274603	-0.275166
C39	C	0.376862	0.274615	-0.275139
N40	N	0.410000	0.316740	-0.317095
C41	C	0.396222	0.358871	-0.359058
C42	C	-0.050075	0.274648	-0.275215
C43	C	-0.096991	0.274654	-0.275220
C44	C	-0.077630	0.358914	-0.359141
C45	C	-0.030713	0.358912	-0.359131
C46	C	-0.016936	0.316772	-0.317171
C47	C	0.494744	0.358867	-0.359028
C48	C	0.541661	0.358865	-0.359009
C49	C	0.522297	0.274602	-0.275092
C50	C	0.475383	0.274607	-0.275107
C51	C	0.461609	0.316741	-0.317081
O52	O	0.392936	0.238826	-0.239449
O53	O	0.428721	0.394686	-0.394747
C54	C	0.208563	0.358879	-0.359099
C55	C	0.175428	0.316748	-0.317150
C56	C	0.189206	0.274617	-0.275188
C57	C	0.128511	0.316754	-0.317155
C58	C	0.114733	0.358885	-0.359117
C59	C	0.147871	0.401010	-0.401074
C60	C	0.194785	0.401009	-0.401061
C61	C	0.156068	0.232492	-0.233231
C62	C	0.109155	0.232497	-0.233246
C63	C	0.095376	0.274628	-0.275208
C64	C	0.839292	0.316775	-0.317159
C65	C	0.889231	0.316785	-0.317182
C66	C	0.702433	0.101809	-0.360548
C67	C	0.694050	0.010213	-0.379061
C68	C	0.658255	0.870487	-0.457775
C69	C	0.666177	0.956554	-0.440386
C70	C	0.714013	0.977819	-0.335102
C71	C	0.706097	0.891751	-0.352484
C72	C	0.678217	0.838092	-0.413821
C73	C	0.726059	0.859356	-0.308530
C74	C	0.718141	0.773297	-0.325909
C75	C	0.690261	0.719633	-0.387241
C76	C	0.670299	0.752033	-0.431199
C77	C	0.753936	0.913018	-0.247190
C78	C	0.773898	0.880623	-0.203236
C79	C	0.765983	0.794561	-0.220618
C80	C	0.738103	0.740897	-0.281950
C81	C	0.785946	0.762161	-0.176660
C82	C	0.778028	0.676102	-0.194038
C83	C	0.730186	0.654838	-0.299328
C84	C	0.658365	0.457183	-0.871649
C85	C	0.666274	0.439747	-0.957731
C86	C	0.714089	0.334365	-0.979048
C87	C	0.706182	0.351789	-0.892967
C88	C	0.678320	0.413200	-0.839274
C89	C	0.726138	0.307806	-0.860591
C90	C	0.718233	0.325232	-0.774517
C91	C	0.690374	0.386641	-0.720818
C92	C	0.670416	0.430626	-0.753200
C93	C	0.754002	0.246399	-0.914285
C94	C	0.773957	0.202416	-0.881909
C95	C	0.766051	0.219837	-0.795834
C96	C	0.738191	0.281247	-0.742136
C97	C	0.786008	0.175853	-0.763453
C98	C	0.778104	0.193279	-0.677379
C99	C	0.730287	0.298673	-0.656061
C100	C	0.702473	0.360040	-0.102983
C101	C	0.694131	0.378352	-0.011423
H102	H	0.568640	0.393179	-0.393172
Cl103	Cl	-0.032763	0.221667	-0.222460
Cl104	Cl	0.803193	0.137988	-0.636674
H105	H	0.483535	0.393174	-0.393210
H106	H	0.760438	0.232215	-0.984371
H107	H	0.796644	0.152418	-0.925637
H108	H	0.808642	0.805864	-0.126714
H109	H	0.362504	0.435316	-0.435189
H110	H	0.136645	0.435317	-0.435238
H111	H	-0.123968	0.240354	-0.241048
Cl112	Cl	0.808948	0.948086	-0.126132
Cl113	Cl	0.067502	0.179525	-0.180497
H114	H	0.635556	0.826794	-0.507727
Cl115	Cl	0.173381	0.179520	-0.180475
H116	H	0.808697	0.125858	-0.807181
H117	H	0.649926	0.982923	-0.476194
H118	H	0.222927	0.198164	-0.199050
H119	H	0.794283	0.649727	-0.158245
Cl120	Cl	0.695140	0.587373	-0.376446
Cl121	Cl	0.695256	0.375869	-0.588556
Cl122	Cl	0.680427	0.611405	-0.409279
Cl123	Cl	-0.094960	0.411871	-0.411900
Cl124	Cl	0.763909	1.021202	-0.225373
Cl125	Cl	0.749115	0.257168	-1.046554
H126	H	0.277401	0.435316	-0.435212
Cl127	Cl	0.635254	0.684568	-0.508317
H128	H	0.448402	0.240300	-0.240944
Cl129	Cl	0.314136	0.179489	-0.180462
Cl130	Cl	0.010940	0.411881	-0.411875
H131	H	0.533524	0.240303	-0.240924
H132	H	0.683941	0.400832	-0.650731
Cl133	Cl	0.236436	0.453980	-0.453806
H134	H	0.736712	1.021520	-0.285159
Cl135	Cl	0.635385	0.507822	-0.685694
Cl136	Cl	0.623333	0.534380	-0.804144
H137	H	0.650022	0.475569	-0.984086
