data_functionalizedCrystal
_audit_creation_method	'MofGen! by Chris Wilmer'
_symmetry_space_group_name_H-M	'P1'
_symmetry_Int_Tables_number	1
_symmetry_cell_setting	triclinic
loop_
_symmetry_equiv_pos_as_xyz
  x,y,z
_cell_length_a	19.376997
_cell_length_b	21.606444
_cell_length_c	21.606444
_cell_angle_alpha	90.001025
_cell_angle_beta	68.963174
_cell_angle_gamma	68.965214
loop_
_atom_site_label
_atom_site_type_symbol
_atom_site_fract_x
_atom_site_fract_y
_atom_site_fract_z
Zr1	Zr	0.619929	0.735414	0.057972
O2	O	0.738095	0.663114	-0.014334
O3	O	0.501767	0.739183	0.061745
O4	O	0.619930	0.765710	-0.040852
O5	O	0.619930	0.636586	0.190115
O6	O	0.619926	0.867564	-0.040847
O7	O	0.619932	0.636587	0.088263
O8	O	0.408555	0.820112	0.142680
O9	O	0.831301	0.684038	0.006589
O10	O	0.550364	0.839026	0.085579
O11	O	0.550366	0.763013	0.161587
O12	O	0.689487	0.794245	0.040793
O13	O	0.689488	0.718233	0.116801
Zr14	Zr	0.619919	0.897856	0.220423
Zr15	Zr	0.619922	0.897858	0.057980
Zr16	Zr	0.619925	0.735412	0.220415
Zr17	Zr	0.768582	0.768785	0.091341
Zr18	Zr	0.471265	0.864485	0.187054
O19	O	0.738080	0.894086	0.216651
O20	O	0.738086	0.894089	-0.014323
O21	O	0.738090	0.663112	0.216639
O22	O	0.501753	0.970156	0.292729
O23	O	0.501758	0.970158	0.061756
O24	O	0.501762	0.739181	0.292718
O25	O	0.619918	0.996684	0.088280
O26	O	0.619918	0.867560	0.319247
O27	O	0.619922	0.765706	0.319242
O28	O	0.619916	0.996682	0.190133
O29	O	0.831296	0.813159	0.006595
O30	O	0.408552	0.820110	0.271800
O31	O	0.408547	0.949232	0.271807
O32	O	0.408550	0.949233	0.142686
O33	O	0.831298	0.684037	0.135709
O34	O	0.831293	0.813158	0.135716
O35	O	0.550361	0.839025	0.237602
O36	O	0.550360	0.915037	0.161595
O37	O	0.689482	0.870256	0.116808
O38	O	0.689483	0.794244	0.192816
C39	C	0.433981	0.774893	0.097458
C40	C	0.370874	0.760726	0.083292
C41	C	0.333274	0.696178	0.018739
C42	C	0.392567	0.709495	0.032056
C43	C	0.289872	0.798664	0.121229
C44	C	0.230569	0.785357	0.107917
C45	C	0.252277	0.734112	0.056672
C46	C	0.149572	0.823291	0.145850
C47	C	0.090274	0.809982	0.132542
C48	C	0.111974	0.758739	0.081301
C49	C	0.192980	0.720804	0.043364
C50	C	0.127866	0.874532	0.197098
C51	C	0.046868	0.912466	0.235031
C52	C	-0.012431	0.899161	0.221720
C53	C	0.009269	0.847918	0.170479
C54	C	-0.093436	0.937097	0.259657
C55	C	-0.152734	0.923788	0.246349
C56	C	-0.050029	0.834609	0.157171
C57	C	0.619932	0.613442	0.139188
C58	C	0.619935	0.544480	0.139184
C59	C	0.547293	0.144563	0.162589
C60	C	0.547295	0.209359	0.162583
C61	C	0.619918	0.218379	0.139202
C62	C	0.692544	0.162599	0.115820
C63	C	0.692541	0.097805	0.115822
C64	C	0.692558	0.423905	0.115809
C65	C	0.692555	0.488705	0.115810
C66	C	0.547312	0.535459	0.162569
C67	C	0.547309	0.470665	0.162572
C68	C	0.619934	0.414891	0.139187
C69	C	0.619931	0.344632	0.139193
C70	C	0.619923	0.288636	0.139200
C71	C	0.805867	0.858377	0.180938
C72	C	0.868974	0.872544	0.195104
C73	C	0.619928	0.816637	-0.063994
C74	C	0.619930	0.816638	-0.132955
C75	C	0.619916	1.019828	0.139207
C76	C	0.619913	1.088790	0.139211
C77	C	0.619929	0.872750	-0.165351
C78	C	0.619924	0.872751	-0.230145
C79	C	0.619924	0.816638	-0.262545
C80	C	0.619923	0.760522	-0.230144
C81	C	0.619923	0.760524	-0.165349
C82	C	0.619922	0.760515	-0.491454
C83	C	0.619924	0.760518	-0.556255
C84	C	0.619923	0.872743	-0.556250
C85	C	0.619923	0.872744	-0.491455
C86	C	0.619917	0.816631	-0.459059
C87	C	0.619921	0.816631	-0.388801
C88	C	0.619925	0.816635	-0.332803
C89	C	0.619919	0.816633	0.342389
C90	C	0.619918	0.816632	0.411351
C91	C	0.433973	0.978086	0.097468
C92	C	0.370863	1.032881	0.083305
C93	C	0.433977	0.774891	0.300649
C94	C	0.370868	0.760723	0.355445
C95	C	0.433969	0.978084	0.300659
C96	C	0.370857	1.032878	0.355458
C97	C	0.805879	0.655186	-0.022264
C98	C	0.868991	0.600392	-0.077063
C99	C	0.805875	0.655184	0.180928
C100	C	0.868985	0.600389	0.195090
C101	C	0.805871	0.858379	-0.022254
C102	C	0.868980	0.872547	-0.077049
C103	C	0.341228	1.018936	0.036968
C104	C	0.281938	1.070417	0.023647
C105	C	0.252279	1.135842	0.056667
C106	C	0.281920	1.149787	0.103007
C107	C	0.341213	1.098307	0.116323
C108	C	0.341229	0.793747	0.420863
C109	C	0.281940	0.780434	0.472357
C110	C	0.252287	0.734101	0.458430
C111	C	0.281931	0.701073	0.393006
C112	C	0.341224	0.714383	0.341514
C113	C	0.341219	1.098294	0.341517
C114	C	0.281927	1.149787	0.393001
C115	C	0.252271	1.135862	0.458426
C116	C	0.281915	1.070439	0.472367
C117	C	0.341210	1.018948	0.420884
C118	C	0.898636	0.534977	-0.063120
C119	C	0.957947	0.483488	-0.114600
C120	C	0.987606	0.497415	-0.180024
C121	C	0.957958	0.562837	-0.193966
C122	C	0.898653	0.614325	-0.142485
C123	C	0.898626	0.614335	0.241422
C124	C	0.957932	0.562858	0.254729
C125	C	0.987593	0.497433	0.221706
C126	C	0.957950	0.483488	0.175369
C127	C	0.898648	0.534966	0.162060
C128	C	0.898614	0.918884	-0.063103
C129	C	0.957904	0.932209	-0.114584
C130	C	0.987562	0.899192	-0.180011
C131	C	0.957922	0.852853	-0.193958
C132	C	0.898629	0.839532	-0.142477
H133	H	0.458522	0.678587	0.001175
F134	F	0.372775	0.843064	0.435699
F135	F	0.769855	0.498301	0.090923
H136	H	-0.111099	0.978815	0.301384
F137	F	0.189181	0.719942	0.513240
H138	H	0.874476	0.945772	-0.009832
H139	H	0.257812	1.059050	-0.014085
F140	F	0.023775	0.967000	0.289570
H141	H	0.257779	0.663348	0.381676
F142	F	0.469997	0.134971	0.187478
H143	H	0.257760	1.059109	0.525642
F144	F	0.372743	0.949326	0.435731
H145	H	-0.218687	0.954677	0.277239
H146	H	1.035842	0.910045	-0.221923
F147	F	0.470003	0.268716	0.187465
H148	H	0.488172	0.463326	0.181614
H149	H	0.874480	0.667602	0.268319
H150	H	0.982079	0.825974	-0.247235
F151	F	0.250398	0.815592	0.541981
H152	H	0.488178	0.580879	0.181608
F153	F	0.769852	0.364553	0.090929
H154	H	0.365348	0.687491	0.288248
F155	F	0.216081	0.666271	-0.011184
F156	F	0.867102	0.790208	-0.157330
F157	F	0.769835	0.172200	0.090941
F158	F	0.867080	0.520140	0.006505
H159	H	0.982031	0.969940	-0.103215
H160	H	0.350953	0.654455	-0.022995
F161	F	-0.026927	0.780077	0.102622
F162	F	0.372774	1.113131	0.271891
H163	H	0.619924	0.918435	-0.582633
H164	H	0.063688	0.747902	0.070468
H165	H	0.176153	0.885361	0.207936
F166	F	0.266779	0.853197	0.175768
H167	H	0.619922	0.918442	-0.256521
F168	F	0.769833	0.038445	0.090936
H169	H	0.982109	0.430213	0.148486
H170	H	0.619933	0.918442	-0.138977
F171	F	0.867104	0.520112	0.112750
H172	H	0.619926	0.918436	-0.465079
F173	F	0.189173	1.190625	0.042488
H174	H	0.982058	0.574224	0.292462
H175	H	0.257763	1.203062	0.129889
F176	F	0.250385	1.219410	0.378150
F177	F	0.619924	0.700791	-0.590736
H178	H	0.619919	0.714825	-0.465083
F179	F	0.989488	0.413866	-0.099749
H180	H	0.619918	0.714834	-0.256526
F181	F	1.050707	0.442652	0.235879
H182	H	0.619922	0.714832	-0.138973
H183	H	1.035896	0.455483	-0.221937
F184	F	0.372785	0.949310	0.001815
F185	F	0.372742	1.113157	0.165646
H186	H	0.203989	1.177795	0.500341
F187	F	0.867103	0.683943	-0.157336
F188	F	0.989530	0.577648	-0.263600
