data_functionalizedCrystal
_audit_creation_method	'MofGen! by Chris Wilmer'
_symmetry_space_group_name_H-M	'P1'
_symmetry_Int_Tables_number	1
_symmetry_cell_setting	triclinic
loop_
_symmetry_equiv_pos_as_xyz
  x,y,z
_cell_length_a	19.077236
_cell_length_b	21.295417
_cell_length_c	19.076919
_cell_angle_alpha	92.267699
_cell_angle_beta	89.887323
_cell_angle_gamma	92.322335
loop_
_atom_site_label
_atom_site_type_symbol
_atom_site_fract_x
_atom_site_fract_y
_atom_site_fract_z
Zn1	Zn	1.058269	-0.228507	-0.440524
Zn2	Zn	1.558269	0.271493	0.059476
Zn3	Zn	1.062899	-0.329387	-0.323010
Zn4	Zn	1.562899	0.170613	0.176990
Zn5	Zn	0.945484	-0.228177	-0.318305
Zn6	Zn	1.445484	0.271823	0.181695
Zn7	Zn	0.940717	-0.337786	-0.435748
Zn8	Zn	1.440717	0.162214	0.064252
O9	O	1.001842	-0.280964	-0.379397
O10	O	1.501842	0.219036	0.120603
O11	O	1.157217	-0.238513	-0.428904
O12	O	1.657217	0.261487	0.071096
O13	O	1.051256	-0.312309	-0.224055
O14	O	1.551256	0.187691	0.275945
O15	O	0.960503	-0.140130	-0.334547
O16	O	1.460503	0.359870	0.165453
O17	O	1.160619	-0.312629	-0.342567
O18	O	1.660619	0.187371	0.157433
O19	O	1.043365	-0.140373	-0.424342
O20	O	1.543365	0.359627	0.075658
O21	O	0.964992	-0.237950	-0.220598
O22	O	1.464992	0.262050	0.279402
O23	O	0.846518	-0.246093	-0.329915
O24	O	1.346518	0.253907	0.170085
O25	O	0.952378	-0.326942	-0.534712
O26	O	1.452378	0.173058	-0.034712
O27	O	0.843015	-0.326622	-0.416200
O28	O	1.343015	0.173378	0.083800
O29	O	1.038742	-0.246656	-0.538221
O30	O	1.538742	0.253344	-0.038221
O31	O	1.046634	-0.418592	-0.337935
O32	O	1.546634	0.081408	0.162065
O33	O	0.956867	-0.424762	-0.420763
O34	O	1.456867	0.075238	0.079237
C35	C	0.819270	-0.287234	-0.372029
C36	C	1.319270	0.212766	0.127971
C37	C	0.741164	-0.289932	-0.368894
C38	C	1.241164	0.210068	0.131106
C39	C	0.702696	-0.252677	-0.412441
C40	C	1.202696	0.247323	0.087559
C41	C	0.629308	-0.255209	-0.409489
C42	C	1.129308	0.244791	0.090511
C43	C	0.594388	-0.294999	-0.362993
C44	C	1.094388	0.205001	0.137007
C45	C	0.632861	-0.332255	-0.319442
C46	C	1.132861	0.167745	0.180558
C47	C	0.706248	-0.329719	-0.322390
C48	C	1.206248	0.170281	0.177610
C49	C	0.375093	-0.306709	-0.349343
C50	C	0.875093	0.193291	0.150657
C51	C	0.301700	-0.309243	-0.346399
C52	C	0.801700	0.190757	0.153601
C53	C	0.298153	-0.232196	-0.436445
C54	C	0.798153	0.267804	0.063555
C55	C	0.371541	-0.229667	-0.439393
C56	C	0.871541	0.270333	0.060607
C57	C	0.410008	-0.266921	-0.395839
C58	C	0.910008	0.233079	0.104161
N59	N	0.519373	-0.297589	-0.359976
N60	N	1.019373	0.202411	0.140024
N61	N	0.485022	-0.264327	-0.398853
N62	N	0.985022	0.235673	0.101147
C63	C	1.001754	-0.444518	-0.379358
C64	C	1.501754	0.055482	0.120642
C65	C	1.001780	-0.514485	-0.379367
C66	C	1.501780	-0.014485	0.120633
C67	C	1.044899	-0.547423	-0.426154
C68	C	1.544899	-0.047423	0.073846
C69	C	1.044923	-0.613165	-0.426172
C70	C	1.544923	-0.113165	0.073828
C71	C	1.001836	-0.645967	-0.379391
C72	C	1.501836	-0.145967	0.120609
C73	C	0.958708	-0.613021	-0.332601
C74	C	1.458708	-0.113021	0.167399
C75	C	0.958680	-0.547280	-0.332589
C76	C	1.458680	-0.047280	0.167411
N77	N	0.999002	-0.747112	-0.317682
N78	N	1.499002	-0.247112	0.182318
N79	N	0.999033	-0.809563	-0.317696
N80	N	1.499033	-0.309563	0.182304
C81	C	1.001917	-0.844040	-0.379426
C82	C	1.501917	-0.344040	0.120574
N83	N	1.004782	-0.813706	-0.441144
N84	N	1.504782	-0.313706	0.058856
N85	N	1.004755	-0.751249	-0.441130
N86	N	1.504755	-0.251249	0.058870
C87	C	1.001861	-0.717251	-0.379400
C88	C	1.501861	-0.217251	0.120600
C89	C	1.045064	-0.948263	-0.426237
C90	C	1.545064	-0.448263	0.073763
C91	C	1.045083	-1.014006	-0.426256
C92	C	1.545083	-0.514006	0.073744
C93	C	0.958872	-1.013861	-0.332679
C94	C	1.458872	-0.513861	0.167321
C95	C	0.958849	-0.948118	-0.332666
C96	C	1.458849	-0.448118	0.167334
C97	C	1.001949	-0.915323	-0.379444
C98	C	1.501949	-0.415323	0.120556
C99	C	1.185128	-0.274671	-0.386793
C100	C	1.685128	0.225329	0.113207
C101	C	1.263233	-0.271989	-0.389946
C102	C	1.763233	0.228011	0.110054
C103	C	0.994512	-0.287773	-0.562676
C104	C	1.494512	0.212227	-0.062676
C105	C	0.991388	-0.290674	-0.640778
C106	C	1.491388	0.209326	-0.140778
C107	C	1.001949	-0.116772	-0.379452
C108	C	1.501949	0.383228	0.120548
C109	C	1.001995	-0.046803	-0.379476
C110	C	1.501995	0.453197	0.120524
C111	C	1.034884	-0.250238	-0.679299
C112	C	1.534884	0.249762	-0.179299
C113	C	1.031940	-0.252962	-0.752684
C114	C	1.531940	0.247038	-0.252684
C115	C	0.985504	-0.296126	-0.787547
C116	C	1.485504	0.203874	-0.287547
C117	C	0.942004	-0.336563	-0.749021
C118	C	1.442004	0.163437	-0.249021
C119	C	0.944944	-0.333836	-0.675637
C120	C	1.444944	0.166164	-0.175637
C121	C	0.971884	-0.308762	-1.006826
C122	C	1.471884	0.191238	-0.506826
C123	C	0.968949	-0.311488	-1.080215
C124	C	1.468949	0.188512	-0.580215
C125	C	1.058885	-0.227886	-1.083873
C126	C	1.558885	0.272114	-0.583873
C127	C	1.061824	-0.225165	-1.010488
C128	C	1.561824	0.274835	-0.510488
C129	C	1.018321	-0.265600	-0.971968
C130	C	1.518321	0.234400	-0.471968
N131	N	0.982496	-0.298912	-0.862559
N132	N	1.482496	0.201088	-0.362559
N133	N	1.021327	-0.262810	-0.896957
N134	N	1.521327	0.237190	-0.396957
C135	C	1.009184	-0.274136	-0.196833
C136	C	1.509184	0.225864	0.303167
C137	C	1.012444	-0.271052	-0.118736
C138	C	1.512444	0.228948	0.381264
H139	H	0.731122	-0.220278	-0.450305
H140	H	1.231122	0.279722	0.049695
Cl141	Cl	0.754607	-0.376556	-0.267644
Cl142	Cl	1.254607	0.123444	0.232356
H143	H	1.079992	-0.520723	-0.464245
H144	H	1.579992	-0.020723	0.035755
Cl145	Cl	0.917195	-0.359596	-0.958410
Cl146	Cl	1.417195	0.140404	-0.458410
H147	H	0.904192	-0.371706	-0.777412
H148	H	1.404192	0.128294	-0.277412
Cl149	Cl	0.580951	-0.208374	-0.464238
Cl150	Cl	1.080951	0.291626	0.035762
Cl151	Cl	1.099139	-0.654581	-0.484990
Cl152	Cl	1.599139	-0.154581	0.015010
Cl153	Cl	0.904536	-0.654256	-0.273794
Cl154	Cl	1.404536	-0.154256	0.226206
Cl155	Cl	0.904468	-0.505871	-0.273766
Cl156	Cl	1.404468	-0.005871	0.226234
Cl157	Cl	1.113568	-0.177054	-1.132302
Cl158	Cl	1.613568	0.322946	-0.632302
Cl159	Cl	1.120204	-0.170900	-0.966665
Cl160	Cl	1.620204	0.329100	-0.466665
Cl161	Cl	0.890259	-0.384670	-0.627210
Cl162	Cl	1.390259	0.115330	-0.127210
H163	H	0.399968	-0.197268	-0.477258
H164	H	0.899968	0.302732	0.022742
H165	H	1.080196	-1.040823	-0.464359
H166	H	1.580196	-0.540823	0.035641
Cl167	Cl	0.423442	-0.353529	-0.294574
Cl168	Cl	0.923442	0.146471	0.205426
Cl169	Cl	0.249791	-0.185365	-0.491194
Cl170	Cl	0.749791	0.314635	0.008806
Cl171	Cl	0.904702	-1.055090	-0.273870
Cl172	Cl	1.404702	-0.555090	0.226130
Cl173	Cl	0.257801	-0.359284	-0.287959
Cl174	Cl	0.757801	0.140716	0.212041
Cl175	Cl	1.099242	-0.907032	-0.485046
Cl176	Cl	1.599242	-0.407032	0.014954
Cl177	Cl	0.588961	-0.382273	-0.260986
Cl178	Cl	1.088961	0.117727	0.239014
H179	H	0.923740	-0.921298	-0.294564
H180	H	1.423740	-0.421298	0.205436
Cl181	Cl	1.093267	-0.195976	-0.635479
Cl182	Cl	1.593267	0.304024	-0.135479
H183	H	1.067361	-0.220036	-0.784045
H184	H	1.567361	0.279964	-0.284045
Cl185	Cl	0.910563	-0.365751	-1.124042
Cl186	Cl	1.410563	0.134249	-0.624042
