data_functionalizedCrystal
_audit_creation_method	'MofGen! by Chris Wilmer'
_symmetry_space_group_name_H-M	'P1'
_symmetry_Int_Tables_number	1
_symmetry_cell_setting	triclinic
loop_
_symmetry_equiv_pos_as_xyz
  x,y,z
_cell_length_a	13.635800
_cell_length_b	15.866870
_cell_length_c	17.078481
_cell_angle_alpha	66.318152
_cell_angle_beta	99.306161
_cell_angle_gamma	77.344085
loop_
_atom_site_label
_atom_site_type_symbol
_atom_site_fract_x
_atom_site_fract_y
_atom_site_fract_z
V1	V	1.998838	-0.132377	0.286074
O2	O	1.983573	0.006591	0.240725
O3	O	1.983639	-0.262702	0.322495
O4	O	1.964215	-0.130239	0.393332
O5	O	2.003131	-0.126788	0.169398
V6	V	2.240836	-0.115766	0.267457
O7	O	2.128948	-0.168812	0.326913
O8	O	2.335825	-0.079330	0.226618
O9	O	2.144433	0.014559	0.231036
O10	O	2.314799	-0.254734	0.312806
O11	O	2.295242	-0.121355	0.384133
O12	O	2.163856	-0.117904	0.160199
V13	V	2.498838	-0.132377	0.286074
O14	O	2.483573	0.006591	0.240725
O15	O	2.483639	-0.262702	0.322495
O16	O	2.464215	-0.130239	0.393332
O17	O	2.503131	-0.126788	0.169398
V18	V	2.740836	-0.115766	0.267457
O19	O	2.628948	-0.168812	0.326913
O20	O	2.835825	-0.079330	0.226618
O21	O	2.644433	0.014559	0.231036
O22	O	2.814799	-0.254734	0.312806
O23	O	2.795242	-0.121355	0.384133
O24	O	2.663856	-0.117904	0.160199
C25	C	1.908666	-0.294476	0.327885
C26	C	1.936812	-0.401017	0.358378
C27	C	1.958749	-0.683357	0.075526
C28	C	1.985199	-0.783474	0.104205
C29	C	2.013452	-0.810688	0.257466
C30	C	1.986999	-0.710571	0.228798
C31	C	1.959650	-0.646913	0.137827
C32	C	1.987900	-0.674127	0.291100
C33	C	1.961454	-0.574019	0.262435
C34	C	1.934107	-0.510355	0.171468
C35	C	1.933204	-0.546805	0.109163
C36	C	2.015256	-0.737788	0.382071
C37	C	2.016157	-0.701343	0.444373
C38	C	1.989704	-0.601233	0.415708
C39	C	1.962357	-0.537570	0.324741
C40	C	1.990607	-0.564784	0.478014
C41	C	1.964161	-0.464676	0.449349
C42	C	1.935912	-0.437462	0.296076
C43	C	1.883889	-0.125505	0.418243
C44	C	1.896282	-0.124620	0.506179
C45	C	2.051077	0.046328	0.225645
C46	C	2.012549	0.152869	0.195157
C47	C	2.075854	-0.122641	0.135284
C48	C	2.053079	-0.123521	0.047346
C49	C	2.408666	-0.294476	0.327885
C50	C	2.436812	-0.401017	0.358378
C51	C	2.383889	-0.125505	0.418243
C52	C	2.396282	-0.124620	0.506179
C53	C	1.993101	-0.128988	0.552932
C54	C	2.004740	-0.128156	0.635557
C55	C	1.919561	-0.122962	0.671430
C56	C	1.822733	-0.118591	0.624669
C57	C	1.811094	-0.119416	0.542043
C58	C	1.944612	-0.119975	0.917959
C59	C	1.956261	-0.119153	1.000593
C60	C	2.138266	-0.128716	1.011474
C61	C	2.126620	-0.129547	0.928849
C62	C	2.029793	-0.125170	0.882093
N63	N	1.931456	-0.122115	0.755887
N64	N	2.017896	-0.126011	0.797635
C65	C	2.551077	0.046328	0.225645
C66	C	2.512549	0.152869	0.195157
C67	C	2.575854	-0.122641	0.135284
C68	C	2.553079	-0.123521	0.047346
C69	C	2.541052	-0.455934	0.378090
C70	C	2.567515	-0.556044	0.406755
C71	C	2.489736	-0.601235	0.415701
C72	C	2.385488	-0.546312	0.395989
C73	C	2.359028	-0.446205	0.367331
C74	C	2.493107	-0.128979	0.552915
C75	C	2.504762	-0.128135	0.635535
C76	C	2.419594	-0.122938	0.671421
C77	C	2.322761	-0.118576	0.624678
C78	C	2.311105	-0.119414	0.542056
C79	C	2.580803	0.207784	0.175448
C80	C	2.544612	0.307894	0.146787
C81	C	2.440167	0.353085	0.137843
C82	C	2.371908	0.298162	0.157552
C83	C	2.408098	0.198056	0.186206
C84	C	2.456015	-0.128706	0.011478
C85	C	2.434597	-0.129522	-0.071154
C86	C	2.510249	-0.125159	-0.117912
C87	C	2.607321	-0.119971	-0.082040
C88	C	2.628734	-0.119148	0.000588
H89	H	1.912579	-0.428842	0.148131
H90	H	1.732248	-0.115835	0.503967
C91	C	1.965147	-0.425286	0.517123
C92	C	1.994730	-0.502459	0.602924
C93	C	1.995642	-0.466210	0.665380
H94	H	2.013649	-0.389938	0.512689
H95	H	1.897185	-0.383703	0.505728
H96	H	2.062683	-0.544025	0.614315
H97	H	1.946239	-0.537813	0.607386
H98	H	1.927679	-0.424627	0.653985
H99	H	2.044143	-0.430863	0.660938
H100	H	2.015704	-0.518565	0.723602
H101	H	2.062468	-0.133224	0.523734
C102	C	2.109847	-0.133046	0.686472
C103	C	2.145436	-0.215661	0.769150
C104	C	2.242255	-0.220189	0.816077
H105	H	2.159015	-0.136315	0.653387
H106	H	2.102207	-0.076808	0.695321
H107	H	2.153083	-0.271885	0.760298
H108	H	2.096297	-0.212411	0.802259
H109	H	2.234614	-0.163951	0.824926
H110	H	2.291414	-0.223454	0.782984
H111	H	2.266410	-0.276237	0.872182
C112	C	2.206084	-0.114895	0.491329
C113	C	2.217715	-0.197938	0.478520
C114	C	2.120992	-0.193823	0.431805
H115	H	2.156978	-0.111745	0.524489
H116	H	2.181695	-0.058925	0.435157
H117	H	2.242089	-0.253892	0.534683
H118	H	2.266802	-0.201104	0.445351
H119	H	2.096603	-0.137853	0.375633
H120	H	2.071893	-0.190671	0.464970
H121	H	2.128872	-0.250161	0.423101
H122	H	2.322168	-0.583122	0.403278
H123	H	2.600206	0.352599	0.130744
H124	H	2.604396	-0.419152	0.370805
C125	C	2.694225	0.158922	0.185050
C126	C	2.746228	0.228462	0.161623
C127	C	2.850710	0.183497	0.170438
H128	H	2.727343	0.111366	0.245008
H129	H	2.696705	0.128815	0.146945
H130	H	2.743754	0.258553	0.199728
H131	H	2.713142	0.276022	0.101666
H132	H	2.853189	0.153390	0.132333
H133	H	2.883817	0.135942	0.230397
H134	H	2.886004	0.230674	0.154537
H135	H	2.355551	-0.133747	-0.100349
C136	C	2.401097	0.461777	0.106767
C137	C	2.483244	0.500184	0.091447
C138	C	2.447304	0.600304	0.062833
H139	H	2.345782	0.491469	0.053220
H140	H	2.376325	0.473948	0.151309
H141	H	2.508002	0.488021	0.046908
H142	H	2.538567	0.470520	0.144982
H143	H	2.422531	0.612475	0.107375
H144	H	2.391987	0.629986	0.009288
H145	H	2.503036	0.626374	0.052443
C146	C	2.734146	-0.113686	0.039700
C147	C	2.784246	-0.195754	0.121736
C148	C	2.881351	-0.190750	0.157793
H149	H	2.776252	-0.111253	0.000122
H150	H	2.723921	-0.057056	0.048105
H151	H	2.794475	-0.252369	0.113328
H152	H	2.742171	-0.198203	0.161335
H153	H	2.871126	-0.134119	0.166198
H154	H	2.923447	-0.188315	0.118208
H155	H	2.915352	-0.246426	0.213462
C156	C	2.243367	-0.133607	1.062400
C157	C	2.278948	-0.216225	1.145075
C158	C	2.375758	-0.220753	1.192016
H159	H	2.292544	-0.136871	1.029321
H160	H	2.235718	-0.077371	1.071253
H161	H	2.286603	-0.272447	1.136218
H162	H	2.229799	-0.212980	1.178176
H163	H	2.368108	-0.164517	1.200869
H164	H	2.424926	-0.224014	1.158930
H165	H	2.399907	-0.276804	1.248119
C166	C	2.333839	0.138596	0.207615
C167	C	2.234639	0.199604	0.193671
C168	C	2.166201	0.144868	0.213394
H169	H	2.328964	0.108036	0.170017
H170	H	2.359577	0.090648	0.268063
H171	H	2.208907	0.247534	0.133233
H172	H	2.239480	0.230165	0.231266
H173	H	2.191939	0.096921	0.273841
H174	H	2.161335	0.114310	0.175794
H175	H	2.098889	0.186252	0.203943
H176	H	2.583616	-0.131691	0.673585
C177	C	2.585603	-0.134813	0.514002
C178	C	2.607864	-0.218410	0.501827
C179	C	2.693078	-0.223818	0.465997
H180	H	2.568950	-0.079267	0.458297
H181	H	2.644971	-0.137337	0.553675
H182	H	2.548510	-0.215878	0.462156
H183	H	2.624536	-0.273971	0.557519
H184	H	2.752446	-0.226342	0.505670
H185	H	2.676416	-0.168267	0.410295
H186	H	2.708199	-0.280542	0.457739
C187	C	2.258566	0.347404	0.147836
C188	C	2.241506	0.446821	0.118551
C189	C	2.137114	0.492213	0.109609
H190	H	2.213630	0.337831	0.105702
H191	H	2.244266	0.320339	0.203778
H192	H	2.255795	0.473878	0.062617
H193	H	2.286417	0.456422	0.160674
H194	H	2.122815	0.465147	0.165551
H195	H	2.092187	0.482633	0.067476
H196	H	2.125528	0.559670	0.089747
H197	H	1.753378	-0.114356	0.653881
H198	H	2.253422	-0.114346	0.653909
H199	H	2.038432	-0.753187	0.518442
C200	C	2.689492	-0.115444	-0.132766
C201	C	2.715019	-0.198482	-0.145581
C202	C	2.790721	-0.194360	-0.192296
H203	H	2.662616	-0.059490	-0.188934
H204	H	2.750418	-0.112291	-0.099581
H205	H	2.654105	-0.201626	-0.178767
H206	H	2.741911	-0.254449	-0.089429
H207	H	2.851647	-0.191206	-0.159111
H208	H	2.763838	-0.138403	-0.248461
H209	H	2.808058	-0.250703	-0.200990
H210	H	1.865781	-0.116445	0.879915
H211	H	1.910918	-0.494970	0.035084
C212	C	1.906437	-0.368388	0.197309
C213	C	1.990259	-0.389117	0.163138
C214	C	1.963157	-0.325497	0.072166
H215	H	1.846778	-0.376013	0.166953
H216	H	1.890869	-0.303540	0.189136
H217	H	2.005813	-0.453950	0.171303
H218	H	2.049926	-0.381486	0.193468
H219	H	1.947589	-0.260648	0.063993
H220	H	1.903497	-0.333127	0.041818
H221	H	2.020028	-0.339547	0.048971
H222	H	2.195984	-0.133775	0.899647
C223	C	1.929145	-0.614393	-0.023280
C224	C	1.934040	-0.667734	-0.071711
C225	C	1.906800	-0.604239	-0.162725
H226	H	1.860013	-0.571622	-0.041220
H227	H	1.976496	-0.577920	-0.034228
H228	H	1.886691	-0.704190	-0.060769
H229	H	2.003163	-0.710502	-0.053798
H230	H	1.954151	-0.567766	-0.173673
H231	H	1.837669	-0.561471	-0.180657
H232	H	1.910127	-0.640422	-0.195597
C233	C	2.680750	-0.615485	0.428057
C234	C	2.743185	-0.554468	0.414051
C235	C	2.847497	-0.609184	0.433651
H236	H	2.704050	-0.663458	0.488483
H237	H	2.685858	-0.646008	0.390411
H238	H	2.738082	-0.523960	0.451697
H239	H	2.719918	-0.506496	0.353630
H240	H	2.852606	-0.639708	0.396005
H241	H	2.870786	-0.657155	0.494077
H242	H	2.889871	-0.567791	0.424143
H243	H	1.984460	-0.813141	0.053464
C244	C	2.518675	-0.709928	0.446780
C245	C	2.626611	-0.748335	0.462100
C246	C	2.653312	-0.848456	0.490716
H247	H	2.500189	-0.739618	0.500326
H248	H	2.482066	-0.722100	0.402238
H249	H	2.663209	-0.736171	0.506639
H250	H	2.645124	-0.718673	0.408566
H251	H	2.616702	-0.860627	0.446175
H252	H	2.634819	-0.878136	0.544261
H253	H	2.726546	-0.874526	0.501107
H254	H	2.035727	-0.862532	0.331535
H255	H	2.429099	-0.122258	0.738698
H256	H	1.886891	-0.114920	1.029796
H257	H	2.274144	-0.401498	0.351279
H258	H	2.036790	-0.819301	0.405407
H259	H	2.012888	-0.616629	0.552083
H260	H	2.394402	-0.132259	0.049538
H261	H	2.492804	-0.125842	-0.185187
