data_functionalizedCrystal
_audit_creation_method	'MofGen! by Chris Wilmer'
_symmetry_space_group_name_H-M	'P1'
_symmetry_Int_Tables_number	1
_symmetry_cell_setting	triclinic
loop_
_symmetry_equiv_pos_as_xyz
  x,y,z
_cell_length_a	15.944499
_cell_length_b	15.944493
_cell_length_c	14.421503
_cell_angle_alpha	89.991648
_cell_angle_beta	90.010077
_cell_angle_gamma	83.476327
loop_
_atom_site_label
_atom_site_type_symbol
_atom_site_fract_x
_atom_site_fract_y
_atom_site_fract_z
O1	O	1.114533	0.108119	0.077155
O2	O	0.869975	0.121521	0.077143
O3	O	0.998958	-0.007460	0.077157
O4	O	0.985551	0.237099	0.077141
O5	O	0.998937	-0.007445	-0.077066
O6	O	0.869955	0.121535	-0.077080
O7	O	1.114513	0.108134	-0.077068
Cu8	Cu	0.992232	0.114836	-0.091156
Cu9	Cu	0.992256	0.114818	0.091231
O10	O	0.985530	0.237114	-0.077082
C11	C	0.838670	0.120979	0.000030
C12	C	0.745422	0.119334	0.000026
C13	C	0.453871	0.194269	0.000035
C14	C	0.514918	0.155309	0.076080
C15	C	0.409787	0.113358	0.000048
C16	C	0.514884	0.155301	-0.075973
C17	C	0.574695	0.116299	0.000036
C18	C	0.469606	0.074376	0.076155
C19	C	0.469565	0.074380	-0.075965
C20	C	0.530595	0.035361	0.000098
C21	C	0.314787	0.111666	0.000056
C22	C	0.669694	0.117984	0.000035
C23	C	0.998400	-0.038747	0.000049
C24	C	0.996757	-0.131995	0.000061
C25	C	1.072679	-0.367769	0.000047
C26	C	1.031747	-0.418337	0.076085
C27	C	0.993713	-0.302716	0.000050
C28	C	1.031709	-0.418299	-0.075967
C29	C	0.990778	-0.467625	0.000034
C30	C	0.952802	-0.352055	0.076150
C31	C	0.952775	-0.352013	-0.075971
C32	C	0.911785	-0.402548	0.000086
C33	C	0.995405	-0.207716	0.000059
C34	C	0.989079	-0.562622	0.000031
C35	C	1.145818	0.108675	0.000047
C36	C	1.239066	0.110320	0.000057
C37	C	0.986088	0.268401	0.000027
C38	C	0.987731	0.361650	0.000022
N39	N	0.992221	0.114848	-0.219437
C40	C	0.933071	0.174955	-0.530897
C41	C	0.916091	0.099287	-0.469065
C42	C	0.992256	0.114814	-0.591326
C43	C	1.009180	0.190497	-0.469065
C44	C	0.992236	0.114835	-0.408605
C45	C	0.975237	0.039108	-0.530855
C46	C	1.068359	0.130367	-0.530860
C47	C	1.051410	0.054644	-0.469056
C48	C	0.992265	0.114804	-0.696588
C49	C	0.992228	0.114837	-0.303346
N50	N	0.992274	0.114800	0.219512
H51	H	1.140699	-0.352153	0.000127
H52	H	1.023514	0.254494	-0.441940
C53	C	0.408816	0.284976	0.000125
C54	C	0.424136	0.345786	-0.079482
C55	C	0.379079	0.436490	-0.079386
C56	C	0.318703	0.466384	0.000316
C57	C	0.303380	0.405573	0.079929
C58	C	0.348436	0.314868	0.079834
H59	H	0.468832	0.323658	-0.138488
H60	H	0.390423	0.481507	-0.138322
H61	H	0.285350	0.533529	0.000387
H62	H	0.258684	0.427701	0.138935
H63	H	0.337093	0.269852	0.138769
H64	H	1.132706	0.143545	-0.558027
H65	H	1.101455	0.003739	-0.442075
H66	H	0.535018	0.189527	0.140361
H67	H	0.960839	-0.024900	-0.557884
C68	C	0.442646	0.028177	0.163106
C69	C	0.348845	0.018089	0.179200
C70	C	0.321882	-0.028106	0.266151
C71	C	0.388721	-0.064212	0.337007
C72	C	0.482528	-0.054124	0.320915
C73	C	0.509491	-0.007930	0.233965
H74	H	0.299361	0.044818	0.126747
H75	H	0.252439	-0.035573	0.278063
H76	H	0.368762	-0.098408	0.401373
H77	H	0.532012	-0.080853	0.373369
H78	H	0.578934	-0.000462	0.222053
C79	C	0.575448	-0.055427	0.000162
C80	C	0.523187	-0.130923	0.000982
C81	C	0.568040	-0.221709	0.001053
C82	C	0.665153	-0.237000	0.000304
C83	C	0.717419	-0.161502	-0.000516
C84	C	0.672567	-0.070715	-0.000587
H85	H	0.451293	-0.119606	0.001536
H86	H	0.529349	-0.277598	0.001660
H87	H	0.698356	-0.304206	0.000357
H88	H	0.789313	-0.172819	-0.001070
H89	H	0.711258	-0.014827	-0.001194
C90	C	0.442387	0.028187	-0.162810
C91	C	0.459939	0.062155	-0.260021
C92	C	0.432762	0.015968	-0.346874
C93	C	0.388033	-0.064187	-0.336517
C94	C	0.370478	-0.098159	-0.239303
C95	C	0.397655	-0.051972	-0.152449
H96	H	0.493052	0.121494	-0.267691
H97	H	0.445757	0.041117	-0.418839
H98	H	0.367914	-0.098377	-0.400812
H99	H	0.337365	-0.157498	-0.231632
H100	H	0.384660	-0.077120	-0.080485
C101	C	1.076808	-0.457464	0.162932
C102	C	1.082805	-0.553407	0.179255
C103	C	1.127873	-0.592531	0.266098
C104	C	1.166942	-0.535711	0.336617
C105	C	1.160946	-0.439763	0.320296
C106	C	1.115879	-0.400639	0.233454
H107	H	1.053883	-0.595473	0.127051
H108	H	1.132311	-0.663559	0.278179
H109	H	1.200304	-0.564673	0.400904
H110	H	1.189869	-0.397696	0.372501
H111	H	1.111440	-0.329611	0.221372
H112	H	0.919481	-0.323235	0.140503
C113	C	0.907752	-0.312861	-0.162820
C114	C	0.814385	-0.323903	-0.180468
C115	C	0.769371	-0.284749	-0.267326
C116	C	0.817722	-0.234553	-0.336536
C117	C	0.911094	-0.223508	-0.318890
C118	C	0.956109	-0.262663	-0.232032
H119	H	0.778588	-0.361063	-0.129233
H120	H	0.700250	-0.292925	-0.280389
H121	H	0.784400	-0.205568	-0.400834
H122	H	0.946892	-0.186348	-0.370125
H123	H	1.025229	-0.254487	-0.218969
C124	C	1.076762	-0.457376	-0.162813
C125	C	1.170551	-0.447609	-0.179490
C126	C	1.215611	-0.486684	-0.266330
C127	C	1.166883	-0.535524	-0.336493
C128	C	1.073089	-0.545293	-0.319818
C129	C	1.028028	-0.506218	-0.232978
H130	H	1.206628	-0.411453	-0.127549
H131	H	1.285044	-0.479453	-0.278673
H132	H	1.200239	-0.564450	-0.400777
H133	H	1.037012	-0.581449	-0.371759
H134	H	0.958595	-0.513450	-0.220635
H135	H	0.534943	0.189543	-0.140260
H136	H	0.843713	-0.418002	0.000124
H137	H	0.882996	0.225748	-0.558050
C138	C	0.829139	0.081517	-0.432385
C139	C	0.749771	0.141752	-0.456799
C140	C	0.662818	0.123988	-0.420123
C141	C	0.655233	0.045990	-0.359032
C142	C	0.734603	-0.014251	-0.334614
C143	C	0.821556	0.003513	-0.371291
H144	H	0.755384	0.199496	-0.502025
H145	H	0.604063	0.168583	-0.438199
H146	H	0.590865	0.032840	-0.331882
H147	H	0.728991	-0.071994	-0.289388
H148	H	0.880312	-0.041081	-0.353215
