data_functionalizedCrystal
_audit_creation_method	'MofGen! by Chris Wilmer'
_symmetry_space_group_name_H-M	'P1'
_symmetry_Int_Tables_number	1
_symmetry_cell_setting	triclinic
loop_
_symmetry_equiv_pos_as_xyz
  x,y,z
_cell_length_a	17.699083
_cell_length_b	14.044220
_cell_length_c	16.176319
_cell_angle_alpha	89.992517
_cell_angle_beta	89.998611
_cell_angle_gamma	88.235946
loop_
_atom_site_label
_atom_site_type_symbol
_atom_site_fract_x
_atom_site_fract_y
_atom_site_fract_z
O1	O	1.012346	0.119850	-0.068632
O2	O	1.512346	0.619850	0.431368
O3	O	0.793044	0.135443	-0.068659
O4	O	1.293044	0.635443	0.431341
O5	O	0.899403	-0.010330	-0.068638
O6	O	1.399403	0.489670	0.431362
O7	O	0.905987	0.265624	-0.068653
O8	O	1.405987	0.765624	0.431347
O9	O	0.899387	-0.010340	0.068855
O10	O	1.399387	0.489660	0.568855
O11	O	0.793027	0.135434	0.068834
O12	O	1.293027	0.635434	0.568834
O13	O	1.012330	0.119841	0.068861
O14	O	1.512330	0.619841	0.568861
Cu15	Cu	0.902677	0.127637	0.081402
Cu16	Cu	1.402677	0.627637	0.581402
Cu17	Cu	0.902696	0.127648	-0.081200
Cu18	Cu	1.402696	0.627648	0.418800
O19	O	0.905970	0.265614	0.068840
O20	O	1.405970	0.765614	0.568840
C21	C	0.764800	0.134880	0.000084
C22	C	1.264800	0.634880	0.500084
C23	C	0.680666	0.133204	0.000074
C24	C	1.180666	0.633204	0.500074
C25	C	0.896513	-0.045643	0.000109
C26	C	1.396513	0.454357	0.500109
C27	C	0.887917	-0.150849	0.000109
C28	C	1.387917	0.349151	0.500109
C29	C	0.637948	0.218769	0.000069
C30	C	1.137948	0.718769	0.500069
C31	C	0.558895	0.217189	0.000080
C32	C	1.058895	0.717189	0.500080
C33	C	0.522563	0.130041	0.000089
C34	C	1.022563	0.630041	0.500089
C35	C	0.565287	0.044469	0.000096
C36	C	1.065287	0.544469	0.500096
C37	C	0.644338	0.046050	0.000092
C38	C	1.144338	0.546050	0.500092
C39	C	0.246484	0.038089	0.000117
C40	C	0.746484	0.538089	0.500117
C41	C	0.167427	0.036514	0.000120
C42	C	0.667427	0.536514	0.500120
C43	C	0.161041	0.209227	0.000106
C44	C	0.661041	0.709227	0.500106
C45	C	0.240092	0.210809	0.000101
C46	C	0.740092	0.710809	0.500101
C47	C	0.282809	0.125237	0.000112
C48	C	0.782809	0.625237	0.500112
C49	C	0.368527	0.126952	0.000102
C50	C	0.868527	0.626952	0.500102
C51	C	0.436847	0.128325	0.000094
C52	C	0.936847	0.628325	0.500094
C53	C	0.872202	-0.343474	0.000095
C54	C	1.372202	0.156526	0.500095
C55	C	0.933168	-0.401248	0.000100
C56	C	1.433168	0.098752	0.500100
C57	C	0.924424	-0.508431	0.000092
C58	C	1.424424	-0.008431	0.500092
C59	C	0.880945	-0.236281	0.000102
C60	C	1.380945	0.263719	0.500102
C61	C	1.040574	0.120404	0.000116
C62	C	1.540574	0.620404	0.500116
C63	C	1.124707	0.122081	0.000121
C64	C	1.624707	0.622081	0.500121
C65	C	0.908860	0.300927	0.000091
C66	C	1.408860	0.800927	0.500091
C67	C	0.917456	0.406133	0.000086
C68	C	1.417456	0.906133	0.500086
N69	N	0.902668	0.127628	0.195767
N70	N	1.402668	0.627628	0.695767
N71	N	0.902710	0.127648	-0.195565
N72	N	1.402710	0.627648	0.304435
C73	C	0.949782	0.063106	0.239041
C74	C	1.449782	0.563106	0.739041
C75	C	0.949786	0.063105	0.325588
C76	C	1.449786	0.563105	0.825588
C77	C	0.902679	0.127632	0.368860
C78	C	1.402679	0.627632	0.868860
C79	C	0.855561	0.192157	0.325580
C80	C	1.355561	0.692157	0.825580
C81	C	0.855554	0.192153	0.239034
C82	C	1.355554	0.692153	0.739034
C83	C	0.855588	0.192175	0.674608
C84	C	1.355588	0.692175	1.174608
C85	C	0.855600	0.192176	0.761160
C86	C	1.355600	0.692176	1.261160
C87	C	0.949820	0.063127	0.761161
C88	C	1.449820	0.563127	1.261161
C89	C	0.949813	0.063123	0.674616
C90	C	1.449813	0.563123	1.174616
C91	C	0.902692	0.127644	0.631344
C92	C	1.402692	0.627644	1.131344
C93	C	0.902687	0.127643	0.537500
C94	C	1.402687	0.627643	1.037500
C95	C	0.902687	0.127638	0.462702
C96	C	1.402687	0.627638	0.962702
H97	H	0.524117	0.286865	0.000075
H98	H	1.024117	0.786865	0.500075
H99	H	0.991930	-0.370212	0.000052
H100	H	1.491930	0.129788	0.500052
C101	C	0.813740	0.249473	0.458245
C102	C	1.313740	0.749473	0.958245
C103	C	0.803782	0.263089	0.373143
C104	C	1.303782	0.763089	0.873143
H105	H	0.781777	0.293271	0.487605
H106	H	1.281777	0.793271	0.987605
H107	H	0.801253	0.186243	0.472438
H108	H	1.301253	0.686243	0.972438
H109	H	0.864944	0.259689	0.472410
H110	H	1.364944	0.759689	0.972410
H111	H	0.752579	0.252866	0.358977
H112	H	1.252579	0.752866	0.858977
H113	H	0.816264	0.326334	0.358945
H114	H	1.316264	0.826334	0.858945
C115	C	0.225837	0.381376	0.000098
C116	C	0.725837	0.881376	0.500098
C117	C	0.280028	0.306604	0.000094
C118	C	0.780028	0.806604	0.500094
H119	H	0.250493	0.440516	0.000102
H120	H	0.750493	0.940516	0.500102
H121	H	0.195139	0.377175	-0.047845
H122	H	0.695139	0.877175	0.452155
H123	H	0.195136	0.377155	0.048049
H124	H	0.695136	0.877155	0.548049
H125	H	0.310725	0.310821	-0.047860
H126	H	0.810725	0.810821	0.452140
H127	H	0.310739	0.310807	0.048042
H128	H	0.810739	0.810807	0.548042
C129	C	0.983194	-0.101019	0.787818
C130	C	1.483194	0.398981	1.287818
C131	C	1.001608	-0.007810	0.808729
C132	C	1.501608	0.492190	1.308729
H133	H	1.015169	-0.144809	0.817180
H134	H	1.515169	0.355191	1.317180
H135	H	0.932002	-0.111226	0.802012
H136	H	1.432002	0.388774	1.302012
H137	H	0.989935	-0.110240	0.730081
H138	H	1.489935	0.389760	1.230081
H139	H	0.994862	0.001413	0.866466
H140	H	1.494862	0.501413	1.366466
H141	H	1.052812	0.002401	0.794541
H142	H	1.552812	0.502401	1.294541
C143	C	0.847866	0.321186	0.577279
C144	C	1.347866	0.821186	1.077279
C145	C	0.803804	0.263111	0.627054
C146	C	1.303804	0.763111	1.127054
H147	H	0.815895	0.364981	0.547917
H148	H	1.315895	0.864981	1.047917
H149	H	0.881667	0.355216	0.611035
H150	H	1.381667	0.855216	1.111035
H151	H	0.875908	0.282747	0.539120
H152	H	1.375908	0.782747	1.039120
H153	H	0.775766	0.301551	0.665218
H154	H	1.275766	0.801551	1.165218
H155	H	0.769989	0.229079	0.593296
H156	H	1.269989	0.729079	1.093296
C157	C	0.799463	-0.484976	0.000093
C158	C	1.299463	0.015024	0.500093
C159	C	0.792879	-0.385364	0.000092
C160	C	1.292879	0.114636	0.500092
H161	H	0.750493	-0.510843	0.000099
H162	H	1.250493	-0.010843	0.500099
H163	H	0.826173	-0.505813	-0.047853
H164	H	1.326173	-0.005813	0.452147
H165	H	0.826180	-0.505827	0.048042
H166	H	1.326180	-0.005827	0.548042
H167	H	0.766167	-0.364513	-0.047860
H168	H	1.266167	0.135487	0.452140
H169	H	0.766158	-0.364518	0.048042
H170	H	1.266158	0.135482	0.548042
C171	C	0.181676	-0.134063	0.000153
C172	C	0.681676	0.365937	0.500153
C173	C	0.127489	-0.059286	0.000139
C174	C	0.627489	0.440714	0.500139
H175	H	0.157018	-0.193201	0.000169
H176	H	0.657018	0.306799	0.500169
H177	H	0.212374	-0.129861	-0.047793
H178	H	0.712374	0.370139	0.452207
H179	H	0.212377	-0.129846	0.048102
H180	H	0.712377	0.370154	0.548102
H181	H	0.096791	-0.063499	-0.047814
H182	H	0.596791	0.436501	0.452186
H183	H	0.096778	-0.063490	0.048089
H184	H	0.596778	0.436510	0.548089
H185	H	0.281255	-0.031590	0.000127
H186	H	0.781255	0.468410	0.500127
C187	C	0.623687	0.389335	0.000064
C188	C	1.123687	0.889335	0.500064
C189	C	0.677880	0.314567	0.000061
C190	C	1.177880	0.814567	0.500061
H191	H	0.648339	0.448477	0.000066
H192	H	1.148339	0.948477	0.500066
H193	H	0.592988	0.385131	-0.047878
H194	H	1.092988	0.885131	0.452122
H195	H	0.592987	0.385113	0.048016
H196	H	1.092987	0.885113	0.548016
H197	H	0.708577	0.318785	-0.047895
H198	H	1.208577	0.818785	0.452105
H199	H	0.708592	0.318773	0.048008
H200	H	1.208592	0.818773	0.548008
C201	C	0.037025	0.283508	0.000117
C202	C	0.537025	0.783508	0.500117
C203	C	0.114084	0.303293	0.000104
C204	C	0.614084	0.803293	0.500104
H205	H	0.008039	0.341580	0.000120
H206	H	0.508039	0.841580	0.500120
H207	H	0.025382	0.247775	-0.047822
H208	H	0.525382	0.747775	0.452178
H209	H	0.025392	0.247765	0.048073
H210	H	0.525392	0.747765	0.548073
H211	H	0.125717	0.339030	-0.047854
H212	H	0.625717	0.839030	0.452146
H213	H	0.125731	0.339041	0.048048
H214	H	0.625731	0.839041	0.548048
C215	C	1.042912	-0.064463	0.247745
C216	C	1.542912	0.435537	0.747745
C217	C	1.001562	-0.007827	0.191480
C218	C	1.501562	0.492173	0.691480
H219	H	1.074874	-0.108260	0.218383
H220	H	1.574874	0.391740	0.718383
H221	H	1.072796	-0.025054	0.281488
H222	H	1.572796	0.474946	0.781488
H223	H	1.009105	-0.098498	0.281512
H224	H	1.509105	0.401502	0.781512
H225	H	1.035369	0.026214	0.157717
H226	H	1.535369	0.526214	0.657717
H227	H	0.971675	-0.047241	0.157723
H228	H	1.471675	0.452759	0.657723
C229	C	0.957529	-0.065912	0.422920
C230	C	1.457529	0.434088	0.922920
C231	C	1.001579	-0.007819	0.373148
C232	C	1.501579	0.492181	0.873148
H233	H	0.989508	-0.109703	0.452275
H234	H	1.489508	0.390297	0.952275
H235	H	0.929483	-0.027490	0.461077
H236	H	1.429483	0.472510	0.961077
H237	H	0.923730	-0.099952	0.389157
H238	H	1.423730	0.400048	0.889157
H239	H	1.035375	0.026227	0.406912
H240	H	1.535375	0.526227	0.906912
H241	H	1.029638	-0.046246	0.334986
H242	H	1.529638	0.453754	0.834986
H243	H	0.817238	0.244723	0.796390
H244	H	1.317238	0.744723	1.296390
H245	H	0.535699	-0.026488	0.000116
H246	H	1.035699	0.473512	0.500116
H247	H	0.988174	0.010583	0.639387
H248	H	1.488174	0.510583	1.139387
C249	C	0.762426	0.319724	0.247720
C250	C	1.262426	0.819724	0.747720
C251	C	0.803769	0.263082	0.191465
C252	C	1.303769	0.763082	0.691465
H253	H	0.730458	0.363515	0.218351
H254	H	1.230458	0.863515	0.718351
H255	H	0.732548	0.280318	0.281484
H256	H	1.232548	0.780318	0.781484
H257	H	0.796237	0.353766	0.281468
H258	H	1.296237	0.853766	0.781468
H259	H	0.769958	0.229035	0.157721
H260	H	1.269958	0.729035	0.657721
H261	H	0.833649	0.302493	0.157687
H262	H	1.333649	0.802493	0.657687
C263	C	0.674129	-0.100671	-0.070587
C264	C	1.174129	0.399329	0.429413
C265	C	0.691300	-0.048004	0.000090
C266	C	1.191300	0.451996	0.500090
H267	H	0.703126	-0.158735	-0.070587
H268	H	1.203126	0.341265	0.429413
H269	H	0.621857	-0.114086	-0.070577
H270	H	1.121857	0.385914	0.429423
H271	H	0.685773	-0.064914	-0.118531
H272	H	1.185773	0.435086	0.381469
H273	H	0.679651	-0.083759	0.048034
H274	H	1.179651	0.416241	0.548034
H275	H	0.743584	-0.034592	0.000088
H276	H	1.243584	0.465408	0.500088
