data_functionalizedCrystal
_audit_creation_method	'MofGen! by Chris Wilmer'
_symmetry_space_group_name_H-M	'P1'
_symmetry_Int_Tables_number	1
_symmetry_cell_setting	triclinic
loop_
_symmetry_equiv_pos_as_xyz
  x,y,z
_cell_length_a	6.817900
_cell_length_b	7.190334
_cell_length_c	9.582860
_cell_angle_alpha	93.430591
_cell_angle_beta	68.793233
_cell_angle_gamma	119.388224
loop_
_atom_site_label
_atom_site_type_symbol
_atom_site_fract_x
_atom_site_fract_y
_atom_site_fract_z
V1	V	4.262317	0.664614	-0.204670
V2	V	4.762317	1.164614	0.295330
O3	O	4.204366	0.652365	0.012291
O4	O	4.704366	1.152365	0.512291
O5	O	4.251637	0.659682	-0.408189
O6	O	4.751637	1.159682	0.091811
O7	O	4.298669	0.954652	-0.200444
O8	O	4.798669	1.454652	0.299556
O9	O	4.157009	0.355353	-0.196891
O10	O	4.657009	0.855353	0.303109
V11	V	4.730076	0.627671	-0.178846
V12	V	5.230076	1.127671	0.321154
O13	O	4.558157	0.745652	-0.261317
O14	O	5.058157	1.245652	0.238683
O15	O	4.884434	0.546633	-0.122200
O16	O	5.384434	1.046633	0.377800
O17	O	4.517549	0.632603	0.024672
O18	O	5.017549	1.132603	0.524672
O19	O	4.905424	0.639921	-0.395808
O20	O	5.405424	1.139921	0.104192
O21	O	4.952782	0.936933	-0.186625
O22	O	5.452782	1.436933	0.313375
O23	O	4.470518	0.337633	-0.183072
O24	O	4.970518	0.837633	0.316928
C25	C	4.103072	0.649098	-0.457836
C26	C	4.603072	1.149098	0.042164
C27	C	4.176192	0.646998	-0.624208
C28	C	4.676192	1.146998	-0.124208
C29	C	4.163075	1.025358	-0.192830
C30	C	4.663075	1.525358	0.307170
C31	C	4.276419	1.266919	-0.190679
C32	C	4.776419	1.766919	0.309321
C33	C	4.329456	0.643182	0.074311
C34	C	4.829456	1.143182	0.574311
C35	C	4.235580	0.645295	0.240682
C36	C	4.735580	1.145295	0.740682
