data_functionalizedCrystal
_audit_creation_method	'MofGen! by Chris Wilmer'
_symmetry_space_group_name_H-M	'P1'
_symmetry_Int_Tables_number	1
_symmetry_cell_setting	triclinic
loop_
_symmetry_equiv_pos_as_xyz
  x,y,z
_cell_length_a	19.288864
_cell_length_b	18.366186
_cell_length_c	19.288857
_cell_angle_alpha	90.009717
_cell_angle_beta	83.134677
_cell_angle_gamma	90.012929
loop_
_atom_site_label
_atom_site_type_symbol
_atom_site_fract_x
_atom_site_fract_y
_atom_site_fract_z
O1	O	0.921340	0.060787	0.086652
O2	O	1.421340	0.560787	0.586652
O3	O	0.719079	0.060737	0.098340
O4	O	1.219079	0.560737	0.598340
O5	O	0.826057	0.060755	-0.008635
O6	O	1.326057	0.560755	0.491365
O7	O	0.814362	0.060769	0.193627
O8	O	1.314362	0.560769	0.693627
O9	O	0.826059	-0.060345	-0.008645
O10	O	1.326059	0.439655	0.491355
O11	O	0.719082	-0.060362	0.098330
O12	O	1.219082	0.439638	0.598330
O13	O	0.921343	-0.060313	0.086641
O14	O	1.421343	0.439687	0.586641
Zn15	Zn	0.820212	-0.079565	0.092484
Zn16	Zn	1.320212	0.420435	0.592484
Zn17	Zn	0.820209	0.079989	0.092498
Zn18	Zn	1.320209	0.579989	0.592498
O19	O	0.814365	-0.060330	0.193616
O20	O	1.314365	0.439670	0.693616
C21	C	0.693204	0.000181	0.097959
C22	C	1.193204	0.500181	0.597959
C23	C	0.616100	0.000162	0.096830
C24	C	1.116100	0.500162	0.596830
N25	N	0.820207	0.188880	0.092502
N26	N	1.320207	0.688880	0.592502
C27	C	0.825683	0.000204	-0.034516
C28	C	1.325683	0.500204	0.465484
C29	C	0.824556	0.000202	-0.111620
C30	C	1.324556	0.500202	0.388380
C31	C	0.571402	0.000178	0.159598
C32	C	1.071402	0.500178	0.659598
C33	C	0.498955	0.000186	0.158537
C34	C	0.998955	0.500186	0.658537
C35	C	0.471209	0.000193	0.094705
C36	C	0.971209	0.500193	0.594705
C37	C	0.515917	0.000172	0.031929
C38	C	1.015917	0.500172	0.531929
C39	C	0.588363	0.000157	0.032991
C40	C	1.088363	0.500157	0.532991
C41	C	0.362948	0.042640	0.044529
C42	C	0.862948	0.542640	0.544529
C43	C	0.290504	0.042660	0.043470
C44	C	0.790504	0.542660	0.543470
C45	C	0.247764	0.000236	0.091425
C46	C	0.747764	0.500236	0.591425
C47	C	0.277476	-0.042197	0.140453
C48	C	0.777476	0.457803	0.640453
C49	C	0.349922	-0.042213	0.141516
C50	C	0.849922	0.457787	0.641516
C51	C	0.392656	0.000209	0.093546
C52	C	0.892656	0.500209	0.593546
C53	C	0.124510	0.000260	0.153048
C54	C	0.624510	0.500260	0.653048
C55	C	0.052062	0.000263	0.151984
C56	C	0.552062	0.500263	0.651984
C57	C	0.069026	0.000257	0.025374
C58	C	0.569026	0.500257	0.525374
C59	C	0.141472	0.000246	0.026439
C60	C	0.641472	0.500246	0.526439
C61	C	0.169210	0.000251	0.090278
C62	C	0.669210	0.500251	0.590278
C63	C	0.947218	0.000245	0.087022
C64	C	1.447218	0.500245	0.587022
C65	C	1.024321	0.000269	0.088151
C66	C	1.524321	0.500269	0.588151
N67	N	0.820220	-0.188456	0.092474
N68	N	1.320220	0.311544	0.592474
C69	C	0.867661	0.226988	0.045225
C70	C	1.367661	0.726988	0.545225
C71	C	0.867667	0.303216	0.045224
C72	C	1.367667	0.803216	0.545224
C73	C	0.820207	0.341333	0.092492
C74	C	1.320207	0.841333	0.592492
C75	C	0.772750	0.303216	0.139778
C76	C	1.272750	0.803216	0.639778
C77	C	0.772750	0.226989	0.139782
C78	C	1.272750	0.726989	0.639782
C79	C	0.756920	0.462085	0.101637
C80	C	1.256920	0.962085	0.601637
C81	C	0.756919	0.538310	0.101628
C82	C	1.256919	1.038310	0.601628
C83	C	0.820208	0.576440	0.092482
C84	C	1.320208	1.076440	0.592482
C85	C	0.883500	0.538336	0.083331
C86	C	1.383500	1.038336	0.583331
C87	C	0.883500	0.462110	0.083335
C88	C	1.383500	0.962110	0.583335
C89	C	0.820203	0.423988	0.092493
C90	C	1.320203	0.923988	0.592493
C91	C	0.867672	0.697203	0.045201
C92	C	1.367672	1.197203	0.545201
C93	C	0.867679	0.773433	0.045205
C94	C	1.367679	1.273433	0.545205
C95	C	0.772756	0.773431	0.139755
C96	C	1.272756	1.273431	0.639755
C97	C	0.772755	0.697203	0.139755
C98	C	1.272755	1.197203	0.639755
C99	C	0.820212	0.659094	0.092474
C100	C	1.320212	1.159094	0.592474
C101	C	0.824028	0.066213	-0.147825
C102	C	1.324028	0.566213	0.352175
C103	C	0.822960	0.066218	-0.220271
C104	C	1.322960	0.566218	0.279729
C105	C	0.822432	0.000208	-0.256511
C106	C	1.322432	0.500208	0.243489
C107	C	0.822956	-0.065812	-0.220297
C108	C	1.322956	0.434188	0.279703
C109	C	0.824017	-0.065815	-0.147852
C110	C	1.324017	0.434185	0.352148
C111	C	0.861435	-0.050350	-0.376747
C112	C	1.361435	0.449650	0.123253
C113	C	0.860378	-0.050344	-0.449192
C114	C	1.360378	0.449656	0.050808
C115	C	0.819155	0.000216	-0.479957
C116	C	1.319155	0.500216	0.020043
C117	C	0.778998	0.050781	-0.438270
C118	C	1.278998	0.550781	0.061730
C119	C	0.780060	0.050778	-0.365824
C120	C	1.280060	0.550778	0.134176
C121	C	0.821281	0.000205	-0.335066
C122	C	1.321281	0.500205	0.164934
C123	C	0.817467	0.066237	-0.594716
C124	C	1.317467	0.566237	-0.094716
C125	C	0.816394	0.066240	-0.667163
C126	C	1.316394	0.566240	-0.167163
C127	C	0.816398	-0.065792	-0.667189
C128	C	1.316398	0.434208	-0.167189
C129	C	0.817464	-0.065793	-0.594742
C130	C	1.317464	0.434207	-0.094742
C131	C	0.818002	0.000224	-0.558511
C132	C	1.318002	0.500224	-0.058511
C133	C	0.814739	0.000222	0.219498
C134	C	1.314739	0.500222	0.719498
C135	C	0.815866	0.000229	0.296602
C136	C	1.315866	0.500229	0.796602
H137	H	0.593981	0.000183	0.211581
H138	H	1.093981	0.500183	0.711581
Br139	Br	0.932075	0.354944	-0.018942
Br140	Br	1.432075	0.854944	0.481058
H141	H	0.822524	-0.119557	-0.249808
H142	H	1.322524	0.380443	0.250192
Br143	Br	0.818176	-0.155385	-0.545603
Br144	Br	1.318176	0.344615	-0.045603
H145	H	0.935035	0.431089	0.075886
H146	H	1.435035	0.931089	0.575886
Br147	Br	0.815671	0.155834	-0.716299
Br148	Br	1.315671	0.655834	-0.216299
H149	H	0.906305	0.195962	0.006728
H150	H	1.406305	0.695962	0.506728
H151	H	0.734109	0.334254	0.178265
H152	H	1.234109	0.834254	0.678265
Br153	Br	0.914879	-0.118963	-0.505761
Br154	Br	1.414879	0.381037	-0.005761
H155	H	0.015669	0.000272	0.203100
H156	H	0.515669	0.500272	0.703100
H157	H	0.493322	0.000188	-0.020044
H158	H	0.993322	0.500188	0.479956
Br159	Br	0.815675	-0.155379	-0.716363
Br160	Br	1.315675	0.344621	-0.216363
H161	H	0.895003	-0.091527	-0.351705
H162	H	1.395003	0.408473	0.148295
H163	H	0.397741	0.077190	0.005476
H164	H	0.897741	0.577190	0.505476
H165	H	0.824444	-0.119571	-0.118374
H166	H	1.324444	0.380429	0.381626
Br167	Br	0.250186	0.100257	-0.023058
Br168	Br	0.750186	0.600257	0.476942
H169	H	0.624757	0.000145	-0.018124
H170	H	1.124757	0.500145	0.481876
H171	H	0.822526	0.119974	-0.249755
H172	H	1.322526	0.619974	0.250245
H173	H	0.705383	0.569328	0.109071
H174	H	1.205383	1.069328	0.609071
H175	H	0.824465	0.119969	-0.118330
H176	H	1.324465	0.619969	0.381670
H177	H	0.705379	0.431046	0.109089
H178	H	1.205379	0.931046	0.609089
H179	H	0.935036	0.569380	0.075888
H180	H	1.435036	1.069380	0.575888
H181	H	0.177867	0.000237	-0.024674
H182	H	0.677867	0.500237	0.475326
H183	H	0.374110	-0.076766	0.181433
H184	H	0.874110	0.423234	0.681433
Br185	Br	0.932080	0.645482	-0.018962
Br186	Br	1.432080	1.145482	0.481038
Br187	Br	0.708353	0.825154	0.203913
Br188	Br	1.208353	1.325154	0.703913
H189	H	0.147095	0.000253	0.205029
H190	H	0.647095	0.500253	0.705029
H191	H	0.462555	0.000197	0.209652
H192	H	0.962555	0.500197	0.709652
H193	H	0.817902	0.119992	-0.565215
H194	H	1.317902	0.619992	-0.065215
Br195	Br	0.031379	0.000254	-0.061258
Br196	Br	0.531379	0.500254	0.438742
H197	H	0.242679	-0.076743	0.179503
H198	H	0.742679	0.423257	0.679503
H199	H	0.906326	0.804461	0.006708
H200	H	1.406326	1.304461	0.506708
Br201	Br	0.708344	0.175266	0.203949
Br202	Br	1.208344	0.675266	0.703949
H203	H	0.734111	0.666173	0.178249
H204	H	1.234111	1.166173	0.678249
Br205	Br	0.725563	0.119397	-0.309251
Br206	Br	1.225563	0.619397	0.190749
H207	H	0.745430	0.091952	-0.463317
H208	H	1.245430	0.591952	0.036683
