data_functionalizedCrystal
_audit_creation_method	'MofGen! by Chris Wilmer'
_symmetry_space_group_name_H-M	'P1'
_symmetry_Int_Tables_number	1
_symmetry_cell_setting	triclinic
loop_
_symmetry_equiv_pos_as_xyz
  x,y,z
_cell_length_a	12.503572
_cell_length_b	9.065218
_cell_length_c	14.044220
_cell_angle_alpha	90.897619
_cell_angle_beta	86.154684
_cell_angle_gamma	86.429307
loop_
_atom_site_label
_atom_site_type_symbol
_atom_site_fract_x
_atom_site_fract_y
_atom_site_fract_z
O1	O	0.089321	-1.983616	0.133726
O2	O	0.089323	-1.555596	0.145139
O3	O	0.089317	-1.763181	0.001393
O4	O	0.089327	-1.776031	0.277472
O5	O	-0.089324	-1.747572	0.012221
O6	O	-0.089319	-1.539987	0.155967
O7	O	-0.089320	-1.968007	0.144554
Cu8	Cu	-0.105631	-1.752572	0.151250
Cu9	Cu	0.105633	-1.771031	0.138443
O10	O	-0.089315	-1.760422	0.288300
C11	C	0.000002	-1.492683	0.149456
C12	C	0.000002	-1.328477	0.146176
N13	N	-0.254223	-1.739599	0.160256
C14	C	-0.000003	-1.749752	-0.028556
C15	C	0.000001	-1.732975	-0.133926
C16	C	-0.473338	-1.720516	0.173513
C17	C	-0.526667	-1.803093	0.116175
C18	C	-0.648590	-1.792475	0.123552
C19	C	-0.351404	-1.731132	0.166138
N20	N	0.254225	-1.784015	0.129429
C21	C	0.000003	-2.030920	0.140237
C22	C	0.000009	-2.195127	0.143516
C23	C	0.000007	-1.773851	0.318249
C24	C	0.000011	-1.790628	0.423618
C25	C	0.000006	-1.821300	0.616543
C26	C	0.000006	-1.702311	0.673155
C27	C	0.000003	-1.719377	0.780505
C28	C	0.000009	-1.804236	0.509183
H29	H	-0.480756	-1.881765	0.061547
C30	C	-0.000053	-1.549505	0.630108
C31	C	-0.000080	-1.562727	0.530648
C32	C	-0.000152	-1.422000	0.490959
H33	H	0.062222	-1.502674	0.646575
H34	H	-0.062378	-1.491908	0.654177
H35	H	0.062238	-1.620301	0.506589
H36	H	-0.062351	-1.609533	0.514155
H37	H	-0.062477	-1.364403	0.515027
H38	H	0.062125	-1.375180	0.507432
H39	H	-0.000180	-1.430952	0.423472
H40	H	0.000002	-1.935977	0.648697
C41	C	-0.534739	-1.615775	0.246329
C42	C	-0.645212	-1.625983	0.239284
C43	C	-0.701822	-1.529540	0.306357
H44	H	-0.516518	-1.517316	0.234237
H45	H	-0.516433	-1.641911	0.308706
H46	H	-0.663511	-1.599838	0.176922
H47	H	-0.663465	-1.724420	0.251386
H48	H	-0.683516	-1.555675	0.368734
H49	H	-0.683592	-1.431087	0.294259
H50	H	-0.776783	-1.536462	0.301592
