data_functionalizedCrystal
_audit_creation_method	'MofGen! by Chris Wilmer'
_symmetry_space_group_name_H-M	'P1'
_symmetry_Int_Tables_number	1
_symmetry_cell_setting	triclinic
loop_
_symmetry_equiv_pos_as_xyz
  x,y,z
_cell_length_a	12.594516
_cell_length_b	12.594517
_cell_length_c	18.101390
_cell_angle_alpha	90.022255
_cell_angle_beta	89.973074
_cell_angle_gamma	89.989009
loop_
_atom_site_label
_atom_site_type_symbol
_atom_site_fract_x
_atom_site_fract_y
_atom_site_fract_z
Zn1	Zn	-0.423846	-1.627230	-0.418859
Zn2	Zn	-0.601859	-1.627131	-0.295030
Zn3	Zn	-0.423879	-1.449245	-0.295021
Zn4	Zn	-0.601767	-1.449216	-0.418820
O5	O	-0.512838	-1.538205	-0.356932
O6	O	-0.447484	-1.776162	-0.402453
O7	O	-0.578301	-1.603505	-0.191396
O8	O	-0.274929	-1.472908	-0.311461
O9	O	-0.578269	-1.776090	-0.311476
O10	O	-0.274905	-1.603673	-0.402444
O11	O	-0.447540	-1.472813	-0.191389
O12	O	-0.447452	-1.300295	-0.311423
O13	O	-0.578114	-1.472859	-0.522458
O14	O	-0.578145	-1.300274	-0.402377
O15	O	-0.447396	-1.603645	-0.522487
O16	O	-0.750792	-1.603477	-0.311438
O17	O	-0.750725	-1.472763	-0.402386
C18	C	-0.512793	-1.261664	-0.356896
C19	C	-0.512799	-1.143359	-0.356897
C20	C	-0.441612	-1.074086	-0.307518
C21	C	-0.538695	-1.003277	-0.289301
C22	C	-0.415746	-1.003369	-0.375115
C23	C	-0.609934	-1.074108	-0.338645
C24	C	-0.486919	-1.074206	-0.424491
C25	C	-0.584069	-1.003429	-0.406300
C26	C	-0.789379	-1.538136	-0.356925
C27	C	-0.907684	-1.538203	-0.356947
C28	C	-0.976939	-1.467101	-0.406379
C29	C	-1.047804	-1.441174	-0.338801
C30	C	-1.047619	-1.564227	-0.424536
C31	C	-0.976990	-1.512224	-0.289334
C32	C	-0.976799	-1.635323	-0.375114
C33	C	-1.047631	-1.609433	-0.307490
C34	C	-0.235217	-1.538304	-0.356956
C35	C	-0.116911	-1.538347	-0.356966
C36	C	-0.512741	-1.538259	-0.550094
C37	C	-0.512700	-1.538282	-0.632409
C38	C	-0.512862	-0.815826	-0.356956
C39	C	-0.512818	-0.934132	-0.356931
C40	C	-0.512666	-1.538320	-0.783117
C41	C	-0.430415	-1.620610	-0.814489
C42	C	-0.430638	-1.620954	-0.900107
C43	C	-0.512632	-1.538358	-0.931500
C44	C	-0.624900	-1.568391	-0.900399
C45	C	-0.624444	-1.568966	-0.814754
C46	C	-0.483624	-1.425798	-0.814666
C47	C	-0.481130	-1.426423	-0.900317
C48	C	-0.512619	-1.538377	-1.015359
C49	C	-0.512687	-1.538304	-0.699258
C50	C	-0.512857	-1.538213	-0.164522
C51	C	-0.512599	-1.538396	-0.082208
H52	H	-0.381478	-1.105111	-0.265713
H53	H	-0.649894	-1.649724	-0.921878
H54	H	-0.333672	-0.972241	-0.390484
H55	H	-0.560600	-0.972123	-0.232153
H56	H	-0.946094	-1.490176	-0.232167
H57	H	-0.945590	-1.717371	-0.390496
H58	H	-0.644347	-0.972599	-0.448073
H59	H	-0.945899	-1.406865	-0.448120
H60	H	-1.079016	-1.359107	-0.323451
H61	H	-1.078475	-1.669623	-0.265647
H62	H	-0.464984	-1.105386	-0.481622
H63	H	-1.078643	-1.586181	-0.481687
H64	H	-0.398509	-1.403767	-0.920646
H65	H	-0.536629	-1.361873	-0.921683
H66	H	-0.346927	-1.602069	-0.793909
H67	H	-0.347406	-1.602187	-0.921137
H68	H	-0.449435	-1.703514	-0.792981
H69	H	-0.543527	-1.364492	-0.794374
H70	H	-0.649008	-1.651208	-0.794791
H71	H	-0.692043	-1.105051	-0.323187
H72	H	-0.449882	-1.704342	-0.920610
H73	H	-0.687815	-1.511592	-0.793998
H74	H	-0.687849	-1.510302	-0.920730
H75	H	-0.403166	-1.398366	-0.793065
