data_functionalizedCrystal
_audit_creation_method	'MofGen! by Chris Wilmer'
_symmetry_space_group_name_H-M	'P1'
_symmetry_Int_Tables_number	1
_symmetry_cell_setting	triclinic
loop_
_symmetry_equiv_pos_as_xyz
  x,y,z
_cell_length_a	6.817900
_cell_length_b	16.418049
_cell_length_c	17.078481
_cell_angle_alpha	96.278060
_cell_angle_beta	99.306161
_cell_angle_gamma	103.389670
loop_
_atom_site_label
_atom_site_type_symbol
_atom_site_fract_x
_atom_site_fract_y
_atom_site_fract_z
V1	V	-3.979125	-0.115690	-0.247640
O2	O	-3.968071	0.005761	-0.242639
O3	O	-3.930462	-0.229588	-0.246223
O4	O	-3.910179	-0.113822	-0.355519
O5	O	-3.988494	-0.110806	-0.132587
V6	V	-4.465449	-0.101174	-0.233846
O7	O	-4.234238	-0.147533	-0.277901
O8	O	-4.660533	-0.069331	-0.203585
O9	O	-4.290905	0.012724	-0.235263
O10	O	-4.593900	-0.222625	-0.238847
O11	O	-4.573476	-0.106058	-0.348899
O12	O	-4.311188	-0.103042	-0.125967
C13	C	-3.776063	-0.257356	-0.242388
C14	C	-3.817426	-0.350469	-0.241948
C15	C	-4.093892	-0.568956	-0.244920
C16	C	-4.132743	-0.656445	-0.244514
C17	C	-3.770039	-0.647907	-0.236571
C18	C	-3.731192	-0.560420	-0.236983
C19	C	-3.893124	-0.520946	-0.241154
C20	C	-3.970822	-0.695923	-0.240335
C21	C	-4.012945	-0.790783	-0.239895
C22	C	-3.851000	-0.426080	-0.241595
C23	C	-3.750190	-0.109685	-0.381804
C24	C	-3.775100	-0.108911	-0.469997
C25	C	-3.968126	-0.112729	-0.515482
C26	C	-3.991520	-0.112002	-0.598349
C27	C	-3.821889	-0.107463	-0.635730
C28	C	-3.628847	-0.103642	-0.590238
C29	C	-3.605452	-0.104364	-0.507372
C30	C	-3.872411	-0.104852	-0.883126
C31	C	-3.895823	-0.104133	-0.965999
C32	C	-4.258494	-0.112491	-0.974103
C33	C	-4.235085	-0.113217	-0.891237
C34	C	-4.042044	-0.109392	-0.845752
N35	N	-3.845799	-0.106722	-0.720433
N36	N	-4.018134	-0.110127	-0.761049
C37	C	-4.108646	0.040488	-0.239096
C38	C	-4.046521	0.133599	-0.239541
C39	C	-4.134521	-0.107182	-0.099677
C40	C	-4.088848	-0.107951	-0.011484
H41	H	-4.106265	-0.116431	-0.485054
H42	H	-3.638204	-0.680058	-0.233173
H43	H	-3.567697	-0.521330	-0.233918
O44	O	-4.251435	-0.530750	-0.249013
C45	C	-4.436961	-0.591886	-0.252230
H46	H	-4.420636	-0.657131	-0.276019
H47	H	-4.566606	-0.575932	-0.293836
H48	H	-4.473663	-0.592032	-0.189438
H49	H	-4.296225	-0.695531	-0.247583
O50	O	-4.178904	-0.115560	-0.642550
C51	C	-4.167445	-0.042531	-0.679800
H52	H	-4.032466	0.010553	-0.644876
H53	H	-4.316070	-0.021761	-0.680661
H54	H	-4.144537	-0.057332	-0.743984
H55	H	-4.373220	-0.116913	-0.860807
O56	O	-3.731133	-0.099609	-1.002387
C57	C	-3.697994	-0.026065	-1.039129
H58	H	-3.847005	-0.005296	-1.051410
H59	H	-3.645779	-0.040180	-1.098149
H60	H	-3.574405	0.026749	-0.997541
O61	O	-4.445949	-0.116310	-1.018392
C62	C	-4.506175	-0.189024	-1.077491
H63	H	-4.364182	-0.209583	-1.090028
H64	H	-4.591309	-0.173896	-1.135020
H65	H	-4.611732	-0.242388	-1.055216
H66	H	-3.715243	-0.101767	-0.846107
H67	H	-3.490730	-0.099941	-0.620679
O68	O	-3.417978	-0.100807	-0.463245
C69	C	-3.349181	-0.170947	-0.491979
H70	H	-3.486751	-0.224125	-0.524773
H71	H	-3.263560	-0.193985	-0.439316
H72	H	-3.241603	-0.151450	-0.535080
