data_functionalizedCrystal
_audit_creation_method	'MofGen! by Chris Wilmer'
_symmetry_space_group_name_H-M	'P1'
_symmetry_Int_Tables_number	1
_symmetry_cell_setting	triclinic
loop_
_symmetry_equiv_pos_as_xyz
  x,y,z
_cell_length_a	14.809374
_cell_length_b	16.704479
_cell_length_c	14.809374
_cell_angle_alpha	89.352608
_cell_angle_beta	60.797835
_cell_angle_gamma	70.600650
loop_
_atom_site_label
_atom_site_type_symbol
_atom_site_fract_x
_atom_site_fract_y
_atom_site_fract_z
Zr1	Zr	1.043575	0.856433	-0.257706
O2	O	1.191695	0.761453	-0.398872
O3	O	0.867426	0.872102	-0.200617
O4	O	1.019846	0.903819	-0.389158
O5	O	1.067768	0.720014	-0.077320
O6	O	1.033013	1.031415	-0.397208
O7	O	1.039275	0.729737	-0.210332
O8	O	0.760360	0.974680	-0.059943
O9	O	1.340420	0.776749	-0.414585
O10	O	0.960086	0.990255	-0.198966
O11	O	0.971524	0.887776	-0.093693
O12	O	1.150979	0.925117	-0.315676
O13	O	1.162416	0.822638	-0.210403
Zr14	Zr	1.110017	1.044428	-0.058406
Zr15	Zr	1.064574	1.059934	-0.270544
Zr16	Zr	1.089018	0.840927	-0.045568
Zr17	Zr	1.280774	0.880828	-0.282766
Zr18	Zr	0.872819	1.020033	-0.033346
O19	O	1.286166	1.028759	-0.115495
O20	O	1.221553	1.050806	-0.417128
O21	O	1.256308	0.739406	-0.097240
O22	O	0.961897	1.139408	0.082760
O23	O	0.897284	1.161455	-0.218872
O24	O	0.932039	0.850055	0.101016
O25	O	1.085825	1.180846	-0.238792
O26	O	1.133746	0.997042	0.073046
O27	O	1.120580	0.869446	0.081096
O28	O	1.114317	1.171124	-0.105780
O29	O	1.357111	0.938506	-0.424790
O30	O	0.796481	0.962355	0.108678
O31	O	0.813172	1.124112	0.098473
O32	O	0.777052	1.136437	-0.070148
O33	O	1.376540	0.764424	-0.245964
O34	O	1.393232	0.926180	-0.256169
O35	O	1.002613	0.975744	-0.000436
O36	O	0.991176	1.078223	-0.105709
O37	O	1.182069	1.013085	-0.222419
O38	O	1.193506	0.910606	-0.117146
C39	C	0.780097	0.919916	-0.126709
C40	C	0.679401	0.909559	-0.116071
C41	C	0.628833	0.955779	-0.163550
C42	C	0.524757	0.945076	-0.152556
C43	C	1.050529	0.695881	-0.141997
C44	C	1.041615	0.609489	-0.136546
C45	C	0.929414	0.521721	-0.067951
C46	C	0.937784	0.602896	-0.073067
C47	C	1.137083	0.534899	-0.194917
C48	C	1.128714	0.453724	-0.189802
C49	C	1.024876	0.447139	-0.126316
C50	C	1.016509	0.365962	-0.121195
C51	C	1.215806	0.297967	-0.243050
C52	C	1.224176	0.379142	-0.248166
C53	C	1.373495	0.980945	-0.189403
C54	C	1.474192	0.991302	-0.200041
C55	C	1.019955	0.969826	-0.423408
C56	C	1.000663	0.976409	-0.513466
C57	C	1.103063	1.204980	-0.174115
C58	C	1.111977	1.291372	-0.179566
C59	C	1.086758	0.947031	-0.611513
C60	C	1.066822	0.953834	-0.704594
C61	C	1.133637	0.931035	0.107296
C62	C	1.152929	0.924452	0.197354
C63	C	0.806364	1.174465	-0.142769
C64	C	0.714582	1.250500	-0.137581
C65	C	0.836939	0.900520	0.138643
C66	C	0.755533	0.883581	0.239340
C67	C	0.863205	1.155069	0.122583
C68	C	0.790715	1.224522	0.217830
C69	C	1.290387	0.745792	-0.438695
C70	C	1.362877	0.676339	-0.533942
C71	C	1.347228	0.726396	-0.173343
C72	C	1.439010	0.650361	-0.178531
C73	C	1.316653	1.000341	-0.454755
C74	C	1.398059	1.017280	-0.555452
C75	C	0.655250	1.240290	-0.183832
C76	C	0.569019	1.311728	-0.178978
C77	C	0.542116	1.393375	-0.127865
C78	C	0.601458	1.403585	-0.081613
C79	C	0.687693	1.332148	-0.086474
C80	C	0.733535	0.921544	0.335316
C81	C	0.657061	0.905625	0.429938
C82	C	0.602580	0.851747	0.428582
C83	C	0.624585	0.813780	0.332595
C84	C	0.701064	0.829694	0.237975
C85	C	0.750703	1.310639	0.207607
C86	C	0.682602	1.375907	0.297091
C87	C	0.654508	1.355055	0.396798
C88	C	0.694528	1.268929	0.407018
C89	C	0.762634	1.203664	0.317534
C90	C	1.402901	0.590223	-0.523720
C91	C	1.471031	0.524958	-0.613207
C92	C	1.499130	0.545811	-0.712914
C93	C	1.459104	0.631936	-0.723134
C94	C	1.390982	0.697200	-0.633649
C95	C	1.498350	0.660573	-0.132289
C96	C	1.584603	0.589139	-0.137170
C97	C	1.611508	0.507493	-0.188286
C98	C	1.552162	0.497282	-0.234534
C99	C	1.465917	0.568716	-0.229660
C100	C	1.452517	1.071162	-0.554061
C101	C	1.528997	1.087095	-0.648668
C102	C	1.551023	1.049140	-0.744665
C103	C	1.496556	0.995256	-0.746052
C104	C	1.420071	0.979329	-0.651446
H105	H	0.931960	0.360603	-0.069499
N106	N	0.673544	1.018686	-0.228187
H107	H	0.614405	1.078832	-0.197792
H108	H	0.741570	1.017337	-0.226860
N109	N	0.520091	0.834588	0.530641
H110	H	0.514425	0.866819	0.591644
H111	H	0.444550	0.854793	0.537104
H112	H	0.795202	1.133544	0.325873
H113	H	0.844867	0.516360	-0.016251
H114	H	0.718962	0.798781	0.159831
H115	H	1.434598	1.102072	-0.475905
H116	H	1.375738	0.935451	-0.652593
H117	H	0.491002	0.897581	-0.103761
N118	N	0.518883	1.054225	-0.264666
H119	H	0.586894	1.052955	-0.263359
H120	H	0.539897	1.037472	-0.339641
N121	N	0.634691	0.846652	-0.051434
H122	H	0.566678	0.847925	-0.052739
H123	H	0.693903	0.786540	-0.081869
H124	H	1.175228	0.916848	-0.626544
H125	H	0.860050	0.663621	-0.025536
N126	N	1.514190	0.432072	-0.602170
H127	H	1.486038	0.428771	-0.525425
H128	H	1.486998	0.396930	-0.631025
N129	N	0.449094	1.470416	-0.122615
H130	H	0.441046	1.523693	-0.083217
H131	H	0.467058	1.478884	-0.196309
H132	H	1.514502	0.964357	-0.824226
N133	N	1.249067	0.542012	-0.263401
H134	H	1.239877	0.604755	-0.257787
H135	H	1.301804	0.509339	-0.239284
N136	N	0.949625	0.993827	-0.684666
H137	H	0.894909	1.012499	-0.606446
H138	H	0.942766	1.045660	-0.720179
H139	H	1.380025	0.573227	-0.442540
N140	N	1.648615	0.600160	-0.087301
H141	H	1.640099	0.563190	-0.031439
H142	H	1.730129	0.581966	-0.142954
H143	H	1.308716	0.384516	-0.299857
N144	N	1.318779	0.217524	-0.306008
H145	H	1.374470	0.213149	-0.283695
H146	H	1.297629	0.165145	-0.293110
H147	H	1.241405	0.894264	-0.817686
N148	N	0.883474	1.016405	-0.493546
H149	H	0.866634	0.972665	-0.522962
H150	H	0.828835	1.035081	-0.415315
H151	H	1.554599	0.492660	-0.785771
H152	H	0.677149	1.173816	-0.225467
H153	H	1.481991	0.648905	-0.804327
N154	N	0.565813	0.755676	0.331141
H155	H	0.514023	0.751366	0.405651
H156	H	0.521296	0.780488	0.296228
N157	N	0.505026	1.300705	-0.228869
H158	H	0.535152	1.238140	-0.261974
H159	H	0.423489	1.318976	-0.173252
H160	H	0.579541	1.470071	-0.039998
H161	H	0.773565	1.327634	0.126428
H162	H	0.777887	0.965414	0.336440
H163	H	1.358393	0.767318	-0.641984
N164	N	0.639444	1.468793	0.286054
H165	H	0.667570	1.472092	0.209311
H166	H	0.555202	1.492474	0.326680
H167	H	0.735993	1.340473	-0.048803
H168	H	1.574082	0.430796	-0.276152
N169	N	1.401914	0.557682	-0.279528
H170	H	1.320367	0.575893	-0.223954
H171	H	1.410531	0.594638	-0.335411
N172	N	0.633333	0.946582	0.533457
H173	H	0.679445	0.983134	0.519951
H174	H	0.551515	0.984052	0.577709
N175	N	0.581051	1.425453	0.493308
H176	H	0.559969	1.483170	0.471693
H177	H	0.511314	1.414371	0.542290
H178	H	0.671644	1.251963	0.488211
N179	N	1.469344	0.748629	-0.077155
H180	H	1.520037	0.744247	-0.048611
H181	H	1.479314	0.789643	-0.128736
H182	H	1.681736	0.449333	-0.192247
N183	N	1.587733	1.145214	-0.647158
H184	H	1.562176	1.166831	-0.571987
H185	H	1.670966	1.111752	-0.687166
H186	H	1.613305	1.062116	-0.821692
