data_functionalizedCrystal
_audit_creation_method	'MofGen! by Chris Wilmer'
_symmetry_space_group_name_H-M	'P1'
_symmetry_Int_Tables_number	1
_symmetry_cell_setting	triclinic
loop_
_symmetry_equiv_pos_as_xyz
  x,y,z
_cell_length_a	15.944551
_cell_length_b	10.268362
_cell_length_c	11.792254
_cell_angle_alpha	90.001515
_cell_angle_beta	83.848668
_cell_angle_gamma	90.000122
loop_
_atom_site_label
_atom_site_type_symbol
_atom_site_fract_x
_atom_site_fract_y
_atom_site_fract_z
O1	O	1.115190	0.108165	0.146373
O2	O	1.615190	0.608165	0.646373
O3	O	0.870723	0.108197	0.164420
O4	O	1.370723	0.608197	0.664420
O5	O	0.998883	0.108171	-0.009822
O6	O	1.498883	0.608171	0.490178
O7	O	0.987029	0.108191	0.320615
O8	O	1.487029	0.608191	0.820615
O9	O	0.998871	-0.108429	-0.009816
O10	O	1.498871	0.391571	0.490184
O11	O	0.870710	-0.108403	0.164426
O12	O	1.370710	0.391597	0.664426
O13	O	1.115178	-0.108436	0.146379
O14	O	1.615178	0.391564	0.646379
Cu15	Cu	0.992943	-0.128197	0.155403
Cu16	Cu	1.492943	0.371803	0.655403
Cu17	Cu	0.992958	0.127959	0.155396
Cu18	Cu	1.492958	0.627959	0.655396
O19	O	0.987017	-0.108409	0.320621
O20	O	1.487017	0.391591	0.820621
C21	C	0.839419	-0.000099	0.163674
C22	C	1.339419	0.499901	0.663674
C23	C	0.746163	-0.000087	0.161428
C24	C	1.246163	0.499913	0.661428
C25	C	0.998131	-0.000129	-0.052103
C26	C	1.498131	0.499871	0.447897
C27	C	0.995895	-0.000127	-0.178098
C28	C	1.495895	0.499873	0.321902
N29	N	0.992939	-0.308363	0.155407
N30	N	1.492939	0.191637	0.655407
C31	C	0.530791	-0.000119	0.048056
C32	C	1.030791	0.499881	0.548056
C33	C	0.470016	0.106680	0.100699
C34	C	0.970016	0.606680	0.600699
C35	C	0.575418	-0.000102	0.157364
C36	C	1.075418	0.499898	0.657364
C37	C	0.470026	-0.106871	0.100731
C38	C	0.970026	0.393129	0.600731
C39	C	0.410488	-0.000123	0.153431
C40	C	0.910488	0.499877	0.653431
C41	C	0.515872	0.106785	0.210038
C42	C	1.015872	0.606785	0.710038
C43	C	0.515889	-0.106863	0.210054
C44	C	1.015889	0.393137	0.710054
C45	C	0.455132	-0.000038	0.262777
C46	C	0.955132	0.499962	0.762777
C47	C	0.670431	-0.000089	0.159627
C48	C	1.170431	0.499911	0.659627
C49	C	0.315477	-0.000127	0.151177
C50	C	0.815477	0.499873	0.651177
C51	C	1.146481	-0.000137	0.147125
C52	C	1.646481	0.499863	0.647125
C53	C	1.239738	-0.000140	0.149371
C54	C	1.739738	0.499860	0.649371
C55	C	0.992945	-0.426205	0.155408
C56	C	1.492945	0.073795	0.655408
C57	C	0.992955	-0.574043	0.155398
C58	C	1.492955	-0.074043	0.655398
N59	N	0.992968	0.308124	0.155383
N60	N	1.492968	0.808124	0.655383
C61	C	0.994079	-0.000122	-0.280420
C62	C	1.494079	0.499878	0.219580
C63	C	0.991809	-0.000110	-0.408787
C64	C	1.491809	0.499890	0.091213
C65	C	0.987770	-0.000107	0.362903
C66	C	1.487770	0.499893	0.862903
C67	C	0.990005	-0.000100	0.488897
C68	C	1.490005	0.499900	0.988897
H69	H	0.563711	0.000008	-0.042661
H70	H	1.063711	0.500008	0.457339
C71	C	0.543372	-0.228831	0.272458
C72	C	1.043372	0.271169	0.772458
H73	H	0.527850	-0.304646	0.233512
H74	H	1.027850	0.195354	0.733512
H75	H	0.516421	-0.229595	0.348308
H76	H	1.016421	0.270405	0.848308
H77	H	0.602812	-0.227516	0.274027
H78	H	1.102812	0.272484	0.774027
C79	C	0.442563	0.228640	0.038242
C80	C	0.942563	0.728640	0.538242
H81	H	0.468716	0.228508	-0.038035
H82	H	0.968716	0.728508	0.461965
H83	H	0.459020	0.304483	0.076335
H84	H	0.959020	0.804483	0.576335
H85	H	0.383012	0.228152	0.037873
H86	H	0.883012	0.728152	0.537873
C87	C	0.410886	0.000040	0.385446
C88	C	0.910886	0.500040	0.885446
H89	H	0.377000	-0.075857	0.397252
H90	H	0.877000	0.424143	0.897252
H91	H	0.376284	0.075218	0.396789
H92	H	0.876284	0.575218	0.896789
H93	H	0.452084	0.000788	0.437979
H94	H	0.952084	0.500788	0.937979
H95	H	0.536075	0.197173	0.256234
H96	H	1.036075	0.697173	0.756234
C97	C	0.442602	-0.228844	0.038259
C98	C	0.942602	0.271156	0.538259
H99	H	0.468772	-0.228707	-0.038010
H100	H	0.968772	0.271293	0.461990
H101	H	0.383056	-0.228395	0.037884
H102	H	0.883056	0.271605	0.537884
H103	H	0.459080	-0.304681	0.076349
H104	H	0.959080	0.195319	0.576349
