data_functionalizedCrystal
_audit_creation_method	'MofGen! by Chris Wilmer'
_symmetry_space_group_name_H-M	'P1'
_symmetry_Int_Tables_number	1
_symmetry_cell_setting	triclinic
loop_
_symmetry_equiv_pos_as_xyz
  x,y,z
_cell_length_a	6.817900
_cell_length_b	17.078472
_cell_length_c	16.255661
_cell_angle_alpha	96.262601
_cell_angle_beta	103.488922
_cell_angle_gamma	99.306020
loop_
_atom_site_label
_atom_site_type_symbol
_atom_site_fract_x
_atom_site_fract_y
_atom_site_fract_z
V1	V	-4.005724	-0.110408	-0.263786
O2	O	-4.015074	0.004646	-0.258852
O3	O	-3.936769	-0.218286	-0.261897
O4	O	-3.957554	-0.108999	-0.378870
O5	O	-3.994145	-0.105398	-0.141069
V6	V	-4.491986	-0.096612	-0.249118
O7	O	-4.260975	-0.140671	-0.295960
O8	O	-4.686932	-0.066349	-0.216943
O9	O	-4.337734	0.011266	-0.251006
O10	O	-4.600033	-0.211666	-0.254052
O11	O	-4.620962	-0.101622	-0.371834
O12	O	-4.316949	-0.098021	-0.134034
C13	C	-3.776761	-0.244575	-0.257714
C14	C	-3.801671	-0.332769	-0.256938
C15	C	-3.994710	-0.378254	-0.260791
C16	C	-4.018106	-0.461122	-0.260066
C17	C	-3.848456	-0.498502	-0.255482
C18	C	-3.655402	-0.453012	-0.251631
C19	C	-3.632012	-0.370147	-0.252362
C20	C	-3.898967	-0.745900	-0.252849
C21	C	-3.922372	-0.828771	-0.252116
C22	C	-4.285076	-0.836875	-0.260553
C23	C	-4.261666	-0.754007	-0.261278
C24	C	-4.068617	-0.708525	-0.257432
N25	N	-3.872364	-0.583206	-0.254738
N26	N	-4.044714	-0.623823	-0.258181
C27	C	-3.803274	-0.105168	-0.406923
C28	C	-3.845037	-0.104730	-0.501005
C29	C	-3.756589	-0.099496	-0.723828
C30	C	-3.900164	-0.167046	-0.793252
C31	C	-3.921578	-0.103908	-0.673254
C32	C	-3.852440	-0.035585	-0.771468
C33	C	-3.995497	-0.103111	-0.839638
C34	C	-4.064623	-0.171518	-0.741448
C35	C	-4.016849	-0.039998	-0.719649
C36	C	-4.160557	-0.107567	-0.789054
C37	C	-3.878989	-0.104368	-0.577405
C38	C	-4.038102	-0.102657	-0.935487
C39	C	-4.161083	0.037551	-0.255187
C40	C	-4.115412	0.125744	-0.255969
C41	C	-4.134570	-0.101855	-0.105976
C42	C	-4.072047	-0.102289	-0.011893
H43	H	-4.132858	-0.347824	-0.264516
O44	O	-3.757769	-0.865189	-0.247783
C45	C	-3.609798	-0.964959	-0.315737
C46	C	-3.796355	-0.923798	-0.320744
H47	H	-3.640912	-1.012341	-0.374727
H48	H	-3.582474	-0.994764	-0.255725
H49	H	-3.467818	-0.918195	-0.313075
H50	H	-3.938448	-0.970511	-0.323440
H51	H	-3.823499	-0.893976	-0.380747
O52	O	-4.075354	0.023991	-0.681356
C53	C	-4.294092	0.069179	-0.596790
C54	C	-4.228103	-0.003369	-0.640145
H55	H	-4.417567	0.047085	-0.563446
H56	H	-4.358052	0.106333	-0.647168
H57	H	-4.155378	0.107836	-0.547608
H58	H	-4.366718	-0.042085	-0.689322
H59	H	-4.164069	-0.040463	-0.589718
H60	H	-3.474823	-0.333114	-0.249227
H61	H	-3.517275	-0.483455	-0.247903
O62	O	-3.842049	-0.231099	-0.831631
C63	C	-3.818114	-0.302762	-0.963972
C64	C	-3.884083	-0.230204	-0.920626
H65	H	-3.852033	-0.302052	-1.035929
H66	H	-3.906984	-0.360664	-0.951076
H67	H	-3.646329	-0.299252	-0.936985
H68	H	-4.055837	-0.233636	-0.947587
H69	H	-3.795067	-0.172332	-0.933518
O70	O	-3.711325	-0.701740	-0.248950
C71	C	-3.357986	-0.658565	-0.168327
C72	C	-3.570407	-0.708595	-0.172627
H73	H	-3.243985	-0.664104	-0.106633
H74	H	-3.370230	-0.592896	-0.169581
H75	H	-3.302453	-0.681705	-0.225624
H76	H	-3.626064	-0.685526	-0.115342
H77	H	-3.558040	-0.774257	-0.171414
O78	O	-4.205637	-0.505367	-0.263937
C79	C	-4.478647	-0.614625	-0.341589
C80	C	-4.266288	-0.564566	-0.337331
H81	H	-4.527729	-0.662509	-0.400913
H82	H	-4.596014	-0.573727	-0.345034
H83	H	-4.469341	-0.644731	-0.281927
H84	H	-4.275393	-0.534452	-0.396978
H85	H	-4.149006	-0.605502	-0.333843
H86	H	-4.442249	-0.873916	-0.263684
H87	H	-4.331777	-0.110998	-0.817398
H88	H	-3.763123	0.021847	-0.785122
H89	H	-4.153907	-0.229028	-0.727937
O90	O	-4.426365	-0.717621	-0.265849
C91	C	-4.646646	-0.639748	-0.345251
C92	C	-4.460070	-0.680907	-0.340174
H93	H	-4.673982	-0.610069	-0.405348
H94	H	-4.615584	-0.592264	-0.286351
H95	H	-4.788601	-0.686495	-0.347840
H96	H	-4.318032	-0.634219	-0.337612
H97	H	-4.491307	-0.728406	-0.399073
O98	O	-3.552529	-0.095636	-0.689762
C99	C	-3.292980	-0.159466	-0.611749
C100	C	-3.524128	-0.163923	-0.650271
H101	H	-3.269941	-0.214676	-0.579828
H102	H	-3.228544	-0.103038	-0.562171
H103	H	-3.209314	-0.157405	-0.664791
H104	H	-3.607965	-0.166014	-0.597289
H105	H	-3.588407	-0.220343	-0.699870
