data_functionalizedCrystal
_audit_creation_method	'MofGen! by Chris Wilmer'
_symmetry_space_group_name_H-M	'P1'
_symmetry_Int_Tables_number	1
_symmetry_cell_setting	triclinic
loop_
_symmetry_equiv_pos_as_xyz
  x,y,z
_cell_length_a	11.169416
_cell_length_b	11.169417
_cell_length_c	11.169409
_cell_angle_alpha	90.022388
_cell_angle_beta	89.969184
_cell_angle_gamma	89.991438
loop_
_atom_site_label
_atom_site_type_symbol
_atom_site_fract_x
_atom_site_fract_y
_atom_site_fract_z
Zn1	Zn	-0.477768	-1.834971	-0.678613
Zn2	Zn	-0.144434	-1.501638	-0.345280
Zn3	Zn	0.188899	-1.168304	-0.011947
Zn4	Zn	-0.678508	-1.834858	-0.477935
Zn5	Zn	-0.345175	-1.501525	-0.144602
Zn6	Zn	-0.011841	-1.168191	0.188731
Zn7	Zn	-0.477831	-1.634254	-0.477941
Zn8	Zn	-0.144498	-1.300921	-0.144608
Zn9	Zn	0.188835	-0.967588	0.188725
Zn10	Zn	-0.678401	-1.634264	-0.678574
Zn11	Zn	-0.345068	-1.300931	-0.345241
Zn12	Zn	-0.011734	-0.967598	-0.011907
O13	O	-0.578127	-1.734587	-0.578266
O14	O	-0.244794	-1.401254	-0.244933
O15	O	0.088540	-1.067920	0.088401
O16	O	-0.504414	-2.002906	-0.652007
O17	O	-0.171081	-1.669572	-0.318674
O18	O	0.162252	-1.336239	0.014660
O19	O	-0.651959	-1.808196	-0.309986
O20	O	-0.318626	-1.474862	0.023347
O21	O	0.014708	-1.141529	0.356680
O22	O	-0.309873	-1.660923	-0.504580
O23	O	0.023460	-1.327590	-0.171247
O24	O	0.356794	-0.994256	0.162087
O25	O	-0.651897	-2.002823	-0.504570
O26	O	-0.318564	-1.669489	-0.171236
O27	O	0.014769	-1.336156	0.162097
O28	O	-0.309826	-1.808389	-0.652013
O29	O	0.023507	-1.475055	-0.318679
O30	O	0.356840	-1.141722	0.014654
O31	O	-0.504523	-1.660813	-0.309991
O32	O	-0.171189	-1.327480	0.023343
O33	O	0.162144	-0.994147	0.356676
O34	O	-0.504419	-1.466306	-0.504542
O35	O	-0.171086	-1.132973	-0.171208
O36	O	0.162248	-0.799639	0.162125
O37	O	-0.651715	-1.660940	-0.846529
O38	O	-0.318382	-1.327607	-0.513196
O39	O	0.014951	-0.994274	-0.179862
O40	O	-0.651777	-1.466313	-0.651945
O41	O	-0.318444	-1.132980	-0.318612
O42	O	0.014890	-0.799647	0.014721
O43	O	-0.504311	-1.808399	-0.846558
O44	O	-0.170977	-1.475065	-0.513225
O45	O	0.162356	-1.141732	-0.179891
O46	O	-0.846443	-1.808206	-0.504531
O47	O	-0.513110	-1.474872	-0.171198
O48	O	-0.179777	-1.141539	0.162135
O49	O	-0.846365	-1.660830	-0.651940
O50	O	-0.513032	-1.327497	-0.318606
O51	O	-0.179698	-0.994164	0.014727
C52	C	-0.889952	-1.734539	-0.578257
C53	C	-0.556618	-1.401206	-0.244923
C54	C	-0.223285	-1.067873	0.088410
C55	C	-1.023352	-1.734629	-0.578293
C56	C	-0.690018	-1.401296	-0.244960
C57	C	-0.356685	-1.067962	0.088374
C58	C	-0.578094	-1.422762	-0.578241
C59	C	-0.244761	-1.089429	-0.244907
C60	C	0.088572	-0.756096	0.088426
C61	C	-0.578109	-1.289362	-0.578258
C62	C	-0.244776	-0.956029	-0.244925
C63	C	0.088557	-0.622696	0.088408
C64	C	-0.577994	-1.734683	-0.891309
C65	C	-0.244661	-1.401350	-0.557975
C66	C	0.088673	-1.068016	-0.224642
C67	C	-0.577937	-1.734724	-1.024709
C68	C	-0.244604	-1.401391	-0.691375
C69	C	0.088729	-1.068057	-0.358042
C70	C	-0.265085	-1.734667	-0.578301
C71	C	0.068249	-1.401334	-0.244968
C72	C	0.401582	-1.068001	0.088365
C73	C	-0.131685	-1.734702	-0.578316
C74	C	0.201649	-1.401368	-0.244983
C75	C	0.534982	-1.068035	0.088350
C76	C	-0.578149	-1.047629	-0.578284
C77	C	-0.244816	-0.714296	-0.244951
C78	C	0.088518	-0.380963	0.088383
C79	C	-0.578129	-1.181029	-0.578271
C80	C	-0.244795	-0.847696	-0.244938
C81	C	0.088538	-0.514363	0.088395
C82	C	-0.578173	-1.734560	-0.266441
C83	C	-0.244839	-1.401227	0.066892
C84	C	0.088494	-1.067894	0.400225
C85	C	-0.577891	-1.734752	-0.133042
C86	C	-0.244558	-1.401418	0.200292
C87	C	0.088775	-1.068085	0.533625
