data_functionalizedCrystal
_audit_creation_method	'MofGen! by Chris Wilmer'
_symmetry_space_group_name_H-M	'P1'
_symmetry_Int_Tables_number	1
_symmetry_cell_setting	triclinic
loop_
_symmetry_equiv_pos_as_xyz
  x,y,z
_cell_length_a	15.995292
_cell_length_b	15.995292
_cell_length_c	13.101039
_cell_angle_alpha	93.364742
_cell_angle_beta	86.641931
_cell_angle_gamma	83.468616
loop_
_atom_site_label
_atom_site_type_symbol
_atom_site_fract_x
_atom_site_fract_y
_atom_site_fract_z
O1	O	1.115602	0.103074	-0.085235
O2	O	0.871817	0.116453	-0.085230
O3	O	1.000399	-0.012129	-0.085235
O4	O	0.987020	0.231656	-0.085231
O5	O	0.991173	-0.002888	0.085196
O6	O	0.862591	0.125694	0.085200
O7	O	1.106376	0.112315	0.085195
Zn8	Zn	0.983019	0.120472	0.112257
Zn9	Zn	0.995174	0.108296	-0.112292
O10	O	0.977794	0.240897	0.085199
C11	C	0.836008	0.120529	-0.000015
C12	C	0.743056	0.118897	-0.000013
C13	C	0.405319	0.112895	-0.000025
C14	C	0.428633	0.205681	-0.000404
C15	C	0.525287	0.207466	-0.000016
C16	C	0.572874	0.115873	-0.000020
C17	C	0.538514	0.074751	0.097300
C18	C	0.441720	0.073638	0.097377
C19	C	0.452356	0.061234	-0.096434
C20	C	0.548917	0.064604	-0.097716
C21	C	0.667570	0.117551	-0.000013
C22	C	0.310624	0.111214	-0.000024
C23	C	0.995242	-0.038704	-0.000022
C24	C	0.993610	-0.131657	-0.000030
C25	C	0.987608	-0.469394	-0.000020
C26	C	1.080394	-0.446080	0.000359
C27	C	1.082179	-0.349426	-0.000029
C28	C	0.990586	-0.301839	-0.000024
C29	C	0.949455	-0.336207	-0.097344
C30	C	0.948342	-0.433001	-0.097422
C31	C	0.935955	-0.422349	0.096389
C32	C	0.939325	-0.325788	0.097671
C33	C	0.992264	-0.207143	-0.000030
C34	C	0.985927	-0.564089	-0.000021
C35	C	1.142185	0.108239	-0.000023
C36	C	1.235138	0.109871	-0.000031
C37	C	0.982951	0.267472	-0.000016
C38	C	0.984584	0.360425	-0.000015
N39	N	0.974729	0.128780	0.265505
N40	N	1.003470	0.099981	-0.265541
C41	C	0.963451	0.140093	0.474548
C42	C	1.014746	0.088672	0.525422
C43	C	1.008470	0.094966	0.641741
C44	C	0.969726	0.133799	0.358219
H45	H	0.582219	-0.002569	-0.103597
H46	H	0.404407	0.237669	-0.070197
N47	N	0.899049	0.204674	0.532556
H48	H	0.840582	0.194130	0.513965
H49	H	0.903716	0.200044	0.608612
N50	N	0.555491	0.250581	-0.092424
H51	H	0.505993	0.268597	-0.133778
H52	H	0.582673	0.301771	-0.069103
N53	N	1.079169	0.024107	0.467407
H54	H	1.112531	-0.009332	0.517568
H55	H	1.049425	-0.015235	0.422890
N56	N	0.385218	0.257793	0.091526
H57	H	0.350514	0.221558	0.133416
H58	H	0.428973	0.280120	0.134908
H59	H	0.571377	0.094483	-0.169712
N60	N	1.132501	-0.489492	-0.091575
H61	H	1.181315	-0.527576	-0.067819
H62	H	1.096205	-0.524155	-0.133433
H63	H	0.410958	0.109716	0.170129
N64	N	0.544641	0.260898	0.092563
H65	H	0.582140	0.225500	0.136912
H66	H	0.574371	0.309610	0.069453
N67	N	0.422127	-0.016171	0.103238
H68	H	0.450779	-0.051740	0.042068
H69	H	0.443318	-0.039283	0.168282
N70	N	0.580486	-0.014266	0.102106
H71	H	0.622279	-0.028827	0.041097
H72	H	0.610886	-0.018855	0.167334
H73	H	0.428015	0.086243	-0.170197
H74	H	1.114741	-0.326626	0.069732
H75	H	1.122515	-0.334818	-0.069915
N76	N	0.860438	-0.294236	-0.102156
H77	H	0.820016	-0.338355	-0.101196
H78	H	0.845954	-0.252435	-0.041142
N79	N	0.559878	0.122626	0.193245
H80	H	0.591794	0.170955	0.173893
H81	H	0.506154	0.145392	0.234949
N82	N	0.433896	-0.029302	-0.097314
H83	H	0.395261	-0.036856	-0.035602
H84	H	0.405724	-0.043974	-0.161923
H85	H	1.112388	-0.470301	0.070151
H86	H	0.880534	-0.447776	-0.101828
N87	N	0.996135	-0.473766	-0.193777
H88	H	0.968303	-0.451756	-0.255684
H89	H	1.056224	-0.459911	-0.195317
N90	N	0.997324	-0.314860	-0.193293
H91	H	0.995892	-0.251631	-0.194405
H92	H	1.057756	-0.341458	-0.194201
N93	N	0.969167	-0.454479	0.194107
H94	H	0.964363	-0.516825	0.195479
H95	H	1.030250	-0.444639	0.197260
N96	N	0.978904	-0.296032	0.193045
H97	H	1.029827	-0.267156	0.173064
H98	H	0.936509	-0.255047	0.236224
H99	H	0.872153	-0.292486	0.103553
H100	H	0.867607	-0.436290	0.097048
