data_functionalizedCrystal
_audit_creation_method	'MofGen! by Chris Wilmer'
_symmetry_space_group_name_H-M	'P1'
_symmetry_Int_Tables_number	1
_symmetry_cell_setting	triclinic
loop_
_symmetry_equiv_pos_as_xyz
  x,y,z
_cell_length_a	14.519709
_cell_length_b	11.792241
_cell_length_c	10.868271
_cell_angle_alpha	89.994719
_cell_angle_beta	90.001299
_cell_angle_gamma	83.936780
loop_
_atom_site_label
_atom_site_type_symbol
_atom_site_fract_x
_atom_site_fract_y
_atom_site_fract_z
O1	O	1.224412	0.148781	-0.102162
O2	O	0.955999	0.166302	-0.102200
O3	O	1.096719	-0.007665	-0.102172
O4	O	1.083692	0.322748	-0.102191
O5	O	1.096707	-0.007672	0.102473
O6	O	0.955987	0.166295	0.102445
O7	O	1.224400	0.148774	0.102482
Zn8	Zn	1.090192	0.157533	0.134955
Zn9	Zn	1.090207	0.157542	-0.134673
O10	O	1.083680	0.322741	0.102454
C11	C	1.095895	-0.049955	0.000150
C12	C	1.093446	-0.175955	0.000149
C13	C	0.921630	0.165482	0.000117
C14	C	0.819240	0.163035	0.000103
C15	C	1.088942	-0.406642	0.000127
C16	C	1.091444	-0.278271	0.000139
C17	C	0.444311	0.154027	0.000160
C18	C	0.548628	0.156528	0.000144
C19	C	0.631772	0.158531	0.000130
C20	C	0.736096	0.161033	0.000117
C21	C	1.258769	0.149594	0.000162
C22	C	1.361159	0.152041	0.000168
C23	C	1.084504	0.365031	0.000129
C24	C	1.086954	0.491031	0.000123
N25	N	1.090188	0.157527	0.318969
N26	N	1.090218	0.157540	-0.318687
C27	C	1.090202	0.157540	0.569975
C28	C	1.090191	0.157536	0.430298
