data_functionalizedCrystal
_audit_creation_method	'MofGen! by Chris Wilmer'
_symmetry_space_group_name_H-M	'P1'
_symmetry_Int_Tables_number	1
_symmetry_cell_setting	triclinic
loop_
_symmetry_equiv_pos_as_xyz
  x,y,z
_cell_length_a	12.837943
_cell_length_b	15.944545
_cell_length_c	11.892095
_cell_angle_alpha	93.887265
_cell_angle_beta	85.689438
_cell_angle_gamma	89.162556
loop_
_atom_site_label
_atom_site_type_symbol
_atom_site_fract_x
_atom_site_fract_y
_atom_site_fract_z
O1	O	1.382090	0.213524	-0.093994
O2	O	1.080284	0.202737	-0.094000
O3	O	1.239431	0.086515	-0.093983
O4	O	1.222943	0.329745	-0.094011
O5	O	1.226162	0.096189	0.094023
O6	O	1.067015	0.212410	0.094006
O7	O	1.368821	0.223197	0.094012
Zn8	Zn	1.215811	0.219340	0.123859
Zn9	Zn	1.233294	0.206594	-0.123847
O10	O	1.209674	0.339419	0.093995
C11	C	1.035029	0.203930	0.000002
C12	C	0.919952	0.193062	0.000000
C13	C	0.678999	0.323714	0.000002
C14	C	0.570872	0.313507	0.000001
C15	C	0.595570	0.162440	0.000006
C16	C	0.703697	0.172648	0.000007
C17	C	0.745407	0.253287	0.000003
C18	C	0.853535	0.263494	-0.000004
C19	C	0.878231	0.112428	0.000009
C20	C	0.770105	0.102221	0.000008
C21	C	1.232113	0.060003	0.000021
C22	C	1.230064	-0.033407	0.000024
C23	C	1.125296	-0.312422	-0.000001
C24	C	1.182350	-0.262565	-0.092698
C25	C	1.222759	-0.369637	-0.000008
C26	C	1.169294	-0.253053	0.092662
C27	C	1.226343	-0.204435	0.000009
C28	C	1.279793	-0.321014	-0.092781
C29	C	1.266716	-0.311502	0.092661
C30	C	1.323843	-0.261674	-0.000058
C31	C	1.220692	-0.464805	-0.000020
C32	C	1.228418	-0.109270	0.000012
C33	C	1.414076	0.222004	0.000007
C34	C	1.529154	0.232872	0.000002
C35	C	1.216992	0.365931	-0.000011
C36	C	1.219042	0.459340	-0.000022
N37	N	1.203887	0.228038	0.292912
N38	N	1.245226	0.197890	-0.292900
C39	C	1.328200	0.137312	0.529573
C40	C	1.319872	0.143399	0.647914
C41	C	1.178901	0.246295	0.647937
C42	C	1.187228	0.240208	0.529596
C43	C	1.261881	0.185716	0.470418
C44	C	1.270213	0.179634	0.352075
C45	C	1.129237	0.282524	0.352100
C46	C	1.120909	0.288611	0.470441
H47	H	0.712959	0.389374	-0.000003
H48	H	0.887493	0.329154	-0.000005
O49	O	1.113723	-0.217581	0.186189
C50	C	1.116846	-0.127401	0.356856
C51	C	1.179906	-0.167498	0.250979
H52	H	1.170333	-0.086915	0.409280
H53	H	1.050586	-0.086607	0.330178
H54	H	1.082940	-0.179055	0.409533
H55	H	1.213880	-0.115900	0.198254
H56	H	1.246110	-0.208312	0.277735
O57	O	1.064661	0.329506	0.294758
C58	C	0.886978	0.362334	0.258518
C59	C	0.959979	0.309087	0.323550
H60	H	0.802329	0.345832	0.281755
H61	H	0.898766	0.431907	0.281803
H62	H	0.905810	0.348642	0.163777
H63	H	0.941193	0.322707	0.418306
H64	H	0.948178	0.239531	0.300171
H65	H	1.302310	-0.333129	0.171034
H66	H	1.373874	0.103984	0.696074
H67	H	1.388992	0.092949	0.481389
H68	H	1.331001	0.135266	0.303893
O69	O	0.555083	0.084105	0.000212
C70	C	0.536291	-0.043145	0.097584
C71	C	0.582179	0.045560	0.097505
H72	H	0.558200	-0.074341	0.176224
H73	H	0.447594	-0.038390	0.097660
H74	H	0.569172	-0.082399	0.018867
H75	H	0.549379	0.084863	0.176208
H76	H	0.670876	0.040742	0.097369
O77	O	0.506515	0.382006	-0.000055
C78	C	0.493428	0.532924	0.000007
C79	C	0.566434	0.455416	0.000042
H80	H	0.541841	0.592297	0.000109
H81	H	0.447763	0.527936	-0.078693
H82	H	0.436616	0.535918	0.078667
H83	H	0.623307	0.452375	-0.078565
H84	H	0.612024	0.460436	0.078794
O85	O	1.139954	-0.236877	-0.186304
C86	C	1.149212	-0.243633	-0.389859
C87	C	1.197321	-0.272808	-0.283955
H88	H	1.195585	-0.272656	-0.468836
H89	H	1.064619	-0.264416	-0.389841
H90	H	1.151855	-0.172170	-0.389294
H91	H	1.194752	-0.344267	-0.284450
H92	H	1.281889	-0.251962	-0.284013
O93	O	0.729715	0.023842	-0.000144
C94	C	0.724561	-0.113383	-0.097590
C95	C	0.770397	-0.024655	-0.097540
H96	H	0.757417	-0.152612	-0.176338
H97	H	0.746392	-0.144642	-0.018967
H98	H	0.635871	-0.108557	-0.097535
H99	H	0.859091	-0.029406	-0.097635
H100	H	0.748483	0.006571	-0.176156
H101	H	1.060126	0.332975	0.518638
O102	O	0.942855	0.044064	-0.000142
C103	C	1.086087	-0.037122	-0.097591
C104	C	1.012987	0.040337	-0.097539
H105	H	1.142793	-0.040171	-0.176339
H106	H	1.131856	-0.032089	-0.018968
H107	H	1.037669	-0.096491	-0.097535
H108	H	1.061325	0.099743	-0.097634
H109	H	0.967214	0.035229	-0.176155
O110	O	1.025173	-0.339094	-0.000310
C111	C	0.867577	-0.344516	-0.098360
C112	C	0.980953	-0.314273	-0.098157
H113	H	0.831784	-0.324445	-0.177449
H114	H	0.866847	-0.415967	-0.097628
H115	H	0.820139	-0.315475	-0.020098
H116	H	1.028458	-0.343254	-0.176406
H117	H	0.981603	-0.242818	-0.098830
H118	H	1.326461	-0.350567	-0.171235
O119	O	1.106242	0.299116	0.705389
C120	C	0.923451	0.335700	0.741601
C121	C	1.005629	0.275813	0.676483
H122	H	0.842089	0.316892	0.718237
H123	H	0.928804	0.331716	0.836354
H124	H	0.938637	0.402872	0.718359
H125	H	0.990497	0.208615	0.699630
H126	H	1.000256	0.279870	0.581745
H127	H	1.407848	-0.239466	-0.000109
