data_functionalizedCrystal
_audit_creation_method	'MofGen! by Chris Wilmer'
_symmetry_space_group_name_H-M	'P1'
_symmetry_Int_Tables_number	1
_symmetry_cell_setting	triclinic
loop_
_symmetry_equiv_pos_as_xyz
  x,y,z
_cell_length_a	10.967874
_cell_length_b	15.021413
_cell_length_c	10.967829
_cell_angle_alpha	102.123825
_cell_angle_beta	82.165976
_cell_angle_gamma	102.136084
loop_
_atom_site_label
_atom_site_type_symbol
_atom_site_fract_x
_atom_site_fract_y
_atom_site_fract_z
O1	O	1.657247	0.355110	0.174956
O2	O	1.294085	0.301970	0.191720
O3	O	1.484038	0.301965	0.001765
O4	O	1.467294	0.355115	0.364911
O5	O	1.484007	0.153900	0.001792
O6	O	1.294055	0.153906	0.191747
O7	O	1.657217	0.207045	0.174983
Zn8	Zn	1.475631	0.156967	0.183369
Zn9	Zn	1.475671	0.352048	0.183334
O10	O	1.467264	0.207050	0.364938
C11	C	1.247569	0.220618	0.190516
C12	C	1.109011	0.198803	0.186873
N13	N	1.475613	0.023830	0.183393
C14	C	1.047253	0.265779	0.185234
C15	C	0.904046	0.243234	0.181469
C16	C	1.387765	-0.215859	0.271187
C17	C	1.500738	-0.253999	0.296368
C18	C	1.475645	-0.157777	0.183362
C19	C	1.362702	-0.296370	0.158208
C20	C	1.475665	-0.333202	0.183335
C21	C	1.588675	-0.194593	0.208601
C22	C	1.450565	-0.236977	0.070391
C23	C	1.563619	-0.275085	0.095526
C24	C	1.475631	-0.056719	0.183381
C25	C	1.475692	-0.434256	0.183315
C26	C	1.703733	0.288400	0.176187
C27	C	1.842291	0.310220	0.179830
C28	C	1.482802	0.220613	-0.044720
C29	C	1.479150	0.198800	-0.183271
N30	N	1.475699	0.485185	0.183300
C31	C	1.477538	0.265778	-0.245050
C32	C	1.473764	0.243235	-0.388250
C33	C	1.468500	0.288404	0.411423
C34	C	1.472152	0.310223	0.549975
H35	H	1.100400	0.339811	0.186626
O36	O	1.479402	0.363843	-0.174688
H37	H	1.477636	0.409476	-0.241724
O38	O	1.471909	0.145164	-0.458598
H39	H	1.469253	0.142850	-0.560035
O40	O	1.662169	-0.309318	-0.002877
H41	H	1.660934	-0.383372	-0.002738
O42	O	1.038420	0.100803	0.185170
H43	H	1.073537	0.054430	0.100975
H44	H	1.521969	-0.262173	0.391894
O45	O	0.912666	0.408293	0.181654
H46	H	1.014104	0.410612	0.184312
H47	H	1.473551	0.384258	-0.396906
H48	H	1.429298	-0.228783	-0.025104
H49	H	1.477729	0.124768	-0.236395
H50	H	1.684219	-0.150683	0.229978
O51	O	1.236180	-0.354659	0.130029
H52	H	1.172881	-0.309396	0.116885
O53	O	0.833608	0.145230	0.180140
H54	H	0.732151	0.142936	0.177647
H55	H	1.313524	-0.189828	0.345518
