data_functionalizedCrystal
_audit_creation_method	'MofGen! by Chris Wilmer'
_symmetry_space_group_name_H-M	'P1'
_symmetry_Int_Tables_number	1
_symmetry_cell_setting	triclinic
loop_
_symmetry_equiv_pos_as_xyz
  x,y,z
_cell_length_a	13.897449
_cell_length_b	13.032721
_cell_length_c	13.033352
_cell_angle_alpha	103.309252
_cell_angle_beta	82.821819
_cell_angle_gamma	82.794330
loop_
_atom_site_label
_atom_site_type_symbol
_atom_site_fract_x
_atom_site_fract_y
_atom_site_fract_z
Zn1	Zn	1.339234	0.499313	0.654218
Zn2	Zn	1.339176	0.654335	0.499158
Zn3	Zn	1.201448	0.476740	0.476631
Zn4	Zn	1.154436	0.676885	0.676712
O5	O	1.258574	0.576818	0.576680
O6	O	1.474206	0.519887	0.633664
O7	O	1.340557	0.611892	0.347542
O8	O	1.239425	0.331095	0.481347
O9	O	1.474163	0.633781	0.519742
O10	O	1.340656	0.347680	0.611820
O11	O	1.239369	0.481414	0.330992
O12	O	1.060233	0.503280	0.503158
O13	O	1.159299	0.672214	0.822355
O14	O	1.025693	0.650326	0.650156
O15	O	1.295070	0.541753	0.805830
O16	O	1.294971	0.805965	0.541553
O17	O	1.159243	0.822532	0.672000
C18	C	1.222022	0.852792	0.611685
C19	C	1.206469	0.970859	0.626696
C20	C	1.007964	0.576801	0.576654
C21	C	0.900746	0.576822	0.576671
C22	C	1.221947	0.612017	0.853708
C23	C	1.206339	0.627017	0.971760
C24	C	0.704447	0.576830	0.576699
C25	C	0.813682	0.576822	0.576680
C26	C	1.510161	0.576836	0.576707
C27	C	1.617373	0.576844	0.576718
C28	C	1.295291	0.299770	0.541561
C29	C	1.310938	0.181708	0.526596
C30	C	1.266736	1.015271	0.568893
C31	C	1.250662	1.137300	0.584406
C32	C	1.266557	0.569155	1.016216
C33	C	1.250427	0.584656	1.138229
C34	C	1.295047	0.541781	1.300733
C35	C	1.310653	0.526786	1.182680
H36	H	1.330236	0.962956	0.507925
N37	N	1.166540	1.206587	0.665168
H38	H	1.128528	1.160183	0.701609
H39	H	1.193248	1.258810	0.720164
N40	N	1.395059	1.112424	0.445832
H41	H	1.368427	1.060192	0.390767
H42	H	1.433037	1.158906	0.409472
H43	H	1.142837	0.688024	1.024030
H44	H	1.374150	0.465761	1.130414
H45	H	1.142976	1.023178	0.687671
N46	N	1.350687	0.488355	0.946994
H47	H	1.350295	0.488747	0.869645
H48	H	1.414831	0.507364	0.968448
H49	H	1.186920	0.645668	1.190495
