data_functionalizedCrystal
_audit_creation_method	'MofGen! by Chris Wilmer'
_symmetry_space_group_name_H-M	'P1'
_symmetry_Int_Tables_number	1
_symmetry_cell_setting	triclinic
loop_
_symmetry_equiv_pos_as_xyz
  x,y,z
_cell_length_a	13.897449
_cell_length_b	13.032318
_cell_length_c	13.033252
_cell_angle_alpha	76.667380
_cell_angle_beta	97.188182
_cell_angle_gamma	82.792964
loop_
_atom_site_label
_atom_site_type_symbol
_atom_site_fract_x
_atom_site_fract_y
_atom_site_fract_z
Zn1	Zn	1.498002	0.346777	0.546808
Zn2	Zn	1.450968	0.546944	0.346621
Zn3	Zn	1.313256	0.369325	0.369209
Zn4	Zn	1.313178	0.524381	0.524191
O5	O	1.393851	0.446857	0.446707
O6	O	1.626745	0.373336	0.520265
O7	O	1.413049	0.542262	0.200977
O8	O	1.357480	0.217672	0.411686
O9	O	1.592189	0.520398	0.373188
O10	O	1.493212	0.201106	0.542168
O11	O	1.311873	0.411766	0.217573
O12	O	1.178264	0.389887	0.389755
O13	O	1.357347	0.481942	0.675831
O14	O	1.178206	0.503806	0.503620
O15	O	1.493136	0.351457	0.692448
O16	O	1.412973	0.692613	0.351257
O17	O	1.311740	0.676036	0.481717
C18	C	1.143236	0.446846	0.446685
C19	C	1.036021	0.446863	0.446697
C20	C	1.357273	0.722868	0.411605
C21	C	1.341718	0.840942	0.396623
C22	C	0.839729	0.446864	0.446724
C23	C	0.948960	0.446861	0.446707
C24	C	1.401911	0.885295	0.454567
C25	C	1.385835	1.007331	0.439084
C26	C	1.645445	0.446869	0.446730
C27	C	1.752660	0.446874	0.446740
C28	C	1.430480	0.411667	0.723758
C29	C	1.446088	0.396672	0.841820
C30	C	1.430545	1.169764	0.481980
C31	C	1.446036	1.051680	0.497036
C32	C	1.385861	0.454548	0.886234
C33	C	1.401992	0.439050	1.008258
C34	C	1.357358	0.481934	1.170731
C35	C	1.341757	0.496934	1.052668
H36	H	1.465343	0.832923	0.515642
H37	H	1.322392	1.059701	0.378015
C38	C	1.203493	0.847288	0.263564
C39	C	1.256077	0.911633	0.314179
H40	H	1.150618	0.890930	0.212670
H41	H	1.245846	0.809153	0.228429
H42	H	1.178339	0.798156	0.315266
H43	H	1.281238	0.960761	0.262477
H44	H	1.213717	0.949786	0.349314
H45	H	1.509596	0.335653	0.894132
H46	H	1.465504	0.378027	1.060567
C47	C	1.167043	0.553008	1.011712
C48	C	1.256017	0.579318	0.982064
H49	H	1.114114	0.603871	0.968127
H50	H	1.160022	0.483924	1.002661
H51	H	1.166649	0.553403	1.084453
H52	H	1.256414	0.578915	0.909325
H53	H	1.263039	0.648420	0.991106
C54	C	1.494575	0.908573	0.655675
C55	C	1.531679	0.980993	0.579488
H56	H	1.547448	0.864931	0.706571
H57	H	1.452229	0.946725	0.690803
H58	H	1.458896	0.864937	0.621318
H59	H	1.567352	1.024635	0.613844
H60	H	1.574042	0.942838	0.544356
C61	C	1.310542	0.638775	0.828960
C62	C	1.300146	0.536943	0.815610
H63	H	1.257630	0.689647	0.785351
H64	H	1.310116	0.639166	0.901687
H65	H	1.370925	0.656580	0.808875
H66	H	1.239765	0.519135	0.835702
H67	H	1.300562	0.536550	0.742866
