data_functionalizedCrystal
_audit_creation_method	'MofGen! by Chris Wilmer'
_symmetry_space_group_name_H-M	'P1'
_symmetry_Int_Tables_number	1
_symmetry_cell_setting	triclinic
loop_
_symmetry_equiv_pos_as_xyz
  x,y,z
_cell_length_a	21.395364
_cell_length_b	21.295417
_cell_length_c	21.295411
_cell_angle_alpha	90.028718
_cell_angle_beta	90.016431
_cell_angle_gamma	90.045458
loop_
_atom_site_label
_atom_site_type_symbol
_atom_site_fract_x
_atom_site_fract_y
_atom_site_fract_z
Zn1	Zn	0.957810	-0.250386	0.355911
Zn2	Zn	1.207810	-0.000386	0.605911
Zn3	Zn	1.457810	0.249614	0.855911
Zn4	Zn	1.707810	0.499614	1.105911
Zn5	Zn	0.957728	-0.355651	0.250637
Zn6	Zn	1.207728	-0.105651	0.500637
Zn7	Zn	1.457728	0.144349	0.750637
Zn8	Zn	1.707728	0.394349	1.000637
Zn9	Zn	0.853040	-0.250427	0.250656
Zn10	Zn	1.103040	-0.000427	0.500656
Zn11	Zn	1.353040	0.249573	0.750656
Zn12	Zn	1.603040	0.499573	1.000656
Zn13	Zn	0.852994	-0.355649	0.355868
Zn14	Zn	1.102994	-0.105649	0.605868
Zn15	Zn	1.352994	0.144351	0.855868
Zn16	Zn	1.602994	0.394351	1.105868
O17	O	0.905393	-0.303028	0.303268
O18	O	1.155393	-0.053028	0.553268
O19	O	1.405393	0.196972	0.803268
O20	O	1.655393	0.446972	1.053268
O21	O	1.045477	-0.264333	0.341956
O22	O	1.295477	-0.014333	0.591956
O23	O	1.545477	0.235667	0.841956
O24	O	1.795477	0.485667	1.091956
O25	O	0.943825	-0.341711	0.162550
O26	O	1.193825	-0.091711	0.412550
O27	O	1.443825	0.158289	0.662550
O28	O	1.693825	0.408289	0.912550
O29	O	0.866991	-0.162332	0.264645
O30	O	1.116991	0.087668	0.514645
O31	O	1.366991	0.337668	0.764645
O32	O	1.616991	0.587668	1.014645
O33	O	1.045416	-0.341671	0.264611
O34	O	1.295416	-0.091671	0.514611
O35	O	1.545416	0.158329	0.764611
O36	O	1.795416	0.408329	1.014611
O37	O	0.943965	-0.162302	0.341975
O38	O	1.193965	0.087698	0.591975
O39	O	1.443965	0.337698	0.841975
O40	O	1.693965	0.587698	1.091975
O41	O	0.866911	-0.264403	0.162564
O42	O	1.116911	-0.014403	0.412564
O43	O	1.366911	0.235597	0.662564
O44	O	1.616911	0.485597	0.912564
O45	O	0.765356	-0.264401	0.264603
O46	O	1.015356	-0.014401	0.514603
O47	O	1.265356	0.235599	0.764603
O48	O	1.515356	0.485599	1.014603
O49	O	0.866914	-0.341667	0.443963
O50	O	1.116914	-0.091667	0.693963
O51	O	1.366914	0.158333	0.943963
O52	O	1.616914	0.408333	1.193963
O53	O	0.765323	-0.341707	0.341902
O54	O	1.015323	-0.091707	0.591902
O55	O	1.265323	0.158293	0.841902
O56	O	1.515323	0.408293	1.091902
O57	O	0.943921	-0.264331	0.443995
O58	O	1.193921	-0.014331	0.693995
O59	O	1.443921	0.235669	0.943995
O60	O	1.693921	0.485669	1.193995
O61	O	0.943781	-0.443740	0.264570
O62	O	1.193781	-0.193740	0.514570
O63	O	1.443781	0.056260	0.764570
O64	O	1.693781	0.306260	1.014570
O65	O	0.866834	-0.443738	0.341883
O66	O	1.116834	-0.193738	0.591883
O67	O	1.366834	0.056262	0.841883
O68	O	1.616834	0.306262	1.091883
C69	C	0.742605	-0.303059	0.303250
C70	C	0.992605	-0.053059	0.553250
C71	C	1.242605	0.196941	0.803250
C72	C	1.492605	0.446941	1.053250
C73	C	0.672964	-0.303087	0.303258
C74	C	0.922964	-0.053087	0.553258
C75	C	1.172964	0.196913	0.803258
C76	C	1.422964	0.446913	1.053258
C77	C	0.640305	-0.262883	0.343594
C78	C	0.890305	-0.012883	0.593594
C79	C	1.140305	0.237117	0.843594
C80	C	1.390305	0.487117	1.093594
C81	C	0.574869	-0.262866	0.343596
C82	C	0.824869	-0.012866	0.593596
C83	C	1.074869	0.237134	0.843596
C84	C	1.324869	0.487134	1.093596
C85	C	0.542096	-0.303065	0.303269
C86	C	0.792096	-0.053065	0.553269
C87	C	1.042096	0.196935	0.803269
C88	C	1.292096	0.446935	1.053269
C89	C	0.574763	-0.343271	0.262926
C90	C	0.824763	-0.093271	0.512926
C91	C	1.074763	0.156729	0.762926
C92	C	1.324763	0.406729	1.012926
C93	C	0.640197	-0.343282	0.262920
C94	C	0.890197	-0.093282	0.512920
C95	C	1.140197	0.156718	0.762920
C96	C	1.390197	0.406718	1.012920
C97	C	0.438372	-0.359755	0.298205
C98	C	0.688372	-0.109755	0.548205
C99	C	0.938372	0.140245	0.798205
C100	C	1.188372	0.390245	1.048205
C101	C	0.372939	-0.359745	0.298215
C102	C	0.622939	-0.109745	0.548215
C103	C	0.872939	0.140255	0.798215
C104	C	1.122939	0.390255	1.048215
C105	C	0.340275	-0.303030	0.303283
C106	C	0.590275	-0.053030	0.553283
C107	C	0.840275	0.196970	0.803283
C108	C	1.090275	0.446970	1.053283
C109	C	0.373052	-0.246324	0.308354
C110	C	0.623052	0.003676	0.558354
C111	C	0.873052	0.253676	0.808354
C112	C	1.123052	0.503676	1.058354
C113	C	0.438486	-0.246335	0.308349
C114	C	0.688486	0.003665	0.558349
C115	C	0.938486	0.253665	0.808349
C116	C	1.188486	0.503665	1.058349
C117	C	0.471143	-0.303057	0.303271
C118	C	0.721143	-0.053057	0.553271
C119	C	0.971143	0.196943	0.803271
C120	C	1.221143	0.446943	1.053271
C121	C	0.236663	-0.262805	0.343624
C122	C	0.486663	-0.012805	0.593624
C123	C	0.736663	0.237195	0.843624
C124	C	0.986663	0.487195	1.093624
C125	C	0.171227	-0.262787	0.343622
C126	C	0.421227	-0.012787	0.593622
C127	C	0.671227	0.237213	0.843622
C128	C	0.921227	0.487213	1.093622
C129	C	0.171121	-0.343197	0.262955
C130	C	0.421121	-0.093197	0.512955
C131	C	0.671121	0.156803	0.762955
C132	C	0.921121	0.406803	1.012955
C133	C	0.236557	-0.343210	0.262954
C134	C	0.486557	-0.093210	0.512954
C135	C	0.736557	0.156790	0.762954
C136	C	0.986557	0.406790	1.012954
C137	C	0.269324	-0.303014	0.303291
C138	C	0.519324	-0.053014	0.553291
C139	C	0.769324	0.196986	0.803291
C140	C	1.019324	0.446986	1.053291
C141	C	0.905311	-0.466580	0.303233
C142	C	1.155311	-0.216580	0.553233
C143	C	1.405311	0.033420	0.803233
C144	C	1.655311	0.283420	1.053233
C145	C	0.905333	-0.536548	0.303239
C146	C	1.155333	-0.286548	0.553239
C147	C	1.405333	-0.036548	0.803239
C148	C	1.655333	0.213452	1.053239
C149	C	0.945435	-0.569394	0.263024
C150	C	1.195435	-0.319394	0.513024
C151	C	1.445435	-0.069394	0.763024
C152	C	1.695435	0.180606	1.013024
C153	C	0.945464	-0.635137	0.263038
C154	C	1.195464	-0.385137	0.513038
C155	C	1.445464	-0.135137	0.763038
C156	C	1.695464	0.114863	1.013038
C157	C	0.905381	-0.668030	0.303261
C158	C	1.155381	-0.418030	0.553261
C159	C	1.405381	-0.168030	0.803261
C160	C	1.655381	0.081970	1.053261
C161	C	0.865276	-0.635176	0.343485
C162	C	1.115276	-0.385176	0.593485
C163	C	1.365276	-0.135176	0.843485
C164	C	1.615276	0.114824	1.093485
C165	C	0.865252	-0.569435	0.343474
C166	C	1.115252	-0.319435	0.593474
C167	C	1.365252	-0.069435	0.843474
C168	C	1.615252	0.180565	1.093474
N169	N	0.850570	-0.771311	0.308054
N170	N	1.100570	-0.521311	0.558054
N171	N	1.350570	-0.271311	0.808054
N172	N	1.600570	-0.021311	1.058054
N173	N	0.850594	-0.833762	0.308061
N174	N	1.100594	-0.583762	0.558061
N175	N	1.350594	-0.333762	0.808061
N176	N	1.600594	-0.083762	1.058061
C177	C	0.905451	-0.866105	0.303297
C178	C	1.155451	-0.616105	0.553297
C179	C	1.405451	-0.366105	0.803297
C180	C	1.655451	-0.116105	1.053297
N181	N	0.960283	-0.833637	0.298515
N182	N	1.210283	-0.583637	0.548515
N183	N	1.460283	-0.333637	0.798515
N184	N	1.710283	-0.083637	1.048515
N185	N	0.960258	-0.771180	0.298505
N186	N	1.210258	-0.521180	0.548505
N187	N	1.460258	-0.271180	0.798505
N188	N	1.710258	-0.021180	1.048505
C189	C	0.905402	-0.739316	0.303278
C190	C	1.155402	-0.489316	0.553278
C191	C	1.405402	-0.239316	0.803278
C192	C	1.655402	0.010684	1.053278
C193	C	0.945588	-0.970237	0.263095
C194	C	1.195588	-0.720237	0.513095
C195	C	1.445588	-0.470237	0.763095
C196	C	1.695588	-0.220237	1.013095
C197	C	0.945618	-1.035981	0.263113
C198	C	1.195618	-0.785981	0.513113
C199	C	1.445618	-0.535981	0.763113
C200	C	1.695618	-0.285981	1.013113
C201	C	0.865424	-1.036018	0.343557
C202	C	1.115424	-0.786018	0.593557
C203	C	1.365424	-0.536018	0.843557
C204	C	1.615424	-0.286018	1.093557
C205	C	0.865399	-0.970276	0.343542
C206	C	1.115399	-0.720276	0.593542
C207	C	1.365399	-0.470276	0.843542
C208	C	1.615399	-0.220276	1.093542
C209	C	0.905480	-0.937389	0.303307
C210	C	1.155480	-0.687389	0.553307
C211	C	1.405480	-0.437389	0.803307
C212	C	1.655480	-0.187389	1.053307
C213	C	1.068816	-0.302998	0.303286
C214	C	1.318816	-0.052998	0.553286
C215	C	1.568816	0.197002	0.803286
C216	C	1.818816	0.447002	1.053286
C217	C	1.138457	-0.302985	0.303294
C218	C	1.388457	-0.052985	0.553294
C219	C	1.638457	0.197015	0.803294
C220	C	1.888457	0.447015	1.053294
C221	C	0.905422	-0.302994	0.467458
C222	C	1.155422	-0.052994	0.717458
C223	C	1.405422	0.197006	0.967458
C224	C	1.655422	0.447006	1.217458
C225	C	0.905434	-0.302980	0.537427
C226	C	1.155434	-0.052980	0.787427
C227	C	1.405434	0.197020	1.037427
C228	C	1.655434	0.447020	1.287427
C229	C	0.905492	-0.138838	0.303317
C230	C	1.155492	0.111162	0.553317
C231	C	1.405492	0.361162	0.803317
C232	C	1.655492	0.611162	1.053317
C233	C	0.905535	-0.068870	0.303338
C234	C	1.155535	0.181130	0.553338
C235	C	1.405535	0.431130	0.803338
C236	C	1.655535	0.681130	1.053338
C237	C	0.905400	-0.303016	0.139717
C238	C	1.155400	-0.053016	0.389717
C239	C	1.405400	0.196984	0.639717
C240	C	1.655400	0.446984	0.889717
C241	C	0.905509	-0.302853	0.069749
C242	C	1.155509	-0.052853	0.319749
C243	C	1.405509	0.197147	0.569749
C244	C	1.655509	0.447147	0.819749
C245	C	0.945553	-0.343104	1.036878
C246	C	1.195553	-0.093104	1.286878
C247	C	1.445553	0.156896	1.536878
C248	C	1.695553	0.406896	1.786878
C249	C	0.945542	-0.343124	0.971135
C250	C	1.195542	-0.093124	1.221135
C251	C	1.445542	0.156876	1.471135
C252	C	1.695542	0.406876	1.721135
C253	C	0.905493	-0.302882	0.938266
C254	C	1.155493	-0.052882	1.188266
C255	C	1.405493	0.197118	1.438266
C256	C	1.655493	0.447118	1.688266
C257	C	0.865442	-0.262629	0.971145
C258	C	1.115442	-0.012629	1.221145
C259	C	1.365442	0.237371	1.471145
C260	C	1.615442	0.487371	1.721145
C261	C	0.865450	-0.262614	1.036887
C262	C	1.115450	-0.012614	1.286887
C263	C	1.365450	0.237386	1.536887
C264	C	1.615450	0.487386	1.786887
N265	N	0.900708	-0.247804	0.835061
N266	N	1.150708	0.002196	1.085061
N267	N	1.400708	0.252196	1.335061
N268	N	1.650708	0.502196	1.585061
N269	N	0.900704	-0.247819	0.772610
N270	N	1.150704	0.002181	1.022610
N271	N	1.400704	0.252181	1.272610
N272	N	1.650704	0.502181	1.522610
C273	C	0.905466	-0.302924	0.740191
C274	C	1.155466	-0.052924	0.990191
C275	C	1.405466	0.197076	1.240191
C276	C	1.655466	0.447076	1.490191
N277	N	0.910244	-0.358014	0.772584
N278	N	1.160244	-0.108014	1.022584
N279	N	1.410244	0.141986	1.272584
N280	N	1.660244	0.391986	1.522584
N281	N	0.910252	-0.357998	0.835041
N282	N	1.160252	-0.107998	1.085041
N283	N	1.410252	0.142002	1.335041
N284	N	1.660252	0.392002	1.585041
C285	C	0.905480	-0.302894	0.866981
C286	C	1.155480	-0.052894	1.116981
C287	C	1.405480	0.197106	1.366981
C288	C	1.655480	0.447106	1.616981
C289	C	0.945499	-0.343200	0.636035
C290	C	1.195499	-0.093200	0.886035
C291	C	1.445499	0.156800	1.136035
C292	C	1.695499	0.406800	1.386035
C293	C	0.945484	-0.343222	0.570291
C294	C	1.195484	-0.093222	0.820291
C295	C	1.445484	0.156778	1.070291
C296	C	1.695484	0.406778	1.320291
C297	C	0.865387	-0.262721	0.570302
C298	C	1.115387	-0.012721	0.820302
C299	C	1.365387	0.237279	1.070302
C300	C	1.615387	0.487279	1.320302
C301	C	0.865400	-0.262705	0.636045
C302	C	1.115400	-0.012705	0.886045
C303	C	1.365400	0.237295	1.136045
C304	C	1.615400	0.487295	1.386045
C305	C	0.905459	-0.302944	0.668907
C306	C	1.155459	-0.052944	0.918907
C307	C	1.405459	0.197056	1.168907
C308	C	1.655459	0.447056	1.418907
H309	H	0.144636	-0.230044	0.376467
H310	H	0.394636	0.019956	0.626467
H311	H	0.644636	0.269956	0.876467
H312	H	0.894636	0.519956	1.126467
H313	H	0.465170	-0.200162	0.312476
H314	H	0.715170	0.049838	0.562476
H315	H	0.965170	0.299838	0.812476
H316	H	1.215170	0.549838	1.062476
Cl317	Cl	0.996042	-1.077274	0.212556
Cl318	Cl	1.246042	-0.827274	0.462556
Cl319	Cl	1.496042	-0.577274	0.712556
Cl320	Cl	1.746042	-0.327274	0.962556
Cl321	Cl	0.814833	-0.528140	0.394035
Cl322	Cl	1.064833	-0.278140	0.644035
Cl323	Cl	1.314833	-0.028140	0.894035
Cl324	Cl	1.564833	0.221860	1.144035
H325	H	0.548074	-0.376001	0.230091
H326	H	0.798074	-0.126001	0.480091
H327	H	1.048074	0.123999	0.730091
H328	H	1.298074	0.373999	0.980091
H329	H	0.548273	-0.230125	0.376441
H330	H	0.798273	0.019875	0.626441
H331	H	1.048273	0.269875	0.876441
H332	H	1.298273	0.519875	1.126441
H333	H	0.144438	-0.375928	0.230120
H334	H	0.394438	-0.125928	0.480120
H335	H	0.644438	0.124072	0.730120
H336	H	0.894438	0.374072	0.980120
H337	H	0.832777	-0.229957	0.543541
H338	H	1.082777	0.020043	0.793541
H339	H	1.332777	0.270043	1.043541
H340	H	1.582777	0.520043	1.293541
H341	H	0.978089	-0.376004	0.543529
H342	H	1.228089	-0.126004	0.793529
H343	H	1.478089	0.123996	1.043529
H344	H	1.728089	0.373996	1.293529
Cl345	Cl	0.681257	-0.393827	0.212207
Cl346	Cl	0.931257	-0.143827	0.462207
Cl347	Cl	1.181257	0.106173	0.712207
Cl348	Cl	1.431257	0.356173	0.962207
H349	H	0.832841	-0.229836	1.063650
H350	H	1.082841	0.020164	1.313650
H351	H	1.332841	0.270164	1.563650
H352	H	1.582841	0.520164	1.813650
Cl353	Cl	0.995857	-0.393786	0.677351
Cl354	Cl	1.245857	-0.143786	0.927351
Cl355	Cl	1.495857	0.106214	1.177351
Cl356	Cl	1.745857	0.356214	1.427351
H357	H	0.832742	-0.943531	0.376286
H358	H	1.082742	-0.693531	0.626286
H359	H	1.332742	-0.443531	0.876286
H360	H	1.582742	-0.193531	1.126286
H361	H	0.346458	-0.200141	0.312481
H362	H	0.596458	0.049859	0.562481
H363	H	0.846458	0.299859	0.812481
H364	H	1.096458	0.549859	1.062481
Cl365	Cl	0.815047	-0.212110	0.677371
Cl366	Cl	1.065047	0.037890	0.927371
Cl367	Cl	1.315047	0.287890	1.177371
Cl368	Cl	1.565047	0.537890	1.427371
Cl369	Cl	0.331741	-0.431032	0.291851
Cl370	Cl	0.581741	-0.181032	0.541851
Cl371	Cl	0.831741	0.068968	0.791851
Cl372	Cl	1.081741	0.318968	1.041851
Cl373	Cl	0.681494	-0.212350	0.394302
Cl374	Cl	0.931494	0.037650	0.644302
Cl375	Cl	1.181494	0.287650	0.894302
Cl376	Cl	1.431494	0.537650	1.144302
H377	H	0.832640	-0.661962	0.376236
H378	H	1.082640	-0.411962	0.626236
H379	H	1.332640	-0.161962	0.876236
H380	H	1.582640	0.088038	1.126236
Cl381	Cl	0.277859	-0.212270	0.394328
Cl382	Cl	0.527859	0.037730	0.644328
Cl383	Cl	0.777859	0.287730	0.894328
Cl384	Cl	1.027859	0.537730	1.144328
H385	H	0.464962	-0.405942	0.294078
H386	H	0.714962	-0.155942	0.544078
H387	H	0.964962	0.094058	0.794078
H388	H	1.214962	0.344058	1.044078
H389	H	0.263148	-0.375951	0.230110
H390	H	0.513148	-0.125951	0.480110
H391	H	0.763148	0.124049	0.730110
H392	H	1.013148	0.374049	0.980110
H393	H	0.978159	-0.375894	0.944367
H394	H	1.228159	-0.125894	1.194367
H395	H	1.478159	0.124106	1.444367
H396	H	1.728159	0.374106	1.694367
H397	H	0.978073	-0.542620	0.230264
H398	H	1.228073	-0.292620	0.480264
H399	H	1.478073	-0.042620	0.730264
H400	H	1.728073	0.207380	0.980264
H401	H	0.978122	-0.661886	0.230289
H402	H	1.228122	-0.411886	0.480289
H403	H	1.478122	-0.161886	0.730289
H404	H	1.728122	0.088114	0.980289
H405	H	0.978171	-0.375871	1.063630
H406	H	1.228171	-0.125871	1.313630
H407	H	1.478171	0.124129	1.563630
H408	H	1.728171	0.374129	1.813630
H409	H	0.832790	-1.062800	0.376310
H410	H	1.082790	-0.812800	0.626310
H411	H	1.332790	-0.562800	0.876310
H412	H	1.582790	-0.312800	1.126310
H413	H	0.978226	-0.943459	0.230335
H414	H	1.228226	-0.693459	0.480335
H415	H	1.478226	-0.443459	0.730335
H416	H	1.728226	-0.193459	0.980335
Cl417	Cl	0.815097	-0.212037	0.929825
Cl418	Cl	1.065097	0.037963	1.179825
Cl419	Cl	1.315097	0.287963	1.429825
Cl420	Cl	1.565097	0.537963	1.679825
