data_functionalizedCrystal
_audit_creation_method	'MofGen! by Chris Wilmer'
_symmetry_space_group_name_H-M	'P1'
_symmetry_Int_Tables_number	1
_symmetry_cell_setting	triclinic
loop_
_symmetry_equiv_pos_as_xyz
  x,y,z
_cell_length_a	6.817900
_cell_length_b	17.982968
_cell_length_c	17.110477
_cell_angle_alpha	96.532153
_cell_angle_beta	99.060298
_cell_angle_gamma	102.451960
loop_
_atom_site_label
_atom_site_type_symbol
_atom_site_fract_x
_atom_site_fract_y
_atom_site_fract_z
V1	V	-3.992902	-0.237450	-0.110224
O2	O	-4.003734	-0.233031	0.004534
O3	O	-3.922842	-0.235728	-0.217821
O4	O	-3.939683	-0.341054	-0.108863
O5	O	-3.986777	-0.126976	-0.105179
V6	V	-4.479960	-0.224248	-0.096458
O7	O	-4.246404	-0.266409	-0.140420
O8	O	-4.676656	-0.195289	-0.066261
O9	O	-4.326813	-0.225969	0.011140
O10	O	-4.586525	-0.228667	-0.211215
O11	O	-4.603482	-0.334721	-0.101502
O12	O	-4.309973	-0.120644	-0.097818
C13	C	-3.762730	-0.231957	-0.244041
C14	C	-3.786703	-0.231241	-0.332005
C15	C	-3.784211	-0.366310	-0.105052
C16	C	-3.821839	-0.451006	-0.104652
C17	C	-4.020639	-0.494674	-0.108429
C18	C	-4.055982	-0.574255	-0.108052
C19	C	-3.892525	-0.610167	-0.103903
C20	C	-3.693708	-0.566493	-0.100124
C21	C	-3.658365	-0.486912	-0.100495
C22	C	-3.836237	-0.887431	-0.098625
C23	C	-3.871597	-0.967018	-0.098257
C24	C	-4.233854	-0.974774	-0.106182
C25	C	-4.198511	-0.895194	-0.106553
C26	C	-3.999697	-0.851525	-0.102769
C27	C	-3.961375	-0.765235	-0.103177
C28	C	-3.930846	-0.696458	-0.103502
C29	C	-3.979072	-0.234701	-0.377373
C30	C	-4.001588	-0.234032	-0.460026
C31	C	-3.831729	-0.229897	-0.497308
C32	C	-3.639345	-0.226440	-0.451934
C33	C	-3.616834	-0.227114	-0.369284
C34	C	-3.890637	-0.227676	-0.746657
C35	C	-3.913162	-0.227000	-0.829313
C36	C	-4.275405	-0.234593	-0.837399
C37	C	-4.252875	-0.235263	-0.754746
C38	C	-4.060497	-0.231809	-0.709380
C39	C	-3.854738	-0.229211	-0.581792
C40	C	-4.037493	-0.232501	-0.624899
C41	C	-4.150267	-0.229738	0.037355
C42	C	-4.105532	-0.230460	0.125319
C43	C	-4.128786	-0.095384	-0.101631
C44	C	-4.070398	-0.010687	-0.102028
H45	H	-4.153751	-0.465442	-0.111812
H46	H	-3.674366	-0.851890	-0.095572
H47	H	-4.395740	-1.010338	-0.109260
C48	C	-3.726309	-0.222455	-0.870322
H49	H	-3.608513	-0.220501	-0.831468
H50	H	-3.705487	-0.177404	-0.895025
H51	H	-3.749651	-0.266668	-0.909767
H52	H	-3.738478	-0.996254	-0.094877
H53	H	-3.501046	-0.223078	-0.482297
H54	H	-4.217860	-0.609806	-0.111123
H55	H	-4.175792	-0.235871	-0.594541
H56	H	-3.460190	-0.224300	-0.332347
H57	H	-3.560620	-0.595738	-0.096741
H58	H	-4.391200	-0.238635	-0.724398
C59	C	-3.679029	-0.223870	-0.696764
H60	H	-3.581094	-0.221303	-0.730806
H61	H	-3.684780	-0.268605	-0.671723
H62	H	-3.640642	-0.179342	-0.656984
H63	H	-4.331620	-0.865959	-0.109935
H64	H	-3.496478	-0.451355	-0.097400
C65	C	-4.165920	-0.239244	-0.336370
H66	H	-4.283715	-0.241214	-0.375231
H67	H	-4.142597	-0.195035	-0.296928
H68	H	-4.186747	-0.284299	-0.311665
H69	H	-4.158233	-0.236850	-0.496962
H70	H	-4.432034	-0.237405	-0.874345
H71	H	-3.716441	-0.225843	-0.612156
