data_functionalizedCrystal
_audit_creation_method	'MofGen! by Chris Wilmer'
_symmetry_space_group_name_H-M	'P1'
_symmetry_Int_Tables_number	1
_symmetry_cell_setting	triclinic
loop_
_symmetry_equiv_pos_as_xyz
  x,y,z
_cell_length_a	11.026607
_cell_length_b	14.519709
_cell_length_c	9.482900
_cell_angle_alpha	99.350820
_cell_angle_beta	78.636152
_cell_angle_gamma	96.133081
loop_
_atom_site_label
_atom_site_type_symbol
_atom_site_fract_x
_atom_site_fract_y
_atom_site_fract_z
O1	O	1.629894	0.375017	-0.120915
O2	O	1.276492	0.331026	-0.120914
O3	O	1.462561	0.220328	-0.120901
O4	O	1.443825	0.485715	-0.120927
O5	O	1.424766	0.242929	0.120889
O6	O	1.238698	0.353627	0.120876
O7	O	1.592099	0.397617	0.120875
Cu8	Cu	1.411948	0.377686	0.142953
Cu9	Cu	1.456644	0.350958	-0.142992
O10	O	1.406031	0.508316	0.120862
C11	C	1.212367	0.334211	-0.000019
C12	C	1.077600	0.310019	-0.000019
C13	C	1.003940	0.376817	-0.000026
C14	C	0.864652	0.351815	-0.000026
C15	C	1.442790	0.197125	-0.000006
C16	C	1.440173	0.094312	-0.000005
C17	C	1.430544	-0.282175	-0.000043
C18	C	1.433218	-0.177425	-0.000032
C19	C	1.435358	-0.093934	-0.000023
C20	C	1.438033	0.010822	-0.000015
C21	C	1.656226	0.394432	-0.000023
C22	C	1.790994	0.418624	-0.000033
C23	C	1.425802	0.531518	-0.000036
C24	C	1.428421	0.634330	-0.000046
N25	N	1.380519	0.396486	0.344071
N26	N	1.488082	0.332152	-0.344110
C27	C	1.447366	0.356497	0.416275
C28	C	1.421226	0.372147	0.583690
H29	H	1.037549	0.234316	-0.000048
H30	H	1.043996	0.452517	-0.000025
C31	C	1.549336	0.295248	0.333491
C32	C	1.523405	0.204745	0.370352
C33	C	1.617309	0.148302	0.294094
H34	H	1.626638	0.320783	0.358267
H35	H	1.553307	0.292805	0.231971
H36	H	1.519448	0.207192	0.471850
H37	H	1.446120	0.179183	0.345573
H38	H	1.621280	0.145858	0.192573
H39	H	1.694605	0.173844	0.318876
H40	H	1.599722	0.086887	0.319083
H41	H	1.344635	0.417969	0.645809
C42	C	1.590022	0.270801	0.573330
C43	C	1.563875	0.180371	0.610451
C44	C	1.657729	0.123791	0.534491
H45	H	1.667311	0.296305	0.598174
H46	H	1.594117	0.268245	0.471766
H47	H	1.559793	0.182931	0.711991
H48	H	1.486602	0.154840	0.585603
H49	H	1.661825	0.121235	0.432927
H50	H	1.735013	0.149303	0.559341
H51	H	1.639996	0.062426	0.559656
C52	C	1.278497	0.457592	0.427156
C53	C	1.272880	0.460992	0.576690
C54	C	1.178922	0.517284	0.653268
H55	H	1.201179	0.432011	0.402478
H56	H	1.295904	0.519065	0.402360
H57	H	1.255465	0.399531	0.601476
H58	H	1.350175	0.486582	0.601411
H59	H	1.196329	0.578757	0.628472
H60	H	1.101611	0.491698	0.628579
H61	H	1.175106	0.519605	0.754735
H62	H	0.831042	0.494329	-0.000031
C63	C	0.811037	0.250918	-0.000092
C64	C	0.683551	0.246173	-0.000130
C65	C	0.634123	0.153243	-0.000212
H66	H	0.824294	0.228852	0.084203
H67	H	0.850721	0.213165	-0.084443
H68	H	0.643880	0.283913	0.084212
H69	H	0.670260	0.268221	-0.084419
H70	H	0.673806	0.115490	-0.084563
H71	H	0.647388	0.131185	0.084085
H72	H	0.547621	0.150010	-0.000251
