data_functionalizedCrystal
_audit_creation_method	'MofGen! by Chris Wilmer'
_symmetry_space_group_name_H-M	'P1'
_symmetry_Int_Tables_number	1
_symmetry_cell_setting	triclinic
loop_
_symmetry_equiv_pos_as_xyz
  x,y,z
_cell_length_a	16.625548
_cell_length_b	12.594516
_cell_length_c	16.625539
_cell_angle_alpha	90.023327
_cell_angle_beta	90.020568
_cell_angle_gamma	90.017121
loop_
_atom_site_label
_atom_site_type_symbol
_atom_site_fract_x
_atom_site_fract_y
_atom_site_fract_z
Zn1	Zn	1.232716	-0.423710	0.455937
Zn2	Zn	1.732716	0.076290	0.955937
Zn3	Zn	1.232635	-0.601711	0.321116
Zn4	Zn	1.732635	-0.101711	0.821116
Zn5	Zn	1.097878	-0.423750	0.321118
Zn6	Zn	1.597878	0.076250	0.821118
Zn7	Zn	1.097864	-0.601650	0.455906
Zn8	Zn	1.597864	-0.101650	0.955906
O9	O	1.165273	-0.512705	0.388519
O10	O	1.665273	-0.012705	0.888519
O11	O	1.345538	-0.447331	0.438065
O12	O	1.845538	0.052669	0.938065
O13	O	1.214731	-0.578147	0.208284
O14	O	1.714731	-0.078147	0.708284
O15	O	1.115805	-0.274799	0.339016
O16	O	1.615805	0.225201	0.839016
O17	O	1.345478	-0.578108	0.339013
O18	O	1.845478	-0.078108	0.839013
O19	O	1.214870	-0.274769	0.438067
O20	O	1.714870	0.225231	0.938067
O21	O	1.115726	-0.447400	0.208285
O22	O	1.615726	0.052600	0.708285
O23	O	0.985044	-0.447341	0.338985
O24	O	1.485044	0.052659	0.838985
O25	O	1.115780	-0.578003	0.568743
O26	O	1.615780	-0.078003	1.068743
O27	O	0.985033	-0.578043	0.438014
O28	O	1.485033	-0.078043	0.938014
O29	O	1.214856	-0.447271	0.568766
O30	O	1.714856	0.052729	1.068766
O31	O	1.214717	-0.750649	0.338983
O32	O	1.714717	-0.250649	0.838983
O33	O	1.115701	-0.750604	0.438012
O34	O	1.615701	-0.250604	0.938012
C35	C	0.955782	-0.512690	0.388497
C36	C	1.455782	-0.012690	0.888497
C37	C	0.866161	-0.512709	0.388506
C38	C	1.366161	-0.012709	0.888506
C39	C	0.537986	-0.512716	0.388541
C40	C	1.037986	-0.012716	0.888541
C41	C	0.629294	-0.512711	0.388529
C42	C	1.129294	-0.012711	0.888529
C43	C	0.702071	-0.512713	0.388523
C44	C	1.202071	-0.012713	0.888523
C45	C	0.793385	-0.512707	0.388512
C46	C	1.293385	-0.012707	0.888512
C47	C	1.165220	-0.789246	0.388511
C48	C	1.665220	-0.289246	0.888511
C49	C	1.165272	-0.907552	0.388535
C50	C	1.665272	-0.407552	0.888535
C51	C	1.111412	-0.976819	0.442359
C52	C	1.611412	-0.476819	0.942359
C53	C	1.091767	-1.047680	0.368785
C54	C	1.591767	-0.547680	0.868785
C55	C	1.184990	-1.047490	0.462122
C56	C	1.684990	-0.547490	0.962122
C57	C	1.145588	-0.976855	0.314921
C58	C	1.645588	-0.476855	0.814921
C59	C	1.238845	-0.976658	0.408308
C60	C	1.738845	-0.476658	0.908308
C61	C	1.219228	-1.047487	0.334683
C62	C	1.719228	-0.547487	0.834683
C63	C	1.375582	-0.512721	0.388542
C64	C	1.875582	-0.012721	0.888542
C65	C	1.465203	-0.512728	0.388552
C66	C	1.965203	-0.012728	0.888552
C67	C	1.165326	-0.512626	0.598828
C68	C	1.665326	-0.012626	1.098828
C69	C	1.165348	-0.512592	0.688449
C70	C	1.665348	-0.012592	1.188449
C71	C	1.165348	-0.235085	0.388545
C72	C	1.665348	0.264915	0.888545
C73	C	1.165380	-0.116779	0.388556
C74	C	1.665380	0.383221	0.888556
C75	C	1.165267	-0.512708	0.179028
C76	C	1.665267	-0.012708	0.679028
C77	C	1.165401	-0.512442	0.089408
C78	C	1.665401	-0.012442	0.589408
C79	C	1.165385	-0.512473	1.016625
C80	C	1.665385	-0.012473	1.516625
C81	C	1.165373	-0.512510	0.925317
C82	C	1.665373	-0.012510	1.425317
C83	C	1.165367	-0.512534	0.852540
C84	C	1.665367	-0.012534	1.352540
C85	C	1.165354	-0.512568	0.761226
C86	C	1.665354	-0.012568	1.261226
H87	H	1.065783	-0.945789	0.487811
H88	H	1.565783	-0.445789	0.987811
H89	H	1.264822	-1.078321	0.289122
H90	H	1.764822	-0.578321	0.789122
H91	H	1.301000	-0.945441	0.425051
H92	H	1.801000	-0.445441	0.925051
O93	O	1.017548	-1.084851	0.348967
O94	O	1.517548	-0.584851	0.848967
C95	C	0.876808	-1.090965	0.383238
C96	C	1.376808	-0.590965	0.883238
C97	C	0.960818	-1.048825	0.405777
C98	C	1.460818	-0.548825	0.905777
H99	H	0.830916	-1.061836	0.429147
H100	H	1.330916	-0.561836	0.929147
H101	H	0.877670	-1.181475	0.382901
H102	H	1.377670	-0.681475	0.882901
H103	H	0.859635	-1.060718	0.320938
H104	H	1.359635	-0.560718	0.820938
H105	H	0.978042	-1.078993	0.468082
H106	H	1.478042	-0.578993	0.968082
H107	H	0.959911	-0.958316	0.406060
H108	H	1.459911	-0.458316	0.906060
O109	O	1.125675	-0.940181	0.240611
O110	O	1.625675	-0.440181	0.740611
C111	C	1.089167	-0.985033	0.104495
C112	C	1.589167	-0.485033	0.604495
C113	C	1.111728	-1.026711	0.188603
C114	C	1.611728	-0.526711	0.688603
H115	H	1.077867	-1.054971	0.062427
H116	H	1.577867	-0.554971	0.562427
H117	H	1.140499	-0.934580	0.079881
H118	H	1.640499	-0.434580	0.579881
H119	H	1.032371	-0.934677	0.108929
H120	H	1.532371	-0.434677	0.608929
H121	H	1.168503	-1.077111	0.184237
H122	H	1.668503	-0.577111	0.684237
H123	H	1.060349	-1.077105	0.213185
H124	H	1.560349	-0.577105	0.713185
O125	O	1.204746	-1.084381	0.536413
O126	O	1.704746	-0.584381	1.036413
C127	C	1.170185	-1.090361	0.677083
C128	C	1.670185	-0.590361	1.177083
C129	C	1.147739	-1.048497	0.592997
C130	C	1.647739	-0.548497	1.092997
H131	H	1.124099	-1.061384	0.722852
H132	H	1.624099	-0.561384	1.222852
H133	H	1.232397	-1.059897	0.694437
H134	H	1.732397	-0.559897	1.194437
H135	H	1.170651	-1.180868	0.676198
H136	H	1.670651	-0.680868	1.176198
H137	H	1.147228	-0.957992	0.593818
H138	H	1.647228	-0.457992	1.093818
H139	H	1.085542	-1.079041	0.575677
H140	H	1.585542	-0.579041	1.075677
