data_functionalizedCrystal
_audit_creation_method	'MofGen! by Chris Wilmer'
_symmetry_space_group_name_H-M	'P1'
_symmetry_Int_Tables_number	1
_symmetry_cell_setting	triclinic
loop_
_symmetry_equiv_pos_as_xyz
  x,y,z
_cell_length_a	18.101395
_cell_length_b	12.759395
_cell_length_c	12.759387
_cell_angle_alpha	90.020674
_cell_angle_beta	89.967189
_cell_angle_gamma	89.971419
loop_
_atom_site_label
_atom_site_type_symbol
_atom_site_fract_x
_atom_site_fract_y
_atom_site_fract_z
Zn1	Zn	-0.294840	-1.606149	-0.593995
Zn2	Zn	-0.418701	-1.605989	-0.418309
Zn3	Zn	-0.294872	-1.430447	-0.418331
Zn4	Zn	-0.418639	-1.430389	-0.593948
O5	O	-0.356763	-1.518244	-0.506146
O6	O	-0.311283	-1.753149	-0.570700
O7	O	-0.402313	-1.582661	-0.271291
O8	O	-0.191235	-1.453845	-0.441662
O9	O	-0.402283	-1.753031	-0.441625
O10	O	-0.191212	-1.582933	-0.570722
O11	O	-0.311337	-1.453691	-0.271307
O12	O	-0.311278	-1.283418	-0.441617
O13	O	-0.402178	-1.453747	-0.740975
O14	O	-0.402209	-1.283376	-0.570641
O15	O	-0.311224	-1.582877	-0.741010
O16	O	-0.522325	-1.582604	-0.441579
O17	O	-0.522280	-1.453592	-0.570620
C18	C	-0.356740	-1.245276	-0.506127
C19	C	-0.356749	-1.128499	-0.506144
C20	C	-0.262144	-1.128602	-0.640767
C21	C	-0.214849	-1.073793	-0.708086
C22	C	-0.214859	-0.964071	-0.708097
C23	C	-0.262167	-0.909156	-0.640779
C24	C	-0.309462	-0.963966	-0.573460
C25	C	-0.309449	-1.073690	-0.573459
C26	C	-0.404062	-0.963863	-0.438833
C27	C	-0.404057	-1.073585	-0.438826
C28	C	-0.451371	-0.908948	-0.371515
C29	C	-0.498670	-0.963758	-0.304200
C30	C	-0.498659	-1.073486	-0.304193
C31	C	-0.451352	-1.128394	-0.371507
C32	C	-0.549174	-1.518103	-0.506115
C33	C	-0.631488	-1.518139	-0.506137
C34	C	-0.930579	-1.518370	-0.506193
C35	C	-0.899256	-1.437387	-0.587584
C36	C	-0.813638	-1.437002	-0.587329
C37	C	-0.782196	-1.518255	-0.506166
C38	C	-0.813354	-1.488272	-0.395441
C39	C	-0.898999	-1.487750	-0.395928
C40	C	-0.898924	-1.629513	-0.534554
C41	C	-0.813273	-1.628859	-0.536982
C42	C	-0.698337	-1.518192	-0.506144
C43	C	-1.014438	-1.518430	-0.506208
C44	C	-0.163601	-1.518413	-0.506200
C45	C	-0.081287	-1.518486	-0.506223
C46	C	-0.356690	-1.518323	-0.780179
C47	C	-0.356660	-1.518357	-0.896956
C48	C	-0.356779	-0.792277	-0.506160
C49	C	-0.356767	-0.909054	-0.506152
C50	C	-0.261955	-1.652829	-0.897012
C51	C	-0.214592	-1.720080	-0.951901
C52	C	-0.214565	-1.720105	-1.061622
C53	C	-0.261905	-1.652871	-1.116458
C54	C	-0.309268	-1.585620	-1.061569
C55	C	-0.309291	-1.585604	-0.951845
C56	C	-0.403968	-1.451144	-1.061513
C57	C	-0.404000	-1.451122	-0.951792
C58	C	-0.451308	-1.383909	-1.116349
C59	C	-0.498676	-1.316662	-1.061460
C60	C	-0.498701	-1.316640	-0.951732
C61	C	-0.451363	-1.383871	-0.896903
C62	C	-0.356782	-1.518225	-0.233178
C63	C	-0.356604	-1.518395	-0.116402
H64	H	-0.262128	-1.217943	-0.640761
H65	H	-0.919180	-1.689848	-0.475274
H66	H	-0.451373	-0.819607	-0.371526
H67	H	-0.176047	-1.774819	-0.907242
H68	H	-0.537212	-1.261920	-1.106116
H69	H	-0.920841	-1.355506	-0.569035
H70	H	-0.537263	-1.261865	-0.907048
H71	H	-0.537182	-0.919037	-0.249391
H72	H	-0.537170	-1.118105	-0.249370
H73	H	-0.451382	-1.383865	-0.807562
H74	H	-0.792905	-1.651469	-0.618470
H75	H	-0.919041	-1.406505	-0.371903
H76	H	-0.793213	-1.354620	-0.568544
H77	H	-0.176343	-0.919446	-0.762908
H78	H	-0.176330	-1.118516	-0.762893
H79	H	-0.262165	-0.819815	-0.640786
H80	H	-0.792569	-1.455761	-0.669431
H81	H	-0.451335	-1.217735	-0.371503
H82	H	-0.919799	-1.455960	-0.669952
H83	H	-0.791866	-1.692388	-0.482022
H84	H	-0.919722	-1.544176	-0.333218
H85	H	-0.175993	-1.774860	-1.106313
H86	H	-0.792990	-1.545400	-0.333145
H87	H	-0.791968	-1.407887	-0.370986
H88	H	-0.920467	-1.656847	-0.613918
H89	H	-0.261979	-1.652825	-0.807671
H90	H	-0.261872	-1.652888	-1.205799
H91	H	-0.451279	-1.383931	-1.205690
