data_functionalizedCrystal
_audit_creation_method	'MofGen! by Chris Wilmer'
_symmetry_space_group_name_H-M	'P1'
_symmetry_Int_Tables_number	1
_symmetry_cell_setting	triclinic
loop_
_symmetry_equiv_pos_as_xyz
  x,y,z
_cell_length_a	19.902436
_cell_length_b	17.052844
_cell_length_c	17.052862
_cell_angle_alpha	118.506570
_cell_angle_beta	90.001774
_cell_angle_gamma	109.738560
loop_
_atom_site_label
_atom_site_type_symbol
_atom_site_fract_x
_atom_site_fract_y
_atom_site_fract_z
Zr1	Zr	0.778740	-0.816601	-0.200386
O2	O	0.704536	-0.944504	-0.328521
O3	O	0.785151	-0.665878	-0.146195
O4	O	0.821156	-0.783678	-0.307004
O5	O	0.658713	-0.860632	-0.057825
O6	O	0.931732	-0.783665	-0.306993
O7	O	0.668531	-0.826704	-0.167712
O8	O	0.867325	-0.572944	-0.019335
O9	O	0.723120	-1.071354	-0.345483
O10	O	0.890144	-0.736315	-0.141090
O11	O	0.800296	-0.761645	-0.059091
O12	O	0.842687	-0.900338	-0.248423
O13	O	0.752839	-0.925667	-0.166424
Zr14	Zr	0.939438	-0.870693	-0.025112
Zr15	Zr	0.955096	-0.816581	-0.200369
Zr16	Zr	0.763083	-0.870712	-0.025129
Zr17	Zr	0.808379	-1.018912	-0.227439
Zr18	Zr	0.909799	-0.668381	0.001941
O19	O	0.933028	-1.021415	-0.079304
O20	O	0.955291	-0.944476	-0.328496
O21	O	0.682273	-1.021443	-0.079328
O22	O	1.013643	-0.742790	0.103023
O23	O	1.035906	-0.665851	-0.146170
O24	O	0.762888	-0.742818	0.102998
O25	O	1.059465	-0.826661	-0.167673
O26	O	0.897023	-0.903616	0.081506
O27	O	0.786447	-0.903628	0.081495
O28	O	1.049648	-0.860589	-0.057786
O29	O	0.863299	-1.071338	-0.345469
O30	O	0.854880	-0.615955	0.119971
O31	O	0.995059	-0.615940	0.119985
O32	O	1.007505	-0.572928	-0.019321
O33	O	0.710674	-1.114365	-0.206177
O34	O	0.850853	-1.114350	-0.206164
O35	O	0.875491	-0.786956	0.022925
O36	O	0.965339	-0.761626	-0.059075
O37	O	0.917882	-0.925649	-0.166407
O38	O	0.828034	-0.950978	-0.084408
C39	C	0.822015	-0.590586	-0.078910
C40	C	0.809433	-0.504700	-0.067426
C41	C	0.638495	-0.843671	-0.112771
C42	C	0.563628	-0.843679	-0.112778
C43	C	0.961563	-0.209718	-0.206276
C44	C	0.973383	-0.290415	-0.217072
C45	C	0.932397	-0.343990	-0.179661
C46	C	0.879587	-0.316860	-0.131453
C47	C	0.867761	-0.236159	-0.120661
C48	C	0.838596	-0.370431	-0.094047
C49	C	0.785786	-0.343301	-0.045838
C50	C	0.773963	-0.262607	-0.035048
C51	C	0.814949	-0.209033	-0.072459
C52	C	0.850422	-0.451132	-0.104838
C53	C	0.756620	-0.477573	-0.019223
C54	C	0.744800	-0.396876	-0.008427
C55	C	0.291615	-0.843636	-0.112740
C56	C	0.290147	-0.947181	-0.180199
C57	C	0.368021	-0.947167	-0.180495
C58	C	0.426563	-0.843658	-0.112759
C59	C	0.418832	-0.772693	-0.142552
C60	C	0.340751	-0.773339	-0.143035
C61	C	0.330000	-0.810208	-0.015349
C62	C	0.407263	-0.812410	-0.015786
C63	C	0.502832	-0.843665	-0.112768
C64	C	0.215347	-0.843625	-0.112732
C65	C	1.079683	-0.843622	-0.112727
C66	C	1.154551	-0.843614	-0.112720
C67	C	0.896164	-0.096707	-0.146588
C68	C	0.908750	-0.182592	-0.158074
C69	C	0.878675	-0.775962	-0.331969
C70	C	0.885322	-0.752990	-0.406370
C71	C	0.804959	-1.030718	-0.840207
C72	C	0.798710	-1.052304	-0.770305
C73	C	0.820362	-0.977478	-0.679319
C74	C	0.848265	-0.881061	-0.658239
C75	C	0.854510	-0.859473	-0.728147
C76	C	0.869913	-0.806233	-0.567259
C77	C	0.897816	-0.709816	-0.546180
C78	C	0.904060	-0.688232	-0.616083
C79	C	0.882408	-0.763058	-0.707069
C80	C	0.863668	-0.827821	-0.497351
C81	C	0.913219	-0.656576	-0.385292
C82	C	0.919469	-0.634990	-0.455193
C83	C	0.839504	-0.911332	0.106470
C84	C	0.832857	-0.934303	0.180872
C85	C	1.042609	-0.590562	-0.078889
C86	C	1.104894	-0.504667	-0.067397
C87	C	0.802430	-0.658271	0.140309
C88	C	0.783200	-0.595356	0.226195
C89	C	1.023024	-0.658247	0.140331
C90	C	1.078662	-0.595324	0.226224
C91	C	0.695155	-1.029047	-0.365829
C92	C	0.639517	-1.091970	-0.451723
C93	C	0.675569	-1.096732	-0.146610
C94	C	0.613284	-1.182627	-0.158102
C95	C	0.915749	-1.029023	-0.365808
C96	C	0.934978	-1.091937	-0.451693
C97	C	1.094894	-0.451115	-0.104818
C98	C	1.153413	-0.370414	-0.094038
C99	C	1.221932	-0.343262	-0.045831
C100	C	1.231932	-0.396822	-0.008409
C101	C	1.173414	-0.477526	-0.019194
C102	C	0.813420	-0.579025	0.309346
C103	C	0.795350	-0.519923	0.390050
C104	C	0.747063	-0.477148	0.387602
C105	C	0.716840	-0.493484	0.304441
C106	C	0.734907	-0.552591	0.223738
C107	C	1.151697	-0.552553	0.223758
C108	C	1.203984	-0.493439	0.304455
C109	C	1.183233	-0.477092	0.387619
C110	C	1.110191	-0.519870	0.390083
C111	C	1.057906	-0.578988	0.309385
C112	C	0.566483	-1.134751	-0.449257
C113	C	0.514200	-1.193890	-0.529958
C114	C	0.534951	-1.210241	-0.613123
C115	C	0.607993	-1.167457	-0.615586
C116	C	0.660275	-1.108325	-0.534886
C117	C	0.623287	-1.236184	-0.120688
C118	C	0.564772	-1.316902	-0.131491
C119	C	0.496254	-1.344056	-0.179701
C120	C	0.486253	-1.290493	-0.217120
C121	C	0.544769	-1.209782	-0.206322
C122	C	0.983267	-1.134695	-0.449215
C123	C	1.001349	-1.193802	-0.529906
C124	C	0.971138	-1.210155	-0.613074
C125	C	0.922847	-1.167390	-0.615550
C126	C	0.904769	-1.108279	-0.534860
H127	H	0.893420	-0.473214	-0.144091
H128	H	1.287727	-0.374703	0.030842
H129	H	0.536614	-1.166176	-0.236788
F130	F	0.433983	-1.429959	-0.191184
H131	H	0.819967	-0.506630	0.457755
F132	F	0.413326	-1.319403	-0.268425
F133	F	0.712994	-0.534591	0.020590
H134	H	0.994925	-0.166098	-0.236737
F135	F	0.933746	-0.585616	-0.593645
F136	F	1.015429	-1.117303	-0.360709
F137	F	0.630067	-1.184867	-0.704103
H138	H	1.225814	-0.428952	0.453321
H139	H	0.985864	-1.258289	-0.678771
F140	F	0.853368	-1.062785	-0.537512
H141	H	0.942025	-0.409697	-0.188455
H142	H	0.710298	-0.565877	0.156037
H143	H	1.168606	-0.565851	0.156050
H144	H	0.454729	-1.228715	-0.527935
H145	H	1.040669	-1.228618	-0.527873
H146	H	0.840948	-0.906324	-0.514523
F147	F	0.890694	-1.184810	-0.704074
H148	H	0.432229	-0.793807	-0.213101
H149	H	1.263454	-0.458612	0.302434
F150	F	0.738003	-1.062793	-0.537523
F151	F	1.184067	-0.534508	0.020645
H152	H	0.262915	-0.973629	-0.251867
F153	F	1.021977	-0.479998	-0.156131
H154	H	0.296472	-0.858159	0.011053
H155	H	0.492372	-1.258392	-0.678826
H156	H	0.410704	-0.864362	0.006613
F157	F	1.029583	-0.319286	-0.268381
H158	H	0.805331	-0.143317	-0.063666
F159	F	0.460804	-0.715238	0.053811
H160	H	0.730956	-0.240527	0.004199
F161	F	1.088116	-0.502463	0.478600
H162	H	0.815272	-0.995059	-0.622405
H163	H	0.701801	-0.374775	0.030824
F164	F	0.980175	-0.624499	0.312025
H165	H	0.775992	-1.130807	-0.787474
F166	F	0.696204	-1.207303	-0.069378
F167	F	0.372446	-1.018207	-0.155556
F168	F	0.544381	-1.117359	-0.360756
F169	F	0.345160	-0.672952	-0.081879
H170	H	0.255599	-1.001835	-0.161294
F171	F	0.575430	-1.373891	-0.091658
F172	F	0.308722	-0.801943	-0.236233
F173	F	0.382352	-0.981815	-0.274719
H174	H	0.887496	-0.745488	-0.763994
F175	F	0.472098	-0.672262	-0.080538
H176	H	0.787328	-1.091631	-0.914289
F177	F	0.334696	-0.710751	0.050407
H178	H	0.942187	-0.556486	-0.438042
H179	H	1.145257	-0.326814	-0.124514
H180	H	0.930848	-0.595646	-0.311207
H181	H	0.732358	-0.429022	0.453322
H182	H	1.269575	-0.277546	-0.037054
H183	H	0.852737	-0.613849	0.311357
H184	H	0.677524	-0.458648	0.302461
