data_functionalizedCrystal
_audit_creation_method	'MofGen! by Chris Wilmer'
_symmetry_space_group_name_H-M	'P1'
_symmetry_Int_Tables_number	1
_symmetry_cell_setting	triclinic
loop_
_symmetry_equiv_pos_as_xyz
  x,y,z
_cell_length_a	9.730223
_cell_length_b	10.654550
_cell_length_c	10.654559
_cell_angle_alpha	95.513226
_cell_angle_beta	89.998230
_cell_angle_gamma	90.003749
loop_
_atom_site_label
_atom_site_type_symbol
_atom_site_fract_x
_atom_site_fract_y
_atom_site_fract_z
O1	O	-0.114405	-1.667840	0.176392
O2	O	-0.114383	-1.302362	0.193199
O3	O	-0.114383	-1.493498	0.002057
O4	O	-0.114404	-1.476704	0.367534
O5	O	0.114196	-1.493496	0.002062
O6	O	0.114197	-1.302360	0.193203
O7	O	0.114175	-1.667838	0.176397
Zn8	Zn	0.150478	-1.485098	0.184801
Zn9	Zn	-0.150686	-1.485101	0.184795
O10	O	0.114176	-1.476702	0.367539
C11	C	-0.000090	-1.255563	0.191967
C12	C	-0.000081	-1.116119	0.188275
N13	N	0.356015	-1.485105	0.184805
N14	N	-0.356222	-1.485104	0.184781
C15	C	-0.000094	-1.492261	-0.044738
C16	C	-0.000094	-1.488565	-0.184181
C17	C	0.427940	-1.569762	0.100196
C18	C	0.571823	-1.569759	0.100181
C19	C	0.571842	-1.400438	0.269394
C20	C	0.427962	-1.400436	0.269402
C21	C	0.427931	-1.667523	0.002506
C22	C	0.571814	-1.667519	0.002491
C23	C	-0.000120	-1.714637	0.177629
C24	C	-0.000138	-1.854080	0.181321
C25	C	-0.000107	-1.036637	0.300816
C26	C	-0.000131	-0.905616	0.297340
C27	C	-0.000108	-0.933572	0.068771
C28	C	-0.000074	-1.064591	0.072249
C29	C	-0.000127	-1.020496	0.432779
C30	C	-0.000150	-0.889475	0.429302
C31	C	-0.124717	-1.483365	-0.380701
C32	C	-0.124703	-1.486835	-0.249679
C33	C	0.124508	-1.486838	-0.249713
C34	C	0.124492	-1.483377	-0.380733
C35	C	-0.268597	-1.483357	-0.380680
C36	C	-0.268582	-1.486827	-0.249658
C37	C	-0.000117	-1.477938	0.414334
C38	C	-0.000125	-1.481635	0.553777
H39	H	0.369401	-1.331491	0.338286
O40	O	-0.114378	-0.839892	0.488611
C41	C	-0.322383	-0.881166	0.600317
C42	C	-0.193105	-0.937487	0.533159
H43	H	-0.386055	-0.960042	0.636376
H44	H	-0.386274	-0.830206	0.531246
H45	H	-0.290469	-0.811529	0.683130
H46	H	-0.224897	-1.007176	0.450350
H47	H	-0.129247	-0.988369	0.602311
O48	O	-0.000294	-0.883661	-0.044007
C49	C	-0.118751	-0.867433	-0.240399
C50	C	-0.118692	-0.924060	-0.112732
H51	H	-0.214480	-0.900051	-0.295988
H52	H	-0.023146	-0.900099	-0.296155
H53	H	-0.118709	-0.760140	-0.223524
H54	H	-0.118783	-1.031355	-0.129492
H55	H	-0.214288	-0.891295	-0.057017
O56	O	0.625241	-1.631310	-0.106341
C57	C	0.767077	-1.688334	-0.288314
C58	C	0.706674	-1.729486	-0.165089
H59	H	0.832905	-1.767697	-0.335861
H60	H	0.833125	-1.600609	-0.266224
H61	H	0.679825	-1.666254	-0.354132
H62	H	0.793838	-1.751634	-0.099212
H63	H	0.640590	-1.817172	-0.187274
H64	H	-0.098816	-1.056154	0.474795
H65	H	0.098532	-0.843804	0.469185
H66	H	0.610857	-1.764031	0.024009
H67	H	0.225946	-1.481987	-0.434079
O68	O	0.641675	-1.318023	0.351443
C69	C	0.685650	-1.100290	0.423037
C70	C	0.606508	-1.193486	0.330025
H71	H	0.657225	-0.999582	0.405771
H72	H	0.800857	-1.114719	0.408495
H73	H	0.657387	-1.117587	0.523777
H74	H	0.634656	-1.176245	0.229248
H75	H	0.491320	-1.179035	0.344677
O76	O	-0.334452	-1.383185	-0.194626
C77	C	-0.454645	-1.190948	-0.226003
C78	C	-0.380058	-1.308243	-0.288486
H79	H	-0.491563	-1.130338	-0.301861
H80	H	-0.381033	-1.133929	-0.159625
H81	H	-0.546648	-1.221795	-0.170256
H82	H	-0.288059	-1.277507	-0.344298
H83	H	-0.453761	-1.365235	-0.354793
H84	H	0.388883	-1.646077	-0.094026
H85	H	0.225966	-1.488259	-0.196375
H86	H	0.383297	-1.758707	0.033094
H87	H	-0.000033	-1.129301	-0.019393
H88	H	-0.323855	-1.570150	-0.426947
H89	H	-0.313241	-1.391764	-0.410253
H90	H	0.095536	-1.049828	0.484391
O91	O	-0.322089	-1.596024	-0.214411
C92	C	-0.519388	-1.732956	-0.217065
C93	C	-0.458983	-1.609244	-0.257036
H94	H	-0.630065	-1.743697	-0.251533
H95	H	-0.517026	-1.730822	-0.109902
H96	H	-0.455742	-1.815986	-0.260245
H97	H	-0.522579	-1.526147	-0.213943
H98	H	-0.461320	-1.611487	-0.364206
