data_functionalizedCrystal
_audit_creation_method	'MofGen! by Chris Wilmer'
_symmetry_space_group_name_H-M	'P1'
_symmetry_Int_Tables_number	1
_symmetry_cell_setting	triclinic
loop_
_symmetry_equiv_pos_as_xyz
  x,y,z
_cell_length_a	16.120484
_cell_length_b	12.759401
_cell_length_c	12.759393
_cell_angle_alpha	89.981287
_cell_angle_beta	92.863871
_cell_angle_gamma	92.926992
loop_
_atom_site_label
_atom_site_type_symbol
_atom_site_fract_x
_atom_site_fract_y
_atom_site_fract_z
Zn1	Zn	-0.331832	1.584961	-0.615183
Zn2	Zn	-0.471267	1.575916	-0.448395
Zn3	Zn	-0.331876	1.409263	-0.439521
Zn4	Zn	-0.471209	1.400312	-0.624029
O5	O	-0.401546	1.492613	-0.531782
O6	O	-0.350334	1.730781	-0.593070
O7	O	-0.452820	1.553770	-0.300200
O8	O	-0.215205	1.440101	-0.455406
O9	O	-0.452777	1.724136	-0.470532
O10	O	-0.215172	1.569186	-0.584465
O11	O	-0.350410	1.431331	-0.293680
O12	O	-0.350353	1.261055	-0.463984
O13	O	-0.452677	1.424845	-0.769874
O14	O	-0.452721	1.254479	-0.599541
O15	O	-0.350278	1.560506	-0.763374
O16	O	-0.587925	1.545090	-0.479110
O17	O	-0.587882	1.416075	-0.608147
C18	C	-0.401536	1.219646	-0.531760
C19	C	-0.401552	1.102869	-0.531777
C20	C	-0.454935	1.044605	-0.602261
C21	C	-0.454939	0.934880	-0.602282
C22	C	-0.348172	0.941694	-0.461326
C23	C	-0.348165	1.051416	-0.461311
C24	C	-0.484853	0.783061	-0.728051
C25	C	-0.538250	0.724792	-0.798526
C26	C	-0.619611	0.755171	-0.819663
C27	C	-0.647592	0.843816	-0.770310
C28	C	-0.594200	0.902078	-0.699827
C29	C	-0.512827	0.871702	-0.678709
C30	C	-0.318259	1.203237	-0.335542
C31	C	-0.264870	1.261502	-0.265053
C32	C	-0.183508	1.231125	-0.243905
C33	C	-0.155530	1.142477	-0.293240
C34	C	-0.208918	1.084212	-0.363729
C35	C	-0.290280	1.114597	-0.384878
C36	C	-0.618154	1.478658	-0.545574
C37	C	-0.710819	1.472784	-0.551509
C38	C	-0.880481	1.462066	-0.562368
C39	C	-0.921771	1.523348	-0.501213
C40	C	-1.016177	1.517384	-0.507255
C41	C	-0.786067	1.468028	-0.556327
C42	C	-0.184093	1.506651	-0.517959
C43	C	-0.091427	1.512633	-0.512068
C44	C	-0.401466	1.492686	-0.805810
C45	C	-0.401432	1.492717	-0.922585
C46	C	-0.401557	1.766645	-0.531804
C47	C	-0.401562	1.883422	-0.531814
C48	C	-0.454727	1.422103	-0.980831
C49	C	-0.454696	1.422142	-1.090553
C50	C	-0.348068	1.563414	-1.083773
C51	C	-0.348104	1.563378	-0.974053
C52	C	-0.552967	1.378303	-1.246755
C53	C	-0.606255	1.307673	-1.305004
C54	C	-0.619061	1.204321	-1.270205
C55	C	-0.578567	1.171579	-1.177158
C56	C	-0.525273	1.242204	-1.118914
C57	C	-0.512483	1.345569	-1.153712
C58	C	-0.249831	1.607207	-0.817849
C59	C	-0.196533	1.677828	-0.759603
C60	C	-0.183718	1.781182	-0.794399
C61	C	-0.224197	1.813921	-0.887449
C62	C	-0.277496	1.743301	-0.945695
C63	C	-0.290311	1.639947	-0.910892
C64	C	-0.401566	1.492604	-0.258816
C65	C	-0.401365	1.492792	-0.142027
H66	H	-0.616982	0.974250	-0.659644
H67	H	-0.916029	1.405126	-0.619256
H68	H	-0.163567	1.651160	-0.683842
H69	H	-0.639224	1.334341	-1.380764
Cl70	Cl	-0.521771	1.333276	-0.916132
H71	H	-0.886221	1.580291	-0.444319
Cl72	Cl	-0.522046	1.109284	-0.690852
H73	H	-0.492302	1.215545	-1.043159
Cl74	Cl	-0.686050	1.115531	-1.343436
H75	H	-0.542554	1.462463	-1.275090
H76	H	-0.588990	1.087414	-1.148839
H77	H	-0.304649	1.620942	-1.125692
Cl78	Cl	-0.328380	1.784457	-1.062679
Cl79	Cl	-0.208091	1.943857	-0.931196
Cl80	Cl	-0.116708	1.869960	-0.721175
H81	H	-0.384509	1.227985	-0.352764
Cl82	Cl	-0.265950	1.477275	-0.774088
H83	H	-0.713849	0.868536	-0.787517
H84	H	-0.515460	0.652619	-0.838710
Cl85	Cl	-0.686734	0.681922	-0.908268
H86	H	-0.418600	0.758325	-0.710858
H87	H	-0.186129	1.012036	-0.403907
Cl88	Cl	-0.053245	1.104278	-0.266648
Cl89	Cl	-0.116395	1.304365	-0.155274
Cl90	Cl	-0.300049	1.372936	-0.203015
Cl91	Cl	-0.281064	0.877003	-0.372742
