data_functionalizedCrystal
_audit_creation_method	'MofGen! by Chris Wilmer'
_symmetry_space_group_name_H-M	'P1'
_symmetry_Int_Tables_number	1
_symmetry_cell_setting	triclinic
loop_
_symmetry_equiv_pos_as_xyz
  x,y,z
_cell_length_a	19.288864
_cell_length_b	27.731996
_cell_length_c	17.766277
_cell_angle_alpha	89.987644
_cell_angle_beta	89.976791
_cell_angle_gamma	82.878815
loop_
_atom_site_label
_atom_site_type_symbol
_atom_site_fract_x
_atom_site_fract_y
_atom_site_fract_z
O1	O	0.920961	0.060301	-0.062845
O2	O	0.718647	0.068436	-0.062795
O3	O	0.826106	-0.006011	-0.062805
O4	O	0.813502	0.134748	-0.062835
O5	O	0.826088	-0.006015	0.062383
O6	O	0.718628	0.068432	0.062393
O7	O	0.920942	0.060298	0.062343
Cu8	Cu	0.819784	0.064365	0.073799
Cu9	Cu	0.819806	0.064369	-0.074251
O10	O	0.813483	0.134744	0.062354
C11	C	0.692763	0.068172	-0.000194
C12	C	0.615665	0.067387	-0.000174
C13	C	0.570684	0.111069	-0.000195
C14	C	0.498242	0.110330	-0.000203
C15	C	0.470783	0.065908	-0.000206
C16	C	0.515774	0.022220	-0.000180
C17	C	0.588214	0.022959	-0.000165
C18	C	0.362755	0.030988	-0.044083
C19	C	0.290315	0.030250	-0.044103
C20	C	0.247353	0.063625	-0.000251
C21	C	0.276837	0.097746	0.043612
C22	C	0.349277	0.098486	0.043628
C23	C	0.392235	0.065101	-0.000222
C24	C	0.123821	0.106510	-0.000280
C25	C	0.051378	0.105770	-0.000283
C26	C	0.068912	0.017658	-0.000268
C27	C	0.141353	0.018400	-0.000257
C28	C	0.168803	0.062827	-0.000266
C29	C	0.825838	-0.024021	-0.000209
C30	C	0.825058	-0.077680	-0.000201
C31	C	0.820161	-0.410409	-0.068476
C32	C	0.817200	-0.612076	-0.068489
O33	O	0.816796	-0.638146	-0.126525
N34	N	0.816822	-0.637296	-0.000249
C35	C	0.817180	-0.612096	0.067998
O36	O	0.816783	-0.638174	0.126040
C37	C	0.820136	-0.410429	0.068010
C38	C	0.820521	-0.385212	-0.000234
C39	C	0.820546	-0.385191	-0.136715
C40	C	0.821290	-0.334778	-0.136711
C41	C	0.821650	-0.309582	-0.068469
C42	C	0.821266	-0.334799	-0.000230
C43	C	0.820489	-0.385230	0.136257
C44	C	0.821227	-0.334810	0.136254
C45	C	0.821612	-0.309593	0.068010
C46	C	0.822370	-0.259189	0.068016
N47	N	0.822748	-0.233969	-0.000224
C48	C	0.822388	-0.259165	-0.068466
C49	C	0.815629	-0.717974	0.067987
C50	C	0.814891	-0.768391	0.067985
C51	C	0.814910	-0.768367	-0.068503
C52	C	0.815653	-0.717950	-0.068499
C53	C	0.816007	-0.692754	-0.000252
C54	C	0.823951	-0.153293	-0.068453
C55	C	0.824698	-0.102876	-0.068443
C56	C	0.824676	-0.102904	0.068044
C57	C	0.823932	-0.153317	0.068035
C58	C	0.823568	-0.178511	-0.000220
O59	O	0.822766	-0.233087	0.126022
O60	O	0.822769	-0.233077	-0.126499
C61	C	0.819417	-0.460822	-0.068480
C62	C	0.819033	-0.486039	-0.000242
C63	C	0.819393	-0.460843	0.068001
C64	C	0.818295	-0.536456	-0.000244
C65	C	0.817935	-0.561652	-0.068487
C66	C	0.818313	-0.536432	-0.136727
C67	C	0.819057	-0.486018	-0.136723
C68	C	0.819015	-0.486063	0.136240
C69	C	0.818272	-0.536477	0.136231
C70	C	0.817912	-0.561673	0.067989
C71	C	0.946826	0.060561	-0.000259
C72	C	1.023925	0.061347	-0.000284
C73	C	0.813751	0.152754	-0.000245
C74	C	0.814531	0.206413	-0.000258
N75	N	0.819773	0.064361	0.177929
N76	N	0.819822	0.064369	-0.178381
C77	C	0.867371	0.031412	0.217312
C78	C	0.867375	0.031410	0.296114
C79	C	0.819788	0.064365	0.335530
C80	C	0.772181	0.097316	0.296138
C81	C	0.772173	0.097314	0.217338
C82	C	0.810202	0.108409	0.460360
C83	C	0.810214	0.108411	0.539159
C84	C	0.819806	0.064371	0.578576
C85	C	0.829401	0.020326	0.539185
C86	C	0.829393	0.020324	0.460385
C87	C	0.819790	0.064370	0.420976
C88	C	0.867411	0.031417	0.703405
C89	C	0.867410	0.031414	0.782208
C90	C	0.772219	0.097324	0.782231
C91	C	0.772217	0.097323	0.703429
C92	C	0.819816	0.064370	0.664021
H93	H	0.046556	-0.018511	-0.000316
H94	H	0.802407	0.144275	0.571225
N95	N	0.817870	-0.562239	0.205940
N96	N	0.817198	-0.607252	0.205937
H97	H	0.816908	-0.625445	0.255167
N98	N	0.819380	-0.460337	0.205959
N99	N	0.819040	-0.482866	0.266877
H100	H	0.819301	-0.464700	0.316121
H101	H	0.815921	-0.697464	0.123566
N102	N	0.916005	-0.002258	0.177095
N103	N	0.894343	-0.032248	0.133153
H104	H	0.928700	-0.056030	0.104762
N105	N	0.814498	-0.794138	0.137702
N106	N	0.765592	-0.783943	0.183403
H107	H	0.765311	-0.802125	0.232644
N108	N	0.820096	-0.410989	0.205960
N109	N	0.868656	-0.443691	0.221187
H110	H	0.868377	-0.461884	0.270417
H111	H	0.906136	0.004578	0.328185
H112	H	0.397730	0.003809	-0.079797
H113	H	0.373280	0.126266	0.079345
H114	H	0.177978	-0.017171	-0.000244
H115	H	0.821504	-0.314297	0.191830
H116	H	0.266315	0.002469	-0.079822
H117	H	0.837203	-0.015539	0.428316
N118	N	0.823576	-0.179015	-0.138179
N119	N	0.823919	-0.156486	-0.199096
H120	H	0.823657	-0.174651	-0.248341
H121	H	0.733461	0.124155	0.671362
N122	N	0.800411	0.153403	0.420112
N123	N	0.791861	0.192723	0.455288
H124	H	0.784951	0.224500	0.426865
N125	N	0.916023	-0.002258	0.822427
N126	N	0.915560	-0.046936	0.813627
H127	H	0.949893	-0.070720	0.842029
N128	N	0.825034	-0.077151	0.137741
N129	N	0.776462	-0.044454	0.152964
H130	H	0.776710	-0.026263	0.202187
H131	H	0.493412	-0.013949	-0.000193
H132	H	0.906168	0.004582	0.671317
H133	H	0.837211	-0.015536	0.571277
H134	H	0.624838	-0.012613	-0.000148
H135	H	0.146172	0.142685	-0.000276
H136	H	0.241857	0.124923	0.079322
N137	N	0.825097	-0.077126	-0.138163
N138	N	0.824775	-0.099633	-0.199087
H139	H	0.825057	-0.081449	-0.248326
N140	N	0.821681	-0.309031	-0.206429
N141	N	0.821356	-0.331541	-0.267349
H142	H	0.821630	-0.313360	-0.316591
H143	H	0.820250	-0.405701	-0.192289
H144	H	0.014755	0.141343	-0.000296
N145	N	0.816049	-0.692201	-0.138215
N146	N	0.815733	-0.714711	-0.199137
H147	H	0.816013	-0.696528	-0.248378
H148	H	0.814618	-0.788890	-0.124069
N149	N	0.817952	-0.562166	-0.206443
N150	N	0.867020	-0.561098	-0.252151
H151	H	0.866763	-0.579274	-0.301386
H152	H	0.733470	0.124155	0.814323
H153	H	0.823625	-0.173851	0.123605
H154	H	0.819371	-0.465491	-0.192294
N155	N	0.723572	0.130973	0.336409
N156	N	0.723584	0.130971	0.406765
H157	H	0.689250	0.154740	0.435207
H158	H	0.593029	0.147245	-0.000204
N159	N	0.723544	0.130975	0.177117
N160	N	0.681053	0.160394	0.212315
H161	H	0.646708	0.184168	0.183909
H162	H	0.461612	0.145903	-0.000218
