data_functionalizedCrystal
_audit_creation_method	'MofGen! by Chris Wilmer'
_symmetry_space_group_name_H-M	'P1'
_symmetry_Int_Tables_number	1
_symmetry_cell_setting	triclinic
loop_
_symmetry_equiv_pos_as_xyz
  x,y,z
_cell_length_a	12.811457
_cell_length_b	10.489741
_cell_length_c	11.892098
_cell_angle_alpha	93.926593
_cell_angle_beta	91.494140
_cell_angle_gamma	84.290239
loop_
_atom_site_label
_atom_site_type_symbol
_atom_site_fract_x
_atom_site_fract_y
_atom_site_fract_z
O1	O	1.390519	0.175982	0.048548
O2	O	1.087281	0.191983	0.017459
O3	O	1.245800	-0.001594	0.033718
O4	O	1.232001	0.369560	0.032290
O5	O	1.232571	0.014512	0.220369
O6	O	1.074052	0.208089	0.204110
O7	O	1.377290	0.192089	0.235199
Zn8	Zn	1.223571	0.202646	0.249289
Zn9	Zn	1.241001	0.181425	0.003369
O10	O	1.218771	0.385666	0.218941
C11	C	1.041837	0.198646	0.106804
C12	C	0.926137	0.194489	0.094942
C13	C	0.694300	0.204213	0.276162
C14	C	0.585589	0.200307	0.265022
C15	C	0.600002	0.182760	0.061524
C16	C	0.708713	0.186667	0.072664
C17	C	0.755858	0.197395	0.179986
C18	C	0.864570	0.201311	0.191125
C19	C	0.878982	0.183755	-0.012372
C20	C	0.770271	0.179849	-0.023512
C21	C	1.238143	-0.041076	0.126936
C22	C	1.235025	-0.182715	0.126614
C23	C	1.134164	-0.251152	0.116265
C24	C	1.175287	-0.335193	0.213179
C25	C	1.188354	-0.351047	0.029158
C26	C	1.276184	-0.264884	0.223608
C27	C	1.289243	-0.280736	0.039503
C28	C	1.330438	-0.364747	0.136446
C29	C	1.422735	0.185425	0.145852
C30	C	1.538436	0.189582	0.157707
C31	C	1.226429	0.425147	0.125720
C32	C	1.229547	0.566786	0.126034
N33	N	1.211683	0.217128	0.417125
C34	C	1.129037	0.318029	0.586186
C35	C	1.137327	0.307886	0.468694
C36	C	1.277750	0.136505	0.483055
C37	C	1.269460	0.146648	0.600547
C38	C	1.195102	0.237414	0.652108
C39	C	1.186817	0.247562	0.769603
C40	C	1.327234	0.076177	0.783961
C41	C	1.335525	0.066034	0.666469
N42	N	1.252884	0.166940	0.835533
H43	H	0.902953	0.210054	0.278512
H44	H	1.396063	-0.007869	0.624474
H45	H	0.535471	0.205865	0.343338
H46	H	0.929114	0.178211	-0.090686
C47	C	1.354257	-0.247603	-0.059698
H48	H	1.412297	-0.204542	-0.031485
H49	H	1.311593	-0.193469	-0.106911
H50	H	1.378992	-0.324345	-0.101898
H51	H	1.068498	0.391942	0.628168
H52	H	1.313303	-0.227205	0.305869
C53	C	1.138136	-0.402132	-0.081861
H54	H	1.068403	-0.362840	-0.088888
H55	H	1.137090	-0.492532	-0.081583
H56	H	1.177926	-0.382511	-0.143607
H57	H	1.051230	-0.201737	0.107856
C58	C	0.718405	0.168055	-0.141557
H59	H	0.644843	0.166714	-0.134419
H60	H	0.746571	0.090868	-0.180789
H61	H	0.731791	0.239335	-0.182285
C62	C	1.064661	0.396567	0.396184
H63	H	1.019197	0.452080	0.443724
H64	H	1.024175	0.346082	0.345885
H65	H	1.105785	0.446275	0.354220
H66	H	1.127096	-0.359617	0.286607
C67	C	1.105005	0.347372	0.826317
H68	H	1.066834	0.393912	0.770223
H69	H	1.139627	0.405001	0.876025
H70	H	1.058058	0.304759	0.867675
C71	C	1.359508	0.036641	0.426322
H72	H	1.354975	0.042145	0.346906
H73	H	1.346175	-0.046987	0.444377
H74	H	1.427816	0.053168	0.452669
H75	H	1.381032	0.010539	0.837649
C76	C	1.442509	-0.431309	0.148065
H77	H	1.457584	-0.488375	0.083752
H78	H	1.447839	-0.478184	0.213885
H79	H	1.491235	-0.368458	0.153727
C80	C	0.746167	0.216025	0.394205
H81	H	0.819727	0.217384	0.387064
H82	H	0.732779	0.144768	0.434951
H83	H	0.718000	0.293232	0.433419
C84	C	0.548131	0.170953	-0.056517
H85	H	0.474570	0.169607	-0.049372
H86	H	0.576298	0.093762	-0.095743
H87	H	0.561510	0.242227	-0.097255
