data_functionalizedCrystal
_audit_creation_method	'MofGen! by Chris Wilmer'
_symmetry_space_group_name_H-M	'P1'
_symmetry_Int_Tables_number	1
_symmetry_cell_setting	triclinic
loop_
_symmetry_equiv_pos_as_xyz
  x,y,z
_cell_length_a	10.540510
_cell_length_b	16.776229
_cell_length_c	17.699092
_cell_angle_alpha	89.995030
_cell_angle_beta	83.899839
_cell_angle_gamma	89.992634
loop_
_atom_site_label
_atom_site_type_symbol
_atom_site_fract_x
_atom_site_fract_y
_atom_site_fract_z
O1	O	1.683970	-0.066290	0.106554
O2	O	1.314369	-0.066290	0.116627
O3	O	1.509606	-0.066288	0.001469
O4	O	1.488733	-0.066292	0.221712
O5	O	1.509580	0.066288	0.001462
O6	O	1.314343	0.066286	0.116620
O7	O	1.683944	0.066287	0.106547
Zn8	Zn	1.499139	0.087336	0.111582
Zn9	Zn	1.499174	-0.087339	0.111592
O10	O	1.488707	0.066285	0.221705
C11	C	1.267066	-0.000002	0.115873
C12	C	1.126157	-0.000002	0.113627
N13	N	1.499125	0.206547	0.111575
N14	N	1.499198	-0.206551	0.111593
C15	C	0.907242	-0.000308	0.193627
C16	C	1.053794	-0.000004	0.196022
C17	C	1.082152	0.075704	0.071444
C18	C	0.935424	0.075763	0.069632
C19	C	0.935678	-0.075001	0.067925
C20	C	1.081948	-0.075997	0.071833
C21	C	1.731247	-0.000003	0.107301
C22	C	1.872156	-0.000008	0.109547
C23	C	1.508843	-0.000001	-0.026737
C24	C	1.506594	-0.000005	-0.110769
C25	C	1.585603	0.248265	0.060604
C26	C	1.585610	0.331717	0.060604
C27	C	1.499145	0.373450	0.111578
C28	C	1.412658	0.331726	0.162551
C29	C	1.412646	0.248276	0.162548
C30	C	1.412704	0.668273	0.162566
C31	C	1.412725	0.751730	0.162568
C32	C	1.585668	0.751715	0.060623
C33	C	1.585656	0.668264	0.060619
C34	C	1.499165	0.626548	0.111589
C35	C	1.499157	0.536060	0.111588
C36	C	1.499158	0.463937	0.111583
C37	C	1.505555	-0.072273	-0.150239
C38	C	1.503433	-0.072274	-0.229196
C39	C	1.502361	-0.000006	-0.268681
C40	C	1.503396	0.072268	-0.229205
C41	C	1.505509	0.072268	-0.150249
C42	C	1.494876	0.072269	-0.547625
C43	C	1.492767	0.072264	-0.626587
C44	C	1.492800	-0.072273	-0.626571
C45	C	1.494913	-0.072273	-0.547615
C46	C	1.495942	0.000000	-0.508146
C47	C	1.498240	0.000001	-0.422532
C48	C	1.500072	-0.000005	-0.354294
C49	C	1.489469	-0.000004	0.249910
C50	C	1.491719	-0.000006	0.333942
H51	H	0.864714	-0.054602	0.225730
N52	N	0.851919	0.067418	0.233655
N53	N	0.786763	0.115904	0.200528
H54	H	0.747689	0.163738	0.228795
N55	N	1.324347	0.625681	0.214631
N56	N	1.247154	0.662955	0.260138
H57	H	1.184745	0.632871	0.296911
N58	N	1.506625	-0.146096	-0.109908
N59	N	1.418362	-0.162221	-0.059353
H60	H	1.419112	-0.214361	-0.030871
N61	N	1.324334	0.374365	0.214610
N62	N	1.324355	0.448873	0.214608
H63	H	1.261975	0.478987	0.251376
N64	N	1.673958	0.625624	0.008548
N65	N	1.673930	0.551116	0.008550
H66	H	1.736291	0.521000	-0.028228
H67	H	1.506337	0.131117	-0.118112
H68	H	1.502592	-0.131122	-0.261329
N69	N	1.324315	0.205647	0.214605
N70	N	1.245598	0.159095	0.190137
H71	H	1.183208	0.128988	0.226902
N72	N	1.142975	0.079266	-0.004652
N73	N	1.077221	0.079025	-0.059410
H74	H	1.120180	0.081543	-0.113154
H75	H	1.656018	0.214292	0.019098
H76	H	1.132114	-0.080568	0.011678
N77	N	1.502282	0.146095	-0.269525
N78	N	1.413062	0.194481	-0.254210
H79	H	1.412274	0.246624	-0.282684
H80	H	1.082549	-0.054276	0.229022
H81	H	1.491956	-0.131122	-0.658717
N82	N	1.496020	-0.146100	-0.507296
N83	N	1.495091	-0.210622	-0.542547
H84	H	1.495870	-0.262765	-0.514072
H85	H	1.491891	0.131117	-0.658733
H86	H	1.656090	0.785690	0.019117
H87	H	1.495739	0.131119	-0.515500
N88	N	0.909280	-0.075646	-0.009676
N89	N	0.850214	-0.132861	-0.034617
H90	H	0.831562	-0.133308	-0.089420
N91	N	1.088632	0.068155	0.237720
N92	N	1.004658	0.115653	0.265135
H93	H	1.029255	0.163780	0.294607
N94	N	0.884313	0.146751	0.105805
N95	N	0.899540	0.160182	0.173719
H96	H	0.863452	0.210318	0.199270
N97	N	0.907970	0.080101	-0.007672
N98	N	0.844832	0.137261	-0.029271
H99	H	0.825445	0.140331	-0.083866
N100	N	1.120159	0.146377	0.108200
N101	N	1.080740	0.159152	0.176240
H102	H	1.107580	0.209063	0.202205
H103	H	1.656025	0.365684	0.019099
H104	H	0.892667	-0.132383	0.093912
H105	H	1.110018	-0.132004	0.102525
N106	N	1.324390	0.794348	0.214645
N107	N	1.247173	0.757093	0.260149
H108	H	1.184789	0.787192	0.296928
