data_functionalizedCrystal
_audit_creation_method	'MofGen! by Chris Wilmer'
_symmetry_space_group_name_H-M	'P1'
_symmetry_Int_Tables_number	1
_symmetry_cell_setting	triclinic
loop_
_symmetry_equiv_pos_as_xyz
  x,y,z
_cell_length_a	18.215407
_cell_length_b	13.897448
_cell_length_c	18.215399
_cell_angle_alpha	90.026328
_cell_angle_beta	90.019833
_cell_angle_gamma	90.018140
loop_
_atom_site_label
_atom_site_type_symbol
_atom_site_fract_x
_atom_site_fract_y
_atom_site_fract_z
Zn1	Zn	1.125109	-0.384013	0.416124
Zn2	Zn	1.375109	-0.134013	0.666124
Zn3	Zn	1.625109	0.115987	0.916124
Zn4	Zn	1.875109	0.365987	1.166124
Zn5	Zn	1.125033	-0.545323	0.293061
Zn6	Zn	1.375033	-0.295323	0.543061
Zn7	Zn	1.625033	-0.045323	0.793061
Zn8	Zn	1.875033	0.204677	1.043061
Zn9	Zn	1.002041	-0.384045	0.293072
Zn10	Zn	1.252041	-0.134045	0.543072
Zn11	Zn	1.502041	0.115955	0.793072
Zn12	Zn	1.752041	0.365955	1.043072
Zn13	Zn	1.002023	-0.545269	0.416086
Zn14	Zn	1.252023	-0.295269	0.666086
Zn15	Zn	1.502023	-0.045269	0.916086
Zn16	Zn	1.752023	0.204731	1.166086
O17	O	1.063551	-0.464663	0.354586
O18	O	1.313551	-0.214663	0.604586
O19	O	1.563551	0.035337	0.854586
O20	O	1.813551	0.285337	1.104586
O21	O	1.228083	-0.405421	0.399811
O22	O	1.478083	-0.155421	0.649811
O23	O	1.728083	0.094579	0.899811
O24	O	1.978083	0.344579	1.149811
O25	O	1.108693	-0.523965	0.190078
O26	O	1.358693	-0.273965	0.440078
O27	O	1.608693	-0.023965	0.690078
O28	O	1.858693	0.226035	0.940078
O29	O	1.018406	-0.249059	0.309415
O30	O	1.268406	0.000941	0.559415
O31	O	1.518406	0.250941	0.809415
O32	O	1.768406	0.500941	1.059415
O33	O	1.228027	-0.523934	0.309398
O34	O	1.478027	-0.273934	0.559398
O35	O	1.728027	-0.023934	0.809398
O36	O	1.978027	0.226066	1.059398
O37	O	1.108823	-0.249036	0.399821
O38	O	1.358823	0.000964	0.649821
O39	O	1.608823	0.250964	0.899821
O40	O	1.858823	0.500964	1.149821
O41	O	1.018332	-0.405474	0.190086
O42	O	1.268332	-0.155474	0.440086
O43	O	1.518332	0.094526	0.690086
O44	O	1.768332	0.344526	0.940086
O45	O	0.899055	-0.405422	0.309378
O46	O	1.149055	-0.155422	0.559378
O47	O	1.399055	0.094578	0.809378
O48	O	1.649055	0.344578	1.059378
O49	O	1.018374	-0.523843	0.519076
O50	O	1.268374	-0.273843	0.769076
O51	O	1.518374	-0.023843	1.019076
O52	O	1.768374	0.226157	1.269076
O53	O	0.899041	-0.523873	0.399757
O54	O	1.149041	-0.273873	0.649757
O55	O	1.399041	-0.023873	0.899757
O56	O	1.649041	0.226127	1.149757
O57	O	1.108805	-0.405369	0.519103
O58	O	1.358805	-0.155369	0.769103
O59	O	1.608805	0.094631	1.019103
O60	O	1.858805	0.344631	1.269103
O61	O	1.108675	-0.680297	0.309361
O62	O	1.358675	-0.430297	0.559361
O63	O	1.608675	-0.180297	0.809361
O64	O	1.858675	0.069703	1.059361
O65	O	1.018300	-0.680258	0.399747
O66	O	1.268300	-0.430258	0.649747
O67	O	1.518300	-0.180258	0.899747
O68	O	1.768300	0.069742	1.149747
C69	C	0.872345	-0.464646	0.354565
C70	C	1.122345	-0.214646	0.604565
C71	C	1.372345	0.035354	0.854565
C72	C	1.622345	0.285354	1.104565
C73	C	0.790546	-0.464662	0.354573
C74	C	1.040546	-0.214662	0.604573
C75	C	1.290546	0.035338	0.854573
C76	C	1.540546	0.285338	1.104573
C77	C	1.063498	-0.715277	0.354565
C78	C	1.313498	-0.465277	0.604565
C79	C	1.563498	-0.215277	0.854565
C80	C	1.813498	0.034723	1.104565
C81	C	1.063542	-0.822491	0.354580
C82	C	1.313542	-0.572491	0.604580
C83	C	1.563542	-0.322491	0.854580
C84	C	1.813542	-0.072491	1.104580
C85	C	0.602364	-0.526437	0.401574
C86	C	0.852364	-0.276437	0.651574
C87	C	1.102364	-0.026437	0.901574
C88	C	1.352364	0.223563	1.151574
C89	C	0.525506	-0.526440	0.401583
C90	C	0.775506	-0.276440	0.651583
C91	C	1.025506	-0.026440	0.901583
C92	C	1.275506	0.223560	1.151583
C93	C	0.525490	-0.402906	0.307614
C94	C	0.775490	-0.152906	0.557614
C95	C	1.025490	0.097094	0.807614
C96	C	1.275490	0.347094	1.057614
C97	C	0.602348	-0.402899	0.307609
C98	C	0.852348	-0.152899	0.557609
C99	C	1.102348	0.097101	0.807609
C100	C	1.352348	0.347101	1.057609
C101	C	0.640783	-0.464670	0.354588
C102	C	0.890783	-0.214670	0.604588
C103	C	1.140783	0.035330	0.854588
C104	C	1.390783	0.285330	1.104588
C105	C	0.487067	-0.464680	0.354602
C106	C	0.737067	-0.214680	0.604602
C107	C	0.987067	0.035320	0.854602
C108	C	1.237067	0.285320	1.104602
C109	C	0.403733	-0.464683	0.354612
C110	C	0.653733	-0.214683	0.604612
C111	C	0.903733	0.035317	0.854612
C112	C	1.153733	0.285317	1.104612
C113	C	0.724122	-0.464666	0.354579
C114	C	0.974122	-0.214666	0.604579
C115	C	1.224122	0.035334	0.854579
C116	C	1.474122	0.285334	1.104579
C117	C	1.063619	-1.018786	0.354626
C118	C	1.313619	-0.768786	0.604626
C119	C	1.563619	-0.518786	0.854626
C120	C	1.813619	-0.268786	1.104626
C121	C	1.063574	-0.909553	0.354603
C122	C	1.313574	-0.659553	0.604603
C123	C	1.563574	-0.409553	0.854603
C124	C	1.813574	-0.159553	1.104603
C125	C	1.255504	-0.464680	0.354607
C126	C	1.505504	-0.214680	0.604607
C127	C	1.755504	0.035320	0.854607
C128	C	2.005504	0.285320	1.104607
C129	C	1.337303	-0.464687	0.354617
C130	C	1.587303	-0.214687	0.604617
C131	C	1.837303	0.035313	0.854617
C132	C	2.087303	0.285313	1.104617
C133	C	1.063596	-0.464596	0.546539
C134	C	1.313596	-0.214596	0.796539
C135	C	1.563596	0.035404	1.046539
C136	C	1.813596	0.285404	1.296539
C137	C	1.063615	-0.464568	0.628338
C138	C	1.313615	-0.214568	0.878338
C139	C	1.563615	0.035432	1.128338
C140	C	1.813615	0.285432	1.378338
C141	C	1.063625	-0.213070	0.354623
C142	C	1.313625	0.036930	0.604623
C143	C	1.563625	0.286930	0.854623
C144	C	1.813625	0.536930	1.104623
C145	C	1.063657	-0.105856	0.354639
C146	C	1.313657	0.144144	0.604639
C147	C	1.563657	0.394144	0.854639
C148	C	1.813657	0.644144	1.104639
C149	C	1.063549	-0.464659	0.163380
C150	C	1.313549	-0.214659	0.413380
C151	C	1.563549	0.035341	0.663380
C152	C	1.813549	0.285341	0.913380
C153	C	1.063672	-0.464416	0.081581
C154	C	1.313672	-0.214416	0.331581
C155	C	1.563672	0.035584	0.581581
C156	C	1.813672	0.285584	0.831581
C157	C	1.110720	-0.402821	0.816547
C158	C	1.360720	-0.152821	1.066547
C159	C	1.610720	0.097179	1.316547
C160	C	1.860720	0.347179	1.566547
C161	C	1.110728	-0.402792	0.893406
C162	C	1.360728	-0.152792	1.143406
C163	C	1.610728	0.097208	1.393406
C164	C	1.860728	0.347208	1.643406
C165	C	1.016563	-0.526166	0.893366
C166	C	1.266563	-0.276166	1.143366
C167	C	1.516563	-0.026166	1.393366
C168	C	1.766563	0.223834	1.643366
C169	C	1.016551	-0.526188	0.816509
C170	C	1.266551	-0.276188	1.066509
C171	C	1.516551	-0.026188	1.316509
C172	C	1.766551	0.223812	1.566509
C173	C	1.063634	-0.464517	0.778101
C174	C	1.313634	-0.214517	1.028101
C175	C	1.563634	0.035483	1.278101
C176	C	1.813634	0.285483	1.528101
C177	C	1.063654	-0.464466	0.931818
C178	C	1.313654	-0.214466	1.181818
C179	C	1.563654	0.035534	1.431818
C180	C	1.813654	0.285534	1.681818
C181	C	1.063663	-0.464436	1.015151
C182	C	1.313663	-0.214436	1.265151
C183	C	1.563663	0.035564	1.515151
C184	C	1.813663	0.285564	1.765151
C185	C	1.063624	-0.464546	0.694762
C186	C	1.313624	-0.214546	0.944762
C187	C	1.563624	0.035454	1.194762
C188	C	1.813624	0.285454	1.444762
H189	H	0.494229	-0.576735	0.439845
H190	H	0.744229	-0.326735	0.689845
H191	H	0.994229	-0.076735	0.939845
H192	H	1.244229	0.173265	1.189845
H193	H	0.494187	-0.352616	0.269364
H194	H	0.744187	-0.102616	0.519364
H195	H	0.994187	0.147384	0.769364
H196	H	1.244187	0.397384	1.019364
O197	O	1.161499	-0.336306	0.775121
O198	O	1.411499	-0.086306	1.025121
O199	O	1.661499	0.163694	1.275121
O200	O	1.911499	0.413694	1.525121
H201	H	1.128570	-0.287245	0.740101
H202	H	1.378570	-0.037245	0.990101
H203	H	1.628570	0.212755	1.240101
H204	H	1.878570	0.462755	1.490101
H205	H	0.978203	-0.576428	0.785205
H206	H	1.228203	-0.326428	1.035205
H207	H	1.478203	-0.076428	1.285205
H208	H	1.728203	0.173572	1.535205
O209	O	0.643785	-0.336285	0.256915
O210	O	0.893785	-0.086285	0.506915
O211	O	1.143785	0.163715	0.756915
O212	O	1.393785	0.413715	1.006915
H213	H	0.629050	-0.260600	0.269625
H214	H	0.879050	-0.010600	0.519625
H215	H	1.129050	0.239400	0.769625
H216	H	1.379050	0.489400	1.019625
H217	H	0.978232	-0.576378	0.924647
H218	H	1.228232	-0.326378	1.174647
H219	H	1.478232	-0.076378	1.424647
H220	H	1.728232	0.173622	1.674647
O221	O	0.643823	-0.593045	0.452250
O222	O	0.893823	-0.343045	0.702250
O223	O	1.143823	-0.093045	0.952250
O224	O	1.393823	0.156955	1.202250
H225	H	0.604193	-0.635988	0.484930
H226	H	0.854193	-0.385988	0.734930
H227	H	1.104193	-0.135988	0.984930
H228	H	1.354193	0.114012	1.234930
O229	O	1.161518	-0.336255	0.934876
O230	O	1.411518	-0.086255	1.184876
O231	O	1.661518	0.163745	1.434876
O232	O	1.911518	0.413745	1.684876
H233	H	1.194257	-0.293383	0.895254
H234	H	1.444257	-0.043383	1.145254
H235	H	1.694257	0.206617	1.395254
H236	H	1.944257	0.456617	1.645254
