data_functionalizedCrystal
_audit_creation_method	'MofGen! by Chris Wilmer'
_symmetry_space_group_name_H-M	'P1'
_symmetry_Int_Tables_number	1
_symmetry_cell_setting	triclinic
loop_
_symmetry_equiv_pos_as_xyz
  x,y,z
_cell_length_a	11.792241
_cell_length_b	19.288865
_cell_length_c	17.766277
_cell_angle_alpha	90.011603
_cell_angle_beta	89.994854
_cell_angle_gamma	96.335168
loop_
_atom_site_label
_atom_site_type_symbol
_atom_site_fract_x
_atom_site_fract_y
_atom_site_fract_z
O1	O	1.505473	-0.095201	-0.062531
O2	O	1.174983	-0.105012	-0.062549
O3	O	1.349777	0.000970	-0.062524
O4	O	1.330678	-0.201183	-0.062555
O5	O	1.349747	0.000975	0.062664
O6	O	1.174952	-0.105007	0.062639
O7	O	1.505442	-0.095195	0.062658
Cu8	Cu	1.340194	-0.100100	0.074079
Cu9	Cu	1.340230	-0.100107	-0.073971
O10	O	1.330647	-0.201177	0.062633
C11	C	1.132686	-0.104393	0.000043
C12	C	1.006700	-0.102548	0.000037
N13	N	1.340177	-0.100095	0.178210
C14	C	1.349147	0.026852	0.000072
C15	C	1.347303	0.103966	0.000079
C16	C	0.776039	-0.099156	0.000059
C17	C	0.904396	-0.101041	0.000047
C18	C	1.547739	-0.095814	0.000064
C19	C	1.673725	-0.097659	0.000066
C20	C	1.331277	-0.227060	0.000035
C21	C	1.333122	-0.304174	0.000024
C22	C	1.449864	0.148080	0.000088
C23	C	1.448131	0.220537	0.000076
C24	C	1.343830	0.248877	0.000070
C25	C	1.241255	0.204754	0.000056
C26	C	1.242992	0.132298	0.000060
C27	C	1.261827	0.357632	0.043916
C28	C	1.260096	0.430086	0.043916
C29	C	1.338472	0.472353	0.000053
C30	C	1.418599	0.442158	-0.043802
C31	C	1.420335	0.369703	-0.043797
C32	C	1.341936	0.327442	0.000064
C33	C	1.439161	0.595033	0.000048
C34	C	1.437423	0.667491	0.000031
C35	C	1.230545	0.651706	0.000019
C36	C	1.232285	0.579250	0.000028
C37	C	1.336596	0.550918	0.000046
N38	N	1.340257	-0.100107	-0.178101
C39	C	1.417601	-0.053190	0.217608
C40	C	1.417607	-0.053187	0.296409
C41	C	1.340201	-0.100101	0.335810
C42	C	1.262763	-0.147010	0.296403
C43	C	1.262751	-0.147007	0.217603
C44	C	1.325007	-0.163302	0.460638
C45	C	1.325027	-0.163306	0.539437
C46	C	1.340231	-0.100110	0.578857
C47	C	1.355440	-0.036907	0.539468
C48	C	1.355428	-0.036904	0.460667
C49	C	1.340205	-0.100109	0.421256
C50	C	1.417667	-0.053197	0.703700
C51	C	1.417665	-0.053193	0.782504
C52	C	1.262826	-0.147022	0.782496
C53	C	1.262822	-0.147020	0.703694
C54	C	1.340248	-0.100108	0.664301
H55	H	1.534802	0.125017	0.000100
C56	C	1.555516	0.758104	-0.064326
C57	C	1.550171	0.715982	0.000036
H58	H	1.625127	0.788036	-0.064324
H59	H	1.493160	0.785349	-0.064331
H60	H	1.551904	0.729489	-0.107972
H61	H	1.553774	0.744597	0.043683
H62	H	1.612544	0.688735	0.000048
C63	C	1.066153	-0.186998	0.806766
C64	C	1.177734	-0.198590	0.825796
H65	H	1.013619	-0.218832	0.833504
H66	H	1.055076	-0.193713	0.754203
H67	H	1.054086	-0.140589	0.819697
H68	H	1.189803	-0.244998	0.812859
H69	H	1.188816	-0.191881	0.878371
C70	C	1.036946	0.181875	0.000036
C71	C	1.126605	0.235901	0.000046
H72	H	0.966164	0.201105	0.000022
H73	H	1.041909	0.153954	0.043691
H74	H	1.041949	0.153934	-0.043621
H75	H	1.121606	0.263840	0.043707
H76	H	1.121639	0.263834	-0.043613
H77	H	1.312606	-0.214768	0.428549
C78	C	1.276593	0.038641	0.628096
C79	C	1.372154	0.032571	0.582780
H80	H	1.286915	0.081535	0.654831
H81	H	1.267550	0.001012	0.662833
H82	H	1.210508	0.037505	0.597353
H83	H	1.438238	0.033701	0.613523
H84	H	1.381210	0.070210	0.548039
H85	H	1.148769	0.543331	0.000024
C86	C	1.615848	0.479553	-0.069268
C87	C	1.504757	0.488611	-0.092020
H88	H	1.669036	0.508238	-0.099030
H89	H	1.628346	0.432087	-0.075544
H90	H	1.625507	0.492204	-0.017801
H91	H	1.495096	0.475955	-0.143485
H92	H	1.492255	0.536088	-0.085750
C93	C	1.026235	0.628822	0.000004
C94	C	1.115893	0.682848	0.000009
H95	H	0.955453	0.648051	-0.000009
H96	H	1.031202	0.600903	0.043661
H97	H	1.031236	0.600878	-0.043652
H98	H	1.110897	0.710789	0.043667
H99	H	1.110924	0.710778	-0.043653
C100	C	1.064576	0.320240	0.069384
C101	C	1.175666	0.311174	0.092131
H102	H	1.011386	0.291560	0.099151
H103	H	1.054910	0.307593	0.017924
H104	H	1.052089	0.367714	0.075665
H105	H	1.188156	0.263700	0.085846
H106	H	1.185336	0.323816	0.143604
C107	C	1.616029	0.586152	-0.064306
C108	C	1.553812	0.563881	0.000052
H109	H	1.686805	0.566916	-0.064306
H110	H	1.629676	0.635611	-0.064304
H111	H	1.573803	0.571021	-0.107955
H112	H	1.596034	0.579016	0.043701
H113	H	1.540168	0.514411	0.000057
C114	C	1.652795	0.228869	0.000109
C115	C	1.560874	0.269039	0.000092
H116	H	1.722396	0.258812	0.000123
H117	H	1.649193	0.200276	-0.043545
H118	H	1.649145	0.200286	0.043767
H119	H	1.564519	0.297618	-0.043570
H120	H	1.564478	0.297644	0.043750
C121	C	1.493264	0.352881	-0.167868
C122	C	1.508393	0.336510	-0.092007
H123	H	1.547622	0.332384	-0.197632
H124	H	1.503458	0.402075	-0.174144
H125	H	1.418455	0.335273	-0.183279
H126	H	1.583199	0.354121	-0.076595
H127	H	1.498208	0.287305	-0.085728
H128	H	1.194847	0.454665	0.079620
H129	H	1.159471	0.096380	0.000053
C130	C	1.570651	0.039556	0.225537
C131	C	1.502695	-0.001618	0.174308
H132	H	1.623177	0.071398	0.198802
H133	H	1.611327	0.010473	0.256254
H134	H	1.523532	0.064731	0.256289
H135	H	1.549813	-0.026796	0.143560
H136	H	1.462016	0.027469	0.143578
H137	H	1.480709	-0.014996	0.671625
H138	H	1.480657	-0.014989	0.328493
H139	H	1.367808	0.014558	0.428600
H140	H	1.199701	-0.185204	0.185524
C141	C	1.109704	-0.239747	0.288482
C142	C	1.177670	-0.198577	0.339708
H143	H	1.057162	-0.271578	0.315218
H144	H	1.156805	-0.264927	0.257736
H145	H	1.069035	-0.210655	0.257758
H146	H	1.218346	-0.227669	0.370428
H147	H	1.130563	-0.173395	0.370467
H148	H	1.199780	-0.185218	0.671614
C149	C	1.570739	0.039537	0.774591
C150	C	1.502781	-0.001633	0.825813
H151	H	1.623291	0.071364	0.801331
H152	H	1.523632	0.064722	0.743871
H153	H	1.611395	0.010444	0.743842
H154	H	1.462119	0.027460	0.856559
H155	H	1.549894	-0.026819	0.856547
H156	H	1.312650	-0.214770	0.571501
