data_functionalizedCrystal
_audit_creation_method	'MofGen! by Chris Wilmer'
_symmetry_space_group_name_H-M	'P1'
_symmetry_Int_Tables_number	1
_symmetry_cell_setting	triclinic
loop_
_symmetry_equiv_pos_as_xyz
  x,y,z
_cell_length_a	12.827893
_cell_length_b	12.827893
_cell_length_c	12.827885
_cell_angle_alpha	89.974949
_cell_angle_beta	90.021189
_cell_angle_gamma	89.998281
loop_
_atom_site_label
_atom_site_type_symbol
_atom_site_fract_x
_atom_site_fract_y
_atom_site_fract_z
Zn1	Zn	-1.597756	-0.416032	-0.590937
Zn2	Zn	-1.597686	-0.590810	-0.416211
Zn3	Zn	-1.422997	-0.416078	-0.416204
Zn4	Zn	-1.423019	-0.590727	-0.590905
O5	O	-1.510365	-0.503412	-0.503564
O6	O	-1.743983	-0.439233	-0.567775
O7	O	-1.574475	-0.567685	-0.269974
O8	O	-1.446200	-0.269836	-0.439393
O9	O	-1.743932	-0.567641	-0.439405
O10	O	-1.574594	-0.269802	-0.567768
O11	O	-1.446132	-0.439310	-0.269969
O12	O	-1.276764	-0.439230	-0.439363
O13	O	-1.446236	-0.567499	-0.737146
O14	O	-1.276780	-0.567543	-0.567715
O15	O	-1.574615	-0.439152	-0.737169
O16	O	-1.574496	-0.737035	-0.439375
O17	O	-1.446169	-0.736974	-0.567722
C18	C	-1.238855	-0.503383	-0.503535
C19	C	-1.122702	-0.503396	-0.503548
C20	C	-1.070942	-0.439967	-0.567167
C21	C	-0.950892	-0.439978	-0.567181
C22	C	-1.510356	-0.774921	-0.503568
C23	C	-1.510447	-0.891075	-0.503605
C24	C	-1.510436	-0.503311	-0.776135
C25	C	-1.510466	-0.503268	-0.892288
C26	C	-0.782935	-0.503432	-0.503586
C27	C	-0.899088	-0.503419	-0.503573
C28	C	-1.510402	-0.230841	-0.503583
C29	C	-1.510418	-0.114688	-0.503591
C30	C	-1.446898	-0.062920	-0.440077
C31	C	-1.446913	0.057130	-0.440084
C32	C	-1.573999	-0.439746	-0.944084
C33	C	-1.574031	-0.439700	-1.064134
C34	C	-1.510354	-0.503436	-0.232054
C35	C	-1.510526	-0.503184	-0.115902
H36	H	-0.906380	-0.385678	-0.621651
H37	H	-1.115505	-0.385650	-0.621618
H38	H	-1.564836	0.064413	-0.557981
H39	H	-1.078138	-0.557707	-0.449090
H40	H	-1.564807	-0.070133	-0.557977
Cl41	Cl	-0.967798	-0.587274	-0.419480
Cl42	Cl	-1.362904	-0.131702	-0.356123
H43	H	-1.628363	-0.385392	-0.899552
H44	H	-1.392535	0.101649	-0.385703
Cl45	Cl	-1.658020	-0.355736	-1.132900
Cl46	Cl	-1.426515	-0.587180	-0.961033
Cl47	Cl	-1.426546	-0.587163	-1.047143
