data_functionalizedCrystal
_audit_creation_method	'MofGen! by Chris Wilmer'
_symmetry_space_group_name_H-M	'P1'
_symmetry_Int_Tables_number	1
_symmetry_cell_setting	triclinic
loop_
_symmetry_equiv_pos_as_xyz
  x,y,z
_cell_length_a	14.971486
_cell_length_b	14.044190
_cell_length_c	14.048226
_cell_angle_alpha	89.988942
_cell_angle_beta	89.998499
_cell_angle_gamma	88.402953
loop_
_atom_site_label
_atom_site_type_symbol
_atom_site_fract_x
_atom_site_fract_y
_atom_site_fract_z
O1	O	1.196682	0.123538	-0.079061
O2	O	0.937448	0.138332	-0.079088
O3	O	1.063170	-0.007054	-0.079057
O4	O	1.070959	0.268924	-0.079093
O5	O	1.063153	-0.007063	0.079265
O6	O	0.937430	0.138323	0.079233
O7	O	1.196665	0.123529	0.079260
Zn8	Zn	1.067045	0.130925	0.104383
Zn9	Zn	1.067068	0.130936	-0.104212
O10	O	1.070942	0.268916	0.079228
C11	C	0.904062	0.137666	0.000069
C12	C	0.804609	0.135683	0.000059
C13	C	1.059754	-0.042377	0.000107
C14	C	1.049591	-0.147614	0.000114
C15	C	0.754114	0.221094	0.000049
C16	C	0.660667	0.219225	0.000064
C17	C	0.617717	0.131945	0.000081
C18	C	0.668219	0.046528	0.000094
C19	C	0.761664	0.048398	0.000087
C20	C	0.473450	0.042638	0.000108
C21	C	0.379998	0.040768	0.000114
C22	C	0.372453	0.213465	0.000085
C23	C	0.465898	0.215335	0.000077
C24	C	0.516393	0.129917	0.000089
C25	C	1.103093	-0.397840	0.000082
C26	C	1.031024	-0.340293	0.000081
C27	C	1.041357	-0.233077	0.000099
C28	C	1.092761	-0.505066	0.000064
C29	C	1.230050	0.124195	0.000100
C30	C	1.329504	0.126178	0.000104
C31	C	1.074358	0.304238	0.000063
C32	C	1.084522	0.409476	0.000049
N33	N	1.067036	0.130917	0.246744
N34	N	1.067083	0.130937	-0.246572
C35	C	1.122727	0.066566	0.296576
C36	C	1.122733	0.066566	0.396234
C37	C	1.067052	0.130921	0.446058
C38	C	1.011354	0.195274	0.396218
C39	C	1.011344	0.195270	0.296563
C40	C	1.011381	0.195281	0.603933
C41	C	1.011392	0.195287	0.703595
C42	C	1.122770	0.066577	0.703604
C43	C	1.122760	0.066573	0.603948
C44	C	1.067063	0.130928	0.554116
H45	H	0.619558	0.288775	0.000055
N46	N	1.195095	-0.356448	0.000118
H47	H	1.228680	-0.378522	0.058814
H48	H	1.228645	-0.378484	-0.058605
N49	N	1.182790	-0.002840	0.242841
H50	H	1.218069	-0.043607	0.289536
H51	H	1.145198	-0.044812	0.201508
N52	N	0.800432	0.315234	0.000037
H53	H	0.867292	0.303462	0.000032
H54	H	0.782446	0.352618	-0.058657
N55	N	0.816131	-0.043723	0.000105
H56	H	0.774745	-0.099299	0.000116
H57	H	0.855067	-0.046710	-0.058587
H58	H	1.168081	0.014166	0.436807
N59	N	1.182820	-0.002830	0.550206
H60	H	1.218104	-0.043600	0.596894
H61	H	1.145226	-0.044800	0.508873
H62	H	0.961564	-0.371547	0.000068
H63	H	0.345031	-0.030303	0.000129
H64	H	1.168119	0.014178	0.744183
N65	N	0.951346	0.264705	0.757338
H66	H	0.916059	0.305472	0.710649
H67	H	0.908914	0.228348	0.798709
N68	N	0.512227	0.309469	0.000040
H69	H	0.466061	0.363297	0.000033
H70	H	0.550840	0.314008	0.058725
H71	H	0.966023	0.247683	0.563362
N72	N	0.951295	0.264680	0.449959
H73	H	0.988830	0.306717	0.491289
H74	H	0.916020	0.305380	0.403209
H75	H	0.965994	0.247669	0.255990
H76	H	0.331335	0.283015	0.000080
N77	N	0.527915	-0.049489	0.000126
H78	H	0.486529	-0.105065	0.000135
H79	H	0.566848	-0.052471	-0.058568
H80	H	0.633242	-0.024537	0.000122
