data_functionalizedCrystal
_audit_creation_method	'MofGen! by Chris Wilmer'
_symmetry_space_group_name_H-M	'P1'
_symmetry_Int_Tables_number	1
_symmetry_cell_setting	triclinic
loop_
_symmetry_equiv_pos_as_xyz
  x,y,z
_cell_length_a	6.817900
_cell_length_b	11.168136
_cell_length_c	11.168121
_cell_angle_alpha	92.020174
_cell_angle_beta	108.508496
_cell_angle_gamma	108.508683
loop_
_atom_site_label
_atom_site_type_symbol
_atom_site_fract_x
_atom_site_fract_y
_atom_site_fract_z
V1	V	-4.109882	-0.393710	-0.174724
O2	O	-4.069466	-0.386204	0.008377
O3	O	-4.086169	-0.391027	-0.346429
O4	O	-4.086172	-0.565415	-0.172045
O5	O	-4.069463	-0.210609	-0.167215
V6	V	-4.587111	-0.371808	-0.152822
O7	O	-4.384945	-0.441753	-0.222767
O8	O	-4.762245	-0.323765	-0.104778
O9	O	-4.387617	-0.374490	0.018883
O10	O	-4.744924	-0.379314	-0.335922
O11	O	-4.744927	-0.554909	-0.160331
O12	O	-4.387614	-0.200102	-0.155501
C13	C	-3.936377	-0.384819	-0.388286
C14	C	-3.998441	-0.383771	-0.528658
C15	C	-4.200950	-0.389292	-0.597350
C16	C	-4.265100	-0.388208	-0.742432
C17	C	-3.936379	-0.607267	-0.165840
C18	C	-3.998441	-0.747637	-0.164786
C19	C	-4.200949	-0.816329	-0.170305
C20	C	-4.265097	-0.961409	-0.169216
C21	C	-4.200752	-0.380695	0.060735
C22	C	-4.117928	-0.381752	0.201105
C23	C	-4.200749	-0.158244	-0.161709
C24	C	-4.117925	-0.017873	-0.162757
H25	H	-3.872561	-0.378248	-0.577256
H26	H	-3.944443	-0.958832	-0.158040
C27	C	-4.496324	-0.394247	-0.821049
C28	C	-4.536791	-0.289134	-0.775928
C29	C	-4.749766	-0.294644	-0.848331
H30	H	-4.600900	-0.470897	-0.813727
H31	H	-4.508755	-0.392614	-0.908101
H32	H	-4.524380	-0.290778	-0.688898
H33	H	-4.432269	-0.212468	-0.783253
H34	H	-4.762197	-0.293011	-0.935382
H35	H	-4.854324	-0.371298	-0.841003
H36	H	-4.777243	-0.223321	-0.817733
H37	H	-4.326829	-0.767731	-0.175828
H38	H	-4.326837	-0.394828	-0.548754
H39	H	-3.872553	-0.796233	-0.159246
C40	C	-4.496594	-1.040117	-0.175787
C41	C	-4.649925	-1.029055	-0.288989
C42	C	-4.863206	-1.101561	-0.295098
H43	H	-4.524781	-1.009747	-0.104660
H44	H	-4.509085	-1.127188	-0.174293
H45	H	-4.637442	-0.942002	-0.290472
H46	H	-4.621810	-1.059434	-0.360136
H47	H	-4.875697	-1.188632	-0.293604
H48	H	-4.891370	-1.071184	-0.223966
H49	H	-4.967265	-1.094075	-0.371910
H50	H	-3.944439	-0.377021	-0.739852
