data_functionalizedCrystal
_audit_creation_method	'MofGen! by Chris Wilmer'
_symmetry_space_group_name_H-M	'P1'
_symmetry_Int_Tables_number	1
_symmetry_cell_setting	triclinic
loop_
_symmetry_equiv_pos_as_xyz
  x,y,z
_cell_length_a	10.654554
_cell_length_b	10.654551
_cell_length_c	9.730223
_cell_angle_alpha	90.001469
_cell_angle_beta	89.999614
_cell_angle_gamma	84.486102
loop_
_atom_site_label
_atom_site_type_symbol
_atom_site_fract_x
_atom_site_fract_y
_atom_site_fract_z
O1	O	1.667831	0.176421	-0.114286
O2	O	1.302354	0.193221	-0.114287
O3	O	1.493495	0.002082	-0.114287
O4	O	1.476690	0.367560	-0.114286
O5	O	1.493492	0.002087	0.114293
O6	O	1.302351	0.193226	0.114293
O7	O	1.667829	0.176426	0.114294
Zn8	Zn	1.485090	0.184827	0.150585
Zn9	Zn	1.485093	0.184821	-0.150579
O10	O	1.476688	0.367565	0.114294
C11	C	1.255555	0.191989	0.000003
C12	C	1.116112	0.188295	0.000002
C13	C	0.933549	0.068808	-0.000010
C14	C	1.064571	0.072279	0.000000
C15	C	1.036623	0.300848	0.000008
C16	C	0.905604	0.297376	0.000008
C17	C	0.882016	-0.047215	-0.000026
C18	C	0.961496	-0.159769	-0.000030
C19	C	1.092517	-0.156299	-0.000020
C20	C	1.144059	-0.040274	-0.000006
C21	C	1.492259	-0.044713	-0.000001
C22	C	1.488567	-0.184156	-0.000010
C23	C	1.486836	-0.249671	-0.124606
C24	C	1.483356	-0.380691	-0.124600
C25	C	1.483343	-0.380672	0.124610
C26	C	1.486814	-0.249653	0.124603
C27	C	1.488589	-0.184175	-0.249219
C28	C	1.486859	-0.249690	-0.373825
C29	C	1.483379	-0.380710	-0.373819
C30	C	1.481628	-0.446216	-0.249206
C31	C	1.714628	0.177659	0.000001
C32	C	1.854071	0.181353	-0.000008
C33	C	1.477923	0.414361	0.000004
C34	C	1.481616	0.553804	0.000004
N35	N	1.485097	0.184831	0.356122
N36	N	1.485095	0.184807	-0.356115
C37	C	1.569756	0.100223	0.428047
C38	C	1.569753	0.100208	0.571930
C39	C	1.400427	0.269419	0.571949
C40	C	1.400425	0.269427	0.428069
C41	C	1.654428	0.015627	0.356100
C42	C	1.739095	-0.068986	0.428026
C43	C	1.739092	-0.069002	0.571909
C44	C	1.654421	0.015597	0.643866
H45	H	1.250747	-0.037458	0.000015
H46	H	1.808024	-0.137870	0.369432
O47	O	1.481751	-0.444165	-0.494977
C48	C	1.484007	-0.358251	-0.604956
H49	H	1.526176	-0.269710	-0.568428
H50	H	1.543873	-0.403557	-0.692098
H51	H	1.383801	-0.332016	-0.643274
H52	H	1.478776	-0.552899	-0.249211
O53	O	1.318364	0.351668	0.358037
C54	C	1.386289	0.429801	0.274839
H55	H	1.484131	0.380700	0.253288
H56	H	1.334046	0.449175	0.173661
H57	H	1.395617	0.522706	0.330291
H58	H	1.481918	-0.434017	0.226064
O59	O	1.654413	0.015346	0.783635
C60	C	1.627821	-0.104105	0.831681
H61	H	1.652925	-0.177853	0.748757
H62	H	1.685848	-0.129281	0.927941
H63	H	1.523191	-0.101773	0.857198
H64	H	1.331493	0.338296	0.630546
H65	H	0.775334	-0.050054	-0.000038
O66	O	0.828341	0.406667	0.000248
C67	C	0.751697	0.411482	0.118616
H68	H	0.799112	0.347678	0.201357
H69	H	0.737848	0.512519	0.158355
H70	H	0.656155	0.378144	0.091851
H71	H	0.919521	-0.254231	-0.000052
H72	H	1.157227	-0.247945	-0.000010
O73	O	1.488665	-0.185897	0.245553
C74	C	1.599261	-0.123404	0.253042
H75	H	1.635992	-0.108200	0.144863
H76	H	1.577270	-0.028286	0.305778
H77	H	1.673950	-0.183190	0.314539
O78	O	1.086896	0.413438	-0.000055
C79	C	1.219580	0.392368	-0.000026
H80	H	1.249479	0.294621	-0.043295
H81	H	1.260450	0.466667	-0.066396
H82	H	1.256101	0.398777	0.109633
H83	H	1.491426	-0.077492	-0.249238
O84	O	1.488592	-0.185873	-0.494745
C85	C	1.491991	-0.056179	-0.468038
H86	H	1.532176	-0.043128	-0.360963
H87	H	1.554157	-0.013825	-0.547633
H88	H	1.392393	-0.006708	-0.473921
O89	O	1.821448	-0.151240	0.641567
C90	C	1.896152	-0.225922	0.547206
H91	H	1.898013	-0.174405	0.444651
H92	H	1.996280	-0.244146	0.588775
H93	H	1.854573	-0.319603	0.531889
O94	O	1.654561	0.015435	0.216334
C95	C	1.747467	-0.077348	0.168251
H96	H	1.768731	-0.151970	0.251154
H97	H	1.711700	-0.123429	0.071985
H98	H	1.837096	-0.031675	0.142733
