data_functionalizedCrystal
_audit_creation_method	'MofGen! by Chris Wilmer'
_symmetry_space_group_name_H-M	'P1'
_symmetry_Int_Tables_number	1
_symmetry_cell_setting	triclinic
loop_
_symmetry_equiv_pos_as_xyz
  x,y,z
_cell_length_a	23.096457
_cell_length_b	12.477989
_cell_length_c	12.477989
_cell_angle_alpha	90.488530
_cell_angle_beta	64.370861
_cell_angle_gamma	55.726098
loop_
_atom_site_label
_atom_site_type_symbol
_atom_site_fract_x
_atom_site_fract_y
_atom_site_fract_z
Zr1	Zr	0.550619	1.114123	-0.063948
O2	O	0.671405	0.942273	-0.235794
O3	O	0.429833	1.166801	-0.011274
O4	O	0.534779	1.181529	-0.221081
O5	O	0.578955	0.915931	0.139519
O6	O	0.522283	1.370263	-0.209467
O7	O	0.566460	0.927545	-0.025988
O8	O	0.334555	1.343916	0.165839
O9	O	0.766684	0.942278	-0.235787
O10	O	0.470189	1.330121	0.019866
O11	O	0.488839	1.180604	0.134714
O12	O	0.612399	1.197945	-0.112306
O13	O	0.631049	1.048428	0.002542
Zr14	Zr	0.550619	1.396608	0.218538
Zr15	Zr	0.530691	1.415132	-0.045425
Zr16	Zr	0.570548	1.095600	0.200016
Zr17	Zr	0.702577	1.114130	-0.063936
Zr18	Zr	0.398662	1.396602	0.218527
O19	O	0.671405	1.343931	0.165865
O20	O	0.643069	1.370268	-0.209458
O21	O	0.699741	0.915936	0.139528
O22	O	0.429833	1.568458	0.390385
O23	O	0.401497	1.594796	0.015063
O24	O	0.458169	1.140463	0.364048
O25	O	0.522283	1.594801	0.015072
O26	O	0.566460	1.329202	0.375671
O27	O	0.578955	1.140469	0.364058
O28	O	0.534779	1.583187	0.180578
O29	O	0.750843	1.181539	-0.221064
O30	O	0.350396	1.329192	0.375655
O31	O	0.334555	1.568454	0.390378
O32	O	0.318714	1.583177	0.180562
O33	O	0.782524	0.927554	-0.025971
O34	O	0.766684	1.166816	-0.011248
O35	O	0.488839	1.312786	0.266897
O36	O	0.470189	1.462304	0.152048
O37	O	0.612399	1.330128	0.019876
O38	O	0.631050	1.180610	0.134725
C39	C	0.360543	1.255357	0.077281
C40	C	0.296033	1.255354	0.077276
C41	C	0.575547	1.232196	0.407474
C42	C	0.584007	1.224333	0.519533
C43	C	0.525692	1.631881	0.100464
C44	C	0.517231	1.759667	0.108327
C45	C	0.255997	1.333392	0.017321
C46	C	0.195375	1.333405	0.017332
C47	C	0.174803	1.255354	0.077279
C48	C	0.214844	1.177313	0.137248
C49	C	0.275459	1.177313	0.137246
N50	N	0.119654	1.136331	0.060976
N51	N	0.062073	1.136334	0.060972
C52	C	-0.007828	1.255352	0.077291
N53	N	-0.017966	1.374366	0.093591
N54	N	0.039623	1.374361	0.093589
C55	C	0.109077	1.255346	0.077289
C56	C	-0.113599	1.333410	0.017345
C57	C	-0.174226	1.333427	0.017365
C58	C	-0.154750	1.177322	0.137272
C59	C	-0.094130	1.177318	0.137261
C60	C	-0.073556	1.255360	0.077291
C61	C	0.740695	1.255374	0.077310
C62	C	0.805205	1.255377	0.077315
C63	C	0.575547	0.878850	0.054127
C64	C	0.584007	0.751064	0.046263
C65	C	0.525692	1.278535	-0.252883
C66	C	0.517231	1.286399	-0.364943
C67	C	0.335616	1.631873	0.100450
C68	C	0.262645	1.759656	0.108308
C69	C	0.385471	1.232188	0.407459
C70	C	0.329421	1.224321	0.519514
C71	C	0.360544	1.608703	0.430628
C72	C	0.296034	1.728623	0.550546
C73	C	0.740695	0.902029	-0.276037
C74	C	0.805205	0.782109	-0.395955
C75	C	0.765623	0.878859	0.054141
C76	C	0.838593	0.751076	0.046283
C77	C	0.715767	1.278544	-0.252869
C78	C	0.771817	1.286410	-0.364923
C79	C	0.228377	1.750667	0.042989
C80	C	0.159821	1.870723	0.050348
C81	C	0.125531	1.999766	0.123033
C82	C	0.159806	2.008752	0.188353
C83	C	0.228364	1.888698	0.180987
C84	C	0.303101	1.289624	0.641145
C85	C	0.250446	1.282227	0.746442
C86	C	0.224108	1.209534	0.730105
C87	C	0.250434	1.144223	0.608461
C88	C	0.303093	1.151613	0.503167
C89	C	0.256003	1.862997	0.546912
C90	C	0.195396	1.975686	0.659578
C91	C	0.174816	1.953998	0.775877
C92	C	0.214854	1.819610	0.779508
C93	C	0.275464	1.706923	0.666843
C94	C	0.845243	0.647735	-0.392321
C95	C	0.905869	0.535045	-0.504987
C96	C	0.926452	0.556733	-0.621286
C97	C	0.886410	0.691122	-0.624917
C98	C	0.825790	0.803808	-0.512252
C99	C	0.872867	0.760065	0.111590
C100	C	0.941438	0.640012	0.104203
C101	C	0.975729	0.510969	0.031514
C102	C	0.941452	0.501983	-0.033801
C103	C	0.872886	0.622036	-0.026420
C104	C	0.798138	1.359115	-0.348546
C105	C	0.850794	1.366533	-0.453822
C106	C	0.877132	1.301238	-0.575473
C107	C	0.850806	1.228531	-0.591848
C108	C	0.798146	1.221122	-0.486573
H109	H	0.272744	1.396941	-0.031507
Br110	Br	0.214681	1.045574	0.586312
Br111	Br	0.411151	1.385005	0.657028
H112	H	0.969383	0.396900	-0.092984
Br113	Br	0.886515	1.465205	-0.431570
Br114	Br	0.186915	1.790199	0.937354
Br115	Br	1.008725	0.403785	-0.774179
Br116	Br	0.274859	1.900921	0.269652
H117	H	0.844953	0.865127	0.170789
Br118	Br	0.329782	1.524561	0.671798
H119	H	0.324540	1.348818	0.654470
Br120	Br	0.762439	1.122430	-0.508823
H121	H	0.828490	0.630049	-0.297636
H122	H	0.162772	1.396954	-0.031492
Br123	Br	0.283921	1.892469	0.389093
Br124	Br	0.141069	2.158054	0.654620
Br125	Br	0.186918	1.071403	0.218623
H126	H	0.872258	1.175370	-0.690911
Br127	Br	0.329796	1.071400	0.218624
Br128	Br	0.338804	1.062983	0.338099
Br129	Br	0.914352	0.720533	-0.782763
H130	H	0.793190	0.913220	-0.515226
Br131	Br	0.092557	2.106947	0.928770
H132	H	0.844983	0.614697	-0.079599
Br133	Br	-0.228562	1.439341	-0.064013
Br134	Br	0.152641	1.199518	0.873021
Br135	Br	0.113258	2.183893	0.286996
Br136	Br	-0.182663	1.071397	0.218634
Br137	Br	0.690091	1.125750	0.497564
H138	H	0.647650	1.645939	-0.012883
H139	H	-0.096850	1.396961	-0.031482
H140	H	0.920011	1.307281	-0.661184
H141	H	0.453585	1.864802	0.167485
Br142	Br	0.274900	1.575553	-0.055668
Br143	Br	0.960197	0.352678	-0.500029
Br144	Br	0.113318	1.858495	-0.038307
H145	H	0.069706	2.097511	0.129021
H146	H	-0.061529	1.113767	0.186078
H147	H	0.229017	1.335417	0.845480
H148	H	1.031560	0.413225	0.025515
Br149	Br	0.987940	0.652240	0.192857
Br150	Br	0.762405	1.447742	-0.183460
