data_functionalizedCrystal
_audit_creation_method	'MofGen! by Chris Wilmer'
_symmetry_space_group_name_H-M	'P1'
_symmetry_Int_Tables_number	1
_symmetry_cell_setting	triclinic
loop_
_symmetry_equiv_pos_as_xyz
  x,y,z
_cell_length_a	12.837943
_cell_length_b	15.995350
_cell_length_c	11.892095
_cell_angle_alpha	93.891441
_cell_angle_beta	85.689438
_cell_angle_gamma	89.160657
loop_
_atom_site_label
_atom_site_type_symbol
_atom_site_fract_x
_atom_site_fract_y
_atom_site_fract_z
O1	O	1.382080	0.212847	-0.093972
O2	O	1.080275	0.202094	-0.093979
O3	O	1.239427	0.086241	-0.093975
O4	O	1.222927	0.328700	-0.093977
O5	O	1.226157	0.095884	0.094032
O6	O	1.067005	0.211737	0.094028
O7	O	1.368810	0.222490	0.094035
Zn8	Zn	1.215800	0.218644	0.123881
Zn9	Zn	1.233284	0.205939	-0.123826
O10	O	1.209657	0.338343	0.094030
C11	C	1.035019	0.203283	0.000023
C12	C	0.919942	0.192449	0.000020
C13	C	0.678983	0.322688	0.000035
C14	C	0.570857	0.312513	0.000033
C15	C	0.595563	0.161925	0.000023
C16	C	0.703688	0.172100	0.000025
C17	C	0.745394	0.252484	0.000029
C18	C	0.853523	0.262658	0.000023
C19	C	0.878225	0.112072	0.000020
C20	C	0.770100	0.101896	0.000018
C21	C	1.232110	0.059813	0.000027
C22	C	1.230066	-0.033301	0.000020
C23	C	1.222721	-0.371634	0.000024
C24	C	1.109405	-0.333265	-0.000400
C25	C	1.111421	-0.236390	0.000023
C26	C	1.226364	-0.203783	0.000021
C27	C	1.274693	-0.234893	0.107382
C28	C	1.271839	-0.331752	0.107472
C29	C	1.289271	-0.342889	-0.106327
C30	C	1.289344	-0.246018	-0.107746
C31	C	1.228429	-0.108921	0.000024
C32	C	1.220659	-0.466496	0.000029
C33	C	1.414066	0.221301	0.000030
C34	C	1.529143	0.232134	0.000025
C35	C	1.216974	0.364770	0.000026
C36	C	1.219020	0.457884	0.000025
N37	N	1.203876	0.227315	0.292935
N38	N	1.245217	0.197262	-0.292880
C39	C	1.328193	0.136877	0.529587
C40	C	1.319865	0.142945	0.647928
C41	C	1.178889	0.245514	0.647962
C42	C	1.187216	0.239446	0.529621
C43	C	1.261872	0.185127	0.470437
C44	C	1.270204	0.179064	0.352093
C45	C	1.129223	0.281628	0.352129
C46	C	1.120896	0.287696	0.470471
H47	H	0.736126	0.036451	0.000028
H48	H	1.373869	0.103654	0.696085
C49	C	1.409279	0.077830	0.465527
C50	C	1.465568	0.036861	0.542659
C51	C	1.540265	-0.017548	0.483690
H52	H	1.455773	0.108957	0.419348
H53	H	1.375266	0.037572	0.419394
H54	H	1.499580	0.077113	0.588772
H55	H	1.419103	0.005717	0.588840
H56	H	1.506252	-0.057806	0.437557
H57	H	1.586751	0.013586	0.437513
H58	H	1.578459	-0.045358	0.536015
C59	C	1.400699	-0.376565	-0.107370
C60	C	1.400108	-0.464242	-0.111465
C61	C	1.502731	-0.495298	-0.112434
H62	H	1.430860	-0.355687	-0.040792
H63	H	1.440552	-0.359043	-0.171845
H64	H	1.360271	-0.481756	-0.046996
H65	H	1.369967	-0.485142	-0.178039
H66	H	1.542583	-0.477776	-0.176909
H67	H	1.532884	-0.474415	-0.045855
H68	H	1.502344	-0.554790	-0.115223
C69	C	1.351071	0.119988	0.287719
C70	C	1.300592	0.060837	0.219804
C71	C	1.375040	0.006388	0.160492
H72	H	1.389384	0.092035	0.339794
H73	H	1.397493	0.151133	0.241458
H74	H	1.254188	0.029696	0.266060
H75	H	1.262284	0.088765	0.167707
H76	H	1.421462	0.037533	0.114232
H77	H	1.413350	-0.021558	0.212576
H78	H	1.340802	-0.033747	0.114398
H79	H	0.712940	0.388139	0.000037
H80	H	1.072907	-0.215422	-0.076937
C81	C	1.056044	-0.368084	-0.102911
C82	C	0.965235	-0.409240	-0.067029
C83	C	0.916042	-0.441319	-0.161433
H84	H	1.102041	-0.406564	-0.147081
H85	H	1.038258	-0.323440	-0.147113
H86	H	0.983024	-0.453879	-0.022845
H87	H	0.919214	-0.370777	-0.022871
H88	H	0.898256	-0.396675	-0.205635
H89	H	0.962047	-0.479796	-0.205596
H90	H	0.854419	-0.469240	-0.137100
H91	H	1.118099	0.289733	0.696165
C92	C	1.247706	-0.379732	-0.214959
C93	C	1.308672	-0.352921	-0.307827
C94	C	1.270411	-0.386853	-0.407908
H95	H	1.177342	-0.361495	-0.218416
H96	H	1.250780	-0.439179	-0.216403
H97	H	1.305587	-0.293487	-0.306383
H98	H	1.379038	-0.371157	-0.304408
H99	H	1.273485	-0.446300	-0.409353
H100	H	1.200046	-0.368614	-0.411354
H101	H	1.311775	-0.368673	-0.470931
H102	H	1.373623	-0.224301	-0.114230
H103	H	1.254075	-0.226105	-0.187169
C104	C	1.215390	-0.195888	0.214013
C105	C	1.172814	-0.259382	0.277597
C106	C	1.118183	-0.223486	0.375836
H107	H	1.160788	-0.160368	0.194037
H108	H	1.261826	-0.163997	0.257510
H109	H	1.126381	-0.291259	0.234109
H110	H	1.227393	-0.294907	0.297602
H111	H	1.164619	-0.191595	0.419333
H112	H	1.063586	-0.187966	0.355850
H113	H	1.089297	-0.266561	0.418995
C114	C	1.382402	-0.365405	0.114043
C115	C	1.451475	-0.298518	0.117912
C116	C	1.553328	-0.329482	0.123988
H117	H	1.401412	-0.402084	0.049331
H118	H	1.385631	-0.395092	0.180272
H119	H	1.448250	-0.268844	0.051691
H120	H	1.432499	-0.261833	0.182621
H121	H	1.556558	-0.359169	0.190216
H122	H	1.572327	-0.366161	0.059274
H123	H	1.600205	-0.284104	0.126624
H124	H	0.887477	0.328111	0.000028
H125	H	1.060110	0.331919	0.518672
H126	H	1.225408	-0.349189	0.187727
C127	C	1.057325	0.334168	0.287972
C128	C	1.072135	0.419270	0.316746
C129	C	1.005937	0.467697	0.257658
H130	H	0.986736	0.320629	0.307331
H131	H	1.072979	0.322837	0.209003
H132	H	1.056474	0.430596	0.395697
H133	H	1.142711	0.432834	0.297384
H134	H	1.021591	0.456366	0.178689
H135	H	0.935351	0.454152	0.277021
H136	H	1.015983	0.525444	0.277164
C137	C	0.498686	0.388716	0.000265
C138	C	0.429078	0.392244	0.097003
C139	C	0.362587	0.462440	0.097263
H140	H	0.460517	0.384592	-0.065222
H141	H	0.538973	0.438068	0.000329
H142	H	0.388795	0.342905	0.096929
H143	H	0.467218	0.396381	0.162505
H144	H	0.402875	0.511792	0.097327
H145	H	0.324426	0.458310	0.031772
H146	H	0.315358	0.464848	0.162903
H147	H	0.561579	0.096485	0.000112
H148	H	1.358857	-0.213825	0.111373
C149	C	0.950199	0.035780	0.000190
C150	C	0.924513	-0.007177	0.096897
C151	C	0.990785	-0.077464	0.097079
H152	H	1.020599	0.053238	0.000247
H153	H	0.942160	-0.000228	-0.065341
H154	H	0.932561	0.028824	0.162411
H155	H	0.854125	-0.024656	0.096861
H156	H	0.982746	-0.113472	0.031548
H157	H	1.061181	-0.059998	0.097133
H158	H	0.973360	-0.106623	0.162687
C159	C	1.041976	-0.358775	0.101726
C160	C	1.006092	-0.286912	0.167922
C161	C	0.943964	-0.310379	0.262001
H162	H	1.082133	-0.392891	0.145293
H163	H	0.984000	-0.389315	0.077067
H164	H	1.064059	-0.256386	0.192582
H165	H	0.965920	-0.252787	0.124388
H166	H	0.885988	-0.340919	0.237342
H167	H	0.984128	-0.344497	0.305559
H168	H	0.919601	-0.261625	0.306921
H169	H	1.061738	-0.208101	0.077113
