data_functionalizedCrystal
_audit_creation_method	'MofGen! by Chris Wilmer'
_symmetry_space_group_name_H-M	'P1'
_symmetry_Int_Tables_number	1
_symmetry_cell_setting	triclinic
loop_
_symmetry_equiv_pos_as_xyz
  x,y,z
_cell_length_a	31.640172
_cell_length_b	31.640172
_cell_length_c	31.640172
_cell_angle_alpha	120.000894
_cell_angle_beta	89.990791
_cell_angle_gamma	59.998920
loop_
_atom_site_label
_atom_site_type_symbol
_atom_site_fract_x
_atom_site_fract_y
_atom_site_fract_z
Zr1	Zr	0.407161	0.462612	0.055486
O2	O	0.339665	0.550795	0.122991
O3	O	0.427854	0.374429	0.034781
O4	O	0.427848	0.462601	0.122965
O5	O	0.339674	0.462631	-0.034740
O6	O	0.497405	0.462593	0.122955
O7	O	0.339672	0.462623	0.034808
O8	O	0.497417	0.304868	-0.034788
O9	O	0.339663	0.620355	0.123003
O10	O	0.488587	0.410693	0.025957
O11	O	0.436679	0.410706	-0.025939
O12	O	0.436671	0.514517	0.077885
O13	O	0.384763	0.514530	0.025989
Zr14	Zr	0.518100	0.462611	-0.055451
Zr15	Zr	0.518096	0.462598	0.055471
Zr16	Zr	0.407164	0.462625	-0.055436
Zr17	Zr	0.407156	0.573552	0.055505
Zr18	Zr	0.518104	0.351671	-0.055470
O19	O	0.497406	0.550794	-0.034746
O20	O	0.497401	0.550775	0.122970
O21	O	0.339670	0.550814	-0.034725
O22	O	0.585595	0.374428	-0.122956
O23	O	0.585590	0.374409	0.034760
O24	O	0.427859	0.374448	-0.122935
O25	O	0.585587	0.462592	0.034776
O26	O	0.497413	0.462622	-0.122929
O27	O	0.427856	0.462630	-0.122920
O28	O	0.585589	0.462600	-0.034773
O29	O	0.427841	0.620344	0.122992
O30	O	0.497419	0.304879	-0.122956
O31	O	0.585598	0.304868	-0.122968
O32	O	0.585595	0.304857	-0.034800
O33	O	0.339665	0.620366	0.034835
O34	O	0.427844	0.620355	0.034824
O35	O	0.488590	0.410706	-0.077850
O36	O	0.540498	0.410693	-0.025953
O37	O	0.488582	0.514517	0.025975
O38	O	0.436674	0.514530	-0.025922
C39	C	0.462636	0.323842	-0.000006
C40	C	0.462638	0.276745	-0.000014
C41	C	0.424309	0.023071	0.038354
C42	C	0.424305	-0.153910	0.038368
O43	O	0.391726	-0.144203	0.070977
N44	N	0.462627	-0.214362	0.000041
C45	C	0.500954	-0.230570	-0.038290
O46	O	0.533552	-0.286049	-0.070886
C47	C	0.500960	-0.053589	-0.038302
C48	C	0.462633	0.006864	0.000024
C49	C	0.385985	0.083521	0.076677
C50	C	0.385985	0.127763	0.076671
C51	C	0.424309	0.111556	0.038342
C52	C	0.462633	0.051106	0.000019
C53	C	0.539289	-0.069796	-0.076631
C54	C	0.539288	-0.025545	-0.076629
C55	C	0.500961	0.034908	-0.038303
C56	C	0.500956	0.079141	-0.038316
N57	N	0.462634	0.139593	0.000011
C58	C	0.424310	0.155801	0.038340
C59	C	0.500948	-0.323484	-0.038282
C60	C	0.500946	-0.367729	-0.038280
C61	C	0.424297	-0.291067	0.038379
C62	C	0.424298	-0.246821	0.038374
C63	C	0.462626	-0.263032	0.000045
C64	C	0.424313	0.248710	0.038325
C65	C	0.424315	0.292952	0.038315
C66	C	0.500965	0.216286	-0.038342
C67	C	0.500961	0.172047	-0.038334
C68	C	0.462633	0.188263	0.000004
O69	O	0.533521	0.069479	-0.070905
O70	O	0.391724	0.211283	0.070938
C71	C	0.424309	-0.021171	0.038359
C72	C	0.462633	-0.081621	0.000036
C73	C	0.500957	-0.097828	-0.038294
C74	C	0.462631	-0.125866	0.000038
C75	C	0.424308	-0.109659	0.038367
C76	C	0.385986	-0.049206	0.076694
C77	C	0.385986	-0.004964	0.076688
C78	C	0.539279	-0.158280	-0.076620
C79	C	0.539275	-0.202519	-0.076612
C80	C	0.500952	-0.186312	-0.038283
C81	C	0.323867	0.462629	0.000036
C82	C	0.276772	0.462635	0.000042
C83	C	0.011865	0.408411	-0.027099
C84	C	-0.165120	0.408400	-0.027109
O85	O	-0.164958	0.362309	-0.050180
N86	N	-0.214349	0.462595	-0.000002
C87	C	-0.219331	0.516796	0.027106
O88	O	-0.265264	0.562892	0.050157
C89	C	-0.042346	0.516806	0.027113
C90	C	0.006882	0.462608	0.000009
C91	C	0.061092	0.354217	-0.054201
C92	C	0.105335	0.354220	-0.054196
C93	C	0.100352	0.408417	-0.027088
C94	C	0.051126	0.462611	0.000014
C95	C	-0.047329	0.571007	0.054218
C96	C	-0.003077	0.571004	0.054216
C97	C	0.046151	0.516806	0.027112
C98	C	0.090386	0.516811	0.027126
N99	N	0.139615	0.462616	0.000020
C100	C	0.144598	0.408419	-0.027088
C101	C	-0.312248	0.516787	0.027101
C102	C	-0.356494	0.516785	0.027100
C103	C	-0.302280	0.408389	-0.027115
C104	C	-0.258033	0.408392	-0.027111
C105	C	-0.263019	0.462593	-0.000005
C106	C	0.237510	0.408430	-0.027074
C107	C	0.281755	0.408438	-0.027065
C108	C	0.227537	0.516834	0.027148
C109	C	0.183296	0.516826	0.027141
C110	C	0.188286	0.462619	0.000026
O111	O	0.090264	0.562878	0.050181
O112	O	0.190536	0.362330	-0.050145
C113	C	-0.032378	0.408408	-0.027104
C114	C	-0.081604	0.462601	-0.000002
C115	C	-0.086587	0.516798	0.027106
C116	C	-0.125850	0.462599	-0.000002
C117	C	-0.120867	0.408402	-0.027110
C118	C	-0.071638	0.354207	-0.054216
C119	C	-0.027395	0.354211	-0.054211
C120	C	-0.135817	0.570993	0.054212
C121	C	-0.180058	0.570986	0.054206
C122	C	-0.175075	0.516789	0.027098
C123	C	0.601394	0.462594	-0.000001
C124	C	0.648489	0.462588	-0.000007
C125	C	0.462626	0.462595	0.138764
C126	C	0.462625	0.462589	0.185853
C127	C	0.462625	0.601381	0.000041
C128	C	0.462623	0.648478	0.000050
C129	C	0.435528	0.516816	0.504995
C130	C	0.435525	0.516827	0.681991
O131	O	0.412496	0.562919	0.727930
N132	N	0.462623	0.462633	0.677016
C133	C	0.489727	0.408432	0.627786
O134	O	0.512779	0.362336	0.627615
C135	C	0.489732	0.408420	0.450791
C136	C	0.462628	0.462619	0.455771
C137	C	0.408426	0.571009	0.509973
C138	C	0.408425	0.571006	0.465726
C139	C	0.435525	0.516809	0.416502
C140	C	0.462626	0.462615	0.411524
C141	C	0.516838	0.354220	0.401563
C142	C	0.516838	0.354222	0.357314
C143	C	0.489734	0.408420	0.362294
C144	C	0.489725	0.408415	0.318054
N145	N	0.462627	0.462609	0.323029
C146	C	0.435527	0.516806	0.372254
C147	C	0.489721	0.408441	0.720713
C148	C	0.489719	0.408444	0.764962
C149	C	0.435518	0.516840	0.819164
C150	C	0.435518	0.516837	0.774914
C151	C	0.462623	0.462636	0.725689
C152	C	0.435525	0.516795	0.279330
C153	C	0.435525	0.516787	0.235077
C154	C	0.489727	0.408391	0.180879
C155	C	0.489726	0.408399	0.225128
C156	C	0.462624	0.462606	0.274355
O157	O	0.512746	0.362347	0.272100
O158	O	0.412487	0.562895	0.372413
C159	C	0.435529	0.516819	0.549242
C160	C	0.462630	0.462626	0.544264
C161	C	0.489730	0.408428	0.495040
C162	C	0.462628	0.462628	0.588513
C163	C	0.435529	0.516825	0.637737
C164	C	0.408430	0.571020	0.642713
C165	C	0.408429	0.571016	0.598466
C166	C	0.516828	0.354234	0.490065
C167	C	0.516827	0.354242	0.534313
C168	C	0.489727	0.408439	0.583538
C169	C	0.462630	0.462630	0.861272
C170	C	0.462619	0.462641	0.814186
C171	C	0.601400	0.323825	-0.000025
C172	C	0.648496	0.276722	-0.000039
C173	C	0.462641	0.323859	-0.138752
C174	C	0.462644	0.276767	-0.185850
C175	C	0.601404	0.323841	-0.138771
C176	C	0.648502	0.276744	-0.185875
C177	C	0.323857	0.601382	0.138806
C178	C	0.276759	0.648479	0.185910
C179	C	0.323861	0.601398	0.000060
C180	C	0.276764	0.648501	0.000074
C181	C	0.462620	0.601364	0.138788
C182	C	0.462617	0.648456	0.185885
C183	C	0.643517	0.254602	0.027056
C184	C	0.687765	0.210350	0.027052
C185	C	0.736993	0.188215	-0.000049
C186	C	0.741972	0.210339	-0.027144
C187	C	0.697724	0.254594	-0.027137
C188	C	0.489743	0.254652	-0.235068
C189	C	0.489744	0.210411	-0.279326
C190	C	0.462649	0.188282	-0.274363
C191	C	0.435547	0.210402	-0.225139
C192	C	0.435543	0.254645	-0.180883
C193	C	0.697720	0.254620	-0.180906
C194	C	0.741979	0.210373	-0.225160
C195	C	0.737018	0.188248	-0.274383
C196	C	0.687794	0.210376	-0.279351
C197	C	0.643537	0.254625	-0.235097
C198	C	0.227540	0.670609	0.180941
C199	C	0.183282	0.714869	0.225195
C200	C	0.188243	0.736997	0.274419
C201	C	0.237466	0.714865	0.279387
C202	C	0.281724	0.670609	0.235132
C203	C	0.281744	0.670626	-0.027016
C204	C	0.237496	0.714890	-0.027000
C205	C	0.188268	0.737026	0.000102
C206	C	0.183289	0.714900	0.027195
C207	C	0.227537	0.670639	0.027183
C208	C	0.489717	0.670570	0.180906
C209	C	0.489724	0.714812	0.225155
C210	C	0.462627	0.736941	0.274382
C211	C	0.435526	0.714822	0.279360
C212	C	0.435523	0.670578	0.235112
H213	H	0.393085	-0.197600	0.069580
H214	H	0.223489	0.560960	0.049220
O215	O	0.795069	0.186464	-0.056373
H216	H	0.799575	0.166305	-0.098019
O217	O	0.703097	0.278442	-0.056371
H218	H	0.744763	0.255606	-0.075221
H219	H	0.511807	0.272665	-0.239119
O220	O	0.025700	0.295754	-0.083447
H221	H	0.021723	0.258072	-0.102298
H222	H	0.511782	0.652560	0.140826
O223	O	0.406289	0.646729	0.240482
H224	H	0.364642	0.683886	0.261978
H225	H	0.152202	0.773033	0.310449
H226	H	0.413487	0.192378	-0.221106
H227	H	0.321839	0.364301	-0.049138
O228	O	0.518956	0.738662	0.219776
H229	H	0.491602	0.787480	0.238654
H230	H	0.532152	-0.416950	-0.069494
H231	H	0.570500	-0.119013	-0.107840
H232	H	0.683763	0.192356	-0.319435
O233	O	0.518986	0.186549	-0.332413
H234	H	0.537834	0.209362	-0.328424
H235	H	0.773059	0.152217	-0.310414
O236	O	0.542296	0.106843	-0.079674
H237	H	0.564388	0.084853	-0.061248
H238	H	0.570501	-0.038751	-0.107842
H239	H	0.532162	-0.336693	-0.069496
H240	H	0.773018	0.152180	-0.000050
O241	O	0.334803	0.646758	0.240509
H242	H	0.356259	0.655258	0.221656
O243	O	0.590452	0.278474	-0.240459
H244	H	0.594443	0.255645	-0.282123
O245	O	0.379197	0.629470	0.563063
H246	H	0.349247	0.632070	0.584529
O247	O	0.546096	0.295750	0.304228
H248	H	0.576050	0.293160	0.282780
O249	O	0.222177	0.646753	0.127855
H250	H	0.241034	0.597941	0.106392
O251	O	0.406397	0.278413	-0.127797
H252	H	0.387592	0.255556	-0.131787
H253	H	0.532166	0.203099	-0.069550
H254	H	0.354775	0.044257	0.107897
O255	O	0.130197	0.738721	0.219827
H256	H	0.125702	0.758867	0.198332
O257	O	0.382979	0.358157	0.079659
H258	H	0.356336	0.361990	0.106315
H259	H	0.143202	0.732930	0.049262
H260	H	0.223475	0.652627	0.049241
O261	O	0.462625	0.784669	0.322106
H262	H	0.486018	0.796331	0.310368
O263	O	0.242815	0.738729	0.332478
H264	H	0.203768	0.773215	0.362411
O265	O	0.406296	0.738698	0.332457
H266	H	0.410848	0.773184	0.362384
O267	O	0.462665	0.140552	-0.322098
H268	H	0.486069	0.128889	-0.357155
H269	H	0.354780	-0.036017	0.107902
H270	H	0.701769	0.272627	-0.140830
H271	H	0.321824	0.652606	-0.049089
O272	O	0.242873	0.738740	-0.056233
H273	H	0.264370	0.758882	-0.040586
O274	O	0.580621	-0.267723	-0.117948
H275	H	0.607272	-0.271553	-0.144594
H276	H	0.511783	0.364310	0.760901
O277	O	0.382971	0.266201	0.079671
H278	H	0.356322	0.315671	0.106312
O279	O	0.406288	0.575292	0.780285
H280	H	0.387447	0.612976	0.821950
H281	H	0.782054	0.192360	-0.221106
O282	O	0.140544	0.784748	0.000097
H283	H	0.152283	0.796401	-0.023304
H284	H	0.354777	0.096728	0.107892
O285	O	0.344655	0.192963	0.118018
H286	H	0.318015	0.196790	0.144673
H287	H	0.393093	-0.277877	0.069589
H288	H	0.241581	0.364290	-0.049155
O289	O	0.580613	-0.175765	-0.117966
H290	H	0.607254	-0.225235	-0.144615
H291	H	0.145416	0.310086	-0.076265
H292	H	0.065158	0.310081	-0.076278
H293	H	-0.217952	0.364259	-0.049186
H294	H	-0.298229	0.364260	-0.049184
H295	H	-0.396575	0.560919	0.049178
H296	H	-0.087406	0.615141	0.076288
O297	O	-0.317629	0.575250	0.056345
H298	H	-0.359296	0.612929	0.075196
H299	H	-0.007143	0.615142	0.076283
O300	O	0.682390	0.186489	0.056275
H301	H	0.660911	0.166327	0.040608
H302	H	-0.067588	0.310078	-0.076285
O303	O	0.130195	0.575278	0.056378
H304	H	0.125694	0.601269	0.040726
O305	O	-0.233155	0.629446	0.083441
H306	H	-0.229180	0.667130	0.102285
H307	H	-0.139882	0.615128	0.076288
H308	H	0.413457	0.560935	0.319408
O309	O	0.406290	0.575245	0.240448
H310	H	0.387451	0.612931	0.282113
H311	H	0.386356	0.615140	0.469787
H312	H	0.511795	0.364302	0.680633
O313	O	0.406297	0.575296	0.872262
H314	H	0.376350	0.577896	0.893731
O315	O	0.546099	0.295763	0.396186
H316	H	0.564955	0.258082	0.354520
H317	H	0.511789	0.364266	0.221072
H318	H	0.386358	0.615150	0.602527
O319	O	0.518995	0.349936	0.127785
H320	H	0.514456	0.359044	0.097856
O321	O	0.379206	0.629478	0.695809
H322	H	0.383769	0.620368	0.725737
H323	H	0.538897	0.310104	0.530250
O324	O	0.546054	0.295776	0.436974
H325	H	0.564891	0.258096	0.440954
O326	O	0.590423	0.278477	0.056293
H327	H	0.594403	0.255661	0.075137
