data_functionalizedCrystal
_audit_creation_method	'MofGen! by Chris Wilmer'
_symmetry_space_group_name_H-M	'P1'
_symmetry_Int_Tables_number	1
_symmetry_cell_setting	triclinic
loop_
_symmetry_equiv_pos_as_xyz
  x,y,z
_cell_length_a	18.215407
_cell_length_b	12.759400
_cell_length_c	18.215399
_cell_angle_alpha	90.023861
_cell_angle_beta	90.017368
_cell_angle_gamma	90.012088
loop_
_atom_site_label
_atom_site_type_symbol
_atom_site_fract_x
_atom_site_fract_y
_atom_site_fract_z
Zn1	Zn	1.125124	-0.418349	0.416088
Zn2	Zn	1.125055	-0.594046	0.293031
Zn3	Zn	1.002057	-0.418374	0.293041
Zn4	Zn	1.002045	-0.593978	0.416061
O5	O	1.063570	-0.506187	0.354555
O6	O	1.228099	-0.441673	0.399772
O7	O	1.108715	-0.570782	0.190048
O8	O	1.018416	-0.271350	0.309379
O9	O	1.228048	-0.570757	0.309362
O10	O	1.108833	-0.271331	0.399782
O11	O	1.018349	-0.441716	0.190055
O12	O	0.899071	-0.441650	0.309353
O13	O	1.018396	-0.570642	0.519049
O14	O	0.899062	-0.570666	0.399735
O15	O	1.108822	-0.441608	0.519069
O16	O	1.108703	-0.741058	0.309335
O17	O	1.018328	-0.741008	0.399725
C18	C	0.872364	-0.506155	0.354542
C19	C	0.790565	-0.506166	0.354554
C20	C	0.602397	-0.439090	0.401705
C21	C	0.525538	-0.439099	0.401708
C22	C	0.525496	-0.573313	0.307418
C23	C	0.602353	-0.573298	0.307413
C24	C	0.640802	-0.506188	0.354560
C25	C	0.487085	-0.506212	0.354568
C26	C	0.403752	-0.506222	0.354571
C27	C	0.724140	-0.506176	0.354557
C28	C	1.063527	-0.779154	0.354542
C29	C	1.063575	-0.895931	0.354561
C30	C	1.110635	-0.950693	0.401674
C31	C	1.110676	-1.060417	0.401694
C32	C	1.016596	-1.060607	0.307482
C33	C	1.016552	-0.950885	0.307467
C34	C	1.136983	-1.210261	0.488531
C35	C	1.184054	-1.265027	0.535637
C36	C	1.255841	-1.229325	0.546993
C37	C	1.280573	-1.138859	0.511232
C38	C	1.233505	-1.084098	0.464120
C39	C	1.161707	-1.119799	0.452778
C40	C	0.990253	-0.801039	0.220629
C41	C	0.943189	-0.746277	0.173513
C42	C	0.871400	-0.781976	0.162150
C43	C	0.846672	-0.872446	0.197897
C44	C	0.893736	-0.927209	0.245013
C45	C	0.965524	-0.891501	0.256378
C46	C	1.255523	-0.506220	0.354569
C47	C	1.337322	-0.506234	0.354574
C48	C	1.063615	-0.506114	0.546508
C49	C	1.063634	-0.506084	0.628307
C50	C	1.063634	-0.232154	0.354585
C51	C	1.063661	-0.115377	0.354597
C52	C	1.063568	-0.506183	0.163349
C53	C	1.063691	-0.505918	0.081551
C54	C	1.110736	-0.438832	0.816513
C55	C	1.110745	-0.438802	0.893372
C56	C	1.016584	-0.573172	0.893340
C57	C	1.016572	-0.573197	0.816482
C58	C	1.063652	-0.506028	0.778071
C59	C	1.063673	-0.505973	0.931787
C60	C	1.063682	-0.505941	1.015121
C61	C	1.063642	-0.506059	0.694732
H62	H	0.633623	-0.627938	0.269018
F63	F	0.484570	-0.644734	0.257245
F64	F	1.160840	-0.367344	0.775635
H65	H	0.833082	-0.737379	0.123781
F66	F	1.160680	-0.892211	0.451798
H67	H	1.048706	-0.771953	0.229888
F68	F	1.259822	-0.987825	0.426061
H69	H	1.149084	-0.384083	0.924668
F70	F	1.356984	-1.100877	0.523312
H71	H	0.963331	-0.672615	0.144402
F72	F	0.966484	-0.644657	0.934226
F73	F	0.966454	-0.644715	0.775567
H74	H	1.294167	-1.273924	0.585348
H75	H	0.633699	-0.384442	0.440093
F76	F	1.157731	-1.361307	0.573693
H77	H	0.494272	-0.384460	0.440096
H78	H	1.078525	-1.239331	0.479296
F79	F	0.966552	-1.119102	0.257365
F80	F	0.867414	-1.023493	0.283062
H81	H	0.788216	-0.901516	0.188643
