data_functionalizedCrystal
_audit_creation_method	'MofGen! by Chris Wilmer'
_symmetry_space_group_name_H-M	'P1'
_symmetry_Int_Tables_number	1
_symmetry_cell_setting	triclinic
loop_
_symmetry_equiv_pos_as_xyz
  x,y,z
_cell_length_a	12.827893
_cell_length_b	14.908520
_cell_length_c	12.827893
_cell_angle_alpha	86.715072
_cell_angle_beta	90.003976
_cell_angle_gamma	93.320575
loop_
_atom_site_label
_atom_site_type_symbol
_atom_site_fract_x
_atom_site_fract_y
_atom_site_fract_z
Zn1	Zn	1.573437	-0.359322	0.614830
Zn2	Zn	1.563271	-0.510150	0.450157
Zn3	Zn	1.398726	-0.359307	0.440103
Zn4	Zn	1.388558	-0.510142	0.624856
O5	O	1.480998	-0.434730	0.532486
O6	O	1.718323	-0.379339	0.592997
O7	O	1.541445	-0.490137	0.302587
O8	O	1.430411	-0.233062	0.454877
O9	O	1.710855	-0.490152	0.472013
O10	O	1.558770	-0.233072	0.583248
O11	O	1.420554	-0.379314	0.295200
O12	O	1.251141	-0.379305	0.464599
O13	O	1.413081	-0.490138	0.769762
O14	O	1.243671	-0.490123	0.600336
O15	O	1.548911	-0.379331	0.762396
O16	O	1.531586	-0.636396	0.481735
O17	O	1.403225	-0.636390	0.610086
C18	C	1.209489	-0.434712	0.532465
C19	C	1.093335	-0.434727	0.532482
C20	C	1.465227	-0.669127	0.548112
C21	C	1.458576	-0.769403	0.554832
C22	C	1.037876	-0.489648	0.599558
C23	C	0.917824	-0.489665	0.599577
C24	C	1.579878	-0.957778	0.433915
C25	C	1.573633	-1.051997	0.440225
C26	C	1.439845	-1.052060	0.573767
C27	C	1.446091	-0.957842	0.567457
C28	C	1.516109	-0.910704	0.497527
C29	C	1.522348	-0.816484	0.491212
C30	C	1.388567	-0.816549	0.624759
C31	C	1.382321	-0.910768	0.631069
C32	C	1.753567	-0.434748	0.532508
C33	C	1.869719	-0.434756	0.532517
C34	C	1.480996	-0.434735	0.805057
C35	C	1.480995	-0.434737	0.921210
C36	C	1.496858	-0.199417	0.516823
C37	C	1.503617	-0.099141	0.510148
C38	C	1.548198	-0.379917	1.089395
C39	C	1.548200	-0.379913	0.969344
C40	C	1.480991	-0.434745	1.260977
C41	C	1.480992	-0.434743	1.144824
H42	H	1.079273	-0.536654	0.656972
C43	C	1.403259	-0.498153	1.088870
N44	N	1.344708	-0.545914	1.046727
H45	H	0.870145	-0.536688	0.656999
C46	C	1.656895	-0.905925	0.356990
N47	N	1.714907	-0.866870	0.299050
H48	H	1.625562	-1.090321	0.388427
C49	C	0.934123	-0.371225	0.454935
N50	N	0.982640	-0.323372	0.396502
H51	H	1.051939	-0.387715	0.475076
H52	H	1.579358	-0.778105	0.434269
C53	C	1.362830	-1.103928	0.650682
N54	N	1.304819	-1.142996	0.708612
C55	C	1.305300	-0.962630	0.707982
N56	N	1.247281	-1.001692	0.765910
H57	H	1.336638	-0.778211	0.676554
H58	H	1.605737	-0.332985	1.130817
C59	C	1.625933	-0.316498	0.904969
N60	N	1.684485	-0.268733	0.856478
H61	H	1.423448	-0.481672	0.968857
