data_functionalizedCrystal
_audit_creation_method	'MofGen! by Chris Wilmer'
_symmetry_space_group_name_H-M	'P1'
_symmetry_Int_Tables_number	1
_symmetry_cell_setting	triclinic
loop_
_symmetry_equiv_pos_as_xyz
  x,y,z
_cell_length_a	12.837943
_cell_length_b	10.489741
_cell_length_c	11.892095
_cell_angle_alpha	93.929268
_cell_angle_beta	85.689438
_cell_angle_gamma	89.684057
loop_
_atom_site_label
_atom_site_type_symbol
_atom_site_fract_x
_atom_site_fract_y
_atom_site_fract_z
O1	O	1.384503	0.324530	-0.093982
O2	O	1.082575	0.308135	-0.093989
O3	O	1.240409	0.131493	-0.093979
O4	O	1.226669	0.501172	-0.093992
O5	O	1.227249	0.146196	0.094028
O6	O	1.069415	0.322838	0.094018
O7	O	1.371343	0.339233	0.094024
Zn8	Zn	1.218290	0.333370	0.123871
Zn9	Zn	1.235629	0.313998	-0.123836
O10	O	1.213509	0.515875	0.094014
C11	C	1.037334	0.309948	0.000014
C12	C	0.922133	0.293430	0.000011
C13	C	1.232791	0.091198	0.000024
C14	C	1.229687	-0.050774	0.000022
C15	C	0.682657	0.492006	0.000020
C16	C	0.574415	0.476492	0.000019
C17	C	0.597406	0.246889	0.000015
C18	C	0.705648	0.262403	0.000016
C19	C	0.748269	0.384966	0.000017
C20	C	0.856513	0.400478	0.000011
C21	C	0.879501	0.170877	0.000015
C22	C	0.771260	0.155363	0.000014
C23	C	1.129262	-0.129987	0.000011
C24	C	1.170213	-0.209630	0.092709
C25	C	1.183212	-0.224098	-0.092650
C26	C	1.270674	-0.128541	0.092796
C27	C	1.283664	-0.143007	-0.092647
C28	C	1.324687	-0.222613	0.000074
C29	C	1.416585	0.337420	0.000019
C30	C	1.531786	0.353937	0.000014
C31	C	1.221127	0.556170	0.000009
C32	C	1.224233	0.698141	0.000004
N33	N	1.206464	0.346591	0.292925
N34	N	1.247463	0.300768	-0.292889
C35	C	1.329751	0.208698	0.529580
C36	C	1.321493	0.217950	0.647922
C37	C	1.181684	0.374338	0.647951
C38	C	1.189943	0.365086	0.529609
C39	C	1.263980	0.282265	0.470428
C40	C	1.272243	0.273021	0.352085
C41	C	1.132429	0.429402	0.352116
C42	C	1.124171	0.438653	0.470457
H43	H	0.891213	0.500275	0.000013
O44	O	1.134168	-0.279460	-0.196455
H45	H	1.132977	-0.385211	-0.195918
O46	O	0.503643	0.591940	0.000017
H47	H	0.551470	0.679765	0.000010
O48	O	1.019888	-0.076249	0.000139
H49	H	1.023229	0.029400	-0.000650
H50	H	0.932936	0.083716	0.000005
H51	H	0.736541	0.055577	0.000026
H52	H	1.063888	0.506081	0.518656
O53	O	0.551428	0.114706	0.000032
H54	H	0.465137	0.121908	0.000033
O55	O	1.434152	-0.276028	0.000075
H56	H	1.440444	-0.330151	0.076318
O57	O	1.392444	0.138606	0.711714
H58	H	1.344548	0.075425	0.765635
H59	H	1.332530	0.205588	0.303901
O60	O	1.347213	-0.103877	-0.196459
H61	H	1.414741	-0.046386	-0.170381
O62	O	1.061476	0.508750	0.288320
H63	H	1.079649	0.488400	0.196086
H64	H	1.307637	-0.086892	0.171253
H65	H	1.122235	-0.239197	0.171077
H66	H	0.717359	0.591801	0.000019
O67	O	1.409576	0.119352	0.465729
H68	H	1.464172	0.175022	0.411791
O69	O	1.101834	0.463661	0.711789
H70	H	1.107148	0.457734	0.804016
