data_functionalizedCrystal
_audit_creation_method	'MofGen! by Chris Wilmer'
_symmetry_space_group_name_H-M	'P1'
_symmetry_Int_Tables_number	1
_symmetry_cell_setting	triclinic
loop_
_symmetry_equiv_pos_as_xyz
  x,y,z
_cell_length_a	16.959455
_cell_length_b	18.050583
_cell_length_c	16.959454
_cell_angle_alpha	89.967998
_cell_angle_beta	90.017095
_cell_angle_gamma	89.979063
loop_
_atom_site_label
_atom_site_type_symbol
_atom_site_fract_x
_atom_site_fract_y
_atom_site_fract_z
Zn1	Zn	1.208388	-0.420032	-0.314688
Zn2	Zn	1.708388	0.079968	0.185312
Zn3	Zn	1.208309	-0.295851	-0.446892
Zn4	Zn	1.708309	0.204149	0.053108
Zn5	Zn	1.076215	-0.295845	-0.314725
Zn6	Zn	1.576215	0.204155	0.185275
Zn7	Zn	1.076181	-0.419989	-0.446821
Zn8	Zn	1.576181	0.080011	0.053179
O9	O	1.142274	-0.357929	-0.380781
O10	O	1.642274	0.142071	0.119219
O11	O	1.318989	-0.403580	-0.332239
O12	O	1.818989	0.096420	0.167761
O13	O	1.190768	-0.191926	-0.429405
O14	O	1.690768	0.308074	0.070595
O15	O	1.093796	-0.312335	-0.204109
O16	O	1.593796	0.187665	0.295891
O17	O	1.318931	-0.312344	-0.429369
O18	O	1.818931	0.187656	0.070631
O19	O	1.190902	-0.403574	-0.204082
O20	O	1.690902	0.096426	0.295918
O21	O	1.093719	-0.191922	-0.332302
O22	O	1.593719	0.308078	0.167698
O23	O	0.965600	-0.312293	-0.332233
O24	O	1.465600	0.187707	0.167767
O25	O	1.093738	-0.523919	-0.429248
O26	O	1.593738	-0.023919	0.070752
O27	O	0.965575	-0.403501	-0.429284
O28	O	1.465575	0.096499	0.070716
O29	O	1.190869	-0.523951	-0.332170
O30	O	1.690869	-0.023951	0.167830
O31	O	1.190735	-0.312303	-0.557494
O32	O	1.690735	0.187697	-0.057494
O33	O	1.093661	-0.403506	-0.557441
O34	O	1.593661	0.096494	-0.057441
C35	C	0.936907	-0.357892	-0.380756
C36	C	1.436907	0.142108	0.119244
C37	C	0.849051	-0.357894	-0.380764
C38	C	1.349051	0.142106	0.119236
C39	C	0.477534	-0.310399	-0.431307
C40	C	0.977534	0.189601	0.068693
C41	C	0.477616	-0.405550	-0.330322
C42	C	0.977616	0.094450	0.169678
C43	C	0.560162	-0.405532	-0.330308
C44	C	1.060162	0.094468	0.169692
C45	C	0.601398	-0.357948	-0.380796
C46	C	1.101398	0.142052	0.119204
C47	C	0.560088	-0.310381	-0.431297
C48	C	1.060088	0.189619	0.068703
C49	C	0.601478	-0.453103	-0.279814
C50	C	1.101478	0.046897	0.220186
C51	C	0.684029	-0.453087	-0.279800
C52	C	1.184029	0.046913	0.220200
C53	C	0.725266	-0.405499	-0.330284
C54	C	1.225266	0.094501	0.169716
C55	C	0.683951	-0.357930	-0.380787
C56	C	1.183951	0.142070	0.119213
C57	C	0.725187	-0.310345	-0.431274
C58	C	1.225187	0.189655	0.068726
C59	C	0.683874	-0.262772	-0.481773
C60	C	1.183874	0.237228	0.018227
C61	C	0.601325	-0.262792	-0.481782
C62	C	1.101325	0.237208	0.018218
C63	C	0.807815	-0.405478	-0.330276
C64	C	1.307815	0.094522	0.169724
C65	C	0.807741	-0.310327	-0.431265
C66	C	1.307741	0.189673	0.068735
C67	C	1.142309	-0.551635	-0.380697
C68	C	1.642309	-0.051635	0.119303
C69	C	1.142323	-0.634181	-0.380661
C70	C	1.642323	-0.134181	0.119339
C71	C	1.195197	-0.833649	-0.327845
C72	C	1.695197	-0.333649	0.172155
C73	C	1.123102	-0.883037	-0.308495
C74	C	1.623102	-0.383037	0.191505
C75	C	1.142355	-0.785311	-0.380648
C76	C	1.642355	-0.285311	0.119352
C77	C	1.214478	-0.883006	-0.399947
C78	C	1.714478	-0.383006	0.100053
C79	C	1.142392	-0.931297	-0.380633
C80	C	1.642392	-0.431297	0.119367
C81	C	1.070223	-0.833612	-0.361261
C82	C	1.570223	-0.333612	0.138739
C83	C	1.161647	-0.833577	-0.452746
C84	C	1.661647	-0.333577	0.047254
C85	C	1.089503	-0.882942	-0.433424
C86	C	1.589503	-0.382942	0.066576
C87	C	1.142335	-0.701213	-0.380654
C88	C	1.642335	-0.201213	0.119346
C89	C	1.142404	-1.015393	-0.380627
C90	C	1.642404	-0.515393	0.119373
C91	C	1.348442	-0.357967	-0.380808
C92	C	1.848442	0.142033	0.119192
C93	C	1.436298	-0.357984	-0.380819
C94	C	1.936298	0.142016	0.119181
C95	C	1.142207	-0.357917	-0.586148
C96	C	1.642207	0.142083	-0.086148
C97	C	1.142251	-0.357936	-0.674004
C98	C	1.642251	0.142064	-0.174004
C99	C	1.142284	-0.164977	-0.380808
C100	C	1.642284	0.335023	0.119192
C101	C	1.142423	-0.082432	-0.380622
C102	C	1.642423	0.417568	0.119378
C103	C	1.091801	-0.405414	-1.045483
C104	C	1.591801	0.094586	-0.545483
C105	C	1.192967	-0.310521	-1.045477
C106	C	1.692967	0.189479	-0.545477
C107	C	1.192939	-0.310514	-0.962931
C108	C	1.692939	0.189486	-0.462931
C109	C	1.142341	-0.357957	-0.921657
C110	C	1.642341	0.142043	-0.421657
C111	C	1.091770	-0.405407	-0.962929
C112	C	1.591770	0.094593	-0.462929
C113	C	1.243504	-0.263059	-0.921653
C114	C	1.743504	0.236941	-0.421653
C115	C	1.243477	-0.263050	-0.839102
C116	C	1.743477	0.236950	-0.339102
C117	C	1.192882	-0.310497	-0.797827
C118	C	1.692882	0.189503	-0.297827
C119	C	1.142310	-0.357950	-0.839104
C120	C	1.642310	0.142050	-0.339104
C121	C	1.091711	-0.405393	-0.797830
C122	C	1.591711	0.094607	-0.297830
C123	C	1.041142	-0.452850	-0.839105
C124	C	1.541142	0.047150	-0.339105
C125	C	1.041174	-0.452855	-0.921654
C126	C	1.541174	0.047145	-0.421654
C127	C	1.192850	-0.310493	-0.715278
C128	C	1.692850	0.189507	-0.215278
C129	C	1.091680	-0.405386	-0.715276
C130	C	1.591680	0.094614	-0.215276
C131	C	1.142362	-0.357958	-0.174613
C132	C	1.642362	0.142042	0.325387
C133	C	1.142399	-0.357971	-0.086757
C134	C	1.642399	0.142029	0.413243
H135	H	0.567898	-0.491848	-0.238715
H136	H	1.067898	0.008152	0.261285
O137	O	0.852213	-0.258996	-0.485716
O138	O	1.352213	0.241004	0.014284
H139	H	0.889840	-0.292159	-0.525967
H140	H	1.389840	0.207841	-0.025967
H141	H	0.717659	-0.491824	-0.238680
H142	H	1.217659	0.008176	0.261320
H143	H	1.284654	-0.224409	-0.805501
H144	H	1.784654	0.275591	-0.305501
O145	O	0.852371	-0.456784	-0.275814
O146	O	1.352371	0.043216	0.224186
H147	H	0.916700	-0.448780	-0.284290
H148	H	1.416700	0.051220	0.215710
O149	O	0.986562	-0.504011	-0.794580
O150	O	1.486562	-0.004011	-0.294580
H151	H	0.951397	-0.537007	-0.837144
H152	H	1.451397	-0.037007	-0.337144
H153	H	0.567681	-0.224060	-0.522895
H154	H	1.067681	0.275940	-0.022895
H155	H	1.050480	-0.444024	-0.681676
H156	H	1.550480	0.055976	-0.181676
O157	O	0.986620	-0.504023	-0.966169
O158	O	1.486620	-0.004023	-0.466169
H159	H	0.995132	-0.496046	-1.030504
H160	H	1.495132	0.003954	-0.530504
O161	O	1.037249	-0.456590	-1.089992
O162	O	1.537249	0.043410	-0.589992
H163	H	1.045763	-0.448623	-1.154328
H164	H	1.545763	0.051377	-0.654328
O165	O	0.728358	-0.211448	-0.536222
O166	O	1.228358	0.288552	-0.036222
H167	H	0.712518	-0.224087	-0.598278
H168	H	1.212518	0.275913	-0.098278
O169	O	0.432984	-0.259088	-0.485772
O170	O	0.932984	0.240912	0.014228
H171	H	0.368654	-0.267092	-0.477302
H172	H	0.868654	0.232908	0.022698
O173	O	0.433146	-0.456867	-0.275863
O174	O	0.933146	0.043133	0.224137
H175	H	0.368804	-0.448884	-0.284349
H176	H	0.868804	0.051116	0.215651
O177	O	1.298082	-0.211887	-0.966153
O178	O	1.798082	0.288113	-0.466153
H179	H	1.360099	-0.224683	-0.950239
H180	H	1.860099	0.275317	-0.450239
H181	H	1.275456	-0.904705	-0.416275
H182	H	1.775456	-0.404705	0.083725
O183	O	1.254264	-0.804925	-0.268660
O184	O	1.754264	-0.304925	0.231340
H185	H	1.238060	-0.824720	-0.208848
H186	H	1.738060	-0.324720	0.291152
O187	O	1.101498	-0.911823	-0.227728
O188	O	1.601498	-0.411823	0.272272
H189	H	1.145429	-0.892089	-0.184006
H190	H	1.645429	-0.392089	0.315994
H191	H	1.009227	-0.812006	-0.344861
H192	H	1.509227	-0.312006	0.155139
O193	O	1.183269	-0.804770	-0.533495
O194	O	1.683269	-0.304770	-0.033495
H195	H	1.182484	-0.743286	-0.532883
H196	H	1.682484	-0.243286	-0.032883
H197	H	1.044781	-0.904449	-0.478072
H198	H	1.544781	-0.404449	0.021928
O199	O	1.247561	-0.259371	-1.089988
O200	O	1.747561	0.240629	-0.589988
H201	H	1.239097	-0.267357	-1.154323
H202	H	1.739097	0.232643	-0.654323
H203	H	1.234019	-0.271851	-0.681676
H204	H	1.734019	0.228149	-0.181676
