data_functionalizedCrystal
_audit_creation_method	'MofGen! by Chris Wilmer'
_symmetry_space_group_name_H-M	'P1'
_symmetry_Int_Tables_number	1
_symmetry_cell_setting	triclinic
loop_
_symmetry_equiv_pos_as_xyz
  x,y,z
_cell_length_a	14.044220
_cell_length_b	14.044190
_cell_length_c	10.268362
_cell_angle_alpha	89.989939
_cell_angle_beta	90.000433
_cell_angle_gamma	93.190328
loop_
_atom_site_label
_atom_site_type_symbol
_atom_site_fract_x
_atom_site_fract_y
_atom_site_fract_z
O1	O	1.277174	0.230169	-0.108188
O2	O	1.527174	0.480169	0.141812
O3	O	1.777174	0.730169	0.391812
O4	O	2.027174	0.980169	0.641812
O5	O	1.000502	0.221863	-0.108220
O6	O	1.250502	0.471863	0.141780
O7	O	1.500502	0.721863	0.391780
O8	O	1.750502	0.971863	0.641780
O9	O	1.134682	0.087680	-0.108179
O10	O	1.384682	0.337680	0.141821
O11	O	1.634682	0.587680	0.391821
O12	O	1.884682	0.837680	0.641821
O13	O	1.142994	0.364352	-0.108229
O14	O	1.392994	0.614352	0.141771
O15	O	1.642994	0.864352	0.391771
O16	O	1.892994	1.114352	0.641771
O17	O	1.134668	0.087673	0.108422
O18	O	1.384668	0.337673	0.358422
O19	O	1.634668	0.587673	0.608422
O20	O	1.884668	0.837673	0.858422
O21	O	1.000489	0.221856	0.108380
O22	O	1.250489	0.471856	0.358380
O23	O	1.500489	0.721856	0.608380
O24	O	1.750489	0.971856	0.858380
O25	O	1.277161	0.230162	0.108412
O26	O	1.527161	0.480162	0.358412
O27	O	1.777161	0.730162	0.608412
O28	O	2.027161	0.980162	0.858412
Cu29	Cu	1.138824	0.226008	0.128174
Cu30	Cu	1.388824	0.476008	0.378174
Cu31	Cu	1.638824	0.726008	0.628174
Cu32	Cu	1.888824	0.976008	0.878174
Cu33	Cu	1.138839	0.226017	-0.127982
Cu34	Cu	1.388839	0.476017	0.122018
Cu35	Cu	1.638839	0.726017	0.372018
Cu36	Cu	1.888839	0.976017	0.622018
O37	O	1.142981	0.364345	0.108371
O38	O	1.392981	0.614345	0.358371
O39	O	1.642981	0.864345	0.608371
O40	O	1.892981	1.114345	0.858371
C41	C	0.964874	0.218224	0.000076
C42	C	1.214874	0.468224	0.250076
C43	C	1.464874	0.718224	0.500076
C44	C	1.714874	0.968224	0.750076
C45	C	0.858731	0.207380	0.000065
C46	C	1.108731	0.457380	0.250065
C47	C	1.358731	0.707380	0.500065
C48	C	1.608731	0.957380	0.750065
C49	C	0.664392	0.187553	0.000095
C50	C	0.914392	0.437553	0.250095
C51	C	1.164392	0.687553	0.500095
C52	C	1.414392	0.937553	0.750095
C53	C	0.613264	0.264468	0.000086
C54	C	0.863264	0.514468	0.250086
C55	C	1.113264	0.764468	0.500086
C56	C	1.363264	1.014468	0.750086
C57	C	0.505128	0.253436	0.000103
C58	C	0.755128	0.503436	0.250103
C59	C	1.005128	0.753436	0.500103
C60	C	1.255128	1.003436	0.750103
C61	C	0.772539	0.198583	0.000078
C62	C	1.022539	0.448583	0.250078
C63	C	1.272539	0.698583	0.500078
C64	C	1.522539	0.948583	0.750078
C65	C	1.131039	0.052054	0.000125
C66	C	1.381039	0.302054	0.250125
C67	C	1.631039	0.552054	0.500125
C68	C	1.881039	0.802054	0.750125
C69	C	1.120191	-0.054089	0.000135
C70	C	1.370191	0.195911	0.250135
C71	C	1.620191	0.445911	0.500135
C72	C	1.870191	0.695911	0.750135
C73	C	1.177292	-0.299547	0.000090
C74	C	1.427292	-0.049547	0.250090
C75	C	1.677292	0.200453	0.500090
C76	C	1.927292	0.450453	0.750090
C77	C	1.100375	-0.248422	0.000091
C78	C	1.350375	0.001578	0.250091
C79	C	1.600375	0.251578	0.500091
C80	C	1.850375	0.501578	0.750091
C81	C	1.111404	-0.140285	0.000115
C82	C	1.361404	0.109715	0.250115
C83	C	1.611404	0.359715	0.500115
C84	C	1.861404	0.609715	0.750115
C85	C	1.166265	-0.407694	0.000066
C86	C	1.416265	-0.157694	0.250066
C87	C	1.666265	0.092306	0.500066
C88	C	1.916265	0.342306	0.750066
C89	C	1.312789	0.233801	0.000113
C90	C	1.562789	0.483801	0.250113
C91	C	1.812789	0.733801	0.500113
C92	C	2.062789	0.983801	0.750113
C93	C	1.418932	0.244646	0.000116
C94	C	1.668932	0.494646	0.250116
C95	C	1.918932	0.744646	0.500116
C96	C	2.168932	0.994646	0.750116
C97	C	1.146624	0.399971	0.000065
C98	C	1.396624	0.649971	0.250065
C99	C	1.646624	0.899971	0.500065
C100	C	1.896624	1.149971	0.750065
C101	C	1.157472	0.506114	0.000046
C102	C	1.407472	0.756114	0.250046
C103	C	1.657472	1.006114	0.500046
C104	C	1.907472	1.256114	0.750046
N105	N	1.138820	0.226003	0.308340
N106	N	1.388820	0.476003	0.558340
N107	N	1.638820	0.726003	0.808340
N108	N	1.888820	0.976003	1.058340
N109	N	1.138850	0.226016	-0.308147
N110	N	1.388850	0.476016	-0.058147
N111	N	1.638850	0.726016	0.191853
N112	N	1.888850	0.976016	0.441853
C113	C	1.138834	0.226015	0.574010
C114	C	1.388834	0.476015	0.824010
C115	C	1.638834	0.726015	1.074010
C116	C	1.888834	0.976015	1.324010
C117	C	1.138823	0.226010	0.426172
C118	C	1.388823	0.476010	0.676172
C119	C	1.638823	0.726010	0.926172
C120	C	1.888823	0.976010	1.176172
H121	H	0.650706	0.338602	0.000066
H122	H	0.900706	0.588602	0.250066
H123	H	1.150706	0.838602	0.500066
H124	H	1.400706	1.088602	0.750066
H125	H	0.626954	0.113425	0.000115
H126	H	0.876954	0.363425	0.250115
H127	H	1.126954	0.613425	0.500115
H128	H	1.376954	0.863425	0.750115
H129	H	1.251418	-0.262106	0.000112
H130	H	1.501418	-0.012106	0.250112
H131	H	1.751418	0.237894	0.500112
H132	H	2.001418	0.487894	0.750112
O133	O	1.002174	-0.298007	0.000088
O134	O	1.252174	-0.048007	0.250088
O135	O	1.502174	0.201993	0.500088
O136	O	1.752174	0.451993	0.750088
H137	H	1.008806	-0.376393	0.000088
H138	H	1.258806	-0.126393	0.250088
H139	H	1.508806	0.123607	0.500088
H140	H	1.758806	0.373607	0.750088
