data_functionalizedCrystal
_audit_creation_method	'MofGen! by Chris Wilmer'
_symmetry_space_group_name_H-M	'P1'
_symmetry_Int_Tables_number	1
_symmetry_cell_setting	triclinic
loop_
_symmetry_equiv_pos_as_xyz
  x,y,z
_cell_length_a	12.759400
_cell_length_b	12.759401
_cell_length_c	16.625539
_cell_angle_alpha	90.019570
_cell_angle_beta	89.974233
_cell_angle_gamma	89.988829
loop_
_atom_site_label
_atom_site_type_symbol
_atom_site_fract_x
_atom_site_fract_y
_atom_site_fract_z
Zn1	Zn	-0.418363	-1.606244	-0.455902
Zn2	Zn	-0.594064	-1.606142	-0.321075
Zn3	Zn	-0.418389	-1.430549	-0.321085
Zn4	Zn	-0.593990	-1.430535	-0.455867
O5	O	-0.506201	-1.518368	-0.388482
O6	O	-0.441690	-1.753252	-0.438027
O7	O	-0.570802	-1.582812	-0.208244
O8	O	-0.271364	-1.453905	-0.338987
O9	O	-0.570777	-1.753176	-0.338971
O10	O	-0.271345	-1.582987	-0.438037
O11	O	-0.441735	-1.453806	-0.208251
O12	O	-0.441662	-1.283526	-0.338954
O13	O	-0.570650	-1.453880	-0.568705
O14	O	-0.570676	-1.283516	-0.437978
O15	O	-0.441618	-1.582973	-0.568730
O16	O	-0.741075	-1.582798	-0.338937
O17	O	-0.741021	-1.453780	-0.437968
C18	C	-0.506165	-1.245400	-0.388464
C19	C	-0.506174	-1.128624	-0.388475
C20	C	-0.438922	-0.964011	-0.337008
C21	C	-0.438906	-1.073735	-0.337002
C22	C	-0.573455	-1.073782	-0.439962
C23	C	-0.573465	-0.964060	-0.439971
C24	C	-0.371658	-0.909129	-0.285527
C25	C	-0.304375	-0.963963	-0.234040
C26	C	-0.304359	-1.073687	-0.234035
C27	C	-0.371625	-1.128577	-0.285515
C28	C	-0.779169	-1.518305	-0.388466
C29	C	-0.895945	-1.518375	-0.388485
C30	C	-0.950801	-1.585629	-0.336977
C31	C	-1.060525	-1.585693	-0.337002
C32	C	-1.060528	-1.451241	-0.440046
C33	C	-0.950806	-1.451182	-0.440025
C34	C	-0.895940	-1.652821	-0.285438
C35	C	-0.950796	-1.720080	-0.233924
C36	C	-1.060520	-1.720144	-0.233949
C37	C	-1.115388	-1.652950	-0.285487
C38	C	-0.232168	-1.518459	-0.388517
C39	C	-0.115391	-1.518498	-0.388532
C40	C	-0.506123	-1.518436	-0.598791
C41	C	-0.506090	-1.518465	-0.688413
C42	C	-0.506225	-0.792401	-0.388497
C43	C	-0.506200	-0.909177	-0.388489
C44	C	-0.505972	-1.518513	-1.016588
C45	C	-0.506008	-1.518497	-0.925280
C46	C	-0.506032	-1.518490	-0.852503
C47	C	-0.506066	-1.518472	-0.761189
C48	C	-0.506204	-1.518360	-0.178992
C49	C	-0.505941	-1.518534	-0.089371
H50	H	-0.628245	-0.919413	-0.481894
F51	F	-0.779163	-1.652988	-0.285584
H52	H	-0.906116	-1.774794	-0.191968
F53	F	-0.371600	-1.245357	-0.285510
H54	H	-1.105180	-1.774917	-0.192010
H55	H	-0.628220	-1.118482	-0.481874
H56	H	-0.249567	-1.118330	-0.192118
F57	F	-1.232167	-1.652683	-0.285250
H58	H	-0.906142	-1.396419	-0.481968
H59	H	-0.371665	-0.819786	-0.285524
H60	H	-0.249603	-0.919265	-0.192132
F61	F	-1.118926	-1.379731	-0.494891
