data_functionalizedCrystal
_audit_creation_method	'MofGen! by Chris Wilmer'
_symmetry_space_group_name_H-M	'P1'
_symmetry_Int_Tables_number	1
_symmetry_cell_setting	triclinic
loop_
_symmetry_equiv_pos_as_xyz
  x,y,z
_cell_length_a	12.759401
_cell_length_b	16.625545
_cell_length_c	12.759401
_cell_angle_alpha	90.011378
_cell_angle_beta	90.001790
_cell_angle_gamma	90.025984
loop_
_atom_site_label
_atom_site_type_symbol
_atom_site_fract_x
_atom_site_fract_y
_atom_site_fract_z
Zn1	Zn	1.606002	-0.321124	0.593967
Zn2	Zn	1.605914	-0.455928	0.418280
Zn3	Zn	1.430355	-0.321114	0.418306
Zn4	Zn	1.430259	-0.455920	0.593921
O5	O	1.518132	-0.388521	0.506119
O6	O	1.753011	-0.339014	0.570670
O7	O	1.582630	-0.438044	0.271263
O8	O	1.453732	-0.208283	0.441638
O9	O	1.752947	-0.438054	0.441594
O10	O	1.582779	-0.208290	0.570696
O11	O	1.453647	-0.338997	0.271282
O12	O	1.283321	-0.338988	0.441594
O13	O	1.453568	-0.438039	0.740948
O14	O	1.283251	-0.438029	0.570617
O15	O	1.582685	-0.339006	0.740982
O16	O	1.582536	-0.568759	0.441549
O17	O	1.453483	-0.568753	0.570592
C18	C	1.245165	-0.388508	0.506104
C19	C	1.128388	-0.388521	0.506122
C20	C	1.073560	-0.337044	0.573436
C21	C	0.963836	-0.337052	0.573443
C22	C	0.963778	-0.440021	0.438820
C23	C	1.073500	-0.440008	0.438808
C24	C	0.813929	-0.242023	0.611217
C25	C	0.759097	-0.190554	0.678547
C26	C	0.794726	-0.178294	0.781086
C27	C	0.885186	-0.217516	0.816316
C28	C	0.940012	-0.268992	0.748991
C29	C	0.904384	-0.281236	0.646437
C30	C	1.223410	-0.535038	0.401046
C31	C	1.278238	-0.586519	0.333726
C32	C	1.242611	-0.598787	0.231185
C33	C	1.152148	-0.559579	0.195959
C34	C	1.097319	-0.508099	0.263279
C35	C	1.132954	-0.495829	0.365819
C36	C	1.518018	-0.598012	0.506086
C37	C	1.518066	-0.687633	0.506107
C38	C	1.518106	-0.760416	0.506128
C39	C	1.518168	-0.851724	0.506151
C40	C	1.518222	-0.924501	0.506164
C41	C	1.518282	-1.015815	0.506186
C42	C	1.792166	-0.388536	0.506134
C43	C	1.908942	-0.388542	0.506141
C44	C	1.518126	-0.388523	0.780152
C45	C	1.518123	-0.388523	0.896929
C46	C	1.518276	-0.178212	0.506175
C47	C	1.518337	-0.088591	0.506199
C48	C	1.450969	-0.336960	1.061531
C49	C	1.450971	-0.336955	0.951807
C50	C	1.585284	-0.440095	0.951780
C51	C	1.585286	-0.440095	1.061502
C52	C	1.413496	-0.241859	0.801882
C53	C	1.346326	-0.190297	0.747034
C54	C	1.243821	-0.177912	0.782647
C55	C	1.208466	-0.217100	0.873106
C56	C	1.275630	-0.268668	0.927949
C57	C	1.378150	-0.281038	0.892337
C58	C	1.622750	-0.535192	1.211429
C59	C	1.689911	-0.586765	1.266273
C60	C	1.792417	-0.599159	1.230662
C61	C	1.827769	-0.559985	1.140200
C62	C	1.760609	-0.508412	1.085355
C63	C	1.658103	-0.496017	1.120974
C64	C	1.518129	-0.388536	1.233151
C65	C	1.518123	-0.388529	1.116375
H66	H	1.023659	-0.476174	0.234589
H67	H	1.351908	-0.618433	0.362410
Cl68	Cl	1.645471	-0.636006	1.380006
H69	H	1.287242	-0.640729	0.176386
Cl70	Cl	1.231195	-0.317928	1.041663
Cl71	Cl	1.268213	-0.519611	0.529956
Cl72	Cl	1.669712	-0.504918	0.882790
H73	H	1.789401	-0.476515	1.011696
Cl74	Cl	1.366545	-0.272127	1.130509
Cl75	Cl	1.053725	-0.318297	0.793270
Cl76	Cl	1.079591	-0.201532	0.917867
Cl77	Cl	1.542373	-0.257410	0.757118
H78	H	1.911238	-0.570078	1.111202
Cl79	Cl	1.493881	-0.519609	1.256209
Cl80	Cl	1.876843	-0.664002	1.299605
Cl81	Cl	1.159381	-0.113090	0.713694
H82	H	1.123135	-0.569572	0.112464
H83	H	1.118247	-0.295117	0.628244
Cl84	Cl	0.929961	-0.202113	0.945237
H85	H	0.750075	-0.136386	0.835906
Cl86	Cl	0.645368	-0.141262	0.634265
H87	H	1.375122	-0.158390	0.673382
H88	H	0.784918	-0.251992	0.527717
H89	H	0.919074	-0.481941	0.384016
