data_functionalizedCrystal
_audit_creation_method	'MofGen! by Chris Wilmer'
_symmetry_space_group_name_H-M	'P1'
_symmetry_Int_Tables_number	1
_symmetry_cell_setting	triclinic
loop_
_symmetry_equiv_pos_as_xyz
  x,y,z
_cell_length_a	10.654558
_cell_length_b	12.376457
_cell_length_c	10.654550
_cell_angle_alpha	101.388209
_cell_angle_beta	95.513390
_cell_angle_gamma	101.403517
loop_
_atom_site_label
_atom_site_type_symbol
_atom_site_fract_x
_atom_site_fract_y
_atom_site_fract_z
O1	O	1.691706	0.093986	-0.152591
O2	O	1.326230	0.093992	-0.169385
O3	O	1.517370	0.093985	0.021750
O4	O	1.500566	0.093993	-0.343726
O5	O	1.469602	-0.094026	-0.025968
O6	O	1.278462	-0.094019	-0.217103
O7	O	1.643938	-0.094024	-0.200309
Zn8	Zn	1.453616	-0.123872	-0.216283
Zn9	Zn	1.516553	0.123840	-0.153412
O10	O	1.452798	-0.094017	-0.391444
C11	C	1.255549	-0.000013	-0.192009
C12	C	1.116106	-0.000011	-0.188312
C13	C	0.945606	0.102474	-0.157105
C14	C	1.076629	0.102475	-0.160567
C15	C	1.024553	-0.102504	-0.212585
C16	C	0.893534	-0.102504	-0.209114
C17	C	0.906136	0.204966	-0.129371
C18	C	0.997681	0.307460	-0.105096
C19	C	1.128703	0.307461	-0.108557
C20	C	1.168182	0.204969	-0.136294
N21	N	1.410672	-0.292929	-0.259190
C22	C	1.659192	-0.647923	-0.010870
C23	C	1.689241	-0.529584	0.019161
C24	C	1.619601	-0.470415	-0.050424
C25	C	1.519907	-0.529595	-0.150045
C26	C	1.489862	-0.647946	-0.180086
C27	C	1.450271	-0.470437	-0.219640
C28	C	1.350577	-0.529618	-0.319261
C29	C	1.320536	-0.647957	-0.349296
C30	C	1.390176	-0.707126	-0.279711
C31	C	1.480316	-0.352087	-0.189599
C32	C	1.310986	-0.352109	-0.358815
C33	C	1.280937	-0.470448	-0.388846
C34	C	1.714620	-0.000017	-0.177685
C35	C	1.854064	-0.000012	-0.181380
C36	C	1.492252	-0.000019	0.044689
C37	C	1.488562	-0.000015	0.184133
N38	N	1.559506	0.292896	-0.110495
C39	C	1.477916	-0.000011	-0.414383
C40	C	1.481609	-0.000007	-0.553825
C41	C	1.601101	-0.000020	0.263614
C42	C	1.597627	-0.000012	0.394637
C43	C	1.369062	0.000001	0.366684
C44	C	1.372539	0.000001	0.235666
C45	C	1.717123	-0.000037	0.212082
C46	C	1.829672	-0.000043	0.291564
C47	C	1.826198	-0.000035	0.422587
C48	C	1.710174	-0.000021	0.474128
H49	H	0.799453	0.204977	-0.126553
C50	C	1.241440	-0.000001	0.423381
N51	N	1.145312	-0.000011	0.466083
H52	H	1.715890	-0.696107	0.045771
H53	H	1.280899	0.000004	0.170949
C54	C	1.950002	-0.000042	0.510013
N55	N	2.043253	-0.000057	0.575859
H56	H	0.965528	0.390906	-0.082504
H57	H	1.239369	-0.696142	-0.430423
C58	C	1.229400	0.420205	-0.081839
N59	N	1.305243	0.505128	-0.061719
C60	C	1.357101	-0.837307	-0.312716
N61	N	1.332184	-0.935361	-0.337564
H62	H	1.274873	0.204978	-0.139103
C63	C	1.171273	-0.535562	-0.498426
N64	N	1.088673	-0.584608	-0.580960
H65	H	0.818994	-0.185957	-0.228904
C66	C	1.067982	-0.215238	-0.243140
N67	N	1.100689	-0.300152	-0.266173
H68	H	1.707357	-0.000002	0.580820
H69	H	1.254281	-0.303934	-0.415480
H70	H	1.770411	-0.481404	0.100271
C71	C	1.589970	-0.287002	-0.080011
N72	N	1.672564	-0.237981	0.002540
H73	H	1.644071	-0.374058	-0.025968
H74	H	1.719964	-0.000047	0.105397
C75	C	1.957291	-0.000057	0.234866
N76	N	2.053416	-0.000071	0.192162
