data_functionalizedCrystal
_audit_creation_method	'MofGen! by Chris Wilmer'
_symmetry_space_group_name_H-M	'P1'
_symmetry_Int_Tables_number	1
_symmetry_cell_setting	triclinic
loop_
_symmetry_equiv_pos_as_xyz
  x,y,z
_cell_length_a	12.811453
_cell_length_b	12.837942
_cell_length_c	14.750712
_cell_angle_alpha	104.005130
_cell_angle_beta	82.557560
_cell_angle_gamma	89.412981
loop_
_atom_site_label
_atom_site_type_symbol
_atom_site_fract_x
_atom_site_fract_y
_atom_site_fract_z
O1	O	-1.355734	-0.195237	-0.197845
O2	O	-1.058330	-0.203154	-0.171958
O3	O	-1.200439	-0.048101	-0.184322
O4	O	-1.213625	-0.350290	-0.185481
O5	O	-1.240610	-0.004276	-0.028166
O6	O	-1.098502	-0.159329	-0.015802
O7	O	-1.395905	-0.151412	-0.041690
Zn8	Zn	-1.253581	-0.148412	-0.003953
Zn9	Zn	-1.200654	-0.206154	-0.209695
O10	O	-1.253796	-0.306465	-0.029326
C11	C	-1.040085	-0.179453	-0.090543
C12	C	-0.925871	-0.174112	-0.080601
C13	C	-0.667448	-0.211877	-0.232177
C14	C	-0.560132	-0.206860	-0.222840
C15	C	-0.603921	-0.159068	-0.052590
C16	C	-0.711237	-0.164085	-0.061928
C17	C	-0.742996	-0.190489	-0.151724
C18	C	-0.850314	-0.195498	-0.161061
C19	C	-0.894100	-0.147714	0.009188
C20	C	-0.786785	-0.142697	0.018526
C21	C	-1.216069	0.012561	-0.105857
C22	C	-1.202780	0.128021	-0.104702
C23	C	-0.414150	-0.175113	-0.123105
C24	C	-0.528364	-0.180455	-0.133049
C25	C	-1.238166	-0.367127	-0.107793
C26	C	-1.251453	-0.482589	-0.108954
N27	N	-1.289710	-0.109005	0.136459
C28	C	-1.362527	0.364363	-0.118627
C29	C	-1.350045	0.472849	-0.117542
C30	C	-1.165335	0.453478	-0.101454
C31	C	-1.177817	0.344992	-0.102539
C32	C	-1.276416	0.300440	-0.111124
C33	C	-1.288898	0.191954	-0.112202
C34	C	-1.104187	0.172583	-0.096121
C35	C	-1.091706	0.281069	-0.095036
C36	C	-1.063612	-0.355580	0.507949
C37	C	-1.088937	-0.327973	0.606245
C38	C	-1.214808	-0.190727	0.595256
C39	C	-1.189490	-0.218318	0.496957
C40	C	-1.113892	-0.300747	0.453312
C41	C	-1.239770	-0.163485	0.442321
C42	C	-1.214457	-0.191079	0.344030
C43	C	-1.138865	-0.273506	0.300377
C44	C	-1.088579	-0.328341	0.355022
C45	C	-1.315373	-0.081062	0.485968
C46	C	-1.365653	-0.026229	0.431331
C47	C	-1.340335	-0.053817	0.333039
C48	C	-1.264743	-0.136245	0.289386
C49	C	-1.390621	0.001017	0.278395
C50	C	-1.365308	-0.026577	0.180105
C51	C	-1.239430	-0.163838	0.191096
N52	N	-1.164522	-0.245565	0.649893
H53	H	-0.498623	-0.224280	-0.288353
H54	H	-0.578043	-0.137581	0.020518
H55	H	-1.369183	0.155682	-0.119189
H56	H	-1.442812	0.328091	-0.125608
C57	C	-1.444776	0.543164	-0.125789
N58	N	-1.516132	0.596126	-0.132000
H59	H	-0.693306	-0.233371	-0.305293
C60	C	-0.885246	-0.224545	-0.259838
N61	N	-0.911554	-0.246427	-0.334239
H62	H	-1.118260	-0.295975	0.220343
H63	H	-1.011428	0.317358	-0.088050
C64	C	-0.751836	-0.113652	0.117297
N65	N	-0.725515	-0.091770	0.191693
H66	H	-1.085058	0.489769	-0.094474
C67	C	-1.009459	0.102258	-0.087866
N68	N	-0.938113	0.049288	-0.081647
H69	H	-1.177863	-0.230952	0.155559
H70	H	-0.955625	-0.130296	0.074699
C71	C	-1.005372	-0.418973	0.307010
N72	N	-0.942689	-0.487223	0.270849
C73	C	-0.980404	-0.446213	0.459937
N74	N	-0.917722	-0.514462	0.423776
C75	C	-1.033615	-0.388299	0.666343
N76	N	-0.991949	-0.433736	0.711609
C77	C	-1.297961	-0.100054	0.643278
N78	N	-1.360589	-0.031754	0.679447
H79	H	-1.335983	-0.058602	0.566002
H80	H	-1.452181	0.068124	0.313943
H81	H	-1.427208	0.040883	0.466878
H82	H	-1.406253	0.018074	0.135618
