data_functionalizedCrystal
_audit_creation_method	'MofGen! by Chris Wilmer'
_symmetry_space_group_name_H-M	'P1'
_symmetry_Int_Tables_number	1
_symmetry_cell_setting	triclinic
loop_
_symmetry_equiv_pos_as_xyz
  x,y,z
_cell_length_a	14.971486
_cell_length_b	10.967829
_cell_length_c	10.065907
_cell_angle_alpha	86.901068
_cell_angle_beta	81.225050
_cell_angle_gamma	84.175477
loop_
_atom_site_label
_atom_site_type_symbol
_atom_site_fract_x
_atom_site_fract_y
_atom_site_fract_z
O1	O	1.204549	0.139083	-0.146042
O2	O	0.944763	0.157840	-0.150490
O3	O	1.075943	-0.026547	-0.107100
O4	O	1.073370	0.323470	-0.189431
O5	O	1.050878	0.008688	0.111597
O6	O	0.919699	0.193075	0.068208
O7	O	1.179485	0.174318	0.072656
Zn8	Zn	1.045612	0.189291	0.105155
Zn9	Zn	1.078636	0.142867	-0.182989
O10	O	1.048305	0.358705	0.029266
C11	C	0.898880	0.174618	-0.040948
C12	C	0.799502	0.172101	-0.040370
C13	C	0.745800	0.280425	-0.065848
C14	C	0.652422	0.278058	-0.065271
C15	C	0.612748	0.167365	-0.039225
C16	C	0.666456	0.059033	-0.013742
C17	C	0.759832	0.061402	-0.014310
C18	C	0.471831	0.054101	-0.012563
C19	C	0.378449	0.051731	-0.011997
C20	C	0.364421	0.270757	-0.063525
C21	C	0.457796	0.273127	-0.064093
C22	C	0.511499	0.164794	-0.038611
C23	C	1.061330	-0.053723	0.012781
C24	C	1.055118	-0.187195	0.044167
C25	C	1.065333	-0.264947	-0.055134
C26	C	1.058914	-0.402898	-0.022698
C27	C	1.225369	0.157540	-0.036889
C28	C	1.324747	0.160055	-0.037475
C29	C	1.062919	0.385881	-0.090618
C30	C	1.069131	0.519351	-0.122012
N31	N	1.023081	0.220973	0.301805
C32	C	1.053461	0.178270	0.536796
C33	C	1.070794	0.153878	0.385369
N34	N	1.101167	0.111185	0.620361
H35	H	0.608701	0.366267	-0.086020
H36	H	1.045410	-0.438452	0.086337
H37	H	1.082619	-0.445093	-0.231049
H38	H	0.515553	-0.034115	0.008189
H39	H	0.490097	0.363261	-0.085314
H40	H	0.320691	0.358967	-0.084267
H41	H	0.346149	-0.038405	0.009213
H42	H	1.041615	-0.222755	0.153194
H43	H	0.999782	0.253760	0.577356
H44	H	0.634144	-0.031093	0.007484
H45	H	1.124469	0.078375	0.344815
H46	H	1.154839	0.035688	0.579801
H47	H	0.969399	0.296467	0.342361
H48	H	0.803556	-0.026807	0.006437
H49	H	0.778096	0.370565	-0.087059
H50	H	1.078827	-0.229385	-0.164162
