data_functionalizedCrystal
_audit_creation_method	'MofGen! by Chris Wilmer'
_symmetry_space_group_name_H-M	'P1'
_symmetry_Int_Tables_number	1
_symmetry_cell_setting	triclinic
loop_
_symmetry_equiv_pos_as_xyz
  x,y,z
_cell_length_a	19.288840
_cell_length_b	19.288865
_cell_length_c	18.366186
_cell_angle_alpha	89.988521
_cell_angle_beta	89.983729
_cell_angle_gamma	83.131131
loop_
_atom_site_label
_atom_site_type_symbol
_atom_site_fract_x
_atom_site_fract_y
_atom_site_fract_z
O1	O	0.921364	0.086566	-0.060680
O2	O	0.719101	0.098273	-0.060655
O3	O	0.826077	-0.008712	-0.060654
O4	O	0.814388	0.193550	-0.060681
O5	O	0.826059	-0.008717	0.060446
O6	O	0.719083	0.098268	0.060444
O7	O	0.921346	0.086561	0.060420
Zn8	Zn	0.820211	0.092413	0.079659
Zn9	Zn	0.820235	0.092420	-0.079895
O10	O	0.814370	0.193545	0.060418
C11	C	0.693215	0.097896	-0.000102
C12	C	0.616110	0.096774	-0.000093
C13	C	0.579917	0.096238	-0.066106
C14	C	0.507470	0.095176	-0.066114
C15	C	0.471221	0.094636	-0.000106
C16	C	0.507423	0.095176	0.065915
C17	C	0.579868	0.096245	0.065922
C18	C	0.361886	0.052256	0.050461
C19	C	0.289443	0.051183	0.050451
C20	C	0.247778	0.091342	-0.000125
C21	C	0.278565	0.132566	-0.050703
C22	C	0.351009	0.133635	-0.050697
C23	C	0.392667	0.093477	-0.000107
C24	C	0.133029	0.089655	-0.066152
C25	C	0.060580	0.088598	-0.066158
C26	C	0.060535	0.088591	0.065874
C27	C	0.132982	0.089656	0.065878
C28	C	0.169225	0.090185	-0.000137
C29	C	0.825692	-0.034591	-0.000102
C30	C	0.824563	-0.111694	-0.000095
C31	C	0.887331	-0.156396	-0.000099
C32	C	0.886270	-0.228843	-0.000111
C33	C	0.822438	-0.256585	-0.000103
C34	C	0.759661	-0.211873	-0.000104
C35	C	0.760723	-0.139428	-0.000100
C36	C	0.772251	-0.364870	0.042321
C37	C	0.771191	-0.437314	0.042321
C38	C	0.819158	-0.480030	-0.000119
C39	C	0.868196	-0.450295	-0.042551
C40	C	0.869259	-0.377849	-0.042547
C41	C	0.821278	-0.335139	-0.000108
C42	C	0.880781	-0.603288	-0.000137
C43	C	0.879717	-0.675736	-0.000153
C44	C	0.753106	-0.658764	-0.000138
C45	C	0.754171	-0.586318	-0.000130
C46	C	0.818010	-0.558584	-0.000125
C47	C	0.947232	0.086937	-0.000135
C48	C	1.024336	0.088059	-0.000149
C49	C	0.814755	0.219424	-0.000135
C50	C	0.815884	0.296527	-0.000147
N51	N	0.820200	0.092408	0.188550
N52	N	0.820252	0.092420	-0.188786
C53	C	0.867584	0.045059	0.226651
C54	C	0.867589	0.045055	0.302879
C55	C	0.820215	0.092414	0.341003
C56	C	0.772822	0.139767	0.302893
C57	C	0.772814	0.139764	0.226666
C58	C	0.810917	0.155702	0.461755
C59	C	0.810930	0.155706	0.537980
C60	C	0.820235	0.092422	0.576110
C61	C	0.829543	0.029132	0.538006
C62	C	0.829535	0.029129	0.461780
C63	C	0.820218	0.092422	0.423658
C64	C	0.867627	0.045066	0.696866
C65	C	0.867627	0.045062	0.773096
C66	C	0.772863	0.139779	0.773108
C67	C	0.772860	0.139777	0.696880
C68	C	0.820246	0.092421	0.658764
H69	H	0.162538	0.090093	-0.119905
O70	O	0.406827	0.008940	0.105012
H71	H	0.400411	-0.047036	0.097534
H72	H	0.937386	-0.265246	-0.000117
H73	H	0.264383	0.017613	0.091632
H74	H	0.734249	0.178326	0.333937
O75	O	0.721769	0.190873	0.814204
H76	H	0.688102	0.161738	0.848962
H77	H	0.837120	-0.022400	0.569050
O78	O	0.918736	-0.006015	0.814191
H79	H	0.910776	0.001935	0.873600
O80	O	0.619008	0.096814	-0.137304
H81	H	0.598770	0.143944	-0.168964
O82	O	0.800900	0.223969	0.579069
H83	H	0.753641	0.225692	0.613826
O84	O	0.233637	0.175890	-0.105256
H85	H	0.178089	0.168232	-0.096759
H86	H	0.734278	0.178336	0.665856
H87	H	0.803327	0.207239	0.430716
O88	O	0.021540	0.087995	-0.137361
H89	H	0.058918	0.088526	-0.183260
H90	H	0.707687	-0.234465	-0.000099
O91	O	0.684257	-0.688679	-0.000126
H92	H	0.654114	-0.670699	-0.049482
O93	O	0.468288	0.094930	0.137111
H94	H	0.411816	0.094213	0.126017
H95	H	0.734228	0.178322	0.195644
H96	H	0.733189	-0.330095	0.076885
H97	H	0.906167	0.006497	0.195619
O98	O	0.021433	0.088140	0.137072
H99	H	-0.035029	0.087351	0.125978
O100	O	0.947422	-0.723955	-0.000160
H101	H	0.949949	-0.757384	0.049191
H102	H	0.837112	-0.022404	0.430759
H103	H	0.906209	0.006503	0.665831
O104	O	0.718307	-0.469385	0.088089
H105	H	0.664837	-0.448290	0.070622
H106	H	0.477995	0.094741	-0.119872
O107	O	0.919943	-0.496348	-0.088333
H108	H	0.891368	-0.525572	-0.128185
O109	O	0.384218	0.178102	-0.105235
H110	H	0.343079	0.205855	-0.140404
H111	H	0.162452	0.090088	0.119633
O112	O	0.918703	-0.006015	0.343983
H113	H	0.910745	0.001942	0.403391
H114	H	0.609336	0.096683	0.119680
H115	H	0.939314	-0.133820	-0.000098
H116	H	0.703058	-0.549920	-0.000122
O117	O	0.922135	-0.345772	-0.088320
H118	H	0.955309	-0.387640	-0.117841
H119	H	0.932763	-0.580706	-0.000137
H120	H	0.709608	-0.103030	-0.000096
