data_functionalizedCrystal
_audit_creation_method	'MofGen! by Chris Wilmer'
_symmetry_space_group_name_H-M	'P1'
_symmetry_Int_Tables_number	1
_symmetry_cell_setting	triclinic
loop_
_symmetry_equiv_pos_as_xyz
  x,y,z
_cell_length_a	14.971482
_cell_length_b	19.188930
_cell_length_c	13.448316
_cell_angle_alpha	89.988273
_cell_angle_beta	89.993798
_cell_angle_gamma	83.378695
loop_
_atom_site_label
_atom_site_type_symbol
_atom_site_fract_x
_atom_site_fract_y
_atom_site_fract_z
O1	O	1.186469	0.090976	-0.082691
O2	O	0.926011	0.101874	-0.082697
O3	O	1.063756	-0.005207	-0.082674
O4	O	1.048724	0.198057	-0.082713
O5	O	1.063739	-0.005213	0.082710
O6	O	0.925993	0.101868	0.082687
O7	O	1.186452	0.090969	0.082693
Cu8	Cu	1.056221	0.096418	0.097791
Cu9	Cu	1.056241	0.096426	-0.097795
O10	O	1.048706	0.198050	0.082671
C11	C	0.892680	0.101384	-0.000005
C12	C	0.793390	0.099925	-0.000007
C13	C	0.746740	0.099234	0.090145
C14	C	0.653449	0.097852	0.090146
C15	C	0.606809	0.097165	-0.000005
C16	C	0.653466	0.097854	-0.090164
C17	C	0.746756	0.099231	-0.090164
C18	C	0.459019	0.094985	-0.090157
C19	C	0.365722	0.093609	-0.090157
C20	C	0.365712	0.093606	0.090154
C21	C	0.459002	0.094983	0.090153
C22	C	0.505653	0.095673	-0.000006
C23	C	1.063261	-0.031222	0.000021
C24	C	1.061799	-0.108732	0.000029
C25	C	1.142624	-0.153396	0.000036
C26	C	1.141251	-0.226224	0.000020
C27	C	1.059049	-0.254385	0.000017
C28	C	0.978214	-0.209710	0.000005
C29	C	0.979589	-0.136884	0.000011
N30	N	0.996209	-0.362594	0.056299
N31	N	0.994909	-0.431776	0.056295
C32	C	1.054901	-0.473807	-0.000003
N33	N	1.116256	-0.444042	-0.056285
N34	N	1.117560	-0.374853	-0.056277
C35	C	1.057549	-0.333352	0.000010
C36	C	1.134242	-0.597441	-0.000015
C37	C	1.132866	-0.670270	-0.000037
C38	C	0.969826	-0.653754	-0.000042
C39	C	0.971205	-0.580926	-0.000030
C40	C	1.053415	-0.552774	-0.000012
C41	C	1.219782	0.091459	-0.000000
C42	C	1.319072	0.092919	-0.000005
C43	C	1.049202	0.224066	-0.000026
C44	C	1.050663	0.301575	-0.000041
N45	N	1.056213	0.096412	0.235355
N46	N	1.056256	0.096426	-0.235359
C47	C	1.117226	0.049016	0.287406
C48	C	1.117231	0.049015	0.391509
C49	C	1.056228	0.096415	0.443560
C50	C	0.995209	0.143813	0.391502
C51	C	0.995200	0.143809	0.287401
C52	C	0.995234	0.143817	0.608482
C53	C	0.995244	0.143822	0.712591
C54	C	1.117265	0.049023	0.712590
C55	C	1.117256	0.049020	0.608489
C56	C	1.056238	0.096419	0.556439
H57	H	0.327724	0.093044	0.163565
H58	H	1.207070	-0.262597	0.000021
Br59	Br	0.590175	0.096892	-0.212515
Br60	Br	0.810027	0.100173	0.212501
H61	H	0.911284	-0.232643	0.000001
Br62	Br	0.810070	0.100163	-0.212518
Br63	Br	1.245810	-0.559230	0.000020
Br64	Br	1.254194	-0.115193	0.000033
H65	H	0.615472	0.097278	0.163557
Br66	Br	0.912418	0.208143	0.537845
H67	H	0.913770	-0.100517	0.000006
Br68	Br	1.200053	-0.015301	0.537845
Br69	Br	1.242566	-0.730889	-0.000039
H70	H	0.905389	-0.544559	-0.000030
Br71	Br	1.200078	-0.015300	0.783233
H72	H	0.496999	0.095548	-0.163574
H73	H	1.166911	0.010422	0.433888
H74	H	0.902896	-0.676681	-0.000049
Br75	Br	1.200027	-0.015310	0.216776
H76	H	0.945568	0.182419	0.754965
H77	H	0.945535	0.182404	0.433888
Br78	Br	0.912388	0.208131	0.216761
H79	H	0.496973	0.095546	0.163563
H80	H	0.327751	0.093051	-0.163567
