data_functionalizedCrystal
_audit_creation_method	'MofGen! by Chris Wilmer'
_symmetry_space_group_name_H-M	'P1'
_symmetry_Int_Tables_number	1
_symmetry_cell_setting	triclinic
loop_
_symmetry_equiv_pos_as_xyz
  x,y,z
_cell_length_a	10.489741
_cell_length_b	17.699083
_cell_length_c	16.776229
_cell_angle_alpha	90.007545
_cell_angle_beta	89.995573
_cell_angle_gamma	96.088906
loop_
_atom_site_label
_atom_site_type_symbol
_atom_site_fract_x
_atom_site_fract_y
_atom_site_fract_z
O1	O	1.692074	-0.106782	-0.066241
O2	O	1.320692	-0.116805	-0.066253
O3	O	1.516876	-0.001673	-0.066240
O4	O	1.495891	-0.221914	-0.066254
O5	O	1.516850	-0.001666	0.066337
O6	O	1.320666	-0.116798	0.066323
O7	O	1.692048	-0.106775	0.066336
Zn8	Zn	1.506353	-0.111785	0.087379
Zn9	Zn	1.506387	-0.111795	-0.087296
O10	O	1.495865	-0.221907	0.066322
C11	C	1.273162	-0.116044	0.000033
C12	C	1.131574	-0.113779	0.000029
C13	C	1.516111	0.026533	0.000049
C14	C	1.513855	0.110565	0.000049
N15	N	1.506339	-0.111778	0.206590
C16	C	1.064795	-0.040524	0.000041
C17	C	0.972038	-0.075133	-0.065327
C18	C	0.972046	-0.075143	0.065384
C19	C	1.040682	-0.148418	-0.065393
C20	C	1.040700	-0.148418	0.065376
C21	C	0.947970	-0.183080	-0.000008
C22	C	1.739579	-0.107535	0.000047
C23	C	1.881166	-0.109800	0.000047
C24	C	1.496630	-0.250112	0.000032
C25	C	1.498886	-0.334145	0.000027
C26	C	1.629011	0.158433	0.000054
C27	C	1.626883	0.237390	0.000047
C28	C	1.509599	0.268478	0.000040
C29	C	1.394435	0.220605	0.000033
C30	C	1.396563	0.141649	0.000034
C31	C	1.385848	0.539024	0.000026
C32	C	1.383729	0.617986	0.000027
C33	C	1.616168	0.634765	0.000039
C34	C	1.618297	0.555810	0.000040
C35	C	1.503133	0.507943	0.000028
C36	C	1.505441	0.422328	0.000035
C37	C	1.507290	0.354091	0.000040
N38	N	1.506412	-0.111796	-0.206508
C39	C	1.593236	-0.060819	0.248313
C40	C	1.593243	-0.060818	0.331765
C41	C	1.506358	-0.111781	0.373493
C42	C	1.419453	-0.162743	0.331764
C43	C	1.419441	-0.162739	0.248313
C44	C	1.419499	-0.162758	0.668311
C45	C	1.419520	-0.162759	0.751768
C46	C	1.593301	-0.060837	0.751763
C47	C	1.593289	-0.060833	0.668313
C48	C	1.506379	-0.111792	0.626591
C49	C	1.506371	-0.111791	0.536103
C50	C	1.506372	-0.111786	0.463980
H51	H	0.941611	-0.044140	-0.120587
C52	C	1.133424	0.040828	-0.000053
H53	H	1.110103	0.066727	-0.046559
H54	H	1.108968	0.067133	0.045910
H55	H	1.223560	0.038807	0.000408
C56	C	1.323842	-0.218779	0.377658
H57	H	1.272068	-0.249117	0.340855
H58	H	1.369585	-0.250563	0.410214
H59	H	1.270854	-0.191219	0.410210
H60	H	1.664042	-0.019337	0.634341
C61	C	0.930958	-0.033257	0.140042
H62	H	0.873638	-0.066670	0.170826
H63	H	1.004475	-0.016763	0.171025
H64	H	0.889389	0.009504	0.124327
H65	H	1.664064	-0.019341	0.785742
C66	C	1.753555	0.290042	0.000061
H67	H	1.823708	0.260218	0.000076
H68	H	1.757578	0.321187	-0.046171
H69	H	1.757536	0.321195	0.046299
H70	H	1.348764	-0.204261	0.785741
H71	H	1.292075	0.500060	0.000017
H72	H	1.298940	0.245923	0.000023
C73	C	1.758025	0.124243	0.000061
H74	H	1.826301	0.164063	0.000056
H75	H	1.763682	0.093797	0.046293
H76	H	1.763694	0.093787	-0.046177
C77	C	1.081551	-0.190278	-0.140124
H78	H	1.171886	-0.191445	-0.139685
H79	H	1.040486	-0.240764	-0.140296
H80	H	1.057513	-0.164440	-0.186496
H81	H	1.713801	0.530502	0.000049
H82	H	1.709940	0.673748	0.000044
C83	C	1.688808	-0.004758	0.202420
H84	H	1.740552	0.025596	0.239224
H85	H	1.741810	-0.032287	0.169853
H86	H	1.643014	0.027018	0.169880
C87	C	1.688841	-0.004770	0.377658
H88	H	1.740597	0.025573	0.340854
H89	H	1.643081	0.027006	0.410225
H90	H	1.741847	-0.032317	0.410198
H91	H	1.288216	0.643294	0.000024
H92	H	1.348679	-0.204234	0.214343
C93	C	1.323914	-0.218816	0.622428
H94	H	1.272184	-0.249173	0.659233
H95	H	1.270899	-0.191285	0.589885
H96	H	1.369695	-0.250590	0.589864
C97	C	0.879676	-0.264514	-0.000060
H98	H	0.903155	-0.290411	-0.046538
H99	H	0.904223	-0.290729	0.045931
H100	H	0.789505	-0.262636	0.000377
C101	C	1.081865	-0.190250	0.140029
H102	H	1.058644	-0.164148	0.186434
H103	H	1.040256	-0.240605	0.140496
H104	H	1.172110	-0.191785	0.139222
H105	H	1.302792	0.102675	0.000030
