data_functionalizedCrystal
_audit_creation_method	'MofGen! by Chris Wilmer'
_symmetry_space_group_name_H-M	'P1'
_symmetry_Int_Tables_number	1
_symmetry_cell_setting	triclinic
loop_
_symmetry_equiv_pos_as_xyz
  x,y,z
_cell_length_a	14.971506
_cell_length_b	13.448316
_cell_length_c	14.971486
_cell_angle_alpha	90.007486
_cell_angle_beta	96.381742
_cell_angle_gamma	89.998291
loop_
_atom_site_label
_atom_site_type_symbol
_atom_site_fract_x
_atom_site_fract_y
_atom_site_fract_z
O1	O	-1.186929	0.082699	0.116653
O2	O	-0.926531	0.082700	0.130592
O3	O	-1.063710	0.082692	-0.006577
O4	O	-1.049751	0.082707	0.253822
O5	O	-1.063707	-0.082691	-0.006589
O6	O	-0.926528	-0.082684	0.130581
O7	O	-1.186926	-0.082684	0.116641
Cu8	Cu	-1.056727	-0.097785	0.123610
Cu9	Cu	-1.056731	0.097800	0.123624
O10	O	-1.049748	-0.082677	0.253810
C11	C	-0.893205	0.000008	0.129960
C12	C	-0.793909	0.000008	0.128082
C13	C	-1.220252	0.000010	0.117273
C14	C	-1.319548	0.000016	0.119151
C15	C	-0.355627	0.000022	0.201500
C16	C	-0.448927	0.000027	0.203258
C17	C	-0.506147	0.000018	0.122665
C18	C	-0.470062	0.000015	0.040310
C19	C	-0.376764	0.000017	0.038553
C20	C	-0.664525	0.000007	0.043977
C21	C	-0.757831	0.000002	0.045733
C22	C	-0.736689	0.000016	0.208681
C23	C	-0.643390	0.000018	0.206924
C24	C	-0.607312	0.000013	0.124569
C25	C	-1.063084	0.000001	-0.039908
C26	C	-1.061213	0.000002	-0.139205
N27	N	-1.056734	0.235365	0.123627
N28	N	-1.056731	-0.235349	0.123599
C29	C	-1.117589	0.287402	0.063008
C30	C	-1.117593	0.391505	0.063005
C31	C	-1.056736	0.443569	0.123618
C32	C	-0.995877	0.391525	0.184244
C33	C	-0.995879	0.287424	0.184250
C34	C	-0.995878	0.608505	0.184225
C35	C	-0.995875	0.712613	0.184218
C36	C	-1.117592	0.712587	0.062981
C37	C	-1.117594	0.608485	0.062987
C38	C	-1.056733	0.556448	0.123611
C39	C	-1.141802	0.000001	-0.196424
C40	C	-1.140038	0.000011	-0.289724
C41	C	-1.057686	0.000015	-0.325802
C42	C	-0.977091	0.000019	-0.268575
C43	C	-0.978855	0.000016	-0.175278
C44	C	-0.973420	0.000022	-0.463038
C45	C	-0.971656	0.000023	-0.556342
C46	C	-1.134603	0.000017	-0.577485
C47	C	-1.136367	0.000015	-0.484187
C48	C	-1.055772	0.000017	-0.426966
C49	C	-1.050374	0.000017	0.287141
C50	C	-1.052244	0.000022	0.386438
H51	H	-0.309044	0.000022	0.267128
C52	C	-0.929941	0.551956	0.250148
C53	C	-0.977520	0.492223	0.305110
C54	C	-0.916807	0.440127	0.365851
H55	H	-0.892723	0.511257	0.217935
H56	H	-0.893707	0.597842	0.286294
H57	H	-1.013738	0.446342	0.268968
H58	H	-1.014735	0.532897	0.337343
H59	H	-0.880574	0.486014	0.401997
H60	H	-0.879592	0.399434	0.333631
H61	H	-0.949081	0.399600	0.403156
C62	C	-0.929659	0.230972	0.249957
C63	C	-0.841800	0.256265	0.235112
C64	C	-0.780775	0.204273	0.295620
H65	H	-0.939195	0.248003	0.309740
H66	H	-0.938316	0.161508	0.241276
H67	H	-0.833146	0.325714	0.243801
H68	H	-0.832235	0.239232	0.175341
H69	H	-0.789433	0.134809	0.286938
H70	H	-0.790320	0.221307	0.355399
H71	H	-0.721157	0.221419	0.285550
H72	H	-0.516658	0.000013	-0.025310
C73	C	-0.775814	-0.000171	0.298119
C74	C	-0.746772	-0.085266	0.346837
C75	C	-0.782814	-0.085481	0.429220
H76	H	-0.756208	0.057437	0.331417
H77	H	-0.839577	-0.000221	0.287653
H78	H	-0.683022	-0.085207	0.357306
H79	H	-0.766376	-0.142888	0.313566
H80	H	-0.846577	-0.085530	0.418754
H81	H	-0.763206	-0.027868	0.462510
H82	H	-0.763121	-0.143220	0.462282
C83	C	-0.625301	0.000203	-0.045410
C84	C	-0.572378	0.085302	-0.051189
C85	C	-0.536239	0.085518	-0.133521
H86	H	-0.589280	-0.057402	-0.049569
H87	H	-0.672714	0.000248	-0.093185
H88	H	-0.524971	0.085249	-0.003428
H89	H	-0.608379	0.142921	-0.047047
H90	H	-0.583652	0.085563	-0.181296
H91	H	-0.500222	0.027909	-0.137673
H92	H	-0.500333	0.143261	-0.137457
C93	C	-1.183569	0.768863	-0.003111
C94	C	-1.168980	0.743347	-0.090992
C95	C	-1.229726	0.795109	-0.151958
H96	H	-1.243279	0.751796	0.006658
H97	H	-1.174949	0.838360	0.005370
H98	H	-1.177607	0.673866	-0.099470
H99	H	-1.109282	0.760416	-0.100789
H100	H	-1.221106	0.864606	-0.143477
H101	H	-1.289432	0.778038	-0.142181
H102	H	-1.219830	0.777811	-0.211592
C103	C	-0.885821	-0.000024	-0.401060
C104	C	-0.813321	-0.000049	-0.452622
C105	C	-0.732614	-0.000109	-0.395559
H106	H	-0.882995	0.057632	-0.364197
H107	H	-0.883072	-0.057721	-0.364246
H108	H	-0.816068	0.057642	-0.489421
H109	H	-0.816117	-0.057701	-0.489483
H110	H	-0.729865	-0.057806	-0.358745
H111	H	-0.729798	0.057549	-0.358699
H112	H	-0.683413	-0.000135	-0.430536
C113	C	-0.487925	-0.000023	0.292757
C114	C	-0.417845	-0.000049	0.362960
C115	C	-0.453734	-0.000107	0.445422
H116	H	-0.523869	0.057634	0.296965
H117	H	-0.523855	-0.057719	0.296872
H118	H	-0.381931	0.057642	0.358846
H119	H	-0.381895	-0.057702	0.358782
H120	H	-0.489664	-0.057804	0.449537
H121	H	-0.489678	0.057551	0.449621
H122	H	-0.406192	-0.000134	0.493064
H123	H	-0.347391	0.000014	-0.028503
H124	H	-0.596803	0.000019	0.272550
C125	C	-0.819808	0.000062	-0.041863
C126	C	-0.768247	0.000100	-0.114363
C127	C	-0.825309	0.000174	-0.195070
H128	H	-0.856665	-0.057593	-0.044704
H129	H	-0.856629	0.057760	-0.044595
H130	H	-0.731442	-0.057592	-0.111631
H131	H	-0.731392	0.057751	-0.111551
H132	H	-0.862130	0.057872	-0.197802
H133	H	-0.862163	-0.057482	-0.197902
H134	H	-0.790333	0.000209	-0.244270
C135	C	-1.227510	0.000216	-0.351887
C136	C	-1.231277	0.085321	-0.406034
C137	C	-1.311853	0.085555	-0.463299
H138	H	-1.230298	-0.057385	-0.388819
H139	H	-1.276831	0.000263	-0.317066
H140	H	-1.181970	0.085265	-0.440852
H141	H	-1.228505	0.142936	-0.369126
H142	H	-1.361173	0.085602	-0.428477
H143	H	-1.314633	0.027950	-0.500225
H144	H	-1.314423	0.143302	-0.500038
H145	H	-1.167143	0.245018	0.013646
H146	H	-1.167147	0.433873	0.013646
H147	H	-0.946329	0.433922	0.233600
H148	H	-1.167144	0.566095	0.013627
H149	H	-1.208862	-0.000008	-0.167057
H150	H	-0.946320	0.754999	0.233576
H151	H	-1.203426	0.000004	-0.454815
H152	H	-0.910038	0.000028	-0.297958
H153	H	-1.200227	0.000019	-0.624078
H154	H	-0.904597	0.000010	-0.585714
H155	H	-0.913232	0.000017	-0.128690
