data_functionalizedCrystal
_audit_creation_method	'MofGen! by Chris Wilmer'
_symmetry_space_group_name_H-M	'P1'
_symmetry_Int_Tables_number	1
_symmetry_cell_setting	triclinic
loop_
_symmetry_equiv_pos_as_xyz
  x,y,z
_cell_length_a	15.944545
_cell_length_b	19.188924
_cell_length_c	14.421503
_cell_angle_alpha	90.002214
_cell_angle_beta	89.995153
_cell_angle_gamma	83.319068
loop_
_atom_site_label
_atom_site_type_symbol
_atom_site_fract_x
_atom_site_fract_y
_atom_site_fract_z
O1	O	1.114193	0.090018	-0.077056
O2	O	0.869601	0.101124	-0.077072
O3	O	0.998958	-0.006067	-0.077052
O4	O	0.984836	0.197209	-0.077075
O5	O	0.998937	-0.006051	0.077171
O6	O	0.869579	0.101140	0.077152
O7	O	1.114172	0.090034	0.077167
Cu8	Cu	0.991874	0.095588	0.091242
Cu9	Cu	0.991899	0.095570	-0.091146
O10	O	0.984814	0.197225	0.077148
C11	C	0.838298	0.100672	0.000038
C12	C	0.745057	0.099292	0.000033
C13	C	0.474690	0.028726	0.000050
C14	C	0.525133	0.062755	0.076089
C15	C	0.409431	0.094371	0.000049
C16	C	0.525135	0.062757	-0.075963
C17	C	0.574336	0.096785	0.000040
C18	C	0.458646	0.128382	0.076151
C19	C	0.458644	0.128374	-0.075970
C20	C	0.509054	0.162451	0.000087
C21	C	0.314435	0.092978	0.000056
C22	C	0.669330	0.098183	0.000040
C23	C	0.998491	-0.032071	0.000060
C24	C	0.997121	-0.109579	0.000063
C25	C	0.996494	-0.145989	-0.084005
C26	C	0.995194	-0.218815	-0.084012
C27	C	0.994540	-0.255231	0.000053
C28	C	0.995163	-0.218812	0.084132
C29	C	0.996454	-0.145987	0.084136
N30	N	1.040304	-0.374770	0.062624
N31	N	1.039080	-0.443951	0.062613
C32	C	0.990649	-0.474650	0.000044
N33	N	0.943500	-0.433554	-0.062529
N34	N	0.944728	-0.364367	-0.062522
C35	C	0.993140	-0.334198	0.000057
C36	C	0.988612	-0.590025	-0.084037
C37	C	0.987307	-0.662852	-0.084041
C38	C	0.987284	-0.662849	0.084105
C39	C	0.988580	-0.590022	0.084107
C40	C	0.989248	-0.553615	0.000033
C41	C	1.145475	0.090486	0.000056
C42	C	1.238716	0.091866	0.000055
C43	C	0.985281	0.223229	0.000034
C44	C	0.986651	0.300737	0.000025
N45	N	0.991862	0.095601	0.219523
N46	N	0.991917	0.095551	-0.219427
C47	C	0.932036	0.145144	0.469168
C48	C	1.007886	0.158698	0.530973
C49	C	0.991882	0.095585	0.408684
C50	C	0.916053	0.082047	0.530972
C51	C	0.991895	0.095570	0.591406
C52	C	1.067770	0.109170	0.469129
C53	C	0.975887	0.032492	0.469123
C54	C	1.051791	0.046018	0.530901
C55	C	0.991874	0.095595	0.303423
C56	C	0.991913	0.095559	0.696665
H57	H	0.429723	0.156091	0.140504
H58	H	0.997035	-0.116350	-0.152464
C59	C	0.651788	0.027586	0.162369
C60	C	0.564325	0.025342	0.162878
H61	H	0.675978	0.004489	0.215950
H62	H	0.675432	0.004728	0.108381
H63	H	0.663267	0.075066	0.162447
H64	H	0.552845	-0.022138	0.162793
H65	H	0.540672	0.048199	0.216880
H66	H	0.524332	0.219028	0.000126
H67	H	0.881478	0.187089	0.442062
C68	C	0.453161	0.131259	-0.242312
C69	C	0.419428	0.165757	-0.162761
H70	H	0.428944	0.154332	-0.295897
H71	H	0.512609	0.132035	-0.243243
H72	H	0.440792	0.084015	-0.241752
H73	H	0.431801	0.212999	-0.163317
H74	H	0.359966	0.164988	-0.161830
C75	C	0.995313	-0.211507	-0.250217
C76	C	0.994472	-0.258844	-0.176425
H77	H	0.994862	-0.236218	-0.307267
H78	H	0.946858	-0.177771	-0.246704
H79	H	1.044801	-0.188436	-0.246730
H80	H	0.944981	-0.281910	-0.179908
H81	H	1.042932	-0.292592	-0.179940
H82	H	1.102461	0.004099	0.557836
C83	C	1.062307	-0.516007	-0.181574
C84	C	0.989359	-0.550013	-0.176456
H85	H	1.062776	-0.491315	-0.238635
H86	H	1.062859	-0.483892	-0.131520
H87	H	1.110758	-0.549757	-0.178053
H88	H	0.940907	-0.516263	-0.179970
H89	H	0.988799	-0.582131	-0.226524
H90	H	0.986792	-0.692495	-0.152501
C91	C	0.878086	-0.053567	0.463569
C92	C	0.957575	-0.039504	0.432406
H93	H	0.866774	-0.098011	0.440894
H94	H	0.877445	-0.053970	0.529423
H95	H	0.836127	-0.018260	0.441507
H96	H	0.999535	-0.074808	0.454473
H97	H	0.958222	-0.039106	0.366538
H98	H	0.851920	0.070604	0.558140
C99	C	0.924638	-0.115713	0.227448
C100	C	0.997148	-0.105962	0.176550
H101	H	0.925072	-0.091005	0.284503
H102	H	0.875895	-0.098450	0.192901
H103	H	0.923782	-0.164298	0.239472
H104	H	0.998002	-0.057377	0.164521
H105	H	1.045905	-0.123221	0.211105
C106	C	1.104973	0.245374	0.535103
C107	C	1.026167	0.230713	0.567663
H108	H	1.116251	0.289835	0.557750
H109	H	1.147529	0.210207	0.556234
H110	H	1.104578	0.246033	0.469239
H111	H	1.026564	0.230049	0.633527
H112	H	0.983601	0.265889	0.546537
C113	C	0.487575	-0.081800	0.079891
C114	C	0.453835	-0.047588	0.000156
H115	H	0.474693	-0.128910	0.079960
H116	H	0.547093	-0.081451	0.080436
H117	H	0.463809	-0.058246	0.133353
H118	H	0.477606	-0.071139	-0.053306
H119	H	0.394305	-0.047941	-0.000397
H120	H	1.131917	0.120677	0.442078
C121	C	0.547366	-0.044664	-0.162581
C122	C	0.564321	0.025314	-0.162745
H123	H	0.571552	-0.067781	-0.216158
H124	H	0.571018	-0.067500	-0.108589
H125	H	0.488026	-0.046167	-0.162902
H126	H	0.623661	0.026817	-0.162418
H127	H	0.540672	0.048156	-0.216752
C128	C	0.993181	-0.330449	0.158782
C129	C	0.994443	-0.258838	0.176538
H130	H	0.992738	-0.355157	0.215833
H131	H	0.944009	-0.337057	0.124238
H132	H	1.041952	-0.347701	0.124244
H133	H	0.945669	-0.241584	0.211070
H134	H	1.043621	-0.252225	0.211097
C135	C	0.985263	-0.774476	0.158758
C136	C	0.986540	-0.702866	0.176513
H137	H	0.984799	-0.799181	0.215810
H138	H	0.936095	-0.781075	0.124200
H139	H	1.034038	-0.791738	0.124235
H140	H	0.937762	-0.685603	0.211031
H141	H	1.035713	-0.696263	0.211085
H142	H	0.989098	-0.560379	0.152564
