data_functionalizedCrystal
_audit_creation_method	'MofGen! by Chris Wilmer'
_symmetry_space_group_name_H-M	'P1'
_symmetry_Int_Tables_number	1
_symmetry_cell_setting	triclinic
loop_
_symmetry_equiv_pos_as_xyz
  x,y,z
_cell_length_a	11.026607
_cell_length_b	10.654550
_cell_length_c	9.130313
_cell_angle_alpha	90.003780
_cell_angle_beta	90.000037
_cell_angle_gamma	83.464540
loop_
_atom_site_label
_atom_site_type_symbol
_atom_site_fract_x
_atom_site_fract_y
_atom_site_fract_z
O1	O	0.170762	-1.704901	-0.121918
O2	O	0.187032	-1.342954	-0.121895
O3	O	0.001991	-1.493930	-0.121899
O4	O	0.355802	-1.553926	-0.121914
O5	O	0.001996	-1.493929	0.121700
O6	O	0.187037	-1.342953	0.121704
O7	O	0.170767	-1.704900	0.121681
Cu8	Cu	0.178902	-1.523927	0.143935
Cu9	Cu	0.178896	-1.523928	-0.144149
O10	O	0.355807	-1.553924	0.121685
C11	C	0.185839	-1.295897	-0.000092
C12	C	0.182265	-1.155677	-0.000083
C13	C	-0.043310	-1.482861	-0.000101
C14	C	-0.178302	-1.449867	-0.000104
N15	N	0.178906	-1.523934	0.346558
C16	C	-0.251341	-1.540970	-0.000112
C17	C	-0.390862	-1.506871	-0.000115
C18	C	0.401109	-1.564993	-0.000116
C19	C	0.536100	-1.597988	-0.000123
C20	C	0.171959	-1.751958	-0.000125
C21	C	0.175533	-1.892177	-0.000144
C22	C	0.291214	-1.099841	-0.000109
C23	C	0.287849	-0.968090	-0.000134
C24	C	0.066576	-0.948022	-0.000114
C25	C	0.069943	-1.079771	-0.000078
C26	C	0.418964	-1.111426	-0.000127
C27	C	0.415599	-0.979675	-0.000152
N28	N	0.178883	-1.523928	-0.346771
C29	C	0.096998	-1.590814	0.423208
C30	C	0.096983	-1.590808	0.576544
C31	C	0.260795	-1.457040	0.576568
C32	C	0.260803	-1.457040	0.423234
C33	C	0.002426	-1.668049	0.423195
C34	C	0.002411	-1.668043	0.576532
H35	H	-0.210581	-1.644212	-0.000109
H36	H	0.327472	-1.402575	0.639014
H37	H	-0.219062	-1.346625	-0.000107
O38	O	0.030022	-1.801860	0.631676
H39	H	-0.040692	-1.859539	0.591095
H40	H	0.032038	-1.765661	0.375630
O41	O	-0.444829	-1.370102	-0.000096
H42	H	-0.545945	-1.364781	-0.000086
H43	H	-0.024874	-0.886203	-0.000132
O44	O	-0.409936	-1.734757	-0.000124
H45	H	-0.308820	-1.740082	-0.000109
O46	O	0.466736	-0.930258	0.139144
H47	H	0.563271	-0.971227	0.152169
O48	O	0.479358	-0.938217	-0.135190
H49	H	0.513227	-1.022406	-0.201291
H50	H	0.327488	-1.402568	0.360827
O51	O	-0.047564	-1.140001	-0.000024
H52	H	-0.126230	-1.065081	-0.000036
H53	H	0.468929	-1.151603	0.101823
H54	H	-0.091025	-1.626321	0.381581
O55	O	0.472846	-1.170377	-0.139428
H56	H	0.567729	-1.146770	-0.152479
O57	O	-0.114581	-1.602290	0.639544
H58	H	-0.176597	-1.567433	0.548948
