data_functionalizedCrystal
_audit_creation_method	'MofGen! by Chris Wilmer'
_symmetry_space_group_name_H-M	'P1'
_symmetry_Int_Tables_number	1
_symmetry_cell_setting	triclinic
loop_
_symmetry_equiv_pos_as_xyz
  x,y,z
_cell_length_a	14.044191
_cell_length_b	14.044220
_cell_length_c	7.088929
_cell_angle_alpha	83.206932
_cell_angle_beta	96.775604
_cell_angle_gamma	93.190327
loop_
_atom_site_label
_atom_site_type_symbol
_atom_site_fract_x
_atom_site_fract_y
_atom_site_fract_z
O1	O	1.268206	0.239180	-0.158906
O2	O	1.601540	0.572514	0.174428
O3	O	1.934873	0.905847	0.507761
O4	O	0.991533	0.230869	-0.158929
O5	O	1.324866	0.564202	0.174404
O6	O	1.658199	0.897536	0.507737
O7	O	1.125718	0.096688	-0.158899
O8	O	1.459051	0.430021	0.174434
O9	O	1.792384	0.763355	0.507768
O10	O	1.134021	0.373362	-0.158936
O11	O	1.467355	0.706695	0.174397
O12	O	1.800688	1.040028	0.507731
O13	O	1.143646	0.078712	0.159080
O14	O	1.476980	0.412045	0.492414
O15	O	1.810313	0.745378	0.825747
O16	O	1.009461	0.212893	0.159050
O17	O	1.342795	0.546226	0.492383
O18	O	1.676128	0.879560	0.825716
O19	O	1.286135	0.221204	0.159074
O20	O	1.619468	0.554538	0.492407
O21	O	1.952802	0.887871	0.825740
Cu22	Cu	1.149435	0.215407	0.188096
Cu23	Cu	1.482769	0.548740	0.521429
Cu24	Cu	1.816102	0.882074	0.854762
Cu25	Cu	1.128232	0.236666	-0.187952
Cu26	Cu	1.461566	0.569999	0.145382
Cu27	Cu	1.794899	0.903333	0.478715
O28	O	1.151950	0.355385	0.159043
O29	O	1.485283	0.688719	0.492376
O30	O	1.818617	1.022052	0.825710
C31	C	0.964875	0.218245	0.000057
C32	C	1.298208	0.551578	0.333391
C33	C	1.631541	0.884911	0.666724
C34	C	0.858731	0.207398	0.000049
C35	C	1.192065	0.540731	0.333382
C36	C	1.525398	0.874064	0.666715
C37	C	0.613273	0.264498	0.000060
C38	C	0.946607	0.597831	0.333394
C39	C	1.279940	0.931164	0.666727
C40	C	0.664399	0.187581	0.000067
C41	C	0.997733	0.520914	0.333401
C42	C	1.331066	0.854248	0.666734
C43	C	0.772536	0.198610	0.000057
C44	C	1.105869	0.531943	0.333390
C45	C	1.439202	0.865276	0.666724
C46	C	0.505127	0.253470	0.000070
C47	C	0.838461	0.586804	0.333404
C48	C	1.171794	0.920137	0.666737
C49	C	1.131046	0.052078	0.000091
C50	C	1.464380	0.385411	0.333424
C51	C	1.797713	0.718744	0.666758
C52	C	1.120202	-0.054065	0.000093
C53	C	1.453535	0.279268	0.333426
C54	C	1.786868	0.612601	0.666759
C55	C	1.100374	-0.248402	0.000063
C56	C	1.433707	0.084931	0.333397
C57	C	1.767041	0.418265	0.666730
C58	C	1.177289	-0.299530	0.000064
C59	C	1.510622	0.033803	0.333397
C60	C	1.843955	0.367137	0.666731
C61	C	1.166256	-0.407665	0.000048
C62	C	1.499589	-0.074332	0.333381
C63	C	1.832923	0.259001	0.666715
C64	C	1.111405	-0.140256	0.000080
C65	C	1.444738	0.193077	0.333413
C66	C	1.778072	0.526410	0.666746
C67	C	1.312793	0.233829	0.000083
C68	C	1.646126	0.567162	0.333416
C69	C	1.979459	0.900496	0.666749
C70	C	1.418935	0.244676	0.000079
C71	C	1.752269	0.578010	0.333412
C72	C	2.085602	0.911343	0.666745
C73	C	1.146621	0.399996	0.000049
C74	C	1.479954	0.733329	0.333382
C75	C	1.813288	1.066662	0.666716
C76	C	1.157465	0.506140	0.000035
C77	C	1.490798	0.839473	0.333368
C78	C	1.824132	1.172806	0.666702
N79	N	1.164355	0.200455	0.452587
N80	N	1.497688	0.533788	0.785920
N81	N	1.831022	0.867121	1.119254
N82	N	1.113319	0.251612	-0.452443
N83	N	1.446653	0.584945	-0.119110
N84	N	1.779986	0.918278	0.214224
H85	H	0.626949	0.113456	-0.000057
H86	H	0.960282	0.446789	0.333276
H87	H	1.293615	0.780122	0.666609
H88	H	1.060427	0.304625	0.465899
H89	H	1.393760	0.637958	0.799232
H90	H	1.727093	0.971291	1.132565
H91	H	0.650714	0.338625	0.000045
H92	H	0.984047	0.671958	0.333378
H93	H	1.317380	1.005292	0.666711
O94	O	1.234429	0.130229	0.560741
O95	O	1.567762	0.463562	0.894074
O96	O	1.901095	0.796895	1.227408
H97	H	1.233195	0.131466	0.716698
H98	H	1.566529	0.464799	1.050031
H99	H	1.899862	0.798133	1.383365
H100	H	1.251415	-0.262082	-0.000058
H101	H	1.584749	0.071251	0.333276
H102	H	1.918082	0.404585	0.666609
H103	H	1.026245	-0.285840	0.000052
H104	H	1.359579	0.047493	0.333386
H105	H	1.692912	0.380827	0.666719
