data_functionalizedCrystal
_audit_creation_method	'MofGen! by Chris Wilmer'
_symmetry_space_group_name_H-M	'P1'
_symmetry_Int_Tables_number	1
_symmetry_cell_setting	triclinic
loop_
_symmetry_equiv_pos_as_xyz
  x,y,z
_cell_length_a	11.792241
_cell_length_b	14.971482
_cell_length_c	14.048226
_cell_angle_alpha	89.994098
_cell_angle_beta	89.993434
_cell_angle_gamma	83.903012
loop_
_atom_site_label
_atom_site_type_symbol
_atom_site_fract_x
_atom_site_fract_y
_atom_site_fract_z
O1	O	0.147889	1.187542	-0.079149
O2	O	0.165606	0.927212	-0.079153
O3	O	-0.008464	1.063694	-0.079144
O4	O	0.321959	1.051059	-0.079158
O5	O	-0.008474	1.063678	0.079177
O6	O	0.165596	0.927195	0.079168
O7	O	0.147879	1.187525	0.079173
Zn8	Zn	0.156736	1.057358	0.104307
Zn9	Zn	0.156749	1.057379	-0.104288
O10	O	0.321949	1.051043	0.079164
C11	C	0.164809	0.893876	0.000007
C12	C	0.162437	0.794569	0.000005
C13	C	0.161314	0.747911	0.086307
C14	C	0.159067	0.654603	0.086308
C15	C	0.157951	0.607955	0.000006
C16	C	0.159071	0.654620	-0.086302
C17	C	0.161310	0.747927	-0.086302
C18	C	0.154407	0.460139	-0.086296
C19	C	0.152170	0.366826	-0.086296
C20	C	0.152165	0.366816	0.086315
C21	C	0.154404	0.460123	0.086315
C22	C	0.155525	0.506781	0.000006
C23	C	-0.050755	1.062892	0.000016
C24	C	-0.176753	1.060517	0.000015
C25	C	-0.407437	1.056149	-0.000001
C26	C	-0.279068	1.058576	0.000008
C27	C	0.364240	1.051845	0.000001
C28	C	0.490238	1.054220	-0.000004
C29	C	0.148675	1.220861	0.000010
C30	C	0.151048	1.320168	0.000006
N31	N	0.156726	1.057349	0.246668
N32	N	0.156750	1.057395	-0.246649
C33	C	0.079679	1.117803	0.296490
C34	C	0.079679	1.117809	0.396148
C35	C	0.156731	1.057365	0.445981
C36	C	0.233781	0.996905	0.396152
C37	C	0.233775	0.996895	0.296497
C38	C	0.233789	0.996931	0.603867
C39	C	0.233796	0.996941	0.703529
C40	C	0.079693	1.117844	0.703518
C41	C	0.079687	1.117835	0.603862
C42	C	0.156739	1.057376	0.554040
H43	H	0.151252	0.328823	0.156591
C44	C	0.318551	0.930445	0.758345
N45	N	0.382387	0.880357	0.799631
C46	C	-0.005074	1.184326	0.549047
N47	N	-0.068920	1.234406	0.507760
H48	H	0.016940	1.167027	0.255922
C49	C	0.318541	0.930399	0.241693
N50	N	0.382390	0.880312	0.200416
H51	H	0.151263	0.328847	-0.156571
C52	C	0.318538	0.930413	0.549065
N53	N	0.382370	0.880312	0.507788
H54	H	0.155319	0.498101	0.156589
C55	C	0.155647	0.511461	-0.181241
N56	N	0.156589	0.550115	-0.252752
H57	H	0.162232	0.785884	0.156584
C58	C	0.162547	0.799250	-0.181241
N59	N	0.163476	0.837905	-0.252753
H60	H	0.158134	0.616620	0.156584
H61	H	0.016941	1.167034	0.436712
H62	H	0.158154	0.616632	-0.156571
H63	H	0.016955	1.167072	0.744089
H64	H	0.296514	0.947686	0.436733
