data_functionalizedCrystal
_audit_creation_method	'MofGen! by Chris Wilmer'
_symmetry_space_group_name_H-M	'P1'
_symmetry_Int_Tables_number	1
_symmetry_cell_setting	triclinic
loop_
_symmetry_equiv_pos_as_xyz
  x,y,z
_cell_length_a	9.065218
_cell_length_b	15.995292
_cell_length_c	7.540329
_cell_angle_alpha	89.999602
_cell_angle_beta	89.996962
_cell_angle_gamma	84.242251
loop_
_atom_site_label
_atom_site_type_symbol
_atom_site_fract_x
_atom_site_fract_y
_atom_site_fract_z
O1	O	1.957462	0.122773	-0.147473
O2	O	1.527937	0.132844	-0.147474
O3	O	1.754486	0.006007	-0.147476
O4	O	1.730914	0.249610	-0.147471
O5	O	1.754472	0.006005	0.147489
O6	O	1.527923	0.132842	0.147491
O7	O	1.957449	0.122772	0.147492
Cu8	Cu	1.742685	0.127807	0.174424
Cu9	Cu	1.742701	0.127809	-0.174406
O10	O	1.730900	0.249608	0.147494
C11	C	1.472967	0.131875	0.000008
C12	C	1.309193	0.128981	0.000007
C13	C	1.753520	-0.025197	0.000002
C14	C	1.750643	-0.118172	-0.000011
C15	C	1.740069	-0.455990	0.000005
C16	C	1.903586	-0.431438	0.000664
C17	C	1.906694	-0.334739	-0.000007
C18	C	1.745316	-0.288395	-0.000002
C19	C	1.663573	-0.318115	-0.168436
C20	C	1.661605	-0.414920	-0.168571
C21	C	1.658250	-0.414804	0.166859
C22	C	1.664310	-0.318266	0.169079
C23	C	1.748273	-0.193676	-0.000012
C24	C	1.737108	-0.550708	0.000003
C25	C	2.012419	0.123740	0.000006
C26	C	2.176193	0.126634	-0.000004
C27	C	1.731866	0.280812	0.000012
C28	C	1.734742	0.373787	0.000014
N29	N	1.742684	0.127805	0.419773
N30	N	1.742713	0.127804	-0.419755
H31	H	1.970714	-0.315229	0.120731
H32	H	1.966608	-0.458958	0.121456
H33	H	1.544820	-0.287147	-0.174695
C34	C	1.738122	-0.450570	-0.338657
N35	N	1.795765	-0.477418	-0.466764
H36	H	1.709739	-0.442503	0.294532
H37	H	1.541713	-0.430379	-0.176199
C38	C	1.740282	-0.290441	-0.337783
N39	N	1.798070	-0.269600	-0.465332
C40	C	1.495656	-0.434951	0.168416
N41	N	1.373197	-0.450134	0.169581
H42	H	1.723831	-0.299250	0.293685
H43	H	1.966269	-0.459980	-0.119449
C44	C	1.993700	-0.309210	-0.163413
N45	N	2.059233	-0.289983	-0.286501
C46	C	1.505174	-0.274937	0.182825
N47	N	1.385306	-0.242302	0.193163
