data_functionalizedCrystal
_audit_creation_method	'MofGen! by Chris Wilmer'
_symmetry_space_group_name_H-M	'P1'
_symmetry_Int_Tables_number	1
_symmetry_cell_setting	triclinic
loop_
_symmetry_equiv_pos_as_xyz
  x,y,z
_cell_length_a	17.038272
_cell_length_b	11.026607
_cell_length_c	10.065918
_cell_angle_alpha	82.291637
_cell_angle_beta	99.204799
_cell_angle_gamma	80.151214
loop_
_atom_site_label
_atom_site_type_symbol
_atom_site_fract_x
_atom_site_fract_y
_atom_site_fract_z
O1	O	0.344857	-1.661692	0.113509
O2	O	0.307027	-1.304480	0.113509
O3	O	0.211826	-1.480961	0.113499
O4	O	0.440058	-1.485210	0.113520
O5	O	0.186566	-1.446489	-0.113492
O6	O	0.281766	-1.270008	-0.113481
O7	O	0.319597	-1.627220	-0.113481
Zn8	Zn	0.296671	-1.443141	-0.149521
Zn9	Zn	0.329953	-1.488559	0.149549
O10	O	0.414797	-1.450738	-0.113470
C11	C	0.169524	-1.459863	0.000004
C12	C	0.081107	-1.448341	0.000004
C13	C	0.287417	-1.241313	0.000014
C14	C	0.266612	-1.104451	0.000014
N15	N	0.273958	-1.412153	-0.353628
C16	C	0.045899	-1.554125	0.000002
C17	C	-0.037176	-1.543294	0.000015
C18	C	-0.085044	-1.426676	0.000020
C19	C	-0.049830	-1.320885	0.000026
C20	C	0.033246	-1.331719	0.000022
C21	C	-0.336193	-1.388403	0.000039
C22	C	-0.419274	-1.377576	0.000038
C23	C	-0.406615	-1.599986	0.000030
C24	C	-0.323539	-1.610809	0.000019
C25	C	-0.288332	-1.505019	0.000032
C26	C	-0.169961	-1.415601	0.000029
C27	C	-0.203415	-1.516096	0.000032
C28	C	0.457100	-1.471837	0.000028
C29	C	0.545518	-1.483360	0.000036
C30	C	0.339207	-1.690387	0.000017
C31	C	0.360013	-1.827251	0.000026
C32	C	0.324059	-1.036577	0.000020
C33	C	0.302558	-0.895122	0.000020
C34	C	0.322049	-1.477769	-0.421403
C35	C	0.304563	-1.453930	-0.578572
N36	N	0.352661	-1.519556	0.353656
H37	H	-0.065839	-1.629434	0.000011
H38	H	0.084866	-1.649086	-0.000010
H39	H	0.389159	-1.083188	0.000019
O40	O	-0.277154	-1.724194	0.000070
C41	C	-0.273380	-1.943635	-0.000041
C42	C	-0.325999	-1.815309	-0.000053
H43	H	-0.312852	-2.017331	-0.000170
H44	H	-0.223604	-1.968788	0.094969
H45	H	-0.244730	-1.939766	-0.095021
H46	H	-0.354704	-1.819081	0.094862
H47	H	-0.375728	-1.790205	-0.095127
O48	O	0.188907	-1.048874	-0.000232
C49	C	0.049805	-1.003819	-0.117792
C50	C	0.137774	-1.066782	-0.117701
H51	H	0.008437	-1.018297	-0.212741
H52	H	0.046244	-0.899618	-0.117879
H53	H	0.029602	-1.047006	-0.022755
H54	H	0.158034	-1.023695	-0.212722
H55	H	0.141286	-1.170981	-0.117542
H56	H	-0.435290	-1.686114	0.000022
H57	H	0.219838	-1.338330	-0.411959
H58	H	-0.458249	-1.282604	0.000020
O59	O	-0.216397	-1.302224	-0.000156
C60	C	-0.265775	-1.090982	-0.117795
C61	C	-0.213143	-1.219307	-0.117746
H62	H	-0.263176	-1.023916	-0.212870
H63	H	-0.241982	-1.052605	-0.022867
H64	H	-0.331184	-1.101457	-0.117721
H65	H	-0.147723	-1.208938	-0.117868
H66	H	-0.237003	-1.257640	-0.212665
O67	O	0.386701	-1.565763	-0.351977
C68	C	0.531846	-1.634806	-0.307891
C69	C	0.458697	-1.535080	-0.386620
H70	H	0.590074	-1.610021	-0.335849
H71	H	0.525210	-1.729826	-0.335911
H72	H	0.534404	-1.638358	-0.193538
H73	H	0.456094	-1.531415	-0.500991
H74	H	0.465362	-1.440110	-0.358487
O75	O	0.417317	-1.607556	-0.576931
C76	C	0.562462	-1.676596	-0.532868
C77	C	0.489311	-1.576867	-0.611583
H78	H	0.620688	-1.651806	-0.560834
H79	H	0.555826	-1.771613	-0.560894
H80	H	0.565027	-1.680156	-0.418513
H81	H	0.486702	-1.573194	-0.725956
H82	H	0.495977	-1.481900	-0.583444
H83	H	-0.307537	-1.302260	0.000049
O84	O	0.224878	-0.839700	0.000197
C85	C	0.111977	-0.830243	0.117829
C86	C	0.199941	-0.893135	0.117781
H87	H	0.091794	-0.873401	0.212900
H88	H	0.070550	-0.844630	0.022897
H89	H	0.108486	-0.726060	0.117763
H90	H	0.203510	-0.997334	0.117896
H91	H	0.241328	-0.878647	0.212705
H92	H	-0.088809	-1.225934	0.000038
H93	H	0.425117	-0.873856	0.000023
H94	H	0.250439	-1.380103	-0.636898
O95	O	-0.156817	-1.629336	0.000210
C96	C	-0.042608	-1.788527	0.117835
C97	C	-0.095311	-1.660261	0.117795
H98	H	0.007121	-1.813582	0.212907
H99	H	-0.013911	-1.784752	0.022904
H100	H	-0.082061	-1.862250	0.117763
H101	H	-0.055914	-1.586468	0.117915
H102	H	-0.124015	-1.664140	0.212718
H103	H	0.061910	-1.245578	0.000024
