data_functionalizedCrystal
_audit_creation_method	'MofGen! by Chris Wilmer'
_symmetry_space_group_name_H-M	'P1'
_symmetry_Int_Tables_number	1
_symmetry_cell_setting	triclinic
loop_
_symmetry_equiv_pos_as_xyz
  x,y,z
_cell_length_a	14.044220
_cell_length_b	14.044220
_cell_length_c	17.766277
_cell_angle_alpha	89.993125
_cell_angle_beta	89.995720
_cell_angle_gamma	93.188878
loop_
_atom_site_label
_atom_site_type_symbol
_atom_site_fract_x
_atom_site_fract_y
_atom_site_fract_z
O1	O	1.277175	0.230170	-0.062517
O2	O	1.777175	0.730170	0.437483
O3	O	1.000503	0.221864	-0.062536
O4	O	1.500503	0.721864	0.437464
O5	O	1.134686	0.087681	-0.062519
O6	O	1.634686	0.587681	0.437481
O7	O	1.142992	0.364352	-0.062534
O8	O	1.642992	0.864352	0.437466
O9	O	1.134660	0.087671	0.062669
O10	O	1.634660	0.587671	0.562669
O11	O	1.000477	0.221854	0.062652
O12	O	1.500477	0.721854	0.562652
O13	O	1.277148	0.230160	0.062671
O14	O	1.777148	0.730160	0.562671
Cu15	Cu	1.138810	0.226006	0.074093
Cu16	Cu	1.638810	0.726006	0.574093
Cu17	Cu	1.138841	0.226018	-0.073957
Cu18	Cu	1.638841	0.726018	0.426043
O19	O	1.142965	0.364343	0.062655
O20	O	1.642965	0.864343	0.562655
C21	C	0.964868	0.218223	0.000056
C22	C	1.464868	0.718223	0.500056
C23	C	0.858725	0.207379	0.000049
C24	C	1.358725	0.707379	0.500049
C25	C	0.664388	0.187553	0.000065
C26	C	1.164388	0.687553	0.500065
C27	C	0.613258	0.264467	0.000064
C28	C	1.113258	0.764467	0.500064
C29	C	0.505122	0.253435	0.000073
C30	C	1.005122	0.753435	0.500073
C31	C	0.772534	0.198583	0.000056
C32	C	1.272534	0.698583	0.500056
C33	C	1.131037	0.052054	0.000075
C34	C	1.631037	0.552054	0.500075
C35	C	1.120193	-0.054088	0.000075
C36	C	1.620193	0.445912	0.500075
C37	C	1.100366	-0.248426	0.000063
C38	C	1.600366	0.251574	0.500063
C39	C	1.177281	-0.299556	0.000066
C40	C	1.677281	0.200444	0.500066
C41	C	1.166249	-0.407692	0.000059
C42	C	1.666249	0.092308	0.500059
C43	C	1.111397	-0.140280	0.000070
C44	C	1.611397	0.359720	0.500070
C45	C	1.312783	0.233800	0.000078
C46	C	1.812783	0.733800	0.500078
C47	C	1.418926	0.244645	0.000080
C48	C	1.918926	0.744645	0.500080
C49	C	1.146614	0.399969	0.000059
C50	C	1.646614	0.899969	0.500059
C51	C	1.157459	0.506112	0.000054
C52	C	1.657459	1.006112	0.500054
N53	N	1.138795	0.225998	0.178223
N54	N	1.638795	0.725998	0.678223
N55	N	1.138863	0.226019	-0.178088
N56	N	1.638863	0.726019	0.321912
C57	C	1.198235	0.166616	0.217617
C58	C	1.698235	0.666616	0.717617
C59	C	1.198240	0.166612	0.296419
C60	C	1.698240	0.666612	0.796419
C61	C	1.138816	0.226007	0.335823
C62	C	1.638816	0.726007	0.835823
C63	C	1.079364	0.285394	0.296420
C64	C	1.579364	0.785394	0.796420
C65	C	1.079354	0.285389	0.217619
C66	C	1.579354	0.785389	0.717619
C67	C	1.133659	0.311898	0.460656
C68	C	1.633659	0.811898	0.960656
C69	C	1.133676	0.311905	0.539455
C70	C	1.633676	0.811905	1.039455
C71	C	1.138842	0.226021	0.578870
C72	C	1.638842	0.726021	1.078870
C73	C	1.144012	0.140129	0.539476
C74	C	1.644012	0.640129	1.039476
C75	C	1.144001	0.140124	0.460676
C76	C	1.644001	0.640124	0.960676
C77	C	1.138820	0.226019	0.421269
C78	C	1.638820	0.726019	0.921269
C79	C	1.198291	0.166629	0.703710
C80	C	1.698291	0.666629	1.203710
C81	C	1.198289	0.166623	0.782513
C82	C	1.698289	0.666623	1.282513
C83	C	1.079419	0.285414	0.782512
C84	C	1.579419	0.785414	1.282512
C85	C	1.079415	0.285412	0.703711
C86	C	1.579415	0.785412	1.203711
C87	C	1.138856	0.226020	0.664314
C88	C	1.638856	0.726020	1.164314
H89	H	1.026239	-0.285863	0.000056
H90	H	1.526239	0.214137	0.500056
H91	H	1.246689	0.118262	0.814589
H92	H	1.746689	0.618262	1.314589
H93	H	0.650697	0.338600	0.000056
H94	H	1.150697	0.838600	0.500056
H95	H	0.626951	0.113425	0.000073
H96	H	1.126951	0.613425	0.500073
H97	H	1.031030	0.333772	0.814595
H98	H	1.531030	0.833772	1.314595
H99	H	1.246633	0.118253	0.185543
H100	H	1.746633	0.618253	0.685543
C101	C	1.263661	0.101293	0.660371
C102	C	1.763661	0.601293	1.160371
H103	H	1.299053	0.065914	0.695122
H104	H	1.799053	0.565914	1.195122
H105	H	1.306304	0.139016	0.629621
H106	H	1.806304	0.639016	1.129621
H107	H	1.225948	0.058624	0.629641
H108	H	1.725948	0.558624	1.129641
H109	H	1.246645	0.118253	0.328500
H110	H	1.746645	0.618253	0.828500
H111	H	1.148208	0.070188	0.428604
H112	H	1.648208	0.570188	0.928604
H113	H	1.251414	-0.262117	0.000020
H114	H	1.751414	0.237883	0.500020
H115	H	1.031017	0.333771	0.671634
H116	H	1.531017	0.833771	1.171634
H117	H	1.148218	0.070194	0.571565
H118	H	1.648218	0.570194	1.071565
C119	C	1.127996	0.406381	0.582782
C120	C	1.627996	0.906381	1.082782
H121	H	1.124902	0.457528	0.548024
H122	H	1.624902	0.957528	1.048024
H123	H	1.183000	0.416329	0.613510
H124	H	1.683000	0.916329	1.113510
H125	H	1.072568	0.403579	0.613531
H126	H	1.572568	0.903579	1.113531
H127	H	1.129435	0.381839	0.428572
H128	H	1.629435	0.881839	0.928572
H129	H	1.030978	0.333753	0.328507
H130	H	1.530978	0.833753	0.828507
C131	C	1.013974	0.350720	0.174284
C132	C	1.513974	0.850720	0.674284
H133	H	0.978586	0.386099	0.209035
H134	H	1.478586	0.886099	0.709035
H135	H	0.971330	0.312995	0.143550
H136	H	1.471330	0.812995	0.643550
H137	H	1.051682	0.393389	0.143538
H138	H	1.551682	0.893389	0.643538
