data_functionalizedCrystal
_audit_creation_method	'MofGen! by Chris Wilmer'
_symmetry_space_group_name_H-M	'P1'
_symmetry_Int_Tables_number	1
_symmetry_cell_setting	triclinic
loop_
_symmetry_equiv_pos_as_xyz
  x,y,z
_cell_length_a	14.908571
_cell_length_b	14.908520
_cell_length_c	11.169409
_cell_angle_alpha	86.739668
_cell_angle_beta	93.316289
_cell_angle_gamma	90.205961
loop_
_atom_site_label
_atom_site_type_symbol
_atom_site_fract_x
_atom_site_fract_y
_atom_site_fract_z
Zn1	Zn	1.354005	-0.437324	0.815923
Zn2	Zn	1.345212	-0.587708	0.626090
Zn3	Zn	1.203629	-0.428688	0.603060
Zn4	Zn	1.194932	-0.578949	0.814536
O5	O	1.274445	-0.508167	0.714902
O6	O	1.478664	-0.464554	0.800960
O7	O	1.326391	-0.566665	0.455086
O8	O	1.230896	-0.304012	0.622239
O9	O	1.472204	-0.575040	0.661491
O10	O	1.341376	-0.310358	0.778629
O11	O	1.222370	-0.449833	0.438166
O12	O	1.076650	-0.441340	0.620894
O13	O	1.216074	-0.560110	0.982669
O14	O	1.070261	-0.551736	0.776264
O15	O	1.332944	-0.456060	0.983688
O16	O	1.317958	-0.712367	0.660146
O17	O	1.207548	-0.705931	0.798596
C18	C	1.040830	-0.494651	0.695930
C19	C	0.940888	-0.488890	0.687844
C20	C	1.260880	-0.741775	0.731747
C21	C	1.255159	-0.841718	0.739001
C22	C	0.746470	-0.593198	0.834243
C23	C	0.652565	-0.587788	0.826650
C24	C	0.659171	-0.472656	0.665071
C25	C	0.753076	-0.478066	0.672664
C26	C	0.796722	-0.538340	0.757252
C27	C	0.890629	-0.543754	0.764839
C28	C	0.897234	-0.428617	0.603266
C29	C	0.803329	-0.423207	0.595673
C30	C	1.359497	-1.036168	0.608595
C31	C	1.354124	-1.130074	0.615407
C32	C	1.239047	-1.123436	0.759440
C33	C	1.244419	-1.029531	0.752629
C34	C	1.304645	-0.985900	0.677203
C35	C	1.310012	-0.891993	0.670385
C36	C	1.194940	-0.885357	0.814425
C37	C	1.189568	-0.979263	0.821236
C38	C	1.508971	-0.521737	0.733949
C39	C	1.608912	-0.527520	0.742065
C40	C	1.274519	-0.508071	1.027943
C41	C	1.274551	-0.508030	1.161343
C42	C	1.288087	-0.273649	0.698020
C43	C	1.293901	-0.173711	0.690825
C44	C	1.274426	-0.508201	0.403079
C45	C	1.274583	-0.507998	0.269676
H46	H	0.926164	-0.592834	0.833713
H47	H	1.408529	-1.000644	0.547171
O48	O	0.793556	-0.658204	0.925469
H49	H	0.742835	-0.695441	0.977735
H50	H	0.767779	-0.374132	0.526807
H51	H	1.398792	-1.170999	0.559542
H52	H	1.190020	-1.158977	0.820857
O53	O	1.124600	-1.026321	0.902570
H54	H	1.130070	-1.100065	0.895771
H55	H	0.611653	-0.632458	0.889346
H56	H	1.150274	-0.844418	0.870286
H57	H	1.359049	-0.856469	0.608966
H58	H	0.623619	-0.423578	0.596211
H59	H	0.938159	-0.383950	0.540572
