data_functionalizedCrystal
_audit_creation_method	'MofGen! by Chris Wilmer'
_symmetry_space_group_name_H-M	'P1'
_symmetry_Int_Tables_number	1
_symmetry_cell_setting	triclinic
loop_
_symmetry_equiv_pos_as_xyz
  x,y,z
_cell_length_a	8.559649
_cell_length_b	26.210047
_cell_length_c	8.559649
_cell_angle_alpha	89.994567
_cell_angle_beta	69.778664
_cell_angle_gamma	90.007600
loop_
_atom_site_label
_atom_site_type_symbol
_atom_site_fract_x
_atom_site_fract_y
_atom_site_fract_z
O1	O	2.126898	0.042421	-0.055060
O2	O	1.651413	0.042423	0.028721
O3	O	1.931046	0.042421	-0.250912
O4	O	1.847265	0.042423	0.224573
O5	O	1.930993	-0.042437	-0.250867
O6	O	1.651360	-0.042435	0.028766
O7	O	2.126845	-0.042437	-0.055015
Cu8	Cu	1.889097	-0.050184	-0.013121
Cu9	Cu	1.889160	0.050170	-0.013173
O10	O	1.847212	-0.042435	0.224618
C11	C	1.591077	-0.000006	0.035093
C12	C	1.411378	-0.000005	0.053992
N13	N	1.889065	-0.120768	-0.013086
C14	C	2.012967	-0.473283	-0.136969
C15	C	2.013006	-0.686942	-0.136995
O16	O	2.118288	-0.714564	-0.242311
N17	N	1.889173	-0.713662	-0.013210
C18	C	1.765316	-0.686965	0.110585
O19	O	1.659979	-0.714595	0.215861
C20	C	1.765272	-0.473307	0.110603
C21	C	1.889122	-0.446589	-0.013181
C22	C	2.136807	-0.446565	-0.260743
C23	C	2.136801	-0.393154	-0.260730
C24	C	2.012956	-0.366460	-0.136942
C25	C	1.889117	-0.393178	-0.013167
C26	C	1.641409	-0.446611	0.234390
C27	C	1.641407	-0.393193	0.234381
C28	C	1.765257	-0.366475	0.110597
C29	C	1.765266	-0.313073	0.110634
N30	N	1.889099	-0.286352	-0.013152
C31	C	2.012944	-0.313046	-0.136940
C32	C	1.765349	-0.799138	0.110568
C33	C	1.765362	-0.852552	0.110565
C34	C	2.013050	-0.852525	-0.137017
C35	C	2.013043	-0.799110	-0.137006
C36	C	1.889182	-0.772418	-0.013217
C37	C	2.012923	-0.200878	-0.136902
C38	C	2.012910	-0.147462	-0.136874
C39	C	1.765218	-0.147493	0.110703
C40	C	1.765234	-0.200905	0.110681
C41	C	1.889095	-0.227596	-0.013136
O42	O	1.660028	-0.285417	0.215883
O43	O	2.118243	-0.285407	-0.242222
C44	C	2.012973	-0.526694	-0.136982
C45	C	1.889134	-0.553412	-0.013207
C46	C	1.765289	-0.526719	0.110581
C47	C	1.889146	-0.606826	-0.013210
C48	C	2.012991	-0.633520	-0.136998
C49	C	2.136824	-0.606800	-0.260783
C50	C	2.136818	-0.553388	-0.260770
C51	C	1.641456	-0.553439	0.234366
C52	C	1.641473	-0.606851	0.234344
C53	C	1.765318	-0.633544	0.110556
C54	C	2.187180	-0.000007	-0.061387
C55	C	2.366879	-0.000005	-0.080286
C56	C	1.937369	-0.000007	-0.311198
C57	C	1.956268	-0.000004	-0.490898
N58	N	1.889206	0.120754	-0.013223
C59	C	1.840889	-0.000006	0.284904
C60	C	1.821990	-0.000006	0.464604
H61	H	1.466258	-0.000002	-0.209705
C62	C	1.629006	-0.230296	0.246852
C63	C	1.444631	-0.222954	0.266686
C64	C	1.308388	-0.252340	0.402850
C65	C	1.356521	-0.289067	0.519180
C66	C	1.540905	-0.296410	0.499349
C67	C	1.677148	-0.267024	0.363185
H68	H	1.408992	-0.195766	0.180569
H69	H	1.171895	-0.246904	0.417530
H70	H	1.255666	-0.310820	0.619977
H71	H	1.576544	-0.323598	0.585467
H72	H	1.813641	-0.272460	0.348505
C73	C	1.628986	-0.118125	0.246862
C74	C	1.628979	-0.059372	0.246857
C75	C	1.492737	-0.030003	0.383010
C76	C	1.356502	-0.059387	0.519168
C77	C	1.356504	-0.118144	0.519179
C78	C	1.492746	-0.147513	0.383026
H79	H	1.729833	-0.037617	0.146059
H80	H	1.492737	0.013493	0.383001
H81	H	1.255648	-0.037646	0.619957
H82	H	1.255650	-0.139899	0.619976
H83	H	1.492746	-0.191009	0.383035
C84	C	2.149271	-0.769723	-0.273178
C85	C	2.169229	-0.777067	-0.457584
C86	C	2.305460	-0.747683	-0.593765
C87	C	2.421734	-0.710956	-0.545541
C88	C	2.401780	-0.703611	-0.361126
C89	C	2.265548	-0.732995	-0.224945
H90	H	2.083153	-0.804256	-0.493291
H91	H	2.320231	-0.753121	-0.730281
H92	H	2.522581	-0.689205	-0.646350
H93	H	2.487856	-0.676423	-0.325420
H94	H	2.250778	-0.727557	-0.088429
H95	H	1.311990	-0.000002	0.183420
H96	H	2.113770	-0.125710	-0.237674
H97	H	2.085696	-0.000009	-0.590286
H98	H	2.237668	-0.531638	-0.361566
H99	H	2.113780	-0.222604	-0.237726
C100	C	1.629136	-0.881939	0.246740
C101	C	1.444759	-0.874603	0.266570
C102	C	1.308522	-0.903988	0.402743
C103	C	1.356661	-0.940708	0.519086
C104	C	1.541047	-0.948045	0.499259
C105	C	1.677284	-0.918660	0.363087
H106	H	1.409116	-0.847419	0.180443
H107	H	1.172028	-0.898556	0.417419
H108	H	1.255811	-0.962460	0.619889
H109	H	1.576690	-0.975229	0.585386
H110	H	1.813778	-0.924092	0.348410
H111	H	2.237646	-0.371403	-0.361529
H112	H	2.237657	-0.468294	-0.361554
H113	H	2.237668	-0.628542	-0.361572
H114	H	2.113892	-0.874268	-0.237808
H115	H	1.664483	-0.777408	0.211376
H116	H	1.692570	-0.000007	-0.436018
H117	H	1.540558	-0.468357	0.335185
H118	H	1.540539	-0.371462	0.335184
H119	H	1.540620	-0.628601	0.335158
H120	H	1.540605	-0.531709	0.335168
