data_functionalizedCrystal
_audit_creation_method	'MofGen! by Chris Wilmer'
_symmetry_space_group_name_H-M	'P1'
_symmetry_Int_Tables_number	1
_symmetry_cell_setting	triclinic
loop_
_symmetry_equiv_pos_as_xyz
  x,y,z
_cell_length_a	10.723024
_cell_length_b	19.188924
_cell_length_c	9.198806
_cell_angle_alpha	89.994752
_cell_angle_beta	89.996352
_cell_angle_gamma	83.804917
loop_
_atom_site_label
_atom_site_type_symbol
_atom_site_fract_x
_atom_site_fract_y
_atom_site_fract_z
O1	O	1.655151	0.097922	-0.120890
O2	O	1.291803	0.107295	-0.120896
O3	O	1.483967	0.001021	-0.120876
O4	O	1.462987	0.204197	-0.120911
O5	O	1.483952	0.001021	0.120909
O6	O	1.291788	0.107295	0.120889
O7	O	1.655136	0.097922	0.120895
Cu8	Cu	1.473461	0.102609	0.142969
Cu9	Cu	1.473478	0.102609	-0.142970
O10	O	1.462972	0.204196	0.120874
C11	C	1.245310	0.106613	-0.000004
C12	C	1.106799	0.104572	-0.000006
C13	C	1.030579	0.164038	-0.000017
C14	C	0.887419	0.161930	-0.000018
C15	C	1.483281	-0.024995	0.000018
C16	C	1.481246	-0.102513	0.000022
C17	C	1.480305	-0.138918	-0.131776
C18	C	1.478375	-0.211753	-0.131787
C19	C	1.477412	-0.248182	0.000007
C20	C	1.478346	-0.211768	0.131822
C21	C	1.480264	-0.138933	0.131829
N22	N	1.545402	-0.367404	0.098099
N23	N	1.543584	-0.436594	0.098083
C24	C	1.471632	-0.467629	-0.000007
N25	N	1.401583	-0.426861	-0.098103
N26	N	1.403408	-0.357665	-0.098091
C27	C	1.475332	-0.327159	0.000014
C28	C	1.468596	-0.583010	-0.131825
C29	C	1.466658	-0.655846	-0.131831
C30	C	1.466642	-0.655860	0.131781
C31	C	1.468567	-0.583025	0.131783
C32	C	1.469550	-0.546604	-0.000024
C33	C	1.701629	0.098604	-0.000001
C34	C	1.840140	0.100645	-0.000009
C35	C	1.463658	0.230212	-0.000023
C36	C	1.465693	0.307730	-0.000036
N37	N	1.473457	0.102608	0.344083
N38	N	1.473492	0.102604	-0.344084
C39	C	1.554145	0.057790	0.416288
C40	C	1.554165	0.057787	0.583700
H41	H	1.066068	0.052101	-0.000034
H42	H	0.905625	0.049735	-0.000008
N43	N	1.381968	0.153434	0.426357
H44	H	1.328117	0.183344	0.355170
H45	H	1.326866	0.126484	0.489522
N46	N	1.469602	-0.543679	-0.273933
H47	H	1.546588	-0.561613	-0.331612
H48	H	1.391871	-0.551055	-0.331426
N49	N	1.481360	-0.099635	-0.273933
H50	H	1.480469	-0.133754	-0.357428
H51	H	1.404819	-0.064125	-0.279677
H52	H	1.477600	-0.241399	-0.239115
N53	N	1.084514	0.233547	-0.000019
H54	H	1.179137	0.225200	-0.000016
H55	H	1.055184	0.260972	-0.089658
N56	N	1.381969	0.153429	0.573685
H57	H	1.328134	0.183336	0.644887
H58	H	1.429774	0.184430	0.510514
N59	N	0.800682	0.229367	-0.000044
H60	H	0.710709	0.218303	-0.000045
H61	H	0.816708	0.257462	0.089584
N62	N	1.477315	-0.251055	0.273973
H63	H	1.475966	-0.302721	0.253971
H64	H	1.554984	-0.243614	0.331523
H65	H	1.465885	-0.685485	-0.239161
N66	N	1.481282	-0.099663	0.273987
H67	H	1.480376	-0.133789	0.357481
H68	H	1.559417	-0.074738	0.279731
N69	N	1.465590	-0.695140	0.273935
H70	H	1.464228	-0.746805	0.253933
H71	H	1.543255	-0.687705	0.331497
H72	H	1.469344	-0.553384	0.239107
N73	N	1.645606	0.006945	0.334019
H74	H	1.632614	0.014146	0.226087
H75	H	1.734180	0.015294	0.360507
H76	H	1.623250	0.019419	0.645794
