data_functionalizedCrystal
_audit_creation_method	'MofGen! by Chris Wilmer'
_symmetry_space_group_name_H-M	'P1'
_symmetry_Int_Tables_number	1
_symmetry_cell_setting	triclinic
loop_
_symmetry_equiv_pos_as_xyz
  x,y,z
_cell_length_a	16.109302
_cell_length_b	8.559649
_cell_length_c	15.186229
_cell_angle_alpha	89.998040
_cell_angle_beta	89.994701
_cell_angle_gamma	76.620223
loop_
_atom_site_label
_atom_site_type_symbol
_atom_site_fract_x
_atom_site_fract_y
_atom_site_fract_z
O1	O	1.090045	0.205395	-0.073263
O2	O	0.846354	0.230954	-0.073256
O3	O	0.989669	-0.014439	-0.073259
O4	O	0.946730	0.450787	-0.073260
O5	O	0.989661	-0.014442	0.073198
O6	O	0.846346	0.230950	0.073201
O7	O	1.090036	0.205391	0.073194
Zn8	Zn	0.968190	0.218170	0.096451
Zn9	Zn	0.968201	0.218175	-0.096513
O10	O	0.946722	0.450784	0.073197
C11	C	0.815441	0.229917	-0.000026
C12	C	0.723344	0.226812	-0.000024
C13	C	0.511456	0.219631	0.079801
C14	C	0.424923	0.216697	0.079798
C15	C	0.424942	0.216709	-0.079877
C16	C	0.511475	0.219632	-0.079873
C17	C	0.554728	0.221101	-0.000031
C18	C	0.381662	0.215244	-0.000038
C19	C	0.287839	0.212063	-0.000042
C20	C	0.648558	0.224280	-0.000027
C21	C	0.992919	-0.073972	-0.000032
C22	C	1.002605	-0.251357	-0.000038
C23	C	1.120949	0.206428	-0.000038
C24	C	1.213047	0.209533	-0.000046
C25	C	0.943472	0.510317	-0.000031
C26	C	0.933786	0.687702	-0.000032
N27	N	0.968189	0.218166	0.228144
N28	N	0.968210	0.218166	-0.228206
C29	C	1.031665	0.109543	0.453865
C30	C	1.031668	0.109539	0.546055
C31	C	0.904727	0.326795	0.546067
C32	C	0.904721	0.326790	0.453879
C33	C	0.968195	0.218165	0.407780
C34	C	0.968203	0.218167	0.592158
C35	C	0.968206	0.218164	0.692114
C36	C	0.968192	0.218166	0.307818
H37	H	0.389694	0.215501	0.144806
N38	N	0.845919	-0.201677	-0.000037
H39	H	0.813832	-0.222255	0.054258
H40	H	0.851286	-0.086434	-0.000075
H41	H	0.546670	0.220828	0.144814
N42	N	1.090474	-0.361997	-0.000026
H43	H	1.085174	-0.477284	-0.000019
H44	H	1.122519	-0.341292	-0.054321
H45	H	0.546709	0.220824	-0.144887
H46	H	0.853032	0.415244	0.416354
H47	H	1.083348	0.021092	0.416334
N48	N	1.100135	-0.007596	0.595761
H49	H	1.140345	-0.076396	0.552566
H50	H	1.132973	0.053629	0.633996
N51	N	0.836269	0.443949	0.595787
H52	H	0.845903	0.427475	0.661181
H53	H	0.838631	0.557312	0.579667
H54	H	0.389714	0.215515	-0.144882
