data_functionalizedCrystal
_audit_creation_method	'MofGen! by Chris Wilmer'
_symmetry_space_group_name_H-M	'P1'
_symmetry_Int_Tables_number	1
_symmetry_cell_setting	triclinic
loop_
_symmetry_equiv_pos_as_xyz
  x,y,z
_cell_length_a	11.792241
_cell_length_b	11.792241
_cell_length_c	10.868271
_cell_angle_alpha	89.999850
_cell_angle_beta	90.000107
_cell_angle_gamma	95.806585
loop_
_atom_site_label
_atom_site_type_symbol
_atom_site_fract_x
_atom_site_fract_y
_atom_site_fract_z
O1	O	-1.506908	0.155568	-0.102188
O2	O	-1.173575	0.488902	0.231145
O3	O	-0.840242	0.822235	0.564479
O4	O	-1.176567	0.171601	-0.102215
O5	O	-0.843234	0.504935	0.231118
O6	O	-0.509901	0.838268	0.564451
O7	O	-1.349754	-0.001586	-0.102208
O8	O	-1.016421	0.331748	0.231125
O9	O	-0.683088	0.665081	0.564458
O10	O	-1.333721	0.328755	-0.102195
O11	O	-1.000388	0.662089	0.231138
O12	O	-0.667055	0.995422	0.564472
O13	O	-1.349740	-0.001592	0.102436
O14	O	-1.016407	0.331741	0.435770
O15	O	-0.683073	0.665074	0.769103
O16	O	-1.176553	0.171595	0.102429
O17	O	-0.843220	0.504928	0.435763
O18	O	-0.509886	0.838261	0.769096
O19	O	-1.506894	0.155562	0.102457
O20	O	-1.173561	0.488895	0.435790
O21	O	-0.840227	0.822228	0.769123
Zn22	Zn	-1.341721	0.163577	0.134935
Zn23	Zn	-1.008388	0.496910	0.468268
Zn24	Zn	-0.675055	0.830244	0.801601
Zn25	Zn	-1.341740	0.163586	-0.134693
Zn26	Zn	-1.008407	0.496919	0.198640
Zn27	Zn	-0.675073	0.830253	0.531973
O28	O	-1.333707	0.328749	0.102450
O29	O	-1.000374	0.662082	0.435783
O30	O	-0.667040	0.995415	0.769116
C31	C	-1.348740	-0.043880	0.000109
C32	C	-1.015407	0.289453	0.333443
C33	C	-0.682073	0.622787	0.666776
C34	C	-1.345726	-0.169894	0.000096
C35	C	-1.012392	0.163440	0.333429
C36	C	-0.679059	0.496773	0.666762
C37	C	-1.134269	0.170591	0.000103
C38	C	-0.800936	0.503924	0.333437
C39	C	-0.467603	0.837258	0.666770
C40	C	-1.008255	0.167576	0.000092
C41	C	-0.674922	0.500910	0.333426
C42	C	-0.341589	0.834243	0.666759
C43	C	-1.549192	0.156572	0.000135
C44	C	-1.215859	0.489905	0.333469
C45	C	-0.882525	0.823239	0.666802
C46	C	-1.675206	0.159587	0.000138
C47	C	-1.341873	0.492920	0.333471
C48	C	-1.008539	0.826253	0.666805
N49	N	-1.341717	0.163570	0.318949
N50	N	-1.008383	0.496904	0.652282
N51	N	-0.675050	0.830237	0.985615
C52	C	-0.777543	0.162034	0.000127
C53	C	-0.444210	0.495367	0.333461
C54	C	-0.110877	0.828700	0.666794
C55	C	-0.905928	0.165113	0.000108
C56	C	-0.572595	0.498447	0.333441
C57	C	-0.239262	0.831780	0.666775
C58	C	-1.334721	0.371043	0.000129
C59	C	-1.001388	0.704376	0.333463
C60	C	-0.668055	1.037710	0.666796
C61	C	-1.337736	0.497057	0.000135
C62	C	-1.004402	0.830390	0.333468
C63	C	-0.671069	1.163723	0.666801
C64	C	-1.343279	0.727769	0.000104
C65	C	-1.009945	1.061102	0.333438
C66	C	-0.676612	1.394436	0.666771
C67	C	-1.340199	0.599384	0.000121
C68	C	-1.006866	0.932717	0.333454
C69	C	-0.673532	1.266050	0.666788
N70	N	-1.341754	0.163584	-0.318708
N71	N	-1.008420	0.496917	0.014626
N72	N	-0.675087	0.830251	0.347959
C73	C	-1.341734	0.163584	0.569955
C74	C	-1.008401	0.496917	0.903288
C75	C	-0.675068	0.830250	1.236621
C76	C	-1.341721	0.163580	0.430277
C77	C	-1.008387	0.496913	0.763611
C78	C	-0.675054	0.830246	1.096944
