data_functionalizedCrystal
_audit_creation_method	'MofGen! by Chris Wilmer'
_symmetry_space_group_name_H-M	'P1'
_symmetry_Int_Tables_number	1
_symmetry_cell_setting	triclinic
loop_
_symmetry_equiv_pos_as_xyz
  x,y,z
_cell_length_a	11.026607
_cell_length_b	10.540539
_cell_length_c	9.482900
_cell_angle_alpha	99.430988
_cell_angle_beta	78.636152
_cell_angle_gamma	96.555754
loop_
_atom_site_label
_atom_site_type_symbol
_atom_site_fract_x
_atom_site_fract_y
_atom_site_fract_z
O1	O	1.633556	0.517017	-0.120883
O2	O	1.279725	0.456370	-0.120886
O3	O	1.464712	0.303756	-0.120883
O4	O	1.448568	0.669632	-0.120886
O5	O	1.427139	0.334914	0.120909
O6	O	1.242151	0.487529	0.120905
O7	O	1.595982	0.548176	0.120909
Cu8	Cu	1.415636	0.520697	0.142985
Cu9	Cu	1.460071	0.483849	-0.142962
O10	O	1.410994	0.700790	0.120905
C11	C	1.215630	0.460761	0.000009
C12	C	1.080627	0.427408	0.000008
C13	C	1.444715	0.271766	0.000011
C14	C	1.441094	0.130024	0.000003
C15	C	1.007620	0.519500	0.000006
C16	C	0.868087	0.485031	0.000004
C17	C	1.302374	-0.083877	-0.000541
C18	C	1.305961	0.063616	0.000003
C19	C	1.484669	0.100404	0.138078
C20	C	1.480039	-0.047136	0.138195
C21	C	1.525516	-0.082485	-0.136768
C22	C	1.527044	0.064534	-0.138593
C23	C	1.660077	0.543785	0.000010
C24	C	1.795082	0.577136	0.000002
C25	C	1.430992	0.732779	0.000009
C26	C	1.434615	0.874520	0.000007
N27	N	1.384391	0.546616	0.344104
N28	N	1.491325	0.457922	-0.344082
C29	C	1.450847	0.491485	0.416305
C30	C	1.424860	0.513061	0.583722
H31	H	0.827302	0.380657	-0.000032
O32	O	1.592180	0.374232	0.573643
H33	H	1.571053	0.275283	0.602776
H34	H	1.048415	0.623863	0.000013
O35	O	1.026601	0.289165	0.000024
H36	H	1.072669	0.228451	-0.098518
H37	H	1.308252	0.609784	0.406233
O38	O	1.324028	0.596777	0.666005
H39	H	1.279303	0.633885	0.587650
H40	H	0.835869	0.681507	0.000011
O41	O	1.258550	0.088312	-0.131101
H42	H	1.261074	0.193920	-0.130847
O43	O	1.485138	0.087542	-0.273905
H44	H	1.459423	-0.006559	-0.337173
O45	O	1.252016	-0.154169	-0.131674
H46	H	1.320696	-0.219514	-0.197861
H47	H	1.233910	-0.113041	0.097919
H48	H	1.423527	0.146349	0.240829
H49	H	1.239026	0.106861	0.099145
O50	O	1.489175	-0.154893	-0.275392
H51	H	1.554683	-0.122877	-0.370212
H52	H	1.415939	-0.072562	0.241408
H53	H	1.576251	-0.073010	0.144459
H54	H	1.583109	0.145156	0.143213
H55	H	1.626862	0.109261	-0.146930
O56	O	1.654998	-0.116887	-0.138021
H57	H	1.654681	-0.164378	-0.041759
H58	H	1.526977	0.428305	0.354178
