data_functionalizedCrystal
_audit_creation_method	'MofGen! by Chris Wilmer'
_symmetry_space_group_name_H-M	'P1'
_symmetry_Int_Tables_number	1
_symmetry_cell_setting	triclinic
loop_
_symmetry_equiv_pos_as_xyz
  x,y,z
_cell_length_a	10.489741
_cell_length_b	10.868271
_cell_length_c	11.792241
_cell_angle_alpha	90.005737
_cell_angle_beta	84.366295
_cell_angle_gamma	89.997969
loop_
_atom_site_label
_atom_site_type_symbol
_atom_site_fract_x
_atom_site_fract_y
_atom_site_fract_z
O1	O	1.693501	0.102247	0.160139
O2	O	1.943501	0.352247	0.410139
O3	O	2.193501	0.602247	0.660139
O4	O	2.443501	0.852247	0.910139
O5	O	1.322254	0.102266	0.175170
O6	O	1.572254	0.352266	0.425170
O7	O	1.822254	0.602266	0.675170
O8	O	2.072254	0.852266	0.925170
O9	O	1.516886	0.102247	0.002508
O10	O	1.766886	0.352247	0.252508
O11	O	2.016886	0.602247	0.502508
O12	O	2.266886	0.852247	0.752508
O13	O	1.498868	0.102265	0.332801
O14	O	1.748868	0.352265	0.582801
O15	O	1.998868	0.602265	0.832801
O16	O	2.248868	0.852265	1.082801
O17	O	1.516884	-0.102397	0.002499
O18	O	1.766884	0.147603	0.252499
O19	O	2.016884	0.397603	0.502499
O20	O	2.266884	0.647603	0.752499
O21	O	1.322252	-0.102379	0.175160
O22	O	1.572252	0.147621	0.425160
O23	O	1.822252	0.397621	0.675160
O24	O	2.072252	0.647621	0.925160
O25	O	1.693498	-0.102398	0.160129
O26	O	1.943498	0.147602	0.410129
O27	O	2.193498	0.397602	0.660129
O28	O	2.443498	0.647602	0.910129
Zn29	Zn	1.507875	-0.134880	0.167643
Zn30	Zn	1.757875	0.115120	0.417643
Zn31	Zn	2.007875	0.365120	0.667643
Zn32	Zn	2.257875	0.615120	0.917643
Zn33	Zn	1.507878	0.134748	0.167656
Zn34	Zn	1.757878	0.384748	0.417656
Zn35	Zn	2.007878	0.634748	0.667656
Zn36	Zn	2.257878	0.884748	0.917656
O37	O	1.498866	-0.102379	0.332791
O38	O	1.748866	0.147621	0.582791
O39	O	1.998866	0.397621	0.832791
O40	O	2.248866	0.647621	1.082791
C41	C	1.274725	-0.000054	0.174030
C42	C	1.524725	0.249946	0.424030
C43	C	1.774725	0.499946	0.674030
C44	C	2.024725	0.749946	0.924030
C45	C	1.133107	-0.000047	0.170633
C46	C	1.383107	0.249953	0.420633
C47	C	1.633107	0.499953	0.670633
C48	C	1.883107	0.749953	0.920633
N49	N	1.507882	-0.318894	0.167634
N50	N	1.757882	-0.068894	0.417634
N51	N	2.007882	0.181106	0.667634
N52	N	2.257882	0.431106	0.917634
C53	C	1.065341	-0.000065	0.060774
C54	C	1.315341	0.249935	0.310774
C55	C	1.565341	0.499935	0.560774
C56	C	1.815341	0.749935	0.810774
C57	C	0.973039	0.100836	0.112675
C58	C	1.223039	0.350836	0.362675
C59	C	1.473039	0.600836	0.612675
C60	C	1.723039	0.850836	0.862675
C61	C	0.973070	-0.100927	0.112692
C62	C	1.223070	0.149073	0.362692
C63	C	1.473070	0.399073	0.612692
C64	C	1.723070	0.649073	0.862692
C65	C	1.042670	0.100937	0.222580
C66	C	1.292670	0.350937	0.472580
C67	C	1.542670	0.600937	0.722580
C68	C	1.792670	0.850937	0.972580
C69	C	1.042711	-0.100917	0.222581
C70	C	1.292711	0.149083	0.472581
C71	C	1.542711	0.399083	0.722581
C72	C	1.792711	0.649083	0.972581
C73	C	0.950436	0.000008	0.274563
C74	C	1.200436	0.250008	0.524563
C75	C	1.450436	0.500008	0.774563
C76	C	1.700436	0.750008	1.024563
N77	N	1.507880	0.318762	0.167656
N78	N	1.757880	0.568762	0.417656
N79	N	2.007880	0.818762	0.667656
N80	N	2.257880	1.068762	0.917656
C81	C	1.741027	-0.000075	0.161269
C82	C	1.991027	0.249925	0.411269
C83	C	2.241027	0.499925	0.661269
C84	C	2.491027	0.749925	0.911269
C85	C	1.882645	-0.000074	0.164666
C86	C	2.132645	0.249926	0.414666
C87	C	2.382645	0.499926	0.664666
C88	C	2.632645	0.749926	0.914666
C89	C	1.515753	-0.000075	-0.039791
C90	C	1.765753	0.249925	0.210209
C91	C	2.015753	0.499925	0.460209
C92	C	2.265753	0.749925	0.710209
C93	C	1.512366	-0.000073	-0.165813
C94	C	1.762366	0.249927	0.084187
C95	C	2.012366	0.499927	0.334187
C96	C	2.262366	0.749927	0.584187
C97	C	1.507877	0.569768	0.167649
C98	C	1.757877	0.819768	0.417649
C99	C	2.007877	1.069768	0.667649
C100	C	2.257877	1.319768	0.917649
C101	C	1.507875	0.430091	0.167657
C102	C	1.757875	0.680091	0.417657
C103	C	2.007875	0.930091	0.667657
C104	C	2.257875	1.180091	0.917657
C105	C	1.506136	-0.000052	-0.396542
C106	C	1.756136	0.249948	-0.146542
C107	C	2.006136	0.499948	0.103458
C108	C	2.256136	0.749948	0.353458
C109	C	1.509598	-0.000064	-0.268148
C110	C	1.759598	0.249936	-0.018148
C111	C	2.009598	0.499936	0.231852
C112	C	2.259598	0.749936	0.481852
C113	C	1.499999	-0.000055	0.375090
C114	C	1.749999	0.249945	0.625090
C115	C	1.999999	0.499945	0.875090
C116	C	2.249999	0.749945	1.125090
C117	C	1.503387	-0.000048	0.501113
C118	C	1.753387	0.249952	0.751113
C119	C	2.003387	0.499952	1.001113
C120	C	2.253387	0.749952	1.251113
H121	H	1.115339	0.000057	-0.029538
H122	H	1.365339	0.250057	0.220462
H123	H	1.615339	0.500057	0.470462
H124	H	1.865339	0.750057	0.720462
H125	H	1.073598	-0.186222	0.269023
H126	H	1.323598	0.063778	0.519023
H127	H	1.573598	0.313778	0.769023
H128	H	1.823598	0.563778	1.019023
H129	H	0.942184	0.186137	0.066195
H130	H	1.192184	0.436137	0.316195
H131	H	1.442184	0.686137	0.566195
H132	H	1.692184	0.936137	0.816195
F133	F	1.082753	0.212563	0.283296
F134	F	1.332753	0.462563	0.533296
F135	F	1.582753	0.712563	0.783296
F136	F	1.832753	0.962563	1.033296
H137	H	0.942250	-0.186231	0.066184
H138	H	1.192250	0.063769	0.316184
H139	H	1.442250	0.313769	0.566184
H140	H	1.692250	0.563769	0.816184
H141	H	0.900704	0.000068	0.364970
H142	H	1.150704	0.250068	0.614970
H143	H	1.400704	0.500068	0.864970
H144	H	1.650704	0.750068	1.114970
