data_functionalizedCrystal
_audit_creation_method	'MofGen! by Chris Wilmer'
_symmetry_space_group_name_H-M	'P1'
_symmetry_Int_Tables_number	1
_symmetry_cell_setting	triclinic
loop_
_symmetry_equiv_pos_as_xyz
  x,y,z
_cell_length_a	6.817900
_cell_length_b	11.102289
_cell_length_c	9.582880
_cell_angle_alpha	90.972692
_cell_angle_beta	111.207034
_cell_angle_gamma	108.605707
loop_
_atom_site_label
_atom_site_type_symbol
_atom_site_fract_x
_atom_site_fract_y
_atom_site_fract_z
V1	V	-4.142615	-0.175303	-0.466601
O2	O	-4.101056	0.008976	-0.457719
O3	O	-4.119180	-0.348127	-0.463410
O4	O	-4.132953	-0.172364	-0.670102
O5	O	-4.087187	-0.168003	-0.249596
V6	V	-4.617989	-0.153290	-0.440646
O7	O	-4.421750	-0.223591	-0.523537
O8	O	-4.789051	-0.105002	-0.383710
O9	O	-4.418218	0.019534	-0.443837
O10	O	-4.776945	-0.337568	-0.449527
O11	O	-4.790814	-0.160589	-0.657651
O12	O	-4.404444	-0.156228	-0.237145
C13	C	-3.969000	-0.390265	-0.456049
C14	C	-4.031384	-0.531549	-0.454796
C15	C	-4.245196	-0.604390	-0.461672
C16	C	-4.303807	-0.737142	-0.460508
C17	C	-3.934767	-0.724202	-0.445584
C18	C	-3.876166	-0.591453	-0.446759
C19	C	-4.458256	-0.611861	-0.470282
C20	C	-4.516866	-0.744614	-0.469118
C21	C	-3.986568	-0.166061	-0.719704
C22	C	-4.060117	-0.164802	-0.886067
C23	C	-4.231739	0.061666	-0.451194
C24	C	-4.148596	0.202949	-0.452456
C25	C	-4.214170	-0.162536	-0.187535
C26	C	-4.119858	-0.163788	-0.021171
H27	H	-4.577372	-0.592516	-0.579120
H28	H	-4.561363	-0.769701	-0.366892
O29	O	-3.783938	-0.782418	-0.437502
C30	C	-3.740994	-0.841759	-0.306188
H31	H	-3.782019	-0.793482	-0.219766
H32	H	-3.849870	-0.947969	-0.336748
C33	C	-3.441205	-0.887615	-0.344356
C34	C	-3.491574	-0.828313	-0.238205
H35	H	-3.287354	-0.879327	-0.302423
H36	H	-3.470141	-0.847640	-0.432828
H37	H	-3.531953	-0.976118	-0.369813
H38	H	-3.400847	-0.739809	-0.212764
H39	H	-3.462616	-0.868273	-0.149727
H40	H	-3.702073	-0.532153	-0.441177
O41	O	-4.449757	-0.548290	-0.344475
C42	C	-4.390088	-0.415629	-0.353145
H43	H	-4.297355	-0.391370	-0.432650
H44	H	-4.548187	-0.389486	-0.398167
C45	C	-4.350507	-0.368599	-0.096749
C46	C	-4.236593	-0.338801	-0.194390
H47	H	-4.255832	-0.321207	0.001178
H48	H	-4.390715	-0.457975	-0.090909
H49	H	-4.482251	-0.346813	-0.134286
H50	H	-4.104868	-0.360603	-0.156862
H51	H	-4.196359	-0.249427	-0.200220
O52	O	-4.683132	-0.813640	-0.601231
C53	C	-4.869487	-0.890187	-0.572251
H54	H	-4.811602	-0.906664	-0.449042
H55	H	-4.996512	-0.839154	-0.594748
C56	C	-5.050749	-1.000244	-0.827972
C57	C	-4.979651	-1.020491	-0.676646
H58	H	-5.118712	-1.080620	-0.892371
H59	H	-4.925203	-0.948670	-0.847499
H60	H	-5.156592	-0.957713	-0.846697
H61	H	-4.873790	-1.063006	-0.657919
H62	H	-5.105182	-1.072075	-0.657119
