data_functionalizedCrystal
_audit_creation_method	'MofGen! by Chris Wilmer'
_symmetry_space_group_name_H-M	'P1'
_symmetry_Int_Tables_number	1
_symmetry_cell_setting	triclinic
loop_
_symmetry_equiv_pos_as_xyz
  x,y,z
_cell_length_a	23.532407
_cell_length_b	23.532357
_cell_length_c	22.010155
_cell_angle_alpha	89.998697
_cell_angle_beta	89.994271
_cell_angle_gamma	82.838519
loop_
_atom_site_label
_atom_site_type_symbol
_atom_site_fract_x
_atom_site_fract_y
_atom_site_fract_z
O1	O	0.755251	0.069129	-0.050494
O2	O	1.088585	0.402462	0.282839
O3	O	1.421918	0.735796	0.616173
O4	O	0.589386	0.079132	-0.050505
O5	O	0.922719	0.412466	0.282829
O6	O	1.256053	0.745799	0.616162
O7	O	0.677335	-0.008803	-0.050487
O8	O	1.010668	0.324530	0.282847
O9	O	1.344002	0.657864	0.616180
O10	O	0.667302	0.157064	-0.050512
O11	O	1.000636	0.490398	0.282821
O12	O	1.333969	0.823731	0.616154
O13	O	0.677319	-0.008790	0.050564
O14	O	1.010653	0.324544	0.383897
O15	O	1.343986	0.657877	0.717230
O16	O	0.589370	0.079146	0.050546
O17	O	0.922703	0.412479	0.383879
O18	O	1.256037	0.745812	0.717212
O19	O	0.755235	0.069142	0.050556
O20	O	1.088569	0.402476	0.383890
O21	O	1.421902	0.735809	0.717223
Cu22	Cu	0.672301	0.074145	0.059778
Cu23	Cu	1.005635	0.407478	0.393111
Cu24	Cu	1.338968	0.740812	0.726444
Cu25	Cu	0.672320	0.074129	-0.059726
Cu26	Cu	1.005653	0.407463	0.273607
Cu27	Cu	1.338987	0.740796	0.606941
O28	O	0.667286	0.157078	0.050538
O29	O	1.000620	0.490411	0.383872
O30	O	1.333953	0.823744	0.717205
C31	C	0.568162	0.078884	0.000019
C32	C	0.901495	0.412218	0.333353
C33	C	1.234829	0.745551	0.666686
C34	C	0.504945	0.078118	0.000016
C35	C	0.838279	0.411452	0.333349
C36	C	1.171612	0.744785	0.666682
C37	C	0.238788	0.022922	0.000041
C38	C	0.572121	0.356255	0.333374
C39	C	0.905454	0.689588	0.666708
C40	C	0.298188	0.023633	0.000041
C41	C	0.631521	0.356966	0.333374
C42	C	0.964854	0.690300	0.666707
O43	O	0.334940	-0.020154	0.000068
O44	O	0.668274	0.313179	0.333402
O45	O	1.001607	0.646513	0.666735
N46	N	0.320805	0.075911	0.000028
N47	N	0.654138	0.409244	0.333362
N48	N	0.987471	0.742577	0.666695
C49	C	0.284018	0.127480	0.000023
C50	C	0.617351	0.460813	0.333356
C51	C	0.950684	0.794147	0.666689
O52	O	0.308710	0.172012	0.000013
O53	O	0.642043	0.505345	0.333346
O54	O	0.975376	0.838678	0.666679
C55	C	0.224619	0.126768	0.000027
C56	C	0.557952	0.460101	0.333361
C57	C	0.891286	0.793435	0.666694
C58	C	0.202006	0.074487	0.000033
C59	C	0.535339	0.407820	0.333367
C60	C	0.868672	0.741154	0.666700
C61	C	0.216174	-0.029355	0.000048
C62	C	0.549507	0.303978	0.333381
C63	C	0.882840	0.637311	0.666714
C64	C	0.156778	-0.030066	0.000047
C65	C	0.490111	0.303267	0.333380
C66	C	0.823444	0.636600	0.666713
C67	C	0.119996	0.021499	0.000039
C68	C	0.453329	0.354832	0.333372
C69	C	0.786662	0.688166	0.666706
C70	C	0.142610	0.073776	0.000032
C71	C	0.475943	0.407109	0.333366
C72	C	0.809276	0.740443	0.666699
C73	C	0.187833	0.178337	0.000026
C74	C	0.521167	0.511670	0.333359
C75	C	0.854500	0.845004	0.666693
C76	C	0.128431	0.177620	0.000031
C77	C	0.461764	0.510954	0.333364
C78	C	0.795098	0.844287	0.666698
C79	C	0.105818	0.125339	0.000037
C80	C	0.439151	0.458673	0.333370
C81	C	0.772484	0.792006	0.666704
C82	C	0.046431	0.124630	0.000024
C83	C	0.379765	0.457964	0.333357
C84	C	0.713098	0.791297	0.666691
N85	N	0.023815	0.072353	0.000036
N86	N	0.357148	0.405686	0.333370
N87	N	0.690481	0.739019	0.666703
C88	C	0.060597	0.020787	0.000044
C89	C	0.393930	0.354120	0.333377
C90	C	0.727263	0.687454	0.666710
C91	C	0.408760	0.128971	0.000014
C92	C	0.742093	0.462305	0.333347
C93	C	1.075427	0.795638	0.666681
C94	C	0.468158	0.129684	0.000005
C95	C	0.801491	0.463017	0.333338
C96	C	1.134825	0.796351	0.666672
C97	C	0.482324	0.025837	0.000024
C98	C	0.815657	0.359170	0.333357
C99	C	1.148990	0.692503	0.666691
C100	C	0.422925	0.025125	0.000029
C101	C	0.756258	0.358458	0.333362
C102	C	1.089592	0.691791	0.666695
C103	C	0.386143	0.076694	0.000026
C104	C	0.719477	0.410027	0.333360
C105	C	1.052810	0.743361	0.666693
C106	C	-0.064140	0.019297	0.000041
C107	C	0.269194	0.352631	0.333375
C108	C	0.602527	0.685964	0.666708
C109	C	-0.123542	0.018591	0.000038
C110	C	0.209792	0.351924	0.333371
C111	C	0.543125	0.685257	0.666705
C112	C	-0.137702	0.122438	0.000022
C113	C	0.195631	0.455771	0.333355
C114	C	0.528964	0.789104	0.666689
C115	C	-0.078306	0.123145	0.000022
C116	C	0.255028	0.456478	0.333356
C117	C	0.588361	0.789811	0.666689
C118	C	-0.041525	0.071570	0.000034
C119	C	0.291808	0.404903	0.333367
C120	C	0.625141	0.738237	0.666701
O121	O	0.009644	0.168394	-0.000001
O122	O	0.342978	0.501727	0.333332
O123	O	0.676311	0.835061	0.666665
O124	O	0.035897	-0.023737	0.000062
O125	O	0.369230	0.309596	0.333395
O126	O	0.702563	0.642930	0.666728
C127	C	0.677076	-0.030013	0.000041
C128	C	1.010410	0.303320	0.333374
C129	C	1.343743	0.636654	0.666707
C130	C	0.676322	-0.093232	0.000046
C131	C	1.009655	0.240102	0.333379
C132	C	1.342988	0.573435	0.666713
C133	C	0.671594	-0.485250	-0.055069
C134	C	1.004927	-0.151917	0.278264
C135	C	1.338260	0.181417	0.611597
C136	C	0.670876	-0.544650	-0.055073
C137	C	1.004210	-0.211316	0.278260
C138	C	1.337543	0.122017	0.611594
O139	O	0.670494	-0.575372	-0.101919
O140	O	1.003827	-0.242039	0.231415
O141	O	1.337160	0.091295	0.564748
N142	N	0.670512	-0.574354	0.000009
N143	N	1.003845	-0.241020	0.333342
N144	N	1.337179	0.092313	0.666675
C145	C	0.670859	-0.544654	0.055098
C146	C	1.004193	-0.211321	0.388431
C147	C	1.337526	0.122012	0.721764
O148	O	0.670483	-0.575374	0.101949
O149	O	1.003816	-0.242041	0.435282
O150	O	1.337150	0.091293	0.768615
C151	C	0.671572	-0.485255	0.055101
C152	C	1.004906	-0.151922	0.388434
C153	C	1.338239	0.181411	0.721767
C154	C	0.671942	-0.455555	0.000015
C155	C	1.005276	-0.122222	0.333348
C156	C	1.338609	0.211112	0.666682
C157	C	0.671963	-0.455550	-0.110150
C158	C	1.005297	-0.122216	0.223183
C159	C	1.338630	0.211117	0.556516
C160	C	0.672681	-0.396155	-0.110147
C161	C	1.006015	-0.062821	0.223187
C162	C	1.339348	0.270512	0.556520
C163	C	0.673030	-0.366460	-0.055062
C164	C	1.006364	-0.033126	0.278271
C165	C	1.339697	0.300207	0.611605
C166	C	0.672661	-0.396160	0.000019
C167	C	1.005994	-0.062827	0.333352
C168	C	1.339327	0.270507	0.666686
C169	C	0.671915	-0.455556	0.110189
C170	C	1.005249	-0.122223	0.443522
C171	C	1.338582	0.211110	0.776855
C172	C	0.672628	-0.396153	0.110187
C173	C	1.005961	-0.062820	0.443520
C174	C	1.339295	0.270513	0.776854
C175	C	0.672998	-0.366453	0.055102
C176	C	1.006332	-0.033120	0.388435
C177	C	1.339665	0.300213	0.721768
C178	C	0.673728	-0.307070	0.055107
C179	C	1.007061	0.026264	0.388441
C180	C	1.340394	0.359597	0.721774
N181	N	0.674092	-0.277366	0.000025
N182	N	1.007425	0.055968	0.333359
N183	N	1.340759	0.389301	0.666692
C184	C	0.673743	-0.307061	-0.055059
C185	C	1.007077	0.026273	0.278274
C186	C	1.340410	0.359606	0.611608
C187	C	0.669361	-0.669396	0.055087
C188	C	1.002694	-0.336062	0.388421
C189	C	1.336027	-0.002729	0.721754
C190	C	0.668652	-0.728794	0.055085
C191	C	1.001985	-0.395461	0.388418
C192	C	1.335318	-0.062127	0.721752
C193	C	0.668668	-0.728785	-0.055086
C194	C	1.002001	-0.395452	0.278248
C195	C	1.335334	-0.062119	0.611581
C196	C	0.669381	-0.669386	-0.055083
C197	C	1.002714	-0.336053	0.278250
C198	C	1.336048	-0.002720	0.611584
C199	C	0.669725	-0.639692	0.000006
C200	C	1.003058	-0.306358	0.333339
C201	C	1.336392	0.026975	0.666672
C202	C	0.675252	-0.182327	-0.055047
C203	C	1.008586	0.151007	0.278286
C204	C	1.341919	0.484340	0.611620
C205	C	0.675973	-0.122926	-0.055038
C206	C	1.009306	0.210407	0.278295
C207	C	1.342640	0.543740	0.611628
C208	C	0.675954	-0.122940	0.055132
C209	C	1.009287	0.210393	0.388465
C210	C	1.342620	0.543726	0.721799
C211	C	0.675236	-0.182336	0.055124
C212	C	1.008569	0.150998	0.388457
C213	C	1.341903	0.484331	0.721790
C214	C	0.674883	-0.212027	0.000029
C215	C	1.008217	0.121306	0.333363
C216	C	1.341550	0.454640	0.666696
O217	O	0.674109	-0.276309	0.101929
O218	O	1.007442	0.057024	0.435262
O219	O	1.340775	0.390357	0.768596
O220	O	0.674112	-0.276333	-0.101902
O221	O	1.007446	0.057001	0.231431
O222	O	1.340779	0.390334	0.564764
C223	C	0.776459	0.069390	0.000031
C224	C	1.109793	0.402724	0.333364
C225	C	1.443126	0.736057	0.666698
C226	C	0.839676	0.070156	0.000030
C227	C	1.173009	0.403490	0.333364
C228	C	1.506343	0.736823	0.666697
C229	C	0.667545	0.178288	0.000010
C230	C	1.000878	0.511621	0.333343
C231	C	1.334212	0.844954	0.666676
C232	C	0.668300	0.241506	0.000000
C233	C	1.001633	0.574839	0.333333
C234	C	1.334966	0.908173	0.666667
N235	N	0.672292	0.074156	0.143830
N236	N	1.005625	0.407489	0.477163
N237	N	1.338959	0.740822	0.810497
N238	N	0.672334	0.074114	-0.143779
N239	N	1.005667	0.407448	0.189555
N240	N	1.339000	0.740781	0.522888
C241	C	0.711266	0.035197	0.563618
C242	C	1.044600	0.368531	0.896951
C243	C	1.377933	0.701864	1.230284
C244	C	0.711269	0.035193	0.627225
C245	C	1.044602	0.368527	0.960559
C246	C	1.377936	0.701860	1.293892
O247	O	0.744383	0.002077	0.660123
O248	O	1.077716	0.335410	0.993457
O249	O	1.411050	0.668743	1.326790
N250	N	0.672320	0.074118	0.659037
N251	N	1.005653	0.407451	0.992371
N252	N	1.338987	0.740784	1.325704
C253	C	0.633362	0.113044	0.627238
C254	C	0.966695	0.446378	0.960572
C255	C	1.300028	0.779711	1.293905
O256	O	0.600233	0.146152	0.660138
O257	O	0.933566	0.479485	0.993471
O258	O	1.266899	0.812819	1.326804
C259	C	0.633357	0.113045	0.563632
C260	C	0.966690	0.446379	0.896965
C261	C	1.300024	0.779712	1.230299
C262	C	0.672312	0.074122	0.531823
C263	C	1.005646	0.407456	0.865157
C264	C	1.338979	0.740789	1.198490
C265	C	0.750218	-0.003723	0.531809
C266	C	1.083551	0.329610	0.865142
C267	C	1.416885	0.662944	1.198475
C268	C	0.750216	-0.003718	0.468205
C269	C	1.083549	0.329615	0.801539
C270	C	1.416883	0.662948	1.134872
C271	C	0.711262	0.035207	0.436411
C272	C	1.044595	0.368540	0.769744
C273	C	1.377929	0.701873	1.103078
C274	C	0.672310	0.074127	0.468220
C275	C	1.005644	0.407460	0.801553
C276	C	1.338977	0.740794	1.134887
C277	C	0.594397	0.151969	0.531834
C278	C	0.927730	0.485302	0.865168
C279	C	1.261063	0.818636	1.198501
C280	C	0.594395	0.151966	0.468224
C281	C	0.927728	0.485299	0.801557
C282	C	1.261061	0.818633	1.134890
C283	C	0.633350	0.113043	0.436415
C284	C	0.966683	0.446376	0.769748
C285	C	1.300017	0.779710	1.103081
C286	C	0.633354	0.113057	0.372822
C287	C	0.966688	0.446390	0.706156
C288	C	1.300021	0.779724	1.039489
N289	N	0.672303	0.074133	0.341010
N290	N	1.005637	0.407466	0.674344
N291	N	1.338970	0.740799	1.007677
C292	C	0.711257	0.035207	0.372805
C293	C	1.044590	0.368541	0.706138
C294	C	1.377924	0.701874	1.039471
C295	C	0.633374	0.113039	0.760816
C296	C	0.966708	0.446373	1.094150
C297	C	1.300041	0.779706	1.427483
C298	C	0.633382	0.113042	0.824422
C299	C	0.966715	0.446375	1.157755
C300	C	1.300048	0.779708	1.491088
C301	C	0.711288	0.035190	0.824404
C302	C	1.044621	0.368523	1.157737
C303	C	1.377955	0.701856	1.491071
C304	C	0.711283	0.035190	0.760797
C305	C	1.044617	0.368524	1.094131
C306	C	1.377950	0.701857	1.427464
C307	C	0.672323	0.074115	0.729004
C308	C	1.005657	0.407448	1.062338
C309	C	1.338990	0.740782	1.395671
C310	C	0.711250	0.035221	0.239233
C311	C	1.044583	0.368554	0.572567
C312	C	1.377917	0.701887	0.905900
C313	C	0.711246	0.035231	0.175625
C314	C	1.044579	0.368564	0.508958
C315	C	1.377913	0.701897	0.842291
C316	C	0.633338	0.113080	0.175648
C317	C	0.966671	0.446414	0.508981
C318	C	1.300004	0.779747	0.842314
C319	C	0.633344	0.113073	0.239251
C320	C	0.966677	0.446406	0.572584
C321	C	1.300010	0.779740	0.905918
C322	C	0.672302	0.074138	0.271042
C323	C	1.005635	0.407472	0.604376
C324	C	1.338969	0.740805	0.937709
O325	O	0.600255	0.146155	0.339884
O326	O	0.933589	0.479488	0.673217
O327	O	1.266922	0.812822	1.006550
O328	O	0.744376	0.002101	0.339898
O329	O	1.077709	0.335434	0.673231
O330	O	1.411042	0.668767	1.006564
H331	H	-0.141950	-0.023984	0.000041
H332	H	0.191384	0.309349	0.333375
H333	H	0.524717	0.642682	0.666708
H334	H	0.601666	0.144742	0.850316
H335	H	0.935000	0.478076	1.183649
H336	H	1.268333	0.811409	1.516983
H337	H	0.742973	0.003516	0.265111
H338	H	1.076306	0.336849	0.598444
H339	H	1.409639	0.670183	0.931777
Br340	Br	-0.014233	-0.050698	0.000057
Br341	Br	0.319101	0.282636	0.333391
Br342	Br	0.652434	0.615969	0.666724
Br343	Br	0.498840	0.200640	-0.000019
Br344	Br	0.832173	0.533973	0.333315
Br345	Br	1.165506	0.867306	0.666648
H346	H	0.743006	0.003494	0.850302
H347	H	1.076339	0.336827	1.183636
H348	H	1.409672	0.670161	1.516969
H349	H	0.669642	-0.645222	0.099950
H350	H	1.002976	-0.311889	0.433283
H351	H	1.336309	0.021444	0.766616
Br352	Br	0.668163	-0.769096	0.129847
Br353	Br	1.001496	-0.435763	0.463180
Br354	Br	1.334829	-0.102429	0.796514
Br355	Br	0.674773	-0.222613	-0.129819
Br356	Br	1.008107	0.110720	0.203515
Br357	Br	1.341440	0.444054	0.536848
Br358	Br	0.803083	-0.056547	0.425043
Br359	Br	1.136416	0.276786	0.758377
Br360	Br	1.469750	0.610120	1.091710
H361	H	0.138372	-0.072639	0.000054
H362	H	0.471705	0.260694	0.333388
H363	H	0.805039	0.594028	0.666721
Br364	Br	0.580499	0.165874	0.717674
Br365	Br	0.913832	0.499207	1.051007
Br366	Br	1.247166	0.832541	1.384341
H367	H	0.378815	0.170968	0.000007
H368	H	0.712148	0.504301	0.333341
H369	H	1.045482	0.837635	0.666674
Br370	Br	0.676429	-0.082629	0.129886
Br371	Br	1.009762	0.250705	0.463219
Br372	Br	1.343095	0.584038	0.796553
Br373	Br	0.764120	-0.017595	0.132458
Br374	Br	1.097453	0.315739	0.465792
Br375	Br	1.430786	0.649072	0.799125
Br376	Br	0.541526	0.204795	0.574990
Br377	Br	0.874859	0.538128	0.908324
Br378	Br	1.208193	0.871462	1.241657
Br379	Br	0.580475	0.165907	0.132488
Br380	Br	0.913808	0.499241	0.465822
Br381	Br	1.247142	0.832574	0.799155
Br382	Br	0.541515	0.204794	0.425080
Br383	Br	0.874848	0.538127	0.758413
Br384	Br	1.208182	0.871460	1.091747
H385	H	0.601628	0.144773	0.265150
H386	H	0.934961	0.478106	0.598484
H387	H	1.268295	0.811440	0.931817
H388	H	0.246117	-0.071348	0.000056
H389	H	0.579450	0.261985	0.333389
H390	H	0.912783	0.595318	0.666722
H391	H	0.671615	-0.479728	0.155045
H392	H	1.004948	-0.146395	0.488379
H393	H	1.338281	0.186938	0.821712
Br394	Br	0.532254	-0.044146	0.000032
Br395	Br	0.865587	0.289188	0.333365
Br396	Br	1.198921	0.622521	0.666699
Br397	Br	0.673094	-0.355857	0.184954
Br398	Br	1.006427	-0.022524	0.518288
Br399	Br	1.339760	0.310810	0.851621
Br400	Br	0.674747	-0.222646	0.129883
Br401	Br	1.008080	0.110687	0.463216
Br402	Br	1.341414	0.444021	0.796549
H403	H	0.404518	-0.017447	0.000034
H404	H	0.737851	0.315886	0.333367
H405	H	1.071184	0.649220	0.666701
H406	H	0.098485	0.219615	0.000032
H407	H	0.431819	0.552949	0.333365
H408	H	0.765152	0.886282	0.666698
Br409	Br	0.218507	0.249294	0.000016
Br410	Br	0.551840	0.582627	0.333349
Br411	Br	0.885174	0.915961	0.666683
Br412	Br	0.764153	-0.017636	0.717635
Br413	Br	1.097486	0.315698	1.050969
Br414	Br	1.430820	0.649031	1.384302
Br415	Br	-0.047615	0.194098	0.000004
Br416	Br	0.285718	0.527431	0.333337
Br417	Br	0.619052	0.860764	0.666671
Br418	Br	0.676479	-0.082623	-0.129802
Br419	Br	1.009812	0.250710	0.203531
Br420	Br	1.343145	0.584044	0.536864
Br421	Br	-0.187632	0.192416	0.000007
Br422	Br	0.145701	0.525749	0.333341
Br423	Br	0.479035	0.859083	0.666674
H424	H	0.672981	-0.371978	-0.155003
H425	H	1.006314	-0.038644	0.178330
H426	H	1.339647	0.294689	0.511664
H427	H	0.669681	-0.645208	-0.099938
H428	H	1.003015	-0.311875	0.233395
H429	H	1.336348	0.021458	0.566728
Br430	Br	0.668191	-0.769096	-0.129844
Br431	Br	1.001524	-0.435763	0.203489
Br432	Br	1.334858	-0.102430	0.536822
Br433	Br	0.671489	-0.495839	-0.184918
Br434	Br	1.004823	-0.162505	0.148415
Br435	Br	1.338156	0.170828	0.481748
Br436	Br	0.803090	-0.056558	0.574947
Br437	Br	1.136423	0.276776	0.908281
Br438	Br	1.469757	0.610109	1.241614
