data_functionalizedCrystal
_audit_creation_method	'MofGen! by Chris Wilmer'
_symmetry_space_group_name_H-M	'P1'
_symmetry_Int_Tables_number	1
_symmetry_cell_setting	triclinic
loop_
_symmetry_equiv_pos_as_xyz
  x,y,z
_cell_length_a	8.597187
_cell_length_b	7.088929
_cell_length_c	10.654550
_cell_angle_alpha	96.283906
_cell_angle_beta	84.909944
_cell_angle_gamma	91.336285
loop_
_atom_site_label
_atom_site_type_symbol
_atom_site_fract_x
_atom_site_fract_y
_atom_site_fract_z
O1	O	2.034869	0.494178	0.226996
O2	O	1.585519	0.420163	0.235455
O3	O	1.820527	0.458860	0.048677
O4	O	1.799862	0.455481	0.413774
O5	O	1.851933	0.146057	0.023658
O6	O	1.616925	0.107359	0.210436
O7	O	2.066275	0.181374	0.201977
Cu8	Cu	1.844468	0.115805	0.203922
Cu9	Cu	1.807327	0.485732	0.233510
O10	O	1.831268	0.142677	0.388755
C11	C	1.543685	0.254284	0.220643
C12	C	1.372242	0.226045	0.213767
N13	N	1.870602	-0.144379	0.183111
C14	C	2.108109	0.347257	0.216789
C15	C	2.279551	0.375509	0.223667
C16	C	1.834713	0.302210	-0.010658
C17	C	1.830173	0.301465	-0.150186
N18	N	1.781205	0.745919	0.254312
C19	C	1.968541	0.324257	-0.227101
C20	C	1.964265	0.323576	-0.358199
C21	C	1.683241	0.277301	-0.335455
C22	C	1.687517	0.277996	-0.204358
C23	C	1.817082	0.299332	0.448091
C24	C	1.821620	0.300089	0.587619
H25	H	1.320436	0.076488	0.200044
O26	O	1.981058	-0.223383	0.094924
C27	C	1.949601	-0.179844	-0.026236
H28	H	1.875809	-0.046626	-0.016217
H29	H	2.064258	-0.154293	-0.084676
H30	H	1.883303	-0.303402	-0.075790
O31	O	1.544533	0.254553	-0.387870
C32	C	1.423326	0.234544	-0.291869
H33	H	1.461624	0.301044	-0.197013
H34	H	1.314704	0.308977	-0.314525
H35	H	1.395639	0.077435	-0.286441
H36	H	2.084700	0.343371	-0.182998
O37	O	1.341241	0.553977	0.240273
C38	C	1.275220	0.648642	0.355263
H39	H	1.229433	0.539757	0.421188
H40	H	1.368014	0.742380	0.402031
H41	H	1.174831	0.740337	0.335556
H42	H	1.574834	0.259440	-0.141730
H43	H	1.688555	-0.187691	0.328096
O44	O	2.098829	0.345650	-0.432739
C45	C	2.225643	0.366563	-0.356802
H46	H	2.193440	0.301049	-0.264761
H47	H	2.331794	0.291728	-0.409904
H48	H	2.254243	0.523818	-0.334340
