data_functionalizedCrystal
_audit_creation_method	'MofGen! by Chris Wilmer'
_symmetry_space_group_name_H-M	'P1'
_symmetry_Int_Tables_number	1
_symmetry_cell_setting	triclinic
loop_
_symmetry_equiv_pos_as_xyz
  x,y,z
_cell_length_a	14.853567
_cell_length_b	13.930277
_cell_length_c	14.853567
_cell_angle_alpha	89.999243
_cell_angle_beta	96.365070
_cell_angle_gamma	90.004245
loop_
_atom_site_label
_atom_site_type_symbol
_atom_site_fract_x
_atom_site_fract_y
_atom_site_fract_z
O1	O	1.196368	0.079756	-0.117704
O2	O	0.933909	0.079772	-0.131725
O3	O	1.072149	0.079767	0.006516
O4	O	1.058128	0.079762	-0.255944
O5	O	1.072130	-0.079895	0.006519
O6	O	0.933890	-0.079890	-0.131722
O7	O	1.196349	-0.079905	-0.117701
Zn8	Zn	1.065116	-0.105247	-0.124711
Zn9	Zn	1.065142	0.105114	-0.124715
O10	O	1.058109	-0.079900	-0.255941
C11	C	0.900311	-0.000057	-0.131088
C12	C	0.800227	-0.000051	-0.129184
N13	N	1.065106	-0.248814	-0.124708
C14	C	0.387693	-0.000070	-0.039019
C15	C	0.366412	-0.000073	-0.203251
C16	C	0.460446	-0.000070	-0.205042
C17	C	0.518108	-0.000066	-0.123819
C18	C	0.481736	-0.000065	-0.040806
C19	C	0.496825	-0.000061	-0.288053
C20	C	0.590864	-0.000057	-0.289846
C21	C	0.648528	-0.000060	-0.208623
C22	C	0.612150	-0.000060	-0.125607
C23	C	0.669812	-0.000056	-0.044384
C24	C	0.633437	-0.000063	0.038633
C25	C	0.539399	-0.000067	0.040417
C26	C	0.742565	-0.000055	-0.210407
C27	C	0.763855	-0.000050	-0.046172
C28	C	1.003926	-0.701081	-0.185904
C29	C	1.126382	-0.701055	-0.063519
C30	C	1.126371	-0.600559	-0.063516
C31	C	1.065138	-0.550319	-0.124709
C32	C	1.003916	-0.600576	-0.185904
C33	C	1.187598	-0.550295	-0.002328
C34	C	1.187591	-0.449793	-0.002323
C35	C	1.126353	-0.399552	-0.063512
C36	C	1.065127	-0.449814	-0.124710
C37	C	1.003894	-0.399575	-0.185902
C38	C	0.942664	-0.449835	-0.247096
C39	C	0.942677	-0.550334	-0.247094
C40	C	1.126339	-0.299053	-0.063515
C41	C	1.003883	-0.299070	-0.185903
C42	C	1.229947	-0.000075	-0.118337
C43	C	1.330031	-0.000075	-0.120241
C44	C	1.071504	-0.000061	0.040106
C45	C	1.069601	-0.000053	0.140189
N46	N	1.065160	0.248680	-0.124711
C47	C	1.058754	-0.000070	-0.289531
C48	C	1.060657	-0.000072	-0.389615
C49	C	0.979435	-0.000066	0.552723
C50	C	1.143668	-0.000076	0.574004
C51	C	1.145458	-0.000070	0.479971
C52	C	1.064235	-0.000064	0.422309
C53	C	0.981223	-0.000063	0.458680
C54	C	1.228469	-0.000080	0.443591
C55	C	1.230262	-0.000076	0.349552
C56	C	1.149039	-0.000063	0.291889
C57	C	1.066023	-0.000061	0.328266
C58	C	0.984800	-0.000055	0.270604
C59	C	0.901783	-0.000047	0.306979
C60	C	0.899999	-0.000050	0.401017
C61	C	1.150823	-0.000059	0.197851
C62	C	0.986588	-0.000052	0.176561
H63	H	0.810798	-0.000050	0.019971
F64	F	1.239169	-0.000084	0.159141
H65	H	0.954016	-0.258171	-0.235731
F66	F	0.348980	-0.000082	0.049330
F67	F	1.230105	-0.000096	0.635374
F68	F	1.252754	-0.396309	0.062805
F69	F	0.781275	-0.000040	-0.298753
H70	H	0.319459	-0.000068	-0.269379
H71	H	0.620472	-0.000051	-0.357443
H72	H	0.449870	-0.000054	-0.354180
F73	F	0.500679	-0.000071	0.128762
H74	H	1.176196	-0.258136	-0.013696
F75	F	0.938760	-0.754569	-0.251025
F76	F	0.900137	-0.000039	0.115200
H77	H	0.892827	-0.591263	-0.296916
F78	F	0.694815	-0.000051	0.125073
H79	H	1.294596	-0.000094	0.490546
H80	H	1.297860	-0.000082	0.319944
F81	F	0.815343	-0.000048	0.245601
H82	H	0.892811	-0.408919	-0.296924
H83	H	1.176240	-0.741963	-0.013702
H84	H	1.237457	-0.591203	0.047489
H85	H	0.832411	-0.000044	0.430643
H86	H	0.911844	-0.000055	0.582344
