data_functionalizedCrystal
_audit_creation_method	'MofGen! by Chris Wilmer'
_symmetry_space_group_name_H-M	'P1'
_symmetry_Int_Tables_number	1
_symmetry_cell_setting	triclinic
loop_
_symmetry_equiv_pos_as_xyz
  x,y,z
_cell_length_a	10.654541
_cell_length_b	17.699083
_cell_length_c	16.176319
_cell_angle_alpha	90.007696
_cell_angle_beta	89.992880
_cell_angle_gamma	96.116529
loop_
_atom_site_label
_atom_site_type_symbol
_atom_site_fract_x
_atom_site_fract_y
_atom_site_fract_z
O1	O	1.665988	-0.106296	-0.068744
O2	O	2.165988	0.393704	0.431256
O3	O	1.300332	-0.116426	-0.068746
O4	O	1.800332	0.383574	0.431254
O5	O	1.493491	-0.001237	-0.068738
O6	O	1.993491	0.498763	0.431262
O7	O	1.472829	-0.221484	-0.068752
O8	O	1.972829	0.278516	0.431248
O9	O	1.493464	-0.001230	0.068756
O10	O	1.993464	0.498770	0.568756
O11	O	1.300305	-0.116418	0.068747
O12	O	1.800305	0.383582	0.568747
O13	O	1.665962	-0.106288	0.068750
O14	O	2.165962	0.393712	0.568750
Cu15	Cu	1.483131	-0.111352	0.081302
Cu16	Cu	1.983131	0.388648	0.581302
Cu17	Cu	1.483162	-0.111361	-0.081299
Cu18	Cu	1.983162	0.388639	0.418701
O19	O	1.472803	-0.221477	0.068741
O20	O	1.972803	0.278523	0.568741
C21	C	1.492737	0.026968	0.000009
C22	C	1.992737	0.526968	0.500009
C23	C	1.490516	0.111001	0.000009
C24	C	1.990516	0.611001	0.500009
C25	C	1.253534	-0.115678	-0.000000
C26	C	1.753534	0.384322	0.500000
C27	C	1.114129	-0.113454	-0.000001
C28	C	1.614129	0.386546	0.499999
C29	C	1.712760	-0.107035	0.000002
C30	C	2.212760	0.392965	0.500002
C31	C	1.852165	-0.109260	-0.000003
C32	C	2.352165	0.390740	0.499997
C33	C	1.882547	0.028479	-0.000004
C34	C	2.382547	0.528479	0.499996
C35	C	1.963228	0.096301	-0.000009
C36	C	2.463228	0.596301	0.499991
C37	C	2.094209	0.094206	-0.000012
C38	C	2.594209	0.594206	0.499988
C39	C	2.144511	0.024283	-0.000008
C40	C	2.644511	0.524283	0.499992
C41	C	2.063829	-0.043538	-0.000003
C42	C	2.563829	0.456462	0.499997
C43	C	1.932846	-0.041436	-0.000002
C44	C	2.432846	0.458564	0.499998
C45	C	2.033448	-0.181276	0.000004
C46	C	2.533448	0.318724	0.500004
C47	C	1.902466	-0.179183	0.000001
C48	C	2.402466	0.320817	0.500001
C49	C	2.083749	-0.251199	0.000008
C50	C	2.583749	0.248801	0.500008
C51	C	2.003067	-0.319022	0.000007
C52	C	2.503067	0.180978	0.500007
C53	C	1.872078	-0.316925	0.000009
C54	C	2.372078	0.183075	0.500009
C55	C	1.821784	-0.247004	0.000006
C56	C	2.321784	0.252996	0.500006
C57	C	1.473556	-0.249682	-0.000008
C58	C	1.973556	0.250318	0.499992
C59	C	1.475777	-0.333714	-0.000013
C60	C	1.975777	0.166286	0.499987
N61	N	1.483118	-0.111346	0.195668
N62	N	1.983118	0.388654	0.695668
C63	C	1.603896	0.158901	0.000011
C64	C	2.103896	0.658901	0.500011
C65	C	1.601802	0.237858	0.000004
C66	C	2.101802	0.737858	0.500004
C67	C	1.486326	0.268912	0.000001
C68	C	1.986326	0.768912	0.500001
C69	C	1.372937	0.221005	-0.000004
C70	C	1.872937	0.721005	0.499996
C71	C	1.375033	0.142050	-0.000002
C72	C	1.875033	0.642050	0.499998
C73	C	1.364483	0.539422	-0.000011
C74	C	1.864483	1.039422	0.499989
C75	C	1.362396	0.618383	-0.000010
C76	C	1.862396	1.118383	0.499990
C77	C	1.591252	0.635230	-0.000004
C78	C	2.091252	1.135230	0.499996
C79	C	1.593348	0.556275	-0.000003
C80	C	2.093348	1.056275	0.499997
C81	C	1.479960	0.508375	-0.000012
C82	C	1.979960	1.008375	0.499988
C83	C	1.482232	0.422761	-0.000005
C84	C	1.982232	0.922761	0.499995
C85	C	1.484052	0.354524	0.000000
C86	C	1.984052	0.854524	0.500000
N87	N	1.483185	-0.111362	-0.195664
N88	N	1.983185	0.388638	0.304336
C89	C	1.568675	-0.060362	0.238936
C90	C	2.068675	0.439638	0.738936
C91	C	1.568681	-0.060361	0.325483
C92	C	2.068681	0.439639	0.825483
C93	C	1.483136	-0.111348	0.368760
C94	C	1.983136	0.388652	0.868760
C95	C	1.397570	-0.162335	0.325486
C96	C	1.897570	0.337665	0.825486
C97	C	1.397559	-0.162332	0.238941
C98	C	1.897559	0.337668	0.738941
C99	C	1.397613	-0.162350	0.674514
C100	C	1.897613	0.337650	1.174514
C101	C	1.397634	-0.162351	0.761066
C102	C	1.897634	0.337649	1.261066
C103	C	1.568735	-0.060379	0.761057
C104	C	2.068735	0.439621	1.261057
C105	C	1.568724	-0.060375	0.674511
C106	C	2.068724	0.439625	1.174511
C107	C	1.483155	-0.111359	0.631244
C108	C	1.983155	0.388641	1.131244
C109	C	1.483147	-0.111358	0.537400
C110	C	1.983147	0.388642	1.037400
C111	C	1.483148	-0.111353	0.462603
C112	C	1.983148	0.388647	0.962603
H113	H	1.775896	0.030192	-0.000010
H114	H	2.275896	0.530192	0.499990
H115	H	1.327889	-0.203847	0.203712
H116	H	1.827889	0.296153	0.703712
F117	F	1.659803	-0.006114	0.807110
F118	F	2.159803	0.493886	1.307110
H119	H	1.687380	0.530995	0.000004
H120	H	2.187380	1.030995	0.500004
H121	H	1.683578	0.674240	-0.000001
H122	H	2.183578	1.174240	0.499999
H123	H	1.922258	0.153231	-0.000000
H124	H	2.422258	0.653231	0.500000
H125	H	1.268356	0.643664	-0.000011
H126	H	1.768356	1.143664	0.499989
H127	H	1.638347	-0.018845	0.360711
H128	H	2.138347	0.481155	0.860711
H129	H	1.638340	-0.018845	0.203705
H130	H	2.138340	0.481155	0.703705
H131	H	1.638387	-0.018859	0.639277
H132	H	2.138387	0.481141	1.139277
H133	H	1.715134	-0.245290	0.000004
H134	H	2.215134	0.254710	0.500004
F135	F	1.250038	0.254058	-0.000017
F136	F	1.750038	0.754058	0.499983
F137	F	1.786220	-0.389112	0.000021
F138	F	2.286220	0.110888	0.500021
F139	F	1.243805	0.488453	-0.000022
F140	F	1.743805	0.988453	0.499978
F141	F	1.306520	-0.216597	0.371546
F142	F	1.806520	0.283403	0.871546
F143	F	1.306580	-0.216621	0.807123
F144	F	1.806580	0.283379	1.307123
H145	H	2.251164	0.022584	-0.000000
H146	H	2.751164	0.522584	0.500000
H147	H	1.697930	0.133623	0.000019
H148	H	2.197930	0.633623	0.500019
F149	F	1.722477	0.288834	0.000008
F150	F	2.222477	0.788834	0.500008
F151	F	1.306549	-0.216611	0.628473
F152	F	1.806549	0.283389	1.128473
F153	F	2.180079	0.166389	-0.000012
F154	F	2.680079	0.666389	0.499988
F155	F	2.223152	-0.253427	-0.000026
F156	F	2.723152	0.246573	0.499974
F157	F	1.254358	0.091071	-0.000007
F158	F	1.754358	0.591071	0.499993
H159	H	2.044034	-0.375948	0.000016
H160	H	2.544034	0.124052	0.500016
