data_functionalizedCrystal
_audit_creation_method	'MofGen! by Chris Wilmer'
_symmetry_space_group_name_H-M	'P1'
_symmetry_Int_Tables_number	1
_symmetry_cell_setting	triclinic
loop_
_symmetry_equiv_pos_as_xyz
  x,y,z
_cell_length_a	11.026607
_cell_length_b	9.065218
_cell_length_c	7.540329
_cell_angle_alpha	89.999489
_cell_angle_beta	90.004209
_cell_angle_gamma	83.199049
loop_
_atom_site_label
_atom_site_type_symbol
_atom_site_fract_x
_atom_site_fract_y
_atom_site_fract_z
O1	O	0.178457	-2.004895	0.147482
O2	O	0.678457	-1.504895	0.647482
O3	O	0.193095	-1.579261	0.147484
O4	O	0.693095	-1.079261	0.647484
O5	O	0.008735	-1.756802	0.147476
O6	O	0.508735	-1.256802	0.647476
O7	O	0.362817	-1.827354	0.147489
O8	O	0.862817	-1.327354	0.647489
O9	O	0.008725	-1.756797	-0.147489
O10	O	0.508725	-1.256797	0.352511
O11	O	0.193084	-1.579256	-0.147481
O12	O	0.693084	-1.079256	0.352519
O13	O	0.178447	-2.004891	-0.147483
O14	O	0.678447	-1.504891	0.352517
Cu15	Cu	0.185765	-1.792073	-0.174415
Cu16	Cu	0.685765	-1.292073	0.325585
Cu17	Cu	0.185777	-1.792078	0.174415
Cu18	Cu	0.685777	-1.292078	0.674415
O19	O	0.362806	-1.827350	-0.147476
O20	O	0.862806	-1.327350	0.352524
C21	C	0.191683	-1.523921	0.000002
C22	C	0.691683	-1.023921	0.500002
C23	C	0.187476	-1.359029	0.000002
C24	C	0.687476	-0.859029	0.500002
N25	N	0.185776	-1.792081	0.419764
N26	N	0.685776	-1.292081	0.919764
C27	C	-0.036624	-1.743784	-0.000004
C28	C	0.463376	-1.243784	0.499996
C29	C	-0.171765	-1.704984	0.000003
C30	C	0.328235	-1.204984	0.500003
C31	C	-0.244393	-1.812117	0.000005
C32	C	0.255607	-1.312117	0.500005
C33	C	-0.384068	-1.772018	0.000011
C34	C	0.115932	-1.272018	0.500011
C35	C	0.408165	-1.840368	0.000008
C36	C	0.908165	-1.340368	0.500008
C37	C	0.543306	-1.879168	0.000013
C38	C	1.043306	-1.379168	0.500013
C39	C	0.179859	-2.060230	0.000003
C40	C	0.679859	-1.560230	0.500003
C41	C	0.184065	-2.225122	0.000014
C42	C	0.684065	-1.725122	0.500014
N43	N	0.185755	-1.792080	-0.419763
N44	N	0.685755	-1.292080	0.080237
H45	H	-0.203167	-1.933525	-0.000007
H46	H	0.296833	-1.433525	0.499993
O47	O	-0.402114	-2.040003	0.000003
O48	O	0.097886	-1.540003	0.500003
H49	H	-0.300973	-2.046265	-0.000015
H50	H	0.199027	-1.546265	0.499985
O51	O	-0.226360	-1.544160	-0.000012
O52	O	0.273640	-1.044160	0.499988
H53	H	-0.283603	-1.521372	0.120204
H54	H	0.216397	-1.021372	0.620204
O55	O	-0.438651	-1.611184	0.000001
O56	O	0.061349	-1.111184	0.500001
H57	H	-0.539791	-1.604926	-0.000011
H58	H	-0.039791	-1.104926	0.499989
