data_functionalizedCrystal
_audit_creation_method	'MofGen! by Chris Wilmer'
_symmetry_space_group_name_H-M	'P1'
_symmetry_Int_Tables_number	1
_symmetry_cell_setting	triclinic
loop_
_symmetry_equiv_pos_as_xyz
  x,y,z
_cell_length_a	18.266242
_cell_length_b	14.853567
_cell_length_c	19.188930
_cell_angle_alpha	96.610144
_cell_angle_beta	90.011475
_cell_angle_gamma	89.993938
loop_
_atom_site_label
_atom_site_type_symbol
_atom_site_fract_x
_atom_site_fract_y
_atom_site_fract_z
O1	O	0.060839	-1.195864	0.091157
O2	O	0.560839	-0.695864	0.591157
O3	O	0.060853	-0.933344	0.102015
O4	O	0.560853	-0.433344	0.602015
O5	O	0.060831	-1.072180	-0.005044
O6	O	0.560831	-0.572180	0.494956
O7	O	0.060860	-1.057028	0.198216
O8	O	0.560860	-0.557028	0.698216
O9	O	-0.060931	-1.072156	-0.005050
O10	O	0.439069	-0.572156	0.494950
O11	O	-0.060909	-0.933320	0.102010
O12	O	0.439091	-0.433320	0.602010
O13	O	-0.060923	-1.195840	0.091151
O14	O	0.439077	-0.695840	0.591151
Zn15	Zn	-0.080249	-1.064577	0.096580
Zn16	Zn	0.419751	-0.564577	0.596580
Zn17	Zn	0.080178	-1.064607	0.096587
Zn18	Zn	0.580178	-0.564607	0.596587
O19	O	-0.060901	-1.057005	0.198211
O20	O	0.439099	-0.557005	0.698211
C21	C	-0.000027	-0.899746	0.101521
C22	C	0.499973	-0.399746	0.601521
C23	C	-0.000022	-0.799671	0.100046
C24	C	0.499978	-0.299671	0.600046
N25	N	-0.189735	-1.064562	0.096574
N26	N	0.310265	-0.564562	0.596574
C27	C	-0.000052	-1.071677	-0.031060
C28	C	0.499948	-0.571677	0.468940
C29	C	-0.000058	-1.070204	-0.108569
C30	C	0.499942	-0.570204	0.391431
C31	C	-0.228054	-1.126059	0.049191
C32	C	0.271946	-0.626059	0.549191
C33	C	-0.304699	-1.126064	0.049188
C34	C	0.195301	-0.626064	0.549188
C35	C	-0.343022	-1.064582	0.096580
C36	C	0.156978	-0.564582	0.596580
C37	C	-0.304695	-1.003074	0.143966
C38	C	0.195305	-0.503074	0.643966
C39	C	-0.228051	-1.003064	0.143963
C40	C	0.271949	-0.503064	0.643963
N41	N	-0.463345	-1.052863	0.158348
N42	N	0.036655	-0.552863	0.658348
N43	N	-0.536154	-1.052878	0.158349
N44	N	-0.036154	-0.552878	0.658349
C45	C	-0.573945	-1.064607	0.096590
C46	C	-0.073945	-0.564607	0.596590
N47	N	-0.536177	-1.076339	0.034829
N48	N	-0.036177	-0.576339	0.534829
N49	N	-0.463363	-1.076328	0.034829
N50	N	0.036637	-0.576328	0.534829
C51	C	-0.426129	-1.064586	0.096588
C52	C	0.073871	-0.564586	0.596588
C53	C	-0.695370	-1.126113	0.049200
C54	C	-0.195370	-0.626113	0.549200
C55	C	-0.772017	-1.126113	0.049196
C56	C	-0.272017	-0.626113	0.549196
C57	C	-0.772011	-1.003127	0.143980
C58	C	-0.272011	-0.503127	0.643980
C59	C	-0.695366	-1.003123	0.143978
C60	C	-0.195366	-0.503123	0.643978
C61	C	-0.657050	-1.064621	0.096589
C62	C	-0.157050	-0.564621	0.596589
N63	N	0.189665	-1.064629	0.096587
N64	N	0.689665	-0.564629	0.596587
C65	C	-0.000042	-1.229438	0.091646
C66	C	0.499958	-0.729438	0.591646
C67	C	-0.000042	-1.329513	0.093120
C68	C	0.499958	-0.829513	0.593120
C69	C	-0.000049	-0.387525	0.030218
C70	C	0.499951	0.112475	0.530218
C71	C	-0.000030	-0.365537	0.157407
C72	C	0.499970	0.134463	0.657407
C73	C	-0.000027	-0.459563	0.158794
C74	C	0.499973	0.040437	0.658794
C75	C	-0.000034	-0.517574	0.095891
C76	C	0.499966	-0.017574	0.595891
C77	C	-0.000044	-0.481560	0.031602
C78	C	0.499956	0.018440	0.531602
C79	C	-0.000010	-0.495585	0.223081
C80	C	0.499990	0.004415	0.723081
C81	C	-0.000007	-0.589616	0.224470
C82	C	0.499993	-0.089616	0.724470
C83	C	-0.000019	-0.647629	0.161567
C84	C	0.499981	-0.147629	0.661567
C85	C	-0.000030	-0.611610	0.097276
C86	C	0.499970	-0.111610	0.597276
C87	C	-0.000037	-0.669621	0.034373
C88	C	0.499963	-0.169621	0.534373
C89	C	-0.000053	-0.633603	-0.029919
C90	C	0.499947	-0.133603	0.470081
C91	C	-0.000056	-0.539574	-0.031301
C92	C	0.499944	-0.039574	0.468699
C93	C	-0.000015	-0.741659	0.162949
C94	C	0.499985	-0.241659	0.662949
C95	C	-0.000032	-0.763656	0.035757
C96	C	0.499968	-0.263656	0.535757
C97	C	-0.000066	-1.151668	-0.153221
C98	C	0.499934	-0.651668	0.346779
C99	C	-0.000054	-1.150285	-0.226050
C100	C	0.499946	-0.650285	0.273950
C101	C	-0.000049	-1.067432	-0.254223
C102	C	0.499951	-0.567432	0.245777
C103	C	-0.000037	-0.985957	-0.209561
C104	C	0.499963	-0.485957	0.290439
C105	C	-0.000042	-0.987343	-0.136734
C106	C	0.499958	-0.487343	0.363266
N107	N	-0.041484	-1.004093	-0.362441
N108	N	0.458516	-0.504093	0.137559
N109	N	-0.041481	-1.002782	-0.431624
N110	N	0.458519	-0.502782	0.068376
C111	C	-0.000034	-1.063251	-0.473645
C112	C	0.499966	-0.563251	0.026355
N113	N	0.041401	-1.125094	-0.443872
N114	N	0.541401	-0.625094	0.056128
N115	N	0.041395	-1.126408	-0.374683
N116	N	0.541395	-0.626408	0.125317
C117	C	-0.000044	-1.065920	-0.333190
C118	C	0.499956	-0.565920	0.166810
C119	C	-0.000028	-1.143220	-0.597267
C120	C	0.499972	-0.643220	-0.097267
C121	C	-0.000012	-1.141833	-0.670096
C122	C	0.499988	-0.641833	-0.170096
C123	C	-0.000003	-0.977503	-0.653606
C124	C	0.499997	-0.477503	-0.153606
C125	C	-0.000011	-0.978893	-0.580778
C126	C	0.499989	-0.478893	-0.080778
C127	C	-0.000028	-1.061754	-0.552613
C128	C	0.499972	-0.561754	-0.052613
C129	C	-0.000017	-1.057507	0.224226
C130	C	0.499983	-0.557507	0.724226
C131	C	-0.000006	-1.058980	0.301736
C132	C	0.499994	-0.558980	0.801736
H133	H	-0.196859	-1.176132	0.010603
H134	H	0.303141	-0.676132	0.510603
H135	H	-0.000004	-0.770981	0.215294
H136	H	0.499996	-0.270981	0.715294
F137	F	-0.000013	-0.303795	0.224348
F138	F	0.499987	0.196205	0.724348
F139	F	-0.000006	-0.892186	-0.533253
F140	F	0.499994	-0.392186	-0.033253
F141	F	-0.000069	-0.349192	-0.038203
F142	F	0.499931	0.150808	0.461797
H143	H	-0.803214	-0.953064	0.182564
H144	H	-0.303214	-0.453064	0.682564
F145	F	-0.000049	-1.231407	-0.567290
F146	F	0.499951	-0.731407	-0.067290
H147	H	-0.335902	-0.953013	0.182552
H148	H	0.164098	-0.453013	0.682552
H149	H	-0.000057	-1.216625	-0.262413
H150	H	0.499943	-0.716625	0.237587
F151	F	-0.000045	-0.825390	-0.031194
F152	F	0.499955	-0.325390	0.468806
F153	F	-0.654582	-0.937674	0.194412
F154	F	-0.154582	-0.437674	0.694412
H155	H	-0.000053	-0.680849	-0.081134
H156	H	0.499947	-0.180849	0.418866
H157	H	0.000003	-0.448345	0.274293
H158	H	0.500003	0.051655	0.774293
F159	F	-0.000033	-0.900634	-0.089210
F160	F	0.499967	-0.400634	0.410790
F161	F	0.000009	-0.627940	0.292895
F162	F	0.500009	-0.127940	0.792895
F163	F	-0.000067	-1.239857	-0.123251
F164	F	0.499933	-0.739857	0.376749
H165	H	-0.803216	-1.176188	0.010607
H166	H	-0.303216	-0.676188	0.510607
F167	F	-0.000070	-0.501234	-0.099719
F168	F	0.499930	-0.001234	0.400281
F169	F	-0.000015	-1.228544	-0.717620
F170	F	0.499985	-0.728544	-0.217620
F171	F	-0.000028	-0.897779	-0.239545
F172	F	0.499972	-0.397779	0.260455
H173	H	-0.335903	-1.176144	0.010602
H174	H	0.164097	-0.676144	0.510602
F175	F	-0.187268	-0.937609	0.194397
F176	F	0.312732	-0.437609	0.694397
H177	H	-0.664172	-1.176186	0.010610
H178	H	-0.164172	-0.676186	0.510610
H179	H	0.000005	-0.910043	-0.676543
H180	H	0.500005	-0.410043	-0.176543
