data_functionalizedCrystal
_audit_creation_method	'MofGen! by Chris Wilmer'
_symmetry_space_group_name_H-M	'P1'
_symmetry_Int_Tables_number	1
_symmetry_cell_setting	triclinic
loop_
_symmetry_equiv_pos_as_xyz
  x,y,z
_cell_length_a	21.395362
_cell_length_b	18.101397
_cell_length_c	21.395355
_cell_angle_alpha	90.019934
_cell_angle_beta	90.043940
_cell_angle_gamma	90.036343
loop_
_atom_site_label
_atom_site_type_symbol
_atom_site_fract_x
_atom_site_fract_y
_atom_site_fract_z
Zn1	Zn	0.957904	-0.294601	0.354579
Zn2	Zn	1.457904	0.205399	0.854579
Zn3	Zn	0.957825	-0.418425	0.249799
Zn4	Zn	1.457825	0.081575	0.749799
Zn5	Zn	0.853119	-0.294636	0.249781
Zn6	Zn	1.353119	0.205364	0.749781
Zn7	Zn	0.853107	-0.418440	0.354504
Zn8	Zn	1.353107	0.081560	0.854504
O9	O	0.905489	-0.356526	0.302166
O10	O	1.405489	0.143474	0.802166
O11	O	1.045572	-0.311006	0.340720
O12	O	1.545572	0.188994	0.840720
O13	O	0.943908	-0.402012	0.162119
O14	O	1.443908	0.097988	0.662119
O15	O	0.867057	-0.190998	0.263706
O16	O	1.367057	0.309002	0.763706
O17	O	1.045514	-0.401979	0.263738
O18	O	1.545514	0.098021	0.763738
O19	O	0.944042	-0.190973	0.340701
O20	O	1.444042	0.309027	0.840701
O21	O	0.866981	-0.311065	0.162105
O22	O	1.366981	0.188935	0.662105
O23	O	0.765439	-0.311080	0.263633
O24	O	1.265439	0.188920	0.763633
O25	O	0.867036	-0.402005	0.442192
O26	O	1.367036	0.097995	0.942192
O27	O	0.765431	-0.402038	0.340573
O28	O	1.265431	0.097962	0.840573
O29	O	0.944030	-0.311021	0.442247
O30	O	1.444030	0.188979	0.942247
O31	O	0.943896	-0.522060	0.263665
O32	O	1.443896	-0.022060	0.763665
O33	O	0.866960	-0.522071	0.340591
O34	O	1.366960	-0.022071	0.840591
C35	C	0.742701	-0.356565	0.302093
C36	C	1.242701	0.143435	0.802093
C37	C	0.673060	-0.356599	0.302077
C38	C	1.173060	0.143401	0.802077
C39	C	0.905435	-0.548936	0.302136
C40	C	1.405435	-0.048936	0.802136
C41	C	0.905470	-0.631250	0.302144
C42	C	1.405470	-0.131250	0.802144
C43	C	0.640359	-0.404024	0.342080
C44	C	1.140359	0.095976	0.842080
C45	C	0.574923	-0.404006	0.342107
C46	C	1.074923	0.095994	0.842107
C47	C	0.542192	-0.356571	0.302122
C48	C	1.042192	0.143429	0.802122
C49	C	0.574901	-0.309137	0.262116
C50	C	1.074901	0.190863	0.762116
C51	C	0.640335	-0.309151	0.262094
C52	C	1.140335	0.190849	0.762094
C53	C	0.438466	-0.350605	0.245717
C54	C	0.938466	0.149395	0.745717
C55	C	0.373033	-0.350596	0.245738
C56	C	0.873033	0.149404	0.745738
C57	C	0.340371	-0.356522	0.302191
C58	C	0.840371	0.143478	0.802191
C59	C	0.373150	-0.362474	0.358624
C60	C	0.873150	0.137526	0.858624
C61	C	0.438584	-0.362488	0.358602
C62	C	0.938584	0.137512	0.858602
C63	C	0.471239	-0.356550	0.302142
C64	C	0.971239	0.143450	0.802142
C65	C	0.236717	-0.403930	0.342227
C66	C	0.736717	0.096070	0.842227
C67	C	0.171280	-0.403907	0.342256
C68	C	0.671280	0.096093	0.842256
C69	C	0.171259	-0.309042	0.262259
C70	C	0.671259	0.190958	0.762259
C71	C	0.236695	-0.309061	0.262236
C72	C	0.736695	0.190939	0.762236
C73	C	0.269420	-0.356509	0.302219
C74	C	0.769420	0.143491	0.802219
C75	C	0.905550	-0.930341	0.302201
C76	C	1.405550	-0.430341	0.802201
C77	C	0.953821	-0.898978	0.253671
C78	C	1.453821	-0.398978	0.753671
C79	C	0.953988	-0.813359	0.253797
C80	C	1.453988	-0.313359	0.753797
C81	C	0.905510	-0.781959	0.302172
C82	C	1.405510	-0.281959	0.802172
C83	C	0.923415	-0.812974	0.368221
C84	C	1.423415	-0.312974	0.868221
C85	C	0.923789	-0.898619	0.367956
C86	C	1.423789	-0.398619	0.867956
C87	C	0.839245	-0.898868	0.285253
C88	C	1.339245	-0.398868	0.785253
C89	C	0.839572	-0.813218	0.283779
C90	C	1.339572	-0.313218	0.783779
C91	C	0.905486	-0.698099	0.302159
C92	C	1.405486	-0.198099	0.802159
C93	C	0.905575	-1.014201	0.302217
C94	C	1.405575	-0.514201	0.802217
C95	C	1.068912	-0.356487	0.302239
C96	C	1.568912	0.143513	0.802239
C97	C	1.138553	-0.356470	0.302271
C98	C	1.638553	0.143530	0.802271
C99	C	0.905541	-0.356511	0.465589
C100	C	1.405541	0.143489	0.965589
C101	C	0.905563	-0.356504	0.535231
C102	C	1.405563	0.143496	1.035231
C103	C	0.905560	-0.163364	0.302210
C104	C	1.405560	0.336636	0.802210
C105	C	0.905590	-0.081050	0.302229
C106	C	1.405590	0.418950	0.802229
C107	C	0.905473	-0.356487	0.139378
C108	C	1.405473	0.143513	0.639378
C109	C	0.905572	-0.356285	0.069737
C110	C	1.405572	0.143715	0.569737
C111	C	0.945652	-0.309127	0.567974
C112	C	1.445652	0.190873	1.067974
C113	C	0.945651	-0.309095	0.633409
C114	C	1.445651	0.190905	1.133409
C115	C	0.905568	-0.356454	0.666099
C116	C	1.405568	0.143546	1.166099
C117	C	0.865471	-0.403834	0.633348
C118	C	1.365471	0.096166	1.133348
C119	C	0.865469	-0.403859	0.567914
C120	C	1.365469	0.096141	1.067914
C121	C	0.900602	-0.423137	0.769761
C122	C	1.400602	0.076863	1.269761
C123	C	0.900609	-0.423113	0.835194
C124	C	1.400609	0.076887	1.335194
C125	C	0.905572	-0.356375	0.867920
C126	C	1.405572	0.143625	1.367920
C127	C	0.910541	-0.289660	0.835204
C128	C	1.410541	0.210340	1.335204
C129	C	0.910539	-0.289685	0.769770
C130	C	1.410539	0.210315	1.269770
C131	C	0.905566	-0.356431	0.737051
C132	C	1.405566	0.143569	1.237051
C133	C	0.945662	-0.308960	0.971615
C134	C	1.445662	0.191040	1.471615
C135	C	0.945657	-0.308927	1.037052
C136	C	1.445657	0.191073	1.537052
C137	C	0.865480	-0.403672	1.036990
C138	C	1.365480	0.096328	1.536990
C139	C	0.865482	-0.403699	0.971555
C140	C	1.365482	0.096301	1.471555
C141	C	0.905576	-0.356344	0.938871
C142	C	1.405576	0.143656	1.438871
H143	H	0.666999	-0.442659	0.374638
H144	H	1.166999	0.057341	0.874638
H145	H	0.465270	-0.367332	0.404552
H146	H	0.965270	0.132668	0.904552
H147	H	0.548292	-0.442624	0.374685
H148	H	1.048292	0.057376	0.874685
H149	H	0.978306	-0.270396	0.945003
H150	H	1.478306	0.229604	1.445003
H151	H	0.144656	-0.442524	0.374835
H152	H	0.644656	0.057476	0.874835
C153	C	0.821383	-0.455821	0.935536
C154	C	1.321383	0.044179	1.435536
N155	N	0.788164	-0.495081	0.908407
N156	N	1.288164	0.004919	1.408407
H157	H	0.832837	-0.442225	1.063605
H158	H	1.332837	0.057775	1.563605
C159	C	1.020341	-0.785584	0.268944
C160	C	1.520341	-0.285584	0.768944
N161	N	1.070322	-0.764665	0.280352
N162	N	1.570322	-0.264665	0.780352
H163	H	0.263363	-0.442561	0.374787
H164	H	0.763363	0.057439	0.874787
H165	H	0.896566	-0.477436	0.861826
H166	H	1.396566	0.022564	1.361826
C167	C	0.135258	-0.256861	0.218274
C168	C	0.635258	0.243139	0.718274
N169	N	0.108139	-0.217557	0.185145
N170	N	0.608139	0.282443	0.685145
C171	C	0.272668	-0.256896	0.218223
C172	C	0.772668	0.243104	0.718223
N173	N	0.299762	-0.217602	0.185072
N174	N	0.799762	0.282398	0.685072
C175	C	0.989759	-0.256804	1.073069
C176	C	1.489759	0.243196	1.573069
N177	N	1.022979	-0.217544	1.100198
N178	N	1.522979	0.282456	1.600198
C179	C	0.878361	-0.926648	0.418478
C180	C	1.378361	-0.426648	0.918478
N181	N	0.844150	-0.947756	0.456535
N182	N	1.344150	-0.447756	0.956535
H183	H	0.889332	-0.792635	0.405352
H184	H	1.389332	-0.292635	0.905352
H185	H	0.548247	-0.270513	0.229561
H186	H	1.048247	0.229487	0.729561
H187	H	0.896393	-0.477468	0.743122
H188	H	1.396393	0.022532	1.243122
H189	H	0.832820	-0.442439	0.541255
H190	H	1.332820	0.057561	1.041255
H191	H	0.666960	-0.270530	0.229519
H192	H	1.166960	0.229470	0.729519
C193	C	0.790656	-0.926276	0.333001
C194	C	1.290656	-0.426276	0.833001
N195	N	0.754063	-0.946924	0.368967
N196	N	1.254063	-0.446924	0.868967
C197	C	0.337226	-0.368991	0.420728
C198	C	0.837226	0.131009	0.920728
N199	N	0.310166	-0.373900	0.467503
N200	N	0.810166	0.126100	0.967503
C201	C	0.336983	-0.344044	0.183661
C202	C	0.836983	0.155956	0.683661
N203	N	0.309831	-0.339105	0.136903
N204	N	0.809831	0.160895	0.636903
C205	C	0.989749	-0.257025	0.532026
C206	C	1.489749	0.242975	1.032026
N207	N	1.022960	-0.217778	0.504949
N208	N	1.522960	0.282222	1.004949
H209	H	0.832833	-0.442392	0.659968
H210	H	1.332833	0.057608	1.159968
H211	H	0.465054	-0.345775	0.199743
H212	H	0.965054	0.154225	0.699743
H213	H	0.914583	-0.235316	0.861848
H214	H	1.414583	0.264684	1.361848
C215	C	0.988161	-0.783910	0.387937
C216	C	1.488161	-0.283910	0.887937
N217	N	1.036930	-0.762020	0.402783
N218	N	1.536930	-0.262020	0.902783
H219	H	0.942785	-0.792391	0.204823
H220	H	1.442785	-0.292391	0.704823
H221	H	0.942753	-0.919614	0.204551
H222	H	1.442753	-0.419614	0.704551
C223	C	0.821326	-0.785832	0.218117
C224	C	1.321326	-0.285832	0.718117
N225	N	0.807584	-0.765197	0.168662
N226	N	1.307584	-0.265197	0.668662
H227	H	0.972255	-0.918525	0.382310
H228	H	1.472255	-0.418525	0.882310
C229	C	1.019809	-0.927975	0.268638
C230	C	1.519809	-0.427975	0.768638
N231	N	1.069510	-0.949823	0.279909
N232	N	1.569510	-0.449823	0.779909
C233	C	0.788368	-0.784353	0.328030
C234	C	1.288368	-0.284353	0.828030
N235	N	0.749802	-0.762613	0.361366
N236	N	1.249802	-0.262613	0.861366
C237	C	0.989758	-0.256979	0.669433
C238	C	1.489758	0.243021	1.169433
N239	N	1.022981	-0.217727	0.696565
N240	N	1.522981	0.282273	1.196565
H241	H	0.822957	-0.920524	0.237924
H242	H	1.322957	-0.420524	0.737924
C243	C	0.915996	-0.216299	0.733785
C244	C	1.415996	0.283701	1.233785
N245	N	0.920102	-0.161023	0.706682
N246	N	1.420102	0.338977	1.206682
