data_functionalizedCrystal
_audit_creation_method	'MofGen! by Chris Wilmer'
_symmetry_space_group_name_H-M	'P1'
_symmetry_Int_Tables_number	1
_symmetry_cell_setting	triclinic
loop_
_symmetry_equiv_pos_as_xyz
  x,y,z
_cell_length_a	19.288864
_cell_length_b	8.559649
_cell_length_c	18.366186
_cell_angle_alpha	89.997058
_cell_angle_beta	89.980630
_cell_angle_gamma	76.457456
loop_
_atom_site_label
_atom_site_type_symbol
_atom_site_fract_x
_atom_site_fract_y
_atom_site_fract_z
O1	O	0.910984	0.199401	-0.060777
O2	O	0.707325	0.226301	-0.060726
O3	O	0.827097	-0.019880	-0.060755
O4	O	0.791212	0.445582	-0.060748
O5	O	0.827086	-0.019886	0.060344
O6	O	0.707314	0.226295	0.060373
O7	O	0.910973	0.199396	0.060322
Zn8	Zn	0.809142	0.212844	0.079575
Zn9	Zn	0.809156	0.212852	-0.079979
O10	O	0.791201	0.445576	0.060351
C11	C	0.681488	0.225432	-0.000170
C12	C	0.604519	0.222834	-0.000151
C13	C	0.829811	-0.079432	-0.000208
C14	C	0.837906	-0.256871	-0.000214
C15	C	0.552314	0.367282	-0.000161
C16	C	0.479994	0.364841	-0.000169
C17	C	0.459883	0.217944	-0.000182
C18	C	0.512099	0.073477	-0.000169
C19	C	0.584417	0.075922	-0.000154
C20	C	0.357627	0.102469	-0.042635
C21	C	0.285310	0.100030	-0.042655
C22	C	0.236829	0.210396	-0.000226
C23	C	0.260673	0.323229	0.042213
C24	C	0.332991	0.325675	0.042228
C25	C	0.381467	0.215276	-0.000198
C26	C	0.106205	0.352207	-0.000243
C27	C	0.033884	0.349760	-0.000247
C28	C	0.065991	0.058393	-0.000254
C29	C	0.138310	0.060844	-0.000244
C30	C	0.158412	0.207756	-0.000241
C31	C	0.936810	0.200264	-0.000235
C32	C	1.013778	0.202862	-0.000259
C33	C	0.788487	0.505129	-0.000198
C34	C	0.780392	0.682567	-0.000197
N35	N	0.809137	0.212838	0.188466
N36	N	0.809167	0.212845	-0.188870
C37	C	0.862202	0.103866	0.773003
C38	C	0.862202	0.103870	0.696776
C39	C	0.809157	0.212837	0.658677
C40	C	0.756118	0.321837	0.696813
C41	C	0.756123	0.321841	0.773039
C42	C	0.744756	0.234170	0.537939
C43	C	0.744750	0.234155	0.461714
C44	C	0.809141	0.212834	0.423570
C45	C	0.873542	0.191495	0.461660
C46	C	0.873547	0.191499	0.537886
C47	C	0.809146	0.212846	0.576022
C48	C	0.862181	0.103853	0.302788
C49	C	0.862182	0.103868	0.226559
C50	C	0.756092	0.321827	0.226598
C51	C	0.756096	0.321820	0.302826
C52	C	0.809141	0.212825	0.340916
H53	H	0.568676	0.486909	-0.000160
H54	H	0.905391	0.015123	0.665727
H55	H	0.221201	0.413100	0.076763
H56	H	0.626924	-0.041708	-0.000147
Br57	Br	0.684116	0.469722	0.354575
H58	H	0.905374	0.015107	0.333803
H59	H	0.495719	-0.046127	-0.000190
H60	H	0.712904	0.410557	0.195579
Br61	Br	0.684131	0.469735	0.645111
Br62	Br	0.365350	0.478792	0.099822
H63	H	0.692312	0.251512	0.430707
Br64	Br	0.423417	-0.047333	-0.100220
H65	H	0.437480	0.482471	-0.000174
Br66	Br	0.687996	-0.177606	-0.000169
H67	H	0.893342	-0.340776	-0.000222
H68	H	-0.008622	0.467392	-0.000250
Br69	Br	0.934190	-0.044046	0.824698
H70	H	0.692317	0.251540	0.568990
Br71	Br	0.133492	0.551582	-0.000235
Br72	Br	0.960943	0.162553	0.589578
H73	H	0.925975	0.174146	0.430605
H74	H	0.712935	0.410587	0.804083
Br75	Br	0.934168	-0.044030	0.174811
H76	H	0.049617	-0.061214	-0.000311
H77	H	0.180818	-0.056781	-0.000240
H78	H	0.265902	0.008161	-0.077214
