data_functionalizedCrystal
_audit_creation_method	'MofGen! by Chris Wilmer'
_symmetry_space_group_name_H-M	'P1'
_symmetry_Int_Tables_number	1
_symmetry_cell_setting	triclinic
loop_
_symmetry_equiv_pos_as_xyz
  x,y,z
_cell_length_a	10.489741
_cell_length_b	23.532407
_cell_length_c	8.965430
_cell_angle_alpha	89.995773
_cell_angle_beta	89.998843
_cell_angle_gamma	83.693926
loop_
_atom_site_label
_atom_site_type_symbol
_atom_site_fract_x
_atom_site_fract_y
_atom_site_fract_z
O1	O	1.691383	0.080340	-0.123964
O2	O	1.319936	0.087881	-0.123989
O3	O	1.516860	0.001253	-0.123949
O4	O	1.494458	0.166968	-0.124005
O5	O	1.516844	0.001259	0.124130
O6	O	1.319920	0.087887	0.124090
O7	O	1.691366	0.080346	0.124115
Cu8	Cu	1.505641	0.084117	0.146754
Cu9	Cu	1.505661	0.084110	-0.146628
O10	O	1.494442	0.166974	0.124074
C11	C	1.272415	0.087315	0.000048
C12	C	1.130842	0.085611	0.000039
C13	C	1.064535	0.030491	0.000072
C14	C	0.971550	0.056526	-0.122250
C15	C	0.971568	0.056545	0.122337
C16	C	1.039723	0.111668	-0.122383
C17	C	1.039750	0.111679	0.122313
C18	C	0.946792	0.137754	-0.000039
C19	C	1.516282	-0.019964	0.000095
C20	C	1.514566	-0.083192	0.000106
C21	C	1.620344	-0.481594	0.000031
C22	C	1.618751	-0.541005	0.000020
O23	O	1.716808	-0.577100	-0.000029
N24	N	1.501680	-0.564407	0.000013
C25	C	1.386194	-0.528395	0.000003
O26	O	1.286470	-0.553755	-0.000006
C27	C	1.387789	-0.468985	0.000003
C28	C	1.504868	-0.445587	0.000025
C29	C	1.737414	-0.458195	0.000051
C30	C	1.739007	-0.398788	0.000066
C31	C	1.623530	-0.362781	0.000060
C32	C	1.506460	-0.386180	0.000039
C33	C	1.272305	-0.432974	-0.000018
C34	C	1.273909	-0.373561	-0.000018
C35	C	1.390988	-0.350162	0.000004
C36	C	1.392576	-0.290766	0.000048
N37	N	1.509648	-0.267364	0.000054
C38	C	1.625125	-0.303371	0.000060
C39	C	1.382854	-0.653160	-0.000002
C40	C	1.381258	-0.712568	0.000008
C41	C	1.613816	-0.725174	0.000023
C42	C	1.615410	-0.665765	0.000023
C43	C	1.499926	-0.629758	0.000005
C44	C	1.628461	-0.178612	0.000092
C45	C	1.630043	-0.119200	0.000112
C46	C	1.397486	-0.106599	0.000090
C47	C	1.395903	-0.166006	0.000077
C48	C	1.511401	-0.202012	0.000073
O49	O	1.294571	-0.254636	0.000090
O50	O	1.724833	-0.278003	0.000049
C51	C	1.738887	0.080912	0.000075
C52	C	1.880460	0.082616	0.000073
C53	C	1.495021	0.188191	0.000028
C54	C	1.496736	0.251419	0.000006
N55	N	1.505637	0.084121	0.353103
N56	N	1.505676	0.084101	-0.352977
C57	C	1.414538	0.124171	0.450390
C58	C	1.529652	0.135693	0.549807
C59	C	1.390572	0.072603	0.549813
C60	C	1.620808	0.095670	0.450331
C61	C	1.481652	0.032557	0.450328
C62	C	1.596850	0.044059	0.549701
H63	H	1.069783	0.134970	-0.225914
O64	O	0.886076	0.191875	-0.000393
C65	C	0.852009	0.282050	-0.129641
C66	C	0.920828	0.220771	-0.129435
H67	H	0.880101	0.305434	-0.233944
H68	H	0.743801	0.280392	-0.128741
H69	H	0.881246	0.305704	-0.026314
H70	H	0.891696	0.197082	-0.232744
H71	H	1.029021	0.222470	-0.130257
H72	H	1.176967	-0.452014	-0.000045
H73	H	1.300568	-0.185058	0.000101
O74	O	1.161640	-0.338642	-0.000232
C75	C	0.963411	-0.309662	-0.128828
C76	C	1.090491	-0.349248	-0.128757
H77	H	0.905863	-0.318215	-0.232744
H78	H	0.905658	-0.318247	-0.025088
H79	H	0.984682	-0.263185	-0.128745
H80	H	1.069336	-0.395739	-0.128892
H81	H	1.148206	-0.340614	-0.232487
H82	H	1.285921	-0.731613	0.000016
H83	H	1.718153	0.105455	0.406816
H84	H	1.070014	0.134985	0.225718
O85	O	1.726027	-0.760135	0.000278
C86	C	1.924332	-0.789088	0.128745
C87	C	1.797300	-0.749470	0.128660
H88	H	1.982005	-0.780471	0.232515
H89	H	1.903143	-0.835578	0.128829
H90	H	1.981935	-0.780518	0.024878
H91	H	1.739635	-0.757989	0.232509
H92	H	1.818579	-0.702993	0.128498
O93	O	1.554101	0.187661	0.602030
C94	C	1.694483	0.240258	0.747690
C95	C	1.666978	0.181371	0.688619
H96	H	1.785728	0.235191	0.817735
H97	H	1.707401	0.269992	0.649750
H98	H	1.610615	0.259184	0.819403
H99	H	1.750808	0.162395	0.616929
H100	H	1.654009	0.151677	0.786627
H101	H	1.303468	-0.077271	0.000090
H102	H	1.288807	-0.623845	-0.000004
O103	O	1.322851	0.164685	0.398421
C104	C	1.244574	0.264813	0.390225
C105	C	1.348498	0.218991	0.449153
H106	H	1.265258	0.308729	0.431243
H107	H	1.244803	0.264217	0.263075
H108	H	1.146661	0.255406	0.432817
H109	H	1.446463	0.228367	0.406671
H110	H	1.348156	0.219597	0.576301
O111	O	1.689034	0.003703	0.601339
C112	C	1.914444	-0.029763	0.608887
C113	C	1.810177	0.015982	0.550332
H114	H	2.012409	-0.019858	0.567646
H115	H	1.913346	-0.029730	0.736040
H116	H	1.894748	-0.073593	0.566239
H117	H	1.829802	0.059835	0.592870
H118	H	1.811301	0.015899	0.423180
O119	O	1.274577	0.060916	0.602120
C120	C	1.158895	-0.002609	0.747599
C121	C	1.290345	0.010560	0.688497
H122	H	1.171595	-0.043328	0.817420
H123	H	1.115184	0.034491	0.819460
H124	H	1.092570	-0.008759	0.649565
H125	H	1.356768	0.016699	0.786438
H126	H	1.333952	-0.026546	0.616590
H127	H	0.941318	0.033202	-0.225650
O128	O	1.125429	-0.023598	0.000141
C129	C	1.158438	-0.114129	0.127820
C130	C	1.089368	-0.052896	0.127922
H131	H	1.129329	-0.137831	0.231136
H132	H	1.130614	-0.137563	0.023488
H133	H	1.266590	-0.112310	0.128804
H134	H	0.981203	-0.054663	0.126992
H135	H	1.117297	-0.029486	0.232247
O136	O	1.743812	-0.096499	-0.000138
C137	C	1.943106	-0.089125	-0.128602
C138	C	1.814303	-0.114859	-0.128518
H139	H	2.000146	-0.103969	-0.232370
H140	H	1.924495	-0.040476	-0.128687
H141	H	2.000072	-0.103914	-0.024734
H142	H	1.757271	-0.100115	-0.232368
H143	H	1.833004	-0.163505	-0.128355
O144	O	1.457225	-0.019390	0.397965
C145	C	1.317976	-0.071801	0.250173
C146	C	1.345527	-0.012935	0.309348
H147	H	1.227653	-0.066604	0.178541
H148	H	1.402538	-0.091125	0.180103
H149	H	1.303296	-0.101261	0.348173
H150	H	1.360179	0.016569	0.211440
H151	H	1.260950	0.006343	0.379463
H152	H	1.722510	-0.207922	0.000082
O153	O	1.849682	-0.493109	-0.000136
C154	C	2.047955	-0.522067	-0.128664
C155	C	1.920862	-0.482491	-0.128635
H156	H	2.105527	-0.513504	-0.232560
H157	H	2.105675	-0.513482	-0.024905
H158	H	2.026703	-0.568547	-0.128591
H159	H	1.941997	-0.435997	-0.128761
H160	H	1.863180	-0.491125	-0.232386
O161	O	1.852704	-0.376035	0.000330
C162	C	1.989462	-0.316262	0.128794
C163	C	1.860662	-0.341998	0.128708
H164	H	1.995927	-0.288728	0.232560
H165	H	2.071765	-0.352186	0.128885
H166	H	1.996008	-0.288786	0.024924
H167	H	1.853990	-0.369468	0.232560
H168	H	1.778421	-0.306047	0.128539
H169	H	0.941358	0.033215	0.225751
H170	H	1.710746	-0.646718	0.000040
