data_functionalizedCrystal
_audit_creation_method	'MofGen! by Chris Wilmer'
_symmetry_space_group_name_H-M	'P1'
_symmetry_Int_Tables_number	1
_symmetry_cell_setting	triclinic
loop_
_symmetry_equiv_pos_as_xyz
  x,y,z
_cell_length_a	15.995350
_cell_length_b	10.654550
_cell_length_c	9.130313
_cell_angle_alpha	90.000110
_cell_angle_beta	89.996588
_cell_angle_gamma	83.988639
loop_
_atom_site_label
_atom_site_type_symbol
_atom_site_fract_x
_atom_site_fract_y
_atom_site_fract_z
O1	O	-1.111921	-0.161867	-0.121671
O2	O	-0.868262	-0.181857	-0.121701
O3	O	-0.995693	0.010950	-0.121680
O4	O	-0.984489	-0.354674	-0.121692
O5	O	-0.995692	0.010945	0.121919
O6	O	-0.868260	-0.181862	0.121898
O7	O	-1.111919	-0.161873	0.121927
Cu8	Cu	-0.990089	-0.171868	0.144155
Cu9	Cu	-0.990091	-0.171862	-0.143929
O10	O	-0.984487	-0.354680	0.121906
C11	C	-0.837061	-0.181033	0.000095
C12	C	-0.744096	-0.178555	0.000083
C13	C	-1.143119	-0.162696	0.000129
C14	C	-1.236084	-0.165174	0.000130
C15	C	-0.406297	-0.169658	0.000114
C16	C	-0.452934	-0.032344	0.000662
C17	C	-0.549639	-0.034822	0.000103
C18	C	-0.573883	-0.174071	0.000100
C19	C	-0.533190	-0.241796	-0.139004
C20	C	-0.436535	-0.238347	-0.139110
C21	C	-0.436210	-0.241190	0.137907
C22	C	-0.533156	-0.241157	0.139736
C23	C	-0.668595	-0.176573	0.000086
C24	C	-0.311585	-0.167161	0.000117
C25	C	-0.994870	0.057735	0.000117
C26	C	-0.992409	0.197146	0.000112
C27	C	-0.985311	-0.401464	0.000106
C28	C	-0.987772	-0.540875	0.000101
N29	N	-0.990094	-0.171871	0.346778
C30	C	-1.067438	0.277612	0.000126
C31	C	-1.065121	0.408603	0.000115
C32	C	-0.912737	0.378648	0.000084
C33	C	-0.915055	0.247660	0.000084
C34	C	-1.144792	0.227098	0.000154
C35	C	-1.219828	0.307565	0.000169
C36	C	-1.217510	0.438555	0.000159
C37	C	-1.140156	0.489079	0.000133
N38	N	-0.990093	-0.171848	-0.346551
C39	C	-1.046536	-0.086525	0.423439
C40	C	-1.046533	-0.086510	0.576776
C41	C	-0.933646	-0.257198	0.576777
C42	C	-0.933644	-0.257206	0.423443
C43	C	-1.102985	-0.001190	0.346774
C44	C	-1.159432	0.084162	0.423436
C45	C	-1.159430	0.084177	0.576772
C46	C	-1.102981	-0.001160	0.653448
H47	H	-0.577758	0.018413	0.099818
C48	C	-1.102989	-0.001210	0.178110
H49	H	-1.061293	-0.064268	0.143432
H50	H	-1.091075	0.079063	0.143401
H51	H	-1.156603	-0.018468	0.143442
H52	H	-1.278608	0.504069	0.000156
C53	C	-1.102972	-0.001142	0.822115
H54	H	-1.061270	-0.064185	0.856796
H55	H	-1.156583	-0.018372	0.856818
H56	H	-1.091044	0.079142	0.856785
H57	H	-0.417940	-0.188954	-0.243091
C58	C	-0.871565	-0.351070	0.661116
H59	H	-0.879656	-0.338850	0.763416
H60	H	-0.815607	-0.337389	0.635986
H61	H	-0.881149	-0.434898	0.635991
C62	C	-0.586861	0.037563	-0.134843
H63	H	-0.646160	0.036301	-0.135641
H64	H	-0.563597	-0.001388	-0.221364
H65	H	-0.573801	0.122445	-0.130764
C66	C	-1.137608	0.633166	0.000113
H67	H	-1.193372	0.673856	0.000129
H68	H	-1.108944	0.657263	-0.084839
H69	H	-1.108945	0.657270	0.085068
H70	H	-0.849759	0.419796	0.000065
H71	H	-1.205385	0.153682	0.639189
H72	H	-0.404872	-0.339160	-0.145425
H73	H	-0.853959	0.182142	0.000074
C74	C	-0.394100	-0.377954	0.139191
H75	H	-0.412425	-0.420700	0.222695
H76	H	-0.334782	-0.377478	0.142770
H77	H	-0.409128	-0.420062	0.052893
C78	C	-0.871565	-0.351091	0.339109
H79	H	-0.837954	-0.401925	0.406727
H80	H	-0.836453	-0.305887	0.279284
H81	H	-0.901992	-0.403401	0.279304
C82	C	-1.221524	0.178020	0.339100
H83	H	-1.213449	0.165780	0.236799
H84	H	-1.211956	0.261849	0.364211
H85	H	-1.277480	0.164313	0.364247
H86	H	-0.434092	0.022541	0.100419
C87	C	-1.147340	0.083013	0.000161
H88	H	-1.091575	0.042324	0.000156
H89	H	-1.176010	0.058906	-0.084775
H90	H	-1.175996	0.058917	0.085132
H91	H	-1.282806	0.266420	0.000154
C92	C	-0.426036	0.041475	-0.133341
H93	H	-0.386510	-0.011026	-0.189624
H94	H	-0.401073	0.113763	-0.101350
H95	H	-0.473934	0.067209	-0.191740
H96	H	-0.561292	-0.194753	-0.242525
C97	C	-0.553078	-0.379993	-0.146012
H98	H	-0.586458	-0.397656	-0.063973
H99	H	-0.502107	-0.434446	-0.144719
H100	H	-0.582956	-0.393127	-0.233665
H101	H	-0.415414	-0.196301	0.243344
H102	H	-0.549110	-0.342702	0.148136
C103	C	-0.569661	-0.174370	0.278759
H104	H	-0.609560	-0.105891	0.251833
H105	H	-0.525588	-0.143524	0.333392
H106	H	-0.596378	-0.232497	0.336811
