data_functionalizedCrystal
_audit_creation_method	'MofGen! by Chris Wilmer'
_symmetry_space_group_name_H-M	'P1'
_symmetry_Int_Tables_number	1
_symmetry_cell_setting	triclinic
loop_
_symmetry_equiv_pos_as_xyz
  x,y,z
_cell_length_a	6.817900
_cell_length_b	11.102289
_cell_length_c	19.453114
_cell_angle_alpha	94.505474
_cell_angle_beta	101.709288
_cell_angle_gamma	108.605707
loop_
_atom_site_label
_atom_site_type_symbol
_atom_site_fract_x
_atom_site_fract_y
_atom_site_fract_z
V1	V	-4.033154	-0.177162	-0.218999
O2	O	-3.993679	0.007152	-0.214830
O3	O	-4.010467	-0.349973	-0.217501
O4	O	-3.975753	-0.175035	-0.314512
O5	O	-4.028634	-0.168998	-0.117148
V6	V	-4.514617	-0.155046	-0.206817
O7	O	-4.298932	-0.225677	-0.245722
O8	O	-4.699036	-0.106531	-0.180094
O9	O	-4.314097	0.017766	-0.208315
O10	O	-4.671489	-0.339360	-0.210985
O11	O	-4.636534	-0.163210	-0.308668
O12	O	-4.348812	-0.157173	-0.111304
C13	C	-3.862015	-0.392082	-0.214046
C14	C	-3.924692	-0.533362	-0.213458
C15	C	-4.136891	-0.606229	-0.216686
C16	C	-4.195775	-0.738978	-0.216139
C17	C	-3.830237	-0.725977	-0.209134
C18	C	-3.771359	-0.593233	-0.209686
C19	C	-4.347931	-0.613735	-0.220727
C20	C	-4.406815	-0.746484	-0.220180
C21	C	-3.817731	-0.168929	-0.337792
C22	C	-3.852253	-0.168333	-0.415875
C23	C	-4.051203	-0.174432	-0.456132
C24	C	-4.083640	-0.173872	-0.529499
C25	C	-3.917128	-0.167238	-0.562607
C26	C	-3.718147	-0.161131	-0.522340
C27	C	-3.685710	-0.161678	-0.448974
N28	N	-3.867372	-0.234355	-0.681397
N29	N	-3.898200	-0.233839	-0.751092
C30	C	-4.014849	-0.165586	-0.783656
N31	N	-4.099543	-0.097887	-0.743893
N32	N	-4.068721	-0.098410	-0.674192
C33	C	-3.952281	-0.166643	-0.642160
C34	C	-4.248982	-0.171077	-0.903466
C35	C	-4.281408	-0.170509	-0.976833
C36	C	-3.915916	-0.157780	-0.969674
C37	C	-3.883489	-0.158336	-0.896307
C38	C	-4.050033	-0.164990	-0.863208
C39	C	-4.125893	0.059868	-0.211767
C40	C	-4.042453	0.201146	-0.212360
C41	C	-4.170176	-0.163283	-0.088020
C42	C	-4.114892	-0.163873	-0.009936
H43	H	-4.365723	-0.560209	-0.171203
H44	H	-4.520000	-0.804665	-0.272216
Br45	Br	-4.277223	-0.183458	-0.411214
Br46	Br	-4.503891	-0.582200	-0.305866
H47	H	-4.384590	-0.176491	-0.876514
H48	H	-4.245657	-0.178845	-0.562283
H49	H	-3.582572	-0.155726	-0.549302
H50	H	-4.475293	-0.771163	-0.172200
Br51	Br	-3.613479	-0.150076	-0.841670
Br52	Br	-3.415686	-0.153403	-0.394335
H53	H	-4.443416	-0.175466	-1.009609
Br54	Br	-3.689912	-0.148746	-1.014597
H55	H	-3.598576	-0.533911	-0.207066
H56	H	-3.705408	-0.774741	-0.206064
