data_functionalizedCrystal
_audit_creation_method	'MofGen! by Chris Wilmer'
_symmetry_space_group_name_H-M	'P1'
_symmetry_Int_Tables_number	1
_symmetry_cell_setting	triclinic
loop_
_symmetry_equiv_pos_as_xyz
  x,y,z
_cell_length_a	12.759401
_cell_length_b	16.625545
_cell_length_c	12.759393
_cell_angle_alpha	89.967170
_cell_angle_beta	89.979062
_cell_angle_gamma	90.027083
loop_
_atom_site_label
_atom_site_type_symbol
_atom_site_fract_x
_atom_site_fract_y
_atom_site_fract_z
Zn1	Zn	1.606187	-0.320930	-0.594003
Zn2	Zn	1.606045	-0.455784	-0.418316
Zn3	Zn	1.430486	-0.320973	-0.418338
Zn4	Zn	1.430444	-0.455728	-0.593953
O5	O	1.518291	-0.388354	-0.506153
O6	O	1.753189	-0.338824	-0.570709
O7	O	1.582714	-0.437943	-0.271298
O8	O	1.453870	-0.208135	-0.441671
O9	O	1.753085	-0.437901	-0.441633
O10	O	1.582957	-0.208103	-0.570731
O11	O	1.453732	-0.338897	-0.271314
O12	O	1.283459	-0.338843	-0.441622
O13	O	1.453799	-0.437805	-0.740981
O14	O	1.283429	-0.437847	-0.570646
O15	O	1.582917	-0.338770	-0.741018
O16	O	1.582674	-0.568609	-0.441585
O17	O	1.453661	-0.568568	-0.570624
C18	C	1.245323	-0.388344	-0.506132
C19	C	1.128547	-0.388359	-0.506148
C20	C	1.518176	-0.597844	-0.506120
C21	C	1.518224	-0.687466	-0.506141
C22	C	1.073696	-0.439989	-0.573225
C23	C	0.963972	-0.439992	-0.573245
C24	C	0.963958	-0.336733	-0.439104
C25	C	1.073680	-0.336727	-0.439089
C26	C	1.518265	-0.760248	-0.506161
C27	C	1.518326	-0.851556	-0.506185
C28	C	1.518380	-0.924333	-0.506198
C29	C	1.518440	-1.015647	-0.506219
C30	C	1.792324	-0.388364	-0.506174
C31	C	1.909100	-0.388369	-0.506183
C32	C	1.518369	-0.388276	-0.780186
C33	C	1.518403	-0.388243	-0.896963
C34	C	1.518434	-0.178045	-0.506209
C35	C	1.518495	-0.088424	-0.506233
C36	C	1.585639	-0.336667	-0.951846
C37	C	1.585657	-0.336632	-1.061570
C38	C	1.451199	-0.439757	-1.061519
C39	C	1.451177	-0.439787	-0.951797
C40	C	1.518273	-0.388373	-0.233185
C41	C	1.518443	-0.388178	-0.116409
H42	H	1.118365	-0.482029	-0.627831
H43	H	1.640406	-0.294633	-1.106250
C44	C	0.930219	-0.200153	-0.388252
C45	C	0.903648	-0.279984	-0.365388
H46	H	0.892982	-0.165120	-0.342744
H47	H	1.003407	-0.192766	-0.378643
H48	H	0.912270	-0.188430	-0.458874
H49	H	0.921605	-0.291709	-0.294768
H50	H	0.830444	-0.287374	-0.374989
C51	C	1.636895	-0.200145	-0.918112
C52	C	1.659521	-0.280003	-0.891571
H53	H	1.682503	-0.165162	-0.880898
H54	H	1.646532	-0.192754	-0.991305
H55	H	1.566306	-0.188360	-0.900115
H56	H	1.730108	-0.291790	-0.909575
H57	H	1.649893	-0.287398	-0.818362
H58	H	1.396417	-0.481785	-0.907110
C59	C	1.273273	-0.479013	-1.095268
C60	C	1.377313	-0.496417	-1.121795
H61	H	1.227662	-0.513992	-1.132484
H62	H	1.263644	-0.486413	-1.022075
H63	H	1.257952	-0.424830	-1.113271
H64	H	1.392637	-0.550598	-1.103785
H65	H	1.386947	-0.489023	-1.195004
H66	H	0.919318	-0.482033	-0.627868
H67	H	1.118341	-0.294678	-0.384467
