data_functionalizedCrystal
_audit_creation_method	'MofGen! by Chris Wilmer'
_symmetry_space_group_name_H-M	'P1'
_symmetry_Int_Tables_number	1
_symmetry_cell_setting	triclinic
loop_
_symmetry_equiv_pos_as_xyz
  x,y,z
_cell_length_a	16.959455
_cell_length_b	25.639240
_cell_length_c	16.959447
_cell_angle_alpha	89.964856
_cell_angle_beta	90.020374
_cell_angle_gamma	89.959818
loop_
_atom_site_label
_atom_site_type_symbol
_atom_site_fract_x
_atom_site_fract_y
_atom_site_fract_z
Zn1	Zn	1.208257	0.208182	0.447010
Zn2	Zn	1.708257	0.708182	0.947010
Zn3	Zn	1.208126	0.295623	0.314820
Zn4	Zn	1.708126	0.795623	0.814820
Zn5	Zn	1.076085	0.208199	0.314833
Zn6	Zn	1.576085	0.708199	0.814833
Zn7	Zn	1.075997	0.295584	0.446945
Zn8	Zn	1.575997	0.795584	0.946945
O9	O	1.142116	0.251897	0.380902
O10	O	1.642116	0.751897	0.880902
O11	O	1.318851	0.219791	0.429496
O12	O	1.818851	0.719791	0.929496
O13	O	1.190593	0.284049	0.204211
O14	O	1.690593	0.784049	0.704211
O15	O	1.093710	0.135031	0.332400
O16	O	1.593710	0.635031	0.832400
O17	O	1.318754	0.284033	0.332377
O18	O	1.818754	0.784033	0.832377
O19	O	1.190816	0.135019	0.429509
O20	O	1.690816	0.635019	0.929509
O21	O	1.093583	0.219819	0.204221
O22	O	1.593583	0.719819	0.704221
O23	O	0.965463	0.219781	0.332336
O24	O	1.465463	0.719781	0.832336
O25	O	1.093559	0.283966	0.557564
O26	O	1.593559	0.783966	1.057564
O27	O	0.965398	0.283982	0.429398
O28	O	1.465398	0.783982	0.929398
O29	O	1.190730	0.219753	0.557612
O30	O	1.690730	0.719753	1.057612
O31	O	1.190507	0.368783	0.332314
O32	O	1.690507	0.868783	0.832314
O33	O	1.093432	0.368754	0.429385
O34	O	1.593432	0.868754	0.929385
C35	C	0.936750	0.251880	0.380862
C36	C	1.436750	0.751880	0.880862
C37	C	0.848894	0.251885	0.380864
C38	C	1.348894	0.751885	0.880864
C39	C	0.477357	0.285315	0.330306
C40	C	0.977357	0.785315	0.830306
C41	C	0.477479	0.218522	0.431594
C42	C	0.977479	0.718522	0.931594
C43	C	0.560024	0.218514	0.431575
C44	C	1.060024	0.718514	0.931575
C45	C	0.601241	0.251907	0.380921
C46	C	1.101241	0.751907	0.880921
C47	C	0.559911	0.285308	0.330287
C48	C	1.059911	0.785308	0.830287
C49	C	0.601360	0.185117	0.482214
C50	C	1.101360	0.685117	0.982214
C51	C	0.683911	0.185107	0.482197
C52	C	1.183911	0.685107	0.982197
C53	C	0.725129	0.218498	0.431539
C54	C	1.225129	0.718498	0.931539
C55	C	0.683794	0.251900	0.380902
C56	C	1.183794	0.751900	0.880902
C57	C	0.725010	0.285293	0.330249
C58	C	1.225010	0.785293	0.830249
C59	C	0.683677	0.318693	0.279607
C60	C	1.183677	0.818693	0.779607
C61	C	0.601128	0.318699	0.279629
C62	C	1.101128	0.818699	0.779629
C63	C	0.807677	0.218492	0.431517
C64	C	1.307677	0.718492	0.931517
C65	C	0.807564	0.285286	0.330230
C66	C	1.307564	0.785286	0.830230
C67	C	1.141967	0.387739	0.380858
C68	C	1.641967	0.887739	0.880858
C69	C	1.141976	0.445853	0.380866
C70	C	1.641976	0.945853	0.880866
C71	C	1.192730	0.806219	0.330413
C72	C	1.692730	1.306219	0.830413
C73	C	1.192754	0.860823	0.330420
C74	C	1.692754	1.360823	0.830420
O75	O	1.235801	0.889062	0.287499
O76	O	1.735801	1.389062	0.787499
N77	N	1.142180	0.888136	0.380920
N78	N	1.642180	1.388136	0.880920
C79	C	1.091585	0.860841	0.431420
C80	C	1.591585	1.360841	0.931420
O81	O	1.048570	0.889087	0.474375
O82	O	1.548570	1.389087	0.974375
C83	C	1.091565	0.806238	0.431416
C84	C	1.591565	1.306238	0.931416
C85	C	1.142136	0.778928	0.380908
C86	C	1.642136	1.278928	0.880908
C87	C	1.243298	0.778909	0.279909
C88	C	1.743298	1.278909	0.779909
C89	C	1.243272	0.724308	0.279901
C90	C	1.743272	1.224308	0.779901
C91	C	1.192679	0.697018	0.330396
C92	C	1.692679	1.197018	0.830396
C93	C	1.142111	0.724328	0.380899
C94	C	1.642111	1.224328	0.880899
C95	C	1.040974	0.778945	0.481920
C96	C	1.540974	1.278945	0.981920
C97	C	1.040959	0.724338	0.481912
C98	C	1.540959	1.224338	0.981912
C99	C	1.091531	0.697028	0.431404
C100	C	1.591531	1.197028	0.931404
C101	C	1.091492	0.642437	0.431386
C102	C	1.591492	1.142437	0.931386
N103	N	1.142066	0.615124	0.380887
N104	N	1.642066	1.115124	0.880887
C105	C	1.192659	0.642414	0.330392
C106	C	1.692659	1.142414	0.830392
C107	C	1.091631	0.975512	0.431426
C108	C	1.591631	1.475512	0.931426
C109	C	1.091646	1.030114	0.431427
C110	C	1.591646	1.530114	0.931427
C111	C	1.192816	1.030092	0.330428
C112	C	1.692816	1.530092	0.830428
C113	C	1.192797	0.975489	0.330424
C114	C	1.692797	1.475489	0.830424
C115	C	1.142204	0.948199	0.380927
C116	C	1.642204	1.448199	0.880927
C117	C	1.192602	0.527749	0.330377
C118	C	1.692602	1.027749	0.830377
C119	C	1.192569	0.473144	0.330371
C120	C	1.692569	0.973144	0.830371
C121	C	1.091402	0.473171	0.431373
C122	C	1.591402	0.973171	0.931373
C123	C	1.091431	0.527771	0.431376
C124	C	1.591431	1.027771	0.931376
C125	C	1.142037	0.555059	0.380876
C126	C	1.642037	1.055059	0.880876
O127	O	1.048469	0.614163	0.474288
O128	O	1.548469	1.114163	0.974288
O129	O	1.235673	0.614162	0.287452
O130	O	1.735673	1.114162	0.787452
C131	C	1.348285	0.251914	0.380942
C132	C	1.848285	0.751914	0.880942
C133	C	1.436141	0.251922	0.380960
C134	C	1.936141	0.751922	0.880960
C135	C	1.142149	0.251853	0.587070
C136	C	1.642149	0.751853	1.087070
C137	C	1.142163	0.251835	0.674927
C138	C	1.642163	0.751835	1.174927
C139	C	1.142258	1.115524	0.380949
C140	C	1.642258	1.615524	0.880949
C141	C	1.142242	1.057410	0.380934
C142	C	1.642242	1.557410	0.880934
C143	C	1.142129	0.251902	0.175536
C144	C	1.642129	0.751902	0.675536
C145	C	1.142268	0.251773	0.087680
C146	C	1.642268	0.751773	0.587680
C147	C	1.091665	0.285213	1.046380
C148	C	1.591665	0.785213	1.546380
C149	C	1.192850	0.218347	1.046425
C150	C	1.692850	0.718347	1.546425
C151	C	1.192829	0.218358	0.963879
C152	C	1.692829	0.718358	1.463879
C153	C	1.142226	0.251798	0.922580
C154	C	1.642226	0.751798	1.422580
C155	C	1.091644	0.285226	0.963827
C156	C	1.591644	0.785226	1.463827
C157	C	1.243416	0.184934	0.922626
C158	C	1.743416	0.684934	1.422626
C159	C	1.243398	0.184944	0.840075
C160	C	1.743398	0.684944	1.340075
C161	C	1.192790	0.218381	0.798775
C162	C	1.692790	0.718381	1.298775
C163	C	1.142205	0.251811	0.840026
C164	C	1.642205	0.751811	1.340026
C165	C	1.091602	0.285250	0.798727
C166	C	1.591602	0.785250	1.298727
C167	C	1.041013	0.318678	0.839978
C168	C	1.541013	0.818678	1.339978
C169	C	1.041037	0.318664	0.922526
C170	C	1.541037	0.818664	1.422526
C171	C	1.192766	0.218395	0.716226
C172	C	1.692766	0.718395	1.216226
C173	C	1.091581	0.285264	0.716174
C174	C	1.591581	0.785264	1.216174
H175	H	1.233750	0.450910	0.289238
H176	H	1.733750	0.950910	0.789238
H177	H	0.443915	0.191338	0.472838
H178	H	0.943915	0.691338	0.972838
O179	O	1.036874	0.557225	0.485846
O180	O	1.536874	1.057225	0.985846
H181	H	0.996689	0.582142	0.450431
H182	H	1.496689	1.082142	0.950431
H183	H	1.284619	0.157712	0.956258
H184	H	1.784619	0.657712	1.456258
H185	H	1.233976	0.953256	0.289296
H186	H	1.733976	1.453256	0.789296
H187	H	0.717246	0.345884	0.238369
H188	H	1.217246	0.845884	0.738369
H189	H	1.284454	0.702076	0.238775
H190	H	1.784454	1.202076	0.738775
H191	H	1.284590	0.157725	0.806496
H192	H	1.784590	0.657725	1.306496
H193	H	1.233957	0.191181	0.682644
H194	H	1.733957	0.691181	1.182644
H195	H	1.050458	1.052346	0.472548
H196	H	1.550458	1.552346	0.972548
H197	H	1.234053	0.191125	1.080056
H198	H	1.734053	0.691125	1.580056
H199	H	0.567467	0.345891	0.238399
H200	H	1.067467	0.845891	0.738399
O201	O	1.036984	0.321319	0.671629
O202	O	1.536984	0.821319	1.171629
H203	H	1.001811	0.344557	0.714183
H204	H	1.501811	0.844557	1.214183
H205	H	0.567796	0.157933	0.523458
H206	H	1.067796	0.657933	1.023458
O207	O	1.247402	1.059531	0.275976
O208	O	1.747402	1.559531	0.775976
H209	H	1.238925	1.102088	0.284479
H210	H	1.738925	1.602088	0.784479
H211	H	0.841116	0.312478	0.288978
H212	H	1.341116	0.812478	0.788978
H213	H	0.999816	0.345907	0.806341
H214	H	1.499816	0.845907	1.306341
O215	O	0.432785	0.321338	0.275685
O216	O	0.932785	0.821338	0.775685
H217	H	0.368459	0.315736	0.284206
H218	H	0.868459	0.815736	0.784206
H219	H	0.717558	0.157910	0.523432
H220	H	1.217558	0.657910	1.023432
O221	O	0.852261	0.182471	0.486126
O222	O	1.352261	0.682471	0.986126
H223	H	0.809733	0.159251	0.521350
H224	H	1.309733	0.659251	1.021350
H225	H	0.999852	0.345880	0.956119
H226	H	1.499852	0.845880	1.456119
O227	O	1.247175	0.557178	0.275905
O228	O	1.747175	1.057178	0.775905
H229	H	1.282323	0.529007	0.240783
H230	H	1.782323	1.029007	0.740783
H231	H	1.050426	0.953295	0.472550
H232	H	1.550426	1.453295	0.972550
O233	O	1.297868	0.808343	0.225444
O234	O	1.797868	1.308343	0.725444
H235	H	1.284339	0.797898	0.163396
H236	H	1.784339	1.297898	0.663396
O237	O	0.986434	0.808393	0.536402
O238	O	1.486434	1.308393	1.036402
H239	H	0.951264	0.780234	0.571516
H240	H	1.451264	1.280234	1.071516
H241	H	0.999762	0.702121	0.523040
H242	H	1.499762	1.202121	1.023040
O243	O	1.036838	0.443732	0.485838
O244	O	1.536838	0.943732	0.985838
H245	H	1.045329	0.401175	0.477350
H246	H	1.545329	0.901175	0.977350
H247	H	1.050475	0.312427	1.079970
H248	H	1.550475	0.812427	1.579970
