data_functionalizedCrystal
_audit_creation_method	'MofGen! by Chris Wilmer'
_symmetry_space_group_name_H-M	'P1'
_symmetry_Int_Tables_number	1
_symmetry_cell_setting	triclinic
loop_
_symmetry_equiv_pos_as_xyz
  x,y,z
_cell_length_a	12.759395
_cell_length_b	12.759394
_cell_length_c	12.759395
_cell_angle_alpha	90.009987
_cell_angle_beta	90.005642
_cell_angle_gamma	90.015598
loop_
_atom_site_label
_atom_site_type_symbol
_atom_site_fract_x
_atom_site_fract_y
_atom_site_fract_z
Zn1	Zn	1.606108	-0.418414	0.594013
Zn2	Zn	1.606046	-0.594065	0.418331
Zn3	Zn	1.430453	-0.418403	0.418348
Zn4	Zn	1.430398	-0.594054	0.593968
O5	O	1.518251	-0.506234	0.506165
O6	O	1.753121	-0.441724	0.570720
O7	O	1.582750	-0.570763	0.271312
O8	O	1.453804	-0.271383	0.441677
O9	O	1.753075	-0.570774	0.441647
O10	O	1.582856	-0.271392	0.570737
O11	O	1.453743	-0.441705	0.271325
O12	O	1.283425	-0.441694	0.441633
O13	O	1.453710	-0.570756	0.740995
O14	O	1.283384	-0.570745	0.570660
O15	O	1.582803	-0.441714	0.741028
O16	O	1.582696	-0.741085	0.441603
O17	O	1.453649	-0.741077	0.570643
C18	C	1.245284	-0.506218	0.506144
C19	C	1.128507	-0.506236	0.506161
C20	C	0.909120	-0.372097	0.640816
C21	C	0.964010	-0.305005	0.708114
C22	C	1.073732	-0.304987	0.708096
C23	C	1.128566	-0.372070	0.640775
C24	C	1.073676	-0.439162	0.573477
C25	C	0.963952	-0.439171	0.573500
C26	C	1.073617	-0.573328	0.438863
C27	C	0.963895	-0.573342	0.438874
C28	C	1.128451	-0.640411	0.371542
C29	C	1.073561	-0.707499	0.304237
C30	C	0.963833	-0.707514	0.304257
C31	C	0.909005	-0.640434	0.371576
C32	C	1.518188	-0.779202	0.506140
C33	C	1.518257	-0.895978	0.506164
C34	C	1.652735	-0.895933	0.371895
C35	C	1.720001	-0.950771	0.304773
C36	C	1.720063	-1.060493	0.304802
C37	C	1.652853	-1.115379	0.371962
C38	C	1.585587	-1.060541	0.439084
C39	C	1.585531	-0.950817	0.439046
C40	C	1.451116	-1.060586	0.573356
C41	C	1.451048	-0.950864	0.573324
C42	C	1.383907	-1.115472	0.640516
C43	C	1.316633	-1.060634	0.707634
C44	C	1.316574	-0.950905	0.707602
C45	C	1.383781	-0.896026	0.640446
C46	C	1.792285	-0.506252	0.506186
C47	C	1.909061	-0.506259	0.506195
C48	C	1.518257	-0.506235	0.780198
C49	C	1.518260	-0.506235	0.896975
C50	C	1.518343	-0.232201	0.506214
C51	C	1.518382	-0.115424	0.506234
C52	C	1.652693	-0.371873	0.897029
C53	C	1.719910	-0.304697	0.951917
C54	C	1.719906	-0.304700	1.061638
C55	C	1.652676	-0.371884	1.116475
C56	C	1.585459	-0.439060	1.061587
C57	C	1.585473	-0.439052	0.951863
C58	C	1.451022	-0.573416	1.061533
C59	C	1.451029	-0.573420	0.951811
C60	C	1.383791	-0.640600	1.116369
C61	C	1.316578	-0.707784	1.061482
C62	C	1.316586	-0.707778	0.951753
C63	C	1.383812	-0.640596	0.896924
C64	C	1.518239	-0.506253	1.233198
C65	C	1.518239	-0.506240	1.116421
H66	H	1.217907	-0.372059	0.640775
H67	H	0.919147	-0.762153	0.249459
F68	F	1.652574	-1.232154	0.371640
H69	H	1.652670	-0.371872	1.205816
F70	F	1.383626	-1.232246	0.640197
H71	H	1.261802	-0.906262	0.762265
F72	F	1.791659	-1.118857	0.233369
F73	F	1.791438	-0.233177	0.893549
F74	F	1.383788	-0.640601	1.233145
H75	H	1.261922	-1.105330	0.762315
H76	H	0.819664	-0.640426	0.371586
H77	H	1.261839	-0.762474	1.106138
F78	F	1.383962	-0.779251	0.640645
H79	H	1.652713	-0.371873	0.807688
F80	F	1.245227	-0.640396	0.371530
H81	H	1.261838	-0.762470	0.907070
H82	H	1.774634	-0.249993	1.106328
F83	F	1.383831	-0.640589	0.780148
H84	H	1.118423	-0.250357	0.762897
H85	H	1.774725	-0.906074	0.250094
F86	F	0.792344	-0.372098	0.640828
F87	F	1.131924	-0.778892	0.232603
H88	H	1.652678	-0.806592	0.371852
F89	F	0.905645	-0.233619	0.779764
