data_functionalizedCrystal
_audit_creation_method	'MofGen! by Chris Wilmer'
_symmetry_space_group_name_H-M	'P1'
_symmetry_Int_Tables_number	1
_symmetry_cell_setting	triclinic
loop_
_symmetry_equiv_pos_as_xyz
  x,y,z
_cell_length_a	15.944551
_cell_length_b	10.723024
_cell_length_c	9.198806
_cell_angle_alpha	89.997988
_cell_angle_beta	90.000547
_cell_angle_gamma	83.983304
loop_
_atom_site_label
_atom_site_type_symbol
_atom_site_fract_x
_atom_site_fract_y
_atom_site_fract_z
O1	O	1.115445	0.160932	-0.120737
O2	O	1.615445	0.660932	0.379263
O3	O	0.871009	0.180773	-0.120773
O4	O	1.371009	0.680773	0.379227
O5	O	0.998865	-0.010795	-0.120749
O6	O	1.498865	0.489205	0.379251
O7	O	0.987589	0.352500	-0.120761
O8	O	1.487589	0.852500	0.379239
O9	O	0.998855	-0.010795	0.121036
O10	O	1.498855	0.489205	0.621036
O11	O	0.870999	0.180773	0.121012
O12	O	1.370999	0.680773	0.621012
O13	O	1.115435	0.160931	0.121048
O14	O	1.615435	0.660931	0.621048
Cu15	Cu	0.993216	0.170852	0.143107
Cu16	Cu	1.493216	0.670852	0.643107
Cu17	Cu	0.993228	0.170853	-0.142832
Cu18	Cu	1.493228	0.670853	0.357168
O19	O	0.987578	0.352500	0.121024
O20	O	1.487578	0.852500	0.621024
C21	C	0.998039	-0.057284	0.000142
C22	C	1.498039	0.442716	0.500142
C23	C	0.995584	-0.195808	0.000137
C24	C	1.495584	0.304192	0.500137
C25	C	0.839705	0.179949	0.000115
C26	C	1.339705	0.679949	0.500115
C27	C	0.746445	0.177480	0.000102
C28	C	1.246445	0.677480	0.500102
C29	C	1.067126	-0.271694	0.000145
C30	C	1.567126	0.228306	0.500145
C31	C	1.064590	-0.414865	0.000139
C32	C	1.564590	0.085135	0.500139
C33	C	0.530875	0.052834	0.000134
C34	C	1.030875	0.552834	0.500134
C35	C	0.470191	0.110716	-0.119081
C36	C	0.970191	0.610716	0.380919
C37	C	0.575693	0.173012	0.000119
C38	C	1.075693	0.673012	0.500119
C39	C	0.470203	0.110744	0.119300
C40	C	0.970203	0.610744	0.619300
C41	C	0.410756	0.168688	0.000142
C42	C	0.910756	0.668688	0.500142
C43	C	0.516238	0.230927	-0.119194
C44	C	1.016238	0.730927	0.380806
C45	C	0.516257	0.230938	0.119294
C46	C	1.016257	0.730938	0.619294
C47	C	0.455591	0.288907	0.000050
C48	C	0.955591	0.788907	0.500050
C49	C	0.670710	0.175500	0.000104
C50	C	1.170710	0.675500	0.500104
C51	C	0.315741	0.166210	0.000146
C52	C	0.815741	0.666210	0.500146
C53	C	1.146738	0.161755	0.000157
C54	C	1.646738	0.661755	0.500157
C55	C	1.239999	0.164225	0.000161
C56	C	1.739999	0.664225	0.500161
C57	C	0.988404	0.398989	0.000130
C58	C	1.488404	0.898989	0.500130
C59	C	0.990859	0.537512	0.000126
C60	C	1.490859	1.037512	0.500126
N61	N	0.993213	0.170851	0.344221
N62	N	1.493213	0.670851	0.844221
N63	N	0.993237	0.170844	-0.343946
N64	N	1.493237	0.670844	0.156054
C65	C	1.046897	0.090065	0.416428
C66	C	1.546897	0.590065	0.916428
C67	C	1.046910	0.090061	0.583840
C68	C	1.546910	0.590061	1.083840
H69	H	1.130253	-0.230669	0.000163
H70	H	1.630253	0.269331	0.500163
H71	H	1.092873	0.020901	0.645935
H72	H	1.592873	0.520901	1.145935
H73	H	0.947260	0.240007	0.406341
H74	H	1.447260	0.740007	0.906341
H75	H	0.563637	-0.046904	-0.000010
H76	H	1.063637	0.453096	0.499990
H77	H	0.929611	-0.397289	0.000129
H78	H	1.429611	0.102711	0.500129
H79	H	0.449822	0.059891	0.220084
H80	H	0.949822	0.559891	0.720084
H81	H	0.536521	0.281719	-0.220091
H82	H	1.036521	0.781719	0.279909
O83	O	1.145724	-0.501224	0.000152
O84	O	1.645724	-0.001224	0.500152
H85	H	1.131001	-0.600123	0.000138
H86	H	1.631001	-0.100123	0.500138
H87	H	0.449794	0.059886	-0.219865
H88	H	0.949794	0.559886	0.280135
O89	O	0.911961	-0.250136	0.000137
O90	O	1.411961	0.249864	0.500137
H91	H	0.907308	-0.308745	-0.098405
H92	H	1.407308	0.191255	0.401595
H93	H	0.423004	0.388748	-0.000020
H94	H	0.923004	0.888748	0.499980
H95	H	0.947277	0.240016	0.593969
H96	H	1.447277	0.740016	1.093969
H97	H	0.536674	0.281726	0.220083
H98	H	1.036674	0.781726	0.720083
O99	O	1.107745	-0.001589	0.334164
O100	O	1.607745	0.498411	0.834164
H101	H	1.098176	0.012784	0.215581
H102	H	1.598176	0.512784	0.715581
