data_functionalizedCrystal
_audit_creation_method	'MofGen! by Chris Wilmer'
_symmetry_space_group_name_H-M	'P1'
_symmetry_Int_Tables_number	1
_symmetry_cell_setting	triclinic
loop_
_symmetry_equiv_pos_as_xyz
  x,y,z
_cell_length_a	14.908979
_cell_length_b	14.908520
_cell_length_c	18.215399
_cell_angle_alpha	93.269364
_cell_angle_beta	93.275137
_cell_angle_gamma	96.420994
loop_
_atom_site_label
_atom_site_type_symbol
_atom_site_fract_x
_atom_site_fract_y
_atom_site_fract_z
Zn1	Zn	1.362991	-0.280443	-0.365225
Zn2	Zn	1.354150	-0.431822	-0.249698
Zn3	Zn	1.211624	-0.289214	-0.249703
Zn4	Zn	1.202858	-0.440510	-0.380246
O5	O	1.282906	-0.360497	-0.311218
O6	O	1.488482	-0.293217	-0.343612
O7	O	1.335212	-0.412940	-0.146718
O8	O	1.239072	-0.161380	-0.258743
O9	O	1.481986	-0.404435	-0.258735
O10	O	1.350280	-0.154936	-0.343617
O11	O	1.230499	-0.308167	-0.146721
O12	O	1.083797	-0.316590	-0.273308
O13	O	1.224131	-0.419241	-0.481235
O14	O	1.077357	-0.427746	-0.369217
O15	O	1.341780	-0.301641	-0.470199
O16	O	1.326712	-0.559645	-0.273300
O17	O	1.215559	-0.566028	-0.369213
C18	C	1.047734	-0.374063	-0.322893
C19	C	0.947126	-0.379889	-0.327906
C20	C	0.801988	-0.446061	-0.384827
C21	C	0.896519	-0.440588	-0.380123
C22	C	0.903196	-0.324661	-0.280389
C23	C	0.808665	-0.330134	-0.285093
C24	C	0.758065	-0.390835	-0.337314
C25	C	0.663533	-0.396303	-0.342021
C26	C	0.670210	-0.280382	-0.242284
C27	C	0.764741	-0.274909	-0.237580
C28	C	1.269249	-0.595680	-0.322901
C29	C	1.263490	-0.696287	-0.327919
C30	C	1.368530	-0.878624	-0.237545
C31	C	1.363122	-0.973154	-0.242258
C32	C	1.247270	-0.979876	-0.342060
C33	C	1.252678	-0.885347	-0.337348
C34	C	1.313310	-0.834724	-0.285088
C35	C	1.318713	-0.740193	-0.280372
C36	C	1.202866	-0.746917	-0.380177
C37	C	1.197457	-0.841446	-0.384890
C38	C	1.518995	-0.346879	-0.299498
C39	C	1.619602	-0.341075	-0.294504
C40	C	1.282964	-0.360432	-0.503165
C41	C	1.282989	-0.360404	-0.584962
C42	C	1.296640	-0.124395	-0.299505
C43	C	1.302493	-0.023783	-0.294513
C44	C	1.344273	-0.299114	-0.767407
C45	C	1.344285	-0.299087	-0.844264
C46	C	1.221778	-0.421550	-0.855744
C47	C	1.221762	-0.421572	-0.778889
C48	C	1.283015	-0.360355	-0.734722
C49	C	1.283043	-0.360306	-0.888434
C50	C	1.283056	-0.360277	-0.971766
C51	C	1.283001	-0.360382	-0.651385
C52	C	1.282903	-0.360494	-0.120012
C53	C	1.283068	-0.360257	-0.038194
H54	H	0.932278	-0.485558	-0.418812
C55	C	1.042488	-0.879510	-0.429697
C56	C	1.130812	-0.897092	-0.442333
H57	H	1.001344	-0.913857	-0.465164
H58	H	1.028399	-0.895822	-0.381678
H59	H	1.037818	-0.816925	-0.433692
H60	H	1.135484	-0.959675	-0.438332
H61	H	1.144905	-0.880785	-0.490364
H62	H	1.197913	-1.021108	-0.384612
H63	H	1.394167	-0.249217	-0.870872
C64	C	0.654113	-0.505913	-0.436326
C65	C	0.746362	-0.512774	-0.442230
H66	H	0.619775	-0.547096	-0.471769
H67	H	0.637841	-0.519989	-0.388295
H68	H	0.642162	-0.446003	-0.444923
H69	H	0.758315	-0.572683	-0.433628
H70	H	0.762640	-0.498704	-0.490272
H71	H	1.171871	-0.471441	-0.752276
H72	H	1.157898	-0.711163	-0.418887
C73	C	1.363903	-0.176653	-0.674317
C74	C	1.411591	-0.231816	-0.718858
H75	H	1.405463	-0.135108	-0.644344
H76	H	1.326490	-0.144304	-0.704540
H77	H	1.327424	-0.213140	-0.643851
H78	H	1.448065	-0.195330	-0.749327
H79	H	1.449020	-0.264168	-0.688632
C80	C	1.051073	-0.264809	-0.228897
C81	C	0.958826	-0.257945	-0.222990
H82	H	1.085415	-0.223616	-0.193464
H83	H	1.063025	-0.324710	-0.220294
H84	H	1.067342	-0.250742	-0.276938
H85	H	0.942556	-0.272018	-0.174950
H86	H	0.946869	-0.198031	-0.231587
H87	H	0.622335	-0.445725	-0.384545
H88	H	1.171910	-0.471392	-0.891714
H89	H	0.805952	-0.225491	-0.195061
H90	H	1.368079	-0.698977	-0.237818
C91	C	0.564637	-0.273838	-0.147936
C92	C	0.621947	-0.219690	-0.190024
H93	H	0.534852	-0.236372	-0.115665
H94	H	0.520960	-0.310744	-0.179707
H95	H	0.599237	-0.311111	-0.119883
H96	H	0.587346	-0.182421	-0.218081
H97	H	0.665630	-0.182769	-0.158249
C98	C	1.482492	-0.881471	-0.139360
C99	C	1.435168	-0.822974	-0.180099
H100	H	1.523633	-0.847114	-0.103897
H101	H	1.440962	-0.920673	-0.114985
H102	H	1.514988	-0.916288	-0.171571
H103	H	1.402666	-0.788162	-0.147889
H104	H	1.476704	-0.783757	-0.204475
C105	C	1.478846	-1.072277	-0.231401
C106	C	1.423857	-1.021387	-0.190010
H107	H	1.516357	-1.102042	-0.199147
H108	H	1.441964	-1.115969	-0.263175
H109	H	1.515520	-1.033326	-0.259944
H110	H	1.387178	-1.060339	-0.161471
H111	H	1.460743	-0.977690	-0.158223
