data_functionalizedCrystal
_audit_creation_method	'MofGen! by Chris Wilmer'
_symmetry_space_group_name_H-M	'P1'
_symmetry_Int_Tables_number	1
_symmetry_cell_setting	triclinic
loop_
_symmetry_equiv_pos_as_xyz
  x,y,z
_cell_length_a	12.594516
_cell_length_b	12.594517
_cell_length_c	21.395355
_cell_angle_alpha	89.984992
_cell_angle_beta	89.988593
_cell_angle_gamma	90.011939
loop_
_atom_site_label
_atom_site_type_symbol
_atom_site_fract_x
_atom_site_fract_y
_atom_site_fract_z
Zn1	Zn	-0.423982	1.627304	-0.354133
Zn2	Zn	0.076018	2.127304	0.145867
Zn3	Zn	-0.601947	1.627184	-0.249368
Zn4	Zn	-0.101947	2.127184	0.250632
Zn5	Zn	-0.423970	1.449297	-0.249387
Zn6	Zn	0.076030	1.949297	0.250613
Zn7	Zn	-0.601906	1.449290	-0.354126
Zn8	Zn	-0.101906	1.949290	0.145874
O9	O	-0.512951	1.538269	-0.301754
O10	O	-0.012951	2.038269	0.198246
O11	O	-0.447612	1.776234	-0.340231
O12	O	0.052388	2.276234	0.159769
O13	O	-0.578349	1.603539	-0.161693
O14	O	-0.078349	2.103539	0.338307
O15	O	-0.275026	1.472963	-0.263292
O16	O	0.224974	1.972963	0.236708
O17	O	-0.578361	1.776146	-0.263261
O18	O	-0.078361	2.276146	0.236739
O19	O	-0.275035	1.603744	-0.340249
O20	O	0.224965	2.103744	0.159751
O21	O	-0.447590	1.472847	-0.161707
O22	O	0.052410	1.972847	0.338293
O23	O	-0.447551	1.300350	-0.263286
O24	O	0.052449	1.800350	0.236714
O25	O	-0.578293	1.472951	-0.441805
O26	O	-0.078293	1.972951	0.058195
O27	O	-0.578281	1.300345	-0.340237
O28	O	-0.078281	1.800345	0.159763
O29	O	-0.447573	1.603737	-0.441810
O30	O	0.052427	2.103737	0.058190
O31	O	-0.750887	1.603533	-0.263254
O32	O	-0.250887	2.103533	0.236746
O33	O	-0.750857	1.472835	-0.340219
O34	O	-0.250857	1.972835	0.159781
C35	C	-0.512911	1.261728	-0.301763
C36	C	-0.012911	1.761728	0.198237
C37	C	-0.512919	1.143422	-0.301782
C38	C	-0.012919	1.643422	0.198218
C39	C	-0.584162	1.074197	-0.343555
C40	C	-0.084162	1.574197	0.156445
C41	C	-0.487123	1.003390	-0.358963
C42	C	0.012877	1.503390	0.141037
C43	C	-0.610039	1.003430	-0.286360
C44	C	-0.110039	1.503430	0.213640
C45	C	-0.415829	1.074174	-0.317220
C46	C	0.084171	1.574174	0.182780
C47	C	-0.538810	1.074220	-0.244591
C48	C	-0.038810	1.574220	0.255409
C49	C	-0.441704	1.003445	-0.259977
C50	C	0.058296	1.503445	0.240023
C51	C	-0.789492	1.538199	-0.301747
C52	C	-0.289492	2.038199	0.198253
C53	C	-0.907798	1.538266	-0.301766
C54	C	-0.407798	2.038266	0.198234
C55	C	-0.977073	1.467173	-0.343598
C56	C	-0.477073	1.967173	0.156402
C57	C	-1.047912	1.441234	-0.286428
C58	C	-0.547912	1.941234	0.213572
C59	C	-1.047758	1.564303	-0.358945
C60	C	-0.547758	2.064303	0.141055
C61	C	-0.977078	1.512276	-0.244566
C62	C	-0.477078	2.012276	0.255434
C63	C	-0.976918	1.635390	-0.317121
C64	C	-0.476918	2.135390	0.182879
C65	C	-1.047724	1.609488	-0.259913
C66	C	-0.547724	2.109488	0.240087
C67	C	-0.235330	1.538368	-0.301773
C68	C	0.264670	2.038368	0.198227
C69	C	-0.117025	1.538410	-0.301782
C70	C	0.382975	2.038410	0.198218
C71	C	-0.512930	1.538357	-0.465177
C72	C	-0.012930	2.038357	0.034823
C73	C	-0.512921	1.538395	-0.534818
C74	C	-0.012921	2.038395	-0.034818
C75	C	-0.512992	1.815889	-0.301744
C76	C	-0.012992	2.315889	0.198256
C77	C	-0.513010	1.934195	-0.301740
C78	C	-0.013010	2.434195	0.198260
C79	C	-0.444852	1.606492	-0.567535
C80	C	0.055148	2.106492	-0.067535
C81	C	-0.444806	1.606491	-0.632970
C82	C	0.055194	2.106491	-0.132970
C83	C	-0.512848	1.538403	-0.665687
C84	C	-0.012848	2.038403	-0.165687
C85	C	-0.580922	1.470292	-0.632962
C86	C	-0.080922	1.970292	-0.132962
C87	C	-0.580958	1.470288	-0.567528
C88	C	-0.080958	1.970288	-0.067528
C89	C	-0.608685	1.529974	-0.769360
C90	C	-0.108685	2.029974	-0.269360
C91	C	-0.608650	1.529986	-0.834793
C92	C	-0.108650	2.029986	-0.334793
C93	C	-0.512736	1.538410	-0.867507
C94	C	-0.012736	2.038410	-0.367507
C95	C	-0.416852	1.546844	-0.834781
C96	C	0.083148	2.046844	-0.334781
C97	C	-0.416889	1.546840	-0.769347
C98	C	0.083111	2.046840	-0.269347
C99	C	-0.512816	1.538399	-0.736639
C100	C	-0.012816	2.038399	-0.236639
C101	C	-0.444611	1.606509	-0.971177
C102	C	0.055389	2.106509	-0.471177
C103	C	-0.444564	1.606500	-1.036613
C104	C	0.055436	2.106500	-0.536613
C105	C	-0.580689	1.470307	-1.036604
C106	C	-0.080689	1.970307	-0.536604
C107	C	-0.580727	1.470311	-0.971168
C108	C	-0.080727	1.970311	-0.471168
C109	C	-0.512690	1.538417	-0.938459
C110	C	-0.012690	2.038417	-0.438459
C111	C	-0.512896	1.538242	-0.138966
C112	C	-0.012896	2.038242	0.361034
C113	C	-0.512605	1.538410	-0.069325
C114	C	-0.012605	2.038410	0.430675
H115	H	-0.692133	0.972350	-0.273336
H116	H	-0.192133	1.472350	0.226664
F117	F	-0.308493	1.114617	-0.334318
F118	F	0.191507	1.614617	0.165682
F119	F	-1.088018	1.688154	-0.213632
F120	F	-0.588018	2.188154	0.286368
H121	H	-0.636079	1.414858	-1.063241
H122	H	-0.136079	1.914858	-0.563241
F123	F	-0.314846	1.555810	-0.734519
F124	F	0.185154	2.055810	-0.234519
F125	F	-0.362918	0.963092	-0.213780
F126	F	0.137082	1.463092	0.286220
F127	F	-0.567413	1.114887	-0.181405
F128	F	-0.067413	1.614887	0.318595
H129	H	-0.389449	1.661948	-0.540907
H130	H	0.110551	2.161948	-0.040907
H131	H	-0.389370	1.661941	-0.659614
H132	H	0.110630	2.161941	-0.159614
H133	H	-0.945713	1.717440	-0.330124
H134	H	-0.445713	2.217440	0.169876
H135	H	-1.078805	1.586266	-0.407294
H136	H	-0.578805	2.086266	0.092706
H137	H	-0.465257	0.972278	-0.407311
H138	H	0.034743	1.472278	0.092689
H139	H	-0.644294	1.105266	-0.378926
H140	H	-0.144294	1.605266	0.121074
F141	F	-1.088669	1.333958	-0.269454
F142	F	-0.588669	1.833958	0.230546
F143	F	-0.936521	1.388453	-0.389770
F144	F	-0.436521	1.888453	0.110230
H145	H	-0.946160	1.490217	-0.196203
H146	H	-0.446160	1.990217	0.303797
F147	F	-0.314765	1.555813	-0.869592
F148	F	0.185235	2.055813	-0.369592
F149	F	-0.372197	1.678988	-0.936363
F150	F	0.127803	2.178988	-0.436363
F151	F	-0.372124	1.678995	-1.071433
F152	F	0.127876	2.178995	-0.571433
H153	H	-0.636162	1.414865	-0.944530
H154	H	-0.136162	1.914865	-0.444530
H155	H	-0.686724	1.523125	-0.861434
H156	H	-0.186724	2.023125	-0.361434
F157	F	-0.710780	1.521033	-0.734549
F158	F	-0.210780	2.021033	-0.234549
F159	F	-0.653333	1.397825	-0.667782
F160	F	-0.153333	1.897825	-0.167782
H161	H	-0.636386	1.414830	-0.540890
H162	H	-0.136386	1.914830	-0.040890
