data_functionalizedCrystal
_audit_creation_method	'MofGen! by Chris Wilmer'
_symmetry_space_group_name_H-M	'P1'
_symmetry_Int_Tables_number	1
_symmetry_cell_setting	triclinic
loop_
_symmetry_equiv_pos_as_xyz
  x,y,z
_cell_length_a	16.109295
_cell_length_b	16.109304
_cell_length_c	14.586319
_cell_angle_alpha	89.999019
_cell_angle_beta	90.000576
_cell_angle_gamma	96.539088
loop_
_atom_site_label
_atom_site_type_symbol
_atom_site_fract_x
_atom_site_fract_y
_atom_site_fract_z
O1	O	-1.103135	0.106844	-0.076172
O2	O	-0.861072	0.120148	-0.076187
O3	O	-0.988752	-0.007535	-0.076180
O4	O	-0.975455	0.234527	-0.076179
O5	O	-0.988743	-0.007537	0.076301
O6	O	-0.861063	0.120146	0.076294
O7	O	-1.103126	0.106842	0.076309
Cu8	Cu	-0.982094	0.113494	0.090224
Cu9	Cu	-0.982104	0.113496	-0.090102
O10	O	-0.975446	0.234525	0.076301
C11	C	-0.830093	0.119609	0.000051
C12	C	-0.737797	0.117996	0.000046
C13	C	-0.988209	-0.038511	0.000059
C14	C	-0.986592	-0.130806	0.000052
C15	C	-0.515525	0.190008	0.000055
C16	C	-0.428804	0.188485	0.000061
C17	C	-0.448677	0.036996	0.000057
C18	C	-0.535396	0.038520	0.000058
C19	C	-0.568818	0.115028	0.000053
C20	C	-0.395378	0.111982	0.000057
C21	C	-0.301352	0.110331	0.000063
C22	C	-0.662850	0.116679	0.000048
C23	C	-0.982864	-0.343142	-0.083062
C24	C	-0.981338	-0.429862	-0.083061
C25	C	-0.981332	-0.429862	0.083182
C26	C	-0.982852	-0.343142	0.083180
C27	C	-0.983622	-0.299785	0.000056
C28	C	-0.980576	-0.473225	0.000058
C29	C	-0.978921	-0.567251	0.000060
C30	C	-0.985275	-0.205753	0.000054
C31	C	-0.134105	0.107386	0.000067
C32	C	-0.226398	0.109014	0.000064
C33	C	-0.975990	0.265501	0.000061
C34	C	-0.977606	0.357796	0.000061
N35	N	-0.982093	0.113492	0.217056
N36	N	-0.982112	0.113491	-0.216934
C37	C	-1.038648	0.056973	0.452065
C38	C	-1.038650	0.056971	0.548047
C39	C	-0.925551	0.170013	0.548050
C40	C	-0.925545	0.170011	0.452070
C41	C	-0.982098	0.113491	0.404080
C42	C	-0.982106	0.113492	0.596041
C43	C	-0.982109	0.113490	0.700108
C44	C	-0.982095	0.113492	0.300007
H45	H	-0.542734	0.252305	0.000058
C46	C	-0.983701	-0.295448	-0.174496
C47	C	-0.912595	-0.226367	-0.197358
C48	C	-0.913429	-0.178676	-0.288795
C49	C	-0.985370	-0.200065	-0.357371
C50	C	-1.056482	-0.269149	-0.334512
C51	C	-1.055647	-0.316841	-0.243074
H52	H	-0.859335	-0.210531	-0.146592
H53	H	-0.860787	-0.127535	-0.305717
H54	H	-0.985988	-0.164761	-0.425059
H55	H	-1.109741	-0.284986	-0.385277
H56	H	-1.108289	-0.367982	-0.226152
C57	C	-1.100858	-0.005198	0.600831
C58	C	-1.163069	-0.067358	0.548042
C59	C	-1.225278	-0.129531	0.600827
C60	C	-1.225276	-0.129544	0.706401
C61	C	-1.163063	-0.067382	0.759196
C62	C	-1.100854	-0.005209	0.706411
H63	H	-1.163072	-0.067351	0.469885
H64	H	-1.271332	-0.175547	0.561744
H65	H	-1.271328	-0.175567	0.745475
H66	H	-1.163060	-0.067389	0.837353
H67	H	-1.054800	0.040807	0.745494
C68	C	-0.370182	0.270964	0.000060
C69	C	-0.307834	0.290751	0.079242
C70	C	-0.249211	0.373233	0.079242
C71	C	-0.252934	0.435930	0.000061
C72	C	-0.315284	0.416145	-0.079127
C73	C	-0.373908	0.333662	-0.079127
H74	H	-0.305076	0.244338	0.137862
H75	H	-0.203056	0.387879	0.137863
H76	H	-0.209538	0.496988	0.000061
H77	H	-0.318043	0.462558	-0.137747
H78	H	-0.420063	0.319017	-0.137748
H79	H	-0.879492	0.216035	0.412998
C80	C	-1.100848	-0.005203	0.399276
C81	C	-1.068377	-0.068797	0.333298
C82	C	-1.130577	-0.130977	0.280513
C83	C	-1.225249	-0.129564	0.293705
C84	C	-1.257725	-0.065968	0.359686
C85	C	-1.195525	-0.003787	0.412471
H86	H	-0.998290	-0.069846	0.323530
H87	H	-1.106535	-0.178055	0.231669
H88	H	-1.271293	-0.175593	0.254630
H89	H	-1.327811	-0.064919	0.369454
H90	H	-1.219567	0.043291	0.461315
H91	H	-0.421455	-0.025294	0.000067
C92	C	-0.863351	0.232189	0.600839
C93	C	-0.863398	0.232245	0.706412
C94	C	-0.801197	0.294425	0.759198
C95	C	-0.738950	0.356549	0.706410
C96	C	-0.738900	0.356496	0.600831
C97	C	-0.801101	0.294316	0.548045
H98	H	-0.909479	0.186255	0.745494
H99	H	-0.801235	0.294464	0.837355
H100	H	-0.692906	0.402579	0.745485
H101	H	-0.692819	0.402486	0.561748
H102	H	-0.801064	0.294277	0.469888
H103	H	-0.578790	-0.022542	0.000058
C104	C	-0.980506	-0.477556	-0.174492
C105	C	-0.981352	-0.429861	-0.265921
C106	C	-0.980519	-0.477554	-0.357356
C107	C	-0.978841	-0.572941	-0.357362
C108	C	-0.977995	-0.620640	-0.265930
C109	C	-0.978828	-0.572948	-0.174494
H110	H	-0.982595	-0.359245	-0.265920
H111	H	-0.981145	-0.442242	-0.425041
H112	H	-0.978224	-0.608245	-0.425048
H113	H	-0.976753	-0.691256	-0.265931
H114	H	-0.978202	-0.608259	-0.106810
H115	H	-0.983465	-0.307839	0.150868
C116	C	-0.980495	-0.477557	0.174615
C117	C	-0.978828	-0.572946	0.174623
C118	C	-0.977994	-0.620640	0.266058
C119	C	-0.978827	-0.572946	0.357487
C120	C	-0.980493	-0.477552	0.357483
C121	C	-0.981327	-0.429858	0.266047
H122	H	-0.978212	-0.608257	0.106939
H123	H	-0.976760	-0.691257	0.266061
H124	H	-0.978209	-0.608252	0.425173
H125	H	-0.981110	-0.442241	0.425167
H126	H	-0.982561	-0.359241	0.266045
