data_functionalizedCrystal
_audit_creation_method	'MofGen! by Chris Wilmer'
_symmetry_space_group_name_H-M	'P1'
_symmetry_Int_Tables_number	1
_symmetry_cell_setting	triclinic
loop_
_symmetry_equiv_pos_as_xyz
  x,y,z
_cell_length_a	19.188930
_cell_length_b	14.185569
_cell_length_c	15.625429
_cell_angle_alpha	59.452262
_cell_angle_beta	83.711404
_cell_angle_gamma	103.095687
loop_
_atom_site_label
_atom_site_type_symbol
_atom_site_fract_x
_atom_site_fract_y
_atom_site_fract_z
O1	O	0.900559	-0.136904	0.146199
O2	O	1.400559	0.363096	0.646199
O3	O	0.696165	-0.142880	0.162819
O4	O	1.196165	0.357120	0.662819
O5	O	0.813734	-0.087466	0.010366
O6	O	1.313734	0.412534	0.510366
O7	O	0.782990	-0.192318	0.298653
O8	O	1.282990	0.307682	0.798653
O9	O	0.848464	0.095736	-0.034665
O10	O	1.348464	0.595736	0.465335
O11	O	0.730895	0.040323	0.117788
O12	O	1.230895	0.540323	0.617788
O13	O	0.935289	0.046298	0.101168
O14	O	1.435289	0.546298	0.601168
Cu15	Cu	0.836264	0.060038	0.105366
Cu16	Cu	1.336264	0.560038	0.605366
Cu17	Cu	0.795191	-0.156620	0.158621
Cu18	Cu	1.295191	0.343380	0.658621
O19	O	0.817721	-0.009116	0.253622
O20	O	1.317721	0.490884	0.753622
C21	C	0.687556	-0.051073	0.139763
C22	C	1.187556	0.448927	0.639763
C23	C	0.610164	-0.050456	0.138138
C24	C	1.110164	0.449544	0.638138
N25	N	0.865157	0.212424	0.067909
N26	N	1.365157	0.712424	0.567909
N27	N	0.766303	-0.309003	0.196070
N28	N	1.266303	0.190997	0.696070
C29	C	0.559338	-0.083010	0.227603
C30	C	1.059338	0.416990	0.727603
C31	C	0.486612	-0.082470	0.226086
C32	C	0.986612	0.417530	0.726086
C33	C	0.464712	-0.049395	0.135105
C34	C	0.964712	0.450605	0.635105
C35	C	0.515550	-0.016830	0.045627
C36	C	1.015550	0.483170	0.545627
C37	C	0.588276	-0.017360	0.047144
C38	C	1.088276	0.482640	0.547144
N39	N	0.349489	-0.086496	0.080896
N40	N	0.849489	0.413504	0.580896
N41	N	0.280400	-0.085997	0.079462
N42	N	0.780400	0.414003	0.579462
C43	C	0.245593	-0.047792	0.130530
C44	C	0.745593	0.452208	0.630530
N45	N	0.282479	-0.010125	0.183105
N46	N	0.782479	0.489875	0.683105
N47	N	0.351572	-0.010630	0.184543
N48	N	0.851572	0.489370	0.684543
C49	C	0.385854	-0.048815	0.133451
C50	C	0.885854	0.451185	0.633451
C51	C	0.115909	-0.079761	0.218356
C52	C	0.615909	0.420239	0.718356
C53	C	0.043183	-0.079213	0.216834
C54	C	0.543183	0.420787	0.716834
C55	C	0.072120	-0.013583	0.036376
C56	C	0.572120	0.486417	0.536376
C57	C	0.144846	-0.014121	0.037897
C58	C	0.644846	0.485879	0.537897
C59	C	0.166734	-0.047217	0.128892
C60	C	0.666734	0.452783	0.628892
C61	C	0.943897	-0.045511	0.124226
C62	C	1.443897	0.454489	0.624226
C63	C	1.021288	-0.046136	0.125852
C64	C	1.521288	0.453864	0.625852
C65	C	0.833150	0.017548	-0.049032
C66	C	1.333150	0.517548	0.450968
C67	C	0.839255	0.057514	-0.158929
C68	C	1.339255	0.557514	0.341071
C69	C	0.681417	0.493505	0.306076
C70	C	1.181417	0.993505	0.806076
C71	C	0.703308	0.608837	0.277710
C72	C	1.203308	1.108837	0.777710
C73	C	0.807431	0.657849	0.142762
C74	C	1.307431	1.157849	0.642762
C75	C	0.785546	0.542520	0.171114
C76	C	1.285546	1.042520	0.671114
C77	C	0.722540	0.460356	0.252773
C78	C	1.222540	0.960356	0.752773
C79	C	0.826669	0.509371	0.117811
C80	C	1.326669	1.009371	0.617811
C81	C	0.804789	0.394050	0.146164
C82	C	1.304789	0.894050	0.646164
C83	C	0.741785	0.311879	0.227821
C84	C	1.241785	0.811879	0.727821
C85	C	0.700659	0.345035	0.281126
C86	C	1.200659	0.845035	0.781126
C87	C	0.889679	0.591535	0.036157
C88	C	1.389679	1.091535	0.536157
C89	C	0.930801	0.558386	-0.017147
C90	C	1.430801	1.058386	0.482853
C91	C	0.908918	0.443065	0.011202
C92	C	1.408918	0.943065	0.511202
C93	C	0.845915	0.360894	0.092859
C94	C	1.345915	0.860894	0.592859
C95	C	0.950044	0.409909	-0.042103
C96	C	1.450044	0.909909	0.457897
C97	C	0.928164	0.294588	-0.013749
C98	C	1.428164	0.794588	0.486251
C99	C	0.824034	0.245574	0.121213
C100	C	1.324034	0.745574	0.621213
C101	C	0.764663	-0.310321	-0.397645
C102	C	1.264663	0.189679	0.102355
C103	C	0.770403	-0.272733	-0.500918
C104	C	1.270403	0.227267	-0.000918
C105	C	0.808264	-0.073018	-0.549994
C106	C	1.308264	0.426982	-0.049994
C107	C	0.802531	-0.110590	-0.446724
C108	C	1.302531	0.389410	0.053276
C109	C	0.780729	-0.229242	-0.370557
C110	C	1.280729	0.270758	0.129443
C111	C	0.818597	-0.029511	-0.419636
C112	C	1.318597	0.470489	0.080364
C113	C	0.812861	-0.067080	-0.316374
C114	C	1.312861	0.432920	0.183626
C115	C	0.791058	-0.185727	-0.240200
C116	C	1.291058	0.314273	0.259800
C117	C	0.774993	-0.266811	-0.267295
C118	C	1.274993	0.233189	0.232705
C119	C	0.840393	0.089141	-0.495804
C120	C	1.340393	0.589141	0.004196
C121	C	0.856459	0.170220	-0.468715
C122	C	1.356459	0.670220	0.031285
C123	C	0.850728	0.132652	-0.365453
C124	C	1.350728	0.632652	0.134547
C125	C	0.828926	0.014004	-0.289279
C126	C	1.328926	0.514004	0.210721
C127	C	0.866793	0.213735	-0.338359
C128	C	1.366793	0.713735	0.161641
C129	C	0.861057	0.176167	-0.235097
C130	C	1.361057	0.676167	0.264903
C131	C	0.823189	-0.023565	-0.186018
C132	C	1.323189	0.476435	0.313982
C133	C	0.798303	-0.114132	0.313020
C134	C	1.298303	0.385868	0.813020
C135	C	0.792197	-0.154105	0.422919
C136	C	1.292197	0.345895	0.922919
H137	H	0.577154	-0.109962	0.301698
H138	H	1.077154	0.390038	0.801698
Br139	Br	0.213828	0.030060	-0.083525
Br140	Br	0.713828	0.530060	0.416475
H141	H	0.858733	0.724759	0.076277
H142	H	1.358733	1.224759	0.576277
H143	H	0.001801	-0.105717	0.289688
H144	H	0.501801	0.394283	0.789688
Br145	Br	0.145621	-0.124668	0.341843
Br146	Br	0.645621	0.375332	0.841843
Br147	Br	0.745419	-0.427841	-0.163917
Br148	Br	1.245419	0.072159	0.336083
H149	H	0.630106	0.426605	0.372564
H150	H	1.130106	0.926605	0.872564
Br151	Br	0.417623	-0.126648	0.347509
Br152	Br	0.917623	0.373352	0.847509
H153	H	0.884537	0.310342	-0.400387
H154	H	1.384537	0.810342	0.099613
Br155	Br	0.712093	0.155367	0.266310
Br156	Br	1.212093	0.655367	0.766310
Br157	Br	0.783273	-0.236719	-0.100056
Br158	Br	1.283273	0.263281	0.399944
H159	H	0.054277	0.013279	-0.037686
H160	H	0.554277	0.513279	0.462314
H161	H	0.746917	-0.406939	-0.335625
H162	H	1.246917	0.093061	0.164375
Br163	Br	0.615139	0.233525	0.391938
Br164	Br	1.115139	0.733525	0.891938
H165	H	0.982104	0.625295	-0.083632
H166	H	1.482104	1.125295	0.416368
Br167	Br	0.485832	0.028069	-0.077851
Br168	Br	0.985832	0.528069	0.422149
H169	H	0.805443	-0.120183	-0.123997
H170	H	1.305443	0.379817	0.376003
H171	H	0.629660	0.009150	-0.025711
H172	H	1.129660	0.509150	0.474289
H173	H	0.757312	-0.338767	-0.522964
H174	H	1.257312	0.161233	-0.022964
Br175	Br	1.035560	0.521421	-0.152909
Br176	Br	1.535560	1.021421	0.347091
Br177	Br	0.882863	0.286202	-0.198328
Br178	Br	1.382863	0.786202	0.301672
H179	H	0.907493	0.685433	0.013078
H180	H	1.407493	1.185433	0.513078
H181	H	0.772723	0.178673	0.187701
H182	H	1.272723	0.678673	0.687701
Br183	Br	0.983978	0.249596	-0.086086
Br184	Br	1.483978	0.749596	0.413914
Br185	Br	0.837842	0.088004	-0.653369
Br186	Br	1.337842	0.588004	-0.153369
H187	H	0.669816	0.635817	0.321124
H188	H	1.169816	1.135817	0.821124
H189	H	0.845056	0.119725	-0.579883
H190	H	1.345056	0.619725	-0.079883
Br191	Br	0.886037	0.331243	-0.572091
Br192	Br	1.386037	0.831243	-0.072091
