data_functionalizedCrystal
_audit_creation_method	'MofGen! by Chris Wilmer'
_symmetry_space_group_name_H-M	'P1'
_symmetry_Int_Tables_number	1
_symmetry_cell_setting	triclinic
loop_
_symmetry_equiv_pos_as_xyz
  x,y,z
_cell_length_a	15.995355
_cell_length_b	9.565339
_cell_length_c	10.489711
_cell_angle_alpha	89.996064
_cell_angle_beta	95.989393
_cell_angle_gamma	90.000621
loop_
_atom_site_label
_atom_site_type_symbol
_atom_site_fract_x
_atom_site_fract_y
_atom_site_fract_z
O1	O	-1.111963	0.116113	0.164429
O2	O	-0.868309	0.116144	0.184725
O3	O	-0.995693	0.116131	-0.011101
O4	O	-0.984579	0.116125	0.360255
O5	O	-0.995683	-0.116389	-0.011089
O6	O	-0.868299	-0.116376	0.184737
O7	O	-1.111953	-0.116407	0.164441
Zn8	Zn	-0.990124	-0.153309	0.174591
Zn9	Zn	-0.990137	0.153046	0.174575
O10	O	-0.984568	-0.116395	0.360267
C11	C	-0.837104	-0.000112	0.183891
C12	C	-0.744139	-0.000100	0.181372
C13	C	-0.573926	-0.000119	0.176801
C14	C	-0.549738	-0.000116	0.035436
C15	C	-0.453045	-0.000653	0.032770
C16	C	-0.406341	-0.000136	0.172298
C17	C	-0.435850	-0.132654	0.243386
C18	C	-0.532652	-0.132756	0.245069
C19	C	-0.532586	0.131672	0.247125
C20	C	-0.436061	0.133405	0.241900
C21	C	-0.311628	-0.000151	0.169761
C22	C	-0.668639	-0.000114	0.179342
N23	N	-0.990121	-0.362389	0.174601
C24	C	-0.931192	-0.453586	0.265134
C25	C	-1.007002	-0.546775	0.289886
C26	C	-0.914344	-0.546755	0.149859
C27	C	-1.065970	-0.453526	0.199410
C28	C	-0.973261	-0.453497	0.059333
C29	C	-1.049126	-0.546645	0.084036
C30	C	-0.143159	-0.000149	0.165258
C31	C	-0.236128	-0.000156	0.167726
C32	C	-0.994854	-0.000125	-0.058616
C33	C	-0.992358	-0.000112	-0.200212
N34	N	-0.990147	0.362125	0.174555
C35	C	-1.068963	-0.000136	-0.383669
C36	C	-1.030693	-0.114775	-0.290984
C37	C	-1.030682	0.114472	-0.291020
C38	C	-0.949599	-0.114872	-0.359802
C39	C	-0.949600	0.114478	-0.359848
C40	C	-0.911271	-0.000189	-0.267190
C41	C	-0.985408	-0.000136	0.407781
C42	C	-0.987903	-0.000139	0.549378
H43	H	-0.577423	0.094899	-0.019360
H44	H	-0.403711	0.141815	0.343707
Br45	Br	-0.401874	-0.297654	0.162112
H46	H	-0.434274	-0.096201	-0.022606
H47	H	-0.850249	-0.587710	0.128953
H48	H	-0.404616	-0.137212	0.346075
Br49	Br	-0.892485	0.276038	-0.410766
Br50	Br	-0.949426	-0.385150	-0.103057
Br51	Br	-1.180007	-0.000330	-0.468045
Br52	Br	-0.404658	0.296814	0.155585
Br53	Br	-0.556931	0.133755	0.420573
Br54	Br	-0.892474	-0.276594	-0.410337
H55	H	-1.064999	0.211388	-0.260545
H56	H	-1.064988	-0.211702	-0.260471
H57	H	-1.099026	-0.587248	0.007451
Br58	Br	-0.420794	0.157647	-0.059974
Br59	Br	-0.800123	-0.000260	-0.183202
Br60	Br	-0.576810	-0.298486	0.163998
Br61	Br	-0.597502	-0.158265	-0.054399
Br62	Br	-0.579266	0.299139	0.172783
Br63	Br	-0.557977	-0.142185	0.417848
H64	H	-0.881404	-0.412726	0.341765
H65	H	-1.130079	-0.412747	0.220434
Br66	Br	-1.030804	-0.615063	0.452321
