data_functionalizedCrystal
_audit_creation_method	'MofGen! by Chris Wilmer'
_symmetry_space_group_name_H-M	'P1'
_symmetry_Int_Tables_number	1
_symmetry_cell_setting	triclinic
loop_
_symmetry_equiv_pos_as_xyz
  x,y,z
_cell_length_a	16.109301
_cell_length_b	16.109304
_cell_length_c	9.130313
_cell_angle_alpha	90.001562
_cell_angle_beta	90.002129
_cell_angle_gamma	83.462111
loop_
_atom_site_label
_atom_site_type_symbol
_atom_site_fract_x
_atom_site_fract_y
_atom_site_fract_z
O1	O	1.103128	0.106864	-0.121710
O2	O	0.861066	0.120163	-0.121729
O3	O	0.988746	-0.007517	-0.121720
O4	O	0.975449	0.234545	-0.121719
O5	O	0.988744	-0.007514	0.121879
O6	O	0.861065	0.120167	0.121870
O7	O	1.103127	0.106868	0.121889
Cu8	Cu	0.982095	0.113518	0.144122
Cu9	Cu	0.982097	0.113514	-0.143962
O10	O	0.975447	0.234548	0.121880
C11	C	0.830091	0.119626	0.000068
C12	C	0.737795	0.118011	0.000060
C13	C	0.428798	0.188494	0.000086
C14	C	0.515518	0.190020	0.000077
C15	C	0.535390	0.038531	0.000057
C16	C	0.448671	0.037007	0.000055
C17	C	0.395377	0.111991	0.000077
C18	C	0.568816	0.115040	0.000070
C19	C	0.662842	0.116694	0.000061
C20	C	0.301345	0.110338	0.000083
C21	C	0.988206	-0.038490	0.000076
C22	C	0.986590	-0.130785	0.000066
C23	C	0.982857	-0.343125	-0.132714
C24	C	0.981331	-0.429845	-0.132713
C25	C	0.981333	-0.429838	0.132872
C26	C	0.982853	-0.343119	0.132869
C27	C	0.983620	-0.299765	0.000072
C28	C	0.980573	-0.473204	0.000076
C29	C	0.978919	-0.567230	0.000078
C30	C	0.985273	-0.205733	0.000069
C31	C	1.134102	0.107405	0.000089
C32	C	1.226398	0.109020	0.000087
C33	C	0.975987	0.265521	0.000081
C34	C	0.977603	0.357816	0.000081
N35	N	0.982100	0.113520	0.346745
N36	N	0.982099	0.113505	-0.346584
C37	C	1.038651	0.057002	0.423401
C38	C	1.038649	0.056992	0.576738
C39	C	0.925542	0.170025	0.576749
C40	C	0.925541	0.170030	0.423415
C41	C	1.103955	-0.008254	0.423396
C42	C	1.103952	-0.008264	0.576733
H43	H	0.421460	-0.025296	0.000043
H44	H	1.167719	0.005408	0.618354
O45	O	0.548085	0.264281	0.000272
C46	C	0.597646	0.269706	0.126442
H47	H	0.619264	0.204172	0.168505
H48	H	0.654422	0.302830	0.098054
H49	H	0.559331	0.306501	0.214790
H50	H	0.879486	0.216044	0.361002
O51	O	0.377062	0.261352	-0.000168
C52	C	0.392222	0.307811	-0.126311
H53	H	0.421873	0.263911	-0.214491
H54	H	0.330686	0.341167	-0.168660
H55	H	0.436365	0.355923	-0.097785
H56	H	1.164140	0.011454	0.375842
H57	H	1.084293	-0.068476	0.624277
H58	H	0.578792	-0.022518	0.000043
H59	H	0.980708	-0.465144	-0.240841
O60	O	0.983554	-0.301132	-0.261839
C61	C	0.982574	-0.358006	-0.379037
H62	H	0.955185	-0.416372	-0.340102
H63	H	0.942669	-0.327663	-0.471909
H64	H	1.049071	-0.375971	-0.419870
O65	O	0.980635	-0.472088	0.261733
C66	C	0.979114	-0.557925	0.233266
H67	H	1.005206	-0.573220	0.119141
H68	H	1.018884	-0.596169	0.318068
H69	H	0.912024	-0.573798	0.239570
H70	H	0.983470	-0.307813	0.241006
O71	O	0.870573	0.224805	0.651392
C72	C	0.819285	0.180254	0.740042
H73	H	0.852420	0.115205	0.763000
H74	H	0.806120	0.214945	0.847874
H75	H	0.757845	0.174586	0.680940
O76	O	1.087548	-0.084307	0.373808
C77	C	1.008678	-0.101101	0.425431
H78	H	0.969157	-0.039788	0.452679
H79	H	0.976031	-0.135602	0.337292
H80	H	1.017069	-0.141491	0.528062
