data_functionalizedCrystal
_audit_creation_method	'MofGen! by Chris Wilmer'
_symmetry_space_group_name_H-M	'P1'
_symmetry_Int_Tables_number	1
_symmetry_cell_setting	triclinic
loop_
_symmetry_equiv_pos_as_xyz
  x,y,z
_cell_length_a	6.817900
_cell_length_b	11.102193
_cell_length_c	10.943624
_cell_angle_alpha	91.863696
_cell_angle_beta	108.838799
_cell_angle_gamma	108.604125
loop_
_atom_site_label
_atom_site_type_symbol
_atom_site_fract_x
_atom_site_fract_y
_atom_site_fract_z
V1	V	-4.114277	-0.175806	-0.402556
O2	O	-4.073263	0.008482	-0.394888
O3	O	-4.091030	-0.348627	-0.399807
O4	O	-4.092258	-0.173087	-0.578122
O5	O	-4.072026	-0.168273	-0.215339
V6	V	-4.591227	-0.153765	-0.380163
O7	O	-4.389953	-0.224156	-0.451677
O8	O	-4.765748	-0.105416	-0.331041
O9	O	-4.391268	0.019056	-0.382911
O10	O	-4.749638	-0.338054	-0.387831
O11	O	-4.750875	-0.161298	-0.567380
O12	O	-4.390039	-0.156484	-0.204596
C13	C	-3.941296	-0.390758	-0.393458
C14	C	-4.003751	-0.532041	-0.392381
C15	C	-3.999138	-0.761243	-0.153864
C16	C	-3.908811	-0.676722	-0.036134
C17	C	-3.850131	-0.543975	-0.037149
C18	C	-3.881777	-0.495747	-0.155907
C19	C	-3.972104	-0.580268	-0.273636
C20	C	-4.030785	-0.713016	-0.272609
C21	C	-4.094079	-0.616562	-0.510111
C22	C	-4.152775	-0.749310	-0.509100
C23	C	-4.125725	-0.568334	-0.628868
C24	C	-4.216068	-0.652856	-0.746602
C25	C	-4.274752	-0.785610	-0.745582
C26	C	-4.243102	-0.833831	-0.626829
C27	C	-3.942862	-0.166837	-0.620915
C28	C	-4.006309	-0.165757	-0.764441
C29	C	-3.851189	-0.158486	-0.841589
C30	C	-4.039800	-0.266417	-0.947582
C31	C	-3.930777	-0.055914	-0.914189
C32	C	-4.194130	-0.273790	-0.868558
C33	C	-4.085027	-0.063191	-0.835142
C34	C	-4.273774	-0.171154	-0.941105
C35	C	-4.204344	0.061180	-0.389257
C36	C	-4.121128	0.202462	-0.390342
C37	C	-4.202778	-0.162738	-0.161797
C38	C	-4.118568	-0.163812	-0.018269
H39	H	-4.077932	-0.460243	-0.629686
O40	O	-3.798569	0.054040	-0.938666
C41	C	-3.644215	0.129525	-0.819620
H42	H	-3.710929	0.102246	-0.737521
H43	H	-3.615547	0.235522	-0.827104
H44	H	-3.481356	0.111849	-0.797971
H45	H	-4.046932	-0.869332	-0.153027
H46	H	-3.883047	-0.716004	0.060556
H47	H	-3.833968	-0.387655	-0.156722
O48	O	-4.487517	-0.177336	-0.992727
C49	C	-4.495925	-0.066829	-1.051040
H50	H	-4.329415	0.014177	-1.005693
H51	H	-4.630406	-0.035857	-1.034143
H52	H	-4.534754	-0.089445	-1.160434
O53	O	-3.637341	-0.152090	-0.789862
C54	C	-3.498497	-0.038269	-0.814390
H55	H	-3.597851	-0.003948	-0.902440
H56	H	-3.357315	-0.057913	-0.835318
H57	H	-3.428051	0.039091	-0.725250
H58	H	-3.776563	-0.475156	0.058717
O59	O	-4.018199	-0.369014	-1.006085
C60	C	-4.225213	-0.446516	-1.097272
H61	H	-4.362635	-0.428818	-1.070014
H62	H	-4.242758	-0.552074	-1.096515
H63	H	-4.237643	-0.421327	-1.199021
O64	O	-4.246744	-0.605797	-0.861837
C65	C	-4.175508	-0.470505	-0.837485
H66	H	-4.178996	-0.439028	-0.738241
H67	H	-4.290174	-0.435077	-0.916810
H68	H	-3.999757	-0.428009	-0.837711
O69	O	-4.362562	-0.867535	-0.860069
C70	C	-4.377846	-0.796493	-0.965090
H71	H	-4.382052	-0.698792	-0.933385
H72	H	-4.535485	-0.850978	-1.050925
H73	H	-4.228368	-0.782264	-0.995885
H74	H	-4.290883	-0.941919	-0.625988
H75	H	-4.304873	-0.365971	-0.848016
H76	H	-4.103400	0.022729	-0.786156
