data_functionalizedCrystal
_audit_creation_method	'MofGen! by Chris Wilmer'
_symmetry_space_group_name_H-M	'P1'
_symmetry_Int_Tables_number	1
_symmetry_cell_setting	triclinic
loop_
_symmetry_equiv_pos_as_xyz
  x,y,z
_cell_length_a	23.532407
_cell_length_b	13.596369
_cell_length_c	14.519709
_cell_angle_alpha	89.993066
_cell_angle_beta	83.264411
_cell_angle_gamma	90.000007
loop_
_atom_site_label
_atom_site_type_symbol
_atom_site_fract_x
_atom_site_fract_y
_atom_site_fract_z
O1	O	0.755765	-0.081671	0.111951
O2	O	1.255765	0.418329	0.611951
O3	O	0.589975	-0.081700	0.128149
O4	O	1.089975	0.418300	0.628149
O5	O	0.677266	-0.081676	-0.014241
O6	O	1.177266	0.418324	0.485759
O7	O	0.668474	-0.081695	0.254340
O8	O	1.168474	0.418305	0.754340
O9	O	0.677257	0.081907	-0.014248
O10	O	1.177257	0.581907	0.485752
O11	O	0.589966	0.081883	0.128142
O12	O	1.089966	0.581883	0.628142
O13	O	0.755756	0.081912	0.111943
O14	O	1.255756	0.581912	0.611943
Zn15	Zn	0.672860	0.107870	0.120041
Zn16	Zn	1.172860	0.607870	0.620041
Zn17	Zn	0.672871	-0.107658	0.120051
Zn18	Zn	1.172871	0.392342	0.620051
O19	O	0.668466	0.081888	0.254333
O20	O	1.168466	0.581888	0.754333
C21	C	0.568753	0.000088	0.127733
C22	C	1.068753	0.500088	0.627733
C23	C	0.505530	0.000077	0.126493
C24	C	1.005530	0.500077	0.626493
N25	N	0.672856	0.254962	0.120034
N26	N	1.172856	0.754962	0.620034
N27	N	0.672880	-0.254750	0.120051
N28	N	1.172880	0.245250	0.620051
C29	C	0.106772	0.000116	0.202977
C30	C	0.606772	0.500116	0.702977
C31	C	0.047367	0.000122	0.201825
C32	C	0.547367	0.500122	0.701825
O33	O	0.010942	0.000153	0.272727
O34	O	0.510942	0.500153	0.772727
N35	N	0.024358	0.000127	0.117175
N36	N	0.524358	0.500127	0.617175
C37	C	0.060759	0.000135	0.033671
C38	C	0.560759	0.500135	0.533671
O39	O	0.035734	0.000140	-0.038437
O40	O	0.535734	0.500140	0.461563
C41	C	0.120164	0.000136	0.034824
C42	C	0.620164	0.500136	0.534824
C43	C	0.143168	0.000121	0.119480
C44	C	0.643168	0.500121	0.619480
C45	C	0.129777	0.000103	0.287626
C46	C	0.629777	0.500103	0.787626
C47	C	0.189179	0.000095	0.288778
C48	C	0.689179	0.500095	0.788778
C49	C	0.225575	0.000100	0.205281
C50	C	0.725575	0.500100	0.705281
C51	C	0.202570	0.000114	0.120631
C52	C	0.702570	0.500114	0.620631
C53	C	0.156563	0.000151	-0.048679
C54	C	0.656563	0.500151	0.451321
C55	C	0.215971	0.000153	-0.047519
C56	C	0.715971	0.500153	0.452481
C57	C	0.238976	0.000139	0.037137
C58	C	0.738976	0.500139	0.537137
C59	C	0.298367	0.000111	0.038286
C60	C	0.798367	0.500111	0.538286
N61	N	0.321375	0.000107	0.122936
N62	N	0.821375	0.500107	0.622936
C63	C	0.284979	0.000101	0.206434
C64	C	0.784979	0.500101	0.706434
C65	C	-0.063994	0.000135	0.031256
C66	C	0.436006	0.500135	0.531256
C67	C	-0.123397	0.000127	0.030102
C68	C	0.376603	0.500127	0.530102
C69	C	-0.136786	0.000116	0.198257
C70	C	0.363214	0.500116	0.698257
C71	C	-0.077382	0.000117	0.199410
C72	C	0.422618	0.500117	0.699410
C73	C	-0.040986	0.000130	0.115906
C74	C	0.459014	0.500130	0.615906
C75	C	0.409727	0.000084	0.208846
C76	C	0.909727	0.500084	0.708846
C77	C	0.469134	0.000072	0.209990
C78	C	0.969134	0.500072	0.709990
C79	C	0.482517	0.000088	0.041836
C80	C	0.982517	0.500088	0.541836
C81	C	0.423115	0.000095	0.040691
C82	C	0.923115	0.500095	0.540691
C83	C	0.386721	0.000096	0.124204
C84	C	0.886721	0.500096	0.624204
O85	O	0.334827	0.000084	-0.032579
O86	O	0.834827	0.500084	0.467421
O87	O	0.310012	0.000109	0.278529
O88	O	0.810012	0.500109	0.778529
C89	C	0.776979	0.000122	0.112360
C90	C	1.276979	0.500122	0.612360
C91	C	0.840201	0.000127	0.113600
C92	C	1.340201	0.500127	0.613600
C93	C	0.676852	0.000116	-0.048599
C94	C	1.176852	0.500116	0.451401
C95	C	0.675624	0.000116	-0.150966
C96	C	1.175624	0.500116	0.349034
C97	C	0.672871	0.656253	0.120052
C98	C	1.172871	1.156253	0.620052
C99	C	0.672865	0.544601	0.120050
C100	C	1.172865	1.044601	0.620050
C101	C	0.672864	0.455611	0.120044
C102	C	1.172864	0.955611	0.620044
C103	C	0.672858	0.343952	0.120040
C104	C	1.172858	0.843952	0.620040
C105	C	0.671104	0.000090	-0.525808
C106	C	1.171104	0.500090	-0.025808
C107	C	0.672359	0.000097	-0.421515
C108	C	1.172359	0.500097	0.078485
C109	C	0.673364	0.000104	-0.338390
C110	C	1.173364	0.500104	0.161610
C111	C	0.674619	0.000110	-0.234091
C112	C	1.174619	0.500110	0.265909
C113	C	0.668880	0.000094	0.288692
C114	C	1.168880	0.500094	0.788692
C115	C	0.670107	0.000087	0.391058
C116	C	1.170107	0.500087	0.891058
H117	H	0.487861	0.000059	0.278930
H118	H	0.987861	0.500059	0.778930
H119	H	0.137844	0.000164	-0.117615
H120	H	0.637844	0.500164	0.382385
H121	H	-0.142122	0.000123	-0.038834
H122	H	0.357878	0.500123	0.461166
H123	H	-0.034363	0.000137	-0.036747
H124	H	0.465637	0.500137	0.463253
H125	H	0.245602	0.000165	-0.115519
H126	H	0.745602	0.500165	0.384481
Cl127	Cl	0.394194	0.000117	-0.065735
Cl128	Cl	0.894194	0.500117	0.434265
Cl129	Cl	-0.182552	0.000114	0.303226
Cl130	Cl	0.317448	0.500114	0.803226
Cl131	Cl	0.363983	0.000084	0.313835
Cl132	Cl	0.863983	0.500084	0.813835
Cl133	Cl	0.528283	0.000099	-0.063127
Cl134	Cl	1.028283	0.500099	0.436873
Cl135	Cl	0.218089	0.000084	0.395209
Cl136	Cl	0.718089	0.500084	0.895209
Cl137	Cl	0.084032	0.000093	0.392610
Cl138	Cl	0.584032	0.500093	0.892610
H139	H	-0.058656	0.000111	0.268344
H140	H	0.441344	0.500111	0.768344
