data_functionalizedCrystal
_audit_creation_method	'MofGen! by Chris Wilmer'
_symmetry_space_group_name_H-M	'P1'
_symmetry_Int_Tables_number	1
_symmetry_cell_setting	triclinic
loop_
_symmetry_equiv_pos_as_xyz
  x,y,z
_cell_length_a	19.077409
_cell_length_b	19.076808
_cell_length_c	19.076919
_cell_angle_alpha	89.878360
_cell_angle_beta	94.476475
_cell_angle_gamma	94.713771
loop_
_atom_site_label
_atom_site_type_symbol
_atom_site_fract_x
_atom_site_fract_y
_atom_site_fract_z
Zn1	Zn	1.051944	-0.251820	-0.345709
Zn2	Zn	1.052241	-0.364603	-0.223467
Zn3	Zn	0.938798	-0.251844	-0.232557
Zn4	Zn	0.929291	-0.374418	-0.345650
O5	O	0.993069	-0.310671	-0.286846
O6	O	1.150790	-0.262664	-0.325715
O7	O	1.041296	-0.345547	-0.126185
O8	O	0.957661	-0.153343	-0.251396
O9	O	1.151009	-0.345524	-0.235904
O10	O	1.040789	-0.153326	-0.334528
O11	O	0.957950	-0.262704	-0.132863
O12	O	0.838730	-0.272221	-0.251338
O13	O	0.941458	-0.362253	-0.444146
O14	O	0.831745	-0.362276	-0.334427
O15	O	1.031570	-0.272181	-0.444190
O16	O	1.032077	-0.464402	-0.235846
O17	O	0.941746	-0.471614	-0.325613
C18	C	0.809618	-0.318317	-0.293863
C19	C	0.731136	-0.321605	-0.296881
C20	C	0.288973	-0.345136	-0.318562
C21	C	0.362716	-0.342051	-0.315713
C22	C	0.403201	-0.293552	-0.271106
C23	C	0.369939	-0.248141	-0.229340
C24	C	0.296198	-0.251229	-0.232185
C25	C	0.624132	-0.279282	-0.257961
C26	C	0.697879	-0.276195	-0.255120
C27	C	0.690651	-0.370107	-0.341492
C28	C	0.616908	-0.373189	-0.344337
C29	C	0.583653	-0.327780	-0.302568
N30	N	0.478578	-0.290396	-0.268194
N31	N	0.508277	-0.330939	-0.305477
C32	C	0.985931	-0.493547	-0.279752
C33	C	0.982941	-0.571780	-0.276738
C34	C	1.024781	-0.608468	-0.318642
C35	C	1.021969	-0.681977	-0.315812
C36	C	0.977320	-0.718796	-0.271073
C37	C	0.935475	-0.682104	-0.229166
C38	C	0.938284	-0.608596	-0.232001
C39	C	0.964278	-0.938646	-0.257953
C40	C	0.961474	-1.012158	-0.255119
C41	C	1.047967	-1.012027	-0.341766
C42	C	1.050775	-0.938518	-0.344594
C43	C	1.008928	-0.901832	-0.302690
N44	N	0.974446	-0.793934	-0.268177
N45	N	1.011799	-0.826696	-0.305590
C46	C	1.177236	-0.302997	-0.279802
C47	C	1.255717	-0.299726	-0.276800
C48	C	0.985420	-0.318310	-0.470419
C49	C	0.982161	-0.321565	-0.548647
C50	C	1.000253	-0.127081	-0.293983
C51	C	1.003314	-0.048846	-0.297024
C52	C	1.027545	-0.276200	-0.585423
C53	C	1.024474	-0.279256	-0.658927
C54	C	0.976023	-0.327681	-0.695653
C55	C	0.930634	-0.373047	-0.658873
C56	C	0.933702	-0.369987	-0.585370
C57	C	0.961813	-0.341858	-0.915479
C58	C	0.958750	-0.344916	-0.988987
C59	C	1.052589	-0.251124	-0.989036
C60	C	1.055655	-0.248071	-0.915532
C61	C	1.010265	-0.293435	-0.878758
N62	N	0.972884	-0.330807	-0.770786
N63	N	1.013400	-0.290304	-0.803627
C64	C	1.000730	-0.303010	-0.103987
C65	C	1.004133	-0.299551	-0.025762
H66	H	0.730840	-0.236693	-0.218801
O67	O	1.062651	-0.717692	-0.356409
C68	C	1.108336	-0.756602	-0.312982
H69	H	1.085269	-0.766466	-0.260153
H70	H	1.114605	-0.809076	-0.339299
H71	H	1.162074	-0.725730	-0.304380
H72	H	0.402908	-0.208655	-0.193016
O73	O	0.892061	-0.717951	-0.185802
C74	C	0.843120	-0.764057	-0.225940
H75	H	0.865337	-0.776212	-0.277923
H76	H	0.832903	-0.814966	-0.195630
H77	H	0.791548	-0.738277	-0.236722
H78	H	1.082036	-1.041904	-0.375882
O79	O	1.102740	-0.200966	-0.879968
C80	C	1.142151	-0.161593	-0.928189
H81	H	1.111140	-0.162540	-0.981783
H82	H	1.152740	-0.104938	-0.908819
H83	H	1.194441	-0.185460	-0.932956
H84	H	0.256015	-0.384625	-0.354889
O85	O	1.094166	-0.902864	-0.388112
C86	C	1.130510	-0.951008	-0.424476
H87	H	1.099481	-1.004737	-0.425983
H88	H	1.136508	-0.931734	-0.480465
H89	H	1.184927	-0.955483	-0.396388
H90	H	0.904212	-0.578726	-0.197879
O91	O	0.263777	-0.207191	-0.191642
C92	C	0.190010	-0.220306	-0.203729
H93	H	0.176875	-0.276038	-0.224971
H94	H	0.164353	-0.214434	-0.152288
H95	H	0.169153	-0.181053	-0.243700
O96	O	0.918034	-1.047819	-0.211645
C97	C	0.881712	-0.999677	-0.175255
H98	H	0.880043	-0.948572	-0.206195
H99	H	0.825588	-1.022979	-0.169015
H100	H	0.910132	-0.988551	-0.121132
O101	O	0.923738	-0.902929	-0.217210
C102	C	0.967494	-0.856833	-0.171877
H103	H	1.020369	-0.844567	-0.195126
H104	H	0.941109	-0.805978	-0.165513
H105	H	0.976386	-0.882677	-0.118335
O106	O	0.889722	-0.414082	-0.549558
C107	C	0.929922	-0.456107	-0.503751
H108	H	0.984862	-0.428592	-0.491668
H109	H	0.902954	-0.464582	-0.452792
H110	H	0.934455	-0.509126	-0.529750
H111	H	1.067001	-0.236770	-0.555525
O112	O	1.068580	-0.235287	-0.694728
C113	C	1.110850	-0.275225	-0.733941
H114	H	1.083404	-0.330065	-0.743825
H115	H	1.119266	-0.248311	-0.786383
H116	H	1.164061	-0.279595	-0.703324
H117	H	1.089542	-0.214190	-1.018985
H118	H	0.919293	-0.384350	-1.018888
H119	H	0.717735	-0.407077	-0.375497
O120	O	0.394909	-0.386191	-0.356350
C121	C	0.343363	-0.429668	-0.396321
H122	H	0.291819	-0.403144	-0.401954
H123	H	0.362084	-0.438678	-0.450643
H124	H	0.334506	-0.482337	-0.368690
O125	O	0.577689	-0.420373	-0.387673
C126	C	0.622856	-0.459785	-0.423931
H127	H	0.676523	-0.458765	-0.392984
H128	H	0.599087	-0.516458	-0.430000
H129	H	0.629481	-0.436004	-0.478127
H130	H	0.924863	-0.378806	-0.885546
O131	O	1.068235	-0.572667	-0.362001
C132	C	1.117157	-0.526538	-0.321869
H133	H	1.123028	-0.546213	-0.265417
H134	H	1.170445	-0.524445	-0.345328
H135	H	1.097559	-0.471657	-0.322411
O136	O	0.883630	-0.420064	-0.694654
C137	C	0.890641	-0.413028	-0.767417
H138	H	0.945615	-0.388125	-0.776272
H139	H	0.882621	-0.467113	-0.793483
H140	H	0.849358	-0.378157	-0.791332
O141	O	0.591947	-0.235097	-0.217369
C142	C	0.643495	-0.191640	-0.177380
H143	H	0.694961	-0.188251	-0.204279
H144	H	0.624658	-0.136754	-0.172941
H145	H	0.652550	-0.214774	-0.122585
