data_functionalizedCrystal
_audit_creation_method	'MofGen! by Chris Wilmer'
_symmetry_space_group_name_H-M	'P1'
_symmetry_Int_Tables_number	1
_symmetry_cell_setting	triclinic
loop_
_symmetry_equiv_pos_as_xyz
  x,y,z
_cell_length_a	12.594516
_cell_length_b	13.897449
_cell_length_c	13.897441
_cell_angle_alpha	89.978743
_cell_angle_beta	89.974595
_cell_angle_gamma	90.016879
loop_
_atom_site_label
_atom_site_type_symbol
_atom_site_fract_x
_atom_site_fract_y
_atom_site_fract_z
Zn1	Zn	-0.423695	1.474693	-0.545478
Zn2	Zn	0.076305	1.974693	-0.045478
Zn3	Zn	-0.601703	1.474598	-0.384191
Zn4	Zn	-0.101703	1.974598	0.115809
Zn5	Zn	-0.423741	1.313388	-0.384189
Zn6	Zn	0.076259	1.813388	0.115811
Zn7	Zn	-0.601634	1.313369	-0.545436
Zn8	Zn	-0.101634	1.813369	-0.045436
O9	O	-0.512693	1.394012	-0.464824
O10	O	-0.012693	1.894012	0.035176
O11	O	-0.447317	1.609662	-0.524101
O12	O	0.052683	2.109662	-0.024101
O13	O	-0.578144	1.453181	-0.249209
O14	O	-0.078144	1.953181	0.250791
O15	O	-0.274789	1.334834	-0.405601
O16	O	0.225211	1.834834	0.094399
O17	O	-0.578099	1.609592	-0.405605
O18	O	-0.078099	2.109592	0.094395
O19	O	-0.274755	1.453344	-0.524099
O20	O	0.225245	1.953344	-0.024099
O21	O	-0.447396	1.334742	-0.249207
O22	O	0.052604	1.834742	0.250793
O23	O	-0.447330	1.178404	-0.405560
O24	O	0.052670	1.678404	0.094440
O25	O	-0.577982	1.334800	-0.680424
O26	O	-0.077982	1.834800	-0.180424
O27	O	-0.578027	1.178390	-0.524028
O28	O	-0.078027	1.678390	-0.024028
O29	O	-0.447251	1.453325	-0.680454
O30	O	0.052749	1.953325	-0.180454
O31	O	-0.750639	1.453162	-0.405564
O32	O	-0.250639	1.953162	0.094436
O33	O	-0.750589	1.334708	-0.524030
O34	O	-0.250589	1.834708	-0.024030
C35	C	-0.512677	1.143398	-0.464790
C36	C	-0.012677	1.643398	0.035210
C37	C	-0.512695	1.036184	-0.464798
C38	C	-0.012695	1.536184	0.035202
C39	C	-0.512699	0.949114	-0.464815
C40	C	-0.012699	1.449114	0.035185
C41	C	-0.512707	0.839882	-0.464844
C42	C	-0.012707	1.339882	0.035156
C43	C	-0.789234	1.393949	-0.464814
C44	C	-0.289234	1.893949	0.035186
C45	C	-0.907540	1.394010	-0.464842
C46	C	-0.407540	1.894010	0.035158
C47	C	-0.976804	1.329577	-0.529231
C48	C	-0.476804	1.829577	-0.029231
C49	C	-1.047669	1.306076	-0.441213
C50	C	-0.547669	1.806076	0.058787
C51	C	-1.047474	1.417598	-0.552875
C52	C	-0.547474	1.917598	-0.052875
C53	C	-0.976846	1.370463	-0.376778
C54	C	-0.476846	1.870463	0.123222
C55	C	-0.976645	1.482026	-0.488500
C56	C	-0.476645	1.982026	0.011500
C57	C	-1.047478	1.458559	-0.400421
C58	C	-0.547478	1.958559	0.099579
C59	C	-0.235072	1.394102	-0.464854
C60	C	0.264928	1.894102	0.035146
C61	C	-0.116767	1.394140	-0.464867
C62	C	0.383233	1.894140	0.035133
C63	C	-0.512604	1.394071	-0.716417
C64	C	-0.012604	1.894071	-0.216417
C65	C	-0.512566	1.394096	-0.823631
C66	C	-0.012566	1.894096	-0.323631
C67	C	-0.512710	1.645605	-0.464858
C68	C	-0.012710	2.145605	0.035142
C69	C	-0.512718	1.752819	-0.464873
C70	C	-0.012718	2.252819	0.035127
C71	C	-0.512536	1.394116	-0.910701
C72	C	-0.012536	1.894116	-0.410701
C73	C	-0.512488	1.394144	-1.019933
C74	C	-0.012488	1.894144	-0.519933
C75	C	-0.512705	1.394009	-0.214209
C76	C	-0.012705	1.894009	0.285791
C77	C	-0.512444	1.394171	-0.106996
C78	C	-0.012444	1.894171	0.393004
H79	H	-1.078889	1.231703	-0.421223
H80	H	-0.578889	1.731703	0.078777
N81	N	-0.935671	1.257283	-0.601250
N82	N	-0.435671	1.757283	-0.101250
H83	H	-0.962465	1.274367	-0.667578
H84	H	-0.462465	1.774367	-0.167578
H85	H	-0.961515	1.190888	-0.583177
H86	H	-0.461515	1.690888	-0.083177
H87	H	-0.945950	1.350479	-0.302319
H88	H	-0.445950	1.850479	0.197681
H89	H	-1.078314	1.513104	-0.345918
H90	H	-0.578314	2.013104	0.154082
N91	N	-0.935290	1.580520	-0.515025
N92	N	-0.435290	2.080520	-0.015025
H93	H	-0.960934	1.598233	-0.581562
H94	H	-0.460934	2.098233	-0.081562
H95	H	-0.855110	1.579819	-0.514139
H96	H	-0.355110	2.079819	-0.014139
N97	N	-1.088582	1.443959	-0.651471
N98	N	-0.588582	1.943959	-0.151471
H99	H	-1.062874	1.395190	-0.700042
H100	H	-0.562874	1.895190	-0.200042
H101	H	-1.061630	1.509935	-0.669748
H102	H	-0.561630	2.009935	-0.169748
