data_functionalizedCrystal
_audit_creation_method	'MofGen! by Chris Wilmer'
_symmetry_space_group_name_H-M	'P1'
_symmetry_Int_Tables_number	1
_symmetry_cell_setting	triclinic
loop_
_symmetry_equiv_pos_as_xyz
  x,y,z
_cell_length_a	6.817900
_cell_length_b	16.418049
_cell_length_c	16.015572
_cell_angle_alpha	77.934069
_cell_angle_beta	104.485554
_cell_angle_gamma	103.389670
loop_
_atom_site_label
_atom_site_type_symbol
_atom_site_fract_x
_atom_site_fract_y
_atom_site_fract_z
V1	V	-3.991464	-0.033756	-0.269482
O2	O	-3.980161	0.086040	-0.264039
O3	O	-3.942731	-0.148123	-0.267939
O4	O	-3.927893	0.003804	-0.386875
O5	O	-3.995101	-0.066939	-0.144280
V6	V	-4.477101	-0.023804	-0.254470
O7	O	-4.248085	-0.055588	-0.302411
O8	O	-4.670677	-0.001973	-0.221541
O9	O	-4.302628	0.090562	-0.256012
O10	O	-4.605801	-0.143600	-0.259913
O11	O	-4.590861	0.009378	-0.379671
O12	O	-4.317465	-0.061364	-0.137077
C13	C	-3.788141	-0.177160	-0.263766
C14	C	-3.829481	-0.270418	-0.263287
C15	C	-4.106096	-0.487922	-0.266521
C16	C	-4.144927	-0.575546	-0.266079
C17	C	-3.781827	-0.569636	-0.257436
C18	C	-3.743001	-0.482013	-0.257884
C19	C	-3.905141	-0.441159	-0.262423
C20	C	-3.982798	-0.616406	-0.261532
C21	C	-4.024899	-0.711412	-0.261053
C22	C	-3.863038	-0.346147	-0.262903
C23	C	-3.769214	0.016638	-0.415478
C24	C	-3.798519	0.046591	-0.511450
C25	C	-4.086378	-0.219271	-0.889781
C26	C	-4.113920	-0.191098	-0.979956
C27	C	-4.037357	-0.045343	-0.954866
C28	C	-4.009798	-0.073503	-0.864687
C29	C	-4.034315	-0.160468	-0.832152
C30	C	-3.957735	-0.014701	-0.807058
C31	C	-3.930190	-0.042859	-0.716886
C32	C	-3.954708	-0.129820	-0.684344
C33	C	-4.006770	-0.188626	-0.741980
C34	C	-3.933233	0.072263	-0.839595
C35	C	-3.881170	0.131066	-0.781966
C36	C	-3.853610	0.102908	-0.691793
C37	C	-3.878128	0.015947	-0.659250
C38	C	-3.801548	0.161714	-0.634156
C39	C	-3.774002	0.133556	-0.543985
C40	C	-3.850582	-0.012212	-0.569079
C41	C	-4.120560	0.119595	-0.260183
C42	C	-4.058457	0.212853	-0.260667
C43	C	-4.139487	-0.074203	-0.108469
C44	C	-4.089421	-0.104152	-0.012497
H45	H	-4.238123	-0.454661	-0.270216
H46	H	-3.955633	0.095188	-0.913019
H47	H	-4.308562	-0.613617	-0.269419
H48	H	-4.156307	-0.238989	-1.026876
H49	H	-3.731609	0.181439	-0.497061
C50	C	-4.032696	-0.283002	-0.706462
C51	C	-3.847621	-0.300570	-0.651293
C52	C	-3.871309	-0.387484	-0.618510
H53	H	-4.139480	-0.298922	-0.674524
H54	H	-4.067491	-0.314123	-0.753592
H55	H	-3.812851	-0.269460	-0.604170
H56	H	-3.740809	-0.284671	-0.683212
H57	H	-3.906105	-0.418605	-0.665640
H58	H	-3.978099	-0.403396	-0.586575
H59	H	-3.745737	-0.399416	-0.581080
C60	C	-4.112486	-0.313717	-0.854603
C61	C	-4.163702	-0.359188	-0.924364
C62	C	-4.187484	-0.446184	-0.891984
H63	H	-3.987019	-0.325806	-0.817225
H64	H	-4.219384	-0.329798	-0.822705
H65	H	-4.056813	-0.343113	-0.956247
H66	H	-4.289175	-0.347125	-0.961748
H67	H	-4.294382	-0.462265	-0.860087
H68	H	-4.062011	-0.458264	-0.854606
H69	H	-4.222255	-0.477047	-0.939312
H70	H	-3.649823	-0.602911	-0.253739
H71	H	-3.861221	0.201873	-0.808469
H72	H	-3.870519	-0.083026	-0.542587
C73	C	-3.524693	-0.431307	-0.253250
C74	C	-3.396333	-0.462285	-0.175873
C75	C	-3.195232	-0.415589	-0.171572
H76	H	-3.475352	-0.436652	-0.301933
H77	H	-3.524687	-0.373268	-0.254120
H78	H	-3.396330	-0.520309	-0.175010
H79	H	-3.445608	-0.456939	-0.127175
H80	H	-3.195227	-0.357550	-0.172442
H81	H	-3.145912	-0.420937	-0.220259
H82	H	-3.108119	-0.436595	-0.119069
C83	C	-3.925052	-0.160284	-0.586430
C84	C	-4.066366	-0.132551	-0.553905
C85	C	-4.039089	-0.160589	-0.463710
H86	H	-3.947154	-0.220488	-0.575191
H87	H	-3.788582	-0.137897	-0.558546
H88	H	-4.202803	-0.154942	-0.581780
H89	H	-4.044290	-0.072351	-0.565120
H90	H	-3.902620	-0.138201	-0.435825
H91	H	-4.061190	-0.220792	-0.452480
H92	H	-4.134952	-0.141769	-0.441629
C93	C	-3.774937	0.256096	-0.669655
C94	C	-3.810169	0.268170	-0.760957
C95	C	-3.785648	0.355103	-0.793687
H96	H	-3.870785	0.279703	-0.652627
H97	H	-3.638527	0.283268	-0.646960
H98	H	-3.946559	0.241008	-0.783644
H99	H	-3.714331	0.244582	-0.778010
H100	H	-3.649238	0.382276	-0.770992
H101	H	-3.881499	0.378703	-0.776652
H102	H	-3.809530	0.363307	-0.855638
H103	H	-4.017408	0.025464	-0.981370
