data_functionalizedCrystal
_audit_creation_method	'MofGen! by Chris Wilmer'
_symmetry_space_group_name_H-M	'P1'
_symmetry_Int_Tables_number	1
_symmetry_cell_setting	triclinic
loop_
_symmetry_equiv_pos_as_xyz
  x,y,z
_cell_length_a	18.050588
_cell_length_b	18.050591
_cell_length_c	12.594509
_cell_angle_alpha	90.017207
_cell_angle_beta	89.969358
_cell_angle_gamma	89.970544
loop_
_atom_site_label
_atom_site_type_symbol
_atom_site_fract_x
_atom_site_fract_y
_atom_site_fract_z
Zn1	Zn	-0.295639	-1.135330	-0.601725
Zn2	Zn	-0.419843	-1.135225	-0.423739
Zn3	Zn	-0.295671	-1.011136	-0.423767
Zn4	Zn	-0.419792	-1.011095	-0.601682
O5	O	-0.357736	-1.073197	-0.512728
O6	O	-0.312123	-1.239241	-0.578121
O7	O	-0.403406	-1.118738	-0.274797
O8	O	-0.191742	-1.027672	-0.447403
O9	O	-0.403375	-1.239163	-0.447356
O10	O	-0.191719	-1.118917	-0.578148
O11	O	-0.312178	-1.027570	-0.274817
O12	O	-0.312128	-0.907206	-0.447361
O13	O	-0.403288	-1.027601	-0.750634
O14	O	-0.403319	-0.907176	-0.578075
O15	O	-0.312073	-1.118877	-0.750665
O16	O	-0.523761	-1.118697	-0.447314
O17	O	-0.523723	-1.027499	-0.578048
C18	C	-0.357722	-0.880244	-0.512717
C19	C	-0.357733	-0.797699	-0.512737
C20	C	-0.550688	-1.073102	-0.512696
C21	C	-0.633234	-1.073130	-0.512718
C22	C	-0.407430	-0.548878	-0.583719
C23	C	-0.425511	-0.598240	-0.486569
C24	C	-0.357762	-0.500578	-0.512731
C25	C	-0.339702	-0.598298	-0.609879
C26	C	-0.357750	-0.646563	-0.512739
C27	C	-0.375879	-0.548853	-0.415529
C28	C	-0.290037	-0.548906	-0.538905
C29	C	-0.308093	-0.598246	-0.441688
C30	C	-0.357771	-0.416480	-0.512728
C31	C	-0.357741	-0.730660	-0.512731
C32	C	-0.882066	-1.023615	-0.583812
C33	C	-0.832595	-1.091333	-0.609925
C34	C	-0.930355	-1.073284	-0.512778
C35	C	-0.832744	-1.005494	-0.486686
C36	C	-0.784369	-1.073205	-0.512751
C37	C	-0.881970	-1.141039	-0.538941
C38	C	-0.882124	-1.055154	-0.415657
C39	C	-0.832675	-1.122919	-0.441733
C40	C	-1.014453	-1.073329	-0.512796
C41	C	-0.700273	-1.073168	-0.512733
C42	C	-0.164031	-1.073311	-0.512784
C43	C	-0.081485	-1.073360	-0.512807
C44	C	-0.357671	-1.073246	-0.790349
C45	C	-0.357644	-1.073267	-0.908655
C46	C	-0.357756	-0.266902	-0.512737
C47	C	-0.357776	-0.349448	-0.512732
C48	C	-0.407227	-1.023638	-0.977891
C49	C	-0.425372	-1.091398	-1.048673
C50	C	-0.339453	-1.005560	-1.048672
C51	C	-0.375825	-1.141063	-0.977879
C52	C	-0.289874	-1.055179	-0.977871
C53	C	-0.307994	-1.122986	-1.048622
C54	C	-0.357747	-1.073190	-0.236187
C55	C	-0.357566	-1.073312	-0.117882
H56	H	-0.449470	-0.527201	-0.643672
H57	H	-0.324431	-0.620016	-0.692032
H58	H	-0.482650	-1.106722	-1.079773
C59	C	-0.886348	-0.986162	-0.766619
C60	C	-0.911354	-0.967031	-0.664978
H61	H	-0.904435	-0.951234	-0.816727
H62	H	-0.833733	-0.986051	-0.767613
H63	H	-0.903930	-1.034171	-0.784455
H64	H	-0.893768	-0.919024	-0.647139
H65	H	-0.963981	-0.967134	-0.663981
C66	C	-0.318251	-0.929257	-1.201820
C67	C	-0.318722	-0.928240	-1.090652
H68	H	-0.305461	-0.881520	-1.227732
H69	H	-0.282949	-0.964465	-1.226028
H70	H	-0.366030	-0.942465	-1.227090
H71	H	-0.270941	-0.915037	-1.065381
H72	H	-0.354025	-0.893020	-1.066434
C73	C	-0.499297	-0.932605	-1.021693
C74	C	-0.463916	-0.967026	-0.935955
H75	H	-0.534297	-0.897661	-0.995800
H76	H	-0.463541	-0.907916	-1.064223
H77	H	-0.524059	-0.968895	-1.063191
H78	H	-0.439149	-0.930736	-0.894461
H79	H	-0.499677	-0.991715	-0.893407
H80	H	-0.391243	-1.198358	-0.946913
C81	C	-0.213296	-1.035337	-0.824674
C82	C	-0.212575	-1.034470	-0.935841
H83	H	-0.165573	-1.022550	-0.798727
H84	H	-0.248664	-1.000558	-0.799412
H85	H	-0.226130	-1.083496	-0.800492
H86	H	-0.199746	-0.986309	-0.960022
H87	H	-0.177195	-1.069251	-0.961112
C88	C	-0.885521	-1.270405	-0.494916
C89	C	-0.911036	-1.218409	-0.568853
H90	H	-0.903471	-1.318166	-0.513383
H91	H	-0.832903	-1.270849	-0.495067
H92	H	-0.902897	-1.257466	-0.426155
H93	H	-0.893656	-1.231345	-0.637613
H94	H	-0.963665	-1.217967	-0.568713
H95	H	-0.811126	-1.164937	-0.381650
H96	H	-0.810841	-1.106639	-0.692046
C97	C	-0.886723	-0.963458	-0.277677
C98	C	-0.911524	-1.034465	-0.304831
H99	H	-0.904879	-0.950679	-0.209261
H100	H	-0.834110	-0.962835	-0.277015
H101	H	-0.904373	-0.928701	-0.328334
H102	H	-0.893870	-1.069223	-0.254179
H103	H	-0.964149	-1.035093	-0.305485
C104	C	-0.193954	-0.544533	-0.670646
C105	C	-0.212752	-0.519618	-0.568833
H106	H	-0.146244	-0.526446	-0.689132
H107	H	-0.193496	-0.597148	-0.671502
H108	H	-0.229371	-0.526891	-0.720356
H109	H	-0.177339	-0.537265	-0.519122
H110	H	-0.213205	-0.466992	-0.567970
H111	H	-0.811117	-0.948197	-0.464629
C112	C	-0.270530	-1.250576	-1.054365
C113	C	-0.251345	-1.179731	-1.090297
H114	H	-0.235562	-1.285608	-1.080103
H115	H	-0.270536	-1.251146	-0.978954
H116	H	-0.318500	-1.263023	-1.079687
H117	H	-0.203378	-1.167281	-1.064968
H118	H	-0.251331	-1.179158	-1.165724
C119	C	-0.344893	-0.545164	-0.230225
C120	C	-0.396588	-0.519662	-0.304594
H121	H	-0.357679	-0.527137	-0.161744
H122	H	-0.345000	-0.597782	-0.229550
H123	H	-0.296942	-0.527858	-0.248940
H124	H	-0.444538	-0.536973	-0.285884
H125	H	-0.396489	-0.467033	-0.305267
H126	H	-0.266085	-0.619786	-0.381590
C127	C	-0.554753	-0.602584	-0.531106
C128	C	-0.502818	-0.627500	-0.456673
H129	H	-0.602479	-0.620649	-0.512655
H130	H	-0.555426	-0.549969	-0.531518
H131	H	-0.541582	-0.620247	-0.599623
H132	H	-0.515987	-0.609832	-0.388157
H133	H	-0.502148	-0.680126	-0.456251
