data_functionalizedCrystal
_audit_creation_method	'MofGen! by Chris Wilmer'
_symmetry_space_group_name_H-M	'P1'
_symmetry_Int_Tables_number	1
_symmetry_cell_setting	triclinic
loop_
_symmetry_equiv_pos_as_xyz
  x,y,z
_cell_length_a	13.033293
_cell_length_b	12.827892
_cell_length_c	12.827885
_cell_angle_alpha	89.970214
_cell_angle_beta	82.790076
_cell_angle_gamma	97.185404
loop_
_atom_site_label
_atom_site_type_symbol
_atom_site_fract_x
_atom_site_fract_y
_atom_site_fract_z
Zn1	Zn	1.597787	-0.213254	-0.794158
Zn2	Zn	1.597681	-0.388045	-0.619405
Zn3	Zn	1.423015	-0.235480	-0.597193
Zn4	Zn	1.423001	-0.410131	-0.771878
O5	O	1.510371	-0.311727	-0.695658
O6	O	1.744019	-0.217896	-0.789597
O7	O	1.574473	-0.367865	-0.470217
O8	O	1.446250	-0.086289	-0.623349
O9	O	1.743942	-0.346314	-0.661206
O10	O	1.574653	-0.069960	-0.768059
O11	O	1.446147	-0.255777	-0.453898
O12	O	1.276767	-0.277193	-0.601745
O13	O	1.446224	-0.383956	-0.921074
O14	O	1.276756	-0.405508	-0.730085
O15	O	1.574639	-0.239311	-0.937443
O16	O	1.574459	-0.537217	-0.639602
O17	O	1.446122	-0.553443	-0.751623
C18	C	1.510305	-0.583246	-0.695632
C19	C	1.510373	-0.699390	-0.695667
C20	C	1.238841	-0.346159	-0.661088
C21	C	1.122679	-0.360915	-0.646323
C22	C	1.573954	-0.743101	-0.640316
C23	C	1.574025	-0.863143	-0.640351
C24	C	1.070929	-0.304053	-0.703364
C25	C	0.950870	-0.319302	-0.688105
C26	C	1.782961	-0.277162	-0.730365
C27	C	1.899123	-0.262432	-0.745154
C28	C	1.510442	-0.311618	-0.968238
C29	C	1.510472	-0.311571	-1.084395
C30	C	1.510465	-0.039145	-0.695712
C31	C	1.510505	0.077013	-0.695734
C32	C	1.574023	-0.239983	-1.144280
C33	C	1.574056	-0.239934	-1.264335
C34	C	1.510360	-0.311753	-0.424147
C35	C	1.510532	-0.311480	-0.308016
H36	H	1.628339	-0.691656	-0.592905
Cl37	Cl	1.139745	-0.211456	-0.796202
Cl38	Cl	1.426450	-0.864917	-0.768898
H39	H	0.943695	-0.202451	-0.805285
Cl40	Cl	1.426529	-0.406119	-1.228565
H41	H	1.628467	-0.178647	-1.315805
H42	H	0.906296	-0.379274	-0.627968
Cl43	Cl	1.426498	-0.406140	-1.142451
Cl44	Cl	1.053863	-0.453502	-0.553476
H45	H	1.628456	-0.900765	-0.592960
H46	H	1.455997	-0.750837	-0.743087
H47	H	1.628403	-0.178728	-1.106670
