data_functionalizedCrystal
_audit_creation_method	'MofGen! by Chris Wilmer'
_symmetry_space_group_name_H-M	'P1'
_symmetry_Int_Tables_number	1
_symmetry_cell_setting	triclinic
loop_
_symmetry_equiv_pos_as_xyz
  x,y,z
_cell_length_a	8.497374
_cell_length_b	8.497374
_cell_length_c	21.256775
_cell_angle_alpha	90.000537
_cell_angle_beta	89.996643
_cell_angle_gamma	90.005237
loop_
_atom_site_label
_atom_site_type_symbol
_atom_site_fract_x
_atom_site_fract_y
_atom_site_fract_z
Zn1	Zn	0.628234	0.892056	0.964103
Zn2	Zn	0.891980	0.628322	0.964098
Zn3	Zn	0.628218	0.628289	0.858674
Zn4	Zn	0.891977	0.892059	0.858659
O5	O	0.760102	0.760182	0.911383
O6	O	0.663229	0.857084	1.052352
O7	O	0.856986	0.407555	0.950118
O8	O	0.407458	0.663263	0.872668
O9	O	0.857002	0.663320	1.052348
O10	O	0.407470	0.857052	0.950126
O11	O	0.663201	0.407531	0.872663
O12	O	0.663198	0.663266	0.770422
O13	O	0.856996	1.112821	0.872642
O14	O	0.856980	0.857057	0.770411
O15	O	0.663226	1.112819	0.950112
O16	O	1.112742	0.663322	0.950103
O17	O	1.112739	0.857088	0.872637
C18	C	0.760088	0.760159	0.747534
C19	C	0.760120	0.760187	0.677439
C20	C	0.861177	0.860936	0.644519
C21	C	0.861185	0.860971	0.578657
C22	C	0.659075	0.659493	0.578641
C23	C	0.659060	0.659467	0.644502
C24	C	1.169982	0.760204	0.911376
C25	C	1.348626	0.760178	0.911392
C26	C	0.760105	1.171662	0.911379
C27	C	0.760121	1.350306	0.911380
C28	C	0.760112	0.760216	1.075872
C29	C	0.760116	0.760223	1.147285
C30	C	0.760151	0.760268	0.475621
C31	C	0.760143	0.760247	0.545716
Zn32	Zn	0.628239	0.892113	1.259055
Zn33	Zn	0.891996	0.892149	1.364481
Zn34	Zn	0.628232	0.628384	1.364498
Zn35	Zn	0.891980	0.628373	1.259055
O36	O	0.760112	0.760255	1.311772
O37	O	0.663237	1.112880	1.273033
O38	O	0.857011	0.857180	1.452733
O39	O	0.407471	0.663358	1.350517
O40	O	0.857017	1.112906	1.350489
O41	O	0.407476	0.857118	1.273049
O42	O	0.663225	0.663393	1.452745
O43	O	0.663209	0.407620	1.350518
O44	O	0.856990	0.663339	1.170806
O45	O	0.856983	0.407612	1.273049
O46	O	0.663221	0.857107	1.170805
O47	O	1.112756	0.857169	1.350490
O48	O	1.112744	0.663374	1.273033
C49	C	0.760098	0.350375	1.311780
C50	C	0.760128	0.171731	1.311770
C51	C	1.169991	0.760287	1.311764
C52	C	1.348635	0.760335	1.311782
H53	H	0.576758	0.577425	0.671306
H54	H	0.576798	0.577488	0.551816
Br55	Br	0.998325	0.997629	0.689218
Br56	Br	0.998333	0.997716	0.533982
