data_functionalizedCrystal
_audit_creation_method	'MofGen! by Chris Wilmer'
_symmetry_space_group_name_H-M	'P1'
_symmetry_Int_Tables_number	1
_symmetry_cell_setting	triclinic
loop_
_symmetry_equiv_pos_as_xyz
  x,y,z
_cell_length_a	14.853568
_cell_length_b	9.016244
_cell_length_c	14.853567
_cell_angle_alpha	90.001561
_cell_angle_beta	83.635059
_cell_angle_gamma	89.995464
loop_
_atom_site_label
_atom_site_type_symbol
_atom_site_fract_x
_atom_site_fract_y
_atom_site_fract_z
O1	O	-1.196369	0.123231	-0.117703
O2	O	-0.933909	0.123254	-0.131724
O3	O	-1.072150	0.123246	0.006516
O4	O	-1.058128	0.123238	-0.255943
O5	O	-1.072129	-0.123435	0.006513
O6	O	-0.933889	-0.123427	-0.131727
O7	O	-1.196348	-0.123450	-0.117706
Cu8	Cu	-1.065117	-0.145962	-0.124717
Cu9	Cu	-1.065141	0.145766	-0.124713
O10	O	-1.058108	-0.123442	-0.255946
C11	C	-0.900310	-0.000084	-0.131090
C12	C	-0.800227	-0.000075	-0.129186
N13	N	-1.065107	-0.351149	-0.124719
C14	C	-0.387693	-0.000107	-0.039019
C15	C	-0.366412	-0.000110	-0.203252
C16	C	-0.460446	-0.000105	-0.205043
C17	C	-0.518107	-0.000099	-0.123820
C18	C	-0.481736	-0.000097	-0.040807
C19	C	-0.496825	-0.000092	-0.288054
C20	C	-0.590864	-0.000085	-0.289848
C21	C	-0.648527	-0.000089	-0.208624
C22	C	-0.612150	-0.000089	-0.125608
C23	C	-0.669812	-0.000083	-0.044385
C24	C	-0.633437	-0.000094	0.038632
C25	C	-0.539399	-0.000102	0.040416
C26	C	-0.742565	-0.000081	-0.210409
C27	C	-0.763855	-0.000073	-0.046173
C28	C	-0.990934	-0.586177	-0.198424
C29	C	-0.991094	-0.414286	-0.198697
C30	C	-1.159202	-0.413496	-0.145384
C31	C	-1.158796	-0.585441	-0.145905
C32	C	-1.046121	-0.585687	-0.030102
C33	C	-1.043954	-0.413733	-0.030733
C34	C	-0.229947	-0.000111	-0.118340
C35	C	-0.330031	-0.000114	-0.120242
C36	C	-1.071504	-0.000090	0.040103
C37	C	-1.069600	-0.000077	0.140187
N38	N	-1.065158	0.350952	-0.124704
C39	C	-1.058753	-0.000103	-0.289534
C40	C	-1.060657	-0.000106	-0.389617
C41	C	-0.979435	-0.000097	0.552721
C42	C	-1.143667	-0.000111	0.574002
C43	C	-1.145457	-0.000103	0.479968
C44	C	-1.064235	-0.000094	0.422306
C45	C	-0.981222	-0.000093	0.458678
C46	C	-1.228469	-0.000118	0.443589
C47	C	-1.230262	-0.000111	0.349550
C48	C	-1.149039	-0.000092	0.291886
C49	C	-1.066023	-0.000090	0.328263
C50	C	-0.984800	-0.000081	0.270602
C51	C	-0.901783	-0.000068	0.306977
C52	C	-0.899999	-0.000074	0.401015
C53	C	-1.150823	-0.000086	0.197849
C54	C	-0.986588	-0.000076	0.176559
H55	H	-0.810798	-0.000074	0.019969
H56	H	-1.002935	-0.629374	-0.268229
H57	H	-0.319459	-0.000103	-0.269380
C58	C	-0.630874	-0.000080	-0.381158
H59	H	-0.695137	-0.000066	-0.370593
H60	H	-0.611086	-0.086101	-0.414609
H61	H	-0.611093	0.085956	-0.414600
H62	H	-0.509774	-0.000146	0.108004
H63	H	-0.974736	-0.372984	-0.015053
H64	H	-1.294595	-0.000140	0.490543
H65	H	-1.218414	-0.000106	0.168236
C66	C	-1.182371	-0.355323	-0.237534
H67	H	-1.134829	-0.293058	-0.263531
H68	H	-1.237226	-0.300370	-0.229109
H69	H	-1.189332	-0.436667	-0.276822
H70	H	-1.100248	-0.626342	0.024759
C71	C	-0.696870	-0.000087	0.127971
H72	H	-0.758083	-0.000084	0.115010
H73	H	-0.685834	0.085930	0.162011
H74	H	-0.685838	-0.086127	0.162000
C75	C	-0.347690	-0.000115	0.052295
H76	H	-0.395502	-0.000118	0.100409
H77	H	-0.311446	0.085900	0.056410
H78	H	-0.311452	-0.086157	0.056405
H79	H	-0.835652	-0.000071	0.260017
H80	H	-0.449870	-0.000082	-0.354181
H81	H	-0.772178	-0.000075	-0.278000
H82	H	-0.920445	-0.000063	0.129616
H83	H	-0.911844	-0.000081	0.582342
H84	H	-0.921155	-0.372135	-0.186367
H85	H	-1.094489	-0.370759	0.026704
H86	H	-0.920774	-0.627564	-0.186293
H87	H	-0.832411	-0.000065	0.430641
C88	C	-1.007530	-0.358694	-0.293529
H89	H	-1.014144	-0.441197	-0.332035
H90	H	-0.957491	-0.300218	-0.317960
H91	H	-1.061115	-0.300387	-0.289099
C92	C	-1.181421	-0.639611	-0.239114
H93	H	-1.190769	-0.556533	-0.276307
H94	H	-1.234850	-0.698264	-0.231585
H95	H	-1.132586	-0.697434	-0.266965
H96	H	-0.978996	-0.629128	-0.010259
C97	C	-1.321572	-0.000120	0.309539
H98	H	-1.311007	-0.000124	0.245276
H99	H	-1.355030	0.085895	0.329330
H100	H	-1.355008	-0.086162	0.329318
C101	C	-1.235653	-0.641629	-0.076138
H102	H	-1.266991	-0.559365	-0.047609
H103	H	-1.210814	-0.700184	-0.031804
H104	H	-1.276582	-0.699980	-0.105971
H105	H	-1.215754	-0.372595	-0.093125
H106	H	-1.209795	-0.000131	0.620955
