data_functionalizedCrystal
_audit_creation_method	'MofGen! by Chris Wilmer'
_symmetry_space_group_name_H-M	'P1'
_symmetry_Int_Tables_number	1
_symmetry_cell_setting	triclinic
loop_
_symmetry_equiv_pos_as_xyz
  x,y,z
_cell_length_a	15.944551
_cell_length_b	14.421503
_cell_length_c	15.944499
_cell_angle_alpha	89.992463
_cell_angle_beta	83.488174
_cell_angle_gamma	90.003141
loop_
_atom_site_label
_atom_site_type_symbol
_atom_site_fract_x
_atom_site_fract_y
_atom_site_fract_z
O1	O	1.114509	0.077008	0.108323
O2	O	0.869957	0.077030	0.121680
O3	O	0.998934	0.077020	-0.007276
O4	O	0.985532	0.077018	0.237279
O5	O	0.998913	-0.077203	-0.007257
O6	O	0.869936	-0.077193	0.121699
O7	O	1.114488	-0.077215	0.108342
Cu8	Cu	0.992210	-0.091286	0.115022
Cu9	Cu	0.992235	0.091101	0.115000
O10	O	0.985511	-0.077205	0.237298
C11	C	0.838653	-0.000078	0.121135
C12	C	0.745407	-0.000070	0.119472
N13	N	0.992198	-0.219567	0.115038
C14	C	0.932549	-0.469216	0.174640
C15	C	1.008446	-0.531026	0.190948
C16	C	0.992219	-0.408729	0.115018
C17	C	0.916341	-0.531013	0.098730
C18	C	0.992232	-0.591450	0.115000
C19	C	1.068154	-0.469178	0.131363
C20	C	0.975999	-0.469159	0.039112
C21	C	1.051951	-0.530941	0.055387
C22	C	0.992210	-0.303467	0.115030
C23	C	0.992249	-0.696709	0.114987
C24	C	0.530566	-0.000087	0.035566
C25	C	0.469549	0.075953	0.074520
C26	C	0.574681	-0.000081	0.116465
C27	C	0.469550	-0.076099	0.074558
C28	C	0.409769	-0.000095	0.113554
C29	C	0.514893	0.076022	0.155441
C30	C	0.514900	-0.076098	0.155468
C31	C	0.453901	-0.000040	0.194481
C32	C	0.669683	-0.000071	0.118140
C33	C	0.314768	-0.000098	0.111886
C34	C	1.145792	-0.000104	0.108887
C35	C	1.239038	-0.000107	0.110550
C36	C	0.998375	-0.000089	-0.038562
C37	C	0.996730	-0.000082	-0.131810
N38	N	0.992253	0.219382	0.114978
C39	C	1.071662	-0.000094	-0.423346
C40	C	1.032700	-0.076134	-0.362311
C41	C	0.990753	-0.000092	-0.467446
C42	C	1.032699	0.075918	-0.362336
C43	C	0.993694	-0.000086	-0.302538
C44	C	0.951769	-0.076195	-0.407640
C45	C	0.951779	0.075926	-0.407671
C46	C	0.912758	-0.000133	-0.346654
C47	C	0.989062	-0.000097	-0.562446
C48	C	0.995379	-0.000088	-0.207539
C49	C	0.986070	-0.000094	0.268583
C50	C	0.987715	-0.000095	0.361832
H51	H	1.022176	-0.558200	0.255132
O52	O	0.445624	0.152577	0.033558
C53	C	0.457923	0.239246	-0.096477
C54	C	0.485065	0.152427	-0.050189
H55	H	0.489812	0.239164	-0.164189
H56	H	0.386469	0.238856	-0.096872
H57	H	0.477438	0.304035	-0.062608
H58	H	0.465608	0.087592	-0.084021
H59	H	0.556517	0.152898	-0.049786
O60	O	0.445556	-0.152696	0.033615
C61	C	0.377616	-0.212296	-0.082681
C62	C	0.404758	-0.125481	-0.036399
H63	H	0.344610	-0.190325	-0.139287
H64	H	0.435658	-0.255558	-0.105239
H65	H	0.332434	-0.255284	-0.037735
H66	H	0.449921	-0.082422	-0.081296
H67	H	0.346677	-0.082289	-0.013828
H68	H	1.102473	-0.557873	0.004956
O69	O	1.151777	-0.000348	-0.463079
C70	C	1.284913	-0.080782	-0.485133
C71	C	1.194203	-0.080616	-0.440097
H72	H	1.319246	-0.145662	-0.466555
H73	H	1.282939	-0.080177	-0.556381
H74	H	1.319728	-0.016585	-0.465757
H75	H	1.159336	-0.144802	-0.459404
H76	H	1.196238	-0.081173	-0.368858
O77	O	0.959492	-0.436594	-0.037363
C78	C	0.867369	-0.344701	-0.113835
C79	C	0.885990	-0.381502	-0.027175
H80	H	0.807933	-0.300168	-0.105630
H81	H	0.922902	-0.301138	-0.142850
H82	H	0.857457	-0.405617	-0.157195
H83	H	0.895883	-0.320643	0.016250
H84	H	0.830447	-0.425093	0.001771
H85	H	0.563911	0.000008	-0.031574
O86	O	0.538882	0.152775	0.196162
C87	C	0.654223	0.238858	0.243456
C88	C	0.627172	0.151910	0.197308
H89	H	0.725604	0.238178	0.244413
H90	H	0.635225	0.303614	0.209196
H91	H	0.621848	0.239120	0.310982
H92	H	0.659533	0.151558	0.129780
H93	H	0.646154	0.087194	0.231633
H94	H	0.420730	0.000002	0.261689
O95	O	1.144652	-0.436763	0.147965
C96	C	1.230462	-0.302413	0.166613
C97	C	1.143799	-0.338999	0.147783
H98	H	1.229807	-0.223367	0.166455
H99	H	1.244372	-0.328404	0.231135
H100	H	1.281390	-0.328395	0.116126
H101	H	1.092816	-0.313032	0.198217
H102	H	1.129962	-0.313016	0.083237
O103	O	0.839856	-0.563525	0.082191
C104	C	0.763150	-0.653948	-0.010804
C105	C	0.849826	-0.617212	0.007828
H106	H	0.771179	-0.697345	-0.070936
H107	H	0.734664	-0.698630	0.044183
H108	H	0.719426	-0.593000	-0.019481
H109	H	0.893614	-0.678102	0.016487
H110	H	0.878243	-0.572502	-0.047168
H111	H	1.066913	-0.140424	-0.342212
O112	O	0.539049	-0.152721	0.196274
C113	C	0.654508	-0.238132	0.244109
C114	C	0.627270	-0.151298	0.197905
H115	H	0.725839	-0.237020	0.245427
H116	H	0.621800	-0.238804	0.311505
H117	H	0.636049	-0.302898	0.209545
H118	H	0.645725	-0.086485	0.232399
H119	H	0.659972	-0.150708	0.130508
O120	O	0.832641	-0.000124	-0.306930
C121	C	0.744235	0.000543	-0.173922
C122	C	0.835009	0.000556	-0.218801
H123	H	0.746120	0.001073	-0.102663
H124	H	0.709484	0.064777	-0.193322
H125	H	0.709897	-0.064304	-0.192565
H126	H	0.869419	0.065360	-0.200181
H127	H	0.869697	-0.063721	-0.199399
O128	O	0.911020	-0.152941	-0.431608
C129	C	0.863674	-0.239010	-0.546924
C130	C	0.909856	-0.152070	-0.519896
H131	H	0.862703	-0.238325	-0.618304
H132	H	0.897918	-0.303772	-0.527924
H133	H	0.796153	-0.239262	-0.514536
H134	H	0.977379	-0.151728	-0.552271
H135	H	0.875547	-0.087347	-0.538881
H136	H	0.917595	0.140219	-0.427792
O137	O	1.073659	0.152581	-0.338505
C138	C	1.203739	0.239156	-0.350784
C139	C	1.157440	0.152317	-0.377853
H140	H	1.271490	0.238962	-0.382571
H141	H	1.169977	0.303995	-0.370364
H142	H	1.204037	0.238769	-0.279320
H143	H	1.157129	0.152614	-0.449313
H144	H	1.191217	0.087517	-0.358211
H145	H	0.882139	-0.442114	0.225102
