data_functionalizedCrystal
_audit_creation_method	'MofGen! by Chris Wilmer'
_symmetry_space_group_name_H-M	'P1'
_symmetry_Int_Tables_number	1
_symmetry_cell_setting	triclinic
loop_
_symmetry_equiv_pos_as_xyz
  x,y,z
_cell_length_a	19.121102
_cell_length_b	19.121111
_cell_length_c	15.299448
_cell_angle_alpha	83.125741
_cell_angle_beta	102.512947
_cell_angle_gamma	89.871671
loop_
_atom_site_label
_atom_site_type_symbol
_atom_site_fract_x
_atom_site_fract_y
_atom_site_fract_z
Zn1	Zn	1.142121	0.249414	0.586289
Zn2	Zn	1.642121	0.749414	1.086289
Zn3	Zn	1.116700	0.385299	0.441470
Zn4	Zn	1.616700	0.885299	0.941470
Zn5	Zn	1.002760	0.264726	0.428648
Zn6	Zn	1.502760	0.764726	0.928648
Zn7	Zn	1.019759	0.361682	0.585690
Zn8	Zn	1.519759	0.861682	1.085690
O9	O	1.070335	0.315280	0.510524
O10	O	1.570335	0.815280	1.010524
O11	O	1.237642	0.270916	0.572695
O12	O	1.737642	0.770916	1.072695
O13	O	1.083834	0.385596	0.313439
O14	O	1.583834	0.885596	0.813439
O15	O	1.024771	0.165250	0.444444
O16	O	1.524771	0.665250	0.944444
O17	O	1.218966	0.370750	0.466297
O18	O	1.718966	0.870750	0.966297
O19	O	1.127159	0.154001	0.560262
O20	O	1.627159	0.654001	1.060262
O21	O	1.000122	0.297012	0.304019
O22	O	1.500122	0.797012	0.804019
O23	O	0.906122	0.274111	0.443863
O24	O	1.406122	0.774111	0.943863
O25	O	1.053743	0.330498	0.712099
O26	O	1.553743	0.830498	1.212099
O27	O	0.918611	0.345344	0.559241
O28	O	1.418611	0.845344	1.059241
O29	O	1.143642	0.248015	0.712539
O30	O	1.643642	0.748015	1.212539
O31	O	1.100317	0.479611	0.465716
O32	O	1.600317	0.979611	0.965716
O33	O	1.029094	0.462259	0.571674
O34	O	1.529094	0.962259	1.071674
C35	C	0.886725	0.308827	0.500096
C36	C	1.386725	0.808827	1.000096
C37	C	0.808178	0.306080	0.495658
C38	C	1.308178	0.806080	0.995658
C39	C	1.063813	0.496200	0.520042
C40	C	1.563813	0.996200	1.020042
C41	C	1.061092	0.573596	0.524148
C42	C	1.561092	1.073596	1.024148
C43	C	0.777782	0.341955	0.553556
C44	C	1.277782	0.841955	1.053556
C45	C	0.703979	0.339365	0.549389
C46	C	1.203979	0.839365	1.049389
C47	C	0.660573	0.300902	0.487319
C48	C	1.160573	0.800902	0.987319
C49	C	0.690974	0.265022	0.429418
C50	C	1.190974	0.765022	0.929418
C51	C	0.764776	0.267609	0.433590
C52	C	1.264776	0.767609	0.933590
C53	C	0.437415	0.291227	0.471725
C54	C	0.937415	0.791227	0.971725
C55	C	0.363608	0.288645	0.467556
C56	C	0.863608	0.788645	0.967556
C57	C	0.376618	0.362987	0.587529
C58	C	0.876618	0.862987	1.087529
C59	C	0.450420	0.365574	0.591692
C60	C	0.950420	0.865574	1.091692
C61	C	0.480815	0.329691	0.533794
C62	C	0.980815	0.829691	1.033794
C63	C	0.585135	0.298255	0.483056
C64	C	1.085135	0.798255	0.983056
C65	C	0.556253	0.332335	0.538062
C66	C	1.056253	0.832335	1.038062
C67	C	1.096937	0.618963	0.470960
C68	C	1.596937	1.118963	0.970960
C69	C	1.094383	0.691684	0.474827
C70	C	1.594383	1.191684	0.974827
C71	C	1.055979	0.719037	0.531878
C72	C	1.555979	1.219037	1.031878
C73	C	1.020133	0.673664	0.585071
C74	C	1.520133	1.173664	1.085071
C75	C	1.022692	0.600944	0.581209
C76	C	1.522692	1.100944	1.081209
C77	C	1.046399	0.938154	0.546303
C78	C	1.546399	1.438154	1.046303
C79	C	1.043841	1.010880	0.550159
C80	C	1.543841	1.510880	1.050159
C81	C	1.118093	1.028894	0.439916
C82	C	1.618093	1.528894	0.939916
C83	C	1.120645	0.956172	0.436054
C84	C	1.620645	1.456172	0.936054
C85	C	1.084802	0.910806	0.489251
C86	C	1.584802	1.410806	0.989251
C87	C	1.053365	0.793370	0.535830
C88	C	1.553365	1.293370	1.035830
C89	C	1.087420	0.836474	0.485303
C90	C	1.587420	1.336474	0.985303
C91	C	1.254663	0.321760	0.520993
C92	C	1.754663	0.821760	1.020993
C93	C	1.333212	0.324521	0.525455
C94	C	1.833212	0.824521	1.025455
C95	C	1.103424	0.284914	0.745991
C96	C	1.603424	0.784914	1.245991
C97	C	1.117525	0.271974	0.846333
C98	C	1.617525	0.771974	1.346333
C99	C	1.076900	1.133651	0.501001
C100	C	1.576900	1.633651	1.001001
C101	C	1.079687	1.056247	0.496972
C102	C	1.579687	1.556247	0.996972
C103	C	1.037417	0.345479	0.275973
C104	C	1.537417	0.845479	0.775973
C105	C	1.023461	0.358228	0.175629
C106	C	1.523461	0.858228	0.675629
C107	C	1.170955	0.222948	0.893700
C108	C	1.670955	0.722948	1.393700
C109	C	1.184198	0.210781	0.987976
C110	C	1.684198	0.710781	1.487976
C111	C	1.144015	0.247642	1.034894
C112	C	1.644015	0.747642	1.534894
C113	C	1.090587	0.296672	0.987527
C114	C	1.590587	0.796672	1.487527
C115	C	1.077339	0.308836	0.893242
C116	C	1.577339	0.808836	1.393242
C117	C	1.050399	0.333530	1.034435
C118	C	1.550399	0.833530	1.534435
C119	C	0.996971	0.382560	0.987068
C120	C	1.496971	0.882560	1.487068
C121	C	0.983726	0.394723	0.892793
C122	C	1.483726	0.894723	1.392793
C123	C	1.023909	0.357862	0.845875
C124	C	1.523909	0.857862	1.345875
C125	C	1.063646	0.321366	1.128720
C126	C	1.563646	0.821366	1.628720
C127	C	0.970030	0.407254	1.128262
C128	C	1.470030	0.907254	1.628262
C129	C	0.956788	0.419421	1.033986
C130	C	1.456788	0.919421	1.533986
H131	H	0.813118	0.373279	0.604098
H132	H	1.313118	0.873279	1.104098
F133	F	1.213696	0.183705	0.843760
F134	F	1.713696	0.683705	1.343760
H135	H	1.012579	1.033146	0.596633
H136	H	1.512579	1.533146	1.096633
F137	F	0.797125	0.229423	0.371967
F138	F	1.297125	0.729423	0.871967
H139	H	0.549786	0.266940	0.432516
H140	H	1.049786	0.766940	0.932516
F141	F	1.241077	0.158623	1.038382
F142	F	1.741077	0.658623	1.538382
F143	F	1.008251	0.889880	0.602919
F144	F	1.508251	1.389880	1.102919
F145	F	1.137808	0.589859	0.410233
F146	F	1.637808	1.089859	0.910233
H147	H	1.151917	0.933904	0.389599
H148	H	1.651917	1.433904	0.889599
F149	F	1.120506	0.269185	1.179121
F150	F	1.620506	0.769185	1.679121
H151	H	0.993504	0.564006	0.624521
H152	H	1.493504	1.064006	1.124521
F153	F	0.602450	0.373267	0.604121
F154	F	1.102450	0.873267	1.104121
H155	H	0.988867	0.695941	0.631527
H156	H	1.488867	1.195941	1.131527
F157	F	1.009819	0.370811	0.745534
F158	F	1.509819	0.870811	1.245534
H159	H	1.154800	0.237732	1.111657
H160	H	1.654800	0.737732	1.611657
H161	H	1.123571	0.728619	0.431515
H162	H	1.623571	1.228619	0.931515
H163	H	1.147276	1.065839	0.396607
H164	H	1.647276	1.565839	0.896607
H165	H	0.485757	0.396896	0.642235
H166	H	0.985757	0.896896	1.142235
F167	F	0.926854	0.446896	0.842383
F168	F	1.426854	0.946896	1.342383
F169	F	1.128295	0.807361	0.424592
F170	F	1.628295	1.307361	0.924592
H171	H	0.913286	0.459341	0.995407
H172	H	1.413286	0.959341	1.495407
F173	F	1.012493	0.822488	0.596545
F174	F	1.512493	1.322488	1.096545
F175	F	0.927259	0.446483	1.178190
F176	F	1.427259	0.946483	1.678190
H177	H	0.679235	0.368579	0.596536
H178	H	1.179235	0.868579	1.096536
F179	F	0.344264	0.401175	0.649142
F180	F	0.844264	0.901175	1.149142
H181	H	0.462152	0.262015	0.424574
H182	H	0.962152	0.762015	0.924574
F183	F	0.644778	0.224081	0.363363
F184	F	1.144778	0.724081	0.863363
F185	F	0.317412	0.247711	0.401484
F186	F	0.817412	0.747711	0.901484
