data_functionalizedCrystal
_audit_creation_method	'MofGen! by Chris Wilmer'
_symmetry_space_group_name_H-M	'P1'
_symmetry_Int_Tables_number	1
_symmetry_cell_setting	triclinic
loop_
_symmetry_equiv_pos_as_xyz
  x,y,z
_cell_length_a	29.839131
_cell_length_b	29.839135
_cell_length_c	29.839125
_cell_angle_alpha	89.984249
_cell_angle_beta	90.013540
_cell_angle_gamma	89.956471
loop_
_atom_site_label
_atom_site_type_symbol
_atom_site_fract_x
_atom_site_fract_y
_atom_site_fract_z
Zn1	Zn	-0.178894	-0.686719	0.254063
Zn2	Zn	0.154439	-0.353385	0.587397
Zn3	Zn	0.487772	-0.020052	0.920730
Zn4	Zn	-0.254006	-0.686651	0.178939
Zn5	Zn	0.079327	-0.353317	0.512272
Zn6	Zn	0.412660	-0.019984	0.845605
Zn7	Zn	-0.178894	-0.611602	0.178941
Zn8	Zn	0.154440	-0.278268	0.512274
Zn9	Zn	0.487773	0.055065	0.845608
Zn10	Zn	-0.254001	-0.611549	0.254035
Zn11	Zn	0.079333	-0.278216	0.587369
Zn12	Zn	0.412666	0.055118	0.920702
O13	O	-0.216449	-0.649130	0.216495
O14	O	0.116885	-0.315797	0.549828
O15	O	0.450218	0.017537	0.883161
O16	O	-0.188861	-0.749577	0.244109
O17	O	0.144472	-0.416243	0.577442
O18	O	0.477806	-0.082910	0.910775
O19	O	-0.244045	-0.676689	0.116072
O20	O	0.089289	-0.343355	0.449405
O21	O	0.422622	-0.010022	0.782739
O22	O	-0.116027	-0.621617	0.188919
O23	O	0.217307	-0.288283	0.522252
O24	O	0.550640	0.045050	0.855586
O25	O	-0.244045	-0.749527	0.188915
O26	O	0.089288	-0.416193	0.522248
O27	O	0.422621	-0.082860	0.855582
O28	O	-0.116027	-0.676805	0.244111
O29	O	0.217306	-0.343472	0.577444
O30	O	0.550639	-0.010138	0.910778
O31	O	-0.188860	-0.621550	0.116074
O32	O	0.144474	-0.288217	0.449407
O33	O	0.477807	0.045116	0.782740
O34	O	-0.188854	-0.548727	0.188892
O35	O	0.144479	-0.215394	0.522225
O36	O	0.477813	0.117939	0.855558
O37	O	-0.244035	-0.621527	0.316906
O38	O	0.089298	-0.288194	0.650240
O39	O	0.422631	0.045140	0.983573
O40	O	-0.244035	-0.548689	0.244063
O41	O	0.089299	-0.215355	0.577397
O42	O	0.422632	0.117978	0.910730
O43	O	-0.188855	-0.676754	0.316927
O44	O	0.144478	-0.343420	0.650260
O45	O	0.477811	-0.010087	0.983594
O46	O	-0.316873	-0.676638	0.188888
O47	O	0.016461	-0.343304	0.522221
O48	O	0.349794	-0.009971	0.855554
O49	O	-0.316868	-0.621461	0.244061
O50	O	0.016465	-0.288127	0.577394
O51	O	0.349798	0.045206	0.910728
C52	C	-0.216444	-0.532407	0.216475
C53	C	0.116889	-0.199074	0.549808
C54	C	0.450223	0.134259	0.883142
C55	C	-0.216453	-0.482473	0.216477
C56	C	0.116881	-0.149140	0.549811
C57	C	0.450214	0.184194	0.883144
C58	C	-0.187752	-0.172853	0.245274
C59	C	0.145581	0.160481	0.578608
C60	C	0.478915	0.493814	0.911941
C61	C	-0.187753	0.014820	0.245286
C62	C	0.145581	0.348154	0.578619
C63	C	0.478914	0.681487	0.911953
O64	O	-0.163343	0.039066	0.269750
O65	O	0.169990	0.372399	0.603084
O66	O	0.503324	0.705732	0.936417
N67	N	-0.216441	0.038312	0.216508
N68	N	0.116893	0.371645	0.549841
N69	N	0.450226	0.704979	0.883175
C70	C	-0.245129	0.014883	0.187723
C71	C	0.088205	0.348216	0.521056
C72	C	0.421538	0.681549	0.854389
O73	O	-0.269526	0.039170	0.163242
O74	O	0.063807	0.372504	0.496576
O75	O	0.397140	0.705837	0.829909
C76	C	-0.245125	-0.172789	0.187709
C77	C	0.088208	0.160544	0.521042
C78	C	0.421541	0.493877	0.854376
C79	C	-0.216439	-0.196279	0.216492
C80	C	0.116895	0.137055	0.549825
C81	C	0.450228	0.470388	0.883159
C82	C	-0.159067	-0.196342	0.274055
C83	C	0.174266	0.136991	0.607388
C84	C	0.507600	0.470325	0.940721
C85	C	-0.159069	-0.243257	0.274053
C86	C	0.174264	0.090076	0.607387
C87	C	0.507598	0.423409	0.940720
C88	C	-0.187756	-0.266684	0.245271
C89	C	0.145578	0.066650	0.578604
C90	C	0.478911	0.399983	0.911938
C91	C	-0.216440	-0.243194	0.216491
C92	C	0.116893	0.090139	0.549824
C93	C	0.450226	0.423472	0.883157
C94	C	-0.273811	-0.196218	0.158922
C95	C	0.059523	0.137115	0.492255
C96	C	0.392856	0.470449	0.825588
C97	C	-0.273806	-0.243139	0.158920
C98	C	0.059527	0.090194	0.492253
C99	C	0.392860	0.423528	0.825587
C100	C	-0.245120	-0.266628	0.187703
C101	C	0.088214	0.066705	0.521037
C102	C	0.421547	0.400038	0.854370
C103	C	-0.245129	-0.313536	0.187707
C104	C	0.088205	0.019798	0.521040
C105	C	0.421538	0.353131	0.854374
N106	N	-0.216441	-0.337028	0.216485
N107	N	0.116893	-0.003694	0.549818
N108	N	0.450226	0.329639	0.883152
C109	C	-0.187754	-0.313601	0.245267
C110	C	0.145579	0.019732	0.578601
C111	C	0.478913	0.353065	0.911934
C112	C	-0.245129	0.113413	0.187733
C113	C	0.088204	0.446747	0.521066
C114	C	0.421538	0.780080	0.854399
C115	C	-0.245131	0.160331	0.187737
C116	C	0.088203	0.493665	0.521070
C117	C	0.421536	0.826998	0.854403
C118	C	-0.187754	0.160266	0.245300
C119	C	0.145579	0.493599	0.578633
C120	C	0.478913	0.826932	0.911966
C121	C	-0.187755	0.113347	0.245298
C122	C	0.145578	0.446680	0.578631
C123	C	0.478912	0.780014	0.911964
C124	C	-0.216441	0.089922	0.216511
C125	C	0.116892	0.423255	0.549844
C126	C	0.450226	0.756588	0.883177
C127	C	-0.187760	-0.412127	0.245262
C128	C	0.145573	-0.078794	0.578595
C129	C	0.478906	0.254539	0.911929
C130	C	-0.187766	-0.459047	0.245259
C131	C	0.145567	-0.125714	0.578593
C132	C	0.478901	0.207620	0.911926
C133	C	-0.245141	-0.458977	0.187695
C134	C	0.088193	-0.125644	0.521028
C135	C	0.421526	0.207690	0.854362
C136	C	-0.245137	-0.412062	0.187699
C137	C	0.088196	-0.078728	0.521032
C138	C	0.421530	0.254605	0.854366
C139	C	-0.216443	-0.388638	0.216484
C140	C	0.116890	-0.055305	0.549818
C141	C	0.450224	0.278029	0.883151
O142	O	-0.269522	-0.337810	0.163252
O143	O	0.063811	-0.004477	0.496586
O144	O	0.397145	0.328857	0.829919
O145	O	-0.163353	-0.337897	0.269737
O146	O	0.169980	-0.004564	0.603070
O147	O	0.503314	0.328770	0.936404
C148	C	-0.187750	-0.125937	0.245276
C149	C	0.145583	0.207396	0.578609
C150	C	0.478917	0.540729	0.911942
C151	C	-0.216435	-0.102448	0.216495
C152	C	0.116898	0.230885	0.549829
C153	C	0.450232	0.564219	0.883162
C154	C	-0.245121	-0.125874	0.187713
C155	C	0.088212	0.207459	0.521047
C156	C	0.421545	0.540793	0.854380
C157	C	-0.216436	-0.055530	0.216499
C158	C	0.116897	0.277803	0.549833
C159	C	0.450230	0.611137	0.883166
C160	C	-0.187750	-0.032104	0.245281
C161	C	0.145584	0.301229	0.578615
C162	C	0.478917	0.634563	0.911948
C163	C	-0.159062	-0.055596	0.274059
C164	C	0.174272	0.277738	0.607393
C165	C	0.507605	0.611071	0.940726
C166	C	-0.159063	-0.102511	0.274058
C167	C	0.174270	0.230822	0.607391
C168	C	0.507603	0.564156	0.940724
C169	C	-0.273810	-0.102382	0.158935
C170	C	0.059524	0.230951	0.492268
C171	C	0.392857	0.564284	0.825602
C172	C	-0.273806	-0.055467	0.158939
C173	C	0.059528	0.277867	0.492273
C174	C	0.392861	0.611200	0.825606
C175	C	-0.245119	-0.032041	0.187721
C176	C	0.088214	0.301293	0.521055
C177	C	0.421547	0.634626	0.854388
C178	C	-0.333171	-0.649048	0.216481
C179	C	0.000162	-0.315715	0.549814
C180	C	0.333495	0.017618	0.883148
C181	C	-0.383106	-0.649054	0.216490
C182	C	-0.049772	-0.315721	0.549823
C183	C	0.283561	0.017612	0.883157
C184	C	-0.739706	-0.620418	0.245221
C185	C	-0.406373	-0.287084	0.578555
C186	C	-0.073040	0.046249	0.911888
C187	C	-0.552033	-0.620358	0.245207
C188	C	-0.218700	-0.287025	0.578541
C189	C	0.114633	0.046308	0.911874
O190	O	-0.527780	-0.595913	0.269627
O191	O	-0.194447	-0.262579	0.602961
O192	O	0.138887	0.070754	0.936294
N193	N	-0.528551	-0.649102	0.216503
N194	N	-0.195218	-0.315769	0.549837
N195	N	0.138116	0.017565	0.883170
C196	C	-0.551990	-0.677864	0.187803
C197	C	-0.218656	-0.344531	0.521136
C198	C	0.114677	-0.011198	0.854470
O199	O	-0.527710	-0.702314	0.163392
O200	O	-0.194377	-0.368981	0.496725
O201	O	0.138956	-0.035647	0.830058
C202	C	-0.739662	-0.677926	0.187820
C203	C	-0.406329	-0.344592	0.521153
C204	C	-0.072995	-0.011259	0.854486
C205	C	-0.763142	-0.649177	0.216522
C206	C	-0.429808	-0.315844	0.549856
C207	C	-0.096475	0.017490	0.883189
C208	C	-0.763186	-0.591672	0.273922
C209	C	-0.429853	-0.258339	0.607255
C210	C	-0.096520	0.074995	0.940589
C211	C	-0.810102	-0.591685	0.273923
C212	C	-0.476768	-0.258352	0.607257
C213	C	-0.143435	0.074981	0.940590
C214	C	-0.833537	-0.620445	0.245224
C215	C	-0.500204	-0.287111	0.578558
C216	C	-0.166871	0.046222	0.911891
C217	C	-0.810057	-0.649190	0.216524
C218	C	-0.476724	-0.315857	0.549857
C219	C	-0.143391	0.017476	0.883190
C220	C	-0.763100	-0.706690	0.159122
C221	C	-0.429766	-0.373356	0.492455
C222	C	-0.096433	-0.040023	0.825789
C223	C	-0.810021	-0.706703	0.159130
C224	C	-0.476687	-0.373370	0.492463
C225	C	-0.143354	-0.040037	0.825796
C226	C	-0.833501	-0.677955	0.187832
C227	C	-0.500167	-0.344622	0.521165
C228	C	-0.166834	-0.011288	0.854499
C229	C	-0.880408	-0.677963	0.187826
C230	C	-0.547075	-0.344630	0.521160
C231	C	-0.213742	-0.011296	0.854493
N232	N	-0.903891	-0.649220	0.216530
N233	N	-0.570557	-0.315886	0.549863
N234	N	-0.237224	0.017447	0.883197
C235	C	-0.880455	-0.620460	0.245229
C236	C	-0.547122	-0.287127	0.578563
C237	C	-0.213788	0.046206	0.911896
C238	C	-0.453459	-0.677829	0.187796
C239	C	-0.120126	-0.344496	0.521129
C240	C	0.213208	-0.011163	0.854462
C241	C	-0.406541	-0.677814	0.187791
C242	C	-0.073208	-0.344480	0.521124
C243	C	0.260125	-0.011147	0.854458
C244	C	-0.406588	-0.620308	0.245196
C245	C	-0.073255	-0.286975	0.578529
C246	C	0.260079	0.046358	0.911863
C247	C	-0.453507	-0.620322	0.245198
C248	C	-0.120173	-0.286989	0.578531
C249	C	0.213160	0.046345	0.911865
C250	C	-0.476941	-0.649086	0.216500
C251	C	-0.143608	-0.315753	0.549833
C252	C	0.189725	0.017581	0.883166
C253	C	-0.978981	-0.620490	0.245230
C254	C	-0.645648	-0.287157	0.578563
C255	C	-0.312314	0.046176	0.911897
C256	C	-1.025900	-0.620505	0.245228
C257	C	-0.692567	-0.287172	0.578561
C258	C	-0.359234	0.046162	0.911894
C259	C	-1.025850	-0.678012	0.187824
C260	C	-0.692516	-0.344679	0.521158
C261	C	-0.359183	-0.011345	0.854491
C262	C	-0.978934	-0.677996	0.187825
C263	C	-0.645601	-0.344662	0.521158
C264	C	-0.312267	-0.011329	0.854492
C265	C	-0.955501	-0.649234	0.216531
C266	C	-0.622168	-0.315900	0.549865
C267	C	-0.288834	0.017433	0.883198
O268	O	-0.904690	-0.702399	0.163423
O269	O	-0.571357	-0.369066	0.496756
O270	O	-0.238024	-0.035733	0.830089
O271	O	-0.904743	-0.596021	0.269644
O272	O	-0.571409	-0.262688	0.602977
O273	O	-0.238076	0.070645	0.936311
C274	C	-0.692791	-0.620404	0.245220
C275	C	-0.359458	-0.287071	0.578553
C276	C	-0.026124	0.046262	0.911887
C277	C	-0.669311	-0.649150	0.216519
C278	C	-0.335978	-0.315817	0.549853
C279	C	-0.002644	0.017516	0.883186
C280	C	-0.692746	-0.677909	0.187820
C281	C	-0.359413	-0.344576	0.521154
C282	C	-0.026080	-0.011243	0.854487
C283	C	-0.622393	-0.649134	0.216515
C284	C	-0.289060	-0.315801	0.549848
C285	C	0.044274	0.017532	0.883181
C286	C	-0.598958	-0.620375	0.245214
C287	C	-0.265624	-0.287042	0.578547
C288	C	0.067709	0.046291	0.911880
C289	C	-0.622440	-0.591632	0.273918
C290	C	-0.289107	-0.258298	0.607251
C291	C	0.044227	0.075035	0.940584
C292	C	-0.669355	-0.591645	0.273919
C293	C	-0.336022	-0.258312	0.607252
C294	C	-0.002689	0.075021	0.940586
C295	C	-0.669264	-0.706653	0.159116
C296	C	-0.335931	-0.373319	0.492450
C297	C	-0.002597	-0.039986	0.825783
C298	C	-0.622349	-0.706637	0.159117
C299	C	-0.289015	-0.373303	0.492450
C300	C	0.044318	-0.039970	0.825783
C301	C	-0.598913	-0.677878	0.187816
C302	C	-0.265580	-0.344544	0.521149
C303	C	0.067754	-0.011211	0.854483
C304	C	-0.099270	-0.649224	0.216518
C305	C	0.234063	-0.315891	0.549852
C306	C	0.567396	0.017442	0.883185
C307	C	-0.049336	-0.649264	0.216528
C308	C	0.283997	-0.315931	0.549862
C309	C	0.617331	0.017402	0.883195
C310	C	-0.216445	-0.649142	0.333673
C311	C	0.116889	-0.315809	0.667006
C312	C	0.450222	0.017525	1.000340
C313	C	-0.216443	-0.649147	0.383608
C314	C	0.116890	-0.315814	0.716941
C315	C	0.450224	0.017519	1.050274
C316	C	-0.216451	0.233692	0.216514
C317	C	0.116882	0.567025	0.549847
C318	C	0.450216	0.900358	0.883180
C319	C	-0.216444	0.183757	0.216519
C320	C	0.116889	0.517091	0.549852
C321	C	0.450223	0.850424	0.883185
C322	C	-0.216420	-0.649144	0.099772
C323	C	0.116913	-0.315810	0.433106
C324	C	0.450246	0.017523	0.766439
C325	C	-0.216296	-0.649226	0.049838
C326	C	0.117038	-0.315892	0.383171
C327	C	0.450371	0.017441	0.716505
C328	C	-0.187635	-0.677934	0.693265
C329	C	0.145698	-0.344601	1.026598
C330	C	0.479031	-0.011268	1.359931
C331	C	-0.187597	-0.677956	0.880938
C332	C	0.145736	-0.344623	1.214271
C333	C	0.479069	-0.011290	1.547605
O334	O	-0.163147	-0.702399	0.905214
O335	O	0.170187	-0.369065	1.238548
O336	O	0.503520	-0.035732	1.571881
N337	N	-0.216323	-0.649207	0.904393
N338	N	0.117011	-0.315874	1.237726
N339	N	0.450344	0.017460	1.571059
C340	C	-0.245058	-0.620448	0.880927
C341	C	0.088276	-0.287114	1.214260
C342	C	0.421609	0.046219	1.547593
O343	O	-0.269486	-0.595991	0.905183
O344	O	0.063847	-0.262658	1.238516
O345	O	0.397180	0.070675	1.571849
C346	C	-0.245093	-0.620423	0.693254
C347	C	0.088240	-0.287090	1.026588
C348	C	0.421573	0.046243	1.359921
C349	C	-0.216369	-0.649178	0.669802
C350	C	0.116964	-0.315845	1.003135
C351	C	0.450297	0.017489	1.336468
C352	C	-0.158913	-0.706686	0.669812
C353	C	0.174420	-0.373353	1.003146
C354	C	0.507753	-0.040020	1.336479
C355	C	-0.158925	-0.706682	0.622897
C356	C	0.174408	-0.373349	0.956230
C357	C	0.507742	-0.040015	1.289563
C358	C	-0.187659	-0.677926	0.599434
C359	C	0.145675	-0.344593	0.932767
C360	C	0.479008	-0.011259	1.266100
C361	C	-0.216381	-0.649174	0.622886
C362	C	0.116952	-0.315841	0.956220
C363	C	0.450286	0.017493	1.289553
C364	C	-0.273826	-0.591662	0.669789
C365	C	0.059507	-0.258329	1.003122
C366	C	0.392841	0.075005	1.336456
C367	C	-0.273832	-0.591658	0.622868
C368	C	0.059502	-0.258324	0.956201
C369	C	0.392835	0.075009	1.289535
C370	C	-0.245107	-0.620412	0.599415
C371	C	0.088226	-0.287079	0.932749
C372	C	0.421559	0.046254	1.266082
C373	C	-0.245126	-0.620414	0.552508
C374	C	0.088207	-0.287080	0.885841
C375	C	0.421540	0.046253	1.219175
N376	N	-0.216401	-0.649163	0.529053
N377	N	0.116933	-0.315830	0.862386
N378	N	0.450266	0.017503	1.195720
C379	C	-0.187667	-0.677919	0.552516
C380	C	0.145666	-0.344586	0.885849
C381	C	0.479000	-0.011253	1.219183
C382	C	-0.245038	-0.620463	0.979457
C383	C	0.088296	-0.287130	1.312791
C384	C	0.421629	0.046204	1.646124
C385	C	-0.245029	-0.620469	1.026375
C386	C	0.088304	-0.287136	1.359708
C387	C	0.421637	0.046197	1.693042
C388	C	-0.187568	-0.677978	1.026383
C389	C	0.145765	-0.344645	1.359716
C390	C	0.479099	-0.011311	1.693050
C391	C	-0.187579	-0.677973	0.979464
C392	C	0.145754	-0.344640	1.312798
C393	C	0.479088	-0.011307	1.646131
C394	C	-0.216312	-0.649213	0.956002
C395	C	0.117021	-0.315879	1.289336
C396	C	0.450355	0.017454	1.622669
C397	C	-0.187694	-0.677909	0.453990
C398	C	0.145640	-0.344575	0.787323
C399	C	0.478973	-0.011242	1.120657
C400	C	-0.187709	-0.677903	0.407070
C401	C	0.145624	-0.344570	0.740404
C402	C	0.478957	-0.011237	1.073737
C403	C	-0.245169	-0.620393	0.407066
C404	C	0.088165	-0.287060	0.740400
C405	C	0.421498	0.046273	1.073733
C406	C	-0.245155	-0.620400	0.453982
C407	C	0.088178	-0.287067	0.787315
C408	C	0.421512	0.046266	1.120649
C409	C	-0.216414	-0.649159	0.477443
C410	C	0.116919	-0.315826	0.810776
C411	C	0.450253	0.017507	1.144109
O412	O	-0.269561	-0.595981	0.528203
O413	O	0.063773	-0.262647	0.861536
O414	O	0.397106	0.070686	1.194869
O415	O	-0.163235	-0.702365	0.528252
O416	O	0.170098	-0.369031	0.861585
O417	O	0.503432	-0.035698	1.194918
C418	C	-0.187624	-0.677938	0.740180
C419	C	0.145709	-0.344605	1.073514
C420	C	0.479043	-0.011272	1.406847
C421	C	-0.216346	-0.649186	0.763633
C422	C	0.116987	-0.315853	1.096966
C423	C	0.450321	0.017480	1.430299
C424	C	-0.245080	-0.620430	0.740170
C425	C	0.088253	-0.287097	1.073503
C426	C	0.421587	0.046237	1.406836
C427	C	-0.216338	-0.649193	0.810551
C428	C	0.116996	-0.315859	1.143884
C429	C	0.450329	0.017474	1.477217
C430	C	-0.187604	-0.677949	0.834014
C431	C	0.145729	-0.344616	1.167347
C432	C	0.479063	-0.011282	1.500680
C433	C	-0.158878	-0.706699	0.810559
C434	C	0.174455	-0.373365	1.143892
C435	C	0.507788	-0.040032	1.477225
C436	C	-0.158890	-0.706694	0.763643
C437	C	0.174443	-0.373361	1.096976
C438	C	0.507777	-0.040028	1.430310
C439	C	-0.273805	-0.591681	0.763625
C440	C	0.059528	-0.258347	1.096958
C441	C	0.392861	0.074986	1.430291
C442	C	-0.273792	-0.591687	0.810540
C443	C	0.059542	-0.258354	1.143874
C444	C	0.392875	0.074979	1.477207
C445	C	-0.245058	-0.620444	0.834003
C446	C	0.088275	-0.287110	1.167337
C447	C	0.421609	0.046223	1.500670
H448	H	-0.297170	-0.177101	0.135483
H449	H	0.036163	0.156232	0.468816
H450	H	0.369497	0.489566	0.802150
H451	H	-0.472621	-0.596915	0.268573
H452	H	-0.139288	-0.263582	0.601906
H453	H	0.194046	0.069752	0.935239
H454	H	-0.135500	-0.730109	0.744552
H455	H	0.197834	-0.396776	1.077886
H456	H	0.531167	-0.063443	1.411219
F457	F	-0.157223	0.185205	0.275931
F458	F	0.176111	0.518539	0.609265
F459	F	0.509444	0.851872	0.942598
F460	F	-0.156987	-0.708583	1.051362
F461	F	0.176346	-0.375249	1.384695
F462	F	0.509679	-0.041916	1.718029
H463	H	-0.268495	0.179452	0.164303
H464	H	0.064838	0.512786	0.497637
H465	H	0.398171	0.846119	0.830970
H466	H	-0.135484	-0.730114	0.829670
H467	H	0.197849	-0.396781	1.163004
H468	H	0.531183	-0.063448	1.496337
F469	F	-0.835085	-0.561092	0.304478
F470	F	-0.501752	-0.227759	0.637812
F471	F	-0.168418	0.105574	0.971145
H472	H	-0.297166	-0.262209	0.135477
H473	H	0.036168	0.071124	0.468811
H474	H	0.369501	0.404457	0.802144
F475	F	-0.597365	-0.737236	0.128564
F476	F	-0.264031	-0.403903	0.461897
F477	F	0.069302	-0.070569	0.795231
F478	F	-0.275670	-0.483917	0.157065
F479	F	0.057663	-0.150584	0.490399
F480	F	0.390996	0.182750	0.823732
F481	F	-0.275659	0.088488	0.157089
F482	F	0.057674	0.421821	0.490422
F483	F	0.391007	0.755155	0.823755
H484	H	-0.472535	-0.701253	0.164424
H485	H	-0.139202	-0.367920	0.497758
H486	H	0.194131	-0.034587	0.831091
H487	H	-0.268564	-0.596982	0.387954
H488	H	0.064769	-0.263649	0.721288
H489	H	0.398102	0.069684	1.054621
F490	F	-0.953944	-0.708585	0.157268
F491	F	-0.620611	-0.375251	0.490602
F492	F	-0.287277	-0.041918	0.823935
H493	H	-0.135703	-0.121632	0.297496
H494	H	0.197630	0.211701	0.630829
H495	H	0.530963	0.545035	0.964163
H496	H	-0.297187	-0.568273	0.829631
H497	H	0.036147	-0.234939	1.162965
H498	H	0.369480	0.098394	1.496298
F499	F	-0.304389	-0.561072	0.738660
F500	F	0.028944	-0.227739	1.071993
F501	F	0.362278	0.105595	1.405327
H502	H	-0.297170	-0.121451	0.135496
H503	H	0.036164	0.211882	0.468829
H504	H	0.369497	0.545216	0.802163
H505	H	-0.829099	-0.730128	0.135761
H506	H	-0.495766	-0.396795	0.469094
H507	H	-0.162432	-0.063462	0.802427
F508	F	-0.128533	-0.030656	0.304693
F509	F	0.204800	0.302678	0.638026
F510	F	0.538134	0.636011	0.971360
H511	H	-0.164405	-0.478170	0.268700
H512	H	0.168928	-0.144836	0.602033
H513	H	0.502261	0.188497	0.935366
H514	H	-0.743989	-0.730100	0.135750
H515	H	-0.410656	-0.396766	0.469083
H516	H	-0.077322	-0.063433	0.802417
F517	F	-0.275680	-0.387062	0.157076
F518	F	0.057654	-0.053728	0.490410
F519	F	0.390987	0.279605	0.823743
H520	H	-0.297225	-0.568232	0.603767
H521	H	0.036108	-0.234899	0.937101
H522	H	0.369441	0.098435	1.270434
F523	F	-0.304341	-0.030473	0.128302
F524	F	0.028993	0.302861	0.461635
F525	F	0.362326	0.636194	0.794969
F526	F	-0.275729	-0.589799	0.478943
F527	F	0.057604	-0.256466	0.812276
F528	F	0.390938	0.076867	1.145609
H529	H	-0.164394	-0.393061	0.268700
H530	H	0.168940	-0.059728	0.602034
H531	H	0.502273	0.273606	0.935367
H532	H	-0.387427	-0.701218	0.164414
H533	H	-0.054094	-0.367885	0.497747
H534	H	0.279240	-0.034552	0.831080
H535	H	-1.044939	-0.701425	0.164457
H536	H	-0.711606	-0.368092	0.497790
H537	H	-0.378273	-0.034759	0.831123
F538	F	-0.157137	-0.708510	0.382113
F539	F	0.176197	-0.375177	0.715447
F540	F	0.509530	-0.041844	1.048780
H541	H	-0.135709	-0.262378	0.297491
H542	H	0.197625	0.070955	0.630824
H543	H	0.530958	0.404288	0.964157
F544	F	-0.694339	-0.561048	0.304470
F545	F	-0.361005	-0.227715	0.637803
F546	F	-0.027672	0.105619	0.971137
F547	F	-0.128532	-0.171417	0.304691
F548	F	0.204801	0.161916	0.638025
F549	F	0.538135	0.495249	0.971358
F550	F	-1.050887	-0.589906	0.275778
F551	F	-0.717554	-0.256572	0.609111
F552	F	-0.384220	0.076761	0.942445
H553	H	-0.164395	0.094225	0.268734
H554	H	0.168939	0.427558	0.602068
H555	H	0.502272	0.760892	0.935401
F556	F	-0.954048	-0.589878	0.275782
F557	F	-0.620715	-0.256545	0.609116
F558	F	-0.287381	0.076788	0.942449
F559	F	-0.738251	-0.561061	0.304471
F560	F	-0.404918	-0.227727	0.637804
F561	F	-0.071585	0.105606	0.971138
F562	F	-0.597490	-0.561023	0.304460
F563	F	-0.264157	-0.227689	0.637793
F564	F	0.069177	0.105644	0.971127
H565	H	-0.387499	-0.596891	0.268563
H566	H	-0.054166	-0.263557	0.601897
H567	H	0.279168	0.069776	0.935230
H568	H	-0.688340	-0.730073	0.135746
H569	H	-0.355007	-0.396740	0.469079
H570	H	-0.021674	-0.063406	0.802413
H571	H	-0.164289	-0.701326	0.473086
H572	H	0.169045	-0.367992	0.806420
H573	H	0.502378	-0.034659	1.139753
H574	H	-0.135534	-0.730096	0.603806
H575	H	0.197800	-0.396763	0.937139
H576	H	0.531133	-0.063430	1.270473
F577	F	-0.128332	-0.737299	0.694776
F578	F	0.205001	-0.403966	1.028110
F579	F	0.538335	-0.070632	1.361443
H580	H	-0.164188	-0.701387	0.960373
H581	H	0.169145	-0.368054	1.293706
H582	H	0.502478	-0.034721	1.627039
H583	H	-0.268424	-0.597059	1.045466
H584	H	0.064909	-0.263726	1.378799
H585	H	0.398242	0.069607	1.712133
F586	F	-0.275622	-0.589850	0.954493
F587	F	0.057712	-0.256517	1.287826
F588	F	0.391045	0.076817	1.621159
H589	H	-0.297216	-0.568247	0.688876
H590	H	0.036117	-0.234913	1.022209
H591	H	0.369450	0.098420	1.355543
