data_functionalizedCrystal
_audit_creation_method	'MofGen! by Chris Wilmer'
_symmetry_space_group_name_H-M	'P1'
_symmetry_Int_Tables_number	1
_symmetry_cell_setting	triclinic
loop_
_symmetry_equiv_pos_as_xyz
  x,y,z
_cell_length_a	12.759401
_cell_length_b	16.959454
_cell_length_c	12.759393
_cell_angle_alpha	89.970360
_cell_angle_beta	89.980324
_cell_angle_gamma	90.020501
loop_
_atom_site_label
_atom_site_type_symbol
_atom_site_fract_x
_atom_site_fract_y
_atom_site_fract_z
Zn1	Zn	1.606227	-0.314634	-0.593991
Zn2	Zn	1.606102	-0.446833	-0.418314
Zn3	Zn	1.430526	-0.314674	-0.418330
Zn4	Zn	1.430501	-0.446776	-0.593955
O5	O	1.518339	-0.380729	-0.506147
O6	O	1.753231	-0.332178	-0.570695
O7	O	1.582769	-0.429343	-0.271295
O8	O	1.453896	-0.204058	-0.441654
O9	O	1.753139	-0.429305	-0.441626
O10	O	1.582983	-0.204029	-0.570711
O11	O	1.453774	-0.332246	-0.271307
O12	O	1.283502	-0.332190	-0.441619
O13	O	1.453854	-0.429206	-0.740981
O14	O	1.283484	-0.429244	-0.570649
O15	O	1.582959	-0.332122	-0.741007
O16	O	1.582745	-0.557437	-0.441591
O17	O	1.453732	-0.557394	-0.570634
C18	C	1.245372	-0.380716	-0.506133
C19	C	1.128595	-0.380729	-0.506151
C20	C	1.073782	-0.330247	-0.573461
C21	C	0.964058	-0.330255	-0.573468
C22	C	0.963970	-0.431234	-0.438852
C23	C	1.073692	-0.431221	-0.438841
C24	C	0.814150	-0.237086	-0.611235
C25	C	0.759333	-0.186611	-0.678561
C26	C	0.794993	-0.174564	-0.781099
C27	C	0.885468	-0.213003	-0.816332
C28	C	0.940279	-0.263485	-0.749011
C29	C	0.904621	-0.275517	-0.646458
C30	C	1.223602	-0.524391	-0.401085
C31	C	1.278415	-0.574877	-0.333768
C32	C	1.242757	-0.586932	-0.231228
C33	C	1.152279	-0.548506	-0.196000
C34	C	1.097465	-0.498021	-0.263316
C35	C	1.133131	-0.485964	-0.365855
C36	C	1.518251	-0.586096	-0.506129
C37	C	1.518309	-0.673952	-0.506157
C38	C	1.451259	-1.045436	-0.573333
C39	C	1.585711	-1.045420	-0.439069
C40	C	1.585674	-0.962874	-0.439059
C41	C	1.518428	-0.921605	-0.506186
C42	C	1.451218	-0.962882	-0.573323
C43	C	1.652875	-0.921591	-0.371916
C44	C	1.652841	-0.839040	-0.371903
C45	C	1.585599	-0.797769	-0.439036
C46	C	1.518387	-0.839052	-0.506176
C47	C	1.451141	-0.797783	-0.573303
C48	C	1.383934	-0.839063	-0.640450
C49	C	1.383977	-0.921612	-0.640456
C50	C	1.585556	-0.715221	-0.439030
C51	C	1.451100	-0.715229	-0.573294
C52	C	1.792372	-0.380744	-0.506163
C53	C	1.909149	-0.380750	-0.506169
C54	C	1.518418	-0.380653	-0.780181
C55	C	1.518451	-0.380621	-0.896958
C56	C	1.518456	-0.174561	-0.506188
C57	C	1.518506	-0.086704	-0.506206
C58	C	1.585681	-0.330062	-0.951835
C59	C	1.585699	-0.330027	-1.061559
C60	C	1.451254	-0.431119	-1.061519
C61	C	1.451231	-0.431149	-0.951797
C62	C	1.623323	-0.236770	-1.211535
C63	C	1.690569	-0.186217	-1.266416
C64	C	1.793083	-0.174098	-1.230822
C65	C	1.828372	-0.212543	-1.140349
C66	C	1.761131	-0.263101	-1.085473
C67	C	1.658602	-0.275205	-1.121065
C68	C	1.413619	-0.524408	-0.801819
C69	C	1.346382	-0.574971	-0.746942
C70	C	1.243866	-0.587098	-0.782533
C71	C	1.208581	-0.548667	-0.873010
C72	C	1.275818	-0.498104	-0.927888
C73	C	1.378333	-0.485975	-0.892288
C74	C	1.518321	-0.380748	-0.233180
C75	C	1.518491	-0.380558	-0.116404
H76	H	1.287377	-0.628064	-0.176432
H77	H	1.252650	-0.514573	-0.484579
C78	C	1.799941	-0.305385	-0.985954
N79	N	1.829173	-0.337228	-0.910989
H80	H	1.911853	-0.202676	-1.111381
C81	C	1.726763	-0.793639	-0.298035
N82	N	1.782440	-0.759442	-0.242396
C83	C	0.734695	-0.119034	-0.855153
N84	N	0.689278	-0.077203	-0.910923
C85	C	1.377314	-0.486695	-1.121852
N86	N	1.321621	-0.528556	-1.167294
C87	C	1.377934	-0.617158	-0.372532
N88	N	1.452889	-0.649006	-0.401729
H89	H	1.125106	-0.558544	-0.901993
H90	H	1.396343	-0.681633	-0.627961
C91	C	0.774921	-0.250327	-0.498433
N92	N	0.745368	-0.260301	-0.413470
H93	H	1.847836	-0.132936	-1.275514
H94	H	0.919255	-0.472344	-0.384051
H95	H	1.329176	-0.805453	-0.695100
C96	C	1.039802	-0.305762	-0.787759
N97	N	1.114769	-0.337599	-0.816944
H98	H	1.329259	-0.955230	-0.695122
H99	H	1.707616	-0.955198	-0.317258
C100	C	1.659480	-0.669816	-0.365175
N101	N	1.715167	-0.635618	-0.309547
H102	H	1.375124	-0.606271	-0.673277
H103	H	1.247080	-0.466812	-1.001559
C104	C	1.169909	-0.642724	-0.722164
N105	N	1.114203	-0.684618	-0.676696
H106	H	1.396544	-1.079050	-0.628004
H107	H	1.661827	-0.154915	-1.340080
C108	C	1.526395	-0.511072	-0.762661
N109	N	1.611339	-0.501032	-0.733168
C110	C	1.659615	-0.274473	-0.891516
N111	N	1.715301	-0.232599	-0.846087
H112	H	1.118480	-0.289130	-0.628266
C113	C	1.510546	-0.250088	-1.250689
N114	N	1.425602	-0.260120	-1.280185
H115	H	1.640454	-1.079026	-0.384411
H116	H	1.123241	-0.558326	-0.112505
C117	C	0.659821	-0.144319	-0.639796
N118	N	0.584871	-0.112464	-0.610602
C119	C	0.997938	-0.455748	-0.224558
N120	N	0.922976	-0.423907	-0.195365
C121	C	0.924699	-0.199737	-0.929128
N122	N	0.954257	-0.189735	-1.014083
