data_functionalizedCrystal
_audit_creation_method	'MofGen! by Chris Wilmer'
_symmetry_space_group_name_H-M	'P1'
_symmetry_Int_Tables_number	1
_symmetry_cell_setting	triclinic
loop_
_symmetry_equiv_pos_as_xyz
  x,y,z
_cell_length_a	16.959455
_cell_length_b	17.640280
_cell_length_c	16.959447
_cell_angle_alpha	78.773258
_cell_angle_beta	89.985678
_cell_angle_gamma	78.797529
loop_
_atom_site_label
_atom_site_type_symbol
_atom_site_fract_x
_atom_site_fract_y
_atom_site_fract_z
Zn1	Zn	1.272058	-0.314718	-0.383358
Zn2	Zn	1.298725	-0.446906	-0.224487
Zn3	Zn	1.139892	-0.314743	-0.251191
Zn4	Zn	1.166584	-0.446847	-0.356638
O5	O	1.219315	-0.380803	-0.303918
O6	O	1.386210	-0.332268	-0.362291
O7	O	1.277645	-0.429409	-0.117412
O8	O	1.135093	-0.204133	-0.291081
O9	O	1.405802	-0.429385	-0.245569
O10	O	1.232195	-0.204115	-0.388184
O11	O	1.160951	-0.332310	-0.137030
O12	O	1.032819	-0.332252	-0.265171
O13	O	1.180586	-0.429284	-0.470800
O14	O	1.052429	-0.429308	-0.342643
O15	O	1.258077	-0.332210	-0.490432
O16	O	1.303527	-0.557504	-0.219659
O17	O	1.206444	-0.557461	-0.316750
C18	C	1.013943	-0.380777	-0.303906
C19	C	0.926088	-0.380785	-0.303915
C20	C	0.544372	-0.330225	-0.263693
C21	C	0.564874	-0.431447	-0.344176
C22	C	0.647417	-0.431435	-0.344174
C23	C	0.678442	-0.380819	-0.303929
C24	C	0.626924	-0.330214	-0.263687
C25	C	0.698943	-0.482045	-0.384408
C26	C	0.781492	-0.482037	-0.384406
C27	C	0.812518	-0.431416	-0.344166
C28	C	0.760993	-0.380808	-0.303923
C29	C	0.792018	-0.330191	-0.263679
C30	C	0.740495	-0.279579	-0.223440
C31	C	0.657949	-0.279593	-0.223447
C32	C	0.895063	-0.431402	-0.344159
C33	C	0.874570	-0.330180	-0.263673
C34	C	1.260797	-0.586162	-0.262425
C35	C	1.278616	-0.674015	-0.244700
C36	C	1.084273	-0.962977	-0.438860
C37	C	1.101018	-1.045529	-0.422179
C38	C	1.202174	-1.045509	-0.321181
C39	C	1.185440	-0.962956	-0.337856
C40	C	1.126488	-0.921696	-0.396695
C41	C	1.227655	-0.921675	-0.295692
C42	C	1.210920	-0.839129	-0.312362
C43	C	1.151969	-0.797864	-0.371197
C44	C	1.109753	-0.839151	-0.413366
C45	C	1.286603	-0.962935	-0.236849
C46	C	1.328818	-0.921654	-0.194684
C47	C	1.312087	-0.839107	-0.211358
C48	C	1.253136	-0.797842	-0.270193
C49	C	1.354303	-0.797820	-0.169190
C50	C	1.337568	-0.715274	-0.185860
C51	C	1.236401	-0.715296	-0.286864
C52	C	1.425488	-0.380830	-0.303932
C53	C	1.513347	-0.380841	-0.303937
C54	C	1.219334	-0.380738	-0.510100
C55	C	1.219343	-0.380710	-0.597962
C56	C	1.177692	-0.174643	-0.345592
C57	C	1.159955	-0.086790	-0.363350
C58	C	1.179074	-0.431169	-0.959236
C59	C	1.259767	-0.330085	-0.979674
C60	C	1.259749	-0.330101	-0.897124
C61	C	1.219394	-0.380653	-0.845627
C62	C	1.179057	-0.431189	-0.876679
C63	C	1.300092	-0.279573	-0.866065
C64	C	1.300077	-0.279588	-0.783511
C65	C	1.259717	-0.330137	-0.732013
C66	C	1.219377	-0.380673	-0.763069
C67	C	1.179023	-0.431225	-0.711572
C68	C	1.138678	-0.481759	-0.742628
C69	C	1.138697	-0.481737	-0.825180
C70	C	1.259698	-0.330158	-0.649460
C71	C	1.179006	-0.431245	-0.629014
C72	C	1.219329	-0.380811	-0.098551
C73	C	1.219429	-0.380617	-0.010734
H74	H	0.615992	-0.238388	-0.190686
H75	H	1.105825	-0.522921	-0.700687
O76	O	1.378671	-0.675291	-0.144852
C77	C	1.480739	-0.683973	-0.042871
C78	C	1.434268	-0.729352	-0.089272
H79	H	1.525687	-0.727662	0.002088
H80	H	1.514256	-0.645297	-0.086969
H81	H	1.436628	-0.645355	-0.009343
H82	H	1.478323	-0.768012	-0.122802
H83	H	1.400738	-0.767978	-0.045135
O84	O	1.303011	-1.043121	-0.220655
C85	C	1.402778	-1.161507	-0.217157
C86	C	1.384309	-1.070700	-0.235507
H87	H	1.468502	-1.183833	-0.229174
H88	H	1.391026	-1.184003	-0.151385
H89	H	1.362452	-1.183914	-0.257384
H90	H	1.424621	-1.048226	-0.195333
H91	H	1.396036	-1.048257	-0.301297
O92	O	1.339352	-0.230604	-0.753284
C93	C	1.443839	-0.219968	-0.662170
C94	C	1.399454	-0.275540	-0.696353
H95	H	1.492429	-0.256275	-0.616123
H96	H	1.472743	-0.183839	-0.713113
H97	H	1.399155	-0.178636	-0.631928
H98	H	1.444086	-0.316919	-0.726587
H99	H	1.370535	-0.311613	-0.645379
O100	O	0.831483	-0.531110	-0.423629
C101	C	0.864533	-0.569665	-0.550229
C102	C	0.807872	-0.514032	-0.505909
H103	H	0.845454	-0.555888	-0.616757
H104	H	0.928870	-0.560961	-0.543388
H105	H	0.861190	-0.633380	-0.523332
H106	H	0.811144	-0.450296	-0.532776
H107	H	0.743559	-0.522805	-0.512747
H108	H	1.146224	-0.472309	-0.984526
H109	H	1.292548	-0.289017	-0.624177
O110	O	0.494422	-0.281102	-0.224489
C111	C	0.461299	-0.242600	-0.097878
C112	C	0.517938	-0.298268	-0.142180
H113	H	0.480279	-0.256470	-0.031322
H114	H	0.464670	-0.178870	-0.124674
H115	H	0.396971	-0.251284	-0.104839
H116	H	0.582290	-0.289654	-0.135236
H117	H	0.514496	-0.361978	-0.115375
O118	O	1.135706	-0.717678	-0.387249
C119	C	1.091393	-0.599270	-0.335384
C120	C	1.109800	-0.690078	-0.317090
H121	H	1.070428	-0.576928	-0.278677
H122	H	1.148032	-0.576762	-0.356338
H123	H	1.042035	-0.576894	-0.384708
H124	H	1.159133	-0.712522	-0.267753
H125	H	1.053122	-0.712533	-0.296183
O126	O	1.179200	-0.675293	-0.344121
C127	C	1.135664	-0.649942	-0.483668
C128	C	1.200484	-0.695311	-0.418902
H129	H	1.152857	-0.666097	-0.544146
H130	H	1.075221	-0.666230	-0.466518
H131	H	1.130951	-0.583859	-0.488292
H132	H	1.205270	-0.761404	-0.414245
H133	H	1.260894	-0.678957	-0.436078
H134	H	0.539609	-0.472661	-0.376936
H135	H	0.899822	-0.288956	-0.230907
H136	H	0.937010	-0.472612	-0.376918
O137	O	0.770747	-0.230523	-0.184285
C138	C	0.861706	-0.219764	-0.079723
C139	C	0.827521	-0.275404	-0.124009
H140	H	0.907602	-0.256029	-0.030969
H141	H	0.892083	-0.178495	-0.124374
H142	H	0.810691	-0.183572	-0.051004
H143	H	0.878490	-0.311648	-0.152730
H144	H	0.797123	-0.316621	-0.079323
H145	H	0.673677	-0.523260	-0.417166
H146	H	1.061754	-0.805556	-0.461285
O147	O	1.026967	-0.923014	-0.496028
C148	C	0.928447	-0.931736	-0.594514
C149	C	0.993302	-0.977093	-0.529778
H150	H	0.901222	-0.975439	-0.621831
H151	H	0.879261	-0.893154	-0.566027
H152	H	0.956890	-0.893026	-0.643652
H153	H	0.964932	-1.015845	-0.480620
H154	H	1.042480	-1.015625	-0.558324
O155	O	1.139698	-0.480242	-0.578982
C156	C	1.035140	-0.490897	-0.483592
C157	C	1.079575	-0.435317	-0.540234
H158	H	0.986532	-0.454597	-0.452236
H159	H	1.006251	-0.526992	-0.519941
H160	H	1.079788	-0.532259	-0.436620
H161	H	1.034978	-0.393906	-0.587217
H162	H	1.108477	-0.399277	-0.503831
O163	O	1.060136	-1.085719	-0.463164
C164	C	1.068310	-1.178836	-0.551095
C165	C	1.114709	-1.133383	-0.504711
H166	H	1.112410	-1.217371	-0.584711
H167	H	1.034875	-1.217583	-0.506983
H168	H	1.023281	-1.135152	-0.595977
H169	H	1.159778	-1.177010	-0.459828
H170	H	1.148090	-1.094625	-0.548871
H171	H	1.250170	-1.079113	-0.273272
H172	H	1.376814	-0.955259	-0.146775
H173	H	1.402296	-0.831426	-0.121277
H174	H	1.105854	-0.522881	-0.850473
H175	H	1.292627	-0.288932	-1.021606
H176	H	1.332953	-0.238421	-0.907999
