data_functionalizedCrystal
_audit_creation_method	'MofGen! by Chris Wilmer'
_symmetry_space_group_name_H-M	'P1'
_symmetry_Int_Tables_number	1
_symmetry_cell_setting	triclinic
loop_
_symmetry_equiv_pos_as_xyz
  x,y,z
_cell_length_a	18.215405
_cell_length_b	12.759401
_cell_length_c	12.759393
_cell_angle_alpha	90.020566
_cell_angle_beta	89.963505
_cell_angle_gamma	89.976906
loop_
_atom_site_label
_atom_site_type_symbol
_atom_site_fract_x
_atom_site_fract_y
_atom_site_fract_z
Zn1	Zn	-0.292984	-1.606192	-0.593966
Zn2	Zn	-0.416068	-1.606052	-0.418268
Zn3	Zn	-0.293016	-1.430491	-0.418302
Zn4	Zn	-0.416009	-1.430451	-0.593906
O5	O	-0.354519	-1.518296	-0.506110
O6	O	-0.309322	-1.753194	-0.570670
O7	O	-0.399783	-1.582721	-0.271251
O8	O	-0.190027	-1.453873	-0.441644
O9	O	-0.399752	-1.753091	-0.441585
O10	O	-0.190004	-1.582960	-0.570703
O11	O	-0.309377	-1.453737	-0.271276
O12	O	-0.309320	-1.283464	-0.441586
O13	O	-0.399652	-1.453806	-0.740935
O14	O	-0.399683	-1.283436	-0.570601
O15	O	-0.309266	-1.582922	-0.740979
O16	O	-0.519044	-1.582683	-0.441527
O17	O	-0.519001	-1.453670	-0.570568
C18	C	-0.354499	-1.245329	-0.506091
C19	C	-0.354508	-1.128552	-0.506108
C20	C	-0.307505	-1.073745	-0.573425
C21	C	-0.307510	-0.964021	-0.573430
C22	C	-0.401527	-0.963922	-0.438798
C23	C	-0.401518	-1.073644	-0.438789
C24	C	-0.545726	-1.518186	-0.506060
C25	C	-0.627524	-1.518234	-0.506073
C26	C	-0.815716	-1.585569	-0.439005
C27	C	-0.892575	-1.585616	-0.439031
C28	C	-0.892570	-1.451158	-0.573291
C29	C	-0.815713	-1.451117	-0.573270
C30	C	-0.777288	-1.518321	-0.506121
C31	C	-0.931004	-1.518409	-0.506168
C32	C	-1.014338	-1.518460	-0.506196
C33	C	-0.693949	-1.518272	-0.506094
C34	C	-0.162566	-1.518436	-0.506184
C35	C	-0.080767	-1.518496	-0.506215
C36	C	-0.354449	-1.518375	-0.780144
C37	C	-0.354418	-1.518409	-0.896921
C38	C	-0.354533	-0.792330	-0.506126
C39	C	-0.354522	-0.909106	-0.506123
C40	C	-0.307347	-1.585644	-0.951807
C41	C	-0.307315	-1.585662	-1.061531
C42	C	-0.401433	-1.451206	-1.061473
C43	C	-0.401461	-1.451183	-0.951750
C44	C	-0.354537	-1.518279	-0.233143
C45	C	-0.354359	-1.518449	-0.116367
H46	H	-0.269234	-0.919401	-0.628245
H47	H	-0.923860	-1.640377	-0.384380
O48	O	-0.452213	-1.132764	-0.366170
H49	H	-0.489687	-1.182770	-0.413084
H50	H	-0.268983	-1.640410	-1.106215
H51	H	-0.784432	-1.640292	-0.384331
H52	H	-0.439801	-0.919202	-0.383990
O53	O	-0.934013	-1.378656	-0.645694
H54	H	-0.993913	-1.389968	-0.634422
H55	H	-0.784422	-1.396356	-0.627929
O56	O	-0.256606	-1.658139	-0.892664
H57	H	-0.223864	-1.704888	-0.949268
H58	H	-0.439735	-1.396476	-1.106128
O59	O	-0.452211	-1.378632	-0.892539
H60	H	-0.484918	-1.331889	-0.949097
H61	H	-0.269225	-1.118448	-0.628238
