data_functionalizedCrystal
_audit_creation_method	'MofGen! by Chris Wilmer'
_symmetry_space_group_name_H-M	'P1'
_symmetry_Int_Tables_number	1
_symmetry_cell_setting	triclinic
loop_
_symmetry_equiv_pos_as_xyz
  x,y,z
_cell_length_a	10.686220
_cell_length_b	16.120484
_cell_length_c	16.120297
_cell_angle_alpha	84.385569
_cell_angle_beta	82.988280
_cell_angle_gamma	97.070967
loop_
_atom_site_label
_atom_site_type_symbol
_atom_site_fract_x
_atom_site_fract_y
_atom_site_fract_z
Zn1	Zn	1.879493	-0.256272	0.389220
Zn2	Zn	2.129493	-0.006272	0.639220
Zn3	Zn	2.379493	0.243728	0.889220
Zn4	Zn	2.629493	0.493728	1.139220
Zn5	Zn	1.879333	-0.388970	0.256539
Zn6	Zn	2.129333	-0.138970	0.506539
Zn7	Zn	2.379333	0.111030	0.756539
Zn8	Zn	2.629333	0.361030	1.006539
Zn9	Zn	1.678100	-0.259974	0.260207
Zn10	Zn	1.928100	-0.009974	0.510207
Zn11	Zn	2.178100	0.240026	0.760207
Zn12	Zn	2.428100	0.490026	1.010207
Zn13	Zn	1.655321	-0.407986	0.408208
Zn14	Zn	1.905321	-0.157986	0.658208
Zn15	Zn	2.155321	0.092014	0.908208
Zn16	Zn	2.405321	0.342014	1.158208
O17	O	1.773062	-0.328300	0.328544
O18	O	2.023062	-0.078300	0.578544
O19	O	2.273062	0.171700	0.828544
O20	O	2.523062	0.421700	1.078544
O21	O	2.057505	-0.264366	0.362138
O22	O	2.307505	-0.014366	0.612138
O23	O	2.557505	0.235634	0.862138
O24	O	2.807505	0.485634	1.112138
O25	O	1.862105	-0.365449	0.139559
O26	O	2.112105	-0.115449	0.389559
O27	O	2.362105	0.134551	0.639559
O28	O	2.612105	0.384551	0.889559
O29	O	1.714416	-0.142004	0.270909
O30	O	1.964416	0.107996	0.520909
O31	O	2.214416	0.357996	0.770909
O32	O	2.464416	0.607996	1.020909
O33	O	2.057388	-0.361859	0.264658
O34	O	2.307388	-0.111859	0.514658
O35	O	2.557388	0.138141	0.764658
O36	O	2.807388	0.388141	1.014658
O37	O	1.862378	-0.139284	0.365694
O38	O	2.112378	0.110716	0.615694
O39	O	2.362378	0.360716	0.865694
O40	O	2.612378	0.610716	1.115694
O41	O	1.714260	-0.270676	0.142253
O42	O	1.964260	-0.020676	0.392253
O43	O	2.214260	0.229324	0.642253
O44	O	2.464260	0.479324	0.892253
O45	O	1.497046	-0.289116	0.289321
O46	O	1.747046	-0.039116	0.539321
O47	O	1.997046	0.210884	0.789321
O48	O	2.247046	0.460884	1.039321
O49	O	1.675592	-0.394270	0.523156
O50	O	1.925592	-0.144270	0.773156
O51	O	2.175592	0.105730	1.023156
O52	O	2.425592	0.355730	1.273156
O53	O	1.480310	-0.397860	0.398057
O54	O	1.730310	-0.147860	0.648057
O55	O	1.980310	0.102140	0.898057
O56	O	2.230310	0.352140	1.148057
O57	O	1.840291	-0.282806	0.509206
O58	O	2.090291	-0.032806	0.759206
O59	O	2.340291	0.217194	1.009206
O60	O	2.590291	0.467194	1.259206
O61	O	1.840017	-0.508971	0.283070
O62	O	2.090017	-0.258971	0.533070
O63	O	2.340017	-0.008971	0.783070
O64	O	2.590017	0.241029	1.033070
O65	O	1.675437	-0.522942	0.394501
O66	O	1.925437	-0.272942	0.644501
O67	O	2.175437	-0.022942	0.894501
O68	O	2.425437	0.227058	1.144501
C69	C	1.442516	-0.345954	0.346148
C70	C	1.692516	-0.095954	0.596148
C71	C	1.942516	0.154046	0.846148
C72	C	2.192516	0.404046	1.096148
C73	C	1.301103	-0.353528	0.353700
C74	C	1.551103	-0.103528	0.603700
C75	C	1.801103	0.146472	0.853700
C76	C	2.051103	0.396472	1.103700
C77	C	1.755271	-0.546417	0.340464
C78	C	2.005271	-0.296417	0.590464
C79	C	2.255271	-0.046417	0.840464
C80	C	2.505271	0.203583	1.090464
C81	C	1.747774	-0.639723	0.345586
C82	C	1.997774	-0.389723	0.595586
C83	C	2.247774	-0.139723	0.845586
C84	C	2.497774	0.110277	1.095586
C85	C	1.734092	-0.810554	0.354954
C86	C	1.984092	-0.560554	0.604954
C87	C	2.234092	-0.310554	0.854954
C88	C	2.484092	-0.060554	1.104954
C89	C	1.812259	-0.845195	0.302135
C90	C	2.062259	-0.595195	0.552135
C91	C	2.312259	-0.345195	0.802135
C92	C	2.562259	-0.095195	1.052135
C93	C	1.804646	-0.940251	0.307347
C94	C	2.054646	-0.690251	0.557347
C95	C	2.304646	-0.440251	0.807347
C96	C	2.554646	-0.190251	1.057347
C97	C	1.741703	-0.715490	0.349743
C98	C	1.991703	-0.465490	0.599743
C99	C	2.241703	-0.215490	0.849743
C100	C	2.491703	0.034510	1.099743
C101	C	2.104899	-0.310579	0.310871
C102	C	2.354899	-0.060579	0.560871
C103	C	2.604899	0.189421	0.810871
C104	C	2.854899	0.439421	1.060871
C105	C	2.246308	-0.303026	0.303340
C106	C	2.496308	-0.053026	0.553340
C107	C	2.746308	0.196974	0.803340
C108	C	2.996308	0.446974	1.053340
C109	C	1.755418	-0.340246	0.547490
C110	C	2.005418	-0.090246	0.797490
C111	C	2.255418	0.159754	1.047490
C112	C	2.505418	0.409754	1.297490
C113	C	1.747900	-0.345337	0.640792
C114	C	1.997900	-0.095337	0.890792
C115	C	2.247900	0.154663	1.140792
C116	C	2.497900	0.404663	1.390792
C117	C	1.790956	-0.109332	0.316593
C118	C	2.040956	0.140668	0.566593
C119	C	2.290956	0.390668	0.816593
C120	C	2.540956	0.640668	1.066593
C121	C	1.798581	-0.016020	0.311500
C122	C	2.048581	0.233980	0.561500
C123	C	2.298581	0.483980	0.811500
C124	C	2.548581	0.733980	1.061500
C125	C	1.790715	-0.316336	0.110441
C126	C	2.040715	-0.066336	0.360441
C127	C	2.290715	0.183664	0.610441
C128	C	2.540715	0.433664	0.860441
C129	C	1.798500	-0.310996	0.017114
C130	C	2.048500	-0.060996	0.267114
C131	C	2.298500	0.189004	0.517114
C132	C	2.548500	0.439004	0.767114
C133	C	1.734127	-0.354615	0.811617
C134	C	1.984127	-0.104615	1.061617
C135	C	2.234127	0.145385	1.311617
C136	C	2.484127	0.395385	1.561617
C137	C	1.812268	-0.301721	0.846295
C138	C	2.062268	-0.051721	1.096295
C139	C	2.312268	0.198279	1.346295
C140	C	2.562268	0.448279	1.596295
C141	C	1.804605	-0.306883	0.941347
C142	C	2.054605	-0.056883	1.191347
C143	C	2.304605	0.193117	1.441347
C144	C	2.554605	0.443117	1.691347
C145	C	1.741789	-0.349454	0.716556
C146	C	1.991789	-0.099454	0.966556
C147	C	2.241789	0.150546	1.216556
C148	C	2.491789	0.400546	1.466556
H149	H	1.307581	-0.253997	0.254447
H150	H	1.557581	-0.003997	0.504447
H151	H	1.807581	0.246003	0.754447
H152	H	2.057581	0.496003	1.004447
H153	H	1.239823	-0.402566	0.402591
H154	H	1.489823	-0.152566	0.652591
H155	H	1.739823	0.097434	0.902591
H156	H	1.989823	0.347434	1.152591
H157	H	1.661481	-0.403773	0.853313
H158	H	1.911481	-0.153773	1.103313
H159	H	2.161481	0.096227	1.353313
H160	H	2.411481	0.346227	1.603313
H161	H	1.884895	-0.803461	0.253000
H162	H	2.134895	-0.553461	0.503000
H163	H	2.384895	-0.303461	0.753000
H164	H	2.634895	-0.053461	1.003000
C165	C	1.635956	-0.866932	0.421320
C166	C	1.885956	-0.616932	0.671320
C167	C	2.135956	-0.366932	0.921320
C168	C	2.385956	-0.116932	1.171320
N169	N	1.562035	-0.909405	0.471303
N170	N	1.812035	-0.659405	0.721303
N171	N	2.062035	-0.409405	0.971303
N172	N	2.312035	-0.159405	1.221303
H173	H	1.884920	-0.252559	0.804596
H174	H	2.134920	-0.002559	1.054596
H175	H	2.384920	0.247441	1.304596
H176	H	2.634920	0.497441	1.554596
