data_functionalizedCrystal
_audit_creation_method	'MofGen! by Chris Wilmer'
_symmetry_space_group_name_H-M	'P1'
_symmetry_Int_Tables_number	1
_symmetry_cell_setting	triclinic
loop_
_symmetry_equiv_pos_as_xyz
  x,y,z
_cell_length_a	10.723024
_cell_length_b	26.809956
_cell_length_c	10.723024
_cell_angle_alpha	89.995270
_cell_angle_beta	95.532131
_cell_angle_gamma	90.023596
loop_
_atom_site_label
_atom_site_type_symbol
_atom_site_fract_x
_atom_site_fract_y
_atom_site_fract_z
O1	O	1.657224	0.041475	-0.175026
O2	O	1.294071	0.041477	-0.191779
O3	O	1.484024	0.041474	-0.001826
O4	O	1.467271	0.041478	-0.364979
O5	O	1.483937	-0.041485	-0.001823
O6	O	1.293984	-0.041483	-0.191776
O7	O	1.657137	-0.041484	-0.175022
Zn8	Zn	1.475547	-0.054655	-0.183399
Zn9	Zn	1.475661	0.054647	-0.183403
O10	O	1.467184	-0.041482	-0.364975
C11	C	1.247528	-0.000003	-0.190558
C12	C	1.108974	-0.000002	-0.186911
N13	N	1.475477	-0.129251	-0.183395
C14	C	1.033991	-0.000001	-0.293198
C15	C	0.890788	-0.000000	-0.289431
C16	C	1.391464	-0.526133	-0.267473
C17	C	1.391399	-0.317255	-0.267472
O18	O	1.319810	-0.290254	-0.338943
N19	N	1.475521	-0.291130	-0.183391
C20	C	1.559660	-0.317226	-0.099299
O21	O	1.631201	-0.290212	-0.027775
C22	C	1.559718	-0.526103	-0.099295
C23	C	1.475599	-0.552226	-0.183389
C24	C	1.307351	-0.552256	-0.351560
C25	C	1.307373	-0.604473	-0.351563
C26	C	1.391507	-0.630566	-0.267480
C27	C	1.475621	-0.604443	-0.183393
C28	C	1.643850	-0.552199	-0.015198
C29	C	1.643855	-0.604421	-0.015202
C30	C	1.559736	-0.630545	-0.099296
C31	C	1.559777	-0.682752	-0.099314
N32	N	1.475655	-0.708878	-0.183395
C33	C	1.391520	-0.682785	-0.267478
C34	C	1.559625	-0.207563	-0.099309
C35	C	1.559612	-0.155344	-0.099312
C36	C	1.391349	-0.155377	-0.267483
C37	C	1.391369	-0.207597	-0.267486
C38	C	1.475503	-0.233689	-0.183390
C39	C	1.391573	-0.792443	-0.267480
C40	C	1.391606	-0.844664	-0.267480
C41	C	1.559863	-0.844626	-0.099305
C42	C	1.559836	-0.792410	-0.099309
C43	C	1.475680	-0.766319	-0.183401
O44	O	1.631319	-0.709786	-0.027871
O45	O	1.319971	-0.709808	-0.338973
C46	C	1.391442	-0.473917	-0.267469
C47	C	1.475555	-0.447794	-0.183382
C48	C	1.559690	-0.473887	-0.099299
C49	C	1.475543	-0.395575	-0.183384
C50	C	1.391408	-0.369482	-0.267467
C51	C	1.307286	-0.395608	-0.351548
C52	C	1.307307	-0.447824	-0.351552
C53	C	1.643812	-0.447761	-0.015218
C54	C	1.643785	-0.395544	-0.015222
C55	C	1.559650	-0.369451	-0.099305
C56	C	1.703680	-0.000004	-0.176243
C57	C	1.842234	-0.000001	-0.179891
C58	C	1.482762	-0.000005	0.044675
C59	C	1.479114	-0.000003	0.183229
N60	N	1.475740	0.129243	-0.183397
C61	C	1.468447	-0.000001	-0.411477
C62	C	1.472094	0.000000	-0.550031
C63	C	1.585401	-0.000003	0.258212
C64	C	1.581634	-0.000001	0.401415
H65	H	0.826355	0.000003	-0.380421
O66	O	1.734577	-0.524031	0.075509
H67	H	1.681519	-0.500253	0.136634
O68	O	1.702170	-0.000006	0.486753
H69	H	1.757355	0.033803	0.468497
H70	H	0.906659	0.000001	-0.088896
O71	O	1.354876	-0.000007	0.238614
H72	H	1.347993	0.033804	0.297281
H73	H	1.067152	0.000010	-0.093125
H74	H	1.322872	-0.228863	-0.335962
H75	H	1.075814	-0.000003	-0.386984
O76	O	1.216537	-0.367452	-0.442225
H77	H	1.233263	-0.377455	-0.539663
O78	O	1.300901	-0.872841	-0.358212
H79	H	1.242398	-0.845920	-0.416679
H80	H	1.323044	-0.771206	-0.335955
H81	H	1.679187	-0.000007	0.216390
O82	O	1.216683	-0.632646	-0.442304
H83	H	1.158193	-0.605722	-0.500773
O84	O	1.734582	-0.475901	0.075456
H85	H	1.793077	-0.448957	0.133904
O86	O	1.734613	-0.632565	0.075491
H87	H	1.793105	-0.605623	0.133951
H88	H	1.381099	-0.000004	0.385544
H89	H	1.322845	-0.134123	-0.335949
O90	O	1.216606	-0.524117	-0.442264
H91	H	1.158136	-0.551063	-0.500732
H92	H	1.628123	-0.134078	-0.030847
O93	O	1.650397	-0.235703	-0.008623
H94	H	1.708896	-0.208758	0.049820
O95	O	1.650539	-0.764220	-0.008608
H96	H	1.747971	-0.774210	-0.025366
O97	O	1.650603	-0.872774	-0.008612
H98	H	1.636467	-0.913473	-0.022740
O99	O	1.216606	-0.475997	-0.442280
H100	H	1.158111	-0.449073	-0.500744
O101	O	1.734514	-0.367370	0.075491
H102	H	1.793006	-0.394293	0.133964
