data_functionalizedCrystal
_audit_creation_method	'MofGen! by Chris Wilmer'
_symmetry_space_group_name_H-M	'P1'
_symmetry_Int_Tables_number	1
_symmetry_cell_setting	triclinic
loop_
_symmetry_equiv_pos_as_xyz
  x,y,z
_cell_length_a	15.625950
_cell_length_b	15.995350
_cell_length_c	14.750522
_cell_angle_alpha	104.197131
_cell_angle_beta	86.556530
_cell_angle_gamma	83.886509
loop_
_atom_site_label
_atom_site_type_symbol
_atom_site_fract_x
_atom_site_fract_y
_atom_site_fract_z
O1	O	1.127705	0.045810	-0.312606
O2	O	0.883820	0.076078	-0.227735
O3	O	1.012429	-0.061407	-0.272491
O4	O	0.999096	0.183295	-0.267850
O5	O	0.979973	-0.091585	-0.420855
O6	O	0.851364	0.045900	-0.376099
O7	O	1.095248	0.015632	-0.460969
Zn8	Zn	0.968153	0.025975	-0.442090
Zn9	Zn	1.010916	0.065735	-0.246615
O10	O	0.966640	0.153117	-0.416213
C11	C	0.836384	0.062606	-0.291056
C12	C	0.743392	0.067413	-0.258696
C13	C	0.349024	0.001042	-0.556519
C14	C	0.261651	0.005585	-0.526069
C15	C	0.297077	0.038481	-0.364345
C16	C	0.384454	0.033946	-0.394781
C17	C	0.410420	0.015225	-0.490869
C18	C	0.445851	0.048129	-0.329131
C19	C	0.533221	0.043589	-0.359565
C20	C	0.559195	0.024867	-0.455649
C21	C	0.497791	0.010686	-0.521303
C22	C	0.419883	0.066843	-0.233043
C23	C	0.481280	0.081026	-0.167393
C24	C	0.568651	0.076493	-0.197827
C25	C	0.594625	0.057770	-0.293911
C26	C	0.630055	0.090674	-0.132173
C27	C	0.717426	0.086134	-0.162607
C28	C	0.681995	0.053230	-0.324346
C29	C	0.995650	-0.107652	-0.346480
C30	C	0.993999	-0.200487	-0.345899
C31	C	0.988063	-0.537822	-0.343837
C32	C	0.896543	-0.483959	-0.311630
C33	C	0.898123	-0.387451	-0.312540
C34	C	0.991007	-0.370466	-0.344860
C35	C	1.017650	-0.431914	-0.445302
C36	C	1.015334	-0.528405	-0.444572
C37	C	1.054135	-0.494576	-0.276514
C38	C	1.054358	-0.397402	-0.275387
C39	C	0.992675	-0.275885	-0.345442
C40	C	0.986396	-0.632405	-0.343262
C41	C	1.142685	0.029105	-0.397646
C42	C	1.235679	0.024298	-0.430001
C43	C	0.983419	0.199362	-0.342223
C44	C	0.985072	0.292198	-0.342797
N45	N	0.938975	-0.001162	-0.575498
C46	C	1.121522	0.168681	-0.990799
C47	C	1.101095	0.149651	-1.084195
C48	C	0.999505	0.055089	-1.048828
C49	C	1.019919	0.074115	-0.955427
C50	C	1.080929	0.130910	-0.926421
C51	C	0.979327	0.036343	-0.891048
C52	C	0.999744	0.055364	-0.797656
C53	C	1.060753	0.112155	-0.768642
C54	C	1.101346	0.149931	-0.833028
C55	C	0.918322	-0.020457	-0.920057
C56	C	0.877729	-0.058228	-0.855679
C57	C	0.898141	-0.039203	-0.762283
C58	C	0.959151	0.017589	-0.733269
C59	C	0.857548	-0.076978	-0.697897
C60	C	0.877965	-0.057958	-0.604505
C61	C	0.979567	0.036609	-0.639877
N62	N	1.040101	0.092865	-0.113208
H63	H	0.275923	0.053720	-0.286109
Cl64	Cl	1.178054	0.221324	-0.796559
H65	H	0.901706	-0.035947	-0.996106
Cl66	Cl	0.943078	-0.573019	-0.524649
Cl67	Cl	0.669034	0.019152	-0.493913
H68	H	0.828057	-0.104474	-0.879310
Cl69	Cl	0.822377	-0.359694	-0.387254
H70	H	1.081740	-0.566105	-0.471815
Cl71	Cl	0.184469	-0.012262	-0.608613
H72	H	0.518931	-0.004546	-0.599547
H73	H	1.171193	0.214940	-0.967179
H74	H	0.807880	-0.123228	-0.721531
Cl75	Cl	0.826951	-0.105460	-0.523572
Cl76	Cl	1.160666	-0.379336	-0.303871
H77	H	0.348739	0.070543	-0.208267
Cl78	Cl	0.448631	0.104532	-0.046602
Cl79	Cl	0.819770	-0.529565	-0.384997
Cl80	Cl	1.086424	0.136065	-0.651234
H81	H	1.085201	-0.423169	-0.472197
Cl82	Cl	1.056276	0.108002	-0.603408
Cl83	Cl	1.152138	0.197137	-1.165130
Cl84	Cl	0.947911	-0.404536	-0.525790
H85	H	0.608901	0.105907	-0.053938
H86	H	0.767416	0.097687	-0.109148
H87	H	0.949833	0.008843	-1.072460
H88	H	1.121791	-0.530911	-0.299442
H89	H	0.703136	0.037999	-0.402590
H90	H	0.370165	-0.014189	-0.634763
Cl91	Cl	0.863806	-0.320685	-0.199696
Cl92	Cl	0.860537	-0.489561	-0.198157
H93	H	1.035039	-0.355110	-0.201218
Cl94	Cl	1.029581	-0.502896	-0.161280
