data_functionalizedCrystal
_audit_creation_method	'MofGen! by Chris Wilmer'
_symmetry_space_group_name_H-M	'P1'
_symmetry_Int_Tables_number	1
_symmetry_cell_setting	triclinic
loop_
_symmetry_equiv_pos_as_xyz
  x,y,z
_cell_length_a	15.625110
_cell_length_b	15.625429
_cell_length_c	14.749905
_cell_angle_alpha	121.744654
_cell_angle_beta	86.550046
_cell_angle_gamma	89.778684
loop_
_atom_site_label
_atom_site_type_symbol
_atom_site_fract_x
_atom_site_fract_y
_atom_site_fract_z
O1	O	1.131585	0.052908	-0.295760
O2	O	0.890210	0.088022	-0.199490
O3	O	1.007370	-0.071310	-0.295753
O4	O	1.014425	0.212239	-0.199498
O5	O	0.972391	-0.106304	-0.455428
O6	O	0.855231	0.053027	-0.359166
O7	O	1.096606	0.017914	-0.455436
Zn8	Zn	0.970365	0.029914	-0.432653
Zn9	Zn	1.016451	0.076021	-0.222273
O10	O	0.979446	0.177245	-0.359173
C11	C	0.841644	0.072403	-0.267853
C12	C	0.749048	0.077990	-0.233666
C13	C	0.637602	0.104938	-0.098448
C14	C	0.724608	0.099687	-0.130582
C15	C	0.686484	0.061541	-0.304656
C16	C	0.599472	0.066794	-0.272534
C17	C	0.575039	0.088492	-0.169430
C18	C	0.536909	0.050348	-0.343516
C19	C	0.449906	0.055596	-0.311399
C20	C	0.425465	0.077290	-0.208300
C21	C	0.488036	0.093740	-0.137313
C22	C	0.561344	0.028643	-0.446623
C23	C	0.498781	0.012197	-0.517605
C24	C	0.411776	0.017452	-0.485485
C25	C	0.387335	0.039146	-0.382387
C26	C	0.349205	0.001002	-0.556473
C27	C	0.262202	0.006249	-0.524356
C28	C	0.300332	0.044394	-0.350269
C29	C	0.986733	-0.124909	-0.387061
C30	C	0.977347	-0.232480	-0.421235
C31	C	1.041779	-0.490898	-0.098460
C32	C	1.032949	-0.591983	-0.130600
C33	C	0.994818	-0.630118	-0.304667
C34	C	1.003649	-0.529035	-0.272544
C35	C	1.027129	-0.459432	-0.169438
C36	C	0.988998	-0.497569	-0.343522
C37	C	0.997825	-0.396494	-0.311398
C38	C	1.021301	-0.326884	-0.208297
C39	C	1.035955	-0.358357	-0.137315
C40	C	0.965513	-0.567172	-0.446624
C41	C	0.950862	-0.535706	-0.517603
C42	C	0.959694	-0.434631	-0.485482
C43	C	0.983171	-0.365021	-0.382380
C44	C	0.945041	-0.403158	-0.556464
C45	C	0.953867	-0.302083	-0.524340
C46	C	0.991997	-0.263946	-0.350257
C47	C	1.145171	0.033532	-0.387071
C48	C	1.237769	0.027948	-0.421251
C49	C	1.000082	0.230844	-0.267863
C50	C	1.009470	0.338417	-0.233682
N51	N	0.938918	-0.001553	-0.576234
C52	C	0.851175	-0.089380	-0.727037
C53	C	0.873183	-0.067342	-0.626515
C54	C	0.982667	0.042228	-0.626460
C55	C	0.960664	0.020203	-0.726982
C56	C	0.894918	-0.045603	-0.777263
C57	C	1.004408	0.063980	-0.777207
C58	C	0.982410	0.041953	-0.877722
C59	C	0.916668	-0.023852	-0.928012
C60	C	0.872920	-0.067630	-0.877778
C61	C	1.070158	0.129780	-0.726927
C62	C	1.113901	0.173557	-0.777153
C63	C	1.091899	0.151536	-0.877667
C64	C	1.026158	0.085730	-0.927956
C65	C	1.135647	0.195313	-0.927901
C66	C	1.113649	0.173286	-1.028416
C67	C	1.004160	0.063703	-1.028472
N68	N	1.047903	0.107480	-0.078697
H69	H	0.706390	0.043870	-0.388605
H70	H	0.468142	0.111421	-0.053351
N71	N	0.525135	-0.011194	-0.628802
H72	H	0.504086	-0.079271	-0.683235
H73	H	0.589745	-0.011968	-0.638282
N74	N	0.893026	-0.048033	-1.036601
H75	H	0.830926	-0.027077	-1.032101
H76	H	0.901693	-0.122868	-1.089406
N77	N	0.802009	-0.138605	-0.932028
H78	H	0.755155	-0.102220	-0.944757
H79	H	0.777695	-0.162981	-0.884921
H80	H	0.369113	-0.016675	-0.640424
N81	N	1.053571	0.113209	-0.572227
H82	H	1.108969	0.085373	-0.618685
H83	H	1.060798	0.120500	-0.500928
N84	N	1.184806	0.244538	-0.722919
H85	H	1.240204	0.216702	-0.769377
H86	H	1.192032	0.251829	-0.651621
H87	H	1.044873	-0.617594	-0.072790
H88	H	1.011124	-0.207272	-0.266301
H89	H	1.189184	0.248885	-0.886951
H90	H	1.028478	-0.244581	-0.182140
N91	N	0.331627	0.082951	-0.173655
H92	H	0.325644	0.099190	-0.097571
H93	H	0.305672	0.016055	-0.222127
N94	N	0.780250	-0.160339	-0.781270
H95	H	0.755868	-0.184726	-0.734198
H96	H	0.804025	-0.219830	-0.851956
H97	H	1.055082	-0.301683	-0.053359
H98	H	0.837555	-0.102994	-0.585624
H99	H	0.975697	-0.686801	-0.388615
H100	H	0.931741	-0.592389	-0.601550
H101	H	0.958318	-0.649471	-0.472772
N102	N	0.933241	-0.007261	-1.082717
H103	H	0.877843	0.020585	-1.036261
H104	H	0.948493	-0.075326	-1.094218
N105	N	1.067117	-0.415819	0.012741
H106	H	1.075065	-0.451088	0.052834
H107	H	1.020578	-0.360997	0.051828
H108	H	0.617708	0.122619	-0.014486
H109	H	0.925915	-0.459842	-0.640409
H110	H	1.088067	0.147712	-0.645082
H111	H	0.941919	-0.276460	-0.582131
N112	N	0.792091	0.117423	-0.054019
H113	H	0.763406	0.131964	0.016167
H114	H	0.826591	0.176733	-0.041587
H115	H	1.149270	0.208935	-1.069310
H116	H	0.211260	-0.007124	-0.582150
H117	H	0.280438	0.062074	-0.266307
N118	N	0.655184	0.022980	-0.481264
H119	H	0.681196	0.089861	-0.432868
H120	H	0.661100	0.006694	-0.557365
