data_functionalizedCrystal
_audit_creation_method	'MofGen! by Chris Wilmer'
_symmetry_space_group_name_H-M	'P1'
_symmetry_Int_Tables_number	1
_symmetry_cell_setting	triclinic
loop_
_symmetry_equiv_pos_as_xyz
  x,y,z
_cell_length_a	16.992694
_cell_length_b	10.723024
_cell_length_c	16.053802
_cell_angle_alpha	92.591250
_cell_angle_beta	87.249047
_cell_angle_gamma	87.568046
loop_
_atom_site_label
_atom_site_type_symbol
_atom_site_fract_x
_atom_site_fract_y
_atom_site_fract_z
O1	O	1.045092	0.259813	-0.069321
O2	O	1.545092	0.759813	0.430679
O3	O	0.816792	0.256907	-0.069346
O4	O	1.316792	0.756907	0.430654
O5	O	0.936208	0.077238	-0.069330
O6	O	1.436208	0.577238	0.430670
O7	O	0.925676	0.439483	-0.069337
O8	O	1.425676	0.939483	0.430663
O9	O	0.929634	0.087084	0.069528
O10	O	1.429634	0.587084	0.569528
O11	O	0.810219	0.266753	0.069512
O12	O	1.310219	0.766753	0.569512
O13	O	1.038518	0.269659	0.069537
O14	O	1.538518	0.769659	0.569537
Zn15	Zn	0.923325	0.269769	0.091572
Zn16	Zn	1.423325	0.769769	0.591572
Zn17	Zn	0.931985	0.256797	-0.091380
Zn18	Zn	1.431985	0.756797	0.408620
O19	O	0.919103	0.449329	0.069521
O20	O	1.419103	0.949329	0.569521
C21	C	0.784273	0.258094	0.000080
C22	C	1.284273	0.758094	0.500080
C23	C	0.697169	0.246945	0.000071
C24	C	1.197169	0.746945	0.500071
C25	C	0.647507	0.354505	0.000069
C26	C	1.147507	0.854505	0.500069
C27	C	0.565664	0.344024	0.000081
C28	C	1.065664	0.844024	0.500081
C29	C	0.533484	0.225982	0.000088
C30	C	1.033484	0.725982	0.500088
C31	C	0.583152	0.118414	0.000092
C32	C	1.083152	0.618414	0.500092
C33	C	0.664994	0.128896	0.000087
C34	C	1.164994	0.628896	0.500087
C35	C	0.289651	0.182535	0.000112
C36	C	0.789651	0.682535	0.500112
C37	C	0.207803	0.172060	0.000115
C38	C	0.707803	0.672060	0.500115
C39	C	0.190321	0.397672	0.000105
C40	C	0.690321	0.897672	0.500105
C41	C	0.272165	0.408144	0.000094
C42	C	0.772165	0.908144	0.500094
C43	C	0.321826	0.300577	0.000103
C44	C	0.821826	0.800577	0.500103
N45	N	0.449827	0.215265	0.000098
N46	N	0.949827	0.715265	0.500098
N47	N	0.405481	0.311294	0.000099
N48	N	0.905481	0.811294	0.500099
C49	C	0.932155	0.035595	0.000098
C50	C	1.432155	0.535595	0.500098
C51	C	0.929862	-0.103157	0.000095
C52	C	1.429862	0.396843	0.500095
C53	C	0.996681	-0.172386	0.000101
C54	C	1.496681	0.327614	0.500101
C55	C	0.994312	-0.315793	0.000098
C56	C	1.494312	0.184207	0.500098
C57	C	1.071038	0.268472	0.000109
C58	C	1.571038	0.768472	0.500109
C59	C	1.158141	0.279620	0.000113
C60	C	1.658141	0.779620	0.500113
C61	C	0.923156	0.490971	0.000091
C62	C	1.423156	0.990971	0.500091
C63	C	0.925449	0.629723	0.000089
C64	C	1.425449	1.129723	0.500089
N65	N	0.917420	0.278623	0.216431
N66	N	1.417420	0.778623	0.716431
N67	N	0.937896	0.247934	-0.216239
N68	N	1.437896	0.747934	0.283761
C69	C	0.968250	0.202204	0.260132
C70	C	1.468250	0.702204	0.760132
C71	C	0.964127	0.208409	0.347538
C72	C	1.464127	0.708409	0.847538
C73	C	0.909177	0.291041	0.391242
C74	C	1.409177	0.791041	0.891242
C75	C	0.858341	0.367463	0.347535
C76	C	1.358341	0.867463	0.847535
C77	C	0.862461	0.361250	0.260130
C78	C	1.362461	0.861250	0.760130
C79	C	0.891180	0.318143	0.652649
C80	C	1.391180	0.818143	1.152649
C81	C	0.887066	0.324353	0.740060
C82	C	1.387066	0.824353	1.240060
C83	C	0.992852	0.165297	0.740057
C84	C	1.492852	0.665297	1.240057
C85	C	0.996970	0.159097	0.652650
C86	C	1.496970	0.659097	1.152650
C87	C	0.946131	0.235514	0.608951
C88	C	1.446131	0.735514	1.108951
N89	N	0.904963	0.297389	0.480585
N90	N	1.404963	0.797389	0.980585
N91	N	0.950342	0.229159	0.519610
N92	N	1.450342	0.729159	1.019610
H93	H	0.181606	0.075931	0.000120
H94	H	0.681606	0.575931	0.500120
Cl95	Cl	0.838828	-0.175555	0.000077
Cl96	Cl	1.338828	0.324445	0.500077
H97	H	0.330076	0.094945	0.000119
H98	H	0.830076	0.594945	0.500119
Cl99	Cl	0.127886	0.532891	0.000098
Cl100	Cl	0.627886	1.032891	0.500098
Cl101	Cl	0.837124	-0.278417	0.000088
Cl102	Cl	1.337124	0.221583	0.500088
Cl103	Cl	1.037339	0.098325	0.205199
Cl104	Cl	1.537339	0.598325	0.705199
H105	H	1.005517	0.146182	0.383119
H106	H	1.505517	0.646182	0.883119
H107	H	1.041715	0.091812	0.617068
H108	H	1.541715	0.591812	1.117068
H109	H	1.051514	-0.375300	0.000107
H110	H	1.551514	0.124700	0.500107
H111	H	0.556944	0.022301	0.000110
H112	H	1.056944	0.522301	0.500110
Cl113	Cl	0.312613	0.556546	0.000080
Cl114	Cl	0.812613	1.056546	0.500080
H115	H	0.705428	0.041309	0.000087
H116	H	1.205428	0.541309	0.500087
H117	H	0.842316	0.391646	0.775640
H118	H	1.342316	0.891646	1.275640
H119	H	1.034241	0.103081	0.775645
H120	H	1.534241	0.603081	1.275645
Cl121	Cl	0.789256	0.471338	0.402475
Cl122	Cl	1.289256	0.971338	0.902475
H123	H	0.673701	0.450628	0.000063
H124	H	1.173701	0.950628	0.500063
Cl125	Cl	0.503235	0.479250	0.000074
Cl126	Cl	1.003235	0.979250	0.500074
H127	H	1.055640	-0.125486	0.000113
H128	H	1.555640	0.374514	0.500113
H129	H	0.849787	0.380368	0.617076
H130	H	1.349787	0.880368	1.117076
Cl131	Cl	0.798554	0.457319	0.205193
Cl132	Cl	1.298554	0.957319	0.705193
