data_functionalizedCrystal
_audit_creation_method	'MofGen! by Chris Wilmer'
_symmetry_space_group_name_H-M	'P1'
_symmetry_Int_Tables_number	1
_symmetry_cell_setting	triclinic
loop_
_symmetry_equiv_pos_as_xyz
  x,y,z
_cell_length_a	12.759399
_cell_length_b	14.908780
_cell_length_c	14.908308
_cell_angle_alpha	89.787311
_cell_angle_beta	93.272288
_cell_angle_gamma	93.305032
loop_
_atom_site_label
_atom_site_type_symbol
_atom_site_fract_x
_atom_site_fract_y
_atom_site_fract_z
Zn1	Zn	0.367517	-1.345338	0.587898
Zn2	Zn	0.532543	-1.353929	0.437552
Zn3	Zn	0.366375	-1.203651	0.428865
Zn4	Zn	0.552655	-1.194957	0.579172
O5	O	0.454772	-1.274469	0.508372
O6	O	0.381469	-1.472304	0.575242
O7	O	0.501605	-1.341229	0.310576
O8	O	0.219503	-1.222489	0.449977
O9	O	0.502713	-1.478617	0.464784
O10	O	0.220343	-1.326586	0.566818
O11	O	0.379522	-1.230820	0.304194
O12	O	0.399024	-1.076671	0.441516
O13	O	0.536991	-1.207671	0.706153
O14	O	0.535883	-1.070283	0.551946
O15	O	0.400971	-1.318155	0.712564
O16	O	0.682234	-1.332798	0.456322
O17	O	0.697010	-1.216002	0.560369
C18	C	0.469513	-1.040851	0.494842
C19	C	0.475846	-0.940907	0.489075
C20	C	0.361692	-0.746517	0.593434
C21	C	0.367639	-0.652611	0.588019
C22	C	0.493681	-0.659187	0.472825
C23	C	0.487734	-0.753093	0.478240
C24	C	0.421738	-0.796755	0.538548
C25	C	0.415797	-0.890663	0.543967
C26	C	0.541833	-0.897237	0.428769
C27	C	0.547780	-0.803331	0.423354
C28	C	0.727743	-1.274412	0.508363
C29	C	0.844518	-1.274469	0.508394
C30	C	0.891652	-1.335344	0.454286
C31	C	1.001375	-1.335396	0.454322
C32	C	1.016821	-1.213689	0.562575
C33	C	0.907100	-1.213642	0.562543
C34	C	0.829070	-1.396170	0.400136
C35	C	0.876203	-1.457050	0.346024
C36	C	0.985926	-1.457102	0.346060
C37	C	1.048515	-1.396274	0.400209
C38	C	1.180737	-1.274545	0.508414
C39	C	1.063962	-1.274567	0.508462
C40	C	0.471352	-1.260985	0.742895
C41	C	0.478417	-1.255238	0.842835
C42	C	0.439965	-0.508999	0.521948
C43	C	0.433632	-0.608942	0.527717
C44	C	0.438178	-1.287952	0.274763
C45	C	0.430806	-1.293872	0.174834
C46	C	0.350031	-1.359485	1.037311
C47	C	0.356666	-1.354089	1.131213
C48	C	0.498315	-1.239046	1.124545
C49	C	0.491680	-1.244442	1.030642
C50	C	0.417537	-1.304665	0.987029
C51	C	0.410908	-1.310065	0.893124
C52	C	0.552552	-1.195018	0.886458
C53	C	0.559186	-1.189621	0.980360
H54	H	0.318740	-0.611711	0.632711
O55	O	0.564844	-0.612090	0.407772
H56	H	0.558886	-0.538351	0.413229
H57	H	1.067790	-1.164166	0.606660
H58	H	0.558678	-1.190015	1.160072
O59	O	0.625367	-1.135880	0.832227
H60	H	0.608296	-1.149743	0.759602
H61	H	0.601508	-0.767769	0.374250
O62	O	0.856250	-1.147979	0.620892
H63	H	0.918198	-1.105680	0.658539
H64	H	0.825237	-1.506579	0.301943
O65	O	0.270076	-1.424447	0.990268
H66	H	0.276812	-1.418996	0.916524
H67	H	0.590736	-0.938151	0.384084
O68	O	0.344615	-0.937754	0.609010
H69	H	0.350572	-1.011494	0.603563
H70	H	0.301693	-1.398728	1.172150
H71	H	0.739727	-1.396132	0.400098
O72	O	0.639149	-1.124665	1.027401
H73	H	0.632425	-1.130123	1.101146
O74	O	0.330947	-1.375017	0.846076
H75	H	0.250736	-1.358574	0.863205
H76	H	0.307960	-0.782067	0.642543
H77	H	1.137859	-1.396328	0.400241
O78	O	1.036769	-1.522759	0.287701
H79	H	0.974815	-1.565040	0.250039
