data_functionalizedCrystal
_audit_creation_method	'MofGen! by Chris Wilmer'
_symmetry_space_group_name_H-M	'P1'
_symmetry_Int_Tables_number	1
_symmetry_cell_setting	triclinic
loop_
_symmetry_equiv_pos_as_xyz
  x,y,z
_cell_length_a	21.395362
_cell_length_b	16.959453
_cell_length_c	21.395355
_cell_angle_alpha	89.982675
_cell_angle_beta	89.956060
_cell_angle_gamma	90.035866
loop_
_atom_site_label
_atom_site_type_symbol
_atom_site_fract_x
_atom_site_fract_y
_atom_site_fract_z
Zn1	Zn	0.957906	-0.314438	-0.354591
Zn2	Zn	0.957828	-0.446599	-0.249816
Zn3	Zn	0.853121	-0.314475	-0.249792
Zn4	Zn	0.853110	-0.446615	-0.354520
O5	O	0.905491	-0.380532	-0.302180
O6	O	1.045574	-0.331947	-0.340731
O7	O	0.943911	-0.429081	-0.162134
O8	O	0.867058	-0.203859	-0.263714
O9	O	1.045516	-0.429045	-0.263754
O10	O	0.944043	-0.203832	-0.340709
O11	O	0.866983	-0.332010	-0.162117
O12	O	0.765442	-0.332026	-0.263645
O13	O	0.867039	-0.429073	-0.442208
O14	O	0.765433	-0.429109	-0.340588
O15	O	0.944033	-0.331963	-0.442259
O16	O	0.943900	-0.557212	-0.263685
O17	O	0.866964	-0.557224	-0.340611
C18	C	0.742704	-0.380574	-0.302107
C19	C	0.673062	-0.380610	-0.302091
C20	C	0.640361	-0.431228	-0.342095
C21	C	0.574926	-0.431209	-0.342123
C22	C	0.542194	-0.380580	-0.302135
C23	C	0.574903	-0.329952	-0.262128
C24	C	0.640337	-0.329967	-0.262106
C25	C	0.438468	-0.374212	-0.245730
C26	C	0.373035	-0.374203	-0.245751
C27	C	0.340373	-0.380528	-0.302205
C28	C	0.373152	-0.386881	-0.358638
C29	C	0.438586	-0.386896	-0.358616
C30	C	0.471242	-0.380558	-0.302155
C31	C	0.236720	-0.431128	-0.342243
C32	C	0.171283	-0.431103	-0.342272
C33	C	0.171262	-0.329850	-0.262271
C34	C	0.236697	-0.329871	-0.262248
C35	C	0.269422	-0.380514	-0.302233
C36	C	0.905439	-0.585898	-0.302157
C37	C	0.905474	-0.673755	-0.302168
C38	C	0.945629	-1.045158	-0.342347
C39	C	0.865529	-1.045303	-0.262106
C40	C	0.865506	-0.962757	-0.262091
C41	C	0.905544	-0.921408	-0.302206
C42	C	0.945605	-0.962604	-0.342335
C43	C	0.825440	-0.921554	-0.221968
C44	C	0.825415	-0.839003	-0.221952
C45	C	0.865457	-0.797652	-0.262064
C46	C	0.905521	-0.838854	-0.302194
C47	C	0.945559	-0.797505	-0.342309
C48	C	0.985626	-0.838705	-0.382436
C49	C	0.985647	-0.921253	-0.382447
C50	C	0.865436	-0.715104	-0.262053
C51	C	0.945536	-0.714951	-0.342297
C52	C	1.068915	-0.380490	-0.302253
C53	C	1.138556	-0.380473	-0.302284
C54	C	0.905543	-0.380516	-0.465603
C55	C	0.905566	-0.380509	-0.535244
C56	C	0.905561	-0.174363	-0.302216
C57	C	0.905590	-0.086507	-0.302232
C58	C	0.945654	-0.329942	-0.567985
C59	C	0.945653	-0.329908	-0.633421
C60	C	0.905570	-0.380455	-0.666113
C61	C	0.865474	-0.431026	-0.633364
C62	C	0.865471	-0.431053	-0.567929
C63	C	0.900605	-0.451628	-0.769778
C64	C	0.900612	-0.451602	-0.835211
C65	C	0.905574	-0.380372	-0.867934
C66	C	0.910543	-0.309164	-0.835215
C67	C	0.910541	-0.309191	-0.769781
C68	C	0.905568	-0.380431	-0.737065
C69	C	0.945664	-0.329763	-0.971627
C70	C	0.945659	-0.329728	-1.037064
C71	C	0.865483	-0.430853	-1.037005
C72	C	0.865485	-0.430881	-0.971570
C73	C	0.905579	-0.380337	-0.938885
C74	C	0.905476	-0.380491	-0.139392
C75	C	0.905575	-0.380275	-0.069751
H76	H	0.263366	-0.472361	-0.374804
H77	H	0.263322	-0.288656	-0.229669
C78	C	0.989702	-1.090469	-0.386483
H79	H	1.013546	-1.054017	-0.410367
H80	H	0.965736	-1.122689	-0.413757
H81	H	1.017026	-1.122646	-0.362548
H82	H	0.346352	-0.369035	-0.199799
H83	H	0.667002	-0.472465	-0.374655
C84	C	0.474393	-0.367254	-0.183629
H85	H	0.518058	-0.368165	-0.191698
H86	H	0.463613	-0.410201	-0.157217
H87	H	0.463679	-0.319089	-0.163667
H88	H	0.896570	-0.509584	-0.861845
H89	H	0.914585	-0.251161	-0.861857
C90	C	0.915996	-0.230869	-0.733793
H91	H	0.918947	-0.188439	-0.762649
H92	H	0.952311	-0.231894	-0.708291
H93	H	0.880082	-0.223949	-0.708244
C94	C	1.029658	-0.793219	-0.426570
H95	H	1.053519	-0.829574	-0.450475
H96	H	1.056958	-0.760986	-0.402639
H97	H	1.005652	-0.761041	-0.453834
C98	C	0.781407	-0.967038	-0.177842
H99	H	0.787167	-1.022101	-0.183591
H100	H	0.739298	-0.953564	-0.186952
H101	H	0.790600	-0.953519	-0.135753
H102	H	0.144659	-0.472321	-0.374852
C103	C	0.474644	-0.393879	-0.420685
H104	H	0.518291	-0.392989	-0.412584
H105	H	0.463980	-0.350930	-0.447108
H106	H	0.463913	-0.442040	-0.440653
H107	H	0.548249	-0.288728	-0.229571
H108	H	0.792791	-0.805463	-0.189278
H109	H	0.978303	-0.288545	-1.063721
H110	H	0.832844	-0.472063	-0.944912
H111	H	0.832811	-0.681563	-0.229385
H112	H	1.018268	-0.954806	-0.415117
H113	H	0.144612	-0.288624	-0.229715
H114	H	0.666962	-0.288746	-0.229529
C115	C	0.989751	-0.274339	-0.532035
H116	H	1.013623	-0.244214	-0.560910
H117	H	1.017038	-0.304578	-0.506528
H118	H	0.965790	-0.239911	-0.506494
C119	C	0.989573	-0.669473	-0.386429
H120	H	1.013432	-0.705835	-0.410332
H121	H	1.016875	-0.637244	-0.362498
H122	H	0.965573	-0.637292	-0.413697
C123	C	0.989754	-0.274155	-0.935671
H124	H	1.013622	-0.244023	-0.964545
H125	H	1.017046	-0.304389	-0.910164
H126	H	0.965789	-0.239733	-0.910129
H127	H	0.832840	-0.472002	-1.063622
H128	H	0.978297	-0.288725	-0.660084
C129	C	0.895009	-0.529972	-0.733789
H130	H	0.892019	-0.572371	-0.762644
H131	H	0.858657	-0.528851	-0.708287
H132	H	0.930870	-0.537026	-0.708239
H133	H	0.832836	-0.472179	-0.659986
H134	H	0.832823	-0.472230	-0.541272
C135	C	0.538947	-0.486845	-0.386166
H136	H	0.567809	-0.516996	-0.409985
H137	H	0.513489	-0.456611	-0.413504
H138	H	0.513355	-0.521250	-0.362186
H139	H	0.346560	-0.392030	-0.404608
H140	H	0.832929	-1.078974	-0.229449
