data_functionalizedCrystal
_audit_creation_method	'MofGen! by Chris Wilmer'
_symmetry_space_group_name_H-M	'P1'
_symmetry_Int_Tables_number	1
_symmetry_cell_setting	triclinic
loop_
_symmetry_equiv_pos_as_xyz
  x,y,z
_cell_length_a	16.959455
_cell_length_b	16.959453
_cell_length_c	10.686551
_cell_angle_alpha	94.408900
_cell_angle_beta	94.396376
_cell_angle_gamma	90.019416
loop_
_atom_site_label
_atom_site_type_symbol
_atom_site_fract_x
_atom_site_fract_y
_atom_site_fract_z
Zn1	Zn	1.242743	-0.280348	0.713464
Zn2	Zn	1.232504	-0.422694	0.502448
Zn3	Zn	1.100411	-0.290531	0.502475
Zn4	Zn	1.110534	-0.412491	0.713396
O5	O	1.171548	-0.351516	0.607945
O6	O	1.351997	-0.299240	0.685489
O7	O	1.206460	-0.413694	0.325869
O8	O	1.119341	-0.178568	0.530502
O9	O	1.344474	-0.403821	0.530456
O10	O	1.223912	-0.171086	0.685515
O11	O	1.109412	-0.316595	0.325889
O12	O	0.991142	-0.306701	0.530437
O13	O	1.136593	-0.386430	0.889987
O14	O	0.998579	-0.396304	0.685400
O15	O	1.233727	-0.289346	0.890037
O16	O	1.216275	-0.531954	0.530391
O17	O	1.126664	-0.524457	0.685373
C18	C	0.966180	-0.351500	0.607914
C19	C	0.878324	-0.351511	0.607931
C20	C	0.833126	-0.405895	0.527098
C21	C	0.840970	-0.297133	0.688774
C22	C	0.758424	-0.297139	0.688789
C23	C	0.713226	-0.351523	0.607956
C24	C	0.750573	-0.405901	0.527108
C25	C	0.721071	-0.242756	0.769627
C26	C	0.638521	-0.242759	0.769644
C27	C	0.593321	-0.297147	0.688817
C28	C	0.630673	-0.351528	0.607966
C29	C	0.585475	-0.405912	0.527133
C30	C	0.622826	-0.460298	0.446287
C31	C	0.705374	-0.460289	0.446280
C32	C	0.510773	-0.297155	0.688824
C33	C	0.502922	-0.405918	0.527143
C34	C	1.171480	-0.556885	0.607899
C35	C	1.171525	-0.644740	0.607922
C36	C	1.226070	-1.012253	0.688813
C37	C	1.117256	-1.020167	0.527265
C38	C	1.117225	-0.937622	0.527236
C39	C	1.171617	-0.892389	0.607998
C40	C	1.226040	-0.929701	0.688789
C41	C	1.062798	-0.900304	0.446456
C42	C	1.062764	-0.817755	0.446425
C43	C	1.117161	-0.772521	0.527181
C44	C	1.171586	-0.809837	0.607974
C45	C	1.225978	-0.764604	0.688736
C46	C	1.280408	-0.801919	0.769524
C47	C	1.280436	-0.884467	0.769546
C48	C	1.117133	-0.689973	0.527160
C49	C	1.225948	-0.682052	0.688713
C50	C	1.377718	-0.351532	0.607977
C51	C	1.465575	-0.351539	0.607991
C52	C	1.187431	-0.335614	0.937078
C53	C	1.194200	-0.328837	1.077335
C54	C	1.171639	-0.145344	0.608019
C55	C	1.171678	-0.057486	0.608051
C56	C	1.155772	-0.367300	0.280093
C57	C	1.149157	-0.373853	0.139837
H58	H	0.757877	-0.198477	0.835432
H59	H	1.072814	-0.659594	0.461389
C60	C	0.470071	-0.238151	0.776449
C61	C	0.388104	-0.249784	0.759141
C62	C	0.350585	-0.195435	0.839833
H63	H	0.487605	-0.245644	0.861253
H64	H	0.482679	-0.185894	0.758104
H65	H	0.375502	-0.302029	0.777495
H66	H	0.370548	-0.242285	0.674354
H67	H	0.363193	-0.143178	0.821488
H68	H	0.368124	-0.202932	0.924631
H69	H	0.294966	-0.203315	0.828092
C70	C	1.090951	-0.432211	1.067957
C71	C	1.132077	-0.486477	0.992258
C72	C	1.078483	-0.540242	0.926002
H73	H	1.063573	-0.459628	1.125824
H74	H	1.054082	-0.404451	1.016473
H75	H	1.168932	-0.514234	1.043738
H76	H	1.159452	-0.459083	0.934368
H77	H	1.041614	-0.512482	0.874517
H78	H	1.051109	-0.567653	0.983877
H79	H	1.106379	-0.577063	0.874623
H80	H	0.863541	-0.450177	0.461279
H81	H	1.018446	-0.787378	0.380642
C82	C	0.598122	-0.183683	0.857561
C83	C	0.655375	-0.136068	0.928368
C84	C	0.618189	-0.081647	1.009385
H85	H	0.563599	-0.151451	0.809535
H86	H	0.568591	-0.211302	0.912534
H87	H	0.684893	-0.108450	0.873403
H88	H	0.689901	-0.168277	0.976420
H89	H	0.588658	-0.109267	1.064357
H90	H	0.583667	-0.049421	0.961349
H91	H	0.657029	-0.049339	1.057445
C92	C	1.058294	-1.069414	0.439631
C93	C	1.069981	-1.149693	0.456923
C94	C	1.015687	-1.195087	0.376197
H95	H	1.006021	-1.055129	0.457928
H96	H	1.065821	-1.060043	0.354833
H97	H	1.062448	-1.159059	0.541701
H98	H	1.122243	-1.164002	0.438616
H99	H	1.023214	-1.185716	0.291399
H100	H	0.963417	-1.180795	0.394501
H101	H	1.023614	-1.249561	0.387910
C102	C	1.252454	-0.270547	1.149282
C103	C	1.247795	-0.275166	1.278760
C104	C	1.301436	-0.221473	1.345075
H105	H	1.304570	-0.283087	1.127899
H106	H	1.239873	-0.218446	1.127832
H107	H	1.260381	-0.327255	1.300200
H108	H	1.195691	-0.262618	1.300180
H109	H	1.288855	-0.169372	1.323626
H110	H	1.353549	-0.234018	1.323682
H111	H	1.298277	-0.224594	1.432932
H112	H	0.466127	-0.450207	0.461323
C113	C	1.339370	-0.752834	0.857422
C114	C	1.328114	-0.766848	0.982255
C115	C	1.382404	-0.721633	1.063260
H116	H	1.391645	-0.767166	0.839206
H117	H	1.331545	-0.698317	0.845920
H118	H	1.335946	-0.821353	0.993751
H119	H	1.275850	-0.752512	1.000510
H120	H	1.374580	-0.667116	1.051759
H121	H	1.434676	-0.735969	1.045033
H122	H	1.374770	-0.731130	1.147969
H123	H	0.735792	-0.504565	0.380457
H124	H	0.586014	-0.504574	0.380468
C125	C	1.284915	-0.632975	0.776613
C126	C	1.273659	-0.646993	0.901444
C127	C	1.327956	-0.601790	0.982453
H128	H	1.337187	-0.647314	0.758393
H129	H	1.277098	-0.578456	0.765119
H130	H	1.281482	-0.701500	0.912932
H131	H	1.221397	-0.632650	0.919704
H132	H	1.320139	-0.547271	0.970959
H133	H	1.380225	-0.616133	0.964222
H134	H	1.320321	-0.611290	1.067160
H135	H	1.324749	-0.914856	0.835320
C136	C	0.890179	-0.238177	0.776481
C137	C	0.970466	-0.249822	0.759186
C138	C	1.015825	-0.195532	0.839976
H139	H	0.875876	-0.185901	0.758244
H140	H	0.880797	-0.245738	0.861264
H141	H	0.979843	-0.242254	0.674423
H142	H	0.984793	-0.302087	0.777432
H143	H	1.006443	-0.203093	0.924759
H144	H	1.001515	-0.143259	0.821733
H145	H	1.070305	-0.203430	0.828261
H146	H	1.270388	-1.042639	0.754585
H147	H	1.018513	-0.937138	0.380707
