data_functionalizedCrystal
_audit_creation_method	'MofGen! by Chris Wilmer'
_symmetry_space_group_name_H-M	'P1'
_symmetry_Int_Tables_number	1
_symmetry_cell_setting	triclinic
loop_
_symmetry_equiv_pos_as_xyz
  x,y,z
_cell_length_a	14.519709
_cell_length_b	10.540539
_cell_length_c	12.996460
_cell_angle_alpha	89.996006
_cell_angle_beta	90.000034
_cell_angle_gamma	84.102818
loop_
_atom_site_label
_atom_site_type_symbol
_atom_site_fract_x
_atom_site_fract_y
_atom_site_fract_z
O1	O	1.224765	0.166400	-0.085428
O2	O	1.724765	0.666400	0.414572
O3	O	0.956394	0.185995	-0.085459
O4	O	1.456394	0.685995	0.414541
O5	O	1.096702	-0.008571	-0.085441
O6	O	1.596702	0.491429	0.414559
O7	O	1.084457	0.360967	-0.085445
O8	O	1.584457	0.860967	0.414555
O9	O	1.096688	-0.008582	0.085693
O10	O	1.596688	0.491418	0.585693
O11	O	0.956379	0.185985	0.085675
O12	O	1.456379	0.685985	0.585675
O13	O	1.224751	0.166389	0.085706
O14	O	1.724751	0.666389	0.585706
Cu15	Cu	1.090563	0.176186	0.101316
Cu16	Cu	1.590563	0.676186	0.601316
Cu17	Cu	1.090581	0.176199	-0.101069
Cu18	Cu	1.590581	0.676199	0.398931
O19	O	1.084442	0.360956	0.085689
O20	O	1.584442	0.860956	0.585689
C21	C	0.922022	0.185077	0.000104
C22	C	1.422022	0.685077	0.500104
C23	C	0.819626	0.182340	0.000092
C24	C	1.319626	0.682340	0.500092
C25	C	0.444676	0.172265	0.000139
C26	C	0.944676	0.672265	0.500139
C27	C	0.548999	0.175063	0.000126
C28	C	1.048999	0.675063	0.500126
C29	C	0.632148	0.177303	0.000115
C30	C	1.132148	0.677303	0.500115
C31	C	0.736477	0.180101	0.000103
C32	C	1.236477	0.680101	0.500103
C33	C	1.095777	-0.055870	0.000124
C34	C	1.595777	0.444130	0.500124
C35	C	1.093029	-0.196790	0.000118
C36	C	1.593029	0.303210	0.500118
C37	C	0.987750	-0.379142	-0.000278
C38	C	1.487750	0.120858	0.499722
C39	C	0.990535	-0.232553	0.000107
C40	C	1.490535	0.267447	0.500107
C41	C	1.142346	-0.258958	0.097849
C42	C	1.642346	0.241042	0.597849
C43	C	1.138848	-0.405467	0.097931
C44	C	1.638848	0.094533	0.597931
C45	C	1.140949	-0.405994	-0.096680
C46	C	1.640949	0.094006	0.403320
C47	C	1.141893	-0.259021	-0.097972
C48	C	1.641893	0.240979	0.402028
C49	C	1.259123	0.167308	0.000141
C50	C	1.759123	0.667308	0.500141
C51	C	1.361519	0.170044	0.000146
C52	C	1.861519	0.670044	0.500146
C53	C	1.085368	0.408255	0.000121
C54	C	1.585368	0.908255	0.500121
C55	C	1.088115	0.549175	0.000120
C56	C	1.588115	1.049175	0.500120
N57	N	1.090558	0.176176	0.243664
N58	N	1.590558	0.676176	0.743664
N59	N	1.090594	0.176198	-0.243416
N60	N	1.590594	0.676198	0.256584
C61	C	1.090580	0.176200	0.663478
C62	C	1.590580	0.676200	1.163478
C63	C	1.090571	0.176198	0.546673
C64	C	1.590571	0.676198	1.046673
C65	C	1.090569	0.176189	0.453574
C66	C	1.590569	0.676189	0.953574
C67	C	1.090560	0.176185	0.336762
C68	C	1.590560	0.676185	0.836762
H69	H	0.951730	-0.189549	-0.069951
H70	H	1.451730	0.310451	0.430049
Cl71	Cl	1.255246	-0.480076	-0.097685
Cl72	Cl	1.755246	0.019924	0.402315
H73	H	1.212560	-0.454188	0.102373
H74	H	1.712560	0.045812	0.602373
H75	H	0.947268	-0.407325	-0.070364
H76	H	1.447268	0.092675	0.429636
Cl77	Cl	1.089436	-0.192662	0.210127
Cl78	Cl	1.589436	0.307338	0.710127
H79	H	1.217614	-0.237372	0.101491
H80	H	1.717614	0.262628	0.601491
Cl81	Cl	1.089734	-0.454159	-0.211045
Cl82	Cl	1.589734	0.045841	0.288955
H83	H	0.947421	-0.408943	0.069405
H84	H	1.447421	0.091057	0.569405
Cl85	Cl	1.257266	-0.222798	-0.107077
Cl86	Cl	1.757266	0.277202	0.392923
Cl87	Cl	1.086648	-0.194620	-0.209615
Cl88	Cl	1.586648	0.305380	0.290385
Cl89	Cl	0.930181	-0.167465	0.108436
Cl90	Cl	1.430181	0.332535	0.608436
H91	H	1.102388	-0.433299	0.170979
H92	H	1.602388	0.066701	0.670979
