data_functionalizedCrystal
_audit_creation_method	'MofGen! by Chris Wilmer'
_symmetry_space_group_name_H-M	'P1'
_symmetry_Int_Tables_number	1
_symmetry_cell_setting	triclinic
loop_
_symmetry_equiv_pos_as_xyz
  x,y,z
_cell_length_a	10.967926
_cell_length_b	19.188928
_cell_length_c	17.666332
_cell_angle_alpha	89.987384
_cell_angle_beta	77.880006
_cell_angle_gamma	96.053409
loop_
_atom_site_label
_atom_site_type_symbol
_atom_site_fract_x
_atom_site_fract_y
_atom_site_fract_z
O1	O	1.655098	-0.097915	-0.152943
O2	O	2.155098	0.402085	0.347057
O3	O	1.291766	-0.107290	-0.105544
O4	O	1.791766	0.392710	0.394456
O5	O	1.483919	-0.001015	-0.130631
O6	O	1.983919	0.498985	0.369369
O7	O	1.462945	-0.204190	-0.127857
O8	O	1.962945	0.295810	0.372143
O9	O	1.483885	-0.001012	-0.256523
O10	O	1.983885	0.498988	0.243477
O11	O	1.291732	-0.107287	-0.231437
O12	O	1.791732	0.392713	0.268563
O13	O	1.655065	-0.097912	-0.278836
O14	O	2.155065	0.402088	0.221164
Cu15	Cu	1.473395	-0.102599	-0.266631
Cu16	Cu	1.973395	0.397401	0.233369
Cu17	Cu	1.473435	-0.102603	-0.117749
Cu18	Cu	1.973435	0.397397	0.382251
O19	O	1.462912	-0.204187	-0.253749
O20	O	1.962912	0.295813	0.246251
C21	C	1.245265	-0.106607	-0.162427
C22	C	1.745265	0.393393	0.337573
C23	C	1.106759	-0.104567	-0.144358
C24	C	1.606759	0.395433	0.355642
C25	C	1.044990	-0.103655	-0.201519
C26	C	1.544990	0.396345	0.298481
C27	C	0.901837	-0.101547	-0.182846
C28	C	1.401837	0.398453	0.317154
C29	C	1.483223	0.025002	-0.193492
C30	C	1.983223	0.525002	0.306508
C31	C	1.481186	0.102520	-0.193236
C32	C	1.981186	0.602520	0.306764
C33	C	1.593934	0.146712	-0.207950
C34	C	2.093934	0.646712	0.292050
C35	C	1.592020	0.219548	-0.207692
C36	C	2.092020	0.719548	0.292308
C37	C	1.477351	0.248189	-0.192733
C38	C	1.977351	0.748189	0.307267
C39	C	1.364588	0.203988	-0.178013
C40	C	1.864588	0.703988	0.321987
C41	C	1.366505	0.131153	-0.178264
C42	C	1.866505	0.631153	0.321736
N43	N	1.389690	0.356765	-0.224147
N44	N	1.889690	0.856765	0.275853
N45	N	1.387876	0.425955	-0.223911
N46	N	1.887876	0.925955	0.276089
C47	C	1.471568	0.467636	-0.191973
C48	C	1.971568	0.967636	0.308027
N49	N	1.557160	0.437513	-0.160292
N50	N	2.057160	0.937513	0.339708
N51	N	1.558978	0.368317	-0.160532
N52	N	2.058978	0.868317	0.339468
C53	C	1.475260	0.327166	-0.192458
C54	C	1.975260	0.827166	0.307542
C55	C	1.582249	0.590806	-0.206406
C56	C	2.082249	1.090806	0.293594
C57	C	1.580330	0.663643	-0.206142
C58	C	2.080330	1.163643	0.293858
C59	C	1.352894	0.648081	-0.176471
C60	C	1.852894	1.148081	0.323529
C61	C	1.354816	0.575245	-0.176727
C62	C	1.854816	1.075245	0.323273
C63	C	1.469497	0.546612	-0.191699
C64	C	1.969497	1.046612	0.308301
C65	C	1.701565	-0.098595	-0.221952
C66	C	2.201565	0.401405	0.278048
C67	C	1.840072	-0.100635	-0.240015
C68	C	2.340072	0.399365	0.259985
N69	N	1.473376	-0.102596	-0.371348
N70	N	1.973376	0.397404	0.128652
C71	C	1.463611	0.769796	-0.190898
C72	C	1.963611	1.269796	0.309102
C73	C	1.465660	0.692279	-0.191182
C74	C	1.965660	1.192279	0.308818
C75	C	1.548806	-0.145331	-0.420783
C76	C	2.048806	0.354669	0.079217
C77	C	1.548826	-0.145329	-0.500034
C78	C	2.048826	0.354671	-0.000034
C79	C	1.473393	-0.102600	-0.529842
C80	C	1.973393	0.397400	-0.029842
C81	C	1.397958	-0.059856	-0.480397
C82	C	1.897958	0.440144	0.019603
C83	C	1.397950	-0.059854	-0.401150
C84	C	1.897950	0.440146	0.098850
N85	N	1.364116	-0.100170	-0.640027
N86	N	1.864116	0.399830	-0.140027
N87	N	1.364127	-0.100176	-0.715309
N88	N	1.864127	0.399824	-0.215309
C89	C	1.473416	-0.102603	-0.768609
C90	C	1.973416	0.397397	-0.268609
N91	N	1.582693	-0.105036	-0.743784
N92	N	2.082693	0.394964	-0.243784
N93	N	1.582681	-0.105034	-0.668495
N94	N	2.082681	0.394966	-0.168495
C95	C	1.473394	-0.102597	-0.615772
C96	C	1.973394	0.397403	-0.115772
C97	C	1.548874	-0.145338	-0.903978
C98	C	2.048874	0.354662	-0.403978
C99	C	1.548896	-0.145331	-0.983230
C100	C	2.048896	0.354669	-0.483230
C101	C	1.398017	-0.059862	-0.963590
C102	C	1.898017	0.440138	-0.463590
C103	C	1.398006	-0.059865	-0.884341
C104	C	1.898006	0.440135	-0.384341
C105	C	1.473432	-0.102607	-0.854539
C106	C	1.973432	0.397393	-0.354539
N107	N	1.473464	-0.102601	-0.013033
N108	N	1.973464	0.397399	0.486967
H109	H	1.098090	-0.104432	-0.264280
H110	H	1.598090	0.395568	0.235720
C111	C	1.230782	0.526632	-0.160545
C112	C	1.730782	1.026632	0.339455
N113	N	1.137353	0.490016	-0.148352
N114	N	1.637353	0.990016	0.351648
H115	H	1.683837	0.255536	-0.219671
H116	H	2.183837	0.755536	0.280329
H117	H	1.271223	0.227312	-0.165832
H118	H	1.771223	0.727312	0.334168
C119	C	0.830114	-0.100491	-0.098052
C120	C	1.330114	0.399509	0.401948
N121	N	0.776090	-0.099697	-0.034186
N122	N	1.276090	0.400303	0.465814
H123	H	1.274688	0.095171	-0.166282
H124	H	1.774688	0.595171	0.333718
C125	C	0.911794	-0.101683	-0.324810
C126	C	1.411794	0.398317	0.175190
N127	N	0.965816	-0.102471	-0.388677
N128	N	1.465816	0.397529	0.111323
H129	H	1.053660	-0.103784	-0.081597
H130	H	1.553660	0.396216	0.418403
C131	C	1.708399	0.559307	-0.222864
C132	C	2.208399	1.059307	0.277136
N133	N	1.803416	0.535584	-0.235258
N134	N	2.303416	1.035584	0.264742
H135	H	1.610329	-0.180129	-1.023481
H136	H	2.110329	0.319871	-0.523481
H137	H	1.672148	0.699624	-0.218121
H138	H	2.172148	1.199624	0.281879
H139	H	1.259528	0.671400	-0.164287
H140	H	1.759528	1.171400	0.335713
H141	H	1.687317	0.123404	-0.220139
H142	H	2.187317	0.623404	0.279861
H143	H	1.336599	-0.025070	-0.987860
H144	H	1.836599	0.474930	-0.487860
H145	H	1.610229	-0.180132	-0.396525
H146	H	2.110229	0.319868	0.103475
H147	H	1.610251	-0.180131	-0.540291
H148	H	2.110251	0.319869	-0.040291
C149	C	1.314978	-0.012856	-0.513188
C150	C	1.814978	0.487144	-0.013188
N151	N	1.252476	0.022547	-0.537886
N152	N	1.752476	0.522547	-0.037886
C153	C	1.314959	-0.012844	-0.346767
C154	C	1.814959	0.487156	0.153233
N155	N	1.252446	0.022563	-0.305805
N156	N	1.752446	0.522563	0.194195
H157	H	1.336577	-0.025068	-0.844089
H158	H	1.836577	0.474932	-0.344089
C159	C	1.631856	-0.192347	-0.871195
C160	C	2.131856	0.307653	-0.371195
N161	N	1.694361	-0.227754	-0.846505
N162	N	2.194361	0.272246	-0.346505
