data_functionalizedCrystal
_audit_creation_method	'MofGen! by Chris Wilmer'
_symmetry_space_group_name_H-M	'P1'
_symmetry_Int_Tables_number	1
_symmetry_cell_setting	triclinic
loop_
_symmetry_equiv_pos_as_xyz
  x,y,z
_cell_length_a	17.639874
_cell_length_b	12.827893
_cell_length_c	12.827885
_cell_angle_alpha	90.025051
_cell_angle_beta	101.173872
_cell_angle_gamma	78.774889
loop_
_atom_site_label
_atom_site_type_symbol
_atom_site_fract_x
_atom_site_fract_y
_atom_site_fract_z
Zn1	Zn	-1.208361	-0.092759	0.268483
Zn2	Zn	-0.708361	0.407241	0.768483
Zn3	Zn	-1.208308	-0.267551	0.093771
Zn4	Zn	-0.708308	0.232449	0.593771
Zn5	Zn	-1.076194	-0.128164	0.129020
Zn6	Zn	-0.576194	0.371836	0.629020
Zn7	Zn	-1.076210	-0.302808	0.303716
Zn8	Zn	-0.576210	0.197192	0.803716
O9	O	-1.142268	-0.197820	0.198748
O10	O	-0.642268	0.302180	0.698748
O11	O	-1.318950	-0.086374	0.215810
O12	O	-0.818950	0.413626	0.715810
O13	O	-1.190754	-0.249122	-0.047781
O14	O	-0.690754	0.250878	0.452219
O15	O	-1.093741	0.022773	0.147526
O16	O	-0.593741	0.522773	0.647526
O17	O	-1.318912	-0.214792	0.087450
O18	O	-0.818912	0.285208	0.587450
O19	O	-1.190844	0.048784	0.249989
O20	O	-0.690844	0.548784	0.749989
O21	O	-1.093690	-0.146715	-0.021885
O22	O	-0.593690	0.353285	0.478115
O23	O	-0.965599	-0.180903	0.181690
O24	O	-0.465599	0.319097	0.681690
O25	O	-1.093769	-0.274883	0.445271
O26	O	-0.593769	0.225117	0.945271
O27	O	-0.965611	-0.309213	0.310039
O28	O	-0.465611	0.190787	0.810039
O29	O	-1.190860	-0.120561	0.419385
O30	O	-0.690860	0.379439	0.919385
O31	O	-1.190770	-0.418468	0.121615
O32	O	-0.690770	0.081532	0.621615
O33	O	-1.093718	-0.444371	0.275861
O34	O	-0.593718	0.055629	0.775861
C35	C	-0.936929	-0.252726	0.253514
C36	C	-0.436929	0.247274	0.753514
C37	C	-0.849084	-0.276241	0.276968
C38	C	-0.349084	0.223759	0.776968
C39	C	-1.142261	-0.469332	0.198753
C40	C	-0.642261	0.030668	0.698753
C41	C	-1.142331	-0.585467	0.198771
C42	C	-0.642331	-0.085467	0.698771
C43	C	-1.142322	-0.197706	0.471303
C44	C	-0.642322	0.302294	0.971303
C45	C	-1.142345	-0.197657	0.587451
C46	C	-0.642345	0.302343	1.087451
C47	C	-0.560032	-0.019102	0.020525
C48	C	-0.060032	0.480898	0.520525
C49	C	-0.477488	-0.041218	0.042578
C50	C	0.022512	0.458782	0.542578
C51	C	-0.477555	-0.175012	0.175997
C52	C	0.022445	0.324988	0.675997
C53	C	-0.560100	-0.152903	0.153959
C54	C	-0.060100	0.347097	0.653959
C55	C	-0.601332	-0.074948	0.076221
C56	C	-0.101332	0.425052	0.576221
C57	C	-0.601401	-0.208749	0.209655
C58	C	-0.101401	0.291251	0.709655
C59	C	-0.683939	-0.186646	0.187615
C60	C	-0.183939	0.313354	0.687615
C61	C	-0.725177	-0.108697	0.109878
C62	C	-0.225177	0.391303	0.609878
C63	C	-0.683871	-0.052845	0.054180
C64	C	-0.183871	0.447155	0.554180
C65	C	-0.560167	-0.286709	0.287387
C66	C	-0.060167	0.213291	0.787387
C67	C	-0.601468	-0.342555	0.343083
C68	C	-0.101468	0.157445	0.843083
C69	C	-0.684007	-0.320447	0.321049
C70	C	-0.184007	0.179553	0.821049
C71	C	-0.725245	-0.242498	0.243312
C72	C	-0.225245	0.257502	0.743312
C73	C	-0.725314	-0.376299	0.376746
C74	C	-0.225314	0.123701	0.876746
C75	C	-0.807852	-0.354196	0.354706
C76	C	-0.307852	0.145804	0.854706
C77	C	-0.807783	-0.220394	0.221272
C78	C	-0.307783	0.279606	0.721272
C79	C	-0.348409	-0.142688	0.143757
C80	C	0.151591	0.357312	0.643757
C81	C	-0.436254	-0.119160	0.120296
C82	C	0.063746	0.380840	0.620296
C83	C	-1.142297	0.074757	0.198759
C84	C	-0.642297	0.574757	0.698759
C85	C	-1.142309	0.190914	0.198764
C86	C	-0.642309	0.690914	0.698764
C87	C	-1.094270	0.229830	0.148069
C88	C	-0.594270	0.729830	0.648069
C89	C	-1.094281	0.349883	0.148073
C90	C	-0.594281	0.849883	0.648073
C91	C	-1.142260	-0.197847	-0.072760
C92	C	-0.642260	0.302153	0.427240
C93	C	-1.142390	-0.197561	-0.188948
C94	C	-0.642390	0.302439	0.311052
C95	C	-1.190394	-0.121280	0.626425
C96	C	-0.690394	0.378720	1.126425
C97	C	-1.190419	-0.121227	0.746468
C98	C	-0.690419	0.378773	1.246468
H99	H	-0.841357	-0.156900	0.157985
H100	H	-0.341357	0.343100	0.657985
H101	H	-0.492959	-0.304703	0.305330
H102	H	0.007041	0.195297	0.805330
H103	H	-0.792385	-0.090704	0.091932
H104	H	-0.292385	0.409296	0.591932
H105	H	-1.183464	0.381025	0.242171
H106	H	-0.683464	0.881025	0.742171
H107	H	-0.443864	0.004272	-0.002776
H108	H	0.056136	0.504272	0.497224
H109	H	-0.841480	-0.399670	0.400060
H110	H	-0.341480	0.100330	0.900060
H111	H	-0.567885	-0.406030	0.406375
H112	H	-0.067885	0.093970	0.906375
H113	H	-1.053156	0.383399	0.104666
H114	H	-0.553156	0.883399	0.604666
C115	C	-0.679947	-0.462052	0.462250
C116	C	-0.179947	0.037948	0.962250
N117	N	-0.645777	-0.526643	0.526653
N118	N	-0.145777	-0.026643	1.026653
H119	H	-0.717444	0.010650	-0.009106
H120	H	-0.217444	0.510650	0.490894
C121	C	-1.038743	0.154787	0.089352
C122	C	-0.538743	0.654787	0.589352
N123	N	-0.996937	0.098270	0.045095
N124	N	-0.496937	0.598270	0.545095
C125	C	-1.245942	-0.032988	0.551445
C126	C	-0.745942	0.467012	1.051445
N127	N	-1.287783	0.033516	0.494972
N128	N	-0.787783	0.533516	0.994972
H129	H	-1.183443	0.246473	0.242173
H130	H	-0.683443	0.746473	0.742173
H131	H	-1.231558	-0.055841	0.780034
H132	H	-0.731558	0.444159	1.280034
C133	C	-1.086812	-0.285905	0.765718
C134	C	-0.586812	0.214095	1.265718
N135	N	-1.044949	-0.352445	0.731564
N136	N	-0.544949	0.147555	1.231564
H137	H	-1.101222	-0.263002	0.642957
H138	H	-0.601222	0.236998	1.142957
H139	H	-0.593605	0.044393	-0.042762
H140	H	-0.093605	0.544393	0.457238
H141	H	-0.443973	-0.238486	0.239288
H142	H	0.056027	0.261514	0.739288
