data_functionalizedCrystal
_audit_creation_method	'MofGen! by Chris Wilmer'
_symmetry_space_group_name_H-M	'P1'
_symmetry_Int_Tables_number	1
_symmetry_cell_setting	triclinic
loop_
_symmetry_equiv_pos_as_xyz
  x,y,z
_cell_length_a	16.625546
_cell_length_b	16.625548
_cell_length_c	12.759393
_cell_angle_alpha	89.978332
_cell_angle_beta	89.963806
_cell_angle_gamma	90.023536
loop_
_atom_site_label
_atom_site_type_symbol
_atom_site_fract_x
_atom_site_fract_y
_atom_site_fract_z
Zn1	Zn	-0.320931	1.232689	-0.594036
Zn2	Zn	0.179069	1.732689	-0.094036
Zn3	Zn	-0.455788	1.232590	-0.418342
Zn4	Zn	0.044212	1.732590	0.081658
Zn5	Zn	-0.320975	1.097848	-0.418366
Zn6	Zn	0.179025	1.597848	0.081634
Zn7	Zn	-0.455728	1.097821	-0.593974
Zn8	Zn	0.044272	1.597821	-0.093974
O9	O	-0.388356	1.165237	-0.506180
O10	O	0.111644	1.665237	-0.006180
O11	O	-0.338827	1.345508	-0.570746
O12	O	0.161173	1.845508	-0.070746
O13	O	-0.437948	1.214686	-0.271324
O14	O	0.062052	1.714686	0.228676
O15	O	-0.208137	1.115788	-0.441705
O16	O	0.291863	1.615788	0.058295
O17	O	-0.437905	1.345435	-0.441665
O18	O	0.062095	1.845435	0.058335
O19	O	-0.208105	1.214855	-0.570769
O20	O	0.291895	1.714855	-0.070769
O21	O	-0.338902	1.115692	-0.271342
O22	O	0.161098	1.615692	0.228658
O23	O	-0.338844	0.985012	-0.441645
O24	O	0.161156	1.485012	0.058355
O25	O	-0.437803	1.115742	-0.741004
O26	O	0.062197	1.615742	-0.241004
O27	O	-0.437846	0.984993	-0.570663
O28	O	0.062154	1.484993	-0.070663
O29	O	-0.338769	1.214829	-0.741049
O30	O	0.161231	1.714829	-0.241049
O31	O	-0.568612	1.214660	-0.441604
O32	O	-0.068612	1.714660	0.058396
O33	O	-0.568568	1.115646	-0.570640
O34	O	-0.068568	1.615646	-0.070640
C35	C	-0.388344	0.955746	-0.506150
C36	C	0.111656	1.455746	-0.006150
C37	C	-0.388359	0.866125	-0.506163
C38	C	0.111641	1.366125	-0.006163
C39	C	-0.388364	0.537950	-0.506208
C40	C	0.111636	1.037950	-0.006208
C41	C	-0.388360	0.629258	-0.506192
C42	C	0.111640	1.129258	-0.006192
C43	C	-0.388362	0.702035	-0.506184
C44	C	0.111638	1.202035	-0.006184
C45	C	-0.388357	0.793349	-0.506170
C46	C	0.111643	1.293349	-0.006170
C47	C	-0.597846	1.165161	-0.506136
C48	C	-0.097846	1.665161	-0.006136
C49	C	-0.687468	1.165202	-0.506152
C50	C	-0.187468	1.665202	-0.006152
C51	C	-1.015643	1.165343	-0.506262
C52	C	-0.515643	1.665343	-0.006262
C53	C	-0.924335	1.165301	-0.506234
C54	C	-0.424335	1.665301	-0.006234
C55	C	-0.851558	1.165272	-0.506206
C56	C	-0.351558	1.665272	-0.006206
C57	C	-0.760244	1.165231	-0.506180
C58	C	-0.260244	1.665231	-0.006180
C59	C	-0.178047	1.165336	-0.506247
C60	C	0.321953	1.665336	-0.006247
C61	C	-0.088425	1.165378	-0.506276
C62	C	0.411575	1.665378	-0.006276
C63	C	-0.388274	1.165294	-0.780213
C64	C	0.111726	1.665294	-0.280213
C65	C	-0.388240	1.165318	-0.896990
C66	C	0.111760	1.665318	-0.396990
C67	C	-0.388368	1.375546	-0.506210
C68	C	0.111632	1.875546	-0.006210
C69	C	-0.388373	1.465167	-0.506223
C70	C	0.111627	1.965167	-0.006223
C71	C	-0.336667	1.216919	-0.951878
C72	C	0.163333	1.716919	-0.451878
C73	C	-0.336638	1.216939	-1.061602
C74	C	0.163362	1.716939	-0.561602
C75	C	-0.439760	1.113752	-1.061541
C76	C	0.060240	1.613752	-0.561541
C77	C	-0.439785	1.113730	-0.951819
C78	C	0.060215	1.613730	-0.451819
C79	C	-0.285122	1.268507	-0.897049
C80	C	0.214878	1.768507	-0.397049
C81	C	-0.233546	1.320114	-0.951936
C82	C	0.266454	1.820114	-0.451936
C83	C	-0.233517	1.320133	-1.061661
C84	C	0.266483	1.820133	-0.561661
C85	C	-0.285064	1.268546	-1.116497
C86	C	0.214936	1.768546	-0.616497
C87	C	-0.388378	1.165227	-0.233212
C88	C	0.111622	1.665227	0.266788
C89	C	-0.388186	1.165360	-0.116436
C90	C	0.111814	1.665360	0.383564
H91	H	-0.285142	1.268499	-0.807706
H92	H	0.214858	1.768499	-0.307706
H93	H	-0.191574	1.362109	-0.907281
H94	H	0.308426	1.862109	-0.407281
H95	H	-0.191516	1.362148	-1.106347
H96	H	0.308484	1.862148	-0.606347
C97	C	-0.228883	1.324757	-1.273709
C98	C	0.271117	1.824757	-0.773709
C99	C	-0.285035	1.268570	-1.237108
C100	C	0.214965	1.768570	-0.737108
H101	H	-0.228873	1.324777	-1.348168
H102	H	0.271127	1.824777	-0.848168
H103	H	-0.176862	1.310829	-1.248916
H104	H	0.323138	1.810829	-0.748916
H105	H	-0.242841	1.376774	-1.248879
H106	H	0.257159	1.876774	-0.748879
H107	H	-0.271074	1.216552	-1.261933
H108	H	0.228926	1.716552	-0.761933
H109	H	-0.337067	1.282494	-1.261913
H110	H	0.162933	1.782494	-0.761913
H111	H	-0.481727	1.071752	-1.106198
H112	H	0.018273	1.571752	-0.606198
C113	C	-0.541749	1.011771	-0.962771
C114	C	-0.041749	1.511771	-0.462771
C115	C	-0.496496	1.057031	-0.891478
C116	C	0.003504	1.557031	-0.391478
H117	H	-0.576767	0.976775	-0.925517
H118	H	-0.076767	1.476775	-0.425517
H119	H	-0.506615	0.980937	-1.005563
H120	H	-0.006615	1.480937	-0.505563
H121	H	-0.572567	1.046909	-1.005573
H122	H	-0.072567	1.546909	-0.505573
H123	H	-0.465673	1.021893	-0.848681
H124	H	0.034327	1.521893	-0.348681
H125	H	-0.531634	1.087867	-0.848668
H126	H	-0.031634	1.587867	-0.348668
