data_functionalizedCrystal
_audit_creation_method	'MofGen! by Chris Wilmer'
_symmetry_space_group_name_H-M	'P1'
_symmetry_Int_Tables_number	1
_symmetry_cell_setting	triclinic
loop_
_symmetry_equiv_pos_as_xyz
  x,y,z
_cell_length_a	16.992700
_cell_length_b	10.967971
_cell_length_c	16.053833
_cell_angle_alpha	104.974537
_cell_angle_beta	87.292070
_cell_angle_gamma	92.376325
loop_
_atom_site_label
_atom_site_type_symbol
_atom_site_fract_x
_atom_site_fract_y
_atom_site_fract_z
O1	O	1.040444	-0.262421	0.031862
O2	O	0.812126	-0.259493	0.032243
O3	O	0.930423	-0.077946	0.058381
O4	O	0.922147	-0.443967	0.005724
O5	O	0.936438	-0.088022	-0.081925
O6	O	0.818141	-0.269569	-0.108063
O7	O	1.046458	-0.272497	-0.108444
Zn8	Zn	0.933255	-0.272633	-0.130530
Zn9	Zn	0.925330	-0.259357	0.054330
O10	O	0.928162	-0.454043	-0.134582
C11	C	0.785878	-0.260756	-0.037372
C12	C	0.698705	-0.249495	-0.035767
C13	C	0.932374	-0.035933	-0.005002
C14	C	0.929216	0.104265	0.015172
C15	C	1.072707	-0.271233	-0.038827
C16	C	1.159879	-0.282494	-0.040426
C17	C	0.926211	-0.496056	-0.071197
C18	C	0.929369	-0.636254	-0.091365
C19	C	1.649712	-0.358175	-0.051399
C20	C	1.567804	-0.347582	-0.049865
C21	C	1.534889	-0.228307	-0.032694
C22	C	1.583889	-0.119619	-0.017064
C23	C	1.665796	-0.130213	-0.018604
C24	C	1.290786	-0.184400	-0.026336
C25	C	1.208873	-0.173814	-0.024795
C26	C	1.192793	-0.401778	-0.057598
C27	C	1.274702	-0.412362	-0.059131
C28	C	1.323695	-0.303674	-0.043505
N29	N	1.451166	-0.217477	-0.031123
N30	N	1.407417	-0.314506	-0.045082
C31	C	0.930924	0.161556	-0.048516
C32	C	0.927660	0.306459	-0.027668
N33	N	0.938669	-0.281693	-0.256692
C34	C	0.966514	-0.328464	-0.787045
C35	C	0.962731	-0.322117	-0.698726
C36	C	0.912359	-0.237587	-0.642871
C37	C	0.865761	-0.159408	-0.675338
C38	C	0.869541	-0.165762	-0.763656
C39	C	0.895851	-0.209867	-0.377478
C40	C	0.892077	-0.203517	-0.289155
C41	C	0.989046	-0.366228	-0.312549
C42	C	0.992825	-0.372569	-0.400867
C43	C	0.946224	-0.294394	-0.433328
N44	N	0.908492	-0.231095	-0.552594
N45	N	0.950087	-0.300893	-0.523604
N46	N	0.919922	-0.250288	0.180493
H47	H	1.676504	-0.455302	-0.065381
Br48	Br	1.061189	-0.487292	-0.476666
Br49	Br	1.164205	-0.011931	-0.001507
Br50	Br	0.806301	-0.059669	-0.807714
H51	H	1.000672	-0.385775	-0.672301
Br52	Br	1.052284	-0.472318	-0.268490
Br53	Br	1.357266	-0.036894	-0.005131
Br54	Br	1.319365	-0.574240	-0.082426
Br55	Br	1.501315	-0.495084	-0.071078
H56	H	0.851053	-0.134683	-0.243678
H57	H	0.857908	-0.146208	-0.403896
H58	H	1.557085	-0.022503	-0.003095
Br59	Br	0.935843	0.266721	-0.207981
H60	H	1.152895	-0.490266	-0.070321
H61	H	0.925341	0.162492	0.085132
H62	H	0.824744	-0.090587	-0.629854
Br63	Br	0.937396	0.064523	-0.165127
Br64	Br	1.732289	0.017287	0.002604
H65	H	0.923786	0.364681	0.042297
H66	H	1.007536	-0.397292	-0.832517
