data_functionalizedCrystal
_audit_creation_method	'MofGen! by Chris Wilmer'
_symmetry_space_group_name_H-M	'P1'
_symmetry_Int_Tables_number	1
_symmetry_cell_setting	triclinic
loop_
_symmetry_equiv_pos_as_xyz
  x,y,z
_cell_length_a	16.974800
_cell_length_b	11.026607
_cell_length_c	16.053802
_cell_angle_alpha	93.134017
_cell_angle_beta	91.074188
_cell_angle_gamma	95.962169
loop_
_atom_site_label
_atom_site_type_symbol
_atom_site_fract_x
_atom_site_fract_y
_atom_site_fract_z
O1	O	1.071034	0.154760	0.002968
O2	O	1.571034	0.654760	0.502968
O3	O	0.844209	0.173345	-0.012366
O4	O	1.344209	0.673345	0.487634
O5	O	0.938822	-0.012661	-0.005967
O6	O	1.438822	0.487339	0.494033
O7	O	0.976421	0.340766	-0.003431
O8	O	1.476421	0.840766	0.496569
O9	O	0.933609	-0.002465	0.132540
O10	O	1.433609	0.497535	0.632540
O11	O	0.838995	0.183541	0.126141
O12	O	1.338995	0.683541	0.626141
O13	O	1.065820	0.164956	0.141474
O14	O	1.565820	0.664956	0.641474
Zn15	Zn	0.951580	0.175867	0.155798
Zn16	Zn	1.451580	0.675867	0.655798
Zn17	Zn	0.958449	0.162434	-0.026690
Zn18	Zn	1.458449	0.662434	0.473310
O19	O	0.971207	0.350962	0.135075
O20	O	1.471207	0.850962	0.635075
C21	C	0.812112	0.177550	0.054894
C22	C	1.312112	0.677550	0.554894
C23	C	0.724240	0.174872	0.048954
C24	C	1.224240	0.674872	0.548954
C25	C	0.680120	0.179170	0.121665
C26	C	1.180120	0.679170	0.621665
C27	C	0.597553	0.176635	0.116086
C28	C	1.097553	0.676635	0.616086
C29	C	0.559109	0.169812	0.037795
C30	C	1.059109	0.669812	0.537795
C31	C	0.603235	0.165511	-0.034922
C32	C	1.103235	0.665511	0.465078
C33	C	0.685799	0.168037	-0.029342
C34	C	1.185799	0.668037	0.470658
C35	C	0.312481	0.161653	0.013011
C36	C	0.812481	0.661653	0.513011
C37	C	0.229910	0.159131	0.007436
C38	C	0.729910	0.659131	0.507436
C39	C	0.224234	0.170253	0.158444
C40	C	0.724234	0.670253	0.658444
C41	C	0.306801	0.172786	0.164017
C42	C	0.806801	0.672786	0.664017
C43	C	0.350919	0.168478	0.091301
C44	C	0.850919	0.668478	0.591301
N45	N	0.474712	0.167225	0.032090
N46	N	0.974712	0.667225	0.532090
N47	N	0.435313	0.171057	0.097006
N48	N	0.935313	0.671057	0.597006
C49	C	0.929279	-0.052796	0.062817
C50	C	1.429279	0.447204	0.562817
C51	C	0.908603	-0.187577	0.061416
C52	C	1.408603	0.312423	0.561416
C53	C	0.965695	-0.261199	0.065274
C54	C	1.465695	0.238801	0.565274
C55	C	0.944326	-0.400502	0.063826
C56	C	1.444326	0.099498	0.563826
C57	C	1.097917	0.160752	0.074213
C58	C	1.597917	0.660752	0.574213
C59	C	1.185790	0.163428	0.080147
C60	C	1.685790	0.663428	0.580147
C61	C	0.980750	0.391097	0.066290
C62	C	1.480750	0.891097	0.566290
C63	C	1.001427	0.525878	0.067685
C64	C	1.501427	1.025878	0.567685
N65	N	0.946898	0.185035	0.280342
N66	N	1.446898	0.685035	0.780342
N67	N	0.963137	0.153257	-0.151233
N68	N	1.463137	0.653257	0.348767
C69	C	0.987178	0.105917	0.326760
C70	C	1.487178	0.605917	0.826760
C71	C	0.983912	0.112342	0.413946
C72	C	1.483912	0.612342	0.913946
C73	C	0.940369	0.197890	0.454712
C74	C	1.440369	0.697890	0.954712
C75	C	0.900083	0.277011	0.408288
C76	C	1.400083	0.777011	0.908288
C77	C	0.903345	0.270580	0.321103
C78	C	1.403345	0.770580	0.821103
C79	C	0.926113	0.225947	0.715158
C80	C	1.426113	0.725947	1.215158
C81	C	0.922856	0.232374	0.802349
C82	C	1.422856	0.732374	1.302349
C83	C	1.006684	0.067703	0.808001
C84	C	1.506684	0.567703	1.308001
C85	C	1.009947	0.061284	0.720815
C86	C	1.509947	0.561284	1.220815
C87	C	0.969657	0.140401	0.674398
C88	C	1.469657	0.640401	1.174398
N89	N	0.937031	0.204461	0.543830
N90	N	1.437031	0.704461	1.043830
N91	N	0.972991	0.133823	0.585281
N92	N	1.472991	0.633823	1.085281
H93	H	0.348392	0.158141	-0.046200
H94	H	0.848392	0.658141	0.453800
F95	F	0.860470	0.354785	0.271702
F96	F	1.360470	0.854785	0.771702
H97	H	0.571926	0.159946	-0.098668
H98	H	1.071926	0.659946	0.401332
H99	H	0.338096	0.178337	0.227770
H100	H	0.838096	0.678337	0.727770
H101	H	0.864624	0.346663	0.441484
H102	H	1.364624	0.846663	0.941484
H103	H	1.045403	-0.008376	0.687625
H104	H	1.545403	0.491624	1.187625
H105	H	0.879623	-0.440597	0.059447
H106	H	1.379623	0.059403	0.559447
F107	F	0.721028	0.186440	0.204994
F108	F	1.221028	0.686440	0.704994
H109	H	0.188304	0.173758	0.217646
H110	H	0.688304	0.673758	0.717646
F111	F	1.050264	-0.208793	0.070986
F112	F	1.550264	0.291207	0.570986
H113	H	0.561632	0.180114	0.175295
H114	H	1.061632	0.680114	0.675295
H115	H	0.721722	0.164540	-0.088551
H116	H	1.221722	0.664540	0.411449
H117	H	1.066133	-0.434034	0.071997
H118	H	1.566133	0.065966	0.571997
F119	F	1.033528	0.014870	0.283382
F120	F	1.533528	0.514870	0.783382
F121	F	0.188997	0.151872	-0.075896
F122	F	0.688997	0.651872	0.424104
H123	H	0.843903	-0.227677	0.057037
H124	H	1.343903	0.272323	0.557037
F125	F	1.026782	0.028135	0.463348
F126	F	1.526782	0.528135	0.963348
F127	F	1.049558	-0.016496	0.857406
F128	F	1.549558	0.483504	1.357406
F129	F	0.876509	0.323435	0.845730
F130	F	1.376509	0.823435	1.345730
H131	H	0.893310	0.290369	0.677372
H132	H	1.393310	0.790369	1.177372
