data_functionalizedCrystal
_audit_creation_method	'MofGen! by Chris Wilmer'
_symmetry_space_group_name_H-M	'P1'
_symmetry_Int_Tables_number	1
_symmetry_cell_setting	triclinic
loop_
_symmetry_equiv_pos_as_xyz
  x,y,z
_cell_length_a	17.077404
_cell_length_b	17.077402
_cell_length_c	17.077396
_cell_angle_alpha	89.971638
_cell_angle_beta	89.983895
_cell_angle_gamma	90.021463
loop_
_atom_site_label
_atom_site_type_symbol
_atom_site_fract_x
_atom_site_fract_y
_atom_site_fract_z
Zn1	Zn	1.200034	-0.312544	-0.443824
Zn2	Zn	1.533367	0.020789	-0.110491
Zn3	Zn	1.866700	0.354122	0.222843
Zn4	Zn	1.199945	-0.443821	-0.312560
Zn5	Zn	1.533278	-0.110488	0.020773
Zn6	Zn	1.866611	0.222846	0.354106
Zn7	Zn	1.068771	-0.312568	-0.312575
Zn8	Zn	1.402104	0.020765	0.020759
Zn9	Zn	1.735437	0.354098	0.354092
Zn10	Zn	1.068732	-0.443767	-0.443786
Zn11	Zn	1.402066	-0.110434	-0.110453
Zn12	Zn	1.735399	0.222899	0.222880
O13	O	1.134370	-0.378175	-0.378186
O14	O	1.467704	-0.044842	-0.044853
O15	O	1.801037	0.288491	0.288480
O16	O	1.309869	-0.329971	-0.426421
O17	O	1.643202	0.003363	-0.093088
O18	O	1.976536	0.336696	0.240245
O19	O	1.182523	-0.426443	-0.202715
O20	O	1.515856	-0.093109	0.130618
O21	O	1.849190	0.240224	0.463952
O22	O	1.086237	-0.202718	-0.330007
O23	O	1.419570	0.130615	0.003326
O24	O	1.752903	0.463948	0.336660
O25	O	1.309803	-0.426419	-0.329982
O26	O	1.643137	-0.093086	0.003351
O27	O	1.976470	0.240248	0.336684
O28	O	1.182675	-0.202700	-0.426435
O29	O	1.516008	0.130633	-0.093102
O30	O	1.849342	0.463966	0.240231
O31	O	1.086150	-0.330012	-0.202726
O32	O	1.419483	0.003321	0.130608
O33	O	1.752817	0.336655	0.463941
O34	O	0.958919	-0.329960	-0.329970
O35	O	1.292252	0.003373	0.003363
O36	O	1.625585	0.336707	0.336696
O37	O	1.086171	-0.426328	-0.553638
O38	O	1.419504	-0.092994	-0.220305
O39	O	1.752837	0.240339	0.113028
O40	O	0.958890	-0.426351	-0.426371
O41	O	1.292224	-0.093018	-0.093038
O42	O	1.625557	0.240315	0.240296
O43	O	1.182638	-0.329919	-0.553666
O44	O	1.515971	0.003415	-0.220333
O45	O	1.849304	0.336748	0.113001
O46	O	1.182486	-0.553661	-0.329946
O47	O	1.515819	-0.220327	0.003387
O48	O	1.849152	0.113006	0.336721
O49	O	1.086084	-0.553621	-0.426357
O50	O	1.419418	-0.220288	-0.093024
O51	O	1.752751	0.113045	0.240309
C52	C	0.930423	-0.378153	-0.378169
C53	C	1.263756	-0.044820	-0.044835
C54	C	1.597089	0.288514	0.288498
C55	C	0.843173	-0.378162	-0.378180
C56	C	1.176506	-0.044829	-0.044846
C57	C	1.509839	0.288504	0.288487
C58	C	0.802217	-0.328031	-0.428472
C59	C	1.135551	0.005302	-0.095139
C60	C	1.468884	0.338636	0.238194
C61	C	0.720237	-0.328036	-0.428476
C62	C	1.053570	0.005297	-0.095143
C63	C	1.386904	0.338631	0.238191
C64	C	0.679213	-0.378177	-0.378190
C65	C	1.012547	-0.044844	-0.044857
C66	C	1.345880	0.288490	0.288476
C67	C	0.720174	-0.428311	-0.327892
C68	C	1.053508	-0.094977	0.005441
C69	C	1.386841	0.238356	0.338774
C70	C	0.802153	-0.428301	-0.327885
C71	C	1.135487	-0.094968	0.005448
C72	C	1.468820	0.238366	0.338781
C73	C	0.549304	-0.428328	-0.327912
C74	C	0.882638	-0.094995	0.005421
C75	C	1.215971	0.238338	0.338755
C76	C	0.467320	-0.428339	-0.327920
C77	C	0.800653	-0.095006	0.005414
C78	C	1.133986	0.238327	0.338747
C79	C	0.467388	-0.328063	-0.428502
C80	C	0.800721	0.005270	-0.095169
C81	C	1.134055	0.338603	0.238164
C82	C	0.549367	-0.328054	-0.428495
C83	C	0.882700	0.005280	-0.095162
C84	C	1.216034	0.338613	0.238171
C85	C	0.590322	-0.378189	-0.378198
C86	C	0.923656	-0.044855	-0.044865
C87	C	1.256989	0.288478	0.288468
C88	C	1.134292	-0.582123	-0.378163
C89	C	1.467626	-0.248790	-0.044830
C90	C	1.800959	0.084544	0.288504
C91	C	1.134331	-0.669373	-0.378179
C92	C	1.467664	-0.336040	-0.044846
C93	C	1.800998	-0.002706	0.288487
C94	C	1.184519	-0.710286	-0.428430
C95	C	1.517852	-0.376953	-0.095097
C96	C	1.851186	-0.043620	0.238237
C97	C	1.184552	-0.792267	-0.428447
C98	C	1.517885	-0.458933	-0.095113
C99	C	1.851219	-0.125600	0.238220
C100	C	1.134400	-0.833332	-0.378208
C101	C	1.467734	-0.499999	-0.044875
C102	C	1.801067	-0.166666	0.288459
C103	C	1.084207	-0.792413	-0.327955
C104	C	1.417540	-0.459080	0.005378
C105	C	1.750873	-0.125747	0.338711
C106	C	1.084170	-0.710434	-0.327943
C107	C	1.417504	-0.377101	0.005390
C108	C	1.750837	-0.043768	0.338724
C109	C	1.084287	-0.963283	-0.327983
C110	C	1.417621	-0.629950	0.005351
C111	C	1.750954	-0.296617	0.338684
C112	C	1.084324	-1.045268	-0.327994
C113	C	1.417658	-0.711934	0.005340
C114	C	1.750991	-0.378601	0.338673
C115	C	1.184669	-1.045116	-0.428486
C116	C	1.518002	-0.711782	-0.095153
C117	C	1.851336	-0.378449	0.238180
C118	C	1.184633	-0.963137	-0.428474
C119	C	1.517966	-0.629803	-0.095141
C120	C	1.851299	-0.296470	0.238193
C121	C	1.134440	-0.922223	-0.378220
C122	C	1.467773	-0.588890	-0.044887
C123	C	1.801106	-0.255557	0.288447
C124	C	1.339115	-0.378198	-0.378204
C125	C	1.672448	-0.044865	-0.044871
C126	C	2.005781	0.288469	0.288462
C127	C	1.426364	-0.378208	-0.378212
C128	C	1.759698	-0.044875	-0.044879
C129	C	2.093031	0.288459	0.288454
C130	C	1.134410	-0.378114	-0.582931
C131	C	1.467743	-0.044781	-0.249597
C132	C	1.801076	0.288552	0.083736
C133	C	1.134427	-0.378089	-0.670181
C134	C	1.467760	-0.044755	-0.336847
C135	C	1.801093	0.288578	-0.003514
C136	C	1.134470	-0.173431	-0.378227
C137	C	1.467803	0.159902	-0.044894
C138	C	1.801137	0.493236	0.288440
C139	C	1.134512	-0.086181	-0.378244
C140	C	1.467846	0.247152	-0.044911
C141	C	1.801179	0.580486	0.288422
C142	C	1.084261	-0.327871	-0.711176
C143	C	1.417594	0.005462	-0.377842
C144	C	1.750927	0.338796	-0.044509
C145	C	1.084273	-0.327853	-0.793156
C146	C	1.417607	0.005480	-0.459823
C147	C	1.750940	0.338813	-0.126489
C148	C	1.134457	-0.378050	-0.834140
C149	C	1.467790	-0.044716	-0.500807
C150	C	1.801123	0.288617	-0.167473
C151	C	1.184625	-0.428272	-0.793139
C152	C	1.517958	-0.094939	-0.459806
C153	C	1.851292	0.238394	-0.126473
C154	C	1.184608	-0.428294	-0.711160
C155	C	1.517941	-0.094960	-0.377827
C156	C	1.851274	0.238373	-0.044494
C157	C	1.184659	-0.428223	-0.964009
C158	C	1.517992	-0.094890	-0.630676
C159	C	1.851326	0.238443	-0.297343
C160	C	1.184678	-0.428201	-1.045994
C161	C	1.518011	-0.094868	-0.712661
C162	C	1.851344	0.238465	-0.379327
C163	C	1.084325	-0.327783	-1.046005
C164	C	1.417658	0.005550	-0.712672
C165	C	1.750991	0.338884	-0.379339
C166	C	1.084307	-0.327804	-0.964026
C167	C	1.417641	0.005529	-0.630693
C168	C	1.750974	0.338862	-0.297360
C169	C	1.134477	-0.378026	-0.923031
C170	C	1.467810	-0.044693	-0.589698
C171	C	1.801144	0.288640	-0.256364
C172	C	1.134376	-0.378179	-0.174238
C173	C	1.467710	-0.044846	0.159095
C174	C	1.801043	0.288487	0.492428
C175	C	1.134512	-0.377984	-0.086989
C176	C	1.467845	-0.044651	0.246344
C177	C	1.801178	0.288683	0.579678
H178	H	0.582766	-0.287229	-0.469447
H179	H	0.916100	0.046104	-0.136113
H180	H	1.249433	0.379438	0.197220
Br181	Br	1.016052	-0.654908	-0.259746
Br182	Br	1.349385	-0.321575	0.073587
Br183	Br	1.682719	0.011759	0.406920
Br184	Br	1.252792	-0.496318	-1.101615
Br185	Br	1.586125	-0.162985	-0.768282
Br186	Br	1.919458	0.170349	-0.434949
Br187	Br	1.016145	-0.259741	-0.848790
Br188	Br	1.349479	0.073593	-0.515456
Br189	Br	1.682812	0.406926	-0.182123
H190	H	1.043447	-0.286926	-0.930659
H191	H	1.376780	0.046407	-0.597326
H192	H	1.710114	0.379740	-0.263993
H193	H	0.686766	-0.469133	-0.286945
H194	H	1.020100	-0.135799	0.046388
H195	H	1.353433	0.197534	0.379721
H196	H	1.225519	-0.469113	-0.930634
H197	H	1.558853	-0.135779	-0.597300
H198	H	1.892186	0.197554	-0.263967
Br199	Br	1.252592	-0.654562	-0.496609
Br200	Br	1.585926	-0.321229	-0.163275
Br201	Br	1.919259	0.012104	0.170058
H202	H	0.433920	-0.469169	-0.286973
H203	H	0.767254	-0.135836	0.046360
H204	H	1.100587	0.197498	0.379693
H205	H	1.043476	-0.286889	-1.079387
H206	H	1.376809	0.046444	-0.746054
H207	H	1.710142	0.379777	-0.412721
Br208	Br	1.016156	-0.259738	-0.655562
Br209	Br	1.349490	0.073596	-0.322229
Br210	Br	1.682823	0.406929	0.011104
H211	H	0.582648	-0.469152	-0.286953
H212	H	0.915981	-0.135818	0.046381
H213	H	1.249314	0.197515	0.379714
Br214	Br	1.252654	-0.847789	-0.496661
Br215	Br	1.585987	-0.514456	-0.163327
Br216	Br	1.919320	-0.181123	0.170006
H217	H	1.225474	-0.929701	-0.469378
H218	H	1.558807	-0.596368	-0.136045
H219	H	1.892140	-0.263035	0.197289
H220	H	1.225481	-0.469147	-0.826515
H221	H	1.558815	-0.135814	-0.493182
H222	H	1.892148	0.197520	-0.159848
H223	H	0.835498	-0.469123	-0.286932
H224	H	1.168831	-0.135789	0.046402
H225	H	1.502165	0.197544	0.379735
H226	H	0.434038	-0.287240	-0.469455
H227	H	0.767372	0.046093	-0.136121
H228	H	1.100705	0.379426	0.197212
Br229	Br	1.252793	-1.100639	-0.496684
Br230	Br	1.586126	-0.767306	-0.163350
Br231	Br	1.919459	-0.433973	0.169983
H232	H	1.043483	-1.078701	-0.287088
H233	H	1.376817	-0.745368	0.046245
H234	H	1.710150	-0.412035	0.379579
H235	H	1.043412	-0.929974	-0.287063
H236	H	1.376745	-0.596641	0.046270
H237	H	1.710079	-0.263308	0.379604
H238	H	1.043369	-0.825855	-0.287053
H239	H	1.376702	-0.492522	0.046280
H240	H	1.710036	-0.159189	0.379613
H241	H	0.835613	-0.287202	-0.469423
H242	H	1.168946	0.046131	-0.136089
H243	H	1.502280	0.379464	0.197244
Br244	Br	0.664657	-0.259998	-0.496734
Br245	Br	0.997991	0.073335	-0.163400
Br246	Br	1.331324	0.406669	0.169933
Br247	Br	1.252687	-0.496455	-0.655523
Br248	Br	1.586020	-0.163121	-0.322190
Br249	Br	1.919354	0.170212	0.011144
