data_functionalizedCrystal
_audit_creation_method	'MofGen! by Chris Wilmer'
_symmetry_space_group_name_H-M	'P1'
_symmetry_Int_Tables_number	1
_symmetry_cell_setting	triclinic
loop_
_symmetry_equiv_pos_as_xyz
  x,y,z
_cell_length_a	12.837942
_cell_length_b	16.109302
_cell_length_c	14.586319
_cell_angle_alpha	89.994552
_cell_angle_beta	89.996741
_cell_angle_gamma	89.145360
loop_
_atom_site_label
_atom_site_type_symbol
_atom_site_fract_x
_atom_site_fract_y
_atom_site_fract_z
O1	O	0.133244	1.113716	-0.076281
O2	O	0.149825	0.872971	-0.076274
O3	O	-0.009367	0.988005	-0.076272
O4	O	0.292435	0.998681	-0.076284
O5	O	-0.009369	0.987996	0.076209
O6	O	0.149822	0.872962	0.076207
O7	O	0.133242	1.113707	0.076199
Cu8	Cu	0.141532	0.993333	0.090126
Cu9	Cu	0.141535	0.993344	-0.090201
O10	O	0.292433	0.998672	0.076197
C11	C	0.149152	0.841938	-0.000033
C12	C	0.147138	0.749483	-0.000030
C13	C	0.142479	0.536767	0.083078
C14	C	0.140576	0.449896	0.083075
C15	C	0.140584	0.449917	-0.083168
C16	C	0.142480	0.536786	-0.083164
C17	C	0.143433	0.580209	-0.000038
C18	C	0.139633	0.406468	-0.000045
C19	C	0.137569	0.312278	-0.000049
C20	C	0.145495	0.674405	-0.000034
C21	C	-0.047987	0.984394	-0.000032
C22	C	-0.163061	0.973637	-0.000033
C23	C	-0.404062	1.102954	-0.000056
C24	C	-0.512185	1.092851	-0.000057
C25	C	-0.487430	0.943328	-0.000044
C26	C	-0.379308	0.953431	-0.000042
C27	C	-0.337628	1.033247	-0.000047
C28	C	-0.229504	1.043349	-0.000039
C29	C	-0.204751	0.893827	-0.000032
C30	C	-0.312873	0.883724	-0.000033
C31	C	0.331054	1.002284	-0.000045
C32	C	0.446127	1.013040	-0.000050
N33	N	0.141529	0.993332	0.216957
C34	C	0.133914	1.144739	-0.000044
C35	C	0.135929	1.237195	-0.000053
N36	N	0.141529	0.993352	-0.217032
C37	C	0.071063	1.044290	0.451965
C38	C	0.071060	1.044292	0.547946
C39	C	0.211999	0.942388	0.547954
C40	C	0.211995	0.942382	0.451974
C41	C	0.141529	0.993338	0.403982
C42	C	0.141529	0.993346	0.595943
C43	C	0.141527	0.993348	0.700010
C44	C	0.141529	0.993335	0.299908
H45	H	0.139809	0.414551	-0.150846
O46	O	0.143451	0.578862	-0.163990
C47	C	0.143195	0.569724	-0.328881
C48	C	0.142123	0.521970	-0.237419
H49	H	0.142100	0.523749	-0.388272
H50	H	0.216599	0.608507	-0.333097
H51	H	0.071599	0.612283	-0.332981
H52	H	0.213669	0.479368	-0.233258
H53	H	0.068672	0.483241	-0.233241
H54	H	0.013679	1.085780	0.587011
H55	H	0.139800	0.414529	0.150757
H56	H	0.143255	0.572119	0.150765
H57	H	-0.195570	1.108339	-0.000040
H58	H	-0.566273	1.149614	-0.000068
H59	H	0.013683	1.085779	0.412892
H60	H	-0.370127	1.167943	-0.000051
O61	O	-0.528101	0.865861	-0.000001
C62	C	-0.683707	0.784040	-0.000061
C63	C	-0.637787	0.871819	-0.000089
H64	H	-0.772393	0.788827	-0.000153
H65	H	-0.656434	0.749138	0.063772
H66	H	-0.656276	0.749165	-0.063854
H67	H	-0.665197	0.906763	0.063661
H68	H	-0.665054	0.906658	-0.063964
O69	O	0.280355	0.892912	0.405216
C70	C	0.342852	0.847787	0.257353
C71	C	0.265370	0.903835	0.310192
H72	H	0.330779	0.856613	0.180517
H73	H	0.329327	0.780109	0.276165
H74	H	0.425873	0.865191	0.276268
H75	H	0.182320	0.886505	0.291305
H76	H	0.278987	0.971500	0.291376
H77	H	-0.346824	0.818741	-0.000033
O78	O	-0.140174	0.826133	-0.000188
C79	C	-0.003684	0.750785	-0.079141
C80	C	-0.076772	0.827471	-0.079093
H81	H	0.047611	0.751851	-0.142918
H82	H	-0.052002	0.691980	-0.079196
H83	H	0.047498	0.751781	-0.015296
H84	H	-0.127969	0.826555	-0.142927
H85	H	-0.028392	0.886242	-0.078989
O86	O	0.280414	0.892976	0.594717
C87	C	0.342846	0.847790	0.742581
C88	C	0.265322	0.903802	0.689740
H89	H	0.330657	0.856510	0.819416
H90	H	0.425898	0.865202	0.723767
H91	H	0.329327	0.780137	0.723670
H92	H	0.278746	0.971471	0.708622
H93	H	0.182297	0.886319	0.708559
