data_functionalizedCrystal
_audit_creation_method	'MofGen! by Chris Wilmer'
_symmetry_space_group_name_H-M	'P1'
_symmetry_Int_Tables_number	1
_symmetry_cell_setting	triclinic
loop_
_symmetry_equiv_pos_as_xyz
  x,y,z
_cell_length_a	14.908308
_cell_length_b	12.759401
_cell_length_c	12.759399
_cell_angle_alpha	90.016641
_cell_angle_beta	86.731299
_cell_angle_gamma	86.720277
loop_
_atom_site_label
_atom_site_type_symbol
_atom_site_fract_x
_atom_site_fract_y
_atom_site_fract_z
Zn1	Zn	-0.510061	-1.571941	0.452484
Zn2	Zn	-0.359210	-1.581981	0.618052
Zn3	Zn	-0.359224	-1.406389	0.442393
Zn4	Zn	-0.510024	-1.396233	0.628124
O5	O	-0.434630	-1.489136	0.535263
O6	O	-0.490060	-1.720293	0.474455
O7	O	-0.232970	-1.567142	0.586313
O8	O	-0.379255	-1.428399	0.296712
O9	O	-0.379231	-1.727670	0.596097
O10	O	-0.490074	-1.550029	0.304126
O11	O	-0.232980	-1.438135	0.457257
O12	O	-0.379218	-1.258022	0.467023
O13	O	-0.636270	-1.411088	0.613263
O14	O	-0.490010	-1.250560	0.603478
O15	O	-0.636298	-1.540180	0.484221
O16	O	-0.379194	-1.557293	0.766408
O17	O	-0.489996	-1.420824	0.773807
C18	C	-0.434609	-1.489073	0.808229
C19	C	-0.434631	-1.489140	0.925007
C20	C	-0.434612	-1.216170	0.535249
C21	C	-0.434626	-1.099392	0.535270
C22	C	-0.669932	-1.473381	0.550991
C23	C	-0.770204	-1.466667	0.557693
C24	C	-0.958657	-1.588471	0.435892
C25	C	-1.052871	-1.582166	0.442186
C26	C	-1.052850	-1.447747	0.576569
C27	C	-0.958635	-1.454052	0.570275
C28	C	-0.911542	-1.524418	0.499935
C29	C	-0.817326	-1.530727	0.493648
C30	C	-0.817306	-1.396304	0.628024
C31	C	-0.911520	-1.389999	0.634318
C32	C	-0.200242	-1.504890	0.519521
C33	C	-0.099971	-1.511808	0.512523
C34	C	-0.434648	-1.763168	0.535278
C35	C	-0.434656	-1.879944	0.535285
C36	C	-0.492224	-1.040678	0.606418
C37	C	-0.492242	-0.930953	0.606424
C38	C	-0.377055	-0.938666	0.464129
C39	C	-0.377043	-1.048389	0.464119
C40	C	-0.434670	-1.489227	0.261233
C41	C	-0.434687	-1.489265	0.144457
C42	C	-0.377002	-1.560272	0.975986
C43	C	-0.377032	-1.560337	1.085712
C44	C	-0.492323	-1.418130	1.093472
C45	C	-0.492296	-1.418071	0.983748
H46	H	-0.920313	-1.645771	0.378624
C47	C	-0.765521	-1.608125	0.416275
C48	C	-0.700752	-1.694937	0.457466
C49	C	-0.648950	-1.772334	0.380089
C50	C	-0.661918	-1.762918	0.261520
C51	C	-0.726690	-1.676102	0.220322
C52	C	-0.778492	-1.598706	0.297700
H53	H	-0.691150	-1.701910	0.545244
H54	H	-0.601001	-1.836601	0.410587
H55	H	-0.623571	-1.820212	0.204240
H56	H	-0.736292	-1.669129	0.132545
H57	H	-0.826440	-1.534439	0.267202
H58	H	-0.539271	-1.360266	1.141311
C59	C	-0.555692	-1.339819	0.927665
C60	C	-0.516523	-1.259956	0.849701
C61	C	-0.579919	-1.181712	0.793618
C62	C	-0.682485	-1.183331	0.815499
C63	C	-0.721659	-1.263198	0.893466
C64	C	-0.658263	-1.341442	0.949549
H65	H	-0.440593	-1.258754	0.833500
H66	H	-0.550919	-1.122589	0.735901
H67	H	-0.729414	-1.125411	0.773983
H68	H	-0.797589	-1.264400	0.909667
H69	H	-0.687264	-1.400565	1.007266
C70	C	-1.104642	-1.370371	0.653972
C71	C	-1.091684	-1.251801	0.644582
C72	C	-1.143467	-1.174434	0.722005
C73	C	-1.208208	-1.215637	0.808818
C74	C	-1.221168	-1.334213	0.818212
C75	C	-1.169385	-1.411580	0.740789
H76	H	-1.043757	-1.221294	0.580314
H77	H	-1.133873	-1.086656	0.715050
H78	H	-1.246540	-1.158366	0.866131
H79	H	-1.269095	-1.364720	0.882479
H80	H	-1.178980	-1.499358	0.747743
C81	C	-1.104699	-1.652629	0.371740
C82	C	-1.052894	-1.730025	0.294373
C83	C	-1.104721	-1.800489	0.223923
C84	C	-1.208353	-1.793558	0.230841
C85	C	-1.260164	-1.716159	0.308211
C86	C	-1.208337	-1.645695	0.378661
H87	H	-0.976174	-1.735158	0.289250
H88	H	-1.066367	-1.857785	0.166649
H89	H	-1.246719	-1.845721	0.178689
H90	H	-1.336884	-1.711026	0.313334
H91	H	-1.246691	-1.588399	0.435935
C92	C	-0.313675	-1.112981	0.385854
C93	C	-0.321212	-1.097419	0.266936
C94	C	-0.257850	-1.162009	0.188672
C95	C	-0.186950	-1.242163	0.229326
C96	C	-0.179410	-1.257728	0.348250
C97	C	-0.242773	-1.193138	0.426514
H98	H	-0.373699	-1.038081	0.236835
H99	H	-0.263432	-1.150486	0.100636
H100	H	-0.140045	-1.289977	0.171391
H101	H	-0.126923	-1.317066	0.378351
H102	H	-0.237191	-1.204661	0.514550
C103	C	-0.555599	-0.866368	0.684691
C104	C	-0.618937	-0.922474	0.762948
C105	C	-0.682298	-0.857889	0.841217
C106	C	-0.682323	-0.737198	0.841229
C107	C	-0.618983	-0.681085	0.762968
C108	C	-0.555621	-0.745670	0.684699
H109	H	-0.618921	-1.011823	0.762943
H110	H	-0.729187	-0.899428	0.899151
H111	H	-0.729227	-0.689388	0.899168
H112	H	-0.618999	-0.591735	0.762974
H113	H	-0.508733	-0.704130	0.626765
H114	H	-0.778935	-1.344149	0.680176
C115	C	-0.963320	-1.312612	0.711706
C116	C	-0.950362	-1.194044	0.702294
C117	C	-1.002155	-1.116662	0.779693
C118	C	-1.066906	-1.157848	0.866504
C119	C	-1.079867	-1.276423	0.875920
C120	C	-1.028074	-1.353804	0.798520
H121	H	-0.902426	-1.163549	0.638028
H122	H	-0.992560	-1.028885	0.772723
H123	H	-1.105247	-1.100566	0.923800
H124	H	-1.127803	-1.306917	0.940185
H125	H	-1.037669	-1.441581	0.805491
C126	C	-0.313579	-1.638454	0.911370
C127	C	-0.211021	-1.636858	0.919665
C128	C	-0.147599	-1.715045	0.855052
C129	C	-0.186735	-1.794827	0.782145
C130	C	-0.289299	-1.796426	0.773847
C131	C	-0.352721	-1.718239	0.838460
H132	H	-0.182045	-1.577795	0.973638
H133	H	-0.071674	-1.713861	0.861196
H134	H	-0.139787	-1.852706	0.734315
H135	H	-0.318275	-1.855489	0.719874
H136	H	-0.428646	-1.719423	0.832316
H137	H	-0.539114	-1.082202	0.664352
H138	H	-0.330172	-0.897125	0.406202
H139	H	-0.330106	-1.618261	1.127213
