data_functionalizedCrystal
_audit_creation_method	'MofGen! by Chris Wilmer'
_symmetry_space_group_name_H-M	'P1'
_symmetry_Int_Tables_number	1
_symmetry_cell_setting	triclinic
loop_
_symmetry_equiv_pos_as_xyz
  x,y,z
_cell_length_a	9.065215
_cell_length_b	10.489711
_cell_length_c	8.140239
_cell_angle_alpha	90.000176
_cell_angle_beta	90.001981
_cell_angle_gamma	95.229114
loop_
_atom_site_label
_atom_site_type_symbol
_atom_site_fract_x
_atom_site_fract_y
_atom_site_fract_z
O1	O	-1.959473	0.187028	-0.136571
O2	O	-1.530112	0.202374	-0.136579
O3	O	-1.754586	0.009136	-0.136579
O4	O	-1.735000	0.380266	-0.136571
O5	O	-1.754573	0.009134	0.136648
O6	O	-1.530100	0.202372	0.136648
O7	O	-1.959461	0.187026	0.136656
Zn8	Zn	-1.744778	0.194699	0.180033
Zn9	Zn	-1.744795	0.194702	-0.179956
O10	O	-1.734987	0.380264	0.136656
C11	C	-1.475126	0.200899	0.000033
C12	C	-1.311305	0.196492	0.000030
C13	C	-1.753109	-0.038402	0.000029
C14	C	-1.748712	-0.180049	0.000015
C15	C	-1.883703	-0.361950	0.000034
C16	C	-1.816267	-0.270050	0.134747
C17	C	-1.816243	-0.270071	-0.134633
C18	C	-1.673366	-0.340516	0.134871
C19	C	-1.673362	-0.340547	-0.134631
C20	C	-1.605822	-0.248675	0.000115
C21	C	-1.014447	0.188501	0.000039
C22	C	-1.178268	0.192908	0.000029
C23	C	-1.736464	0.427803	0.000044
C24	C	-1.740861	0.569450	0.000047
N25	N	-1.744778	0.194696	0.425715
N26	N	-1.744807	0.194695	-0.425638
H27	H	-2.001109	-0.411217	0.000170
H28	H	-1.612970	-0.371543	0.248887
O29	O	-1.896327	-0.228769	-0.285497
H30	H	-1.838075	-0.258362	-0.397202
H31	H	-1.612976	-0.371783	-0.248528
O32	O	-1.896319	-0.228695	0.285599
H33	H	-1.933820	-0.314151	0.360159
O34	O	-1.450178	-0.183689	0.000202
H35	H	-1.391256	-0.211911	0.112137
