data_functionalizedCrystal
_audit_creation_method	'MofGen! by Chris Wilmer'
_symmetry_space_group_name_H-M	'P1'
_symmetry_Int_Tables_number	1
_symmetry_cell_setting	triclinic
loop_
_symmetry_equiv_pos_as_xyz
  x,y,z
_cell_length_a	6.817900
_cell_length_b	16.305550
_cell_length_c	10.992421
_cell_angle_alpha	93.823954
_cell_angle_beta	108.764763
_cell_angle_gamma	103.455250
loop_
_atom_site_label
_atom_site_type_symbol
_atom_site_fract_x
_atom_site_fract_y
_atom_site_fract_z
V1	V	-4.053422	-0.263020	-0.178845
O2	O	-4.012705	-0.258025	0.007478
O3	O	-4.031419	-0.261209	-0.353546
O4	O	-4.004484	-0.377737	-0.176583
O5	O	-4.039826	-0.140690	-0.170709
V6	V	-4.533699	-0.248389	-0.156501
O7	O	-4.321800	-0.295112	-0.227859
O8	O	-4.715518	-0.216297	-0.107487
O9	O	-4.332495	-0.250200	0.018201
O10	O	-4.691813	-0.253384	-0.342824
O11	O	-4.664691	-0.370719	-0.164636
O12	O	-4.359430	-0.133672	-0.158762
C13	C	-3.882859	-0.257057	-0.396119
C14	C	-3.946153	-0.256341	-0.538943
C15	C	-3.815151	-0.250572	-0.734207
C16	C	-3.748974	-0.250982	-0.585564
C17	C	-4.034956	-0.177670	-0.577254
C18	C	-4.099384	-0.176836	-0.725794
C19	C	-4.193593	-0.338109	-0.765041
C20	C	-4.124145	-0.339816	-0.616534
C21	C	-3.848500	-0.405698	-0.170384
C22	C	-3.889946	-0.499480	-0.169691
C23	C	-4.040625	-0.840226	-0.167006
C24	C	-3.803366	-0.799298	-0.159034
C25	C	-3.760362	-0.701803	-0.160286
C26	C	-3.965870	-0.671178	-0.168337
C27	C	-4.152184	-0.721796	-0.295225
C28	C	-4.193938	-0.819346	-0.294507
C29	C	-4.077465	-0.794390	-0.049105
C30	C	-4.029383	-0.696548	-0.048101
C31	C	-3.923635	-0.575640	-0.169094
C32	C	-4.082870	-0.935765	-0.166258
C33	C	-4.144398	-0.254350	0.060767
C34	C	-4.060343	-0.255071	0.203590
C35	C	-4.178757	-0.105706	-0.164966
C36	C	-4.116548	-0.011924	-0.165652
H37	H	-3.776409	-0.306437	-0.780857
H38	H	-4.176431	-0.675200	-0.046522
H39	H	-4.271894	-0.348602	-0.586363
H40	H	-3.620002	-0.666785	-0.069055
H41	H	-4.173488	-0.397638	-0.814803
H42	H	-4.061684	-0.398021	-0.592878
H43	H	-4.180378	-0.178577	-0.547022
H44	H	-3.908658	-0.115871	-0.522762
H45	H	-4.003029	-0.114373	-0.743051
H46	H	-4.372489	-0.342232	-0.806175
H47	H	-4.306932	-0.702883	-0.305705
H48	H	-3.614154	-0.191048	-0.532875
H49	H	-3.713207	-0.190688	-0.754520
H50	H	-4.275624	-0.176712	-0.766677
H51	H	-3.683299	-0.811668	-0.067371
H52	H	-4.369466	-0.847337	-0.305635
H53	H	-3.771147	-0.830804	-0.243741
H54	H	-3.706956	-0.685504	-0.245971
H55	H	-4.171356	-0.849721	-0.383761
H56	H	-4.110316	-0.704978	-0.384503
H57	H	-3.971454	-0.807764	0.047037
H58	H	-3.894075	-0.662176	0.045752
H59	H	-3.678851	-0.307196	-0.560032
H60	H	-4.250246	-0.821206	-0.053817
