data_functionalizedCrystal
_audit_creation_method	'MofGen! by Chris Wilmer'
_symmetry_space_group_name_H-M	'P1'
_symmetry_Int_Tables_number	1
_symmetry_cell_setting	triclinic
loop_
_symmetry_equiv_pos_as_xyz
  x,y,z
_cell_length_a	13.635800
_cell_length_b	27.692817
_cell_length_c	11.102315
_cell_angle_alpha	96.808340
_cell_angle_beta	108.606275
_cell_angle_gamma	95.115083
loop_
_atom_site_label
_atom_site_type_symbol
_atom_site_fract_x
_atom_site_fract_y
_atom_site_fract_z
V1	V	2.022457	0.067129	0.397076
O2	O	2.036885	-0.003223	0.388675
O3	O	1.978106	0.133102	0.395171
O4	O	2.011361	0.066097	0.569886
O5	O	2.003400	0.064246	0.212751
V6	V	2.265184	0.058714	0.374931
O7	O	2.150968	0.085588	0.445654
O8	O	2.361772	0.040255	0.326354
O9	O	2.197932	-0.007260	0.376837
O10	O	2.309454	0.129065	0.383332
O11	O	2.342940	0.061597	0.559257
O12	O	2.164676	0.059745	0.202122
V13	V	2.522457	0.067129	0.397076
O14	O	2.536885	-0.003223	0.388675
O15	O	2.478106	0.133102	0.395171
O16	O	2.511361	0.066097	0.569886
O17	O	2.503400	0.064246	0.212751
V18	V	2.765184	0.058714	0.374931
O19	O	2.650968	0.085588	0.445654
O20	O	2.861772	0.040255	0.326354
O21	O	2.697932	-0.007260	0.376837
O22	O	2.809454	0.129065	0.383332
O23	O	2.842940	0.061597	0.559257
O24	O	2.664676	0.059745	0.202122
C25	C	2.112428	-0.023340	0.382888
C26	C	2.097579	-0.077274	0.383303
C27	C	1.905101	-0.459960	0.392548
C28	C	1.960835	-0.257251	0.391032
O29	O	1.894398	-0.228945	0.396204
N30	N	2.054381	-0.234373	0.384470
C31	C	2.133996	-0.262175	0.378279
O32	O	2.214837	-0.238065	0.372650
C33	C	2.078258	-0.464883	0.379786
C34	C	1.984711	-0.487759	0.386361
C35	C	1.811561	-0.482836	0.399121
C36	C	1.797631	-0.533510	0.399507
C37	C	1.877242	-0.561308	0.393320
C38	C	1.970782	-0.538433	0.386747
C39	C	2.157870	-0.492685	0.373585
C40	C	2.143925	-0.543366	0.373959
C41	C	2.050379	-0.566241	0.380535
C42	C	2.036463	-0.616905	0.380946
N43	N	1.942917	-0.639783	0.387507
C44	C	1.863306	-0.611985	0.393695
C45	C	2.163254	-0.155750	0.377490
C46	C	2.177189	-0.105073	0.377116
C47	C	2.004026	-0.100153	0.389867
C48	C	1.990094	-0.150830	0.390250
C49	C	2.069708	-0.178628	0.384052
C50	C	1.834060	-0.718404	0.394506
C51	C	1.820138	-0.769082	0.394897
C52	C	1.993300	-0.773998	0.382139
C53	C	2.007223	-0.723324	0.381755
C54	C	1.927593	-0.695528	0.387935
O55	O	2.102848	-0.645242	0.375763
O56	O	1.782465	-0.636106	0.399294
C57	C	1.919030	-0.409287	0.392162
C58	C	2.012571	-0.386411	0.385589
C59	C	2.092181	-0.414209	0.379402
C60	C	2.026506	-0.335734	0.385214
C61	C	1.946895	-0.307936	0.391402
C62	C	1.853350	-0.330815	0.397963
C63	C	1.839420	-0.381488	0.398349
C64	C	2.185727	-0.391331	0.372840
C65	C	2.199650	-0.340656	0.372456
C66	C	2.120040	-0.312858	0.378643
C67	C	1.895280	0.149185	0.389116
C68	C	1.899749	0.203120	0.388710
C69	C	1.937700	0.063713	0.611980
C70	C	1.969137	0.063306	0.753258
C71	C	2.070008	0.062131	0.160021
C72	C	2.028191	0.062535	0.018742
C73	C	2.395280	0.149185	0.389116
C74	C	2.399749	0.203120	0.388710
C75	C	2.437700	0.063713	0.611980
C76	C	2.469137	0.063306	0.753258
C77	C	2.150758	0.068155	0.766287
C78	C	2.256333	0.070389	0.839173
C79	C	2.285864	0.070006	0.971914
C80	C	2.209811	0.067387	1.031772
C81	C	2.104235	0.065153	0.958886
C82	C	2.074714	0.065537	0.826143
C83	C	1.922616	0.060301	0.945856
C84	C	1.893083	0.060687	0.813115
C85	C	1.846562	0.057681	1.005713
C86	C	1.740985	0.055450	0.932829
C87	C	1.711456	0.055834	0.800079
C88	C	1.787508	0.058452	0.740230
C89	C	2.612428	-0.023340	0.382888
C90	C	2.597579	-0.077274	0.383303
C91	C	2.570008	0.062131	0.160021
C92	C	2.528191	0.062535	0.018742
C93	C	2.492637	0.230922	0.394899
C94	C	2.496854	0.281600	0.394537
C95	C	2.408180	0.304475	0.387976
C96	C	2.315285	0.276670	0.381790
C97	C	2.311071	0.225993	0.382162
C98	C	2.677184	-0.105076	0.377117
C99	C	2.663239	-0.155754	0.377485
C100	C	2.569691	-0.178629	0.384049
C101	C	2.490078	-0.150824	0.390231
C102	C	2.504021	-0.100147	0.389854
C103	C	2.485204	0.152169	0.790669
C104	C	2.508004	0.196407	0.875744
C105	C	2.537542	0.196022	1.008485
C106	C	2.544284	0.151394	1.056152
C107	C	2.521484	0.107156	0.971077
C108	C	2.491943	0.107546	0.838334
C109	C	2.505424	0.018295	0.933667
C110	C	2.475879	0.018678	0.800925
C111	C	2.512166	-0.026333	0.981334
C112	C	2.489360	-0.070572	0.896258
C113	C	2.459819	-0.070186	0.763509
C114	C	2.453080	-0.025560	0.715849
H115	H	1.769223	-0.695777	0.399561
H116	H	1.763475	0.058768	0.632146
H117	H	1.721455	-0.552131	0.404854
H118	H	2.502514	0.232742	0.836919
H119	H	2.568349	0.151085	1.164240
H120	H	2.441261	-0.106210	0.694247
H121	H	2.235427	0.203359	0.377115
H122	H	2.564849	0.212303	0.400233
O123	O	2.118906	0.068574	0.623118
H124	H	2.065910	0.034408	0.571323
O125	O	2.544021	-0.026753	1.124503
H126	H	2.558731	0.011505	1.175656
O127	O	2.562121	0.243733	1.100257
H128	H	2.552463	0.274830	1.044817
H129	H	2.572501	0.304232	0.399571
H130	H	2.494858	-0.106905	0.935081
H131	H	2.411625	0.345740	0.387675
O132	O	2.219647	0.301344	0.374717
H133	H	2.238192	0.341253	0.375488
O134	O	2.338363	0.073212	0.774617
H135	H	2.335267	0.106727	0.728440
O136	O	2.418158	-0.070163	0.396544
H137	H	2.447574	-0.041777	0.483765
H138	H	1.679071	0.053315	0.981574
O139	O	2.778082	-0.080410	0.370021
H140	H	2.831078	-0.108264	0.365763
H141	H	2.371831	0.071825	1.031258
O142	O	2.278090	-0.080405	0.370032
H143	H	2.274419	-0.040495	0.370816
H144	H	2.429021	-0.025241	0.607766
H145	H	2.083401	-0.704697	0.376418
O146	O	2.249154	-0.185720	0.370851
H147	H	2.266169	-0.182347	0.280652
H148	H	1.743961	-0.787704	0.400255
O149	O	2.453334	0.152582	0.647496
H150	H	2.452480	0.191044	0.628642
H151	H	2.728075	-0.178386	0.372453
H152	H	2.558351	-0.219894	0.384355
O153	O	2.079160	-0.803985	0.375456
H154	H	2.053743	-0.843066	0.376812
H155	H	1.625485	0.054003	0.740738
O156	O	2.389190	-0.175497	0.397337
H157	H	2.392888	-0.215404	0.396582
H158	H	1.746725	-0.460208	0.404158
O159	O	2.258758	-0.468021	0.366472
H160	H	2.311756	-0.495874	0.362211
H161	H	1.913922	-0.169452	0.395605
H162	H	1.870614	0.057367	1.113798
O163	O	1.918155	-0.070167	0.396534
H164	H	1.943567	-0.031087	0.395159
H165	H	1.763246	-0.400109	0.403703
O166	O	2.229804	-0.573348	0.367301
H167	H	2.297193	-0.548922	0.362684
O168	O	1.767483	-0.300828	0.404642
H169	H	1.792895	-0.261748	0.403263
H170	H	2.250559	-0.413959	0.367801
O171	O	2.300550	-0.315986	0.365355
H172	H	2.353555	-0.343835	0.361102
H173	H	2.233863	0.067070	1.139855
