data_functionalizedCrystal
_audit_creation_method	'MofGen! by Chris Wilmer'
_symmetry_space_group_name_H-M	'P1'
_symmetry_Int_Tables_number	1
_symmetry_cell_setting	triclinic
loop_
_symmetry_equiv_pos_as_xyz
  x,y,z
_cell_length_a	19.805407
_cell_length_b	18.050590
_cell_length_c	18.050583
_cell_angle_alpha	89.959203
_cell_angle_beta	90.015185
_cell_angle_gamma	89.980192
loop_
_atom_site_label
_atom_site_type_symbol
_atom_site_fract_x
_atom_site_fract_y
_atom_site_fract_z
Zn1	Zn	1.034737	0.295659	0.419873
Zn2	Zn	1.534737	0.795659	0.919873
Zn3	Zn	1.034664	0.419872	0.295673
Zn4	Zn	1.534664	0.919872	0.795673
Zn5	Zn	0.921556	0.295695	0.295699
Zn6	Zn	1.421556	0.795695	0.795699
Zn7	Zn	0.921523	0.419806	0.419823
Zn8	Zn	1.421523	0.919806	0.919823
O9	O	0.978120	0.357758	0.357767
O10	O	1.478120	0.857758	0.857767
O11	O	1.129444	0.312149	0.403407
O12	O	1.629444	0.812149	0.903407
O13	O	1.019644	0.403442	0.191752
O14	O	1.519644	0.903442	0.691752
O15	O	0.936614	0.191766	0.312202
O16	O	1.436614	0.691766	0.812202
O17	O	1.129390	0.403408	0.312158
O18	O	1.629390	0.903408	0.812158
O19	O	1.019767	0.191739	0.403432
O20	O	1.519767	0.691739	0.903432
O21	O	0.936544	0.312210	0.191771
O22	O	1.436544	0.812210	0.691771
O23	O	0.826835	0.312146	0.312154
O24	O	1.326835	0.812146	0.812154
O25	O	0.936557	0.403295	0.523754
O26	O	1.436557	0.903295	1.023754
O27	O	0.826810	0.403330	0.403348
O28	O	1.326810	0.903330	0.903348
O29	O	1.019735	0.312085	0.523791
O30	O	1.519735	0.812085	1.023791
O31	O	1.019611	0.523788	0.312110
O32	O	1.519611	1.023788	0.812110
O33	O	0.936487	0.523740	0.403323
O34	O	1.436487	1.023740	0.903323
C35	C	0.802264	0.357735	0.357749
C36	C	1.302264	0.857735	0.857749
C37	C	0.727032	0.357743	0.357759
C38	C	1.227032	0.857743	0.857759
C39	C	0.691716	0.310309	0.405344
C40	C	1.191716	0.810309	0.905344
C41	C	0.621028	0.310312	0.405347
C42	C	1.121028	0.810312	0.905347
C43	C	0.585656	0.357755	0.357768
C44	C	1.085656	0.857755	0.857768
C45	C	0.620977	0.405192	0.310177
C46	C	1.120977	0.905192	0.810177
C47	C	0.691664	0.405183	0.310171
C48	C	1.191664	0.905183	0.810171
C49	C	0.335904	0.405225	0.310200
C50	C	0.835904	0.905225	0.810200
C51	C	0.265212	0.405231	0.310211
C52	C	0.765212	0.905231	0.810211
C53	C	0.265267	0.310354	0.405376
C54	C	0.765267	0.810354	0.905376
C55	C	0.335954	0.310346	0.405370
C56	C	0.835954	0.810346	0.905370
C57	C	0.371269	0.357779	0.357777
C58	C	0.871269	0.857779	0.857777
C59	C	0.447917	0.357773	0.357773
C60	C	0.947917	0.857773	0.857773
C61	C	0.509009	0.357765	0.357774
C62	C	1.009009	0.857765	0.857774
C63	C	0.978056	0.550710	0.357725
C64	C	1.478056	1.050710	0.857725
C65	C	0.978090	0.633256	0.357731
C66	C	1.478090	1.133256	0.857731
C67	C	1.023375	0.832706	0.308186
C68	C	1.523375	1.332706	0.808186
C69	C	1.039902	0.882029	0.375963
C70	C	1.539902	1.382029	0.875963
C71	C	0.978119	0.784386	0.357751
C72	C	1.478119	1.284386	0.857751
C73	C	0.961652	0.882145	0.289995
C74	C	1.461652	1.382145	0.789995
C75	C	0.978149	0.930372	0.357764
C76	C	1.478149	1.430372	0.857764
C77	C	0.994678	0.832622	0.425563
C78	C	1.494678	1.332622	0.925563
C79	C	0.916399	0.832734	0.339550
C80	C	1.416399	1.332734	0.839550
C81	C	0.932903	0.882035	0.407374
C82	C	1.432903	1.382035	0.907374
C83	C	0.978104	0.700288	0.357743
C84	C	1.478104	1.200288	0.857743
C85	C	0.978164	1.014468	0.357780
C86	C	1.478164	1.514468	0.857780
C87	C	1.154663	0.357782	0.357785
C88	C	1.654663	0.857782	0.857785
C89	C	1.229895	0.357792	0.357793
C90	C	1.729895	0.857792	0.857793
C91	C	0.978150	0.357679	0.551473
C92	C	1.478150	0.857679	1.051473
C93	C	0.978163	0.357645	0.634018
C94	C	1.478163	0.857645	1.134018
C95	C	0.978187	1.164053	0.357809
C96	C	1.478187	1.664053	0.857809
C97	C	0.978175	1.081507	0.357785
C98	C	1.478175	1.581507	0.857785
C99	C	0.978129	0.357784	0.164815
C100	C	1.478129	0.857784	0.664815
C101	C	0.978248	0.357608	0.082269
C102	C	1.478248	0.857608	0.582269
C103	C	1.023440	0.308021	0.833489
C104	C	1.523440	0.808021	1.333489
C105	C	0.961706	0.289842	0.882886
C106	C	1.461706	0.789842	1.382886
C107	C	0.978190	0.357632	0.785149
C108	C	1.478190	0.857632	1.285149
C109	C	1.039949	0.375765	0.882833
C110	C	1.539949	0.875765	1.382833
C111	C	0.978221	0.357619	0.931134
C112	C	1.478221	0.857619	1.431134
C113	C	0.916423	0.339418	0.833459
C114	C	1.416423	0.839418	1.333459
C115	C	0.994707	0.425373	0.833402
C116	C	1.494707	0.925373	1.333402
C117	C	0.932931	0.407219	0.882777
C118	C	1.432931	0.907219	1.382777
C119	C	0.978172	0.357638	0.701050
C120	C	1.478172	0.857638	1.201050
C121	C	0.978232	0.357613	1.015231
C122	C	1.478232	0.857613	1.515231
H123	H	0.720510	0.271677	0.444091
H124	H	1.220510	0.771677	0.944091
C125	C	0.942502	0.213512	0.989809
C126	C	1.442502	0.713512	1.489809
C127	C	0.942871	0.212503	0.912245
C128	C	1.442871	0.712503	1.412245
H129	H	0.930878	0.165765	1.007933
H130	H	1.430878	0.665765	1.507933
H131	H	0.986049	0.226748	1.007426
H132	H	1.486049	0.726748	1.507426
H133	H	0.910320	0.248698	1.006671
H134	H	1.410320	0.748698	1.506671
H135	H	0.975057	0.177319	0.895383
H136	H	1.475057	0.677319	1.395383
H137	H	0.899318	0.199256	0.894620
H138	H	1.399318	0.699256	1.394620
H139	H	1.008686	0.482649	0.811651
H140	H	1.508686	0.982649	1.311651
C141	C	0.599314	0.274295	0.531173
C142	C	1.099314	0.774295	1.031173
C143	C	0.582210	0.258173	0.457659
C144	C	1.082210	0.758173	0.957659
H145	H	0.575346	0.242106	0.563468
H146	H	1.075346	0.742106	1.063468
H147	H	0.646469	0.267502	0.537972
H148	H	1.146469	0.767502	1.037972
H149	H	0.587714	0.324208	0.541937
H150	H	1.087714	0.824208	1.041937
H151	H	0.593814	0.208261	0.446893
H152	H	1.093814	0.708261	0.946893
H153	H	0.535044	0.264960	0.450856
H154	H	1.035044	0.764960	0.950856
C155	C	0.942454	0.989074	0.213636
C156	C	1.442454	1.489074	0.713636
C157	C	0.942830	0.911509	0.212636
C158	C	1.442830	1.411509	0.712636
H159	H	0.930843	1.007199	0.165876
H160	H	1.430843	1.507199	0.665876
H161	H	0.910268	1.005957	0.248786
H162	H	1.410268	1.505957	0.748786
H163	H	0.986003	1.006668	0.226913
H164	H	1.486003	1.506668	0.726913
H165	H	0.899280	0.893914	0.199365
H166	H	1.399280	1.393914	0.699365
H167	H	0.975018	0.894619	0.177475
H168	H	1.475018	1.394619	0.677475
C169	C	1.107370	0.863288	0.217286
C170	C	1.607370	1.363288	0.717286
C171	C	1.075060	0.803459	0.251666
C172	C	1.575060	1.303459	0.751666
H173	H	1.139281	0.845230	0.182400
H174	H	1.639281	1.345230	0.682400
H175	H	1.074819	0.893002	0.192536
H176	H	1.574819	1.393002	0.692536
H177	H	1.129933	0.892201	0.253608
H178	H	1.629933	1.392201	0.753608
H179	H	1.052493	0.774549	0.215345
H180	H	1.552493	1.274549	0.715345
H181	H	1.107616	0.773733	0.276417
H182	H	1.607616	1.273733	0.776417
C183	C	0.897973	0.534567	0.885737
C184	C	1.397973	1.034567	1.385737
C185	C	0.881236	0.463846	0.911823
C186	C	1.381236	0.963846	1.411823
H187	H	0.866055	0.569521	0.903670
H188	H	1.366055	1.069521	1.403670
H189	H	0.941785	0.547559	0.902735
H190	H	1.441785	1.047559	1.402735
H191	H	0.897417	0.534584	0.833114
H192	H	1.397417	1.034584	1.333114
H193	H	0.881796	0.463828	0.964447
H194	H	1.381796	0.963828	1.464447
H195	H	0.837413	0.450851	0.894829
H196	H	1.337413	0.950851	1.394829
C197	C	0.357765	0.274305	0.531190
C198	C	0.857765	0.774305	1.031190
C199	C	0.374832	0.258193	0.457670
C200	C	0.874832	0.758193	0.957670
H201	H	0.381763	0.242102	0.563475
H202	H	0.881763	0.742102	1.063475
H203	H	0.369347	0.324207	0.541961
H204	H	0.869347	0.824207	1.041961
H205	H	0.310611	0.267520	0.537994
H206	H	0.810611	0.767520	1.037994
H207	H	0.421986	0.264984	0.450864
H208	H	0.921986	0.764984	0.950864
H209	H	0.363255	0.208279	0.446895
H210	H	0.863255	0.708279	0.946895
H211	H	0.236506	0.271729	0.444126
H212	H	0.736506	0.771729	0.944126
H213	H	1.092110	0.903685	0.391367
H214	H	1.592110	1.403685	0.891367
H215	H	0.864193	0.324009	0.811861
H216	H	1.364193	0.824009	1.311861
H217	H	0.894644	0.903557	0.449343
H218	H	1.394644	1.403557	0.949343
C219	C	1.013428	0.725820	0.502228
C220	C	1.513428	1.225820	1.002228
C221	C	1.013586	0.803389	0.502946
C222	C	1.513586	1.303389	1.002946
H223	H	1.025107	0.707774	0.549999
H224	H	1.525107	1.207774	1.049999
H225	H	0.969715	0.708537	0.489222
H226	H	1.469715	1.208537	0.989222
H227	H	1.045366	0.708545	0.466985
H228	H	1.545366	1.208545	0.966985
H229	H	0.981645	0.820665	0.538186
H230	H	1.481645	1.320665	1.038186
H231	H	1.057305	0.820679	0.515962
H232	H	1.557305	1.320679	1.015962
C233	C	1.157715	0.344458	0.887227
C234	C	1.657715	0.844458	1.387227
C235	C	1.110436	0.396483	0.912110
C236	C	1.610436	0.896483	1.412110
H237	H	1.201232	0.357248	0.905297
H238	H	1.701232	0.857248	1.405297
H239	H	1.145682	0.296679	0.904901
H240	H	1.645682	0.796679	1.404901
H241	H	1.158303	0.344174	0.834605
H242	H	1.658303	0.844174	1.334605
H243	H	1.109845	0.396764	0.964733
H244	H	1.609845	0.896764	1.464733
H245	H	1.122472	0.444275	0.894440
H246	H	1.622472	0.944275	1.394440
C247	C	0.272253	0.499008	0.216122
C248	C	0.772253	0.999008	0.716122
C249	C	0.226330	0.457379	0.257902
C250	C	0.726330	0.957379	0.757902
H251	H	0.248248	0.531196	0.183829
H252	H	0.748248	1.031196	0.683829
H253	H	0.299827	0.527453	0.248418
H254	H	0.799827	1.027453	0.748418
H255	H	0.299823	0.466605	0.187776
H256	H	0.799823	0.966605	0.687776
H257	H	0.198764	0.489781	0.286253
H258	H	0.698764	0.989781	0.786253
H259	H	0.198744	0.428931	0.225602
H260	H	0.698744	0.928931	0.725602
H261	H	0.364649	0.443849	0.271447
H262	H	0.864649	0.943849	0.771447
C263	C	0.828782	0.828424	0.247708
C264	C	1.328782	1.328424	0.747708
C265	C	0.845943	0.803468	0.318728
C266	C	1.345943	1.303468	0.818728
H267	H	0.785287	0.810351	0.234847
H268	H	1.285287	1.310351	0.734847
H269	H	0.828379	0.881039	0.247119
H270	H	1.328379	1.381039	0.747119
H271	H	0.861038	0.810795	0.212993
H272	H	1.361038	1.310795	0.712993
H273	H	0.813690	0.821102	0.353444
H274	H	1.313690	1.321102	0.853444
H275	H	0.846341	0.750842	0.319323
H276	H	1.346341	1.250842	0.819323
C277	C	1.041803	0.198682	0.760539
C278	C	1.541803	0.698682	1.260539
C279	C	1.075015	0.251354	0.804261
C280	C	1.575015	0.751354	1.304261
H281	H	1.073642	0.163702	0.742491
H282	H	1.573642	0.663702	1.242491
H283	H	1.008754	0.173901	0.789516
H284	H	1.508754	0.673901	1.289516
H285	H	1.020498	0.222725	0.719951
H286	H	1.520498	0.722725	1.219951
H287	H	1.096315	0.227313	0.844853
H288	H	1.596315	0.727313	1.344853
H289	H	1.108076	0.276138	0.775283
H290	H	1.608076	0.776138	1.275283
C291	C	0.512596	0.447338	0.267933
C292	C	1.012596	0.947338	0.767933
C293	C	0.582099	0.457343	0.257877
C294	C	1.082099	0.957343	0.757877
H295	H	0.488596	0.479540	0.235648
H296	H	0.988596	0.979540	0.735648
H297	H	0.501021	0.397435	0.257156
H298	H	1.001021	0.897435	0.757156
H299	H	0.501033	0.458267	0.317815
H300	H	1.001033	0.958267	0.817815
H301	H	0.593662	0.446409	0.207996
H302	H	1.093662	0.946409	0.707996
H303	H	0.593678	0.507257	0.268649
H304	H	1.093678	1.007257	0.768649
H305	H	0.720418	0.443809	0.271421
H306	H	1.220418	0.943809	0.771421
