data_functionalizedCrystal
_audit_creation_method	'MofGen! by Chris Wilmer'
_symmetry_space_group_name_H-M	'P1'
_symmetry_Int_Tables_number	1
_symmetry_cell_setting	triclinic
loop_
_symmetry_equiv_pos_as_xyz
  x,y,z
_cell_length_a	11.169417
_cell_length_b	25.639239
_cell_length_c	11.169417
_cell_angle_alpha	90.014562
_cell_angle_beta	90.000863
_cell_angle_gamma	90.039565
loop_
_atom_site_label
_atom_site_type_symbol
_atom_site_fract_x
_atom_site_fract_y
_atom_site_fract_z
Zn1	Zn	1.834501	-0.208224	0.678484
Zn2	Zn	1.834358	-0.295636	0.477777
Zn3	Zn	1.633854	-0.208218	0.477819
Zn4	Zn	1.633695	-0.295631	0.678422
O5	O	1.734102	-0.251927	0.578125
O6	O	2.002432	-0.219824	0.651869
O7	O	1.807767	-0.284040	0.309833
O8	O	1.660596	-0.135053	0.504481
O9	O	2.002326	-0.284045	0.504410
O10	O	1.808011	-0.135058	0.651909
O11	O	1.660457	-0.219814	0.309863
O12	O	1.465883	-0.219809	0.504420
O13	O	1.660327	-0.284037	0.846380
O14	O	1.465767	-0.284031	0.651802
O15	O	1.807858	-0.219819	0.846425
O16	O	1.807613	-0.368801	0.504349
O17	O	1.660187	-0.368797	0.651762
C18	C	1.422277	-0.251919	0.578110
C19	C	1.288877	-0.251929	0.578132
C20	C	1.733900	-0.387770	0.578070
C21	C	1.733924	-0.445884	0.578087
C22	C	1.811067	-0.806236	0.501498
C23	C	1.811113	-0.860841	0.501514
O24	O	1.876494	-0.889068	0.436336
N25	N	1.734313	-0.888166	0.578205
C26	C	1.657470	-0.860885	0.654893
O27	O	1.592150	-0.889142	0.720126
C28	C	1.657430	-0.806282	0.654882
C29	C	1.734227	-0.778959	0.578178
C30	C	1.887858	-0.778913	0.424801
C31	C	1.887810	-0.724313	0.424784
C32	C	1.810970	-0.697035	0.501464
C33	C	1.734178	-0.724358	0.578161
C34	C	1.580594	-0.779001	0.731575
C35	C	1.580561	-0.724394	0.731558
C36	C	1.657358	-0.697071	0.654854
C37	C	1.657290	-0.642480	0.654823
N38	N	1.734090	-0.615154	0.578132
C39	C	1.810930	-0.642432	0.501453
C40	C	1.657560	-0.975556	0.654911
C41	C	1.657593	-1.030158	0.654917
C42	C	1.811238	-1.030110	0.501540
C43	C	1.811199	-0.975506	0.501529
C44	C	1.734360	-0.948230	0.578221
C45	C	1.810822	-0.527767	0.501421
C46	C	1.810764	-0.473161	0.501407
C47	C	1.657123	-0.473214	0.654789
C48	C	1.657177	-0.527815	0.654799
C49	C	1.734036	-0.555090	0.578111
O50	O	1.591946	-0.614218	0.719972
O51	O	1.876250	-0.614169	0.436241
C52	C	2.047144	-0.251936	0.578141
C53	C	2.180544	-0.251939	0.578148
C54	C	1.734090	-0.251928	0.891168
C55	C	1.734086	-0.251928	1.024568
C56	C	1.734337	-0.115554	0.578207
C57	C	1.734438	-0.057440	0.578241
C58	C	1.734099	-0.251936	1.266301
C59	C	1.734089	-0.251929	1.132901
H60	H	1.873301	-0.450917	0.438941
Cl61	Cl	1.907748	-0.941163	0.405099
H62	H	1.518051	-0.801238	0.794030
Cl63	Cl	1.483960	-0.690107	0.827979
Cl64	Cl	1.560607	-0.562165	0.751203
H65	H	1.873810	-1.052329	0.439107
H66	H	1.950437	-0.801117	0.362359
H67	H	1.873411	-0.549968	0.438978
H68	H	1.595046	-1.052400	0.717366
H69	H	1.950348	-0.702069	0.362329
Cl70	Cl	1.560943	-0.941271	0.751324
Cl71	Cl	1.560536	-0.438913	0.751187
