data_functionalizedCrystal
_audit_creation_method	'MofGen! by Chris Wilmer'
_symmetry_space_group_name_H-M	'P1'
_symmetry_Int_Tables_number	1
_symmetry_cell_setting	triclinic
loop_
_symmetry_equiv_pos_as_xyz
  x,y,z
_cell_length_a	12.759401
_cell_length_b	25.639239
_cell_length_c	25.639233
_cell_angle_alpha	89.981253
_cell_angle_beta	89.988407
_cell_angle_gamma	90.040211
loop_
_atom_site_label
_atom_site_type_symbol
_atom_site_fract_x
_atom_site_fract_y
_atom_site_fract_z
Zn1	Zn	1.605994	-0.208193	-0.295595
Zn2	Zn	1.939328	0.125140	0.037739
Zn3	Zn	2.272661	0.458474	0.371072
Zn4	Zn	1.605841	-0.295612	-0.208159
Zn5	Zn	1.939174	0.037721	0.125174
Zn6	Zn	2.272507	0.371055	0.458508
Zn7	Zn	1.430322	-0.208195	-0.208175
Zn8	Zn	1.763655	0.125139	0.125158
Zn9	Zn	2.096988	0.458472	0.458492
Zn10	Zn	1.430211	-0.295602	-0.295565
Zn11	Zn	1.763545	0.037732	0.037768
Zn12	Zn	2.096878	0.371065	0.371101
O13	O	1.518092	-0.251900	-0.251874
O14	O	1.851425	0.081433	0.081460
O15	O	2.184759	0.414766	0.414793
O16	O	1.752995	-0.219793	-0.284002
O17	O	2.086328	0.113540	0.049331
O18	O	2.419662	0.446874	0.382665
O19	O	1.582539	-0.284021	-0.134996
O20	O	1.915873	0.049313	0.198337
O21	O	2.249206	0.382646	0.531671
O22	O	1.453736	-0.135029	-0.219790
O23	O	1.787069	0.198304	0.113543
O24	O	2.120402	0.531637	0.446876
O25	O	1.752882	-0.284019	-0.219763
O26	O	2.086215	0.049314	0.113570
O27	O	2.419549	0.382647	0.446903
O28	O	1.582801	-0.135028	-0.284017
O29	O	1.916135	0.198305	0.049316
O30	O	2.249468	0.531639	0.382649
O31	O	1.453586	-0.219796	-0.135008
O32	O	1.786920	0.113538	0.198326
O33	O	2.120253	0.446871	0.531659
O34	O	1.283286	-0.219786	-0.219762
O35	O	1.616619	0.113548	0.113572
O36	O	1.949953	0.446881	0.446905
O37	O	1.453548	-0.284002	-0.368734
O38	O	1.786881	0.049331	-0.035401
O39	O	2.120214	0.382665	0.297932
O40	O	1.283205	-0.284003	-0.283967
O41	O	1.616538	0.049330	0.049366
O42	O	1.949872	0.382663	0.382700
O43	O	1.582694	-0.219783	-0.368756
O44	O	1.916028	0.113550	-0.035423
O45	O	2.249361	0.446883	0.297911
O46	O	1.582432	-0.368776	-0.219735
O47	O	1.915766	-0.035442	0.113599
O48	O	2.249099	0.297891	0.446932
O49	O	1.453398	-0.368768	-0.283952
O50	O	1.786732	-0.035435	0.049382
O51	O	2.120065	0.297898	0.382715
C52	C	1.245125	-0.251894	-0.251863
C53	C	1.578458	0.081439	0.081470
C54	C	1.911791	0.414773	0.414804
C55	C	1.128348	-0.251904	-0.251871
C56	C	1.461681	0.081429	0.081462
C57	C	1.795015	0.414763	0.414796
C58	C	1.073471	-0.285393	-0.285250
C59	C	1.406805	0.047941	0.048083
C60	C	1.740138	0.381274	0.381417
C61	C	0.963747	-0.285395	-0.285260
C62	C	1.297081	0.047939	0.048073
C63	C	1.630414	0.381272	0.381406
C64	C	0.963786	-0.218417	-0.218508
C65	C	1.297120	0.114916	0.114825
C66	C	1.630453	0.448249	0.448158
C67	C	1.073508	-0.218413	-0.218501
C68	C	1.406842	0.114920	0.114832
C69	C	1.740175	0.448253	0.448166
C70	C	1.517915	-0.387743	-0.251850
C71	C	1.851249	-0.054410	0.081484
C72	C	2.184582	0.278924	0.414817
C73	C	1.517936	-0.445857	-0.251857
C74	C	1.851269	-0.112524	0.081477
C75	C	2.184602	0.220810	0.414810
C76	C	1.585455	-0.806211	-0.218493
C77	C	1.918789	-0.472878	0.114841
C78	C	2.252122	-0.139545	0.448174
C79	C	1.585496	-0.860816	-0.218500
C80	C	1.918829	-0.527482	0.114834
C81	C	2.252163	-0.194149	0.448167
O82	O	1.642720	-0.889045	-0.190106
O83	O	1.976053	-0.555712	0.143227
O84	O	2.309387	-0.222378	0.476560
N85	N	1.518277	-0.888139	-0.251908
N86	N	1.851610	-0.554806	0.081425
N87	N	2.184943	-0.221473	0.414759
C88	C	1.451020	-0.860856	-0.285315
C89	C	1.784353	-0.527523	0.048018
C90	C	2.117686	-0.194189	0.381351
O91	O	1.393849	-0.889111	-0.313733
O92	O	1.727182	-0.555778	0.019600
O93	O	2.060515	-0.222444	0.352934
C94	C	1.450985	-0.806253	-0.285311
C95	C	1.784318	-0.472919	0.048023
C96	C	2.117652	-0.139586	0.381356
C97	C	1.518201	-0.778932	-0.251896
C98	C	1.851535	-0.445598	0.081437
C99	C	2.184868	-0.112265	0.414770
C100	C	1.652667	-0.778890	-0.185082
C101	C	1.986000	-0.445557	0.148252
C102	C	2.319333	-0.112224	0.481585
C103	C	1.652624	-0.724290	-0.185074
C104	C	1.985958	-0.390957	0.148259
C105	C	2.319291	-0.057623	0.481593
C106	C	1.585370	-0.697010	-0.218478
C107	C	1.918704	-0.363677	0.114856
C108	C	2.252037	-0.030344	0.448189
C109	C	1.518159	-0.724331	-0.251889
C110	C	1.851492	-0.390998	0.081444
C111	C	2.184826	-0.057665	0.414778
C112	C	1.383734	-0.778970	-0.318720
C113	C	1.717068	-0.445637	0.014613
C114	C	2.050401	-0.112304	0.347946
C115	C	1.383706	-0.724363	-0.318713
C116	C	1.717039	-0.391030	0.014620
C117	C	2.050373	-0.057697	0.347954
C118	C	1.450922	-0.697042	-0.285299
C119	C	1.784255	-0.363709	0.048035
C120	C	2.117589	-0.030376	0.381368
C121	C	1.450863	-0.642451	-0.285285
C122	C	1.784196	-0.309118	0.048048
C123	C	2.117529	0.024216	0.381382
N124	N	1.518082	-0.615127	-0.251877
N125	N	1.851415	-0.281794	0.081457
N126	N	2.184749	0.051539	0.414790
C127	C	1.585336	-0.642407	-0.218473
C128	C	1.918669	-0.309074	0.114860
C129	C	2.252003	0.024260	0.448194
C130	C	1.451099	-0.975527	-0.285324
C131	C	1.784432	-0.642193	0.048010
C132	C	2.117766	-0.308860	0.381343
C133	C	1.451127	-1.030129	-0.285326
C134	C	1.784461	-0.696796	0.048007
C135	C	2.117794	-0.363462	0.381341
C136	C	1.585605	-1.030085	-0.218511
C137	C	1.918939	-0.696751	0.114822
C138	C	2.252272	-0.363418	0.448156
C139	C	1.585571	-0.975482	-0.218506
C140	C	1.918904	-0.642148	0.114827
C141	C	2.252237	-0.308815	0.448161
C142	C	1.518318	-0.948203	-0.251915
C143	C	1.851652	-0.614870	0.081418
C144	C	2.184985	-0.281536	0.414752
C145	C	1.585241	-0.527742	-0.218459
C146	C	1.918575	-0.194409	0.114874
C147	C	2.251908	0.138925	0.448207
C148	C	1.585190	-0.473137	-0.218453
C149	C	1.918523	-0.139803	0.114880
C150	C	2.251856	0.193530	0.448213
C151	C	1.450716	-0.473185	-0.285270
C152	C	1.784050	-0.139852	0.048063
C153	C	2.117383	0.193481	0.381397
C154	C	1.450763	-0.527786	-0.285274
C155	C	1.784097	-0.194453	0.048059
C156	C	2.117430	0.138881	0.381392
C157	C	1.518034	-0.555063	-0.251867
C158	C	1.851368	-0.221730	0.081466
C159	C	2.184701	0.111604	0.414799
O160	O	1.393671	-0.614187	-0.313666
O161	O	1.727004	-0.280854	0.019668
O162	O	2.060337	0.052480	0.353001
O163	O	1.642507	-0.614145	-0.190065
O164	O	1.975840	-0.280812	0.143268
O165	O	2.309174	0.052521	0.476602
C166	C	1.792125	-0.251907	-0.251884
C167	C	2.125459	0.081426	0.081449
C168	C	2.458792	0.414759	0.414782
C169	C	1.908902	-0.251910	-0.251889
C170	C	2.242235	0.081423	0.081445
C171	C	2.575569	0.414757	0.414778
C172	C	1.518126	-0.251891	-0.388247
C173	C	1.851459	0.081442	-0.054913
C174	C	2.184793	0.414775	0.278420
C175	C	1.518140	-0.251887	-0.446361
C176	C	1.851474	0.081446	-0.113027
C177	C	2.184807	0.414779	0.220306
C178	C	1.518298	-0.115527	-0.251909
C179	C	1.851631	0.217806	0.081424
C180	C	2.184965	0.551139	0.414758
C181	C	1.518386	-0.057413	-0.251924
C182	C	1.851719	0.275920	0.081409
C183	C	2.185052	0.609253	0.414743
C184	C	1.585472	-0.218349	-0.806741
C185	C	1.918806	0.114984	-0.473407
C186	C	2.252139	0.448317	-0.140074
C187	C	1.585485	-0.218335	-0.861345
C188	C	1.918819	0.114999	-0.528012
C189	C	2.252152	0.448332	-0.194678
O190	O	1.642649	-0.189881	-0.889596
O191	O	1.975982	0.143452	-0.556263
O192	O	2.309315	0.476785	-0.222930
N193	N	1.518256	-0.251765	-0.888643
N194	N	1.851589	0.081569	-0.555310
N195	N	2.184923	0.414902	-0.221977
C196	C	1.451002	-0.285208	-0.861334
C197	C	1.784335	0.048126	-0.528001
C198	C	2.117669	0.381459	-0.194668
O199	O	1.393819	-0.313641	-0.889567
O200	O	1.727152	0.019693	-0.556234
O201	O	2.060485	0.353026	-0.222901
C202	C	1.450985	-0.285219	-0.806731
C203	C	1.784318	0.048114	-0.473398
C204	C	2.117651	0.381448	-0.140064
C205	C	1.518226	-0.251791	-0.779436
C206	C	1.851559	0.081543	-0.446102
C207	C	2.184892	0.414876	-0.112769
C208	C	1.652707	-0.184923	-0.779445
C209	C	1.986041	0.148410	-0.446112
C210	C	2.319374	0.481743	-0.112779
C211	C	1.652695	-0.184939	-0.724845
C212	C	1.986029	0.148395	-0.391512
C213	C	2.319362	0.481728	-0.058178
C214	C	1.585449	-0.218380	-0.697540
C215	C	1.918782	0.114953	-0.364206
C216	C	2.252115	0.448287	-0.030873
C217	C	1.518214	-0.251806	-0.724835
C218	C	1.851547	0.081527	-0.391502
C219	C	2.184880	0.414861	-0.058168
C220	C	1.383726	-0.318659	-0.779423
C221	C	1.717059	0.014675	-0.446090
C222	C	2.050393	0.348008	-0.112756
C223	C	1.383714	-0.318667	-0.724816
C224	C	1.717047	0.014666	-0.391483
C225	C	2.050380	0.348000	-0.058149
C226	C	1.450955	-0.285239	-0.697521
C227	C	1.784288	0.048095	-0.364187
C228	C	2.117621	0.381428	-0.030854
C229	C	1.450955	-0.285262	-0.642929
C230	C	1.784289	0.048071	-0.309596
C231	C	2.117622	0.381404	0.023737
N232	N	1.518184	-0.251833	-0.615631
N233	N	1.851518	0.081501	-0.282298
N234	N	2.184851	0.414834	0.051036
C235	C	1.585431	-0.218391	-0.642936
C236	C	1.918764	0.114942	-0.309603
C237	C	2.252098	0.448275	0.023730
C238	C	1.451043	-0.285180	-0.976005
C239	C	1.784376	0.048153	-0.642672
C240	C	2.117709	0.381486	-0.309338
C241	C	1.451065	-0.285172	-1.030607
C242	C	1.784398	0.048161	-0.697274
C243	C	2.117731	0.381495	-0.363941
C244	C	1.585547	-0.218298	-1.030614
C245	C	1.918880	0.115035	-0.697281
C246	C	2.252213	0.448368	-0.363948
C247	C	1.585529	-0.218310	-0.976011
C248	C	1.918863	0.115024	-0.642678
C249	C	2.252196	0.448357	-0.309344
C250	C	1.518272	-0.251750	-0.948707
C251	C	1.851605	0.081583	-0.615373
C252	C	2.184938	0.414916	-0.282040
C253	C	1.585402	-0.218426	-0.528271
C254	C	1.918735	0.114907	-0.194938
C255	C	2.252068	0.448240	0.138395
C256	C	1.585387	-0.218446	-0.473666
C257	C	1.918720	0.114887	-0.140332
C258	C	2.252054	0.448221	0.193001
C259	C	1.450901	-0.285317	-0.473663
C260	C	1.784235	0.048016	-0.140330
C261	C	2.117568	0.381349	0.193003
C262	C	1.450920	-0.285300	-0.528264
C263	C	1.784253	0.048034	-0.194931
C264	C	2.117586	0.381367	0.138403
C265	C	1.518173	-0.251850	-0.555567
C266	C	1.851507	0.081483	-0.222233
C267	C	2.184840	0.414817	0.111100
O268	O	1.393818	-0.313700	-0.614643
O269	O	1.727151	0.019633	-0.281310
O270	O	2.060485	0.352967	0.052023
O271	O	1.642595	-0.189958	-0.614696
O272	O	1.975928	0.143375	-0.281363
O273	O	2.309262	0.476709	0.051970
C274	C	1.518119	-0.251872	-0.116031
C275	C	1.851452	0.081462	0.217302
C276	C	2.184785	0.414795	0.550636
C277	C	1.518308	-0.251728	-0.057917
C278	C	1.851641	0.081605	0.275416
C279	C	2.184975	0.414938	0.608749
H280	H	0.919072	-0.312664	-0.312442
H281	H	1.252405	0.020669	0.020892
H282	H	1.585738	0.354003	0.354225
H283	H	1.118119	-0.312662	-0.312424
H284	H	1.451452	0.020672	0.020910
H285	H	1.784785	0.354005	0.354243
H286	H	1.396034	-0.550032	-0.312485
H287	H	1.729367	-0.216699	0.020849
H288	H	2.062700	0.116635	0.354182
H289	H	1.118190	-0.191139	-0.191320
H290	H	1.451523	0.142194	0.142014
H291	H	1.784857	0.475527	0.475347
H292	H	1.328932	-0.345893	-0.702588
H293	H	1.662265	-0.012560	-0.369254
H294	H	1.995599	0.320773	-0.035921
Cl295	Cl	1.299240	-0.813303	-0.360736
Cl296	Cl	1.632574	-0.479970	-0.027403
Cl297	Cl	1.965907	-0.146637	0.305931
H298	H	0.919122	-0.191151	-0.191339
H299	H	1.252456	0.142182	0.141995
H300	H	1.585789	0.475515	0.475328
Cl301	Cl	1.669810	-0.562024	-0.176460
Cl302	Cl	2.003143	-0.228691	0.156873
Cl303	Cl	2.336476	0.104642	0.490206
Cl304	Cl	1.669697	-0.438794	-0.176444
Cl305	Cl	2.003030	-0.105460	0.156890
Cl306	Cl	2.336364	0.227873	0.490223
Cl307	Cl	1.737227	-0.813175	-0.143083
Cl308	Cl	2.070560	-0.479842	0.190251
Cl309	Cl	2.403893	-0.146508	0.523584
Cl310	Cl	1.737146	-0.689952	-0.143073
Cl311	Cl	2.070479	-0.356618	0.190260
Cl312	Cl	2.403813	-0.023285	0.523594
Cl313	Cl	1.670075	-0.941141	-0.176499
Cl314	Cl	2.003409	-0.607808	0.156834
Cl315	Cl	2.336742	-0.274474	0.490168
Cl316	Cl	1.366178	-0.438881	-0.327264
Cl317	Cl	1.699512	-0.105548	0.006070
Cl318	Cl	2.032845	0.227786	0.339403
Cl319	Cl	1.670152	-1.064389	-0.176516
Cl320	Cl	2.003486	-0.731056	0.156817
Cl321	Cl	2.336819	-0.397723	0.490150
H322	H	1.328942	-0.702156	-0.345920
H323	H	1.662275	-0.368822	-0.012587
H324	H	1.995609	-0.035489	0.320746
Cl325	Cl	1.366611	-1.064469	-0.327328
Cl326	Cl	1.699944	-0.731135	0.006005
Cl327	Cl	2.033278	-0.397802	0.339338
Cl328	Cl	1.366545	-0.327206	-1.064915
Cl329	Cl	1.699879	0.006127	-0.731581
Cl330	Cl	2.033212	0.339461	-0.398248
Cl331	Cl	1.366535	-0.941239	-0.327323
Cl332	Cl	1.699869	-0.607906	0.006010
Cl333	Cl	2.033202	-0.274572	0.339343
Cl334	Cl	1.669927	-0.176419	-0.439355
Cl335	Cl	2.003260	0.156914	-0.106022
Cl336	Cl	2.336593	0.490247	0.227312
Cl337	Cl	1.669946	-0.176372	-0.562586
Cl338	Cl	2.003279	0.156961	-0.229253
Cl339	Cl	2.336613	0.490294	0.104081
H340	H	1.707448	-0.157717	-0.702626
H341	H	2.040781	0.175617	-0.369292
H342	H	2.374115	0.508950	-0.035959
Cl343	Cl	1.737271	-0.142884	-0.813762
Cl344	Cl	2.070605	0.190450	-0.480429
Cl345	Cl	2.403938	0.523783	-0.147095
Cl346	Cl	1.670062	-0.176283	-0.941703
Cl347	Cl	2.003395	0.157050	-0.608369
Cl348	Cl	2.336728	0.490384	-0.275036
Cl349	Cl	1.670084	-0.176256	-1.064951
Cl350	Cl	2.003417	0.157077	-0.731618
Cl351	Cl	2.336750	0.490411	-0.398284
Cl352	Cl	1.366490	-0.327229	-0.941685
Cl353	Cl	1.699823	0.006105	-0.608352
Cl354	Cl	2.033157	0.339438	-0.275018
H355	H	1.328971	-0.345880	-0.801637
H356	H	1.662304	-0.012546	-0.468304
H357	H	1.995637	0.320787	-0.134971
H358	H	1.396176	-0.312525	-0.550489
H359	H	1.729510	0.020809	-0.217156
H360	H	2.062843	0.354142	0.116178
H361	H	1.396154	-0.312546	-0.451422
H362	H	1.729487	0.020787	-0.118088
H363	H	2.062821	0.354121	0.215245
