data_functionalizedCrystal
_audit_creation_method	'MofGen! by Chris Wilmer'
_symmetry_space_group_name_H-M	'P1'
_symmetry_Int_Tables_number	1
_symmetry_cell_setting	triclinic
loop_
_symmetry_equiv_pos_as_xyz
  x,y,z
_cell_length_a	14.853558
_cell_length_b	13.930277
_cell_length_c	14.853567
_cell_angle_alpha	89.999243
_cell_angle_beta	96.366968
_cell_angle_gamma	90.006691
loop_
_atom_site_label
_atom_site_type_symbol
_atom_site_fract_x
_atom_site_fract_y
_atom_site_fract_z
O1	O	1.196374	0.079811	-0.117664
O2	O	0.933913	0.079814	-0.131694
O3	O	1.072154	0.079815	0.006551
O4	O	1.058133	0.079810	-0.255909
O5	O	1.072135	-0.079846	0.006554
O6	O	0.933894	-0.079847	-0.131691
O7	O	1.196354	-0.079851	-0.117661
Zn8	Zn	1.065121	-0.105199	-0.124675
Zn9	Zn	1.065146	0.105162	-0.124679
O10	O	1.058113	-0.079852	-0.255906
C11	C	0.900314	-0.000016	-0.131058
C12	C	0.800230	-0.000014	-0.129158
C13	C	0.753221	0.087021	-0.128268
C14	C	0.753198	-0.087048	-0.128254
C15	C	0.659164	-0.087050	-0.126464
C16	C	0.612155	-0.000015	-0.125574
C17	C	0.659179	0.087022	-0.126475
C18	C	0.612135	-0.174085	-0.125553
C19	C	0.518095	-0.174090	-0.123762
C20	C	0.471083	-0.087054	-0.122879
C21	C	0.518113	-0.000014	-0.123781
C22	C	0.471103	0.087022	-0.122891
C23	C	0.518130	0.174063	-0.123799
C24	C	0.612166	0.174059	-0.125591
C25	C	0.377047	-0.087049	-0.121087
C26	C	0.377061	0.087023	-0.121098
N27	N	1.065110	-0.248765	-0.124672
C28	C	1.003931	-0.701035	-0.185870
C29	C	1.126387	-0.701003	-0.063481
C30	C	1.126376	-0.600508	-0.063478
C31	C	1.065143	-0.550271	-0.124673
C32	C	1.003920	-0.600530	-0.185871
C33	C	1.187604	-0.550241	-0.002288
C34	C	1.187596	-0.449739	-0.002283
C35	C	1.126358	-0.399501	-0.063475
C36	C	1.065132	-0.449766	-0.124674
C37	C	1.003898	-0.399529	-0.185869
C38	C	0.942668	-0.449792	-0.247065
C39	C	0.942682	-0.550291	-0.247062
C40	C	1.126344	-0.299002	-0.063477
C41	C	1.003888	-0.299024	-0.185870
C42	C	1.229953	-0.000019	-0.118296
C43	C	1.330037	-0.000014	-0.120197
C44	C	1.071509	-0.000013	0.040141
C45	C	1.069605	-0.000004	0.140225
N46	N	1.065164	0.248728	-0.124675
C47	C	1.058758	-0.000022	-0.289496
C48	C	1.060662	-0.000024	-0.389580
C49	C	0.979439	-0.000021	0.552756
C50	C	1.143673	-0.000024	0.574042
C51	C	1.145463	-0.000018	0.480009
C52	C	1.064240	-0.000015	0.422344
C53	C	0.981227	-0.000019	0.458713
C54	C	1.228474	-0.000024	0.443632
C55	C	1.230268	-0.000020	0.349593
C56	C	1.149044	-0.000011	0.291927
C57	C	1.066027	-0.000013	0.328301
C58	C	0.984805	-0.000010	0.270637
C59	C	0.901787	-0.000006	0.307009
C60	C	0.900003	-0.000009	0.401047
C61	C	1.150828	-0.000007	0.197890
C62	C	0.986592	-0.000008	0.176594
H63	H	0.650418	-0.244945	-0.126270
Cl64	Cl	0.799683	-0.000011	0.234506
H65	H	0.479843	0.244927	-0.123070
Cl66	Cl	0.317970	0.196446	-0.119986
H67	H	0.832414	-0.000007	0.430670
Cl68	Cl	1.264566	-0.386558	0.074649
Cl69	Cl	1.203319	-0.235820	0.013443
H70	H	0.892815	-0.408878	-0.296894
H71	H	0.650464	0.244923	-0.126329
H72	H	1.218419	-0.000017	0.168279
Cl73	Cl	1.264585	-0.613393	0.074634
Cl74	Cl	0.865715	-0.613481	-0.323991
H75	H	0.791514	0.157888	-0.129011
H76	H	0.791480	-0.157909	-0.128971
H77	H	0.911848	-0.000014	0.582375
Cl78	Cl	0.884477	0.000003	0.104108
Cl79	Cl	0.458983	-0.283511	-0.122632
H80	H	0.338760	-0.157917	-0.120355
H81	H	1.209801	-0.000033	0.620998
H82	H	0.954075	-0.741962	-0.235693
H83	H	0.954021	-0.258127	-0.235699
Cl84	Cl	1.334630	-0.000010	0.303876
Cl85	Cl	1.203368	-0.764155	0.013440
H86	H	1.294601	-0.000035	0.490589
