data_functionalizedCrystal
_audit_creation_method	'MofGen! by Chris Wilmer'
_symmetry_space_group_name_H-M	'P1'
_symmetry_Int_Tables_number	1
_symmetry_cell_setting	triclinic
loop_
_symmetry_equiv_pos_as_xyz
  x,y,z
_cell_length_a	10.654550
_cell_length_b	7.540329
_cell_length_c	9.065218
_cell_angle_alpha	90.001757
_cell_angle_beta	95.249606
_cell_angle_gamma	89.993514
loop_
_atom_site_label
_atom_site_type_symbol
_atom_site_fract_x
_atom_site_fract_y
_atom_site_fract_z
O1	O	1.668659	-0.147621	-0.207233
O2	O	1.303259	-0.147592	-0.226977
O3	O	1.493512	-0.147603	-0.002421
O4	O	1.478407	-0.147609	-0.431788
O5	O	1.493501	0.147362	-0.002418
O6	O	1.303248	0.147374	-0.226974
O7	O	1.668648	0.147344	-0.207230
Cu8	Cu	1.485947	0.174292	-0.217101
Cu9	Cu	1.485960	-0.174539	-0.217105
O10	O	1.478395	0.147356	-0.431785
C11	C	1.256450	-0.000105	-0.225525
C12	C	1.116989	-0.000094	-0.221188
N13	N	1.485946	0.419640	-0.217098
N14	N	1.485971	-0.419887	-0.217096
C15	C	1.038027	-0.000122	-0.353403
C16	C	0.906990	-0.000153	-0.349319
C17	C	0.933890	-0.000135	-0.080793
C18	C	1.064925	-0.000092	-0.084879
C19	C	1.090092	-0.000124	-0.489712
C20	C	1.011129	-0.000154	-0.621938
C21	C	0.880092	-0.000185	-0.617853
C22	C	0.828018	-0.000186	-0.481543
C23	C	1.715457	-0.000146	-0.208681
C24	C	1.854918	-0.000168	-0.213018
C25	C	1.492055	-0.000123	0.052559
C26	C	1.487714	-0.000131	0.216378
C27	C	1.479852	-0.000128	-0.486766
C28	C	1.484193	-0.000131	-0.650585
H29	H	1.053536	-0.000138	-0.732916
C30	C	0.683880	-0.000225	-0.477053
H31	H	0.644307	-0.000251	-0.575318
H32	H	0.659175	0.102623	-0.426540
H33	H	0.659234	-0.103112	-0.426547
H34	H	1.196787	-0.000108	-0.493053
H35	H	0.815803	-0.000191	-0.725518
C36	C	0.876611	-0.000162	0.069132
H37	H	0.787262	-0.000210	0.052629
H38	H	0.903582	0.102703	0.123637
H39	H	0.903638	-0.103031	0.123619
H40	H	1.129218	-0.000074	0.022782
