data_functionalizedCrystal
_audit_creation_method	'MofGen! by Chris Wilmer'
_symmetry_space_group_name_H-M	'P1'
_symmetry_Int_Tables_number	1
_symmetry_cell_setting	triclinic
loop_
_symmetry_equiv_pos_as_xyz
  x,y,z
_cell_length_a	12.759401
_cell_length_b	18.101397
_cell_length_c	12.759393
_cell_angle_alpha	89.962144
_cell_angle_beta	89.982549
_cell_angle_gamma	90.019510
loop_
_atom_site_label
_atom_site_type_symbol
_atom_site_fract_x
_atom_site_fract_y
_atom_site_fract_z
Zn1	Zn	1.606202	-0.294803	-0.593939
Zn2	Zn	2.106202	0.205197	-0.093939
Zn3	Zn	1.606082	-0.418665	-0.418240
Zn4	Zn	2.106082	0.081335	0.081760
Zn5	Zn	1.430507	-0.294840	-0.418278
Zn6	Zn	1.930507	0.205160	0.081722
Zn7	Zn	1.430475	-0.418605	-0.593882
Zn8	Zn	1.930475	0.081395	-0.093882
O9	O	1.518316	-0.356729	-0.506085
O10	O	2.018316	0.143271	-0.006085
O11	O	1.753207	-0.311244	-0.570640
O12	O	2.253207	0.188756	-0.070640
O13	O	1.582755	-0.402280	-0.271224
O14	O	2.082755	0.097720	0.228776
O15	O	1.453877	-0.191202	-0.441620
O16	O	1.953877	0.308798	0.058380
O17	O	1.753119	-0.402244	-0.441555
O18	O	2.253119	0.097756	0.058445
O19	O	1.582959	-0.191175	-0.570677
O20	O	2.082959	0.308825	-0.070677
O21	O	1.453761	-0.311306	-0.271252
O22	O	1.953761	0.188694	0.228748
O23	O	1.283482	-0.311248	-0.441564
O24	O	1.783482	0.188752	0.058436
O25	O	1.453822	-0.402142	-0.740910
O26	O	1.953822	0.097858	-0.240910
O27	O	1.283458	-0.402178	-0.570579
O28	O	1.783458	0.097822	-0.070579
O29	O	1.582928	-0.311185	-0.740952
O30	O	2.082928	0.188815	-0.240952
O31	O	1.582723	-0.522290	-0.441500
O32	O	2.082723	-0.022290	0.058500
O33	O	1.453706	-0.522246	-0.570543
O34	O	1.953706	-0.022246	-0.070543
C35	C	1.245349	-0.356711	-0.506070
C36	C	1.745349	0.143289	-0.006070
C37	C	1.128572	-0.356722	-0.506089
C38	C	1.628572	0.143278	-0.006089
C39	C	1.073749	-0.309427	-0.573407
C40	C	1.573749	0.190573	-0.073407
C41	C	0.964025	-0.309441	-0.573414
C42	C	1.464025	0.190559	-0.073414
C43	C	0.963957	-0.404051	-0.438780
C44	C	1.463957	0.095949	0.061220
C45	C	1.073679	-0.404033	-0.438769
C46	C	1.573679	0.095967	0.061231
C47	C	1.073788	-0.254807	-0.651140
C48	C	1.573788	0.245193	-0.151140
C49	C	0.964064	-0.254821	-0.651147
C50	C	1.464064	0.245179	-0.151147
C51	C	1.518226	-0.549139	-0.506034
C52	C	2.018226	-0.049139	-0.006034
C53	C	1.518284	-0.631453	-0.506047
C54	C	2.018284	-0.131453	-0.006047
C55	C	1.518418	-0.930544	-0.506143
C56	C	2.018418	-0.430544	-0.006143
C57	C	1.599366	-0.899216	-0.424735
C58	C	2.099366	-0.399216	0.075265
C59	C	1.599647	-0.813597	-0.424946
C60	C	2.099647	-0.313597	0.075054
C61	C	1.518352	-0.782162	-0.506095
C62	C	2.018352	-0.282162	-0.006095
C63	C	1.548368	-0.813159	-0.616835
C64	C	2.048368	-0.313159	-0.116835
C65	C	1.548994	-0.898804	-0.616392
C66	C	2.048994	-0.398804	-0.116392
C67	C	1.407238	-0.899054	-0.477768
C68	C	1.907238	-0.399054	0.022232
C69	C	1.407787	-0.813405	-0.475296
C70	C	1.907787	-0.313405	0.024704
C71	C	1.518312	-0.698302	-0.506074
C72	C	2.018312	-0.198302	-0.006074
C73	C	1.518460	-1.014404	-0.506171
C74	C	2.018460	-0.514404	-0.006171
C75	C	1.792350	-0.356747	-0.506100
C76	C	2.292350	0.143253	-0.006100
C77	C	1.909126	-0.356754	-0.506106
C78	C	2.409126	0.143246	-0.006106
C79	C	1.518385	-0.356653	-0.780118
C80	C	2.018385	0.143347	-0.280118
C81	C	1.518414	-0.356621	-0.896895
C82	C	2.018414	0.143379	-0.396895
C83	C	1.518435	-0.163567	-0.506159
C84	C	2.018435	0.336433	-0.006159
C85	C	1.518486	-0.081253	-0.506190
C86	C	2.018486	0.418747	-0.006190
C87	C	1.451275	-0.309242	-0.951777
C88	C	1.951275	0.190758	-0.451777
C89	C	1.451307	-0.309220	-1.061502
C90	C	1.951307	0.190780	-0.561502
C91	C	1.585625	-0.403958	-1.061451
C92	C	2.085625	0.096042	-0.561451
C93	C	1.585587	-0.403983	-0.951729
C94	C	2.085587	0.096017	-0.451729
C95	C	1.373730	-0.254544	-0.951808
C96	C	1.873730	0.245456	-0.451808
C97	C	1.373762	-0.254522	-1.061532
C98	C	1.873762	0.245478	-0.561532
C99	C	1.518309	-0.356750	-0.233117
C100	C	2.018309	0.143250	0.266883
C101	C	1.518483	-0.356574	-0.116341
C102	C	2.018483	0.143426	0.383659
H103	H	0.930030	-0.200314	-0.622156
H104	H	1.430030	0.299686	-0.122156
H105	H	1.640316	-0.442518	-1.106110
H106	H	2.140316	0.057482	-0.606110
H107	H	0.919250	-0.442570	-0.383972
H108	H	1.419250	0.057430	0.116028
H109	H	1.118312	-0.442537	-0.383942
H110	H	1.618312	0.057463	0.116058
H111	H	1.103563	-0.197427	-0.629495
H112	H	1.603563	0.302573	-0.129495
H113	H	1.292339	-0.269902	-0.922028
H114	H	1.792339	0.230098	-0.422028
H115	H	1.580814	-0.919866	-0.342376
H116	H	2.080814	-0.419866	0.157624
H117	H	1.681272	-0.920683	-0.443293
H118	H	2.181272	-0.420683	0.056707
H119	H	1.682003	-0.793053	-0.443719
H120	H	2.182003	-0.293053	0.056281
H121	H	1.402902	-0.200072	-0.917800
H122	H	1.902902	0.299928	-0.417800
H123	H	0.934315	-0.270254	-0.732481
H124	H	1.434315	0.229746	-0.232481
H125	H	1.630262	-0.918722	-0.640428
H126	H	2.130262	-0.418722	-0.140428
H127	H	1.346925	-0.919314	-0.537061
H128	H	1.846925	-0.419314	-0.037061
H129	H	1.580867	-0.792643	-0.342833
H130	H	2.080867	-0.292643	0.157167
H131	H	1.492618	-0.919525	-0.679137
H132	H	1.992618	-0.419525	-0.179137
H133	H	1.296462	-0.275051	-1.095554
H134	H	1.796462	0.224949	-0.595554
H135	H	1.344230	-0.792014	-0.530248
H136	H	1.844230	-0.292014	-0.030248
H137	H	1.628726	-0.791651	-0.641278
H138	H	2.128726	-0.291651	-0.141278
H139	H	1.107849	-0.275412	-0.728375
H140	H	1.607849	0.224588	-0.228375
H141	H	1.491212	-0.792794	-0.679121
H142	H	1.991212	-0.292794	-0.179121
H143	H	1.395588	-0.197157	-1.091338
H144	H	1.895588	0.302843	-0.591338
H145	H	1.379931	-0.920722	-0.398417
H146	H	1.879931	-0.420722	0.101583
H147	H	1.385154	-0.793154	-0.393800
H148	H	1.885154	-0.293154	0.106200
H149	H	1.640243	-0.442574	-0.907048
H150	H	2.140243	0.057426	-0.407048
