data_functionalizedCrystal
_audit_creation_method	'MofGen! by Chris Wilmer'
_symmetry_space_group_name_H-M	'P1'
_symmetry_Int_Tables_number	1
_symmetry_cell_setting	triclinic
loop_
_symmetry_equiv_pos_as_xyz
  x,y,z
_cell_length_a	23.532407
_cell_length_b	23.532407
_cell_length_c	13.101039
_cell_angle_alpha	93.336507
_cell_angle_beta	86.668910
_cell_angle_gamma	82.848678
loop_
_atom_site_label
_atom_site_type_symbol
_atom_site_fract_x
_atom_site_fract_y
_atom_site_fract_z
O1	O	0.758406	0.065978	-0.085096
O2	O	1.091739	0.399311	0.248237
O3	O	1.425073	0.732645	0.581571
O4	O	0.592544	0.075980	-0.085128
O5	O	0.925877	0.409314	0.248206
O6	O	1.259210	0.742647	0.581539
O7	O	0.680476	-0.011952	-0.085092
O8	O	1.013809	0.321382	0.248241
O9	O	1.347142	0.654715	0.581575
O10	O	0.670474	0.153910	-0.085132
O11	O	1.003807	0.487243	0.248202
O12	O	1.337141	0.820577	0.581535
O13	O	0.674167	-0.005632	0.085335
O14	O	1.007500	0.327701	0.418669
O15	O	1.340833	0.661034	0.752002
O16	O	0.586235	0.082300	0.085300
O17	O	0.919568	0.415633	0.418633
O18	O	1.252901	0.748966	0.751966
O19	O	0.752097	0.072298	0.085331
O20	O	1.085430	0.405631	0.418665
O21	O	1.418764	0.738964	0.751998
Zn22	Zn	0.668164	0.078302	0.112375
Zn23	Zn	1.001497	0.411635	0.445708
Zn24	Zn	1.334831	0.744969	0.779041
Zn25	Zn	0.676477	0.069976	-0.112171
Zn26	Zn	1.009810	0.403309	0.221163
Zn27	Zn	1.343143	0.736642	0.554496
O28	O	0.664165	0.160230	0.085296
O29	O	0.997498	0.493563	0.418629
O30	O	1.330832	0.826896	0.751962
C31	C	0.568173	0.078885	0.000082
C32	C	0.901507	0.412218	0.333416
C33	C	1.234840	0.745552	0.666749
C34	C	0.504957	0.078119	0.000071
C35	C	0.838290	0.411452	0.333404
C36	C	1.171623	0.744785	0.666738
C37	C	0.105852	0.125353	0.000106
C38	C	0.439186	0.458687	0.333440
C39	C	0.772519	0.792020	0.666773
C40	C	0.046452	0.124642	0.000113
C41	C	0.379785	0.457976	0.333446
C42	C	0.713118	0.791309	0.666779
O43	O	0.009706	0.168429	0.000140
O44	O	0.343040	0.501762	0.333473
O45	O	0.676373	0.835096	0.666806
N46	N	0.023825	0.072366	0.000123
N47	N	0.357159	0.405700	0.333457
N48	N	0.690492	0.739033	0.666790
C49	C	0.060602	0.020799	0.000138
C50	C	0.393936	0.354132	0.333471
C51	C	0.727269	0.687465	0.666805
O52	O	0.035902	-0.023731	0.000149
O53	O	0.369236	0.309602	0.333482
O54	O	0.702569	0.642935	0.666816
C55	C	0.120001	0.021511	0.000139
C56	C	0.453335	0.354844	0.333472
C57	C	0.786668	0.688177	0.666806
C58	C	0.142625	0.073790	0.000118
C59	C	0.475958	0.407123	0.333451
C60	C	0.809291	0.740456	0.666785
C61	C	0.128476	0.177628	0.000086
C62	C	0.461810	0.510962	0.333420
C63	C	0.795143	0.844295	0.666753
C64	C	0.187873	0.178339	0.000078
C65	C	0.521206	0.511672	0.333411
C66	C	0.854539	0.845006	0.666745
C67	C	0.224645	0.126775	0.000090
C68	C	0.557979	0.460109	0.333423
C69	C	0.891312	0.793442	0.666756
C70	C	0.202021	0.074501	0.000110
C71	C	0.535355	0.407834	0.333443
C72	C	0.868688	0.741167	0.666776
C73	C	0.156777	-0.030056	0.000161
C74	C	0.490110	0.303277	0.333494
C75	C	0.823444	0.636611	0.666828
C76	C	0.216179	-0.029339	0.000163
C77	C	0.549513	0.303994	0.333496
C78	C	0.882846	0.637327	0.666829
C79	C	0.238803	0.022940	0.000142
C80	C	0.572136	0.356273	0.333475
C81	C	0.905469	0.689606	0.666808
C82	C	0.298190	0.023648	0.000113
C83	C	0.631523	0.356981	0.333446
C84	C	0.964857	0.690314	0.666780
N85	N	0.320817	0.075924	0.000102
N86	N	0.654150	0.409257	0.333435
N87	N	0.987483	0.742590	0.666769
C88	C	0.284044	0.127487	0.000090
C89	C	0.617378	0.460821	0.333424
C90	C	0.950711	0.794154	0.666757
C91	C	-0.064140	0.019307	0.000138
C92	C	0.269193	0.352641	0.333471
C93	C	0.602526	0.685974	0.666805
C94	C	-0.123538	0.018594	0.000130
C95	C	0.209795	0.351928	0.333463
C96	C	0.543129	0.685261	0.666797
C97	C	-0.137684	0.122438	0.000106
C98	C	0.195649	0.455772	0.333440
C99	C	0.528982	0.789105	0.666773
C100	C	-0.078285	0.123150	0.000107
C101	C	0.255048	0.456484	0.333441
C102	C	0.588381	0.789817	0.666774
C103	C	-0.041514	0.071583	0.000127
C104	C	0.291820	0.404917	0.333461
C105	C	0.625153	0.738250	0.666794
C106	C	0.408782	0.128976	0.000072
C107	C	0.742115	0.462310	0.333405
C108	C	1.075448	0.795643	0.666739
C109	C	0.468184	0.129683	0.000059
C110	C	0.801518	0.463016	0.333393
C111	C	1.134851	0.796349	0.666726
C112	C	0.482325	0.025839	0.000088
C113	C	0.815659	0.359172	0.333422
C114	C	1.148992	0.692506	0.666755
C115	C	0.422928	0.025132	0.000096
C116	C	0.756262	0.358466	0.333429
C117	C	1.089595	0.691799	0.666762
C118	C	0.386157	0.076706	0.000091
C119	C	0.719490	0.410039	0.333424
C120	C	1.052824	0.743373	0.666758
O121	O	0.334970	-0.020116	0.000090
O122	O	0.668304	0.313217	0.333424
O123	O	1.001637	0.646551	0.666757
O124	O	0.308752	0.172011	0.000093
O125	O	0.642085	0.505344	0.333427
O126	O	0.975419	0.838677	0.666760
C127	C	0.677066	-0.030008	0.000124
C128	C	1.010400	0.303325	0.333457
C129	C	1.343733	0.636659	0.666791
C130	C	0.676300	-0.093225	0.000132
C131	C	1.009634	0.240109	0.333465
C132	C	1.342967	0.573442	0.666799
C133	C	0.723535	-0.492330	0.000085
C134	C	1.056869	-0.158996	0.333418
C135	C	1.390202	0.174337	0.666751
C136	C	0.722824	-0.551730	0.000077
C137	C	1.056158	-0.218397	0.333410
C138	C	1.389491	0.114936	0.666743
O139	O	0.766611	-0.588476	0.000047
O140	O	1.099945	-0.255142	0.333381
O141	O	1.433278	0.078191	0.666714
N142	N	0.670548	-0.574357	0.000068
N143	N	1.003882	-0.241023	0.333401
N144	N	1.337215	0.092310	0.666734
C145	C	0.618980	-0.537579	0.000056
C146	C	0.952314	-0.204246	0.333389
C147	C	1.285647	0.129087	0.666723
O148	O	0.574450	-0.562280	0.000046
O149	O	0.907784	-0.228946	0.333380
O150	O	1.241117	0.104387	0.666713
C151	C	0.619692	-0.478180	0.000056
C152	C	0.953026	-0.144847	0.333390
C153	C	1.286359	0.188486	0.666723
C154	C	0.671971	-0.455557	0.000076
C155	C	1.005305	-0.122224	0.333409
C156	C	1.338638	0.211110	0.666743
C157	C	0.775810	-0.469706	0.000103
C158	C	1.109143	-0.136372	0.333436
C159	C	1.442477	0.196961	0.666770
C160	C	0.776521	-0.410309	0.000113
C161	C	1.109854	-0.076976	0.333446
C162	C	1.443188	0.256357	0.666780
C163	C	0.724957	-0.373537	0.000104
C164	C	1.058290	-0.040203	0.333438
C165	C	1.391624	0.293130	0.666771
C166	C	0.672682	-0.396161	0.000086
C167	C	1.006016	-0.062827	0.333419
C168	C	1.339349	0.270506	0.666753
C169	C	0.568126	-0.441405	0.000037
C170	C	0.901459	-0.108071	0.333371
C171	C	1.234792	0.225262	0.666704
C172	C	0.568842	-0.382002	0.000037
C173	C	0.902175	-0.048669	0.333371
C174	C	1.235509	0.284664	0.666704
C175	C	0.621121	-0.359379	0.000057
C176	C	0.954454	-0.026045	0.333390
C177	C	1.287788	0.307288	0.666723
C178	C	0.621829	-0.299991	0.000087
C179	C	0.955163	0.033342	0.333420
C180	C	1.288496	0.366675	0.666754
N181	N	0.674105	-0.277365	0.000096
N182	N	1.007439	0.055968	0.333430
N183	N	1.340772	0.389302	0.666763
C184	C	0.725669	-0.314138	0.000105
C185	C	1.059002	0.019196	0.333438
C186	C	1.392336	0.352529	0.666772
C187	C	0.617489	-0.662322	0.000053
C188	C	0.950822	-0.328989	0.333386
C189	C	1.284156	0.004345	0.666720
C190	C	0.616776	-0.721720	0.000060
C191	C	0.950110	-0.388386	0.333393
C192	C	1.283443	-0.055053	0.666726
C193	C	0.720620	-0.735866	0.000079
C194	C	1.053954	-0.402533	0.333412
C195	C	1.387287	-0.069200	0.666745
C196	C	0.721332	-0.676467	0.000079
C197	C	1.054666	-0.343134	0.333413
C198	C	1.387999	-0.009801	0.666746
C199	C	0.669765	-0.639696	0.000062
C200	C	1.003098	-0.306362	0.333395
C201	C	1.336432	0.026971	0.666729
C202	C	0.727158	-0.189400	0.000126
C203	C	1.060491	0.143933	0.333460
C204	C	1.393825	0.477267	0.666793
C205	C	0.727864	-0.129997	0.000141
C206	C	1.061197	0.203336	0.333474
C207	C	1.394531	0.536669	0.666807
C208	C	0.624021	-0.115856	0.000116
C209	C	0.957354	0.217477	0.333449
C210	C	1.290687	0.550811	0.666783
C211	C	0.623314	-0.175253	0.000107
C212	C	0.956647	0.158080	0.333441
C213	C	1.289981	0.491413	0.666774
C214	C	0.674887	-0.212024	0.000109
C215	C	1.008221	0.121309	0.333442
C216	C	1.341554	0.454642	0.666776
O217	O	0.578065	-0.263211	0.000112
O218	O	0.911399	0.070122	0.333446
O219	O	1.244732	0.403455	0.666779
O220	O	0.770192	-0.289430	0.000101
O221	O	1.103526	0.043904	0.333434
O222	O	1.436859	0.377237	0.666768
C223	C	0.776467	0.069393	0.000119
C224	C	1.109801	0.402726	0.333452
C225	C	1.443134	0.736059	0.666786
C226	C	0.839684	0.070159	0.000124
C227	C	1.173018	0.403492	0.333457
C228	C	1.506351	0.736825	0.666790
C229	C	0.667574	0.178286	0.000077
C230	C	1.000908	0.511619	0.333411
C231	C	1.334241	0.844952	0.666744
C232	C	0.668341	0.241502	0.000063
C233	C	1.001674	0.574835	0.333396
C234	C	1.335007	0.908169	0.666730
N235	N	0.662495	0.083984	0.265621
N236	N	0.995828	0.417317	0.598954
N237	N	1.329162	0.750651	0.932287
N238	N	0.682150	0.064289	-0.265417
N239	N	1.015483	0.397623	0.067916
N240	N	1.348817	0.730956	0.401250
C241	C	0.654782	0.091720	0.474660
C242	C	0.988116	0.425053	0.807994
C243	C	1.321449	0.758386	1.141327
C244	C	0.689861	0.056555	0.525550
C245	C	1.023194	0.389889	0.858883
C246	C	1.356528	0.723222	1.192217
C247	C	0.685569	0.060860	0.641867
C248	C	1.018903	0.394193	0.975200
C249	C	1.352236	0.727526	1.308533
C250	C	0.659073	0.087416	0.358333
C251	C	0.992406	0.420749	0.691666
C252	C	1.325740	0.754083	1.025000
H253	H	0.512276	-0.016143	0.000094
H254	H	0.845609	0.317191	0.333427
H255	H	1.178943	0.650524	0.666761
N256	N	0.255839	-0.084961	0.000174
N257	N	0.589172	0.248372	0.333508
N258	N	0.922505	0.581706	0.666841
H259	H	0.296902	-0.076582	0.000168
H260	H	0.630235	0.256751	0.333501
H261	H	0.963569	0.590084	0.666835
H262	H	0.246210	-0.105413	0.063363
H263	H	0.579543	0.227920	0.396696
H264	H	0.912876	0.561254	0.730029
N265	N	-0.024481	-0.036315	0.000155
N266	N	0.308853	0.297018	0.333488
N267	N	0.642186	0.630351	0.666821
H268	H	-0.047832	-0.069536	0.000161
H269	H	0.285501	0.263797	0.333494
H270	H	0.618834	0.597131	0.666828
H271	H	0.002809	-0.040628	-0.063024
H272	H	0.336142	0.292705	0.270309
H273	H	0.669475	0.626039	0.603643
N274	N	0.784252	-0.105597	0.000167
N275	N	1.117586	0.227737	0.333501
N276	N	1.450919	0.561070	0.666834
H277	H	0.816809	-0.137909	0.000169
H278	H	1.150142	0.195425	0.333502
H279	H	1.483475	0.528758	0.666835
H280	H	0.789151	-0.083594	-0.063007
H281	H	1.122484	0.249739	0.270327
H282	H	1.455817	0.583072	0.603660
H283	H	0.723116	0.023218	0.481761
H284	H	1.056449	0.356552	0.815095
H285	H	1.389782	0.689885	1.148428
H286	H	0.621530	0.125055	0.518444
H287	H	0.954864	0.458389	0.851777
H288	H	1.288197	0.791722	1.185111
N289	N	0.088822	0.233249	0.000059
N290	N	0.422155	0.566582	0.333392
N291	N	0.755489	0.899916	0.666725
H292	H	0.047757	0.224876	0.000058
H293	H	0.381090	0.558209	0.333391
H294	H	0.714423	0.891543	0.666724
H295	H	0.093782	0.258391	0.063228
H296	H	0.427115	0.591725	0.396562
H297	H	0.760449	0.925058	0.729895
N298	N	0.782782	-0.229055	0.000128
N299	N	1.116115	0.104278	0.333462
N300	N	1.449449	0.437612	0.666795
H301	H	0.816001	-0.205702	0.000144
H302	H	1.149335	0.127632	0.333477
H303	H	1.482668	0.460965	0.666810
H304	H	0.782411	-0.251672	0.063306
H305	H	1.115745	0.081662	0.396640
H306	H	1.449078	0.414995	0.729973
N307	N	-0.147938	-0.037791	0.000150
N308	N	0.185395	0.295543	0.333483
N309	N	0.518729	0.628876	0.666816
H310	H	-0.169934	-0.042747	-0.063023
H311	H	0.163399	0.290586	0.270310
H312	H	0.496733	0.623920	0.603643
H313	H	-0.115596	-0.070312	0.000196
H314	H	0.217737	0.263022	0.333529
H315	H	0.551071	0.596355	0.666862
N316	N	0.492585	0.186071	0.000026
N317	N	0.825919	0.519404	0.333360
N318	N	1.159252	0.852737	0.666693
H319	H	0.460273	0.218627	0.000021
H320	H	0.793606	0.551960	0.333355
H321	H	1.126940	0.885293	0.666688
H322	H	0.514591	0.190974	0.063199
H323	H	0.847924	0.524308	0.396533
H324	H	1.181257	0.857641	0.729866
H325	H	0.404508	-0.017438	0.000098
H326	H	0.737841	0.315896	0.333431
H327	H	1.071175	0.649229	0.666764
N328	N	0.513220	-0.342342	0.000047
N329	N	0.846553	-0.009009	0.333381
N330	N	1.179886	0.324324	0.666714
H331	H	0.521598	-0.301278	0.000061
H332	H	0.854931	0.032055	0.333394
H333	H	1.188265	0.365388	0.666727
H334	H	0.492756	-0.351968	-0.063134
H335	H	0.826090	-0.018635	0.270199
H336	H	1.159423	0.314699	0.603532
N337	N	0.832908	-0.385913	0.000130
N338	N	1.166241	-0.052579	0.333464
N339	N	1.499574	0.280754	0.666797
H340	H	0.865461	-0.418228	0.000132
H341	H	1.198794	-0.084895	0.333465
H342	H	1.532128	0.248439	0.666799
H343	H	0.837806	-0.363914	-0.063048
H344	H	1.171140	-0.030581	0.270285
H345	H	1.504473	0.302753	0.603619
N346	N	-0.177341	0.178067	0.000154
N347	N	0.155992	0.511400	0.333487
N348	N	0.489326	0.844733	0.666821
H349	H	-0.167773	0.198565	-0.063013
H350	H	0.165561	0.531899	0.270321
H351	H	0.498894	0.865232	0.603654
H352	H	-0.218392	0.169649	0.000216
H353	H	0.114941	0.502982	0.333549
H354	H	0.448275	0.836316	0.666882
H355	H	0.378849	0.170973	0.000071
H356	H	0.712182	0.504306	0.333405
H357	H	1.045516	0.837639	0.666738
N358	N	0.132387	-0.086444	0.000200
N359	N	0.465721	0.246890	0.333533
N360	N	0.799054	0.580223	0.666867
H361	H	0.089178	-0.079080	0.000201
H362	H	0.422511	0.254253	0.333534
H363	H	0.755844	0.587586	0.666868
H364	H	0.148197	-0.111338	-0.062969
H365	H	0.481531	0.221995	0.270365
H366	H	0.814864	0.555328	0.603698
H367	H	-0.059870	0.165721	0.000096
H368	H	0.273463	0.499054	0.333429
H369	H	0.606797	0.832387	0.666762
N370	N	0.212270	0.234726	0.000050
N371	N	0.545603	0.568059	0.333383
N372	N	0.878936	0.901392	0.666717
H373	H	0.179954	0.267278	0.000043
H374	H	0.513288	0.600612	0.333377
H375	H	0.846621	0.933945	0.666710
H376	H	0.234272	0.239631	0.063226
H377	H	0.567605	0.572965	0.396559
H378	H	0.900939	0.906298	0.729893
N379	N	0.831430	-0.509362	0.000114
N380	N	1.164764	-0.176029	0.333447
N381	N	1.498097	0.157304	0.666780
H382	H	0.864649	-0.486008	0.000126
H383	H	1.197982	-0.152674	0.333459
H384	H	1.531315	0.180659	0.666793
H385	H	0.831059	-0.531975	0.063297
H386	H	1.164392	-0.198642	0.396630
H387	H	1.497725	0.134692	0.729963
N388	N	0.777720	-0.652072	0.000097
N389	N	1.111053	-0.318739	0.333430
N390	N	1.444387	0.014595	0.666764
H391	H	0.782674	-0.630081	-0.063079
H392	H	1.116007	-0.296748	0.270255
H393	H	1.449340	0.036586	0.603588
H394	H	0.777955	-0.625432	0.063318
H395	H	1.111289	-0.292099	0.396651
H396	H	1.444622	0.041235	0.729985
N397	N	0.776237	-0.775537	0.000074
N398	N	1.109571	-0.442204	0.333407
N399	N	1.442904	-0.108870	0.666740
H400	H	0.809466	-0.752196	0.000082
H401	H	1.142799	-0.418862	0.333416
H402	H	1.476133	-0.085529	0.666749
H403	H	0.775863	-0.798154	0.063251
H404	H	1.109196	-0.464821	0.396584
H405	H	1.442530	-0.131488	0.729917
N406	N	0.560389	-0.746117	0.000066
N407	N	0.893722	-0.412783	0.333400
N408	N	1.227056	-0.079450	0.666733
H409	H	0.527834	-0.713803	0.000066
H410	H	0.861168	-0.380469	0.333399
H411	H	1.194501	-0.047136	0.666733
H412	H	0.560164	-0.772790	-0.063114
H413	H	0.893497	-0.439456	0.270219
H414	H	1.226831	-0.106123	0.603552
N415	N	0.561866	-0.622662	0.000043
N416	N	0.895200	-0.289329	0.333377
N417	N	1.228533	0.044004	0.666710
H418	H	0.528646	-0.646014	0.000039
H419	H	0.861979	-0.312681	0.333372
H420	H	1.195312	0.020653	0.666706
H421	H	0.557559	-0.595372	0.063224
H422	H	0.890892	-0.262038	0.396557
H423	H	1.224226	0.071295	0.729891
N424	N	0.511734	-0.465788	0.000023
N425	N	0.845067	-0.132454	0.333356
N426	N	1.178401	0.200879	0.666690
H427	H	0.491503	-0.454689	-0.063161
H428	H	0.824836	-0.121355	0.270173
H429	H	1.158170	0.211978	0.603506
H430	H	0.519138	-0.508992	0.000063
H431	H	0.852471	-0.175659	0.333397
H432	H	1.185805	0.157674	0.666730
N433	N	0.566929	-0.199658	0.000101
N434	N	0.900262	0.133675	0.333434
N435	N	1.233596	0.467008	0.666767
H436	H	0.534372	-0.167347	0.000100
H437	H	0.867705	0.165986	0.333433
H438	H	1.201038	0.499320	0.666767
H439	H	0.566711	-0.226327	-0.063088
H440	H	0.900045	0.107006	0.270245
H441	H	1.233378	0.440339	0.603579
H442	H	0.582039	-0.085905	0.000113
H443	H	0.915372	0.247428	0.333446
H444	H	1.248705	0.580761	0.666779
