data_functionalizedCrystal
_audit_creation_method	'MofGen! by Chris Wilmer'
_symmetry_space_group_name_H-M	'P1'
_symmetry_Int_Tables_number	1
_symmetry_cell_setting	triclinic
loop_
_symmetry_equiv_pos_as_xyz
  x,y,z
_cell_length_a	10.723023
_cell_length_b	10.654550
_cell_length_c	9.798715
_cell_angle_alpha	90.002229
_cell_angle_beta	90.003242
_cell_angle_gamma	84.476225
loop_
_atom_site_label
_atom_site_type_symbol
_atom_site_fract_x
_atom_site_fract_y
_atom_site_fract_z
O1	O	1.657214	0.176143	0.113473
O2	O	1.294064	0.193004	0.113479
O3	O	1.483989	0.001833	0.113471
O4	O	1.467289	0.367314	0.113481
O5	O	1.483974	0.001831	-0.113511
O6	O	1.294050	0.193003	-0.113503
O7	O	1.657200	0.176141	-0.113509
Zn8	Zn	1.475623	0.184572	-0.149544
Zn9	Zn	1.475641	0.184574	0.149514
O10	O	1.467275	0.367313	-0.113501
C11	C	1.247557	0.191777	-0.000012
C12	C	1.109002	0.188106	-0.000010
C13	C	1.047223	0.186469	-0.117592
C14	C	0.904019	0.182675	-0.117593
C15	C	1.482755	-0.044966	-0.000019
C16	C	1.479087	-0.184408	-0.000014
C17	C	1.590911	-0.263911	-0.000020
C18	C	1.587457	-0.394931	-0.000010
C19	C	1.360344	-0.366933	0.000006
C20	C	1.363800	-0.235915	0.000006
C21	C	1.706199	-0.212404	-0.000039
C22	C	1.818033	-0.291908	-0.000046
C23	C	1.814578	-0.422928	-0.000037
C24	C	1.699290	-0.474445	-0.000020
C25	C	1.703707	0.177369	-0.000015
C26	C	1.842262	0.181039	-0.000009
C27	C	1.468508	0.414111	-0.000008
C28	C	1.472177	0.553554	-0.000004
N29	N	1.475619	0.184570	-0.353644
C30	C	1.548395	0.257395	-0.421421
C31	C	1.548415	0.257393	-0.578584
N32	N	1.475655	0.184566	0.353614
H33	H	1.055877	0.186696	0.100657
H34	H	1.610714	0.319748	-0.636870
H35	H	1.413331	0.122217	-0.411970
H36	H	1.610691	0.319739	-0.363095
H37	H	1.413340	0.122220	-0.588108
H38	H	1.709024	-0.105722	-0.000051
H39	H	0.850889	0.181274	-0.218259
H40	H	0.895382	0.182455	0.100663
H41	H	1.100349	0.187869	-0.218258
H42	H	1.905639	-0.487658	-0.000029
O43	O	1.929940	-0.241721	0.000126
C44	C	1.938756	-0.166789	0.117694
H45	H	1.840684	-0.135005	0.156888
H46	H	1.989242	-0.080583	0.091247
H47	H	1.993469	-0.224183	0.200012
O48	O	1.696090	-0.601737	0.000180
C49	C	1.757202	-0.653173	0.117757
H50	H	1.825504	-0.585842	0.156941
H51	H	1.810711	-0.747712	0.091326
H52	H	1.684812	-0.667559	0.200077
O53	O	1.248468	-0.417181	-0.000049
C54	C	1.269398	-0.549869	-0.000019
H55	H	1.366514	-0.579792	-0.042994
H56	H	1.195560	-0.590725	-0.065917
H57	H	1.263043	-0.586385	0.108875
H58	H	1.272742	-0.171182	0.000009
