data_functionalizedCrystal
_audit_creation_method	'MofGen! by Chris Wilmer'
_symmetry_space_group_name_H-M	'P1'
_symmetry_Int_Tables_number	1
_symmetry_cell_setting	triclinic
loop_
_symmetry_equiv_pos_as_xyz
  x,y,z
_cell_length_a	17.637651
_cell_length_b	17.639874
_cell_length_c	17.637815
_cell_angle_alpha	109.603239
_cell_angle_beta	92.204965
_cell_angle_gamma	65.673243
loop_
_atom_site_label
_atom_site_type_symbol
_atom_site_fract_x
_atom_site_fract_y
_atom_site_fract_z
Zn1	Zn	-0.121669	-1.145073	0.191200
Zn2	Zn	0.378331	-0.645073	0.691200
Zn3	Zn	-0.220401	-1.156274	0.036793
Zn4	Zn	0.279599	-0.656274	0.536793
Zn5	Zn	-0.121707	-1.035141	0.081223
Zn6	Zn	0.378293	-0.535141	0.581223
Zn7	Zn	-0.287340	-0.979431	0.191060
Zn8	Zn	0.212660	-0.479431	0.691060
O9	O	-0.187779	-1.078980	0.125069
O10	O	0.312221	-0.578980	0.625069
O11	O	-0.106736	-1.266575	0.152183
O12	O	0.393264	-0.766575	0.652183
O13	O	-0.179311	-1.168209	-0.067900
O14	O	0.320689	-0.668209	0.432100
O15	O	-0.011064	-1.068351	0.114464
O16	O	0.488936	-0.568351	0.614464
O17	O	-0.179274	-1.274805	0.038741
O18	O	0.320726	-0.774805	0.538741
O19	O	-0.011036	-1.149117	0.195264
O20	O	0.488964	-0.649117	0.695264
O21	O	-0.106801	-1.079213	-0.035258
O22	O	0.393199	-0.579213	0.464742
O23	O	-0.171709	-0.907735	0.114328
O24	O	0.328291	-0.407735	0.614328
O25	O	-0.293361	-0.973401	0.301665
O26	O	0.206639	-0.473401	0.801665
O27	O	-0.293398	-0.866805	0.195024
O28	O	0.206602	-0.366805	0.695024
O29	O	-0.171643	-1.095097	0.301769
O30	O	0.328357	-0.595097	0.801769
O31	O	-0.339919	-1.114189	0.038604
O32	O	0.160081	-0.614189	0.538604
O33	O	-0.389098	-0.984263	0.151943
O34	O	0.110902	-0.484263	0.651943
C35	C	-0.239822	-0.856151	0.159482
C36	C	0.260178	-0.356151	0.659482
C37	C	-0.262110	-0.760816	0.174220
C38	C	0.237890	-0.260816	0.674220
C39	C	-0.018388	-0.553665	0.013085
C40	C	0.481612	-0.053665	0.513085
C41	C	-0.039350	-0.464078	0.026941
C42	C	0.460650	0.035922	0.526941
C43	C	-0.166160	-0.421532	0.110773
C44	C	0.333840	0.078468	0.610773
C45	C	-0.145207	-0.511117	0.096927
C46	C	0.354793	-0.011117	0.596927
C47	C	-0.071320	-0.577178	0.048082
C48	C	0.428680	-0.077178	0.548082
C49	C	-0.198139	-0.534630	0.131924
C50	C	0.301861	-0.034630	0.631924
C51	C	-0.177190	-0.624208	0.118075
C52	C	0.322810	-0.124208	0.618075
C53	C	-0.103308	-0.690273	0.069230
C54	C	0.396692	-0.190273	0.569230
C55	C	-0.050371	-0.666755	0.034233
C56	C	0.449629	-0.166755	0.534233
C57	C	-0.272028	-0.468569	0.180764
C58	C	0.227972	0.031431	0.680764
C59	C	-0.324961	-0.492081	0.215761
C60	C	0.175039	0.007919	0.715761
C61	C	-0.304009	-0.581660	0.201917
C62	C	0.195991	-0.081660	0.701917
C63	C	-0.230127	-0.647725	0.153072
C64	C	0.269873	-0.147725	0.653072
C65	C	-0.356946	-0.605177	0.236914
C66	C	0.143054	-0.105177	0.736914
C67	C	-0.335996	-0.694755	0.223066
C68	C	0.164004	-0.194755	0.723066
C69	C	-0.209177	-0.737303	0.139223
C70	C	0.290823	-0.237303	0.639223
C71	C	-0.393194	-1.044415	0.090451
C72	C	0.106806	-0.544415	0.590451
C73	C	-0.481060	-1.029699	0.075656
C74	C	0.018940	-0.529699	0.575656
C75	C	-0.769790	-1.191265	0.237631
C76	C	-0.269790	-0.691265	0.737631
C77	C	-0.852356	-1.177414	0.223719
C78	C	-0.352356	-0.677414	0.723719
C79	C	-0.852451	-1.093410	0.139473
C80	C	-0.352451	-0.593410	0.639473
C81	C	-0.769882	-1.107258	0.153375
C82	C	-0.269882	-0.607258	0.653375
C83	C	-0.728558	-1.156185	0.202455
C84	C	-0.228558	-0.656185	0.702455
C85	C	-0.728650	-1.072178	0.118199
C86	C	-0.228650	-0.572178	0.618199
C87	C	-0.646089	-1.086021	0.132103
C88	C	-0.146089	-0.586021	0.632103
C89	C	-0.604761	-1.134944	0.181184
C90	C	-0.104761	-0.634944	0.681184
C91	C	-0.645998	-1.170028	0.216360
C92	C	-0.145998	-0.670028	0.716360
C93	C	-0.769977	-1.023245	0.069123
C94	C	-0.269977	-0.523245	0.569123
C95	C	-0.728745	-0.988165	0.033947
C96	C	-0.228745	-0.488165	0.533947
C97	C	-0.646181	-1.002014	0.047847
C98	C	-0.146181	-0.502014	0.547847
C99	C	-0.604853	-1.050936	0.096927
C100	C	-0.104853	-0.550936	0.596927
C101	C	-0.604944	-0.966929	0.012671
C102	C	-0.104944	-0.466929	0.512671
C103	C	-0.522384	-0.980772	0.026575
C104	C	-0.022384	-0.480772	0.526575
C105	C	-0.522292	-1.064779	0.110831
C106	C	-0.022292	-0.564779	0.610831
C107	C	0.018439	-1.113699	0.159836
C108	C	0.518439	-0.613699	0.659836
C109	C	0.106317	-1.128494	0.174652
C110	C	0.606317	-0.628494	0.674652
C111	C	-0.239964	-1.026785	0.331193
C112	C	0.260036	-0.526785	0.831193
C113	C	-0.262203	-1.004543	0.419031
C114	C	0.237797	-0.504543	0.919031
C115	C	-0.135522	-0.302683	0.090515
C116	C	0.364478	0.197317	0.590515
C117	C	-0.113222	-0.398021	0.075774
C118	C	0.386778	0.101979	0.575774
C119	C	-0.135728	-1.131031	-0.080251
C120	C	0.364272	-0.631031	0.419749
C121	C	-0.113229	-1.153476	-0.168076
C122	C	0.386771	-0.653476	0.331924
C123	C	-0.018503	-1.248188	0.708184
C124	C	0.481497	-0.748188	1.208184
C125	C	-0.039419	-1.227275	0.790719
C126	C	0.460581	-0.727275	1.290719
C127	C	-0.166153	-1.100564	0.790601
C128	C	0.333847	-0.600564	1.290601
C129	C	-0.145250	-1.121468	0.708063
C130	C	0.354750	-0.621468	1.208063
C131	C	-0.071423	-1.195281	0.666861
C132	C	0.428577	-0.695281	1.166861
C133	C	-0.198170	-1.068561	0.666741
C134	C	0.301830	-0.568561	1.166741
C135	C	-0.177265	-1.089461	0.584211
C136	C	0.322735	-0.589461	1.084211
C137	C	-0.103441	-1.163269	0.543004
C138	C	0.396559	-0.663269	1.043004
C139	C	-0.050518	-1.216181	0.584332
C140	C	0.449482	-0.716181	1.084332
C141	C	-0.271993	-0.994745	0.707945
C142	C	0.228007	-0.494745	1.207945
C143	C	-0.324913	-0.941838	0.666623
C144	C	0.175087	-0.441838	1.166623
C145	C	-0.304012	-0.962742	0.584090
C146	C	0.195988	-0.462742	1.084090
C147	C	-0.230187	-1.036549	0.542883
C148	C	0.269813	-0.536549	1.042883
C149	C	-0.356934	-0.909830	0.542762
C150	C	0.143066	-0.409830	1.042762
C151	C	-0.336029	-0.930730	0.460233
C152	C	0.163971	-0.430730	0.960233
C153	C	-0.209283	-1.057450	0.460353
C154	C	0.290717	-0.557450	0.960353
H155	H	0.041787	-0.607455	-0.026676
H156	H	0.541787	-0.107455	0.473324
F157	F	-0.244799	-0.351219	0.162747
F158	F	0.255201	0.148781	0.662747
F159	F	0.016928	-1.283572	0.834703
F160	F	0.516928	-0.783572	1.334703
F161	F	-0.130535	-0.807615	0.087242
F162	F	0.369465	-0.307615	0.587242
H163	H	-0.289083	-0.395630	0.192038
H164	H	0.210917	0.104370	0.692038
H165	H	0.003764	-0.444940	-0.001554
H166	H	0.503764	0.055060	0.498446
H167	H	-0.379099	-0.713898	0.251564
H168	H	0.120901	-0.213898	0.751564
H169	H	-0.086254	-0.763212	0.057953
H170	H	0.413746	-0.263212	0.557953
H171	H	-0.886109	-1.053571	0.099514
H172	H	-0.386109	-0.553571	0.599514
H173	H	0.009804	-0.720546	-0.005528
H174	H	0.509804	-0.220546	0.494472
F175	F	-0.516991	-1.149414	0.196211
F176	F	-0.016991	-0.649414	0.696211
H177	H	-0.385121	-0.438284	0.255528
H178	H	0.114879	0.061716	0.755528
F179	F	-0.602009	-1.222114	0.268587
F180	F	-0.102009	-0.722114	0.768587
H181	H	-0.885930	-1.205969	0.252380
H182	H	-0.385930	-0.705969	0.752380
F183	F	-0.478498	-0.943439	-0.010865
F184	F	0.021502	-0.443439	0.489135
H185	H	-0.226262	-1.040464	0.824160
H186	H	0.273738	-0.540464	1.324160
H187	H	-0.736140	-1.231115	0.277591
H188	H	-0.236140	-0.731115	0.777591
F189	F	-0.435588	-0.534863	0.288882
F190	F	0.064412	-0.034863	0.788882
F191	F	-0.130713	-1.136017	0.416496
F192	F	0.369287	-0.636017	0.916496
H193	H	-0.086422	-1.180285	0.475803
H194	H	0.413578	-0.680285	0.975803
H195	H	-0.488642	-1.104629	0.150791
H196	H	0.011358	-0.604629	0.650791
F197	F	0.060066	-1.326755	0.664327
F198	F	0.560066	-0.826755	1.164327
F199	F	-0.857800	-1.008638	0.054218
F200	F	-0.357800	-0.508638	0.554218
F201	F	-0.294234	-0.972495	0.795785
F202	F	0.205766	-0.472495	1.295785
H203	H	-0.762403	-0.948326	-0.006012
H204	H	-0.262403	-0.448326	0.493988
H205	H	-0.638605	-0.927085	-0.027284
H206	H	-0.138605	-0.427085	0.472716
F207	F	0.028051	-1.294749	0.540474
F208	F	0.528051	-0.794749	1.040474
F209	F	-0.403481	-0.863283	0.710482
F210	F	0.096519	-0.363283	1.210482
H211	H	-0.417039	-0.849727	0.576323
H212	H	0.082961	-0.349727	1.076323
F213	F	-0.392352	-0.874420	0.416252
F214	F	0.107648	-0.374420	0.916252
