data_functionalizedCrystal
_audit_creation_method	'MofGen! by Chris Wilmer'
_symmetry_space_group_name_H-M	'P1'
_symmetry_Int_Tables_number	1
_symmetry_cell_setting	triclinic
loop_
_symmetry_equiv_pos_as_xyz
  x,y,z
_cell_length_a	21.395362
_cell_length_b	29.839131
_cell_length_c	21.395356
_cell_angle_alpha	89.970658
_cell_angle_beta	89.957023
_cell_angle_gamma	90.057297
loop_
_atom_site_label
_atom_site_type_symbol
_atom_site_fract_x
_atom_site_fract_y
_atom_site_fract_z
Zn1	Zn	0.957807	-0.178674	-0.354578
Zn2	Zn	1.291140	0.154659	-0.021245
Zn3	Zn	1.624474	0.487992	0.312088
Zn4	Zn	0.957692	-0.253802	-0.249798
Zn5	Zn	1.291025	0.079532	0.083536
Zn6	Zn	1.624358	0.412865	0.416869
Zn7	Zn	0.853024	-0.178707	-0.249780
Zn8	Zn	1.186357	0.154626	0.083554
Zn9	Zn	1.519690	0.487959	0.416887
Zn10	Zn	0.852972	-0.253799	-0.354503
Zn11	Zn	1.186305	0.079534	-0.021169
Zn12	Zn	1.519638	0.412868	0.312164
O13	O	0.905373	-0.216245	-0.302165
O14	O	1.238707	0.117088	0.031169
O15	O	1.572040	0.450421	0.364502
O16	O	1.045470	-0.188627	-0.340718
O17	O	1.378803	0.144706	-0.007385
O18	O	1.712136	0.478039	0.325948
O19	O	0.943781	-0.243855	-0.162117
O20	O	1.277114	0.089478	0.171216
O21	O	1.610447	0.422812	0.504549
O22	O	0.866994	-0.115836	-0.263706
O23	O	1.200327	0.217498	0.069628
O24	O	1.533660	0.550831	0.402961
O25	O	1.045385	-0.243823	-0.263737
O26	O	1.378718	0.089510	0.069597
O27	O	1.712052	0.422843	0.402930
O28	O	0.943977	-0.115812	-0.340701
O29	O	1.277311	0.217522	-0.007367
O30	O	1.610644	0.550855	0.325966
O31	O	0.866882	-0.188684	-0.162104
O32	O	1.200215	0.144650	0.171229
O33	O	1.533548	0.477983	0.504563
O34	O	0.765339	-0.188681	-0.263632
O35	O	1.098672	0.144652	0.069701
O36	O	1.432006	0.477986	0.403035
O37	O	0.866905	-0.243818	-0.442191
O38	O	1.200238	0.089515	-0.108857
O39	O	1.533571	0.422848	0.224476
O40	O	0.765301	-0.243850	-0.340571
O41	O	1.098634	0.089483	-0.007238
O42	O	1.431967	0.422816	0.326095
O43	O	0.943927	-0.188625	-0.442246
O44	O	1.277260	0.144709	-0.108913
O45	O	1.610593	0.478042	0.224420
O46	O	0.943730	-0.316668	-0.263663
O47	O	1.277064	0.016665	0.069670
O48	O	1.610397	0.349998	0.403004
O49	O	0.866793	-0.316666	-0.340589
O50	O	1.200126	0.016667	-0.007256
O51	O	1.533459	0.350000	0.326078
C52	C	0.742586	-0.216269	-0.302092
C53	C	1.075919	0.117064	0.031241
C54	C	1.409252	0.450397	0.364575
C55	C	0.672944	-0.216290	-0.302076
C56	C	1.006278	0.117043	0.031258
C57	C	1.339611	0.450376	0.364591
C58	C	0.905260	-0.332968	-0.302133
C59	C	1.238594	0.000365	0.031200
C60	C	1.571927	0.333699	0.364533
C61	C	0.905269	-0.382903	-0.302141
C62	C	1.238603	-0.049569	0.031192
C63	C	1.571936	0.283764	0.364526
C64	C	0.640228	-0.245055	-0.342078
C65	C	0.973561	0.088278	-0.008745
C66	C	1.306894	0.421612	0.324589
C67	C	0.574792	-0.245044	-0.342106
C68	C	0.908126	0.088289	-0.008773
C69	C	1.241459	0.421623	0.324561
C70	C	0.542076	-0.216273	-0.302120
C71	C	0.875410	0.117060	0.031213
C72	C	1.208743	0.450394	0.364546
C73	C	0.574801	-0.187503	-0.262115
C74	C	0.908134	0.145831	0.071218
C75	C	1.241467	0.479164	0.404552
C76	C	0.640235	-0.187511	-0.262093
C77	C	0.973568	0.145822	0.071241
C78	C	1.306902	0.479155	0.404574
C79	C	0.438353	-0.212660	-0.245715
C80	C	0.771687	0.120673	0.087618
C81	C	1.105020	0.454006	0.420951
C82	C	0.372920	-0.212655	-0.245736
C83	C	0.706254	0.120679	0.087597
C84	C	1.039587	0.454012	0.420930
C85	C	0.340256	-0.216244	-0.302189
C86	C	0.673589	0.117090	0.031144
C87	C	1.006922	0.450423	0.364477
C88	C	0.373032	-0.219847	-0.358623
C89	C	0.706365	0.113486	-0.025290
C90	C	1.039698	0.446819	0.308044
C91	C	0.438466	-0.219856	-0.358601
C92	C	0.771799	0.113477	-0.025267
C93	C	1.105132	0.446811	0.308066
C94	C	0.471124	-0.216260	-0.302140
C95	C	0.804457	0.117073	0.031193
C96	C	1.137791	0.450407	0.364526
C97	C	0.236586	-0.244998	-0.342226
C98	C	0.569920	0.088335	-0.008892
C99	C	0.903253	0.421669	0.324441
C100	C	0.171150	-0.244984	-0.342254
C101	C	0.504483	0.088349	-0.008921
C102	C	0.837816	0.421683	0.324412
C103	C	0.171159	-0.187445	-0.262258
C104	C	0.504493	0.145889	0.071075
C105	C	0.837826	0.479222	0.404409
C106	C	0.236595	-0.187457	-0.262235
C107	C	0.569928	0.145877	0.071099
C108	C	0.903261	0.479210	0.404432
C109	C	0.269304	-0.216236	-0.302218
C110	C	0.602638	0.117098	0.031116
C111	C	0.935971	0.450431	0.364449
C112	C	0.945508	-0.692534	-0.262168
C113	C	1.278841	-0.359201	0.071166
C114	C	1.612174	-0.025868	0.404499
C115	C	0.945585	-0.880207	-0.262192
C116	C	1.278918	-0.546874	0.071141
C117	C	1.612252	-0.213541	0.404475
O118	O	0.979707	-0.904462	-0.228181
O119	O	1.313041	-0.571129	0.105152
O120	O	1.646374	-0.237796	0.438485
N121	N	0.905503	-0.903687	-0.302212
N122	N	1.238837	-0.570354	0.031121
N123	N	1.572170	-0.237021	0.364455
C124	C	0.865403	-0.880247	-0.342231
C125	C	1.198736	-0.546913	-0.008898
C126	C	1.532069	-0.213580	0.324435
O127	O	0.831317	-0.904524	-0.376276
O128	O	1.164650	-0.571191	-0.042942
O129	O	1.497984	-0.237858	0.290391
C130	C	0.865329	-0.692574	-0.342210
C131	C	1.198662	-0.359241	-0.008876
C132	C	1.531995	-0.025908	0.324457
C133	C	0.905409	-0.669097	-0.302183
C134	C	1.238742	-0.335763	0.031151
C135	C	1.572075	-0.002430	0.364484
C136	C	0.985585	-0.669056	-0.222145
C137	C	1.318918	-0.335723	0.111189
C138	C	1.652251	-0.002390	0.444522
C139	C	0.985562	-0.622141	-0.222137
C140	C	1.318896	-0.288808	0.111197
C141	C	1.652229	0.044526	0.444530
C142	C	0.945463	-0.598703	-0.262152
C143	C	1.278797	-0.265370	0.071182
C144	C	1.612130	0.067963	0.404515
C145	C	0.905386	-0.622181	-0.302175
C146	C	1.238720	-0.288848	0.031159
C147	C	1.572053	0.044485	0.364492
C148	C	0.825232	-0.669134	-0.382232
C149	C	1.158565	-0.335801	-0.048899
C150	C	1.491898	-0.002468	0.284435
C151	C	0.825218	-0.622213	-0.382224
C152	C	1.158551	-0.288880	-0.048891
C153	C	1.491884	0.044453	0.284443
C154	C	0.865298	-0.598736	-0.342197
C155	C	1.198631	-0.265402	-0.008864
C156	C	1.531964	0.067931	0.324470
C157	C	0.865265	-0.551828	-0.342182
C158	C	1.198598	-0.218495	-0.008848
C159	C	1.531932	0.114839	0.324485
N160	N	0.905347	-0.528348	-0.302162
N161	N	1.238680	-0.195015	0.031171
N162	N	1.572013	0.138319	0.364505
C163	C	0.945446	-0.551786	-0.262147
C164	C	1.278779	-0.218452	0.071187
C165	C	1.612112	0.114881	0.404520
C166	C	0.865443	-0.978777	-0.342239
C167	C	1.198777	-0.645444	-0.008906
C168	C	1.532110	-0.312111	0.324428
C169	C	0.865461	-1.025695	-0.342244
C170	C	1.198794	-0.692362	-0.008910
C171	C	1.532127	-0.359028	0.324423
C172	C	0.945644	-1.025652	-0.262205
C173	C	1.278977	-0.692319	0.071128
C174	C	1.612311	-0.358986	0.404462
C175	C	0.945623	-0.978734	-0.262198
C176	C	1.278956	-0.645400	0.071136
C177	C	1.612290	-0.312067	0.404469
C178	C	0.905525	-0.955297	-0.302219
C179	C	1.238858	-0.621964	0.031114
C180	C	1.572191	-0.288630	0.364447
C181	C	0.945396	-0.453260	-0.262132
C182	C	1.278729	-0.119926	0.071201
C183	C	1.612063	0.213407	0.404534
C184	C	0.945368	-0.406340	-0.262126
C185	C	1.278702	-0.073007	0.071207
C186	C	1.612035	0.260327	0.404541
C187	C	0.865188	-0.406387	-0.342167
C188	C	1.198521	-0.073053	-0.008833
C189	C	1.531854	0.260280	0.324500
C190	C	0.865212	-0.453302	-0.342171
C191	C	1.198546	-0.119969	-0.008838
C192	C	1.531879	0.213364	0.324496
C193	C	0.905322	-0.476738	-0.302152
C194	C	1.238655	-0.143404	0.031181
C195	C	1.571988	0.189929	0.364515
O196	O	0.831166	-0.527544	-0.376180
O197	O	1.164499	-0.194211	-0.042846
O198	O	1.497832	0.139122	0.290487
O199	O	0.979536	-0.527500	-0.228117
O200	O	1.312869	-0.194167	0.105216
O201	O	1.646203	0.139167	0.438549
C202	C	0.945530	-0.739450	-0.262176
C203	C	1.278863	-0.406116	0.071157
C204	C	1.612196	-0.072783	0.404491
C205	C	0.905453	-0.762928	-0.302199
C206	C	1.238786	-0.429594	0.031134
C207	C	1.572119	-0.096261	0.364468
C208	C	0.865354	-0.739490	-0.342214
C209	C	1.198687	-0.406157	-0.008881
C210	C	1.532020	-0.072823	0.324453
C211	C	0.905470	-0.809845	-0.302204
C212	C	1.238804	-0.476512	0.031130
C213	C	1.572137	-0.143179	0.364463
C214	C	0.945569	-0.833283	-0.262189
C215	C	1.278903	-0.499950	0.071145
C216	C	1.612236	-0.166616	0.404478
C217	C	0.985651	-0.809803	-0.222169
C218	C	1.318984	-0.476469	0.111164
C219	C	1.652318	-0.143136	0.444498
C220	C	0.985629	-0.762887	-0.222161
C221	C	1.318962	-0.429554	0.111173
C222	C	1.652296	-0.096221	0.444506
C223	C	0.825272	-0.762970	-0.382234
C224	C	1.158605	-0.429637	-0.048901
C225	C	1.491939	-0.096303	0.284433
C226	C	0.825297	-0.809886	-0.382238
C227	C	1.158630	-0.476552	-0.048905
C228	C	1.491964	-0.143219	0.284428
C229	C	0.865396	-0.833323	-0.342223
C230	C	1.198729	-0.499990	-0.008890
C231	C	1.532063	-0.166657	0.324444
C232	C	1.068797	-0.216222	-0.302238
C233	C	1.402130	0.117111	0.031095
C234	C	1.735463	0.450445	0.364429
C235	C	1.138438	-0.216212	-0.302269
C236	C	1.471771	0.117121	0.031064
C237	C	1.805105	0.450455	0.364397
C238	C	0.905423	-0.216218	-0.465588
C239	C	1.238756	0.117116	-0.132255
C240	C	1.572089	0.450449	0.201079
C241	C	0.905444	-0.216206	-0.535229
C242	C	1.238777	0.117128	-0.201896
C243	C	1.572110	0.450461	0.131437
C244	C	0.905504	-0.099067	-0.302210
C245	C	1.238837	0.234266	0.031124
C246	C	1.572171	0.567600	0.364457
C247	C	0.905560	-0.049133	-0.302229
C248	C	1.238893	0.284201	0.031105
C249	C	1.572226	0.617534	0.364438
C250	C	0.865413	-0.187475	-0.567926
C251	C	1.198746	0.145859	-0.234592
C252	C	1.532080	0.479192	0.098741
C253	C	0.865411	-0.187466	-0.633361
C254	C	1.198744	0.145867	-0.300028
C255	C	1.532078	0.479200	0.033306
C256	C	0.905451	-0.216184	-0.666098
C257	C	1.238784	0.117149	-0.332764
C258	C	1.572117	0.450482	0.000569
C259	C	0.945484	-0.244921	-0.633393
C260	C	1.278817	0.088412	-0.300060
C261	C	1.612151	0.421746	0.033273
C262	C	0.945481	-0.244932	-0.567959
C263	C	1.278814	0.088402	-0.234626
C264	C	1.612147	0.421735	0.098707
C265	C	0.961902	-0.219705	-0.769803
C266	C	1.295235	0.113628	-0.436470
C267	C	1.628568	0.446961	-0.103136
C268	C	0.961906	-0.219691	-0.835236
C269	C	1.295240	0.113642	-0.501903
C270	C	1.628573	0.446975	-0.168569
C271	C	0.905461	-0.216154	-0.867918
C272	C	1.238794	0.117179	-0.534585
C273	C	1.572128	0.450513	-0.201252
C274	C	0.849010	-0.212621	-0.835160
C275	C	1.182343	0.120712	-0.501827
C276	C	1.515676	0.454045	-0.168493
C277	C	0.849006	-0.212632	-0.769726
C278	C	1.182339	0.120701	-0.436393
C279	C	1.515673	0.454035	-0.103059
C280	C	0.905459	-0.216176	-0.737050
C281	C	1.238792	0.117157	-0.403717
C282	C	1.572125	0.450490	-0.070383
C283	C	0.865425	-0.187412	-0.971567
C284	C	1.198758	0.145921	-0.638234
C285	C	1.532091	0.479254	-0.304901
C286	C	0.865422	-0.187407	-1.037004
C287	C	1.198755	0.145926	-0.703671
C288	C	1.532088	0.479259	-0.370337
C289	C	0.945500	-0.244860	-1.037035
C290	C	1.278834	0.088474	-0.703702
C291	C	1.612167	0.421807	-0.370369
C292	C	0.945498	-0.244867	-0.971600
C293	C	1.278831	0.088466	-0.638266
C294	C	1.612165	0.421800	-0.304933
C295	C	0.905461	-0.216141	-0.938870
C296	C	1.238794	0.117192	-0.605536
C297	C	1.572128	0.450526	-0.272203
C298	C	0.905360	-0.216241	-0.139377
C299	C	1.238694	0.117093	0.193956
C300	C	1.572027	0.450426	0.527290
C301	C	0.905461	-0.216126	-0.069736
C302	C	1.238794	0.117207	0.263597
C303	C	1.572128	0.450541	0.596931
H304	H	0.666856	-0.268489	-0.374636
H305	H	1.000189	0.064845	-0.041303
H306	H	1.333523	0.398178	0.292031
H307	H	0.144523	-0.164017	-0.229704
H308	H	0.477856	0.169317	0.103629
H309	H	0.811189	0.502650	0.436963
C310	C	0.821375	-0.155857	-0.669334
C311	C	1.154709	0.177477	-0.336001
C312	C	1.488042	0.510810	-0.002668
N313	N	0.788209	-0.132047	-0.696427
N314	N	1.121542	0.201286	-0.363094
N315	N	1.454876	0.534620	-0.029761
H316	H	0.263220	-0.268429	-0.374785
H317	H	0.596553	0.064904	-0.041452
H318	H	0.929887	0.398237	0.291881
C319	C	0.989715	-0.952913	-0.218167
C320	C	1.323049	-0.619579	0.115166
C321	C	1.656382	-0.286246	0.448499
N322	N	1.022929	-0.933466	-0.185003
N323	N	1.356262	-0.600133	0.148331
N324	N	1.689595	-0.266800	0.481664
C325	C	1.029759	-0.835593	-0.178151
C326	C	1.363093	-0.502260	0.155182
C327	C	1.696426	-0.168927	0.488515
N328	N	1.062982	-0.855021	-0.145002
N329	N	1.396316	-0.521688	0.188332
N330	N	1.729649	-0.188354	0.521665
C331	C	1.024004	-0.223577	-0.871264
C332	C	1.357337	0.109756	-0.537931
C333	C	1.690670	0.443090	-0.204597
N334	N	1.070777	-0.226505	-0.898399
N335	N	1.404111	0.106829	-0.565065
N336	N	1.737444	0.440162	-0.231732
C337	C	1.029649	-0.596322	-0.178098
C338	C	1.362982	-0.262988	0.155235
C339	C	1.696315	0.070345	0.488568
N340	N	1.062855	-0.576877	-0.144925
N341	N	1.396189	-0.243544	0.188409
N342	N	1.729522	0.089789	0.521742
H343	H	1.018241	-0.688134	-0.189559
H344	H	1.351575	-0.354801	0.143774
H345	H	1.684908	-0.021468	0.477107
C346	C	0.989458	-0.380517	-0.218089
C347	C	1.322791	-0.047184	0.115245
C348	C	1.656125	0.286149	0.448578
N349	N	1.022665	-0.361069	-0.184920
N350	N	1.355998	-0.027736	0.148413
N351	N	1.689332	0.305597	0.481747
H352	H	0.792654	-0.828997	-0.414832
H353	H	1.125987	-0.495664	-0.081499
H354	H	1.459320	-0.162331	0.251834
C355	C	0.786910	-0.208750	-0.733694
C356	C	1.120244	0.124583	-0.400361
C357	C	1.453577	0.457916	-0.067027
N358	N	0.740138	-0.205829	-0.706555
N359	N	1.073472	0.127504	-0.373222
N360	N	1.406805	0.460838	-0.039888
C361	C	0.781174	-0.737195	-0.426273
C362	C	1.114508	-0.403862	-0.092940
C363	C	1.447841	-0.070529	0.240394
N364	N	0.747961	-0.717783	-0.459451
N365	N	1.081294	-0.384450	-0.126117
N366	N	1.414628	-0.051117	0.207216
H367	H	0.978085	-0.268304	-0.660052
H368	H	1.311418	0.065030	-0.326718
H369	H	1.644751	0.398363	0.006615
H370	H	0.978081	-0.268328	-0.541338
H371	H	1.311414	0.065006	-0.208005
H372	H	1.644748	0.398339	0.125328
C373	C	0.821366	-0.155879	-0.531926
C374	C	1.154699	0.177454	-0.198593
C375	C	1.488033	0.510788	0.134740
N376	N	0.788188	-0.132082	-0.504811
N377	N	1.121521	0.201252	-0.171477
N378	N	1.454855	0.534585	0.161856
C379	C	0.272584	-0.155817	-0.218223
C380	C	0.605918	0.177517	0.115111
C381	C	0.939251	0.510850	0.448444
N382	N	0.299692	-0.131983	-0.185071
N383	N	0.633025	0.201350	0.148262
N384	N	0.966358	0.534683	0.481596
C385	C	0.821384	-0.155798	-1.072970
C386	C	1.154717	0.177536	-0.739637
C387	C	1.488051	0.510869	-0.406303
N388	N	0.788216	-0.131987	-1.100060
N389	N	1.121549	0.201346	-0.766726
N390	N	1.454883	0.534679	-0.433393
H391	H	0.832824	-0.164022	-0.944917
H392	H	1.166157	0.169311	-0.611584
H393	H	1.499490	0.502644	-0.278251
H394	H	0.978103	-0.268241	-1.063689
H395	H	1.311436	0.065092	-0.730355
H396	H	1.644769	0.398425	-0.397022
C397	C	0.538797	-0.276690	-0.386111
C398	C	0.872130	0.056643	-0.052778
C399	C	1.205463	0.389976	0.280555
N400	N	0.511687	-0.300527	-0.419255
N401	N	0.845020	0.032806	-0.085922
N402	N	1.178353	0.366140	0.247411
H403	H	0.465149	-0.222789	-0.404551
H404	H	0.798483	0.110544	-0.071217
H405	H	1.131816	0.443878	0.262116
H406	H	0.346239	-0.209723	-0.199785
H407	H	0.679572	0.123610	0.133548
H408	H	1.012906	0.456944	0.466882
C409	C	0.786914	-0.208734	-0.871106
C410	C	1.120247	0.124599	-0.537773
C411	C	1.453581	0.457932	-0.204439
N412	N	0.740145	-0.205807	-0.898183
N413	N	1.073478	0.127526	-0.564850
N414	N	1.406812	0.460859	-0.231516
C415	C	0.989557	-0.276458	-0.935632
C416	C	1.322890	0.056875	-0.602299
C417	C	1.656224	0.390208	-0.268966
N418	N	1.022750	-0.300251	-0.908542
N419	N	1.356083	0.033083	-0.575209
N420	N	1.689417	0.366416	-0.241876
H421	H	0.346437	-0.222769	-0.404593
H422	H	0.679771	0.110564	-0.071259
H423	H	1.013104	0.443898	0.262074
C424	C	0.135162	-0.276633	-0.386257
C425	C	0.468495	0.056700	-0.052924
C426	C	0.801828	0.390034	0.280409
N427	N	0.108055	-0.300474	-0.419398
N428	N	0.441388	0.032859	-0.086065
N429	N	0.774721	0.366193	0.247268
C430	C	0.474278	-0.208714	-0.183608
C431	C	0.807611	0.124619	0.149725
C432	C	1.140945	0.457953	0.483059
N433	N	0.501336	-0.205742	-0.136830
N434	N	0.834669	0.127591	0.196503
N435	N	1.168003	0.460924	0.529836
H436	H	1.007870	-0.222582	-0.743198
H437	H	1.341203	0.110751	-0.409865
H438	H	1.674537	0.444085	-0.076531
C439	C	0.538812	-0.155854	-0.218131
C440	C	0.872145	0.177479	0.115203
C441	C	1.205478	0.510812	0.448536
N442	N	0.511705	-0.132015	-0.185002
N443	N	0.845038	0.201319	0.148332
N444	N	1.178371	0.534652	0.481665
C445	C	0.676224	-0.155869	-0.218082
C446	C	1.009558	0.177465	0.115252
C447	C	1.342891	0.510798	0.448585
N448	N	0.703333	-0.132036	-0.184930
N449	N	1.036666	0.201297	0.148403
N450	N	1.369999	0.534631	0.481736
H451	H	0.978058	-0.472335	-0.229546
H452	H	1.311391	-0.139002	0.103787
H453	H	1.644725	0.194331	0.437120
H454	H	0.978295	-1.044743	-0.229623
H455	H	1.311628	-0.711410	0.103710
H456	H	1.644961	-0.378077	0.437043
C457	C	0.821364	-1.051515	-0.386270
C458	C	1.154697	-0.718182	-0.052937
C459	C	1.488031	-0.384849	0.280396
N460	N	0.788151	-1.070962	-0.419436
N461	N	1.121484	-0.737628	-0.086102
N462	N	1.454818	-0.404295	0.247231
C463	C	1.029718	-0.737068	-0.178125
C464	C	1.363051	-0.403735	0.155208
C465	C	1.696385	-0.070401	0.488541
N466	N	1.062928	-0.717624	-0.144955
N467	N	1.396261	-0.384290	0.188378
N468	N	1.729594	-0.050957	0.521712
H469	H	0.832789	-0.959698	-0.374830
H470	H	1.166122	-0.626365	-0.041497
H471	H	1.499455	-0.293031	0.291836
H472	H	0.792591	-0.688242	-0.414823
H473	H	1.125925	-0.354909	-0.081490
H474	H	1.459258	-0.021575	0.251843
C475	C	0.781106	-0.596436	-0.426252
C476	C	1.114439	-0.263102	-0.092919
C477	C	1.447772	0.070231	0.240414
N478	N	0.747879	-0.577021	-0.459413
N479	N	1.081213	-0.243688	-0.126080
N480	N	1.414546	0.089646	0.207253
C481	C	0.821121	-0.479129	-0.386200
C482	C	1.154454	-0.145795	-0.052867
C483	C	1.487787	0.187538	0.280467
N484	N	0.787915	-0.498578	-0.419369
N485	N	1.121248	-0.165245	-0.086035
N486	N	1.454582	0.168089	0.247298
H487	H	0.832537	-0.387297	-0.374745
H488	H	1.165871	-0.053963	-0.041411
H489	H	1.499204	0.279370	0.291922
