data_functionalizedCrystal
_audit_creation_method	'MofGen! by Chris Wilmer'
_symmetry_space_group_name_H-M	'P1'
_symmetry_Int_Tables_number	1
_symmetry_cell_setting	triclinic
loop_
_symmetry_equiv_pos_as_xyz
  x,y,z
_cell_length_a	16.109302
_cell_length_b	9.565339
_cell_length_c	16.109301
_cell_angle_alpha	90.002222
_cell_angle_beta	83.461631
_cell_angle_gamma	89.999197
loop_
_atom_site_label
_atom_site_type_symbol
_atom_site_fract_x
_atom_site_fract_y
_atom_site_fract_z
O1	O	1.103123	0.116327	0.106866
O2	O	1.603123	0.616327	0.606866
O3	O	0.861061	0.116317	0.120165
O4	O	1.361061	0.616317	0.620165
O5	O	0.988742	0.116308	-0.007515
O6	O	1.488742	0.616308	0.492485
O7	O	0.975443	0.116336	0.234547
O8	O	1.475443	0.616336	0.734547
O9	O	0.988747	-0.116212	-0.007512
O10	O	1.488747	0.383788	0.492488
O11	O	0.861067	-0.116203	0.120169
O12	O	1.361067	0.383797	0.620169
O13	O	1.103129	-0.116193	0.106870
O14	O	1.603129	0.383807	0.606870
Zn15	Zn	0.982099	-0.153116	0.113520
Zn16	Zn	1.482099	0.346884	0.613520
Zn17	Zn	0.982091	0.153240	0.113515
Zn18	Zn	1.482091	0.653240	0.613515
O19	O	0.975448	-0.116184	0.234550
O20	O	1.475448	0.383816	0.734550
C21	C	0.830089	0.000055	0.119628
C22	C	1.330089	0.500055	0.619628
C23	C	0.737794	0.000051	0.118013
C24	C	1.237794	0.500051	0.618013
C25	C	0.525456	-0.126682	0.114279
C26	C	1.025456	0.373318	0.614279
C27	C	0.438736	-0.126678	0.112753
C28	C	0.938736	0.373322	0.612753
C29	C	0.438740	0.126828	0.112753
C30	C	0.938740	0.626828	0.612753
C31	C	0.525460	0.126822	0.114274
C32	C	1.025460	0.626822	0.614274
C33	C	0.568815	0.000063	0.115041
C34	C	1.068815	0.500063	0.615041
C35	C	0.395375	0.000073	0.111994
C36	C	0.895375	0.500073	0.611994
C37	C	0.301350	0.000080	0.110338
C38	C	0.801350	0.500080	0.610338
C39	C	0.662847	0.000056	0.116695
C40	C	1.162847	0.500056	0.616695
N41	N	0.982110	-0.362195	0.113523
N42	N	1.482110	0.137805	0.613523
C43	C	1.041177	-0.453365	0.054479
C44	C	1.541177	0.046635	0.554479
C45	C	0.966052	-0.546541	0.038350
C46	C	1.466052	-0.046541	0.538350
C47	C	1.057205	-0.546575	0.129597
C48	C	1.557205	-0.046575	0.629597
C49	C	0.906947	-0.453319	0.097357
C50	C	1.406947	0.046681	0.597357
C51	C	0.998150	-0.453345	0.188637
C52	C	1.498150	0.046655	0.688637
C53	C	0.922971	-0.546479	0.172540
C54	C	1.422971	-0.046479	0.672540
C55	C	1.134101	0.000072	0.107407
C56	C	1.634101	0.500072	0.607407
C57	C	1.226396	0.000085	0.109022
C58	C	1.726396	0.500085	0.609022
C59	C	0.988206	0.000047	-0.038488
C60	C	1.488206	0.500047	0.461512
C61	C	0.986591	0.000045	-0.130784
C62	C	1.486591	0.500045	0.369216
N63	N	0.982087	0.362319	0.113506
N64	N	1.482087	0.862319	0.613506
C65	C	1.058599	0.000070	-0.353056
C66	C	1.558599	0.500070	0.146944
C67	C	1.057074	0.000082	-0.439776
C68	C	1.557074	0.500082	0.060224
C69	C	0.905586	0.000070	-0.419902
C70	C	1.405586	0.500070	0.080098
C71	C	0.907111	0.000068	-0.333184
C72	C	1.407111	0.500068	0.166816
C73	C	0.983620	0.000062	-0.299763
C74	C	1.483620	0.500062	0.200237
C75	C	0.980571	0.000074	-0.473202
C76	C	1.480571	0.500074	0.026798
C77	C	0.978918	0.000087	-0.567228
C78	C	1.478918	0.500087	-0.067228
C79	C	0.985273	0.000052	-0.205731
C80	C	1.485273	0.500052	0.294269
C81	C	0.975984	0.000080	0.265523
C82	C	1.475984	0.500080	0.765523
C83	C	0.977599	0.000091	0.357819
C84	C	1.477599	0.500091	0.857819
H85	H	0.403430	0.230032	0.112129
H86	H	0.903430	0.730032	0.612129
H87	H	0.843295	0.000073	-0.447124
H88	H	1.343295	0.500073	0.052876
H89	H	1.120897	0.000068	-0.325848
H90	H	1.620897	0.500068	0.174152
H91	H	0.560763	0.230040	0.114892
H92	H	1.060763	0.730040	0.614892
Cl93	Cl	0.579957	-0.286037	0.115239
Cl94	Cl	1.079957	0.213963	0.615239
H95	H	0.403437	-0.229886	0.112133
H96	H	0.903437	0.270114	0.612133
Cl97	Cl	1.118224	-0.390234	-0.022647
Cl98	Cl	1.618224	0.109766	0.477353
H99	H	0.843416	-0.412528	0.083682
H100	H	1.343416	0.087472	0.583682
Cl101	Cl	1.155267	-0.609827	0.150598
Cl102	Cl	1.655267	-0.109827	0.650598
Cl103	Cl	0.945074	-0.609733	-0.059733
Cl104	Cl	1.445074	-0.109733	0.440267
H105	H	0.872956	-0.587105	0.222468
H106	H	1.372956	-0.087105	0.722468
Cl107	Cl	0.812843	0.000070	-0.266182
Cl108	Cl	1.312843	0.500070	0.233818
H109	H	1.118130	0.000092	-0.483165
H110	H	1.618130	0.500092	0.016835
H111	H	1.011756	-0.412378	0.252146
H112	H	1.511756	0.087622	0.752146
