data_functionalizedCrystal
_audit_creation_method	'MofGen! by Chris Wilmer'
_symmetry_space_group_name_H-M	'P1'
_symmetry_Int_Tables_number	1
_symmetry_cell_setting	triclinic
loop_
_symmetry_equiv_pos_as_xyz
  x,y,z
_cell_length_a	10.540514
_cell_length_b	10.540539
_cell_length_c	14.048226
_cell_angle_alpha	89.995726
_cell_angle_beta	89.993041
_cell_angle_gamma	84.520326
loop_
_atom_site_label
_atom_site_type_symbol
_atom_site_fract_x
_atom_site_fract_y
_atom_site_fract_z
O1	O	1.685909	0.178751	-0.079168
O2	O	2.185909	0.678751	0.420832
O3	O	1.316492	0.195640	-0.079167
O4	O	1.816492	0.695640	0.420833
O5	O	1.509629	0.002488	-0.079166
O6	O	2.009629	0.502488	0.420834
O7	O	1.492773	0.371902	-0.079168
O8	O	1.992773	0.871902	0.420832
O9	O	1.509605	0.002476	0.079155
O10	O	2.009605	0.502476	0.579155
O11	O	1.316469	0.195628	0.079155
O12	O	1.816469	0.695628	0.579155
O13	O	1.685886	0.178739	0.079154
O14	O	2.185886	0.678739	0.579154
Zn15	Zn	1.501173	0.187182	0.104291
Zn16	Zn	2.001173	0.687182	0.604291
Zn17	Zn	1.501204	0.187197	-0.104304
Zn18	Zn	2.001204	0.687197	0.395696
O19	O	1.492749	0.371891	0.079153
O20	O	1.992749	0.871891	0.579153
C21	C	1.269177	0.194374	-0.000006
C22	C	1.769177	0.694374	0.499994
C23	C	1.128227	0.190605	-0.000005
C24	C	1.628227	0.690605	0.499995
C25	C	1.057522	0.328745	-0.000008
C26	C	1.557522	0.828745	0.499992
C27	C	0.910908	0.324871	-0.000372
C28	C	1.410908	0.824871	0.499628
C29	C	0.935903	0.115485	-0.090244
C30	C	1.435903	0.615485	0.409756
C31	C	1.082442	0.120338	-0.090315
C32	C	1.582442	0.620338	0.409685
C33	C	1.082818	0.118281	0.089733
C34	C	1.582818	0.618281	0.589733
C35	C	0.935839	0.116948	0.090914
C36	C	1.435839	0.616948	0.590914
C37	C	1.508353	-0.044821	-0.000007
C38	C	2.008353	0.455179	0.499993
C39	C	1.504571	-0.185769	-0.000012
C40	C	2.004571	0.314231	0.499988
C41	C	1.359652	-0.369182	-0.000367
C42	C	1.859652	0.130818	0.499633
C43	C	1.363486	-0.222564	-0.000011
C44	C	1.863486	0.277436	0.499989
C45	C	1.572454	-0.247439	0.090397
C46	C	2.072454	0.252561	0.590397
C47	C	1.567639	-0.393983	0.090473
C48	C	2.067639	0.106017	0.590473
C49	C	1.570535	-0.394488	-0.089568
C50	C	2.070535	0.105512	0.410432
C51	C	1.571835	-0.247506	-0.090763
C52	C	2.071835	0.252494	0.409237
C53	C	1.733201	0.180004	-0.000009
C54	C	2.233201	0.680004	0.499991
C55	C	1.874151	0.183774	-0.000016
C56	C	2.374151	0.683774	0.499984
C57	C	1.494025	0.419199	-0.000008
C58	C	1.994025	0.919199	0.499992
C59	C	1.497807	0.560147	-0.000009
C60	C	1.997807	1.060147	0.499991
N61	N	1.501161	0.187170	0.246652
N62	N	2.001161	0.687170	0.746652
N63	N	1.501226	0.187198	-0.246665
N64	N	2.001226	0.687198	0.253335
C65	C	1.586710	0.101679	0.296470
C66	C	2.086710	0.601679	0.796470
C67	C	1.586718	0.101678	0.396128
C68	C	2.086718	0.601678	0.896128
C69	C	1.501184	0.187176	0.445965
C70	C	2.001184	0.687176	0.945965
C71	C	1.415626	0.272672	0.396140
C72	C	1.915626	0.772672	0.896140
C73	C	1.415613	0.272666	0.296484
C74	C	1.915613	0.772666	0.796484
C75	C	1.415663	0.272682	0.603854
C76	C	1.915663	0.772682	1.103854
C77	C	1.415678	0.272690	0.703517
C78	C	1.915678	0.772690	1.203517
C79	C	1.586769	0.101694	0.703498
C80	C	2.086769	0.601694	1.203498
C81	C	1.586755	0.101687	0.603842
C82	C	2.086755	0.601687	1.103842
C83	C	1.501199	0.187185	0.554024
C84	C	2.001199	0.687185	1.054024
H85	H	0.893306	0.162304	-0.157648
H86	H	1.393306	0.662304	0.342352
F87	F	0.882243	0.182175	0.178166
F88	F	1.382243	0.682175	0.678166
H89	H	1.304137	-0.399389	0.064104
H90	H	1.804137	0.100611	0.564104
H91	H	1.345976	0.342282	0.436724
H92	H	1.845976	0.842282	0.936724
H93	H	0.911654	0.014102	0.096631
H94	H	1.411654	0.514102	0.596631
H95	H	1.309677	-0.180808	0.064906
H96	H	1.809677	0.319192	0.564906
H97	H	0.869186	0.378363	-0.065433
H98	H	1.369186	0.878363	0.434567
F99	F	1.144604	-0.014893	0.090883
F100	F	1.644604	0.485107	0.590883
H101	H	1.130449	0.018865	-0.094166
H102	H	1.630449	0.518865	0.405834
H103	H	1.656367	0.032061	0.255899
H104	H	2.156367	0.532061	0.755899
H105	H	1.525279	-0.204840	0.157677
H106	H	2.025279	0.295160	0.657677
F107	F	1.324556	0.363655	0.243465
F108	F	1.824556	0.863655	0.743465
H109	H	1.517450	-0.422183	0.158056
H110	H	2.017450	0.077817	0.658056
F111	F	1.703731	-0.456229	-0.090365
F112	F	2.203731	0.043771	0.409635
H113	H	1.669105	-0.441961	0.094574
H114	H	2.169105	0.058039	0.594574
F115	F	1.293669	-0.166862	-0.084720
F116	F	1.793669	0.333138	0.415280
F117	F	1.324638	0.363688	0.756551
F118	F	1.824638	0.863688	1.256551
F119	F	1.324599	0.363676	0.550838
F120	F	1.824599	0.863676	1.050838
H121	H	1.656377	0.032063	0.436689
H122	H	2.156377	0.532063	0.936689
F123	F	1.510856	-0.435704	-0.179135
F124	F	2.010856	0.064296	0.320865
F125	F	1.123970	0.178377	0.179152
F126	F	1.623970	0.678377	0.679152
H127	H	1.676062	-0.225095	0.093758
H128	H	2.176062	0.274905	0.593758
H129	H	1.656431	0.032079	0.744066
H130	H	2.156431	0.532079	1.244066
F131	F	1.286815	-0.406548	-0.085110
F132	F	1.786815	0.093452	0.414890
H133	H	1.522165	-0.206639	-0.157645
H134	H	2.022165	0.293361	0.342355
H135	H	1.656410	0.032075	0.563264
H136	H	2.156410	0.532075	1.063264
F137	F	0.855126	0.395085	0.084144
F138	F	1.355126	0.895085	0.584144
F139	F	1.097038	0.400928	-0.084457
F140	F	1.597038	0.900928	0.415543
F141	F	1.095439	0.402264	0.084223
F142	F	1.595439	0.902264	0.584223
H143	H	1.674697	-0.223294	-0.096223
H144	H	2.174697	0.276706	0.403777
H145	H	1.110677	0.170224	-0.158020
H146	H	1.610677	0.670224	0.341980
H147	H	0.913589	0.011853	-0.093343
H148	H	1.413589	0.511853	0.406657
