data_functionalizedCrystal
_audit_creation_method	'MofGen! by Chris Wilmer'
_symmetry_space_group_name_H-M	'P1'
_symmetry_Int_Tables_number	1
_symmetry_cell_setting	triclinic
loop_
_symmetry_equiv_pos_as_xyz
  x,y,z
_cell_length_a	12.759401
_cell_length_b	12.759400
_cell_length_c	12.759393
_cell_angle_alpha	89.969121
_cell_angle_beta	89.980064
_cell_angle_gamma	90.013936
loop_
_atom_site_label
_atom_site_type_symbol
_atom_site_fract_x
_atom_site_fract_y
_atom_site_fract_z
Zn1	Zn	1.606256	-0.418224	-0.594027
Zn2	Zn	1.606150	-0.593943	-0.418349
Zn3	Zn	1.430558	-0.418277	-0.418362
Zn4	Zn	1.430547	-0.593860	-0.593986
O5	O	1.518378	-0.506076	-0.506181
O6	O	1.753263	-0.441547	-0.570734
O7	O	1.582818	-0.570697	-0.271329
O8	O	1.453913	-0.271249	-0.441686
O9	O	1.753185	-0.570647	-0.441665
O10	O	1.582998	-0.271210	-0.570747
O11	O	1.453811	-0.441636	-0.271339
O12	O	1.283535	-0.441555	-0.441647
O13	O	1.453894	-0.570504	-0.741012
O14	O	1.283527	-0.570555	-0.570677
O15	O	1.582987	-0.441466	-0.741042
O16	O	1.582807	-0.740953	-0.441625
O17	O	1.453792	-0.740892	-0.570665
C18	C	1.245410	-0.506052	-0.506160
C19	C	1.128634	-0.506068	-0.506176
C20	C	0.964014	-0.438833	-0.439128
C21	C	1.073738	-0.438809	-0.439112
C22	C	1.073799	-0.573348	-0.573267
C23	C	0.964077	-0.573366	-0.573287
C24	C	1.223678	-0.314834	-0.401759
C25	C	1.278508	-0.247566	-0.334659
C26	C	1.242843	-0.231321	-0.232179
C27	C	1.152351	-0.282359	-0.196778
C28	C	1.097526	-0.349635	-0.263873
C29	C	1.133189	-0.365860	-0.366367
C30	C	0.814136	-0.697342	-0.610629
C31	C	0.759309	-0.764624	-0.677719
C32	C	0.794972	-0.780880	-0.780201
C33	C	0.885468	-0.729860	-0.815598
C34	C	0.940294	-0.662579	-0.748508
C35	C	0.904625	-0.646321	-0.646027
C36	C	1.518315	-0.779043	-0.506162
C37	C	1.518385	-0.895820	-0.506189
C38	C	1.585570	-0.950572	-0.573448
C39	C	1.585629	-1.060296	-0.573477
C40	C	1.451315	-1.060506	-0.438978
C41	C	1.451251	-0.950784	-0.438956
C42	C	1.623188	-1.210123	-0.697446
C43	C	1.690390	-1.264879	-0.764696
C44	C	1.792875	-1.229172	-0.780908
C45	C	1.828180	-1.138711	-0.729856
C46	C	1.760984	-1.083960	-0.662599
C47	C	1.658484	-1.119666	-0.646406
C48	C	1.413703	-0.800955	-0.314985
C49	C	1.346512	-0.746203	-0.247722
C50	C	1.244025	-0.781908	-0.231498
C51	C	1.208724	-0.872372	-0.282532
C52	C	1.275915	-0.927125	-0.349795
C53	C	1.378401	-0.891412	-0.366021
C54	C	1.792411	-0.506100	-0.506203
C55	C	1.909188	-0.506111	-0.506212
C56	C	1.518451	-0.505970	-0.780214
C57	C	1.518483	-0.505925	-0.896991
C58	C	1.518469	-0.232043	-0.506223
C59	C	1.518507	-0.115266	-0.506240
C60	C	1.585710	-0.438728	-0.951870
C61	C	1.585735	-0.438690	-1.061594
C62	C	1.451302	-0.573055	-1.061550
C63	C	1.451272	-0.573086	-0.951828
C64	C	1.663328	-0.361157	-0.951897
C65	C	1.663353	-0.361119	-1.061621
C66	C	1.518365	-0.506106	-0.233213
C67	C	1.518537	-0.505855	-0.116437
H68	H	0.785077	-0.684093	-0.527187
H69	H	1.396579	-0.627733	-1.106212
C70	C	1.866794	-1.289406	-0.854887
N71	N	1.922463	-1.334777	-0.910612
C72	C	1.526446	-0.761670	-0.332829
N73	N	1.611365	-0.732082	-0.346262
H74	H	1.640233	-0.905823	-0.628195
C75	C	1.134189	-0.647335	-0.647035
N76	N	1.179673	-0.703069	-0.702594
C77	C	1.633911	-0.251241	-0.911691
N78	N	1.611752	-0.168456	-0.881408
H79	H	1.744724	-0.382912	-1.091402
H80	H	1.189319	-0.737319	-0.176723
H81	H	1.396525	-0.627801	-0.907150
C82	C	1.767728	-0.400534	-0.905914
N83	N	1.846366	-0.430187	-0.871279
C84	C	1.624072	-0.256661	-1.107621
N85	N	1.594497	-0.177981	-1.142270
H86	H	0.919326	-0.384065	-0.384516
H87	H	1.375265	-0.672545	-0.206163
H88	H	1.352187	-0.206011	-0.363492
H89	H	0.750326	-0.835674	-0.834822
C90	C	1.940954	-1.099495	-0.747619
N91	N	2.025908	-1.069971	-0.760977
C92	C	0.997985	-0.405769	-0.224940
N93	N	0.923005	-0.448043	-0.195615
H94	H	1.287494	-0.176549	-0.177546
C95	C	1.113130	-0.264490	-0.084039
N96	N	1.083584	-0.251026	0.000878
H97	H	1.252718	-0.328045	-0.485210
C98	C	1.039841	-0.606452	-0.787451
N99	N	1.114819	-0.564177	-0.816782
H100	H	1.661635	-1.338533	-0.806262
C101	C	0.924699	-0.747740	-0.928334
N102	N	0.954246	-0.761212	-1.013249
H103	H	0.685624	-0.806170	-0.648889
C104	C	1.799810	-0.984455	-0.606450
N105	N	1.829056	-0.909500	-0.564165
C106	C	1.510432	-1.249381	-0.679657
N107	N	1.425499	-1.278949	-0.666268
H108	H	1.396659	-1.105271	-0.384238
H109	H	1.247165	-1.000786	-0.391350
C110	C	1.095982	-0.911651	-0.264687
N111	N	1.011063	-0.941233	-0.251243
