data_functionalizedCrystal
_audit_creation_method	'MofGen! by Chris Wilmer'
_symmetry_space_group_name_H-M	'P1'
_symmetry_Int_Tables_number	1
_symmetry_cell_setting	triclinic
loop_
_symmetry_equiv_pos_as_xyz
  x,y,z
_cell_length_a	17.077404
_cell_length_b	13.031981
_cell_length_c	17.077396
_cell_angle_alpha	97.212086
_cell_angle_beta	90.018362
_cell_angle_gamma	97.189720
loop_
_atom_site_label
_atom_site_type_symbol
_atom_site_fract_x
_atom_site_fract_y
_atom_site_fract_z
Zn1	Zn	1.160409	-0.416167	0.404091
Zn2	Zn	1.660409	0.083833	0.904091
Zn3	Zn	1.143664	-0.590961	0.256139
Zn4	Zn	1.643664	-0.090961	0.756139
Zn5	Zn	1.029138	-0.416196	0.272839
Zn6	Zn	1.529138	0.083804	0.772839
Zn7	Zn	1.012463	-0.590892	0.387372
Zn8	Zn	1.512463	-0.090892	0.887372
O9	O	1.086418	-0.503554	0.330111
O10	O	1.586418	-0.003554	0.830111
O11	O	1.268033	-0.439370	0.384473
O12	O	1.768033	0.060630	0.884473
O13	O	1.128442	-0.567820	0.148504
O14	O	1.628442	-0.067820	0.648504
O15	O	1.060537	-0.269929	0.304236
O16	O	1.560537	0.230071	0.804236
O17	O	1.255730	-0.567791	0.275774
O18	O	1.755730	-0.067791	0.775774
O19	O	1.156981	-0.269907	0.400666
O20	O	1.656981	0.230093	0.900666
O21	O	1.044300	-0.439421	0.160773
O22	O	1.544300	0.060579	0.660773
O23	O	0.917080	-0.439354	0.288024
O24	O	1.417080	0.060646	0.788024
O25	O	1.032118	-0.567673	0.499441
O26	O	1.532118	-0.067673	0.999441
O27	O	0.904830	-0.567702	0.372171
O28	O	1.404830	-0.067702	0.872171
O29	O	1.140813	-0.439303	0.511725
O30	O	1.640813	0.060697	1.011725
O31	O	1.112274	-0.737215	0.259562
O32	O	1.612274	-0.237215	0.759562
O33	O	1.015881	-0.737165	0.355978
O34	O	1.515881	-0.237165	0.855978
C35	C	0.882473	-0.503525	0.330096
C36	C	1.382473	-0.003525	0.830096
C37	C	0.795222	-0.503537	0.330106
C38	C	1.295222	-0.003537	0.830106
C39	C	0.760627	-0.436787	0.386771
C40	C	1.260627	0.063213	0.886771
C41	C	0.678646	-0.436794	0.386774
C42	C	1.178646	0.063206	0.886774
C43	C	0.631261	-0.503557	0.330114
C44	C	1.131261	-0.003557	0.830114
C45	C	0.665861	-0.570309	0.273443
C46	C	1.165861	-0.070309	0.773443
C47	C	0.747842	-0.570297	0.273438
C48	C	1.247842	-0.070297	0.773438
C49	C	0.494989	-0.570333	0.273461
C50	C	0.994989	-0.070333	0.773461
C51	C	0.413003	-0.570348	0.273467
C52	C	0.913003	-0.070348	0.773467
C53	C	0.425794	-0.436830	0.386797
C54	C	0.925794	0.063170	0.886797
C55	C	0.507774	-0.436818	0.386791
C56	C	1.007774	0.063182	0.886791
C57	C	0.542369	-0.503572	0.330121
C58	C	1.042369	-0.003572	0.830121
C59	C	1.060472	-0.775114	0.304161
C60	C	1.560472	-0.275114	0.804161
C61	C	1.049444	-0.891289	0.293085
C62	C	1.549444	-0.391289	0.793085
C63	C	1.092216	-0.942989	0.335907
C64	C	1.592216	-0.442989	0.835907
C65	C	1.080819	-1.063062	0.324461
C66	C	1.580819	-0.563062	0.824461
C67	C	1.291160	-0.503585	0.330126
C68	C	1.791160	-0.003585	0.830126
C69	C	1.378408	-0.503598	0.330132
C70	C	1.878408	-0.003598	0.830132
C71	C	1.086473	-0.503477	0.534862
C72	C	1.586473	-0.003477	1.034862
C73	C	1.086497	-0.503444	0.622115
C74	C	1.586497	-0.003444	1.122115
C75	C	1.112487	-0.230934	0.356179
C76	C	1.612487	0.269066	0.856179
C77	C	1.123596	-0.114759	0.367288
C78	C	1.623596	0.385241	0.867288
C79	C	1.086416	-0.503556	0.126163
C80	C	1.586416	-0.003556	0.626163
C81	C	1.086573	-0.503294	0.038938
C82	C	1.586573	-0.003294	0.538938
C83	C	1.143096	-0.436596	0.669503
C84	C	1.643096	0.063404	1.169503
C85	C	1.143109	-0.436562	0.751487
C86	C	1.643109	0.063438	1.251487
C87	C	1.086525	-0.503381	0.786081
C88	C	1.586525	-0.003381	1.286081
C89	C	1.029919	-0.570232	0.738687
C90	C	1.529919	-0.070232	1.238687
C91	C	1.029904	-0.570261	0.656705
C92	C	1.529904	-0.070261	1.156705
C93	C	1.029957	-0.570169	0.909563
C94	C	1.529957	-0.070169	1.409563
C95	C	1.029973	-0.570142	0.991550
C96	C	1.529973	-0.070142	1.491550
C97	C	1.143162	-0.436470	1.004345
C98	C	1.643162	0.063530	1.504345
C99	C	1.143147	-0.436499	0.922363
C100	C	1.643147	0.063501	1.422363
C101	C	1.086542	-0.503351	0.874975
C102	C	1.586542	-0.003351	1.374975
H103	H	0.397623	-0.382475	0.432939
H104	H	0.897623	0.117525	0.932939
H105	H	1.137268	-0.898361	0.381044
H106	H	1.637268	-0.398361	0.881044
H107	H	0.983852	-0.624591	0.870983
H108	H	1.483852	-0.124591	1.370983
Br109	Br	0.953121	-0.660910	0.785635
Br110	Br	1.453121	-0.160910	1.285635
Br111	Br	1.198696	-1.040390	0.442524
Br112	Br	1.698696	-0.540390	0.942524
Br113	Br	0.974339	-0.965665	0.217862
Br114	Br	1.474339	-0.465665	0.717862
H115	H	0.650483	-0.382441	0.432918
H116	H	1.150483	0.117559	0.932918
Br117	Br	1.005710	-1.137434	0.249234
Br118	Br	1.505710	-0.637434	0.749234
H119	H	1.189176	-0.382188	0.641343
H120	H	1.689176	0.117812	1.141343
H121	H	0.799203	-0.382424	0.432912
H122	H	1.299203	0.117576	0.932912
H123	H	1.189200	-0.382130	0.790067
H124	H	1.689200	0.117870	1.290067
H125	H	1.189226	-0.382095	0.894199
H126	H	1.689226	0.117905	1.394199
Br127	Br	1.219986	-0.345746	1.068656
Br128	Br	1.719986	0.154254	1.568656
H129	H	0.546353	-0.382460	0.432932
H130	H	1.046353	0.117540	0.932932
H131	H	0.983896	-0.624550	1.019714
H132	H	1.483896	-0.124550	1.519714
H133	H	0.983807	-0.624685	0.618123
H134	H	1.483807	-0.124685	1.118123
H135	H	0.523153	-0.624689	0.227312
H136	H	1.023153	-0.124689	0.727312
Br137	Br	0.348692	-0.660985	0.196591
Br138	Br	0.848692	-0.160985	0.696591
H139	H	0.776007	-0.624651	0.227295
H140	H	1.276007	-0.124651	0.727295
Br141	Br	0.601555	-0.660909	0.196542
Br142	Br	1.101555	-0.160909	0.696542
