data_functionalizedCrystal
_audit_creation_method	'MofGen! by Chris Wilmer'
_symmetry_space_group_name_H-M	'P1'
_symmetry_Int_Tables_number	1
_symmetry_cell_setting	triclinic
loop_
_symmetry_equiv_pos_as_xyz
  x,y,z
_cell_length_a	16.109302
_cell_length_b	11.792240
_cell_length_c	15.186229
_cell_angle_alpha	90.013097
_cell_angle_beta	89.994701
_cell_angle_gamma	96.172402
loop_
_atom_site_label
_atom_site_type_symbol
_atom_site_fract_x
_atom_site_fract_y
_atom_site_fract_z
O1	O	1.103817	-0.145889	-0.073287
O2	O	0.861840	-0.164043	-0.073282
O3	O	0.988701	0.010256	-0.073258
O4	O	0.976957	-0.320188	-0.073311
O5	O	0.988692	0.010258	0.073200
O6	O	0.861832	-0.164041	0.073175
O7	O	1.103808	-0.145887	0.073171
Zn8	Zn	0.982819	-0.154963	0.096426
Zn9	Zn	0.982830	-0.154967	-0.096538
O10	O	0.976948	-0.320186	0.073146
C11	C	0.830858	-0.163307	-0.000052
C12	C	0.738552	-0.161102	-0.000049
C13	C	0.526183	-0.156001	0.079777
C14	C	0.439453	-0.153917	0.079774
C15	C	0.439472	-0.153926	-0.079902
C16	C	0.526202	-0.156002	-0.079898
C17	C	0.569554	-0.157045	-0.000056
C18	C	0.396095	-0.152885	-0.000063
C19	C	0.302059	-0.150625	-0.000066
C20	C	0.663596	-0.159303	-0.000053
C21	C	0.987959	0.052541	-0.000024
C22	C	0.985751	0.178536	-0.000009
C23	C	0.981690	0.409212	0.000005
C24	C	0.983946	0.280847	-0.000003
C25	C	1.134791	-0.146623	-0.000061
C26	C	1.227097	-0.148829	-0.000070
C27	C	0.977690	0.637528	-0.000058
C28	C	0.979898	0.511534	0.000015
N29	N	0.982817	-0.154961	0.228119
N30	N	0.982838	-0.154961	-0.228230
C31	C	1.039010	-0.077807	0.453852
C32	C	1.039013	-0.077804	0.546042
C33	C	0.926639	-0.232118	0.546030
C34	C	0.926633	-0.232114	0.453842
C35	C	0.982823	-0.154960	0.407755
C36	C	0.982832	-0.154961	0.592133
C37	C	0.982834	-0.154959	0.692089
C38	C	0.982820	-0.154961	0.307793
H39	H	1.084763	-0.014982	0.416331
C40	C	0.448203	-0.154149	-0.237734
C41	C	0.391816	-0.152797	-0.167662
H42	H	0.418782	-0.153450	-0.291913
H43	H	0.475989	-0.221097	-0.234415
H44	H	0.488073	-0.088805	-0.234400
H45	H	0.351950	-0.218146	-0.170991
H46	H	0.364017	-0.085842	-0.170982
C47	C	0.517450	-0.155765	0.237608
C48	C	0.573838	-0.157130	0.167537
H49	H	0.546872	-0.156451	0.291788
H50	H	0.477584	-0.221099	0.234281
H51	H	0.489664	-0.088806	0.234281
H52	H	0.601620	-0.224093	0.170860
H53	H	0.613719	-0.091789	0.170866
C54	C	0.350833	-0.054056	0.172421
C55	C	0.391783	-0.152765	0.167531
H56	H	0.321410	-0.053340	0.226605
H57	H	0.312599	-0.053150	0.124882
H58	H	0.390723	0.011267	0.169107
H59	H	0.351893	-0.218089	0.170839
H60	H	0.430020	-0.153682	0.215083
H61	H	1.084764	-0.014978	0.583572
H62	H	0.561516	-0.156849	-0.144912
C63	C	0.876758	-0.300652	0.687343
C64	C	0.864885	-0.316934	0.596691
H65	H	0.838637	-0.353023	0.718615
H66	H	0.867385	-0.224912	0.702466
H67	H	0.932303	-0.313000	0.702427
H68	H	0.809341	-0.304578	0.581606
H69	H	0.874251	-0.392693	0.581562
C70	C	0.815558	-0.384663	0.463082
C71	C	0.864870	-0.316931	0.403165
H72	H	0.777433	-0.437024	0.431794
H73	H	0.785443	-0.337411	0.499052
H74	H	0.850358	-0.425503	0.499026
H75	H	0.830070	-0.276084	0.367225
H76	H	0.894987	-0.364189	0.367180
