data_functionalizedCrystal
_audit_creation_method	'MofGen! by Chris Wilmer'
_symmetry_space_group_name_H-M	'P1'
_symmetry_Int_Tables_number	1
_symmetry_cell_setting	triclinic
loop_
_symmetry_equiv_pos_as_xyz
  x,y,z
_cell_length_a	10.654550
_cell_length_b	26.809956
_cell_length_c	10.654550
_cell_angle_alpha	89.996063
_cell_angle_beta	84.484923
_cell_angle_gamma	90.012431
loop_
_atom_site_label
_atom_site_type_symbol
_atom_site_fract_x
_atom_site_fract_y
_atom_site_fract_z
O1	O	1.667851	0.041521	0.176381
O2	O	1.302373	0.041513	0.193187
O3	O	1.493515	0.041514	0.002045
O4	O	1.476709	0.041521	0.367523
O5	O	1.493479	-0.041446	0.002074
O6	O	1.302336	-0.041446	0.193216
O7	O	1.667815	-0.041438	0.176410
Zn8	Zn	1.485070	-0.054614	0.184818
Zn9	Zn	1.485118	0.054689	0.184779
O10	O	1.476673	-0.041438	0.367552
C11	C	1.255556	0.000033	0.191968
C12	C	1.116113	0.000030	0.188276
N13	N	1.485047	-0.129210	0.184843
C14	C	1.036628	0.000039	0.300817
C15	C	0.905607	0.000048	0.297341
C16	C	0.933570	0.000039	0.068771
C17	C	1.064588	0.000027	0.072249
C18	C	1.020482	0.000046	0.432780
C19	C	0.889461	0.000055	0.429304
C20	C	1.569745	-0.473835	0.100163
C21	C	1.569774	-0.682713	0.100144
O22	O	1.641736	-0.709717	0.028152
N23	N	1.485124	-0.708837	0.184752
C24	C	1.400455	-0.682737	0.269365
O25	O	1.328447	-0.709750	0.341320
C26	C	1.400420	-0.473861	0.269377
C27	C	1.485085	-0.447740	0.184772
C28	C	1.654401	-0.447715	0.015564
C29	C	1.654397	-0.395498	0.015574
C30	C	1.569737	-0.369403	0.100183
C31	C	1.485081	-0.395524	0.184782
C32	C	1.315746	-0.447763	0.353983
C33	C	1.315743	-0.395540	0.353976
C34	C	1.400407	-0.369419	0.269371
C35	C	1.400417	-0.317212	0.269402
N36	N	1.485067	-0.291088	0.184793
C37	C	1.569727	-0.317184	0.100184
C38	C	1.400481	-0.792401	0.269355
C39	C	1.400491	-0.844620	0.269353
C40	C	1.569809	-0.844592	0.100130
C41	C	1.569804	-0.792372	0.100138
C42	C	1.485131	-0.766277	0.184747
C43	C	1.569714	-0.207526	0.100213
C44	C	1.569706	-0.155305	0.100234
C45	C	1.400385	-0.155337	0.269452
C46	C	1.400396	-0.207554	0.269436
C47	C	1.485066	-0.233647	0.184806
O48	O	1.328483	-0.290176	0.341346
O49	O	1.641706	-0.290162	0.028221
C50	C	1.569748	-0.526052	0.100152
C51	C	1.485092	-0.552173	0.184752
C52	C	1.400432	-0.526077	0.269361
C53	C	1.485102	-0.604391	0.184750
C54	C	1.569762	-0.630487	0.100141
C55	C	1.654412	-0.604364	0.015533
C56	C	1.654408	-0.552147	0.015543
C57	C	1.315782	-0.552200	0.353969
C58	C	1.315793	-0.604417	0.353953
C59	C	1.400453	-0.630512	0.269343
C60	C	1.714631	0.000044	0.177630
C61	C	1.854074	0.000050	0.181321
C62	C	1.492263	0.000034	-0.044739
C63	C	1.488571	0.000034	-0.184182
N64	N	1.485151	0.129285	0.184744
C65	C	1.483339	-0.045179	-0.380719
C66	C	1.486811	-0.045185	-0.249698
C67	C	1.486845	0.045262	-0.249692
C68	C	1.483363	0.045267	-0.380710
C69	C	1.483325	-0.097398	-0.380722
C70	C	1.486797	-0.097404	-0.249701
C71	C	1.477925	0.000042	0.414336
C72	C	1.481617	0.000046	0.553779
H73	H	1.129302	0.000012	-0.019393
O74	O	1.590143	-0.116672	-0.442292
C75	C	1.815822	-0.109939	-0.484081
C76	C	1.694951	-0.088068	-0.414260
H77	H	1.900588	-0.086816	-0.461464
H78	H	1.828392	-0.150115	-0.452541
H79	H	1.807951	-0.109059	-0.590013
H80	H	1.702735	-0.088914	-0.308317
H81	H	1.682423	-0.047904	-0.445904
O82	O	1.233446	-0.370270	0.436292
C83	C	1.065449	-0.375813	0.604077
C84	C	1.158596	-0.404492	0.510942
H85	H	1.004891	-0.403470	0.664438
H86	H	1.120140	-0.351378	0.667420
H87	H	1.002296	-0.351355	0.549251
H88	H	1.221772	-0.428977	0.565665
H89	H	1.103826	-0.428896	0.447599
O90	O	1.736444	-0.370037	-0.066610
C91	C	1.907153	-0.310821	-0.092366
C92	C	1.814532	-0.339675	0.000962
H93	H	1.970293	-0.286258	-0.037772
H94	H	1.967766	-0.338346	-0.153052
H95	H	1.851896	-0.286471	-0.155382
H96	H	1.869688	-0.364025	0.064059
H97	H	1.753919	-0.312123	0.061559
H98	H	1.049798	-0.034673	0.484403
H99	H	1.638744	-0.771107	0.031245
O100	O	1.592623	-0.121247	-0.219923
C101	C	1.786692	-0.115201	-0.121935
C102	C	1.666892	-0.088146	-0.155558
H103	H	1.846784	-0.088448	-0.069914
H104	H	1.759081	-0.148602	-0.059018
H105	H	1.842944	-0.128576	-0.212074
H106	H	1.610584	-0.074739	-0.065489
H107	H	1.694589	-0.054768	-0.218524
H108	H	0.847744	0.034777	0.479013
O109	O	0.883455	0.000128	-0.043900
C110	C	0.751745	0.043099	-0.180463
C111	C	0.808435	0.043065	-0.052831
H112	H	0.691057	0.077804	-0.187715
H113	H	0.831014	0.043123	-0.260355
H114	H	0.691121	0.008369	-0.187773
H115	H	0.869046	0.077789	-0.045398
H116	H	0.729105	0.043015	0.026999
H117	H	1.056153	0.035864	0.474787
O118	O	1.652080	-0.232790	0.017957
C119	C	1.819967	-0.227238	-0.149936
C120	C	1.726773	-0.198564	-0.056836
H121	H	1.880363	-0.199578	-0.210449
H122	H	1.883271	-0.251669	-0.095207
H123	H	1.765188	-0.251700	-0.213139
H124	H	1.781450	-0.174075	0.006389
H125	H	1.663470	-0.174164	-0.111643
H126	H	1.397346	-0.113612	-0.197990
H127	H	1.723349	-0.530883	-0.053350
H128	H	1.246805	-0.469023	0.422875
O129	O	1.736771	-0.472982	-0.066676
C130	C	1.904673	-0.467425	-0.234554
C131	C	1.811460	-0.438754	-0.141468
H132	H	1.965065	-0.439764	-0.295065
H133	H	1.967978	-0.491851	-0.179812
H134	H	1.849909	-0.491892	-0.297758
H135	H	1.866121	-0.414259	-0.078240
H136	H	1.748156	-0.414359	-0.196287
H137	H	0.843774	-0.035760	0.469197
O138	O	1.318184	-0.767133	0.351676
C139	C	1.150204	-0.772686	0.519476
C140	C	1.243351	-0.801360	0.426330
H141	H	1.089659	-0.800345	0.579840
H142	H	1.204895	-0.748248	0.582815
H143	H	1.087037	-0.748230	0.464659
H144	H	1.306541	-0.825842	0.481045
H145	H	1.188582	-0.825766	0.362992
H146	H	1.638655	-0.134039	0.031338
O147	O	1.736822	-0.629694	-0.066538
C148	C	1.954543	-0.645637	-0.138180
C149	C	1.861369	-0.616925	-0.045141
H150	H	2.055259	-0.635315	-0.120931
H151	H	1.940102	-0.687451	-0.123648
H152	H	1.937231	-0.635373	-0.238912
H153	H	1.878624	-0.627147	0.055628
H154	H	1.875831	-0.575118	-0.059783
H155	H	1.331563	-0.865884	0.338260
O156	O	1.652164	-0.869868	0.017887
C157	C	1.820029	-0.864346	-0.150035
C158	C	1.726866	-0.835655	-0.056941
H159	H	1.880431	-0.836697	-0.210576
H160	H	1.883329	-0.888776	-0.095300
H161	H	1.765225	-0.888810	-0.213210
H162	H	1.781567	-0.811164	0.006257
H163	H	1.663566	-0.811257	-0.111755
H164	H	1.331467	-0.228822	0.338341
O165	O	1.318274	-0.130005	0.351809
C166	C	1.246501	-0.114053	0.569498
C167	C	1.339589	-0.142766	0.476378
H168	H	1.263683	-0.124368	0.670231
H169	H	1.261047	-0.072239	0.555066
H170	H	1.145784	-0.124321	0.552121
H171	H	1.440342	-0.132539	0.493698
H172	H	1.324933	-0.184573	0.490831
H173	H	1.246852	-0.625681	0.422859
H174	H	1.246840	-0.530958	0.422867
O175	O	1.481764	0.089243	-0.444154
C176	C	1.482125	0.178953	-0.430312
C177	C	1.483955	0.129185	-0.358309
H178	H	1.483868	0.211259	-0.360934
H179	H	1.568264	0.181248	-0.502344
H180	H	1.392787	0.181192	-0.480965
H181	H	1.573235	0.126912	-0.307580
H182	H	1.397755	0.126911	-0.286348
H183	H	1.488264	0.082080	-0.196337
H184	H	1.394641	-0.117450	-0.405543
