data_functionalizedCrystal
_audit_creation_method	'MofGen! by Chris Wilmer'
_symmetry_space_group_name_H-M	'P1'
_symmetry_Int_Tables_number	1
_symmetry_cell_setting	triclinic
loop_
_symmetry_equiv_pos_as_xyz
  x,y,z
_cell_length_a	19.288840
_cell_length_b	17.019294
_cell_length_c	17.766277
_cell_angle_alpha	86.114664
_cell_angle_beta	89.983415
_cell_angle_gamma	83.259949
loop_
_atom_site_label
_atom_site_type_symbol
_atom_site_fract_x
_atom_site_fract_y
_atom_site_fract_z
O1	O	0.921538	0.098312	-0.069091
O2	O	0.719299	0.111608	-0.069927
O3	O	0.826060	-0.009894	-0.062062
O4	O	0.814777	0.219814	-0.076956
O5	O	0.826041	-0.009900	0.063127
O6	O	0.719280	0.111602	0.055262
O7	O	0.921519	0.098306	0.056098
Cu8	Cu	0.820398	0.104953	0.067111
Cu9	Cu	0.820420	0.104961	-0.080940
O10	O	0.814758	0.219807	0.048233
C11	C	0.693412	0.111180	-0.007301
C12	C	0.616305	0.109906	-0.007209
C13	C	0.580111	0.109297	-0.075411
C14	C	0.507661	0.108091	-0.075342
C15	C	0.471411	0.107478	-0.007066
C16	C	0.507614	0.108091	0.061146
C17	C	0.580061	0.109305	0.061074
C18	C	0.361991	0.059347	0.048324
C19	C	0.289546	0.058128	0.048393
C20	C	0.247961	0.103737	-0.006843
C21	C	0.278831	0.150554	-0.062159
C22	C	0.351278	0.151768	-0.062231
C23	C	0.392855	0.106162	-0.006981
C24	C	0.133209	0.101821	-0.074975
C25	C	0.060758	0.100620	-0.074904
C26	C	0.060713	0.100612	0.061587
C27	C	0.133162	0.101821	0.061513
C28	C	0.169406	0.102422	-0.006770
C29	C	0.825622	-0.039284	0.002437
C30	C	0.824338	-0.126850	0.008111
C31	C	0.823747	-0.167981	-0.057463
C32	C	0.822536	-0.250258	-0.052130
C33	C	0.821921	-0.291403	0.018779
C34	C	0.822511	-0.250266	0.084358
C35	C	0.823717	-0.167990	0.079024
C36	C	0.818275	-0.539823	0.038299
C37	C	0.817071	-0.622105	0.043628
C38	C	0.817095	-0.622091	-0.092861
C39	C	0.818305	-0.539814	-0.098188
C40	C	0.818891	-0.498684	-0.032609
C41	C	0.820686	-0.375503	0.024232
C42	C	0.820121	-0.414584	-0.038063
C43	C	0.947406	0.098734	-0.006529
C44	C	1.024513	0.100008	-0.006627
C45	C	0.815196	0.249198	-0.016267
C46	C	0.816480	0.336764	-0.021946
N47	N	0.820387	0.104948	0.171242
N48	N	0.820436	0.104960	-0.185070
C49	C	0.867676	0.051173	0.214109
C50	C	0.867680	0.051170	0.292911
C51	C	0.820402	0.104954	0.328842
C52	C	0.773104	0.158733	0.285964
C53	C	0.773097	0.158729	0.207164
C54	C	0.811230	0.176830	0.449020
C55	C	0.811242	0.176834	0.527818
C56	C	0.820421	0.104963	0.571887
C57	C	0.829601	0.033085	0.537148
C58	C	0.829594	0.033082	0.458348
C59	C	0.820404	0.104963	0.414287
C60	C	0.867717	0.051181	0.700202
C61	C	0.867716	0.051176	0.779005
C62	C	0.773143	0.158746	0.772056
C63	C	0.773140	0.158744	0.693254
C64	C	0.820431	0.104962	0.657332
H65	H	0.395844	0.022205	0.093307
O66	O	0.824410	-0.123606	-0.133945
H67	H	0.777643	-0.078915	-0.140097
O68	O	0.821863	-0.294618	-0.122856
H69	H	0.822489	-0.252184	-0.173059
H70	H	0.818807	-0.506319	-0.155930
O71	O	0.839483	-0.044436	0.420876
H72	H	0.845861	-0.094416	0.464752
O73	O	0.468478	0.107811	0.134764
H74	H	0.412005	0.106996	0.123347
H75	H	0.162720	0.102319	-0.130576
O76	O	0.801336	0.254353	0.401489
H77	H	0.794966	0.304333	0.438881
H78	H	0.820188	-0.409013	0.081966
H79	H	0.906181	0.007379	0.184864
H80	H	0.816617	-0.655588	-0.146251
H81	H	0.906190	0.007378	0.327821
H82	H	0.824188	-0.134501	0.132421
H83	H	0.837075	-0.025439	0.573028
H84	H	0.376409	0.189890	-0.107269
H85	H	0.906221	0.007386	0.670953
O86	O	0.816401	-0.666487	0.120111
H87	H	0.817003	-0.624064	0.164817
O88	O	0.233976	0.199766	-0.121719
H89	H	0.240523	0.263332	-0.118096
H90	H	0.818766	-0.506347	0.091698
O91	O	0.021565	0.100066	0.135194
H92	H	-0.005238	0.045797	0.142023
H93	H	0.822006	-0.283772	0.142093
H94	H	0.906222	0.007382	0.813910
H95	H	0.609616	0.109786	-0.131013
O96	O	0.820780	-0.370213	-0.114544
H97	H	0.868651	-0.339934	-0.119775
H98	H	0.031289	0.100129	-0.130445
O99	O	0.172206	0.102490	0.135073
H100	H	0.134830	0.101863	0.182564
O101	O	0.619105	0.109972	0.134637
H102	H	0.581730	0.109346	0.182128
H103	H	0.734645	0.202535	0.801310
O104	O	0.722144	0.216752	0.647009
H105	H	0.689272	0.254158	0.685230
O106	O	0.801355	0.254355	0.565286
H107	H	0.794962	0.304331	0.521406
O108	O	0.256250	0.007640	0.108054
H109	H	0.297334	-0.023856	0.146461
O110	O	0.722113	0.216749	0.324710
H111	H	0.730068	0.207724	0.386707
O112	O	0.722096	0.216737	0.160920
H113	H	0.689221	0.254141	0.199139
H114	H	0.478186	0.107596	-0.130883
