data_functionalizedCrystal
_audit_creation_method	'MofGen! by Chris Wilmer'
_symmetry_space_group_name_H-M	'P1'
_symmetry_Int_Tables_number	1
_symmetry_cell_setting	triclinic
loop_
_symmetry_equiv_pos_as_xyz
  x,y,z
_cell_length_a	9.798715
_cell_length_b	10.723024
_cell_length_c	10.723024
_cell_angle_alpha	95.532131
_cell_angle_beta	89.998022
_cell_angle_gamma	90.003391
loop_
_atom_site_label
_atom_site_type_symbol
_atom_site_fract_x
_atom_site_fract_y
_atom_site_fract_z
O1	O	-0.113478	-1.657187	0.175024
O2	O	-0.113483	-1.294035	0.191778
O3	O	-0.113475	-1.483988	0.001825
O4	O	-0.113486	-1.467234	0.364977
O5	O	0.113507	-1.483974	0.001824
O6	O	0.113499	-1.294021	0.191777
O7	O	0.113504	-1.657173	0.175024
Zn8	Zn	0.149540	-1.475595	0.183401
Zn9	Zn	-0.149519	-1.475613	0.183401
O10	O	0.113496	-1.467220	0.364977
C11	C	0.000008	-1.247528	0.190558
C12	C	0.000006	-1.108974	0.186911
C13	C	0.000014	-1.482762	-0.044675
C14	C	0.000009	-1.479114	-0.183229
N15	N	0.353640	-1.475591	0.183399
N16	N	-0.353619	-1.475627	0.183393
C17	C	0.421420	-1.555347	0.103292
C18	C	0.578582	-1.555367	0.103288
C19	C	0.000010	-1.703680	0.176243
C20	C	0.000003	-1.842234	0.179891
C21	C	0.000002	-1.033991	0.293198
C22	C	0.000001	-0.890788	0.289431
C23	C	0.000009	-1.585401	-0.258212
C24	C	0.000004	-1.581634	-0.401415
C25	C	0.000004	-1.468447	0.411477
C26	C	-0.000000	-1.472094	0.550031
H27	H	0.363100	-1.623611	0.034707
Cl28	Cl	0.000011	-1.331599	-0.350504
H29	H	0.000018	-1.679187	-0.216390
Cl30	Cl	-0.000015	-0.791315	0.429921
Cl31	Cl	-0.000006	-1.334308	-0.247788
Cl32	Cl	-0.000003	-0.941699	0.039396
H33	H	0.636870	-1.623654	0.034709
H34	H	0.000007	-1.075814	0.386984
H35	H	-0.000026	-1.067152	0.093125
H36	H	0.411961	-1.407319	0.251975
Cl37	Cl	0.556404	-1.370202	0.289295
H38	H	0.000009	-1.672624	-0.465848
