data_functionalizedCrystal
_audit_creation_method	'MofGen! by Chris Wilmer'
_symmetry_space_group_name_H-M	'P1'
_symmetry_Int_Tables_number	1
_symmetry_cell_setting	triclinic
loop_
_symmetry_equiv_pos_as_xyz
  x,y,z
_cell_length_a	29.839131
_cell_length_b	17.640112
_cell_length_c	17.640968
_cell_angle_alpha	92.139080
_cell_angle_beta	101.231391
_cell_angle_gamma	78.733316
loop_
_atom_site_label
_atom_site_type_symbol
_atom_site_fract_x
_atom_site_fract_y
_atom_site_fract_z
Zn1	Zn	-0.012909	-1.247771	0.195080
Zn2	Zn	-0.105602	-1.221948	0.068098
Zn3	Zn	-0.042134	-1.095086	0.093726
Zn4	Zn	-0.099688	-1.120692	0.220680
O5	O	-0.065083	-1.171374	0.144396
O6	O	-0.015449	-1.350620	0.156796
O7	O	-0.111889	-1.183596	-0.034776
O8	O	0.024621	-1.115431	0.107183
O9	O	-0.083550	-1.331648	0.063503
O10	O	0.046093	-1.227608	0.181647
O11	O	-0.065260	-1.090391	-0.015947
O12	O	-0.059525	-0.992208	0.132006
O13	O	-0.073471	-1.159073	0.323557
O14	O	-0.101810	-1.011020	0.225278
O15	O	-0.009714	-1.252437	0.304749
O16	O	-0.167697	-1.208425	0.088326
O17	O	-0.163352	-1.134033	0.200427
C18	C	-0.083197	-0.974058	0.184201
C19	C	-0.090955	-0.889649	0.201248
C20	C	-0.181824	-1.171229	0.144386
C21	C	-0.231756	-1.171242	0.144393
C22	C	-0.037673	-1.211491	0.342479
C23	C	-0.025992	-1.228587	0.426890
C24	C	-0.543616	-1.210213	0.086078
C25	C	-0.731276	-1.210312	0.086088
O26	O	-0.757439	-1.243332	0.036500
N27	N	-0.752503	-1.171543	0.144421
C28	C	-0.726811	-1.132750	0.202759
O29	O	-0.749171	-1.099784	0.252379
C30	C	-0.539151	-1.132656	0.202750
C31	C	-0.517928	-1.171421	0.144409
C32	C	-0.522392	-1.248976	0.027742
C33	C	-0.475481	-1.248947	0.027738
C34	C	-0.449792	-1.210155	0.086069
C35	C	-0.471016	-1.171392	0.144405
C36	C	-0.513459	-1.093868	0.261090
C37	C	-0.466541	-1.093850	0.261084
C38	C	-0.445318	-1.132615	0.202743
C39	C	-0.398416	-1.132572	0.202732
N40	N	-0.377189	-1.171341	0.144399
C41	C	-0.402877	-1.210133	0.086068
C42	C	-0.825336	-1.132802	0.202758
C43	C	-0.872251	-1.132824	0.202759
C44	C	-0.876713	-1.210387	0.086090
C45	C	-0.829797	-1.210360	0.086086
C46	C	-0.804109	-1.171571	0.144425
C47	C	-0.304360	-1.210069	0.086062
C48	C	-0.257444	-1.210034	0.086061
C49	C	-0.252986	-1.132474	0.202733
C50	C	-0.299898	-1.132505	0.202732
C51	C	-0.325583	-1.171308	0.144393
O52	O	-0.372224	-1.099577	0.252299
O53	O	-0.380507	-1.243109	0.036464
C54	C	-0.590527	-1.210242	0.086082
C55	C	-0.611751	-1.171479	0.144418
C56	C	-0.586063	-1.132687	0.202750
C57	C	-0.658666	-1.171501	0.144420
C58	C	-0.684354	-1.210293	0.086088
C59	C	-0.663127	-1.249062	0.027755
C60	C	-0.616215	-1.249033	0.027751
C61	C	-0.607290	-1.093918	0.261082
C62	C	-0.654202	-1.093949	0.261082
C63	C	-0.679890	-1.132741	0.202750
C64	C	0.052117	-1.171544	0.144418
C65	C	0.102061	-1.171616	0.144428
C66	C	-0.046899	-1.369461	0.104435
C67	C	-0.039150	-1.453873	0.087407
C68	C	-0.006143	-0.563036	0.014898
C69	C	-0.013439	-0.483723	0.030927
C70	C	-0.057573	-0.503332	0.127883
C71	C	-0.050277	-0.582649	0.111866
C72	C	-0.024563	-0.612494	0.055372
C73	C	-0.068697	-0.632108	0.152339
C74	C	-0.061405	-0.711417	0.136320
C75	C	-0.035692	-0.741268	0.079827
C76	C	-0.017270	-0.691803	0.039352
C77	C	-0.094415	-0.602261	0.208829
C78	C	-0.112835	-0.651719	0.249303
C79	C	-0.105540	-0.731031	0.233287
C80	C	-0.079827	-0.760882	0.176794
C81	C	-0.123962	-0.780495	0.273762
C82	C	-0.116670	-0.859805	0.257742
C83	C	-0.072535	-0.840191	0.160775
C84	C	-0.092351	-1.131457	-0.052925
C85	C	-0.103892	-1.114508	-0.137366
C86	C	-0.153550	-1.041792	0.753463
C87	C	-0.142567	-1.057872	0.832777
C88	C	-0.076183	-1.155084	0.813183
C89	C	-0.087159	-1.139010	0.733867
C90	C	-0.125843	-1.082364	0.704013
C91	C	-0.059452	-1.179581	0.684417
C92	C	-0.070429	-1.163511	0.605107
C93	C	-0.109113	-1.106869	0.575246
C94	C	-0.136820	-1.066293	0.624703
C95	C	-0.020770	-1.236231	0.714271
C96	C	0.006936	-1.276802	0.664821
C97	C	-0.004039	-1.260728	0.585510
C98	C	-0.042722	-1.204086	0.555650
C99	C	0.023669	-1.301304	0.536054
C100	C	0.012692	-1.285233	0.456744
C101	C	-0.053699	-1.188016	0.476340
H102	H	-0.240166	-1.241600	0.038551
C103	C	-0.332608	-1.252748	0.021883
N104	N	-0.353885	-1.284890	-0.026461
H105	H	-0.897636	-1.241973	0.038594
C106	C	0.006827	-0.429320	-0.013601
N107	N	0.022091	-0.388343	-0.047140
C108	C	-0.895593	-1.090170	0.266933
N109	N	-0.913172	-1.058046	0.315274
H110	H	-0.029756	-0.805847	0.066783
C111	C	-0.452143	-1.291585	-0.036448
N112	N	-0.434568	-1.323699	-0.084797
H113	H	-0.168312	-1.020148	0.600398
C114	C	-0.323245	-1.089859	0.266908
N115	N	-0.340825	-1.057743	0.315251
C116	C	0.066221	-1.363611	0.568905
N117	N	0.098272	-1.410540	0.593648
H118	H	-0.598939	-1.280600	-0.019756
C119	C	-0.085857	-0.470494	0.190027
N120	N	-0.107160	-0.445761	0.236836
C121	C	-0.141120	-0.618881	0.311446
N122	N	-0.162423	-0.594148	0.358255
C123	C	-0.121187	-1.089190	0.488002
N124	N	-0.130281	-1.075873	0.422290
H125	H	-0.671478	-1.062375	0.308591
H126	H	-0.144903	-0.756182	0.319754
H127	H	-0.100352	-0.537681	0.221870
H128	H	-0.051587	-0.864494	0.114783
C129	C	-0.797080	-1.090152	0.266956
N130	N	-0.775798	-1.058035	0.315315
C131	C	-0.196104	-0.979478	0.720620
N132	N	-0.228156	-0.932547	0.695882
H133	H	-0.530732	-1.062297	0.308595
H134	H	-0.812520	-1.241926	0.038580
H135	H	0.038432	-1.322925	0.689139
C136	C	-0.136930	-0.914213	0.302269
N137	N	-0.152191	-0.955193	0.335807
C138	C	-0.224720	-1.089809	0.266897
N139	N	-0.203427	-1.057679	0.315229
C140	C	-0.691393	-1.291732	-0.036411
N141	N	-0.712685	-1.323872	-0.084735
C142	C	-0.173048	-1.013234	0.887171
N143	N	-0.196007	-0.979613	0.928140
H144	H	-0.044687	-1.201208	0.837501
H145	H	-0.085190	-1.141871	0.452035
H146	H	-0.586378	-1.062330	0.308584
C147	C	-0.438286	-1.051178	0.325264
N148	N	-0.417006	-1.019036	0.373603
C149	C	-0.008696	-1.253906	0.801516
N150	N	0.000399	-1.267217	0.867230
C151	C	0.022148	-0.595869	-0.047246
N152	N	0.043454	-0.620600	-0.094052
C153	C	-0.550643	-1.291648	-0.036436
N154	N	-0.571920	-1.323786	-0.084784
C155	C	0.011020	-0.724637	-0.022792
N156	N	0.032326	-0.749368	-0.069598
C157	C	0.043171	-1.329862	0.402346
N158	N	0.066129	-1.363480	0.361373
