data_functionalizedCrystal
_audit_creation_method	'MofGen! by Chris Wilmer'
_symmetry_space_group_name_H-M	'P1'
_symmetry_Int_Tables_number	1
_symmetry_cell_setting	triclinic
loop_
_symmetry_equiv_pos_as_xyz
  x,y,z
_cell_length_a	11.169417
_cell_length_b	13.032868
_cell_length_c	11.169409
_cell_angle_alpha	97.143352
_cell_angle_beta	90.019824
_cell_angle_gamma	82.787299
loop_
_atom_site_label
_atom_site_type_symbol
_atom_site_fract_x
_atom_site_fract_y
_atom_site_fract_z
Zn1	Zn	1.774144	0.415926	0.739142
Zn2	Zn	2.107477	0.749259	1.072475
Zn3	Zn	2.440810	1.082592	1.405808
Zn4	Zn	1.748475	0.590714	0.563924
Zn5	Zn	2.081808	0.924047	0.897258
Zn6	Zn	2.415141	1.257380	1.230591
Zn7	Zn	1.573420	0.415989	0.538485
Zn8	Zn	1.906754	0.749323	0.871819
Zn9	Zn	2.240087	1.082656	1.205152
Zn10	Zn	1.547891	0.590629	0.764557
Zn11	Zn	1.881225	0.923962	1.097890
Zn12	Zn	2.214558	1.257295	1.431224
O13	O	1.660983	0.503314	0.651527
O14	O	1.994316	0.836648	0.984860
O15	O	2.327649	1.169981	1.318194
O16	O	1.938687	0.439121	0.715909
O17	O	2.272020	0.772454	1.049242
O18	O	2.605354	1.105787	1.382575
O19	O	1.725195	0.567598	0.392609
O20	O	2.058528	0.900932	0.725942
O21	O	2.391862	1.234265	1.059276
O22	O	1.621473	0.269744	0.543820
O23	O	1.954807	0.603078	0.877153
O24	O	2.288140	0.936411	1.210487
O25	O	1.919828	0.567537	0.587177
O26	O	2.253162	0.900870	0.920511
O27	O	2.586495	1.234203	1.253844
O28	O	1.768944	0.269697	0.691241
O29	O	2.102277	0.603031	1.024575
O30	O	2.435611	0.936364	1.357908
O31	O	1.596583	0.439229	0.373919
O32	O	1.929916	0.772562	0.707252
O33	O	2.263250	1.105896	1.040586
O34	O	1.402085	0.439147	0.568464
O35	O	1.735419	0.772480	0.901797
O36	O	2.068752	1.105813	1.235131
O37	O	1.577963	0.567392	0.929126
O38	O	1.911296	0.900725	1.262460
O39	O	2.244629	1.234058	1.595793
O40	O	1.383329	0.567453	0.734558
O41	O	1.716663	0.900787	1.067891
O42	O	2.049996	1.234120	1.401225
O43	O	1.744189	0.439038	0.910454
O44	O	2.077523	0.772371	1.243787
O45	O	2.410856	1.105705	1.577120
O46	O	1.700440	0.736939	0.611822
O47	O	2.033774	1.070272	0.945155
O48	O	2.367107	1.403606	1.278488
O49	O	1.553073	0.736877	0.759225
O50	O	1.886406	1.070210	1.092559
O51	O	2.219739	1.403543	1.425892
C52	C	1.349160	0.503299	0.651509
C53	C	1.682494	0.836632	0.984843
C54	C	2.015827	1.169965	1.318176
C55	C	1.215758	0.503317	0.651534
C56	C	1.549091	0.836650	0.984867
C57	C	1.882424	1.169984	1.318201
C58	C	1.621233	0.774825	0.691068
C59	C	1.954567	1.108159	1.024401
C60	C	2.287900	1.441492	1.357735
C61	C	1.604338	0.890979	0.708024
C62	C	1.937672	1.224312	1.041357
C63	C	2.271005	1.557646	1.374691
C64	C	1.669785	0.942760	0.642706
C65	C	2.003119	1.276094	0.976039
C66	C	2.336452	1.609427	1.309372
C67	C	1.652325	1.062811	0.660229
C68	C	1.985658	1.396144	0.993562
C69	C	2.318992	1.729478	1.326895
C70	C	1.974022	0.503331	0.651546
C71	C	2.307356	0.836664	0.984879
C72	C	2.640689	1.169998	1.318212
C73	C	2.107421	0.503338	0.651554
C74	C	2.440755	0.836671	0.984887
C75	C	2.774088	1.170005	1.318220
C76	C	1.661092	0.503198	0.964553
C77	C	1.994425	0.836532	1.297886
C78	C	2.327758	1.169865	1.631219
C79	C	1.661138	0.503149	1.097946
C80	C	1.994471	0.836482	1.431279
C81	C	2.327805	1.169816	1.764612
C82	C	1.700880	1.230743	0.611845
C83	C	2.034213	1.564076	0.945178
C84	C	2.367547	1.897410	1.278511
C85	C	1.717781	1.114590	0.594901
C86	C	2.051114	1.447923	0.928235
C87	C	2.384448	1.781256	1.261568
C88	C	1.660954	0.503355	0.339708
C89	C	1.994287	0.836688	0.673041
C90	C	2.327621	1.170021	1.006375
C91	C	1.661183	0.503110	0.206273
C92	C	1.994516	0.836443	0.539606
C93	C	2.327850	1.169776	0.872940
H94	H	1.738748	0.898217	0.573815
H95	H	2.072082	1.231551	0.907148
H96	H	2.405415	1.564884	1.240482
C97	C	1.559163	1.122974	0.753307
C98	C	1.892496	1.456307	1.086640
C99	C	2.225830	1.789640	1.419973
H100	H	1.559644	1.195768	0.752869
H101	H	1.892977	1.529102	1.086202
H102	H	2.226310	1.862435	1.419535
H103	H	1.579268	1.105067	0.831366
H104	H	1.912602	1.438400	1.164699
H105	H	2.245935	1.771733	1.498032
H106	H	1.481093	1.105213	0.733089
H107	H	1.814426	1.438546	1.066422
H108	H	2.147759	1.771880	1.399755
C109	C	1.810948	1.054434	0.501824
C110	C	2.144281	1.387767	0.835157
C111	C	2.477615	1.721101	1.168490
H112	H	1.849749	1.102491	0.463123
H113	H	2.183083	1.435824	0.796457
H114	H	2.516416	1.769157	1.129790
H115	H	1.771208	1.011923	0.443330
H116	H	2.104541	1.345256	0.776663
H117	H	2.437875	1.678590	1.109997
H118	H	1.869382	1.011787	0.541608
H119	H	2.202716	1.345121	0.874942
H120	H	2.536049	1.678454	1.208275
C121	C	1.511181	0.951146	0.801097
C122	C	1.844514	1.284479	1.134430
C123	C	2.177848	1.617812	1.467764
H124	H	1.511662	1.023940	0.800659
H125	H	1.844995	1.357274	1.133993
H126	H	2.178328	1.690607	1.467326
H127	H	1.531286	0.933239	0.879156
H128	H	1.864620	1.266572	1.212489
H129	H	2.197953	1.599905	1.545823
H130	H	1.433111	0.933385	0.780879
H131	H	1.766444	1.266718	1.114212
H132	H	2.099778	1.600052	1.447546
