data_functionalizedCrystal
_audit_creation_method	'MofGen! by Chris Wilmer'
_symmetry_space_group_name_H-M	'P1'
_symmetry_Int_Tables_number	1
_symmetry_cell_setting	triclinic
loop_
_symmetry_equiv_pos_as_xyz
  x,y,z
_cell_length_a	16.625548
_cell_length_b	25.639239
_cell_length_c	16.625539
_cell_angle_alpha	89.970608
_cell_angle_beta	89.982945
_cell_angle_gamma	90.039754
loop_
_atom_site_label
_atom_site_type_symbol
_atom_site_fract_x
_atom_site_fract_y
_atom_site_fract_z
Zn1	Zn	1.232562	-0.208145	-0.455893
Zn2	Zn	1.232435	-0.295580	-0.321053
Zn3	Zn	1.097732	-0.208162	-0.321073
Zn4	Zn	1.097656	-0.295552	-0.455843
O5	O	1.165096	-0.251860	-0.388466
O6	O	1.345377	-0.219747	-0.438018
O7	O	1.214545	-0.284002	-0.208223
O8	O	1.115702	-0.134994	-0.338987
O9	O	1.345284	-0.283985	-0.338952
O10	O	1.214761	-0.134982	-0.438038
O11	O	1.115579	-0.219776	-0.208238
O12	O	0.984889	-0.219750	-0.338938
O13	O	1.115572	-0.283939	-0.568682
O14	O	0.984833	-0.283956	-0.437953
O15	O	1.214687	-0.219721	-0.568719
O16	O	1.214471	-0.368741	-0.338904
O17	O	1.115450	-0.368721	-0.437933
C18	C	0.955605	-0.251852	-0.388443
C19	C	0.865984	-0.251861	-0.388452
C20	C	0.537808	-0.251865	-0.388487
C21	C	0.629117	-0.251863	-0.388475
C22	C	0.701893	-0.251863	-0.388469
C23	C	0.793208	-0.251861	-0.388458
C24	C	1.164960	-0.387702	-0.388429
C25	C	1.164976	-0.445816	-0.388440
C26	C	1.216791	-0.806177	-0.336989
C27	C	1.216822	-0.860781	-0.336999
O28	O	1.260737	-0.889016	-0.293213
N29	N	1.165238	-0.888099	-0.388519
C30	C	1.113624	-0.860809	-0.440037
O31	O	1.069751	-0.889058	-0.483860
C32	C	1.113598	-0.806205	-0.440029
C33	C	1.165180	-0.778891	-0.388501
C34	C	1.268370	-0.778863	-0.285465
C35	C	1.268337	-0.724262	-0.285453
C36	C	1.216726	-0.696976	-0.336965
C37	C	1.165147	-0.724290	-0.388489
C38	C	1.061989	-0.778917	-0.491551
C39	C	1.061967	-0.724310	-0.491539
C40	C	1.113549	-0.696995	-0.440011
C41	C	1.113504	-0.642404	-0.439990
N42	N	1.165088	-0.615087	-0.388470
C43	C	1.216700	-0.642373	-0.336958
C44	C	1.113685	-0.975479	-0.440049
C45	C	1.113707	-1.030082	-0.440053
C46	C	1.216906	-1.030050	-0.337017
C47	C	1.216880	-0.975447	-0.337009
C48	C	1.165270	-0.948162	-0.388530
C49	C	1.216627	-0.527708	-0.336937
C50	C	1.216587	-0.473102	-0.336928
C51	C	1.113391	-0.473138	-0.439967
C52	C	1.113427	-0.527739	-0.439973
C53	C	1.165052	-0.555022	-0.388456
O54	O	1.069614	-0.614134	-0.483756
O55	O	1.260573	-0.614117	-0.293150
C56	C	1.375405	-0.251867	-0.388489
C57	C	1.465026	-0.251871	-0.388498
C58	C	1.165136	-0.251825	-0.598775
C59	C	1.165152	-0.251810	-0.688396
C60	C	1.165254	-0.115487	-0.388520
C61	C	1.165321	-0.057372	-0.388544
C62	C	1.165166	-0.251799	-0.761178
C63	C	1.165184	-0.251779	-0.852487
C64	C	1.165203	-0.251761	-0.925263
C65	C	1.165223	-0.251742	-1.016578
C66	C	1.165103	-0.251856	-0.178975
C67	C	1.165242	-0.251724	-0.089354
H68	H	1.258592	-0.450864	-0.294964
C69	C	1.005195	-0.694297	-0.548211
H70	H	1.012565	-0.657864	-0.540834
H71	H	0.951032	-0.703289	-0.536367
H72	H	1.016977	-0.703216	-0.602400
C73	C	1.056962	-1.060122	-0.496729
H74	H	1.026226	-1.036046	-0.527408
H75	H	1.021859	-1.081461	-0.465863
H76	H	1.087800	-1.081384	-0.531900
C77	C	1.273676	-1.060072	-0.280351
H78	H	1.266304	-1.096503	-0.287743
H79	H	1.261904	-1.051154	-0.226164
H80	H	1.327845	-1.051086	-0.292201
H81	H	1.019981	-0.801147	-0.533507
H82	H	1.071651	-0.953266	-0.482001
C83	C	1.056688	-0.557786	-0.496652
H84	H	1.025949	-0.533713	-0.527331
H85	H	1.021588	-0.579129	-0.465788
H86	H	1.087533	-0.579045	-0.531821
H87	H	1.258666	-0.549915	-0.294988
H88	H	1.310342	-0.702026	-0.243497
H89	H	1.310402	-0.801073	-0.243517
C90	C	1.273626	-0.945406	-0.280335
H91	H	1.304368	-0.969482	-0.249663
H92	H	1.242800	-0.924137	-0.245170
H93	H	1.308735	-0.924073	-0.311213
C94	C	1.056627	-0.443117	-0.496629
H95	H	1.064007	-0.406686	-0.489245
H96	H	1.002461	-0.452103	-0.484791
H97	H	1.068410	-0.452034	-0.550819
