data_functionalizedCrystal
_audit_creation_method	'MofGen! by Chris Wilmer'
_symmetry_space_group_name_H-M	'P1'
_symmetry_Int_Tables_number	1
_symmetry_cell_setting	triclinic
loop_
_symmetry_equiv_pos_as_xyz
  x,y,z
_cell_length_a	15.944499
_cell_length_b	16.992695
_cell_length_c	14.421503
_cell_angle_alpha	89.997542
_cell_angle_beta	89.989923
_cell_angle_gamma	92.927084
loop_
_atom_site_label
_atom_site_type_symbol
_atom_site_fract_x
_atom_site_fract_y
_atom_site_fract_z
O1	O	1.121325	-0.100924	-0.077169
O2	O	1.621325	0.399076	0.422831
O3	O	0.877608	-0.113434	-0.077158
O4	O	1.377608	0.386566	0.422842
O5	O	0.998489	0.006963	-0.077156
O6	O	1.498489	0.506963	0.422844
O7	O	1.000443	-0.221322	-0.077171
O8	O	1.500443	0.278678	0.422829
O9	O	0.998470	0.006949	0.077067
O10	O	1.498470	0.506949	0.577067
O11	O	0.877589	-0.113448	0.077065
O12	O	1.377589	0.386552	0.577065
O13	O	1.121305	-0.100938	0.077055
O14	O	1.621305	0.399062	0.577055
Cu15	Cu	0.999445	-0.107194	0.091142
Cu16	Cu	1.499445	0.392806	0.591142
Cu17	Cu	0.999468	-0.107178	-0.091245
Cu18	Cu	1.499468	0.392822	0.408755
O19	O	1.000424	-0.221336	0.077052
O20	O	1.500424	0.278664	0.577052
C21	C	0.846269	-0.112929	-0.000045
C22	C	1.346269	0.387071	0.499955
C23	C	0.752918	-0.111394	-0.000041
C24	C	1.252918	0.388606	0.499959
C25	C	0.466073	-0.181341	-0.000060
C26	C	0.966073	0.318659	0.499940
C27	C	0.524673	-0.144974	-0.076099
C28	C	1.024673	0.355026	0.423901
C29	C	0.416907	-0.105815	-0.000062
C30	C	0.916907	0.394185	0.499938
C31	C	0.524639	-0.144967	0.075953
C32	C	1.024639	0.355033	0.575953
C33	C	0.582000	-0.108560	-0.000050
C34	C	1.082000	0.391440	0.499950
C35	C	0.474278	-0.069427	-0.076165
C36	C	0.974278	0.430573	0.423835
C37	C	0.474238	-0.069430	0.075956
C38	C	0.974238	0.430570	0.575956
C39	C	0.532817	-0.033008	-0.000102
C40	C	1.032817	0.466992	0.499898
C41	C	0.321801	-0.104236	-0.000070
C42	C	0.821801	0.395764	0.499930
C43	C	0.677105	-0.110133	-0.000049
C44	C	1.177105	0.389867	0.499951
C45	C	0.995966	0.036169	-0.000044
C46	C	1.495966	0.536169	0.499956
C47	C	0.988466	0.123212	-0.000044
C48	C	1.488466	0.623212	0.499956
C49	C	1.152644	-0.101443	-0.000060
C50	C	1.652644	0.398557	0.499940
C51	C	1.245995	-0.102979	-0.000071
C52	C	1.745995	0.397021	0.499929
C53	C	1.002947	-0.250541	-0.000061
C54	C	1.502947	0.249459	0.499939
C55	C	1.010447	-0.337584	-0.000067
C56	C	1.510447	0.162416	0.499933
N57	N	0.999435	-0.107205	0.219423
N58	N	1.499435	0.392795	0.719423
C59	C	1.060832	0.173461	-0.000046
C60	C	1.560832	0.673461	0.499954
C61	C	1.053779	0.255247	-0.000055
C62	C	1.553779	0.755247	0.499945
C63	C	0.974361	0.286782	-0.000055
C64	C	1.474361	0.786782	0.499945
C65	C	0.901989	0.236526	-0.000055
C66	C	1.401989	0.736526	0.499945
C67	C	0.909042	0.154742	-0.000054
C68	C	1.409042	0.654742	0.499946
C69	C	0.945129	0.530376	-0.000066
C70	C	1.445129	1.030376	0.499934
C71	C	0.938082	0.612167	-0.000065
C72	C	1.438082	1.112167	0.499935
C73	C	1.089872	0.630882	-0.000067
C74	C	1.589872	1.130882	0.499933
C75	C	1.096918	0.549095	-0.000059
C76	C	1.596918	1.049095	0.499941
C77	C	1.024547	0.498847	-0.000065
C78	C	1.524547	0.998847	0.499935
N79	N	0.967150	0.370380	-0.000061
N80	N	1.467150	0.870380	0.499939
N81	N	1.031758	0.415250	-0.000066
N82	N	1.531758	0.915250	0.499934
N83	N	0.999485	-0.107161	-0.219527
N84	N	1.499485	0.392839	0.280473
C85	C	0.944061	-0.163313	0.530875
C86	C	1.444061	0.336687	1.030875
C87	C	0.922327	-0.092680	0.469052
C88	C	1.422327	0.407320	0.969052
C89	C	0.999467	-0.107174	0.591312
C90	C	1.499467	0.392826	1.091312
C91	C	1.021145	-0.177820	0.469041
C92	C	1.521145	0.322180	0.969041
C93	C	0.999449	-0.107193	0.408591
C94	C	1.499449	0.392807	0.908591
C95	C	0.977694	-0.036506	0.530850
C96	C	1.477694	0.463494	1.030850
C97	C	1.076548	-0.121692	0.530844
C98	C	1.576548	0.378308	1.030844
C99	C	1.054843	-0.051008	0.469049
C100	C	1.554843	0.448992	0.969049
C101	C	0.999476	-0.107164	0.696573
C102	C	1.499476	0.392836	1.196573
C103	C	0.999441	-0.107195	0.303332
C104	C	1.499441	0.392805	0.803332
H105	H	1.112708	0.296157	-0.000055
H106	H	1.612708	0.796157	0.499945
N107	N	1.162875	-0.137988	0.566836
N108	N	1.662875	0.362012	1.066836
H109	H	1.162356	-0.137343	0.636864
H110	H	1.662356	0.362657	1.136864
H111	H	1.204852	-0.096144	0.543304
H112	H	1.704852	0.403856	1.043304
H113	H	1.039499	-0.237559	0.441908
H114	H	1.539499	0.262441	0.941908
N115	N	0.867074	0.476188	-0.000070
N116	N	1.367074	0.976188	0.499930
H117	H	0.866605	0.441831	0.057097
H118	H	1.366605	0.941831	0.557097
H119	H	0.866672	0.441896	-0.057282
H120	H	1.366672	0.941896	0.442718
H121	H	0.451972	-0.037518	0.140247
H122	H	0.951972	0.462482	0.640247
N123	N	0.427479	-0.264361	-0.000152
N124	N	0.927479	0.235639	0.499848
H125	H	0.473469	-0.303086	-0.000786
H126	H	0.973469	0.196914	0.499214
H127	H	0.391140	-0.272528	-0.057040
H128	H	0.891140	0.227472	0.442960
H129	H	1.161589	0.523426	-0.000059
H130	H	1.661589	1.023426	0.499941
N131	N	1.146492	0.139454	-0.000038
N132	N	1.646492	0.639454	0.499962
H133	H	1.178454	0.157778	-0.057210
H134	H	1.678454	0.657778	0.442790
H135	H	1.139911	0.080025	0.000003
H136	H	1.639911	0.580025	0.500003
N137	N	0.852418	0.646179	-0.000075
N138	N	1.352418	1.146179	0.499925
H139	H	0.858935	0.705613	-0.000070
H140	H	1.358935	1.205613	0.499930
H141	H	0.820497	0.627793	0.057096
H142	H	1.320497	1.127793	0.557096
N143	N	0.554059	-0.187304	0.161103
N144	N	1.054059	0.312696	0.661103
H145	H	0.534875	-0.159349	0.218538
H146	H	1.034875	0.340651	0.718538
H147	H	0.617384	-0.187596	0.160703
H148	H	1.117384	0.312404	0.660703
H149	H	0.837325	0.262208	-0.000061
H150	H	1.337325	0.762208	0.499939
H151	H	0.857135	-0.080406	0.441904
H152	H	1.357135	0.419594	0.941904
H153	H	1.148793	0.671802	-0.000064
H154	H	1.648793	1.171802	0.499936
H155	H	0.850114	0.113829	-0.000052
H156	H	1.350114	0.613829	0.499948
N157	N	0.554128	-0.187270	-0.161269
N158	N	1.054128	0.312730	0.338731
H159	H	0.529699	-0.243292	-0.161221
H160	H	1.029699	0.256708	0.338779
H161	H	0.617456	-0.187510	-0.160911
H162	H	1.117456	0.312490	0.339089
N163	N	0.571198	0.050088	-0.000164
N164	N	1.071198	0.550088	0.499836
H165	H	0.634439	0.048590	0.000378
H166	H	1.134439	0.548590	0.500378
H167	H	0.551978	0.078801	0.056713
H168	H	1.051978	0.578801	0.556713
H169	H	0.897176	-0.210726	0.558022
H170	H	1.397176	0.289274	1.058022
H171	H	1.101690	-0.003490	0.442075
H172	H	1.601690	0.496510	0.942075
N173	N	0.953298	0.042641	0.566652
N174	N	1.453298	0.542641	1.066652
H175	H	0.953431	0.042153	0.636683
H176	H	1.453431	0.542153	1.136683
H177	H	0.895269	0.053684	0.543561
H178	H	1.395269	0.553684	1.043561
H179	H	0.452167	-0.037506	-0.140522
H180	H	0.952167	0.462494	0.359478
