data_functionalizedCrystal
_audit_creation_method	'MofGen! by Chris Wilmer'
_symmetry_space_group_name_H-M	'P1'
_symmetry_Int_Tables_number	1
_symmetry_cell_setting	triclinic
loop_
_symmetry_equiv_pos_as_xyz
  x,y,z
_cell_length_a	15.995350
_cell_length_b	10.654541
_cell_length_c	9.130307
_cell_angle_alpha	89.999496
_cell_angle_beta	90.002128
_cell_angle_gamma	83.988152
loop_
_atom_site_label
_atom_site_type_symbol
_atom_site_fract_x
_atom_site_fract_y
_atom_site_fract_z
O1	O	1.111921	0.161871	-0.121666
O2	O	0.868262	0.181860	-0.121695
O3	O	0.995695	-0.010947	-0.121681
O4	O	0.984488	0.354679	-0.121681
O5	O	0.995691	-0.010949	0.121918
O6	O	0.868258	0.181859	0.121904
O7	O	1.111917	0.161869	0.121933
Cu8	Cu	0.990087	0.171864	0.144161
Cu9	Cu	0.990092	0.171866	-0.143923
O10	O	0.984484	0.354677	0.121918
C11	C	0.837060	0.181033	0.000101
C12	C	0.744095	0.178556	0.000089
C13	C	0.994870	-0.057735	0.000116
C14	C	0.992410	-0.197146	0.000105
N15	N	0.990090	0.171862	0.346784
C16	C	0.406296	0.169658	0.000120
C17	C	0.452934	0.032344	0.000663
C18	C	0.549638	0.034822	0.000104
C19	C	0.573882	0.174072	0.000105
C20	C	0.533191	0.241800	-0.138996
C21	C	0.436535	0.238351	-0.139102
C22	C	0.436208	0.241186	0.137916
C23	C	0.533153	0.241153	0.139744
C24	C	0.668594	0.176573	0.000092
C25	C	0.311584	0.167161	0.000123
C26	C	1.143119	0.162697	0.000134
C27	C	1.236083	0.165174	0.000136
C28	C	0.985309	0.401465	0.000119
C29	C	0.987769	0.540876	0.000120
C30	C	0.835388	0.570838	0.000119
C31	C	0.760358	0.651312	0.000124
C32	C	0.762675	0.782300	0.000125
C33	C	0.840031	0.832815	0.000116
C34	C	0.915062	0.752340	0.000110
C35	C	0.912736	0.621351	0.000114
C36	C	1.067441	0.722379	0.000100
C37	C	1.065125	0.591391	0.000110
C38	C	1.144797	0.772894	0.000091
C39	C	1.219829	0.692419	0.000096
C40	C	1.217509	0.561424	0.000097
C41	C	1.140156	0.510917	0.000105
N42	N	0.990096	0.171858	-0.346546
C43	C	1.102978	0.001180	0.346787
C44	C	1.159428	-0.084158	0.423455
C45	C	1.159436	-0.084158	0.576788
C46	C	1.102987	0.001185	0.653457
C47	C	1.046537	0.086522	0.576789
C48	C	1.046537	0.086516	0.423452
C49	C	0.933646	0.257196	0.576786
C50	C	0.933640	0.257205	0.423453
C51	C	0.877197	0.342539	0.653455
C52	C	0.820750	0.427884	0.576787
C53	C	0.820745	0.427883	0.423444
C54	C	0.877191	0.342542	0.346784
H55	H	0.577757	-0.018416	0.099818
F56	F	0.554000	0.373884	0.150727
H57	H	0.560181	0.191712	0.242650
F58	F	0.678033	0.597542	0.000121
F59	F	0.682819	0.867949	0.000122
F60	F	1.137680	0.371509	0.000115
H61	H	1.205399	-0.153652	0.639212
F62	F	0.585627	-0.034948	-0.130663
F63	F	0.760675	0.518696	0.658389
F64	F	1.102984	0.001186	0.183595
H65	H	0.774773	0.497370	0.361029
F66	F	1.219500	-0.174986	0.341852
F67	F	0.842493	0.972225	0.000090
F68	F	0.877202	0.342532	0.816646
F69	F	1.102988	0.001167	0.816649
F70	F	0.877193	0.342537	0.183593
H71	H	0.415410	0.196294	0.243351
H72	H	1.146678	0.879552	0.000081
F73	F	1.297369	0.475785	0.000080
F74	F	0.426907	-0.039074	-0.128996
F75	F	0.428302	-0.039399	0.131051
F76	F	1.302148	0.746188	0.000074
H77	H	0.417942	0.188962	-0.243085
F78	F	0.395146	0.370119	-0.147353
H79	H	0.547909	0.344103	-0.144167
H80	H	0.561294	0.194760	-0.242519
H81	H	0.833494	0.464182	0.000123
F82	F	0.395462	0.373514	0.139148
