data_functionalizedCrystal
_audit_creation_method	'MofGen! by Chris Wilmer'
_symmetry_space_group_name_H-M	'P1'
_symmetry_Int_Tables_number	1
_symmetry_cell_setting	triclinic
loop_
_symmetry_equiv_pos_as_xyz
  x,y,z
_cell_length_a	12.759394
_cell_length_b	13.897449
_cell_length_c	12.759387
_cell_angle_alpha	90.023866
_cell_angle_beta	89.968340
_cell_angle_gamma	89.985330
loop_
_atom_site_label
_atom_site_type_symbol
_atom_site_fract_x
_atom_site_fract_y
_atom_site_fract_z
Zn1	Zn	-0.418216	-1.474731	-0.594093
Zn2	Zn	-0.593933	-1.474631	-0.418411
Zn3	Zn	-0.418268	-1.313418	-0.418419
Zn4	Zn	-0.593853	-1.313410	-0.594040
O5	O	-0.506067	-1.394047	-0.506241
O6	O	-0.441537	-1.609700	-0.570807
O7	O	-0.570686	-1.453206	-0.271391
O8	O	-0.271240	-1.334862	-0.441749
O9	O	-0.570635	-1.609626	-0.441734
O10	O	-0.271202	-1.453378	-0.570815
O11	O	-0.441625	-1.334764	-0.271397
O12	O	-0.441548	-1.178435	-0.441697
O13	O	-0.570499	-1.334849	-0.741068
O14	O	-0.570549	-1.178430	-0.570724
O15	O	-0.441459	-1.453371	-0.741107
O16	O	-0.740943	-1.453199	-0.441682
O17	O	-0.740885	-1.334751	-0.570716
C18	C	-0.779035	-1.393990	-0.506215
C19	C	-0.895811	-1.394053	-0.506240
C20	C	-0.506046	-1.143433	-0.506207
C21	C	-0.506063	-1.036219	-0.506217
C22	C	-0.895819	-1.517485	-0.371977
C23	C	-0.950684	-1.579227	-0.304859
C24	C	-1.060405	-1.579283	-0.304887
C25	C	-1.115265	-1.517594	-0.372044
C26	C	-1.060400	-1.455853	-0.439163
C27	C	-0.950676	-1.455801	-0.439125
C28	C	-1.060392	-1.332427	-0.573428
C29	C	-0.950671	-1.332364	-0.573396
C30	C	-1.115252	-1.270737	-0.640585
C31	C	-1.060387	-1.208990	-0.707700
C32	C	-0.950659	-1.208935	-0.707668
C33	C	-0.895806	-1.270622	-0.640515
C34	C	-0.506061	-0.839924	-0.506237
C35	C	-0.506059	-0.949157	-0.506223
C36	C	-0.232034	-1.394132	-0.506289
C37	C	-0.115257	-1.394168	-0.506310
C38	C	-0.505964	-1.394120	-0.780274
C39	C	-0.505920	-1.394151	-0.897051
C40	C	-0.506082	-0.645640	-0.506265
C41	C	-0.506071	-0.752854	-0.506250
C42	C	-0.371560	-1.517577	-0.897112
C43	C	-0.304364	-1.579303	-0.952003
C44	C	-0.304326	-1.579326	-1.061724
C45	C	-0.371489	-1.517615	-1.116558
C46	C	-0.438684	-1.455889	-1.061666
C47	C	-0.438718	-1.455874	-0.951942
C48	C	-0.573038	-1.332460	-1.061606
C49	C	-0.573083	-1.332440	-0.951884
C50	C	-0.640200	-1.270749	-1.116439
C51	C	-0.707403	-1.209026	-1.061548
C52	C	-0.707440	-1.209006	-0.951819
C53	C	-0.640279	-1.270714	-0.896993
C54	C	-0.506094	-1.394030	-0.233273
C55	C	-0.505842	-1.394186	-0.116497
H56	H	-0.806478	-1.517433	-0.371934
H57	H	-0.640306	-1.270708	-0.807652
H58	H	-1.105062	-1.158772	-0.762379
F59	F	-0.778955	-1.143302	-0.893408
F60	F	-0.778869	-1.143351	-1.119910
H61	H	-1.204593	-1.270792	-0.640608
F62	F	-1.232040	-1.517338	-0.371722
F63	F	-0.892276	-1.143225	-0.779112
F64	F	-0.779031	-1.270789	-0.640714
H65	H	-0.249680	-1.629545	-0.907346
F66	F	-0.892292	-1.644881	-0.233393
H67	H	-1.105076	-1.629563	-0.250239
F68	F	-0.371608	-1.517568	-0.780336
F69	F	-0.371436	-1.517635	-1.233333
F70	F	-0.232796	-1.645009	-1.120145
F71	F	-0.640157	-1.270774	-1.233215
