data_functionalizedCrystal
_audit_creation_method	'MofGen! by Chris Wilmer'
_symmetry_space_group_name_H-M	'P1'
_symmetry_Int_Tables_number	1
_symmetry_cell_setting	triclinic
loop_
_symmetry_equiv_pos_as_xyz
  x,y,z
_cell_length_a	10.540539
_cell_length_b	9.616153
_cell_length_c	10.540539
_cell_angle_alpha	90.000094
_cell_angle_beta	84.525492
_cell_angle_gamma	90.004826
loop_
_atom_site_label
_atom_site_type_symbol
_atom_site_fract_x
_atom_site_fract_y
_atom_site_fract_z
O1	O	1.685892	0.115573	0.178895
O2	O	1.316479	0.115589	0.195751
O3	O	1.509614	0.115579	0.002617
O4	O	1.492758	0.115583	0.372030
O5	O	1.509587	-0.115712	0.002621
O6	O	1.316452	-0.115702	0.195755
O7	O	1.685865	-0.115718	0.178899
Zn8	Zn	1.501155	-0.152433	0.187328
Zn9	Zn	1.501190	0.152304	0.187323
O10	O	1.492731	-0.115708	0.372034
C11	C	1.269163	-0.000054	0.194489
C12	C	1.128215	-0.000048	0.190707
N13	N	1.501140	-0.360407	0.187331
C14	C	0.944788	-0.000589	0.045790
C15	C	1.091406	-0.000054	0.049624
C16	C	1.066557	0.132027	0.258600
C17	C	0.920013	0.132123	0.253785
C18	C	0.919494	-0.130899	0.256660
C19	C	1.066476	-0.132630	0.257959
C20	C	1.397510	-0.580772	0.290298
C21	C	1.397739	-0.419604	0.290684
C22	C	1.633864	-0.418862	0.217464
C23	C	1.633299	-0.580080	0.218193
C24	C	1.473368	-0.580319	0.053892
C25	C	1.470321	-0.419092	0.054757
C26	C	1.733182	-0.000072	0.180161
C27	C	1.874130	-0.000069	0.183943
C28	C	1.508336	-0.000064	-0.044684
C29	C	1.504554	-0.000056	-0.185632
N30	N	1.501215	0.360278	0.187310
C31	C	1.359637	0.000469	-0.369059
C32	C	1.363471	-0.000052	-0.222441
C33	C	1.572435	-0.132138	-0.247288
C34	C	1.567620	-0.132249	-0.393832
C35	C	1.570519	0.130772	-0.394355
C36	C	1.571819	0.132518	-0.247373
C37	C	1.494008	-0.000062	0.419335
C38	C	1.497790	-0.000060	0.560283
H39	H	1.134009	-0.094731	-0.003797
Br40	Br	1.675370	-0.351546	0.377865
H41	H	1.540848	-0.378801	-0.025564
H42	H	1.672423	0.131656	-0.441581
Br43	Br	1.494421	0.297630	-0.446929
H44	H	1.522152	0.230229	-0.206516
Br45	Br	1.483964	-0.296801	-0.440837
Br46	Br	0.894451	0.156386	-0.046730
Br47	Br	1.232614	-0.645410	0.260524
H48	H	1.378631	-0.621052	0.025213
Br49	Br	1.160965	0.158293	-0.039648
H50	H	1.309662	-0.094886	-0.180683
H51	H	1.415178	-0.621270	0.388722
H52	H	1.109157	0.230318	0.211434
H53	H	1.669084	-0.138246	-0.441801
H54	H	1.548980	-0.618439	-0.022762
Br55	Br	1.307582	-0.355422	0.016682
Br56	Br	1.743262	0.145819	-0.206996
H57	H	1.525259	-0.230425	-0.204686
Br58	Br	1.274447	0.157758	-0.151428
H59	H	0.872267	-0.131790	0.358563
Br60	Br	1.266757	0.158343	-0.416723
Br61	Br	1.765752	-0.645080	0.097889
Br62	Br	1.266835	-0.156028	-0.420010
H63	H	0.916192	-0.095307	-0.009944
H64	H	1.676042	-0.137054	-0.224933
H65	H	0.891814	0.230849	0.203603
H66	H	1.088911	0.136942	0.362208
Br67	Br	0.866904	-0.297760	0.180560
Br68	Br	0.840055	0.142116	0.422894
Br69	Br	1.106841	-0.145921	0.429406
Br70	Br	1.134551	-0.295485	0.175149
Br71	Br	1.233346	-0.353728	0.260553
Br72	Br	1.673892	-0.642738	0.380427
Br73	Br	1.427512	-0.355289	0.455681
H74	H	1.712918	-0.380514	0.144501
