data_functionalizedCrystal
_audit_creation_method	'MofGen! by Chris Wilmer'
_symmetry_space_group_name_H-M	'P1'
_symmetry_Int_Tables_number	1
_symmetry_cell_setting	triclinic
loop_
_symmetry_equiv_pos_as_xyz
  x,y,z
_cell_length_a	19.121102
_cell_length_b	29.839131
_cell_length_c	29.839125
_cell_angle_alpha	90.011606
_cell_angle_beta	92.451796
_cell_angle_gamma	87.595578
loop_
_atom_site_label
_atom_site_type_symbol
_atom_site_fract_x
_atom_site_fract_y
_atom_site_fract_z
Zn1	Zn	1.073589	-0.208296	0.283266
Zn2	Zn	1.073480	-0.283397	0.208133
Zn3	Zn	0.956152	-0.205074	0.204948
Zn4	Zn	0.956073	-0.280187	0.280035
O5	O	1.014823	-0.244238	0.244095
O6	O	1.171857	-0.220950	0.275985
O7	O	1.057903	-0.273002	0.144843
O8	O	0.971809	-0.142636	0.215356
O9	O	1.171777	-0.276126	0.220785
O10	O	1.058089	-0.145003	0.272896
O11	O	0.971703	-0.215459	0.142503
O12	O	0.857859	-0.212346	0.212223
O13	O	0.971675	-0.270655	0.343331
O14	O	0.857801	-0.267531	0.267389
O15	O	1.058013	-0.217837	0.345705
O16	O	1.057827	-0.345836	0.217652
O17	O	0.971569	-0.343477	0.270477
C18	C	0.832346	-0.239241	0.239110
C19	C	0.754282	-0.237113	0.236988
C20	C	0.717595	-0.264889	0.264668
C21	C	0.644245	-0.262885	0.262676
C22	C	0.607583	-0.233106	0.233002
C23	C	0.644275	-0.205327	0.205321
C24	C	0.717623	-0.207330	0.207315
C25	C	0.386118	-0.225618	0.225547
C26	C	0.312764	-0.223618	0.223554
C27	C	0.312740	-0.281175	0.280910
C28	C	0.386090	-0.283177	0.282900
C29	C	0.422775	-0.255397	0.255220
C30	C	0.532608	-0.231057	0.230964
C31	C	0.497749	-0.257443	0.257261
C32	C	1.014697	-0.360957	0.244070
C33	C	1.014707	-0.410892	0.244075
C34	C	1.059820	-0.721756	0.216633
C35	C	1.059906	-0.909432	0.216653
O36	O	1.098162	-0.934732	0.193301
N37	N	1.014969	-0.931684	0.244133
C38	C	0.970010	-0.907015	0.271613
O39	O	0.931796	-0.930249	0.294990
C40	C	0.969928	-0.719341	0.271595
C41	C	1.014863	-0.697091	0.244110
C42	C	1.104751	-0.699506	0.189151
C43	C	1.104727	-0.652590	0.189144
C44	C	1.059770	-0.627924	0.216620
C45	C	1.014838	-0.650174	0.244103
C46	C	0.924973	-0.694672	0.299076
C47	C	0.924958	-0.647751	0.299070
C48	C	0.969893	-0.625501	0.271585
C49	C	0.969856	-0.578592	0.271573
N50	N	1.014793	-0.556340	0.244093
C51	C	1.059750	-0.581006	0.216616
C52	C	0.970056	-1.005547	0.271619
C53	C	0.970076	-1.052465	0.271623
C54	C	1.059973	-1.054879	0.216664
C55	C	1.059949	-1.007959	0.216658
C56	C	1.014993	-0.983294	0.244139
C57	C	1.059694	-0.482478	0.216605
C58	C	1.059663	-0.435558	0.216599
C59	C	0.969769	-0.433149	0.271560
C60	C	0.969797	-0.480065	0.271564
C61	C	1.014765	-0.504729	0.244085
O62	O	0.931626	-0.553264	0.294917
O63	O	1.097970	-0.557764	0.193250
C64	C	1.059844	-0.768672	0.216640
C65	C	1.014912	-0.790923	0.244123
C66	C	0.969956	-0.766257	0.271599
C67	C	1.014932	-0.837841	0.244126
C68	C	1.059889	-0.862507	0.216650
C69	C	1.104826	-0.840254	0.189170
C70	C	1.104801	-0.793338	0.189163
C71	C	0.925018	-0.788509	0.299079
C72	C	0.925046	-0.835426	0.299083
C73	C	0.970003	-0.860092	0.271607
C74	C	1.198013	-0.249256	0.249101
C75	C	1.276078	-0.251394	0.251234
C76	C	1.014848	-0.244247	0.361274
C77	C	1.014858	-0.244251	0.411209
C78	C	1.014970	-0.127064	0.244132
C79	C	1.015032	-0.077131	0.244147
C80	C	1.014840	-0.244198	0.127373
C81	C	1.014966	-0.244071	0.077443
C82	C	0.969950	-0.271652	0.766562
C83	C	0.969925	-0.271703	0.578888
O84	O	0.931674	-0.295083	0.553571
N85	N	1.014874	-0.244210	0.556655
C86	C	1.059828	-0.216700	0.581343
O87	O	1.098054	-0.193314	0.558126
C88	C	1.059849	-0.216647	0.769016
C89	C	1.014903	-0.244145	0.791247
C90	C	0.925007	-0.299147	0.788792
C91	C	0.925017	-0.299136	0.835708
C92	C	0.969969	-0.271629	0.860393
C93	C	1.014913	-0.244134	0.838162
C94	C	1.104800	-0.189136	0.793703
C95	C	1.104800	-0.189124	0.840624
C96	C	1.059854	-0.216622	0.862855
C97	C	1.059875	-0.216616	0.909763
N98	N	1.014926	-0.244109	0.931996
C99	C	0.969974	-0.271616	0.907311
C100	C	1.059815	-0.216731	0.482812
C101	C	1.059811	-0.216745	0.435894
C102	C	0.969907	-0.271747	0.433442
C103	C	0.969915	-0.271735	0.480361
C104	C	1.014867	-0.244224	0.505045
C105	C	0.969997	-0.271590	1.005838
C106	C	0.970013	-0.271578	1.052758
C107	C	1.059914	-0.216574	1.055206
C108	C	1.059901	-0.216588	1.008290
C109	C	1.014937	-0.244097	0.983607
O110	O	1.098100	-0.193245	0.935108
O111	O	0.931743	-0.294991	0.930536
C112	C	0.969941	-0.271663	0.719646
C113	C	1.014884	-0.244168	0.697415
C114	C	1.059837	-0.216661	0.722100
C115	C	1.014880	-0.244182	0.650497
C116	C	0.969927	-0.271688	0.625812
C117	C	0.924979	-0.299181	0.648045
C118	C	0.924988	-0.299170	0.694961
C119	C	1.104785	-0.189168	0.699867
C120	C	1.104773	-0.189182	0.652951
C121	C	1.059820	-0.216689	0.628266
H122	H	0.502749	-0.206813	0.206802
O123	O	1.153240	-0.726107	0.159510
H124	H	1.184471	-0.702745	0.140399
O125	O	1.108138	-0.411558	0.186959
H126	H	1.096144	-0.420257	0.151366
H127	H	0.888397	-0.321546	0.768699
O128	O	0.921432	-0.301390	0.504335
H129	H	0.885726	-0.280299	0.524732
H130	H	0.888350	-0.627671	0.321450
O131	O	0.876488	-0.328847	0.621417
H132	H	0.884034	-0.324229	0.585058
O133	O	0.273194	-0.311161	0.310751
H134	H	0.287300	-0.303919	0.346412
H135	H	0.747440	-0.289140	0.288830
H136	H	1.141319	-0.634477	0.166764
O137	O	1.108188	-0.509077	0.186964
H138	H	1.139418	-0.485716	0.167851
O139	O	0.921413	-0.301412	0.406814
H140	H	0.928961	-0.296795	0.370455
O141	O	0.921599	-1.076461	0.301261
H142	H	0.953014	-1.098673	0.324993
O143	O	0.425682	-0.195670	0.195681
H144	H	0.387864	-0.174636	0.174704
O145	O	1.108308	-0.187061	0.509434
H146	H	1.139564	-0.167952	0.486088
H147	H	1.141429	-0.860346	0.166796
H148	H	0.747493	-0.184710	0.184778
O149	O	1.108295	-0.187091	0.411918
H150	H	1.139547	-0.167961	0.436970
H151	H	0.415935	-0.307427	0.307062
O152	O	0.604673	-0.292928	0.292444
H153	H	0.642489	-0.314007	0.313377
H154	H	0.888410	-0.768430	0.321454
O155	O	0.273217	-0.191495	0.191550
H156	H	0.311048	-0.172510	0.172641
O157	O	1.108463	-1.081490	0.187030
H158	H	1.139710	-1.058139	0.167917
O159	O	1.153281	-0.159476	0.769736
H160	H	1.121872	-0.135766	0.747498
H161	H	0.888388	-0.321561	0.713057
O162	O	0.604737	-0.173219	0.173302
H163	H	0.547569	-0.176500	0.176557
O164	O	1.153277	-0.159503	0.726489
H165	H	1.184531	-0.140393	0.703143
H166	H	1.096539	-0.989846	0.194278
O167	O	0.921548	-0.978945	0.301250
H168	H	0.890299	-1.002306	0.320350
O169	O	0.921284	-0.406541	0.301197
H170	H	0.928827	-0.370179	0.296577
O171	O	0.921332	-0.504068	0.301206
H172	H	0.890069	-0.479032	0.320312
H173	H	1.096516	-0.194181	1.075313
H174	H	0.888379	-0.712780	0.321456
H175	H	0.527603	-0.281687	0.281423
H176	H	1.141392	-0.775226	0.166782
H177	H	0.888449	-0.853537	0.321464
H178	H	0.933412	-0.293972	1.070856
O179	O	0.921494	-0.301254	0.979218
H180	H	0.890247	-0.320369	1.002565
O181	O	0.876527	-0.328787	0.859683
H182	H	0.845265	-0.347908	0.834629
O183	O	1.153289	-0.159453	0.867249
H184	H	1.184542	-0.140340	0.843905
H185	H	1.096505	-0.194200	0.990189
O186	O	1.153255	-0.159523	0.628975
H187	H	1.184508	-0.140393	0.654027
