data_functionalizedCrystal
_audit_creation_method	'MofGen! by Chris Wilmer'
_symmetry_space_group_name_H-M	'P1'
_symmetry_Int_Tables_number	1
_symmetry_cell_setting	triclinic
loop_
_symmetry_equiv_pos_as_xyz
  x,y,z
_cell_length_a	14.809374
_cell_length_b	15.698487
_cell_length_c	14.809374
_cell_angle_alpha	89.999658
_cell_angle_beta	60.797835
_cell_angle_gamma	67.426642
loop_
_atom_site_label
_atom_site_type_symbol
_atom_site_fract_x
_atom_site_fract_y
_atom_site_fract_z
Zr1	Zr	0.955222	0.940906	-0.203689
O2	O	1.113140	0.836558	-0.350847
O3	O	0.777456	0.958121	-0.145613
O4	O	0.926604	0.992965	-0.332153
O5	O	0.993488	0.791032	-0.031908
O6	O	0.926607	1.133147	-0.332156
O7	O	0.963992	0.801713	-0.164306
O8	O	0.659808	1.070817	0.001531
O9	O	1.260287	0.853363	-0.365595
O10	O	0.857927	1.087927	-0.136510
O11	O	0.879937	0.975340	-0.037700
O12	O	1.055539	1.016365	-0.257328
O13	O	1.077549	0.903777	-0.158519
Zr14	Zr	1.002269	1.147444	0.007467
Zr15	Zr	0.955227	1.164479	-0.203693
Zr16	Zr	1.002264	0.923870	0.007471
Zr17	Zr	1.189903	0.967707	-0.227211
Zr18	Zr	0.767587	1.120642	0.030988
O19	O	1.180035	1.130228	-0.050610
O20	O	1.113147	1.154451	-0.350852
O21	O	1.180028	0.812336	-0.050605
O22	O	0.844350	1.251791	0.154624
O23	O	0.777463	1.276014	-0.145618
O24	O	0.844343	0.933899	0.154630
O25	O	0.964003	1.297317	-0.164315
O26	O	1.030887	1.095384	0.135931
O27	O	1.030883	0.955202	0.135933
O28	O	0.993498	1.286636	-0.031916
O29	O	1.260291	1.031074	-0.365598
O30	O	0.697200	1.057276	0.169375
O31	O	0.697204	1.234987	0.169372
O32	O	0.659812	1.248528	0.001528
O33	O	1.297679	0.839822	-0.197751
O34	O	1.297683	1.017533	-0.197754
O35	O	0.901951	1.071984	0.061105
O36	O	0.879941	1.184572	-0.037704
O37	O	1.077554	1.113009	-0.158522
O38	O	1.099564	1.000422	-0.059713
C39	C	0.685195	1.010650	-0.068689
C40	C	0.585566	0.999272	-0.058704
C41	C	0.530230	1.050050	-0.103268
C42	C	0.427259	1.038292	-0.092949
C43	C	0.978739	0.764518	-0.098107
C44	C	0.978737	0.669605	-0.098105
C45	C	0.978757	0.495823	-0.098117
C46	C	0.978751	0.592526	-0.098113
C47	C	1.272296	1.077699	-0.127533
C48	C	1.371924	1.089077	-0.137519
C49	C	0.919903	1.065483	-0.362240
C50	C	0.899932	1.072715	-0.451883
C51	C	0.978751	1.323831	-0.098116
C52	C	0.978753	1.418744	-0.098118
C53	C	0.989058	1.040440	-0.551783
C54	C	0.968420	1.047914	-0.644435
C55	C	1.037587	1.022866	0.166018
C56	C	1.057558	1.015634	0.255660
C57	C	0.685201	1.290307	-0.068694
C58	C	0.585574	1.373841	-0.058710
C59	C	0.744037	0.989341	0.195439
C60	C	0.664379	0.970731	0.295068
C61	C	0.744043	1.268998	0.195435
C62	C	0.664387	1.345301	0.295062
C63	C	1.213447	0.819352	-0.391657
C64	C	1.293103	0.743049	-0.491284
C65	C	1.272290	0.798043	-0.127528
C66	C	1.371916	0.714508	-0.137512
C67	C	1.213454	1.099008	-0.391662
C68	C	1.293111	1.117618	-0.491291
C69	C	0.527296	1.362623	-0.105606
C70	C	0.433695	1.441108	-0.096246
C71	C	0.398369	1.530808	-0.039984
C72	C	0.456658	1.542025	0.006913
C73	C	0.550262	1.463543	-0.002454
C74	C	0.638464	1.012439	0.393439
C75	C	0.563632	0.994949	0.487057
C76	C	0.514710	0.935758	0.482303
C77	C	0.540631	0.894046	0.383921
C78	C	0.615469	0.911530	0.290304
C79	C	0.615491	1.439912	0.290270
C80	C	0.540657	1.511617	0.383871
C81	C	0.514715	1.488709	0.482262
C82	C	0.563620	1.394088	0.487051
C83	C	0.638458	1.322385	0.393451
C84	C	1.342011	0.648438	-0.486494
C85	C	1.416874	0.576736	-0.580097
C86	C	1.442821	0.599646	-0.678489
C87	C	1.393910	0.694266	-0.683278
C88	C	1.319055	0.765967	-0.589676
C89	C	1.430203	0.725728	-0.090626
C90	C	1.523824	0.647248	-0.100012
C91	C	1.559152	0.557548	-0.156278
C92	C	1.500860	0.546331	-0.203170
C93	C	1.407246	0.624811	-0.193790
C94	C	1.342011	1.176814	-0.486502
C95	C	1.416848	1.194318	-0.580104
C96	C	1.442789	1.152620	-0.678494
C97	C	1.393881	1.093421	-0.683281
C98	C	1.319039	1.075923	-0.589679
H99	H	0.556706	0.947096	-0.012909
H100	H	0.559082	1.102233	-0.149056
H101	H	0.427882	1.615070	0.052721
C102	C	0.535121	1.040853	0.595267
N103	N	0.513646	1.075431	0.676768
C104	C	0.614350	1.475896	0.049152
N105	N	0.662617	1.485207	0.088027
C106	C	0.692274	1.077548	0.398694
N107	N	0.732806	1.126585	0.402660
C108	C	0.432376	0.916544	0.585295
N109	N	0.370357	0.902081	0.662874
C110	C	1.525156	0.520760	-0.781444
N111	N	1.587167	0.461339	-0.858986
H112	H	1.359790	0.615661	-0.231968
H113	H	0.386246	1.431956	-0.134436
C114	C	1.422453	0.719450	-0.791519
N115	N	1.443945	0.738415	-0.873048
C116	C	1.313485	1.222699	-0.378281
N117	N	1.291997	1.257269	-0.296770
C118	C	1.422383	1.047598	-0.791517
N119	N	1.443841	1.013095	-0.873042
C120	C	0.486800	0.828941	0.378710
N121	N	0.446245	0.779909	0.374789
C122	C	1.265273	1.010788	-0.594966
N123	N	1.224782	0.961723	-0.598957
C124	C	1.313492	0.623216	-0.378272
N125	N	1.292025	0.604211	-0.296764
H126	H	1.149148	0.982468	-0.761283
C127	C	1.470641	1.259435	-0.574816
N128	N	1.511156	1.308479	-0.570830
H129	H	0.398403	0.986112	-0.047150
C130	C	1.539722	0.447649	-0.265042
N131	N	1.568987	0.373317	-0.311634
C132	C	0.776204	1.117521	-0.428998
N133	N	0.683009	1.151267	-0.411758
H134	H	1.080641	1.007279	-0.568718
C135	C	0.643952	0.865654	0.182100
N136	N	0.665399	0.831098	0.100603
H137	H	0.322148	1.594706	-0.032364
H138	H	0.400773	1.141263	-0.183310
H139	H	1.401449	0.798758	-0.044803
H140	H	0.876830	1.081084	-0.627493
H141	H	0.636600	1.458583	0.210164
H142	H	0.556052	1.289594	-0.151433
C143	C	1.525121	1.171877	-0.781451
N144	N	1.587137	1.186382	-0.858994
C145	C	0.486863	1.615693	0.378580
N146	N	0.446343	1.694080	0.374593
H147	H	1.456685	0.499698	-0.576178
H148	H	0.453774	1.547103	0.558470
H149	H	1.279233	0.843001	-0.593588
C150	C	0.535061	1.368902	0.595294
N151	N	0.513540	1.349934	0.676826
H152	H	0.678261	1.245349	0.397367
H153	H	1.571272	0.656399	-0.061821
C154	C	1.662129	0.471226	-0.166580
N155	N	1.739689	0.406210	-0.174333
