data_functionalizedCrystal
_audit_creation_method	'MofGen! by Chris Wilmer'
_symmetry_space_group_name_H-M	'P1'
_symmetry_Int_Tables_number	1
_symmetry_cell_setting	triclinic
loop_
_symmetry_equiv_pos_as_xyz
  x,y,z
_cell_length_a	13.032831
_cell_length_b	14.908520
_cell_length_c	13.032328
_cell_angle_alpha	99.984706
_cell_angle_beta	90.887223
_cell_angle_gamma	86.522975
loop_
_atom_site_label
_atom_site_type_symbol
_atom_site_fract_x
_atom_site_fract_y
_atom_site_fract_z
Zn1	Zn	1.453336	-0.608111	-0.815704
Zn2	Zn	1.953336	-0.108111	-0.315704
Zn3	Zn	1.465121	-0.742277	-0.651420
Zn4	Zn	1.965121	-0.242277	-0.151420
Zn5	Zn	1.305988	-0.570498	-0.619789
Zn6	Zn	1.805988	-0.070498	-0.119789
Zn7	Zn	1.271730	-0.737406	-0.801264
Zn8	Zn	1.771730	-0.237406	-0.301264
O9	O	1.374044	-0.664573	-0.722044
O10	O	1.874044	-0.164573	-0.222044
O11	O	1.597500	-0.643689	-0.813192
O12	O	2.097500	-0.143689	-0.313192
O13	O	1.463281	-0.705787	-0.502522
O14	O	1.963281	-0.205787	-0.002522
O15	O	1.334939	-0.449487	-0.638584
O16	O	1.834939	0.050513	-0.138584
O17	O	1.606158	-0.742260	-0.692493
O18	O	2.106158	-0.242260	-0.192493
O19	O	1.443195	-0.477121	-0.782521
O20	O	1.943195	0.022879	-0.282521
O21	O	1.346366	-0.579582	-0.479284
O22	O	1.846366	-0.079582	0.020716
O23	O	1.158843	-0.574859	-0.624582
O24	O	1.658843	-0.074859	-0.124582
O25	O	1.276551	-0.733957	-0.947881
O26	O	1.776551	-0.233957	-0.447881
O27	O	1.133673	-0.697485	-0.757911
O28	O	1.633673	-0.197485	-0.257911
O29	O	1.409976	-0.638965	-0.958490
O30	O	1.909976	-0.138965	-0.458490
O31	O	1.430062	-0.867631	-0.678491
O32	O	1.930062	-0.367631	-0.178491
O33	O	1.287978	-0.864052	-0.788581
O34	O	1.787978	-0.364052	-0.288581
C35	C	1.109283	-0.631562	-0.686248
C36	C	1.609283	-0.131562	-0.186248
C37	C	0.996012	-0.617464	-0.670960
C38	C	1.496012	-0.117464	-0.170960
C39	C	0.933093	-0.671931	-0.730023
C40	C	1.433093	-0.171931	-0.230023
C41	C	0.816022	-0.657361	-0.714224
C42	C	1.316022	-0.157361	-0.214224
C43	C	1.356606	-0.898518	-0.735428
C44	C	1.856606	-0.398518	-0.235428
C45	C	1.349235	-0.998615	-0.741201
C46	C	1.849235	-0.498615	-0.241201
C47	C	1.483455	-1.190402	-0.637536
C48	C	1.983455	-0.690402	-0.137536
C49	C	1.476533	-1.284452	-0.642957
C50	C	1.976533	-0.784452	-0.142957
C51	C	1.328474	-1.280770	-0.757469
C52	C	1.828474	-0.780770	-0.257469
C53	C	1.335396	-1.186720	-0.752048
C54	C	1.835396	-0.686720	-0.252048
C55	C	1.412888	-1.141539	-0.692078
C56	C	1.912888	-0.641539	-0.192078
C57	C	1.419805	-1.047485	-0.686652
C58	C	1.919805	-0.547485	-0.186652
C59	C	1.271751	-1.043806	-0.801169
C60	C	1.771751	-0.543806	-0.301169
C61	C	1.264829	-1.137856	-0.806591
C62	C	1.764829	-0.637856	-0.306591
C63	C	1.639838	-0.697713	-0.757981
C64	C	2.139838	-0.197713	-0.257981
C65	C	1.753104	-0.711836	-0.773295
C66	C	2.253104	-0.211836	-0.273295
C67	C	1.338128	-0.690114	-0.991754
C68	C	1.838128	-0.190114	-0.491754
C69	C	1.322823	-0.700997	-1.106689
C70	C	1.822823	-0.200997	-0.606689
C71	C	1.391574	-0.429720	-0.708635
C72	C	1.891574	0.070280	-0.208635
C73	C	1.399044	-0.329640	-0.702920
C74	C	1.899044	0.170360	-0.202920
C75	C	1.366211	-0.670105	-1.281972
C76	C	1.866211	-0.170105	-0.781972
C77	C	1.382025	-0.658848	-1.163180
C78	C	1.882025	-0.158848	-0.663180
C79	C	1.409883	-0.639074	-0.453388
C80	C	1.909883	-0.139074	0.046612
C81	C	1.425405	-0.627961	-0.338466
C82	C	1.925405	-0.127961	0.161534
H83	H	0.963208	-0.560044	-0.608700
H84	H	1.463208	-0.060044	-0.108700
H85	H	1.546546	-1.153613	-0.588698
H86	H	2.046546	-0.653613	-0.088698
H87	H	1.482901	-1.010699	-0.637818
H88	H	1.982901	-0.510699	-0.137818
H89	H	1.533998	-1.324234	-0.598545
H90	H	2.033998	-0.824234	-0.098545
O91	O	1.508048	-0.569133	-1.286047
O92	O	2.008048	-0.069133	-0.786047
H93	H	1.493113	-0.498229	-1.300318
H94	H	1.993113	0.001771	-0.800318
O95	O	1.244888	-1.329505	-0.822134
O96	O	1.744888	-0.829505	-0.322134
H97	H	1.251928	-1.403111	-0.816729
H98	H	1.751928	-0.903111	-0.316729
O99	O	1.181239	-1.186585	-0.871255
O100	O	1.681239	-0.686585	-0.371255
H101	H	1.188272	-1.260192	-0.865853
H102	H	1.688272	-0.760192	-0.365853
O103	O	1.195634	-0.991107	-0.860008
O104	O	1.695634	-0.491107	-0.360008
H105	H	1.213466	-0.918117	-0.846170
H106	H	1.713466	-0.418117	-0.346170
H107	H	0.965897	-0.729345	-0.792290
H108	H	1.465897	-0.229345	-0.292290
O109	O	1.283563	-0.728934	-1.334381
O110	O	1.783563	-0.228934	-0.834381
H111	H	1.284113	-0.728545	-1.419461
H112	H	1.784113	-0.228545	-0.919461
H113	H	1.444410	-0.614426	-1.123605
H114	H	1.944410	-0.114426	-0.623605
H115	H	1.260423	-0.745405	-1.146260
H116	H	1.760423	-0.245405	-0.646260
O117	O	0.772592	-0.581311	-0.631722
O118	O	1.272592	-0.081311	-0.131722
H119	H	0.687456	-0.581812	-0.632245
H120	H	1.187456	-0.081812	-0.132245
H121	H	0.785901	-0.769253	-0.835569
H122	H	1.285901	-0.269253	-0.335569
