data_functionalizedCrystal
_audit_creation_method	'MofGen! by Chris Wilmer'
_symmetry_space_group_name_H-M	'P1'
_symmetry_Int_Tables_number	1
_symmetry_cell_setting	triclinic
loop_
_symmetry_equiv_pos_as_xyz
  x,y,z
_cell_length_a	16.120484
_cell_length_b	19.077105
_cell_length_c	16.120297
_cell_angle_alpha	89.301750
_cell_angle_beta	95.614431
_cell_angle_gamma	89.261477
loop_
_atom_site_label
_atom_site_type_symbol
_atom_site_fract_x
_atom_site_fract_y
_atom_site_fract_z
Zn1	Zn	-0.408728	-1.035311	-0.541298
Zn2	Zn	0.091272	-0.535311	-0.041298
Zn3	Zn	-0.541413	-1.035223	-0.408604
Zn4	Zn	-0.041413	-0.535223	0.091396
Zn5	Zn	-0.396094	-0.924375	-0.395989
Zn6	Zn	0.103906	-0.424375	0.104011
Zn7	Zn	-0.542259	-0.911827	-0.542147
Zn8	Zn	-0.042259	-0.411827	-0.042147
O9	O	-0.472123	-0.976684	-0.472009
O10	O	0.027877	-0.476684	0.027991
O11	O	-0.431262	-1.133368	-0.528620
O12	O	0.068738	-0.633368	-0.028620
O13	O	-0.516495	-1.025733	-0.290230
O14	O	-0.016495	-0.525733	0.209770
O15	O	-0.281070	-0.944379	-0.409629
O16	O	0.218930	-0.444379	0.090371
O17	O	-0.528745	-1.133303	-0.431130
O18	O	-0.028745	-0.633303	0.068870
O19	O	-0.290352	-1.025883	-0.516387
O20	O	0.209648	-0.525883	-0.016387
O21	O	-0.409729	-0.944293	-0.280961
O22	O	0.090271	-0.444293	0.219039
O23	O	-0.410550	-0.824641	-0.410453
O24	O	0.089450	-0.324641	0.089547
O25	O	-0.530187	-0.922993	-0.658735
O26	O	-0.030187	-0.422993	-0.158735
O27	O	-0.517936	-0.815423	-0.517835
O28	O	-0.017936	-0.315423	-0.017835
O29	O	-0.432082	-1.013716	-0.658111
O30	O	0.067918	-0.513716	-0.158111
O31	O	-0.658225	-1.013566	-0.431954
O32	O	-0.158225	-0.513566	0.068046
O33	O	-0.658846	-0.922907	-0.530067
O34	O	-0.158846	-0.422907	-0.030067
C35	C	-0.462964	-0.794604	-0.462868
C36	C	0.037036	-0.294604	0.037132
C37	C	-0.459067	-0.716707	-0.458977
C38	C	0.040933	-0.216707	0.041023
C39	C	-0.688796	-0.966884	-0.482491
C40	C	-0.188796	-0.466884	0.017509
C41	C	-0.781495	-0.962754	-0.487006
C42	C	-0.281495	-0.462754	0.012994
C43	C	-0.482638	-0.966965	-0.689528
C44	C	0.017362	-0.466965	-0.189528
C45	C	-0.487119	-0.962823	-0.782222
C46	C	0.012881	-0.462823	-0.282222
C47	C	-0.951216	-0.955218	-0.495266
C48	C	-0.451216	-0.455218	0.004734
C49	C	-0.992197	-0.998275	-0.448772
C50	C	-0.492197	-0.498275	0.051228
C51	C	-1.086636	-0.994082	-0.453368
C52	C	-0.586636	-0.494082	0.046632
C53	C	-0.856769	-0.959410	-0.490671
C54	C	-0.356769	-0.459410	0.009329
C55	C	-0.254606	-0.986541	-0.461506
C56	C	0.245394	-0.486541	0.038494
C57	C	-0.161913	-0.990741	-0.457030
C58	C	0.338087	-0.490741	0.042970
C59	C	-0.481318	-1.159475	-0.481187
C60	C	0.018682	-0.659475	0.018813
C61	C	-0.485237	-1.237370	-0.485098
C62	C	0.014763	-0.737370	0.014902
C63	C	-0.513223	-0.675330	-0.512978
C64	C	-0.013223	-0.175330	-0.012978
C65	C	-0.509551	-0.602138	-0.509326
C66	C	-0.009551	-0.102138	-0.009326
C67	C	-0.451726	-0.570325	-0.451670
C68	C	0.048274	-0.070325	0.048330
C69	C	-0.397564	-0.611708	-0.397667
C70	C	0.102436	-0.111708	0.102333
C71	C	-0.401233	-0.684898	-0.401323
C72	C	0.098767	-0.184898	0.098677
C73	C	-0.434744	-0.351943	-0.434752
C74	C	0.065256	0.148057	0.065248
C75	C	-0.431081	-0.278747	-0.431098
C76	C	0.068919	0.221253	0.068902
C77	C	-0.543067	-0.269182	-0.542759
C78	C	-0.043067	0.230818	-0.042759
C79	C	-0.546735	-0.342375	-0.546407
C80	C	-0.046735	0.157625	-0.046407
C81	C	-0.492570	-0.383751	-0.492407
C82	C	0.007430	0.116249	0.007593
N83	N	-0.447972	-0.495512	-0.447934
N84	N	0.052028	0.004488	0.052066
N85	N	-0.496320	-0.458563	-0.496147
N86	N	0.003680	0.041437	0.003853
C87	C	-0.495280	-0.955237	-0.951932
C88	C	0.004720	-0.455237	-0.451932
C89	C	-0.448724	-0.998280	-0.992933
C90	C	0.051276	-0.498280	-0.492933
C91	C	-0.453265	-0.994059	-1.087365
C92	C	0.046735	-0.494059	-0.587365
C93	C	-0.490740	-0.959457	-0.857491
C94	C	0.009260	-0.459457	-0.357491
C95	C	-0.461591	-0.986408	-0.255335
C96	C	0.038409	-0.486408	0.244665
C97	C	-0.456882	-0.990696	-0.162638
C98	C	0.043118	-0.490696	0.337362
H99	H	-0.956355	-1.038287	-0.405515
H100	H	-0.456355	-0.538287	0.094485
H101	H	-0.987055	-0.915208	-0.538519
H102	H	-0.487055	-0.415208	-0.038519
H103	H	-0.538545	-0.915220	-0.987750
H104	H	-0.038545	-0.415220	-0.487750
C105	C	-0.341659	-0.730413	-0.341916
C106	C	0.158341	-0.230413	0.158084
N107	N	-0.296784	-0.764694	-0.297170
N108	N	0.203216	-0.264694	0.202830
C109	C	-0.375166	-0.397447	-0.375344
C110	C	0.124834	0.102553	0.124656
N111	N	-0.330290	-0.431724	-0.330595
N112	N	0.169710	0.068276	0.169405
C113	C	-0.390277	-1.052353	-0.944544
C114	C	0.109723	-0.552353	-0.444544
N115	N	-0.346261	-1.093081	-0.908095
N116	N	0.153739	-0.593081	-0.408095
H117	H	-0.560313	-0.701227	-0.559926
H118	H	-0.060313	-0.201227	-0.059926
H119	H	-0.593824	-0.368271	-0.593355
H120	H	-0.093824	0.131729	-0.093355
C121	C	-0.569142	-0.556627	-0.568716
C122	C	-0.069142	-0.056627	-0.068716
N123	N	-0.614034	-0.522347	-0.613447
N124	N	-0.114034	-0.022347	-0.113447
H125	H	-0.587164	-0.235486	-0.586724
H126	H	-0.087164	0.264514	-0.086724
H127	H	-0.383983	-0.252847	-0.384151
H128	H	0.116017	0.247153	0.115849
C129	C	-0.333953	-0.576711	-0.334245
C130	C	0.166047	-0.076711	0.165755
N131	N	-0.286043	-0.550352	-0.286473
N132	N	0.213957	-0.050352	0.213527
