data_functionalizedCrystal
_audit_creation_method	'MofGen! by Chris Wilmer'
_symmetry_space_group_name_H-M	'P1'
_symmetry_Int_Tables_number	1
_symmetry_cell_setting	triclinic
loop_
_symmetry_equiv_pos_as_xyz
  x,y,z
_cell_length_a	31.640172
_cell_length_b	20.919309
_cell_length_c	20.919309
_cell_angle_alpha	60.101124
_cell_angle_beta	89.996393
_cell_angle_gamma	62.585408
loop_
_atom_site_label
_atom_site_type_symbol
_atom_site_fract_x
_atom_site_fract_y
_atom_site_fract_z
Zr1	Zr	0.427742	0.692369	-0.106856
O2	O	0.366135	0.817905	-0.209952
O3	O	0.444163	0.561537	-0.071788
O4	O	0.450757	0.684719	-0.204962
O5	O	0.357144	0.702605	0.024331
O6	O	0.520313	0.684707	-0.204966
O7	O	0.359541	0.694724	-0.076779
O8	O	0.508517	0.464359	0.033257
O9	O	0.368940	0.922954	-0.213892
O10	O	0.506054	0.617303	-0.061020
O11	O	0.452356	0.623193	0.014440
O12	O	0.460120	0.768223	-0.142355
O13	O	0.406422	0.774113	-0.066895
Zr14	Zr	0.534853	0.704921	0.054396
Zr15	Zr	0.538676	0.692351	-0.106862
Zr16	Zr	0.423919	0.704939	0.054402
Zr17	Zr	0.432215	0.859910	-0.113140
Zr18	Zr	0.530380	0.537380	0.060680
O19	O	0.518433	0.835753	0.019328
O20	O	0.523869	0.817880	-0.209960
O21	O	0.360699	0.835778	0.019336
O22	O	0.596461	0.579385	0.157492
O23	O	0.601896	0.561512	-0.071797
O24	O	0.438727	0.579410	0.157500
O25	O	0.605452	0.694685	-0.076791
O26	O	0.511838	0.712571	0.152502
O27	O	0.442282	0.712582	0.152505
O28	O	0.603055	0.702566	0.024318
O29	O	0.457117	0.922940	-0.213897
O30	O	0.505478	0.474350	0.161436
O31	O	0.593656	0.474336	0.161432
O32	O	0.596695	0.464345	0.033253
O33	O	0.365901	0.932945	-0.085713
O34	O	0.454078	0.932931	-0.085718
O35	O	0.502476	0.629067	0.089894
O36	O	0.556174	0.623177	0.014435
O37	O	0.510240	0.774097	-0.066900
O38	O	0.456542	0.779987	0.008559
C39	C	0.475703	0.489077	-0.018370
C40	C	0.473804	0.417952	-0.015703
C41	C	0.500940	0.381462	-0.053839
C42	C	0.499157	0.314628	-0.051325
C43	C	0.470234	0.284289	-0.010679
C44	C	0.443097	0.320781	0.027462
C45	C	0.444883	0.387610	0.024952
C46	C	0.463441	0.082660	-0.001127
C47	C	0.461656	0.015828	0.001378
C48	C	0.517716	0.009678	-0.077407
C49	C	0.519497	0.076512	-0.079917
C50	C	0.492363	0.112995	-0.041773
C51	C	0.468410	0.215976	-0.008111
C52	C	0.494190	0.181303	-0.044338
C53	C	0.342536	0.698667	-0.026223
C54	C	0.295442	0.698675	-0.026220
C55	C	0.004756	0.694287	-0.081930
C56	C	-0.172230	0.694275	-0.081935
O57	O	-0.193981	0.690544	-0.129288
N58	N	-0.195682	0.698619	-0.026234
C59	C	-0.174882	0.702960	0.029476
O60	O	-0.198887	0.706645	0.076858
C61	C	0.002106	0.702966	0.029483
C62	C	0.025552	0.698630	-0.026226
C63	C	0.028203	0.689951	-0.137635
C64	C	0.072445	0.689959	-0.137636
C65	C	0.093241	0.694302	-0.081932
C66	C	0.069795	0.698638	-0.026227
C67	C	0.022907	0.707300	0.085196
C68	C	0.067158	0.707299	0.085194
C69	C	0.090604	0.702964	0.029484
C70	C	0.134833	0.702989	0.029476
N71	N	0.158285	0.698646	-0.026225
C72	C	0.137489	0.694302	-0.081929
C73	C	-0.267803	0.702959	0.029467
C74	C	-0.312051	0.702959	0.029464
C75	C	-0.309396	0.694272	-0.081946
C76	C	-0.265150	0.694278	-0.081946
C77	C	-0.244352	0.698615	-0.026235
C78	C	0.230401	0.694319	-0.081927
C79	C	0.274646	0.694331	-0.081924
C80	C	0.271989	0.703013	0.029488
C81	C	0.227746	0.703006	0.029484
C82	C	0.206954	0.698656	-0.026227
O83	O	0.156615	0.706709	0.076809
O84	O	0.161507	0.690598	-0.129294
C85	C	-0.039486	0.694279	-0.081929
C86	C	-0.062933	0.698615	-0.026225
C87	C	-0.042137	0.702958	0.029479
C88	C	-0.107180	0.698615	-0.026227
C89	C	-0.127976	0.694272	-0.081931
C90	C	-0.104525	0.689928	-0.137633
C91	C	-0.060282	0.689936	-0.137633
C92	C	-0.065588	0.707302	0.085180
C93	C	-0.109831	0.707295	0.085176
C94	C	-0.130627	0.702951	0.029472
C95	C	0.620059	0.698623	-0.026237
C96	C	0.667153	0.698615	-0.026240
C97	C	0.486080	0.682922	-0.227940
C98	C	0.487703	0.677586	-0.296398
C99	C	0.486893	0.908213	-0.034090
C100	C	0.488792	0.979338	-0.036758
C101	C	0.464489	0.753856	-0.371016
C102	C	0.466020	0.748836	-0.435337
C103	C	0.490763	0.667547	-0.425038
C104	C	0.513980	0.591271	-0.350413
C105	C	0.512451	0.596291	-0.286093
C106	C	0.496581	0.648449	-0.617117
C107	C	0.498107	0.643434	-0.681445
C108	C	0.450148	0.801000	-0.766364
C109	C	0.448619	0.806013	-0.702040
C110	C	0.471838	0.729738	-0.627420
C111	C	0.492328	0.662414	-0.490784
C112	C	0.470276	0.734871	-0.561676
C113	C	0.476516	0.714368	0.175479
C114	C	0.474893	0.719704	0.243938
C115	C	0.614464	0.489055	-0.018378
C116	C	0.659659	0.417922	-0.015712
C117	C	0.470921	0.504800	0.183339
C118	C	0.467399	0.439011	0.254465
C119	C	0.609682	0.504778	0.183332
C120	C	0.653254	0.438981	0.254455
C121	C	0.352914	0.892512	-0.235792
C122	C	0.309341	0.958309	-0.306916
C123	C	0.348132	0.908235	-0.034083
C124	C	0.302936	0.979368	-0.036748
C125	C	0.491675	0.892490	-0.235800
C126	C	0.495197	0.958279	-0.306926
C127	C	0.654722	0.381451	-0.053854
C128	C	0.697184	0.314622	-0.051365
C129	C	0.744583	0.284261	-0.010730
C130	C	0.749520	0.320739	0.027413
C131	C	0.707058	0.387571	0.024919
C132	C	0.491907	0.411182	0.327260
C133	C	0.488596	0.349376	0.394096
C134	C	0.460779	0.315395	0.388136
C135	C	0.436268	0.343230	0.315334
C136	C	0.439577	0.405039	0.248499
C137	C	0.701751	0.405008	0.248467
C138	C	0.742696	0.343193	0.315288
C139	C	0.735144	0.315349	0.388098
C140	C	0.686643	0.349329	0.394085
C141	C	0.645699	0.411147	0.327264
C142	C	0.260845	0.992290	-0.300927
C143	C	0.219900	1.054125	-0.367749
C144	C	0.227452	1.081973	-0.440559
C145	C	0.275953	1.047989	-0.446546
C146	C	0.316897	0.986160	-0.379725
C147	C	0.307874	1.015846	0.001387
C148	C	0.265413	1.082692	-0.001121
C149	C	0.218014	1.113055	-0.041758
C150	C	0.213077	1.076574	-0.079898
C151	C	0.255538	1.009733	-0.077395
C152	C	0.523017	0.992241	-0.300941
C153	C	0.526336	1.054048	-0.367765
C154	C	0.501831	1.081898	-0.440573
C155	C	0.474010	1.047930	-0.446556
C156	C	0.470694	0.986119	-0.379733
H157	H	0.438101	-0.008870	0.034477
H158	H	0.084089	0.710828	0.130564
H159	H	0.514558	0.438843	0.332127
H160	H	0.413620	0.315554	0.310492
H161	H	0.524489	0.406163	-0.086941
H162	H	0.768488	0.265013	0.442502
H163	H	0.542973	0.969576	-0.241663
H164	H	0.680501	0.326649	0.453376
H165	H	0.419620	0.427689	0.189229
H166	H	0.504535	1.132229	-0.494978
H167	H	-0.128920	0.710832	0.130541
H168	H	0.091534	0.686425	-0.182997
H169	H	0.616131	0.406169	-0.086953
H170	H	0.521253	0.284918	-0.082377
H171	H	0.707909	0.427669	0.189187
H172	H	0.269442	1.112384	0.029940
H173	H	0.428473	0.872208	-0.710434
H174	H	0.512473	0.596228	-0.482406
H175	H	0.606212	0.438800	0.332151
H176	H	0.782185	0.315533	0.310399
H177	H	0.779154	0.229841	-0.008705
H178	H	0.419551	0.296070	0.060561
H179	H	0.208652	0.706549	0.074841
H180	H	0.254686	0.969620	-0.241648
H181	H	0.288927	0.706553	0.074840
H182	H	0.422785	0.417321	0.056004
H183	H	0.517741	0.206004	-0.077428
H184	H	0.180412	1.081785	-0.362860
H185	H	0.194109	1.132319	-0.494964
H186	H	0.282097	1.070671	-0.505836
H187	H	0.356384	0.958492	-0.384610
H188	H	0.346465	0.991130	0.034483
H189	H	0.174479	1.101305	-0.112984
H190	H	0.183443	1.167481	-0.043790
H191	H	0.251510	0.980035	-0.108446
H192	H	0.548991	1.081699	-0.362878
H193	H	0.448038	0.958474	-0.384616
H194	H	0.454059	1.070615	-0.505845
H195	H	0.543048	0.101212	-0.113014
H196	H	0.693154	0.284929	-0.082426
H197	H	0.447118	0.810943	-0.496092
H198	H	0.539809	-0.020034	-0.108462
H199	H	0.441348	0.112354	0.029936
H200	H	0.293734	0.690803	-0.127293
H201	H	0.444861	0.191266	0.024983
H202	H	0.213478	0.690776	-0.127291
H203	H	0.431245	0.863099	-0.827124
H204	H	0.458089	0.265066	0.442563
H205	H	0.788118	0.296009	0.060497
H206	H	0.011276	0.686411	-0.182996
H207	H	-0.246062	0.690748	-0.127310
H208	H	-0.326336	0.690737	-0.127304
H209	H	-0.250873	0.706491	0.074835
H210	H	0.003823	0.710830	0.130560
H211	H	-0.041195	0.686405	-0.182997
H212	H	-0.331142	0.706502	0.074821
H213	H	-0.121466	0.686396	-0.182992
H214	H	-0.048659	0.710838	0.130542
H215	H	0.444338	0.820050	-0.379410
H216	H	0.518254	0.577235	-0.673051
H217	H	0.508558	0.326720	0.453368
H218	H	0.534128	0.525084	-0.342032
H219	H	0.515488	0.586340	-0.556367
H220	H	0.531354	0.534184	-0.225336
H221	H	0.450133	0.801056	-0.570058
H222	H	0.711086	0.417258	0.055983
