data_functionalizedCrystal
_audit_creation_method	'MofGen! by Chris Wilmer'
_symmetry_space_group_name_H-M	'P1'
_symmetry_Int_Tables_number	1
_symmetry_cell_setting	triclinic
loop_
_symmetry_equiv_pos_as_xyz
  x,y,z
_cell_length_a	14.519731
_cell_length_b	15.944493
_cell_length_c	12.996460
_cell_angle_alpha	89.999729
_cell_angle_beta	89.994327
_cell_angle_gamma	83.581948
loop_
_atom_site_label
_atom_site_type_symbol
_atom_site_fract_x
_atom_site_fract_y
_atom_site_fract_z
O1	O	1.223639	0.110197	-0.085555
O2	O	1.556972	0.443531	0.247778
O3	O	1.890305	0.776864	0.581111
O4	O	0.955139	0.123146	-0.085555
O5	O	1.288472	0.456479	0.247778
O6	O	1.621806	0.789812	0.581112
O7	O	1.096749	-0.005596	-0.085564
O8	O	1.430082	0.327738	0.247770
O9	O	1.763415	0.661071	0.581103
O10	O	1.082029	0.238938	-0.085547
O11	O	1.415362	0.572272	0.247787
O12	O	1.748695	0.905605	0.581120
O13	O	1.096734	-0.005603	0.085570
O14	O	1.430067	0.327731	0.418903
O15	O	1.763401	0.661064	0.752237
O16	O	0.955124	0.123138	0.085579
O17	O	1.288457	0.456472	0.418912
O18	O	1.621791	0.789805	0.752245
O19	O	1.223624	0.110190	0.085579
O20	O	1.556957	0.443523	0.418912
O21	O	1.890291	0.776857	0.752245
Cu22	Cu	1.089373	0.116664	0.101205
Cu23	Cu	1.422706	0.449997	0.434538
Cu24	Cu	1.756039	0.783330	0.767871
Cu25	Cu	1.089390	0.116672	-0.101181
Cu26	Cu	1.422723	0.450005	0.232152
Cu27	Cu	1.756057	0.783339	0.565486
O28	O	1.082014	0.238931	0.085587
O29	O	1.415347	0.572265	0.418921
O30	O	1.748681	0.905598	0.752254
C31	C	0.920773	0.122535	0.000012
C32	C	1.254107	0.455869	0.333345
C33	C	1.587440	0.789202	0.666678
C34	C	0.818397	0.120717	0.000011
C35	C	1.151730	0.454051	0.333344
C36	C	1.485063	0.787384	0.666677
C37	C	0.735255	0.119240	0.000007
C38	C	1.068589	0.452573	0.333340
C39	C	1.401922	0.785907	0.666673
C40	C	0.630950	0.117394	0.000006
C41	C	0.964284	0.450727	0.333339
C42	C	1.297617	0.784061	0.666673
C43	C	0.547814	0.115929	0.000006
C44	C	0.881148	0.449262	0.333339
C45	C	1.214481	0.782596	0.666673
C46	C	0.443502	0.114083	0.000004
C47	C	0.776836	0.447417	0.333337
C48	C	1.110169	0.780750	0.666670
C49	C	1.096140	-0.036895	-0.000001
C50	C	1.429473	0.296438	0.333332
C51	C	1.762806	0.629772	0.666665
C52	C	1.094336	-0.130146	-0.000014
C53	C	1.427669	0.203187	0.333319
C54	C	1.761003	0.536521	0.666652
C55	C	1.177691	-0.365779	0.000005
C56	C	1.511024	-0.032446	0.333339
C57	C	1.844358	0.300887	0.666672
C58	C	1.132748	-0.416412	-0.084372
C59	C	1.466081	-0.083079	0.248961
C60	C	1.799415	0.250254	0.582295
C61	C	1.090994	-0.300872	-0.000002
C62	C	1.424327	0.032461	0.333332
C63	C	1.757661	0.365794	0.666665
C64	C	1.132713	-0.416395	0.084352
C65	C	1.466047	-0.083062	0.417686
C66	C	1.799380	0.250271	0.751019
C67	C	1.087772	-0.465787	0.000015
C68	C	1.421105	-0.132453	0.333348
C69	C	1.754439	0.200880	0.666682
C70	C	1.046074	-0.350277	-0.084449
C71	C	1.379408	-0.016944	0.248885
C72	C	1.712741	0.316390	0.582218
C73	C	1.046052	-0.350257	0.084352
C74	C	1.379386	-0.016923	0.417685
C75	C	1.712719	0.316410	0.751018
C76	C	1.001046	-0.400857	-0.000046
C77	C	1.334379	-0.067523	0.333287
C78	C	1.667713	0.265810	0.666620
C79	C	1.092852	-0.205870	-0.000012
C80	C	1.426186	0.127464	0.333321
C81	C	1.759519	0.460797	0.666654
C82	C	1.085907	-0.560787	0.000018
C83	C	1.419240	-0.227453	0.333351
C84	C	1.752573	0.105880	0.666685
C85	C	1.257990	0.110800	0.000010
C86	C	1.591323	0.444134	0.333343
C87	C	1.924656	0.777467	0.666676
C88	C	1.360366	0.112618	0.000004
C89	C	1.693700	0.445952	0.333337
C90	C	2.027033	0.779285	0.666670
C91	C	1.082623	0.270231	0.000022
C92	C	1.415956	0.603564	0.333356
C93	C	1.749290	0.936897	0.666689
C94	C	1.084427	0.363482	0.000029
C95	C	1.417760	0.696815	0.333362
C96	C	1.751094	1.030149	0.666695
N97	N	1.089367	0.116657	0.243552
N98	N	1.422701	0.449990	0.576885
N99	N	1.756034	0.783324	0.910218
N100	N	1.089403	0.116672	-0.243528
N101	N	1.422736	0.450005	0.089805
N102	N	1.756070	0.783339	0.423139
C103	C	1.089389	0.116673	0.663366
C104	C	1.422722	0.450006	0.996699
C105	C	1.756056	0.783340	1.330033
C106	C	1.089380	0.116671	0.546561
C107	C	1.422713	0.450005	0.879894
C108	C	1.756047	0.783338	1.213227
C109	C	1.089378	0.116666	0.453462
C110	C	1.422712	0.449999	0.786796
C111	C	1.756045	0.783332	1.120129
C112	C	1.089369	0.116663	0.336650
C113	C	1.422702	0.449996	0.669983
C114	C	1.756036	0.783330	1.003317
H115	H	1.252369	-0.350037	-0.000080
H116	H	1.585703	-0.016704	0.333254
H117	H	1.919036	0.316629	0.666587
Br118	Br	0.985089	-0.302060	0.203256
Br119	Br	1.318422	0.031273	0.536589
Br120	Br	1.651756	0.364607	0.869922
H121	H	1.169368	-0.445299	-0.155708
H122	H	1.502701	-0.111966	0.177625
H123	H	1.836034	0.221367	0.510959
Br124	Br	1.193755	-0.464528	0.203240
Br125	Br	1.527088	-0.131195	0.536574
Br126	Br	1.860421	0.202138	0.869907
H127	H	1.009488	-0.321510	-0.155859
H128	H	1.342821	0.011824	0.177474
H129	H	1.676155	0.345157	0.510807
H130	H	0.926309	-0.416436	-0.000093
H131	H	1.259643	-0.083103	0.333241
H132	H	1.592976	0.250230	0.666574
