data_functionalizedCrystal
_audit_creation_method	'MofGen! by Chris Wilmer'
_symmetry_space_group_name_H-M	'P1'
_symmetry_Int_Tables_number	1
_symmetry_cell_setting	triclinic
loop_
_symmetry_equiv_pos_as_xyz
  x,y,z
_cell_length_a	12.811457
_cell_length_b	14.853567
_cell_length_c	11.892095
_cell_angle_alpha	93.898435
_cell_angle_beta	91.498327
_cell_angle_gamma	83.839833
loop_
_atom_site_label
_atom_site_type_symbol
_atom_site_fract_x
_atom_site_fract_y
_atom_site_fract_z
O1	O	1.389381	0.124378	0.048441
O2	O	1.086037	0.135686	0.017342
O3	O	1.245812	-0.001126	0.033719
O4	O	1.229606	0.261189	0.032064
O5	O	1.232491	0.010264	0.220361
O6	O	1.072716	0.147075	0.203984
O7	O	1.376060	0.135767	0.235083
Zn8	Zn	1.222273	0.143229	0.249167
Zn9	Zn	1.239824	0.128223	0.003258
O10	O	1.216285	0.272579	0.218706
C11	C	1.040556	0.140398	0.106683
C12	C	0.924881	0.137459	0.094824
C13	C	0.692993	0.144338	0.276038
C14	C	0.584307	0.141576	0.264901
C15	C	0.598821	0.129169	0.061413
C16	C	0.707507	0.131930	0.072550
C17	C	0.754589	0.139516	0.179866
C18	C	0.863277	0.142284	0.191003
C19	C	0.877790	0.129870	-0.012485
C20	C	0.769103	0.127108	-0.023622
C21	C	1.238417	-0.029027	0.126961
C22	C	1.236218	-0.129130	0.126726
C23	C	1.132005	-0.542595	0.116064
C24	C	1.321821	-0.562178	0.135524
C25	C	1.323891	-0.468126	0.135729
C26	C	1.230016	-0.411304	0.126103
C27	C	1.134071	-0.448534	0.116272
C28	C	1.419832	-0.430889	0.145572
C29	C	1.421906	-0.336831	0.145779
C30	C	1.328030	-0.280008	0.136145
C31	C	1.232082	-0.317243	0.126312
C32	C	1.138207	-0.260421	0.116686
C33	C	1.042258	-0.297655	0.106845
C34	C	1.040196	-0.391711	0.106638
C35	C	1.330093	-0.185952	0.136352
C36	C	1.140273	-0.166360	0.116895
C37	C	1.421542	0.131055	0.145740
C38	C	1.537216	0.133993	0.157592
C39	C	1.223680	0.300479	0.125461
C40	C	1.225880	0.400583	0.125689
N41	N	1.210301	0.153470	0.416994
N42	N	1.251804	0.117976	-0.164568
C43	C	1.335105	0.046665	0.666434
C44	C	1.326744	0.053830	0.783919
C45	C	1.185216	0.174959	0.769451
C46	C	1.193577	0.167795	0.651966
C47	C	1.268524	0.103646	0.600462
C48	C	1.276889	0.096486	0.482975
C49	C	1.135356	0.217611	0.468509
C50	C	1.126996	0.224776	0.585994
H51	H	0.534158	0.145507	0.343215
H52	H	1.081145	0.264012	0.414780
H53	H	1.500033	-0.306524	0.153790
H54	H	1.063828	-0.120102	0.109051
H55	H	0.731326	0.150526	0.363419
H56	H	1.396137	-0.005561	0.624500
H57	H	1.398249	-0.608447	0.143369
H58	H	0.962080	-0.422036	0.098628
H59	H	1.337917	0.044256	0.441043
H60	H	1.380960	0.007429	0.837631
H61	H	0.560470	0.122977	-0.025959
H62	H	1.124189	0.227181	0.811400
H63	H	1.053886	-0.572916	0.108047
H64	H	1.496259	-0.477159	0.153419
H65	H	0.927953	0.125949	-0.090795
H66	H	0.730755	0.120928	-0.110996
H67	H	1.408212	-0.155640	0.144371
H68	H	0.965825	-0.251378	0.099016
H69	H	0.901608	0.148466	0.278385
H70	H	1.065973	0.277002	0.627941
